AV-unprocessed.smi:2047|AV-procd|sdf|8319|dock10
  -GOLD-   2272010583D 1   1.00000     0.00000
 Structure written by MMmdl.
 42 44  0  0  0  0  0  0  0  0  3 V2000
  154.1055  138.7180  159.8047 O   0  0  0  0  0  0  0  0  0  0  0  0
  153.9529  139.5212  158.8773 C   0  0  0  0  0  0  0  0  0  0  0  0
  153.7250  140.8203  159.1351 N   0  0  0  0  0  0  0  0  0  0  0  0
  153.6229  141.4774  160.3936 C   0  0  0  0  0  0  0  0  0  0  0  0
  154.1474  140.9068  161.5808 C   0  0  0  0  0  0  0  0  0  0  0  0
  154.0133  141.5907  162.8043 C   0  0  0  0  0  0  0  0  0  0  0  0
  153.3472  142.8289  162.8237 C   0  0  0  0  0  0  0  0  0  0  0  0
  152.8420  143.3353  161.6796 N   0  3  0  0  0  0  0  0  0  0  0  0
  152.9414  142.7225  160.4736 C   0  0  0  0  0  0  0  0  0  0  0  0
  152.3500  143.3330  159.3467 N   0  0  0  0  0  0  0  0  0  0  0  0
  151.2907  142.5456  158.7203 C   0  0  0  0  0  0  0  0  0  0  0  0
  150.2270  143.5415  158.2522 C   0  0  0  0  0  0  0  0  0  0  0  0
  150.4166  144.7226  159.1959 C   0  0  0  0  0  0  0  0  0  0  0  0
  151.9284  144.7311  159.4114 C   0  0  0  0  0  0  0  0  0  0  0  0
  154.0006  139.2696  157.5419 N   0  5  0  0  0  0  0  0  0  0  0  0
  152.8941  138.7222  156.7519 C   0  0  2  0  0  0  0  0  0  0  0  0
  153.3757  138.3112  155.3464 C   0  0  0  0  0  0  0  0  0  0  0  0
  152.1479  138.0850  154.4528 C   0  0  0  0  0  0  0  0  0  0  0  0
  150.8740  139.2629  155.0494 S   0  0  0  0  0  0  0  0  0  0  0  0
  150.8053  140.4159  154.1380 O   0  0  0  0  0  0  0  0  0  0  0  0
  149.6593  138.5135  155.4070 O   0  0  0  0  0  0  0  0  0  0  0  0
  151.7707  139.7559  156.5741 C   0  0  0  0  0  0  0  0  0  0  0  0
  153.7223  141.4231  158.3256 H   0  0  0  0  0  0  0  0  0  0  0  0
  154.6413  139.9469  161.5719 H   0  0  0  0  0  0  0  0  0  0  0  0
  154.4122  141.1674  163.7144 H   0  0  0  0  0  0  0  0  0  0  0  0
  153.1951  143.4213  163.7143 H   0  0  0  0  0  0  0  0  0  0  0  0
  151.6755  141.9595  157.8855 H   0  0  0  0  0  0  0  0  0  0  0  0
  150.8598  141.8527  159.4452 H   0  0  0  0  0  0  0  0  0  0  0  0
  150.4366  143.8524  157.2276 H   0  0  0  0  0  0  0  0  0  0  0  0
  149.2182  143.1290  158.2799 H   0  0  0  0  0  0  0  0  0  0  0  0
  150.0394  145.6610  158.7889 H   0  0  0  0  0  0  0  0  0  0  0  0
  149.9056  144.5305  160.1404 H   0  0  0  0  0  0  0  0  0  0  0  0
  152.2028  145.2496  160.3298 H   0  0  0  0  0  0  0  0  0  0  0  0
  152.4161  145.2610  158.5926 H   0  0  0  0  0  0  0  0  0  0  0  0
  152.4617  137.8336  157.2149 H   0  0  0  0  0  0  0  0  0  0  0  0
  153.9736  139.1166  154.9169 H   0  0  0  0  0  0  0  0  0  0  0  0
  154.0114  137.4259  155.3794 H   0  0  0  0  0  0  0  0  0  0  0  0
  152.3570  138.2596  153.3976 H   0  0  0  0  0  0  0  0  0  0  0  0
  151.7559  137.0729  154.5651 H   0  0  0  0  0  0  0  0  0  0  0  0
  151.0860  139.7872  157.4215 H   0  0  0  0  0  0  0  0  0  0  0  0
  152.1726  140.7568  156.4130 H   0  0  0  0  0  0  0  0  0  0  0  0
  152.3523  144.2288  161.7255 H   0  0  0  0  0  0  0  0  0  0  0  0
  1  2  2  0  0  0  0
  2  3  1  0  0  0  0
  2 15  1  0  0  0  0
  3  4  1  0  0  0  0
  3 23  1  0  0  0  0
  4  9  1  0  0  0  0
  4  5  2  0  0  0  0
  5  6  1  0  0  0  0
  5 24  1  0  0  0  0
  6  7  2  0  0  0  0
  6 25  1  0  0  0  0
  7  8  1  0  0  0  0
  7 26  1  0  0  0  0
  8  9  2  0  0  0  0
  8 42  1  0  0  0  0
  9 10  1  0  0  0  0
 10 14  1  0  0  0  0
 10 11  1  0  0  0  0
 11 12  1  0  0  0  0
 11 27  1  0  0  0  0
 11 28  1  0  0  0  0
 12 13  1  0  0  0  0
 12 29  1  0  0  0  0
 12 30  1  0  0  0  0
 13 14  1  0  0  0  0
 13 31  1  0  0  0  0
 13 32  1  0  0  0  0
 14 33  1  0  0  0  0
 14 34  1  0  0  0  0
 15 16  1  0  0  0  0
 16 22  1  0  0  0  0
 16 17  1  0  0  0  0
 16 35  1  0  0  0  0
 17 18  1  0  0  0  0
 17 36  1  0  0  0  0
 17 37  1  0  0  0  0
 18 19  1  0  0  0  0
 18 38  1  0  0  0  0
 18 39  1  0  0  0  0
 19 20  2  0  0  0  0
 19 21  2  0  0  0  0
 19 22  1  0  0  0  0
 22 40  1  0  0  0  0
 22 41  1  0  0  0  0
M  CHG  1   8   1
M  CHG  1  15  -1
M  END
> <s_m_source_file>
AV-unprocessed.smi

> <i_m_source_file_index>
2047

> <i_lp_mmshare_version>
43012

> <i_f3d_flags>
0

> <s_epik_input>
Tz1TMSg9TylbQ0gyXVtDSDJdW0NASF0oW0NIMl0xKVtOSF1DKD1PKVtOSF1jMltjSF1bY0hdW2NIXW5jMk4zW0NIMl1bQ0gyXVtDSDJdW0NIMl0z

> <s_epik_cmdline>
J2VwaWtfcHl0aG9uJywgJy1waCcsICc3LjAnLCAnLXRuJywgJzgnLCAnLW1hJywgJzIwMCcsICctbWV0YWxfYmluZGluZycsICctaW1hZScsICc8aW5maWxlLm1hZT4nLCAnLW9tYWUnLCAnPG91dGZpbGUubWFlPic=

> <r_lp_tautomer_probability>
0.999994

> <r_epik_Ionization_Penalty>
8.27033

> <r_epik_Ionization_Penalty_Charging>
8.27033

> <r_epik_Ionization_Penalty_Neutral>
3.23223e-06

> <r_epik_State_Penalty>
7.90314

> <r_epik_Charging_Adjusted_Penalty>
16.1735

> <i_epik_Tot_Q>
0

> <i_epik_Tot_abs_Q>
2

> <r_epik_Metal_State_Penalty>
3.89381

> <b_epik_Metal_Only>
1

> <s_lp_Force_Field>
OPLS_2005

> <r_lp_Energy>
38.7939

> <b_lp_Chiralities_Consistent>
1

> <s_lp_Variant>
AV-unprocessed.smi:2047-5

> <Gold.Version>
5.8.1

> <Gold.Id.Protein>
6NUR|6NUR_protein|mol2

> <Gold.PLP.Fitness>
47.6010

> <Gold.PLP.PLP>
-40.8295

> <Gold.PLP.part.hbond>
-1.9583

> <Gold.PLP.part.metal>
0.0000

> <Gold.PLP.part.buried>
-5.4424

> <Gold.PLP.part.nonpolar>
-34.1209

> <Gold.PLP.part.repulsive>
0.2472

> <Gold.PLP.ligand.clash>
0.0000

> <Gold.PLP.ligand.torsion>
1.1111

> <Gold.PLP.Chemscore.Hbond>
2.9440

> <Gold.PLP.Chemscore.CHOScore>
0.0000

> <Gold.PLP.Chemscore.Metal>
0.0000

> <Gold.Chemscore.Hbonds>
donor molecule, donor type, donor heavy atom, donor atom, acceptor molecule, acceptor atom, score
      P1  H  7989  7998       L1    20  0.02

> <Gold.PLP.Chemscore.Internal.Correction>
0.1616

> <Gold.Rescore>
     Score         DG    S(hbond)    S(metal)    S(lipo)     H(rot)  DE(clash)    DE(int)     intcor
     16.91     -20.02       1.88        0.00      97.90       1.25       0.14       2.97       ----

> <Gold.Chemscore.Fitness>
16.9056

> <Gold.Chemscore.DG>
-20.0220

> <Gold.Chemscore.ZeroCoef>
-5.4800

> <Gold.Chemscore.Hbond>
1.8811

> <Gold.Chemscore.Metal>
0.0000

> <Gold.Chemscore.Lipo>
97.8985

> <Gold.Chemscore.Internal_Hbond>
0.0000

> <Gold.Chemscore.DEClash>
0.1445

> <Gold.Chemscore.DEInternal>
2.9719

> <Gold.Chemscore.Rot>
1.2480

> <Gold.Chemscore.Internal.Correction>
   9.000000E+99

> <Gold.Chemscore.Hbonds>
donor molecule, donor type, donor heavy atom, donor atom, acceptor molecule, acceptor atom, score
      P1  H  7989  7998       L1    20  0.07
      P1  H  7997  8009       L1    15  0.03

> <Gold.Chemscore.Hbond.Weighted>
-6.2828

> <Gold.Chemscore.Metal.Weighted>
-0.0000

> <Gold.Chemscore.Lipo.Weighted>
-11.4541

> <Gold.Chemscore.Internal_Hbond.Weighted>
0.0000

> <Gold.Chemscore.DEClash.Weighted>
0.1445

> <Gold.Chemscore.DEInternal.Weighted>
2.9719

> <Gold.Chemscore.Rot.Weighted>
3.1948

> <Gold.Chemscore.Internal.Correction.Weighted>
   9.000000E+99

> <Gold.Protein.RotatedTorsions>
[ 6907 6896 6895 6894 ] final  101.00 input  -60.11 | X-H torsion
[ 7974 7965 7964 7962 ] final -115.47 input  175.53 | X-H torsion
[ 8008 7997 7996 7995 ] final  164.76 input   59.86 | X-H torsion
[ 10167 10162 10161 10158 ] final -101.07 input  -65.29 | X-H torsion
[ 10718 10713 10712 10709 ] final   84.74 input   66.30 | X-H torsion
[ 10763 10752 10751 10750 ] final -166.72 input  -60.55 | X-H torsion
[ 11005 11000 10999 10996 ] final  -38.11 input  -57.11 | X-H torsion

> <Gold.Protein.ActiveResidues>
 VAL166  LYS551  ARG553  GLY616  TRP617  ASP618  TYR619  PRO620  LYS621  CYS622 
 ASP623  PHE694  ASN695  SER759  ASP760  ASP761  ALA762  ILE779  LEU786  VAL792 
 PHE793  MET794  SER795  GLU796  ALA797  LYS798  CYS799  TRP800  GLU811  SER814 

> <Gold.Protein.RotatedAtoms>
  152.5359  134.0192  159.7973 H   0  0  0  0  0  0  0  0  0  0  0  0  # atno 6907 bound_to 6896
  151.0381  133.5722  159.2661 H   0  0  0  0  0  0  0  0  0  0  0  0  # atno 6908 bound_to 6896
  151.2702  135.0689  159.9185 H   0  0  0  0  0  0  0  0  0  0  0  0  # atno 6909 bound_to 6896
  145.1081  140.8594  143.3886 H   0  0  0  0  0  0  0  0  0  0  0  0  # atno 7974 bound_to 7965
  156.1854  140.1688  156.8195 H   0  0  0  0  0  0  0  0  0  0  0  0  # atno 8008 bound_to 7997
  154.5408  140.0737  156.8539 H   0  0  0  0  0  0  0  0  0  0  0  0  # atno 8009 bound_to 7997
  155.3218  140.3374  155.4243 H   0  0  0  0  0  0  0  0  0  0  0  0  # atno 8010 bound_to 7997
  140.2452  143.3511  152.0766 H   0  0  0  0  0  0  0  0  0  0  0  0  # atno 10167 bound_to 10162
  157.6903  131.0146  150.2718 H   0  0  0  0  0  0  0  0  0  0  0  0  # atno 10718 bound_to 10713
  154.6805  135.2954  154.9620 H   0  0  0  0  0  0  0  0  0  0  0  0  # atno 10763 bound_to 10752
  154.0616  135.6630  153.4816 H   0  0  0  0  0  0  0  0  0  0  0  0  # atno 10764 bound_to 10752
  153.0544  135.5153  154.7845 H   0  0  0  0  0  0  0  0  0  0  0  0  # atno 10765 bound_to 10752
  141.0002  133.6959  156.2009 H   0  0  0  0  0  0  0  0  0  0  0  0  # atno 11005 bound_to 11000
  145.0879  139.2912  143.5750 LP  0  0  0  0  0  0  0  0  0  0  0  0  # atno 17320 bound_to 7965
  146.3527  140.0406  142.8643 LP  0  0  0  0  0  0  0  0  0  0  0  0  # atno 17321 bound_to 7965
  139.5064  144.6813  151.6001 LP  0  0  0  0  0  0  0  0  0  0  0  0  # atno 17342 bound_to 10162
  140.6083  143.9483  150.6435 LP  0  0  0  0  0  0  0  0  0  0  0  0  # atno 17343 bound_to 10162
  156.3280  130.3796  149.7516 LP  0  0  0  0  0  0  0  0  0  0  0  0  # atno 17370 bound_to 10713
  156.5065  130.8153  151.3153 LP  0  0  0  0  0  0  0  0  0  0  0  0  # atno 17371 bound_to 10713
  140.6900  134.4675  157.5588 LP  0  0  0  0  0  0  0  0  0  0  0  0  # atno 17394 bound_to 11000
  139.9035  134.8502  156.1799 LP  0  0  0  0  0  0  0  0  0  0  0  0  # atno 17395 bound_to 11000

$$$$
