AV-unprocessed.smi:1143|AV-procd|sdf|4875|dock5
  -GOLD-   22720 3443D 1   1.00000     0.00000
 Structure written by MMmdl.
 35 36  0  0  0  0  0  0  0  0  1 V2000
  153.5504  141.4737  160.9499 C   0  0  0  0  0  0  0  0  0  0  0  0
  152.6401  142.5203  160.4777 N   0  0  0  0  0  0  0  0  0  0  0  0
  151.9904  142.3187  159.2442 C   0  0  0  0  0  0  0  0  0  0  0  0
  151.1328  143.2243  158.7246 C   0  0  0  0  0  0  0  0  0  0  0  0
  150.4373  143.0851  157.5153 N   0  0  0  0  0  0  0  0  0  0  0  0
  150.3083  142.0035  156.7184 C   0  0  0  0  0  0  0  0  0  0  0  0
  150.8586  140.9194  156.8992 O   0  0  0  0  0  0  0  0  0  0  0  0
  149.5247  142.2087  155.6435 N   0  0  0  0  0  0  0  0  0  0  0  0
  149.1720  141.2623  154.5823 C   0  0  0  0  0  0  0  0  0  0  0  0
  147.8506  141.6888  153.9264 C   0  0  0  0  0  0  0  0  0  0  0  0
  147.3871  140.6384  152.9036 C   0  0  0  0  0  0  0  0  0  0  0  0
  147.2640  139.3668  153.5321 O   0  0  0  0  0  0  0  0  0  0  0  0
  148.4977  138.8821  154.0510 C   0  0  0  0  0  0  0  0  0  0  0  0
  149.0223  139.8344  155.1378 C   0  0  0  0  0  0  0  0  0  0  0  0
  150.8954  144.4224  159.5012 C   0  0  0  0  0  0  0  0  0  0  0  0
  151.5122  144.6227  160.6818 C   0  0  0  0  0  0  0  0  0  0  0  0
  152.4469  143.6395  161.2341 C   0  0  0  0  0  0  0  0  0  0  0  0
  153.0198  143.8102  162.3105 O   0  0  0  0  0  0  0  0  0  0  0  0
  153.6031  140.6200  160.2736 H   0  0  0  0  0  0  0  0  0  0  0  0
  153.2288  141.0963  161.9218 H   0  0  0  0  0  0  0  0  0  0  0  0
  154.5623  141.8674  161.0564 H   0  0  0  0  0  0  0  0  0  0  0  0
  152.2350  141.3785  158.7764 H   0  0  0  0  0  0  0  0  0  0  0  0
  149.9705  143.9225  157.1995 H   0  0  0  0  0  0  0  0  0  0  0  0
  149.1692  143.1465  155.5247 H   0  0  0  0  0  0  0  0  0  0  0  0
  149.9438  141.2698  153.8102 H   0  0  0  0  0  0  0  0  0  0  0  0
  147.0790  141.8099  154.6882 H   0  0  0  0  0  0  0  0  0  0  0  0
  147.9647  142.6580  153.4397 H   0  0  0  0  0  0  0  0  0  0  0  0
  146.4192  140.9214  152.4899 H   0  0  0  0  0  0  0  0  0  0  0  0
  148.0842  140.5760  152.0665 H   0  0  0  0  0  0  0  0  0  0  0  0
  148.3376  137.8887  154.4702 H   0  0  0  0  0  0  0  0  0  0  0  0
  149.2259  138.7729  153.2458 H   0  0  0  0  0  0  0  0  0  0  0  0
  149.9747  139.4672  155.5212 H   0  0  0  0  0  0  0  0  0  0  0  0
  148.3277  139.8350  155.9790 H   0  0  0  0  0  0  0  0  0  0  0  0
  150.2136  145.1738  159.1300 H   0  0  0  0  0  0  0  0  0  0  0  0
  151.3138  145.5287  161.2351 H   0  0  0  0  0  0  0  0  0  0  0  0
  1  2  1  0  0  0  0
  1 19  1  0  0  0  0
  1 20  1  0  0  0  0
  1 21  1  0  0  0  0
  2 17  1  0  0  0  0
  2  3  1  0  0  0  0
  3  4  2  0  0  0  0
  3 22  1  0  0  0  0
  4  5  1  0  0  0  0
  4 15  1  0  0  0  0
  5  6  1  0  0  0  0
  5 23  1  0  0  0  0
  6  7  2  0  0  0  0
  6  8  1  0  0  0  0
  8  9  1  0  0  0  0
  8 24  1  0  0  0  0
  9 14  1  0  0  0  0
  9 10  1  0  0  0  0
  9 25  1  0  0  0  0
 10 11  1  0  0  0  0
 10 26  1  0  0  0  0
 10 27  1  0  0  0  0
 11 12  1  0  0  0  0
 11 28  1  0  0  0  0
 11 29  1  0  0  0  0
 12 13  1  0  0  0  0
 13 14  1  0  0  0  0
 13 30  1  0  0  0  0
 13 31  1  0  0  0  0
 14 32  1  0  0  0  0
 14 33  1  0  0  0  0
 15 16  2  0  0  0  0
 15 34  1  0  0  0  0
 16 17  1  0  0  0  0
 16 35  1  0  0  0  0
 17 18  2  0  0  0  0
M  END
> <s_m_source_file>
AV-unprocessed.smi

> <i_m_source_file_index>
1143

> <i_lp_mmshare_version>
43012

> <i_f3d_flags>
0

> <s_epik_input>
Tz1jMVtjSF1bY0hdYyhbY0hdbjFbQ0gzXSlbTkhdQyg9TylbTkhdW0NIXTJbQ0gyXVtDSDJdT1tDSDJdW0NIMl0y

> <s_epik_cmdline>
J2VwaWtfcHl0aG9uJywgJy1waCcsICc3LjAnLCAnLXRuJywgJzgnLCAnLW1hJywgJzIwMCcsICctbWV0YWxfYmluZGluZycsICctaW1hZScsICc8aW5maWxlLm1hZT4nLCAnLW9tYWUnLCAnPG91dGZpbGUubWFlPic=

> <r_lp_tautomer_probability>
1

> <r_epik_Ionization_Penalty>
2.54991e-05

> <r_epik_Ionization_Penalty_Charging>
5.93057e-06

> <r_epik_Ionization_Penalty_Neutral>
1.95685e-05

> <r_epik_State_Penalty>
-0

> <r_epik_Charging_Adjusted_Penalty>
5.93057e-06

> <i_epik_Tot_Q>
0

> <i_epik_Tot_abs_Q>
0

> <r_epik_Metal_State_Penalty>
-0

> <b_epik_Metal_Only>
0

> <s_lp_Force_Field>
OPLS_2005

> <r_lp_Energy>
32.4408

> <b_lp_Chiralities_Consistent>
1

> <s_lp_Variant>
AV-unprocessed.smi:1143-1

> <Gold.Version>
5.8.1

> <Gold.Id.Protein>
6NUR|6NUR_protein|mol2

> <Gold.PLP.Fitness>
40.9746

> <Gold.PLP.PLP>
-36.0013

> <Gold.PLP.part.hbond>
-2.0000

> <Gold.PLP.part.metal>
0.0000

> <Gold.PLP.part.buried>
-0.9428

> <Gold.PLP.part.nonpolar>
-33.3860

> <Gold.PLP.part.repulsive>
0.5359

> <Gold.PLP.ligand.clash>
0.0000

> <Gold.PLP.ligand.torsion>
0.3698

> <Gold.PLP.Chemscore.Hbond>
1.9040

> <Gold.PLP.Chemscore.CHOScore>
0.0000

> <Gold.PLP.Chemscore.Metal>
0.0000

> <Gold.Chemscore.Hbonds>
donor molecule, donor type, donor heavy atom, donor atom, acceptor molecule, acceptor atom, score
      L1  H     5    23       P1  8028  0.90
      L1  H     8    24       P1  8028  1.00

> <Gold.PLP.Chemscore.Internal.Correction>
0.0009

> <Gold.Rescore>
     Score         DG    S(hbond)    S(metal)    S(lipo)     H(rot)  DE(clash)    DE(int)     intcor
     15.04     -18.39       1.86        0.00      79.09       1.00       0.47       2.88       ----

> <Gold.Chemscore.Fitness>
15.0412

> <Gold.Chemscore.DG>
-18.3914

> <Gold.Chemscore.ZeroCoef>
-5.4800

> <Gold.Chemscore.Hbond>
1.8617

> <Gold.Chemscore.Metal>
0.0000

> <Gold.Chemscore.Lipo>
79.0870

> <Gold.Chemscore.Internal_Hbond>
0.0000

> <Gold.Chemscore.DEClash>
0.4685

> <Gold.Chemscore.DEInternal>
2.8817

> <Gold.Chemscore.Rot>
1.0000

> <Gold.Chemscore.Internal.Correction>
   9.000000E+99

> <Gold.Chemscore.Hbonds>
donor molecule, donor type, donor heavy atom, donor atom, acceptor molecule, acceptor atom, score
      L1  H     5    23       P1  8028  0.70
      L1  H     8    24       P1  8028  0.99

> <Gold.Chemscore.Hbond.Weighted>
-6.2182

> <Gold.Chemscore.Metal.Weighted>
-0.0000

> <Gold.Chemscore.Lipo.Weighted>
-9.2532

> <Gold.Chemscore.Internal_Hbond.Weighted>
0.0000

> <Gold.Chemscore.DEClash.Weighted>
0.4685

> <Gold.Chemscore.DEInternal.Weighted>
2.8817

> <Gold.Chemscore.Rot.Weighted>
2.5600

> <Gold.Chemscore.Internal.Correction.Weighted>
   9.000000E+99

> <Gold.Protein.RotatedTorsions>
[ 6907 6896 6895 6894 ] final -167.44 input  -60.11 | X-H torsion
[ 7974 7965 7964 7962 ] final -142.63 input  175.53 | X-H torsion
[ 8008 7997 7996 7995 ] final  -10.86 input   59.86 | X-H torsion
[ 10167 10162 10161 10158 ] final  -86.66 input  -65.29 | X-H torsion
[ 10718 10713 10712 10709 ] final  -72.36 input   66.30 | X-H torsion
[ 10763 10752 10751 10750 ] final -146.69 input  -60.55 | X-H torsion
[ 11005 11000 10999 10996 ] final  -52.32 input  -57.11 | X-H torsion

> <Gold.Protein.ActiveResidues>
 VAL166  LYS551  ARG553  GLY616  TRP617  ASP618  TYR619  PRO620  LYS621  CYS622 
 ASP623  PHE694  ASN695  SER759  ASP760  ASP761  ALA762  ILE779  LEU786  VAL792 
 PHE793  MET794  SER795  GLU796  ALA797  LYS798  CYS799  TRP800  GLU811  SER814 

> <Gold.Protein.RotatedAtoms>
  151.4596  133.3596  159.2807 H   0  0  0  0  0  0  0  0  0  0  0  0  # atno 6907 bound_to 6896
  150.9034  134.8449  159.7387 H   0  0  0  0  0  0  0  0  0  0  0  0  # atno 6908 bound_to 6896
  152.4892  134.4519  159.9629 H   0  0  0  0  0  0  0  0  0  0  0  0  # atno 6909 bound_to 6896
  144.8429  140.5934  143.5440 H   0  0  0  0  0  0  0  0  0  0  0  0  # atno 7974 bound_to 7965
  154.5516  140.2317  155.8476 H   0  0  0  0  0  0  0  0  0  0  0  0  # atno 8008 bound_to 7997
  156.1952  140.3067  155.9373 H   0  0  0  0  0  0  0  0  0  0  0  0  # atno 8009 bound_to 7997
  155.3059  140.0433  157.3023 H   0  0  0  0  0  0  0  0  0  0  0  0  # atno 8010 bound_to 7997
  140.3919  143.2701  151.9253 H   0  0  0  0  0  0  0  0  0  0  0  0  # atno 10167 bound_to 10162
  156.0323  130.4370  150.2581 H   0  0  0  0  0  0  0  0  0  0  0  0  # atno 10718 bound_to 10713
  154.8323  135.3380  154.6701 H   0  0  0  0  0  0  0  0  0  0  0  0  # atno 10763 bound_to 10752
  153.7319  135.6951  153.4992 H   0  0  0  0  0  0  0  0  0  0  0  0  # atno 10764 bound_to 10752
  153.2306  135.4418  155.0543 H   0  0  0  0  0  0  0  0  0  0  0  0  # atno 10765 bound_to 10752
  141.0918  133.6631  156.4006 H   0  0  0  0  0  0  0  0  0  0  0  0  # atno 11005 bound_to 11000
  145.4657  139.1508  143.3842 LP  0  0  0  0  0  0  0  0  0  0  0  0  # atno 17320 bound_to 7965
  146.2718  140.4789  142.8811 LP  0  0  0  0  0  0  0  0  0  0  0  0  # atno 17321 bound_to 7965
  139.4788  144.5718  151.8075 LP  0  0  0  0  0  0  0  0  0  0  0  0  # atno 17342 bound_to 10162
  140.4830  144.1422  150.5936 LP  0  0  0  0  0  0  0  0  0  0  0  0  # atno 17343 bound_to 10162
  157.0683  131.0109  151.3199 LP  0  0  0  0  0  0  0  0  0  0  0  0  # atno 17370 bound_to 10713
  157.5019  130.7885  149.7613 LP  0  0  0  0  0  0  0  0  0  0  0  0  # atno 17371 bound_to 10713
  140.5234  134.6282  157.5326 LP  0  0  0  0  0  0  0  0  0  0  0  0  # atno 17394 bound_to 11000
  139.9745  134.7237  155.9976 LP  0  0  0  0  0  0  0  0  0  0  0  0  # atno 17395 bound_to 11000

$$$$
