AV-unprocessed.smi:2550|AV-procd|sdf|10012|dock3
  -GOLD-   2272014 53D 1   1.00000     0.00000
 Structure written by MMmdl.
 27 28  0  0  0  0  0  0  0  0  1 V2000
  151.9364  144.1556  157.4313 C   0  0  0  0  0  0  0  0  0  0  0  0
  151.1148  142.9781  157.9811 C   0  0  0  0  0  0  0  0  0  0  0  0
  151.5564  142.5766  159.3979 C   0  0  0  0  0  0  0  0  0  0  0  0
  149.7714  143.4154  158.0723 O   0  0  0  0  0  0  0  0  0  0  0  0
  151.1259  141.7995  157.0371 C   0  0  0  0  0  0  0  0  0  0  0  0
  151.6529  140.5453  157.1916 C   0  0  0  0  0  0  0  0  0  0  0  0
  151.3409  139.9136  156.0070 N   0  0  0  0  0  0  0  0  0  0  0  0
  151.7153  138.5935  155.5946 C   0  0  0  0  0  0  0  0  0  0  0  0
  152.6855  138.3707  154.4314 C   0  0  0  0  0  0  0  0  0  0  0  0
  151.8922  137.1996  154.0986 N   0  0  0  0  0  0  0  0  0  0  0  0
  150.7359  137.7239  154.8050 C   0  0  0  0  0  0  0  0  0  0  0  0
  150.7033  140.7461  155.1521 N   0  0  0  0  0  0  0  0  0  0  0  0
  150.5485  141.8761  155.7671 N   0  0  0  0  0  0  0  0  0  0  0  0
  152.9880  143.8874  157.3256 H   0  0  0  0  0  0  0  0  0  0  0  0
  151.8842  145.0209  158.0931 H   0  0  0  0  0  0  0  0  0  0  0  0
  151.5759  144.4670  156.4501 H   0  0  0  0  0  0  0  0  0  0  0  0
  152.5867  142.2193  159.4035 H   0  0  0  0  0  0  0  0  0  0  0  0
  150.9290  141.7786  159.7973 H   0  0  0  0  0  0  0  0  0  0  0  0
  151.4985  143.4200  160.0868 H   0  0  0  0  0  0  0  0  0  0  0  0
  149.5058  143.7447  157.2276 H   0  0  0  0  0  0  0  0  0  0  0  0
  152.1922  140.0732  157.9995 H   0  0  0  0  0  0  0  0  0  0  0  0
  152.0582  138.0786  156.4948 H   0  0  0  0  0  0  0  0  0  0  0  0
  152.6398  139.1316  153.6506 H   0  0  0  0  0  0  0  0  0  0  0  0
  153.7072  138.1434  154.7367 H   0  0  0  0  0  0  0  0  0  0  0  0
  151.7298  137.1142  153.1052 H   0  0  0  0  0  0  0  0  0  0  0  0
  150.2089  136.9827  155.4066 H   0  0  0  0  0  0  0  0  0  0  0  0
  150.0687  138.2810  154.1456 H   0  0  0  0  0  0  0  0  0  0  0  0
  1  2  1  0  0  0  0
  1 14  1  0  0  0  0
  1 15  1  0  0  0  0
  1 16  1  0  0  0  0
  2  3  1  0  0  0  0
  2  4  1  0  0  0  0
  2  5  1  0  0  0  0
  3 17  1  0  0  0  0
  3 18  1  0  0  0  0
  3 19  1  0  0  0  0
  4 20  1  0  0  0  0
  5 13  1  0  0  0  0
  5  6  2  0  0  0  0
  6  7  1  0  0  0  0
  6 21  1  0  0  0  0
  7  8  1  0  0  0  0
  7 12  1  0  0  0  0
  8 11  1  0  0  0  0
  8  9  1  0  0  0  0
  8 22  1  0  0  0  0
  9 10  1  0  0  0  0
  9 23  1  0  0  0  0
  9 24  1  0  0  0  0
 10 11  1  0  0  0  0
 10 25  1  0  0  0  0
 11 26  1  0  0  0  0
 11 27  1  0  0  0  0
 12 13  2  0  0  0  0
M  END
> <s_m_source_file>
AV-unprocessed.smi

> <i_m_source_file_index>
2550

> <i_lp_mmshare_version>
43012

> <i_f3d_flags>
0

> <s_epik_input>
W0NIM11DKFtDSDNdKShbT0hdKWMxW2NIXW4obm4xKVtDSF0yW0NIMl1bTkhdW0NIMl0y

> <s_epik_cmdline>
J2VwaWtfcHl0aG9uJywgJy1waCcsICc3LjAnLCAnLXRuJywgJzgnLCAnLW1hJywgJzIwMCcsICctbWV0YWxfYmluZGluZycsICctaW1hZScsICc8aW5maWxlLm1hZT4nLCAnLW9tYWUnLCAnPG91dGZpbGUubWFlPic=

> <r_lp_tautomer_probability>
1

> <r_epik_Ionization_Penalty>
0.705036

> <r_epik_Ionization_Penalty_Charging>
0

> <r_epik_Ionization_Penalty_Neutral>
0.705036

> <r_epik_State_Penalty>
0.727806

> <r_epik_Charging_Adjusted_Penalty>
0.727806

> <i_epik_Tot_Q>
0

> <i_epik_Tot_abs_Q>
0

> <r_epik_Metal_State_Penalty>
0.727613

> <b_epik_Metal_Only>
0

> <s_lp_Force_Field>
OPLS_2005

> <r_lp_Energy>
8.86137

> <b_lp_Chiralities_Consistent>
1

> <s_lp_Variant>
AV-unprocessed.smi:2550-2

> <Gold.Version>
5.8.1

> <Gold.Id.Protein>
6NUR|6NUR_protein|mol2

> <Gold.PLP.Fitness>
38.5564

> <Gold.PLP.PLP>
-27.8138

> <Gold.PLP.part.hbond>
-4.3350

> <Gold.PLP.part.metal>
0.0000

> <Gold.PLP.part.buried>
-3.7798

> <Gold.PLP.part.nonpolar>
-19.7339

> <Gold.PLP.part.repulsive>
0.1691

> <Gold.PLP.ligand.clash>
0.0000

> <Gold.PLP.ligand.torsion>
0.4933

> <Gold.PLP.Chemscore.Hbond>
3.8137

> <Gold.PLP.Chemscore.CHOScore>
0.0000

> <Gold.PLP.Chemscore.Metal>
0.0000

> <Gold.Chemscore.Hbonds>
donor molecule, donor type, donor heavy atom, donor atom, acceptor molecule, acceptor atom, score
      L1  H     4    20       P1  8028  1.00
      L1  H    10    25       P1  7949  0.98
      P1  H  7989  7998       L1    12  0.86
      P1  H 10752 10764       L1    10  0.90

> <Gold.PLP.Chemscore.Internal.Correction>
0.2883

> <Gold.Rescore>
     Score         DG    S(hbond)    S(metal)    S(lipo)     H(rot)  DE(clash)    DE(int)     intcor
     17.59     -18.43       2.86        0.00      66.81       1.73       0.19       0.64       ----

> <Gold.Chemscore.Fitness>
17.5942

> <Gold.Chemscore.DG>
-18.4250

> <Gold.Chemscore.ZeroCoef>
-5.4800

> <Gold.Chemscore.Hbond>
2.8610

> <Gold.Chemscore.Metal>
0.0000

> <Gold.Chemscore.Lipo>
66.8094

> <Gold.Chemscore.Internal_Hbond>
0.0000

> <Gold.Chemscore.DEClash>
0.1944

> <Gold.Chemscore.DEInternal>
0.6364

> <Gold.Chemscore.Rot>
1.7295

> <Gold.Chemscore.Internal.Correction>
   9.000000E+99

> <Gold.Chemscore.Hbonds>
donor molecule, donor type, donor heavy atom, donor atom, acceptor molecule, acceptor atom, score
      L1  H     4    20       P1  8028  0.70
      L1  H    10    25       P1  7949  0.85
      P1  H  7989  7998       L1    12  0.61
      P1  H 10752 10764       L1    10  0.12

> <Gold.Chemscore.Hbond.Weighted>
-9.5558

> <Gold.Chemscore.Metal.Weighted>
-0.0000

> <Gold.Chemscore.Lipo.Weighted>
-7.8167

> <Gold.Chemscore.Internal_Hbond.Weighted>
0.0000

> <Gold.Chemscore.DEClash.Weighted>
0.1944

> <Gold.Chemscore.DEInternal.Weighted>
0.6364

> <Gold.Chemscore.Rot.Weighted>
4.4275

> <Gold.Chemscore.Internal.Correction.Weighted>
   9.000000E+99

> <Gold.Protein.RotatedTorsions>
[ 6907 6896 6895 6894 ] final   48.30 input  -60.11 | X-H torsion
[ 7974 7965 7964 7962 ] final   18.84 input  175.53 | X-H torsion
[ 8008 7997 7996 7995 ] final  146.97 input   59.86 | X-H torsion
[ 10167 10162 10161 10158 ] final -129.02 input  -65.29 | X-H torsion
[ 10718 10713 10712 10709 ] final  167.45 input   66.30 | X-H torsion
[ 10763 10752 10751 10750 ] final  -74.77 input  -60.55 | X-H torsion
[ 11005 11000 10999 10996 ] final  175.07 input  -57.11 | X-H torsion

> <Gold.Protein.ActiveResidues>
 VAL166  LYS551  ARG553  GLY616  TRP617  ASP618  TYR619  PRO620  LYS621  CYS622 
 ASP623  PHE694  ASN695  SER759  ASP760  ASP761  ALA762  ILE779  LEU786  VAL792 
 PHE793  MET794  SER795  GLU796  ALA797  LYS798  CYS799  TRP800  GLU811  SER814 

> <Gold.Protein.RotatedAtoms>
  152.2779  134.7860  160.0401 H   0  0  0  0  0  0  0  0  0  0  0  0  # atno 6907 bound_to 6896
  151.8450  133.3425  159.3663 H   0  0  0  0  0  0  0  0  0  0  0  0  # atno 6908 bound_to 6896
  150.7178  134.5283  159.5732 H   0  0  0  0  0  0  0  0  0  0  0  0  # atno 6909 bound_to 6896
  146.2171  139.8400  142.8643 H   0  0  0  0  0  0  0  0  0  0  0  0  # atno 7974 bound_to 7965
  156.2839  140.2168  156.5462 H   0  0  0  0  0  0  0  0  0  0  0  0  # atno 8008 bound_to 7997
  154.7328  140.0494  157.0764 H   0  0  0  0  0  0  0  0  0  0  0  0  # atno 8009 bound_to 7997
  155.0331  140.3137  155.4754 H   0  0  0  0  0  0  0  0  0  0  0  0  # atno 8010 bound_to 7997
  139.9441  143.6130  152.2495 H   0  0  0  0  0  0  0  0  0  0  0  0  # atno 10167 bound_to 10162
  157.0514  131.0314  151.2679 H   0  0  0  0  0  0  0  0  0  0  0  0  # atno 10718 bound_to 10713
  154.4775  135.5853  153.6366 H   0  0  0  0  0  0  0  0  0  0  0  0  # atno 10763 bound_to 10752
  152.9843  135.6082  154.3288 H   0  0  0  0  0  0  0  0  0  0  0  0  # atno 10764 bound_to 10752
  154.3176  135.2844  155.2515 H   0  0  0  0  0  0  0  0  0  0  0  0  # atno 10765 bound_to 10752
  140.3582  134.7136  157.4313 H   0  0  0  0  0  0  0  0  0  0  0  0  # atno 11005 bound_to 11000
  145.2909  141.0167  143.3663 LP  0  0  0  0  0  0  0  0  0  0  0  0  # atno 17320 bound_to 7965
  144.9078  139.4567  143.6601 LP  0  0  0  0  0  0  0  0  0  0  0  0  # atno 17321 bound_to 7965
  139.6681  144.7661  151.1835 LP  0  0  0  0  0  0  0  0  0  0  0  0  # atno 17342 bound_to 10162
  140.7602  143.5907  150.8799 LP  0  0  0  0  0  0  0  0  0  0  0  0  # atno 17343 bound_to 10162
  157.5027  130.7890  149.7621 LP  0  0  0  0  0  0  0  0  0  0  0  0  # atno 17370 bound_to 10713
  156.0006  130.3882  150.2620 LP  0  0  0  0  0  0  0  0  0  0  0  0  # atno 17371 bound_to 10713
  140.0648  134.5945  155.8708 LP  0  0  0  0  0  0  0  0  0  0  0  0  # atno 17394 bound_to 11000
  141.1992  133.6605  156.5832 LP  0  0  0  0  0  0  0  0  0  0  0  0  # atno 17395 bound_to 11000

$$$$
