AV-unprocessed.smi:1016|AV-procd|sdf|4437|dock5
  -GOLD-   22720 2393D 1   1.00000     0.00000
 Structure written by MMmdl.
 39 40  0  0  0  0  0  0  0  0  2 V2000
  147.8289  132.3767  162.1175 C   0  0  0  0  0  0  0  0  0  0  0  0
  147.6179  133.8531  161.9580 C   0  0  0  0  0  0  0  0  0  0  0  0
  147.4242  134.7482  163.0827 C   0  0  0  0  0  0  0  0  0  0  0  0
  147.2434  136.0669  162.8553 C   0  0  0  0  0  0  0  0  0  0  0  0
  147.2318  136.6188  161.5024 C   0  0  0  0  0  0  0  0  0  0  0  0
  147.0642  137.8141  161.2626 O   0  0  0  0  0  0  0  0  0  0  0  0
  147.4154  135.6815  160.5253 N   0  0  0  0  0  0  0  0  0  0  0  0
  147.3797  136.0479  159.0996 C   0  0  0  0  0  0  0  0  0  0  0  0
  148.7414  135.9880  158.3840 C   0  0  0  0  0  0  0  0  0  0  0  0
  149.7516  135.8263  159.0661 O   0  0  0  0  0  0  0  0  0  0  0  0
  148.7368  136.1191  157.0420 N   0  0  0  0  0  0  0  0  0  0  0  0
  149.8083  136.1263  156.0351 C   0  0  0  0  0  0  0  0  0  0  0  0
  150.4303  134.7078  156.1098 C   0  0  0  0  0  0  0  0  0  0  0  0
  149.6963  133.7285  155.8493 O   0  0  0  0  0  0  0  0  0  0  0  0
  151.6244  134.6139  156.4740 O   0  5  0  0  0  0  0  0  0  0  0  0
  149.3417  136.4681  154.5838 C   0  0  0  0  0  0  0  0  0  0  0  0
  150.5102  136.6353  153.5925 C   0  0  0  0  0  0  0  0  0  0  0  0
  151.5011  137.7024  154.0785 C   0  0  0  0  0  0  0  0  0  0  0  0
  152.0051  137.3861  155.4936 C   0  0  0  0  0  0  0  0  0  0  0  0
  150.8316  137.2114  156.4775 C   0  0  0  0  0  0  0  0  0  0  0  0
  147.6120  134.3295  160.7566 N   0  0  0  0  0  0  0  0  0  0  0  0
  147.8083  132.0862  163.1681 H   0  0  0  0  0  0  0  0  0  0  0  0
  148.7928  132.0756  161.7063 H   0  0  0  0  0  0  0  0  0  0  0  0
  147.0496  131.8157  161.6008 H   0  0  0  0  0  0  0  0  0  0  0  0
  147.4260  134.3561  164.0889 H   0  0  0  0  0  0  0  0  0  0  0  0
  147.0983  136.7324  163.6935 H   0  0  0  0  0  0  0  0  0  0  0  0
  146.6734  135.4141  158.5605 H   0  0  0  0  0  0  0  0  0  0  0  0
  146.9918  137.0623  158.9925 H   0  0  0  0  0  0  0  0  0  0  0  0
  147.8207  136.2624  156.6421 H   0  0  0  0  0  0  0  0  0  0  0  0
  148.6482  135.7171  154.2028 H   0  0  0  0  0  0  0  0  0  0  0  0
  148.7905  137.4091  154.5927 H   0  0  0  0  0  0  0  0  0  0  0  0
  151.0291  135.6862  153.4548 H   0  0  0  0  0  0  0  0  0  0  0  0
  150.1228  136.9137  152.6122 H   0  0  0  0  0  0  0  0  0  0  0  0
  152.3430  137.7721  153.3892 H   0  0  0  0  0  0  0  0  0  0  0  0
  151.0159  138.6791  154.0747 H   0  0  0  0  0  0  0  0  0  0  0  0
  152.6163  136.4833  155.4730 H   0  0  0  0  0  0  0  0  0  0  0  0
  152.6586  138.1874  155.8389 H   0  0  0  0  0  0  0  0  0  0  0  0
  150.3150  138.1680  156.5708 H   0  0  0  0  0  0  0  0  0  0  0  0
  151.2221  137.0005  157.4744 H   0  0  0  0  0  0  0  0  0  0  0  0
  1  2  1  0  0  0  0
  1 22  1  0  0  0  0
  1 23  1  0  0  0  0
  1 24  1  0  0  0  0
  2 21  2  0  0  0  0
  2  3  1  0  0  0  0
  3  4  2  0  0  0  0
  3 25  1  0  0  0  0
  4  5  1  0  0  0  0
  4 26  1  0  0  0  0
  5  6  2  0  0  0  0
  5  7  1  0  0  0  0
  7  8  1  0  0  0  0
  7 21  1  0  0  0  0
  8  9  1  0  0  0  0
  8 27  1  0  0  0  0
  8 28  1  0  0  0  0
  9 10  2  0  0  0  0
  9 11  1  0  0  0  0
 11 12  1  0  0  0  0
 11 29  1  0  0  0  0
 12 20  1  0  0  0  0
 12 13  1  0  0  0  0
 12 16  1  0  0  0  0
 13 14  2  0  0  0  0
 13 15  1  0  0  0  0
 16 17  1  0  0  0  0
 16 30  1  0  0  0  0
 16 31  1  0  0  0  0
 17 18  1  0  0  0  0
 17 32  1  0  0  0  0
 17 33  1  0  0  0  0
 18 19  1  0  0  0  0
 18 34  1  0  0  0  0
 18 35  1  0  0  0  0
 19 20  1  0  0  0  0
 19 36  1  0  0  0  0
 19 37  1  0  0  0  0
 20 38  1  0  0  0  0
 20 39  1  0  0  0  0
M  CHG  1  15  -1
M  END
> <s_m_source_file>
AV-unprocessed.smi

> <i_m_source_file_index>
1016

> <i_lp_mmshare_version>
43012

> <i_f3d_flags>
0

> <s_epik_input>
W0NIM11jMVtjSF1bY0hdYyg9TyluKG4xKVtDSDJdQyg9TylbTkhdQzIoQyg9TylbT0hdKVtDSDJdW0NIMl1bQ0gyXVtDSDJdW0NIMl0y

> <s_epik_cmdline>
J2VwaWtfcHl0aG9uJywgJy1waCcsICc3LjAnLCAnLXRuJywgJzgnLCAnLW1hJywgJzIwMCcsICctbWV0YWxfYmluZGluZycsICctaW1hZScsICc8aW5maWxlLm1hZT4nLCAnLW9tYWUnLCAnPG91dGZpbGUubWFlPic=

> <r_lp_tautomer_probability>
1

> <r_epik_Ionization_Penalty>
0.000398047

> <r_epik_Ionization_Penalty_Charging>
0.000398029

> <r_epik_Ionization_Penalty_Neutral>
1.87077e-08

> <r_epik_State_Penalty>
0.000243291

> <r_epik_Charging_Adjusted_Penalty>
0.00064132

> <i_epik_Tot_Q>
-1

> <i_epik_Tot_abs_Q>
1

> <r_epik_Metal_State_Penalty>
-0

> <b_epik_Metal_Only>
0

> <s_lp_Force_Field>
OPLS_2005

> <r_lp_Energy>
18.8649

> <b_lp_Chiralities_Consistent>
1

> <s_lp_Variant>
AV-unprocessed.smi:1016-1

> <Gold.Version>
5.8.1

> <Gold.Id.Protein>
6NUR|6NUR_protein|mol2

> <Gold.PLP.Fitness>
48.6908

> <Gold.PLP.PLP>
-35.4331

> <Gold.PLP.part.hbond>
-4.0000

> <Gold.PLP.part.metal>
0.0000

> <Gold.PLP.part.buried>
-4.4480

> <Gold.PLP.part.nonpolar>
-27.4743

> <Gold.PLP.part.repulsive>
0.0980

> <Gold.PLP.ligand.clash>
0.0000

> <Gold.PLP.ligand.torsion>
0.2664

> <Gold.PLP.Chemscore.Hbond>
4.5778

> <Gold.PLP.Chemscore.CHOScore>
0.0000

> <Gold.PLP.Chemscore.Metal>
0.0000

> <Gold.Chemscore.Hbonds>
donor molecule, donor type, donor heavy atom, donor atom, acceptor molecule, acceptor atom, score
      P1  H  6896  6909       L1    10  1.00
      P1  H  6931  6943       L1     6  0.25
      P1  H  6934  6947       L1     6  0.31
      P1  H 10752 10763       L1    15  0.85

> <Gold.PLP.Chemscore.Internal.Correction>
0.0570

> <Gold.Rescore>
     Score         DG    S(hbond)    S(metal)    S(lipo)     H(rot)  DE(clash)    DE(int)     intcor
     18.78     -20.25       3.67        0.00      67.28       2.09       0.00       1.47       ----

> <Gold.Chemscore.Fitness>
18.7807

> <Gold.Chemscore.DG>
-20.2514

> <Gold.Chemscore.ZeroCoef>
-5.4800

> <Gold.Chemscore.Hbond>
3.6689

> <Gold.Chemscore.Metal>
0.0000

> <Gold.Chemscore.Lipo>
67.2830

> <Gold.Chemscore.Internal_Hbond>
0.0000

> <Gold.Chemscore.DEClash>
0.0000

> <Gold.Chemscore.DEInternal>
1.4707

> <Gold.Chemscore.Rot>
2.0918

> <Gold.Chemscore.Internal.Correction>
   9.000000E+99

> <Gold.Chemscore.Hbonds>
donor molecule, donor type, donor heavy atom, donor atom, acceptor molecule, acceptor atom, score
      P1  H  6896  6909       L1    10  0.98
      P1  H  6931  6943       L1     6  0.02
      P1  H  6934  6947       L1     6  0.30
      P1  H 10752 10763       L1    15  0.38

> <Gold.Chemscore.Hbond.Weighted>
-12.2542

> <Gold.Chemscore.Metal.Weighted>
-0.0000

> <Gold.Chemscore.Lipo.Weighted>
-7.8721

> <Gold.Chemscore.Internal_Hbond.Weighted>
0.0000

> <Gold.Chemscore.DEClash.Weighted>
0.0000

> <Gold.Chemscore.DEInternal.Weighted>
1.4707

> <Gold.Chemscore.Rot.Weighted>
5.3549

> <Gold.Chemscore.Internal.Correction.Weighted>
   9.000000E+99

> <Gold.Protein.RotatedTorsions>
[ 6907 6896 6895 6894 ] final   55.63 input  -60.11 | X-H torsion
[ 7974 7965 7964 7962 ] final  174.34 input  175.53 | X-H torsion
[ 8008 7997 7996 7995 ] final   97.22 input   59.86 | X-H torsion
[ 10167 10162 10161 10158 ] final -133.69 input  -65.29 | X-H torsion
[ 10718 10713 10712 10709 ] final  -15.59 input   66.30 | X-H torsion
[ 10763 10752 10751 10750 ] final   88.46 input  -60.55 | X-H torsion
[ 11005 11000 10999 10996 ] final  117.01 input  -57.11 | X-H torsion

> <Gold.Protein.ActiveResidues>
 VAL166  LYS551  ARG553  GLY616  TRP617  ASP618  TYR619  PRO620  LYS621  CYS622 
 ASP623  PHE694  ASN695  SER759  ASP760  ASP761  ALA762  ILE779  LEU786  VAL792 
 PHE793  MET794  SER795  GLU796  ALA797  LYS798  CYS799  TRP800  GLU811  SER814 

> <Gold.Protein.RotatedAtoms>
  152.3557  134.6943  160.0222 H   0  0  0  0  0  0  0  0  0  0  0  0  # atno 6907 bound_to 6896
  151.7283  133.3311  159.3341 H   0  0  0  0  0  0  0  0  0  0  0  0  # atno 6908 bound_to 6896
  150.7570  134.6320  159.6236 H   0  0  0  0  0  0  0  0  0  0  0  0  # atno 6909 bound_to 6896
  144.7223  139.9783  143.6438 H   0  0  0  0  0  0  0  0  0  0  0  0  # atno 7974 bound_to 7965
  156.0878  140.3261  155.7777 H   0  0  0  0  0  0  0  0  0  0  0  0  # atno 8008 bound_to 7997
  155.5046  140.0572  157.2951 H   0  0  0  0  0  0  0  0  0  0  0  0  # atno 8009 bound_to 7997
  154.4620  140.1971  156.0236 H   0  0  0  0  0  0  0  0  0  0  0  0  # atno 8010 bound_to 7997
  139.8956  143.6669  152.2604 H   0  0  0  0  0  0  0  0  0  0  0  0  # atno 10167 bound_to 10162
  156.5996  130.4820  149.6245 H   0  0  0  0  0  0  0  0  0  0  0  0  # atno 10718 bound_to 10713
  153.1771  135.4506  154.9980 H   0  0  0  0  0  0  0  0  0  0  0  0  # atno 10763 bound_to 10752
  154.8005  135.3254  154.7563 H   0  0  0  0  0  0  0  0  0  0  0  0  # atno 10764 bound_to 10752
  153.8032  135.6961  153.4907 H   0  0  0  0  0  0  0  0  0  0  0  0  # atno 10765 bound_to 10752
  139.9060  134.9605  156.7285 H   0  0  0  0  0  0  0  0  0  0  0  0  # atno 11005 bound_to 11000
  146.0508  139.3509  143.0640 LP  0  0  0  0  0  0  0  0  0  0  0  0  # atno 17320 bound_to 7965
  145.8217  140.9675  143.0895 LP  0  0  0  0  0  0  0  0  0  0  0  0  # atno 17321 bound_to 7965
  139.7070  144.7626  151.1176 LP  0  0  0  0  0  0  0  0  0  0  0  0  # atno 17342 bound_to 10162
  140.7717  143.5381  150.9345 LP  0  0  0  0  0  0  0  0  0  0  0  0  # atno 17343 bound_to 10162
  156.2480  130.6890  151.1618 LP  0  0  0  0  0  0  0  0  0  0  0  0  # atno 17370 bound_to 10713
  157.7283  131.0633  150.5827 LP  0  0  0  0  0  0  0  0  0  0  0  0  # atno 17371 bound_to 10713
  140.6944  133.9362  155.7985 LP  0  0  0  0  0  0  0  0  0  0  0  0  # atno 17394 bound_to 11000
  141.0418  134.0610  157.3892 LP  0  0  0  0  0  0  0  0  0  0  0  0  # atno 17395 bound_to 11000

$$$$
