AV-unprocessed.smi:285|AV-procd|sdf|2170|dock3
  -GOLD-   2262021533D 1   1.00000     0.00000
 Structure written by MMmdl.
 31 33  0  0  0  0  0  0  0  0  1 V2000
  155.9193  141.0197  160.7134 N   0  0  0  0  0  0  0  0  0  0  0  0
  154.6292  141.2358  160.4212 C   0  0  0  0  0  0  0  0  0  0  0  0
  153.9517  142.1569  161.1453 N   0  0  0  0  0  0  0  0  0  0  0  0
  152.6626  142.3885  160.8770 C   0  0  0  0  0  0  0  0  0  0  0  0
  151.8864  141.8200  159.9506 N   0  0  0  0  0  0  0  0  0  0  0  0
  152.5709  140.8931  159.2173 C   0  0  0  0  0  0  0  0  0  0  0  0
  153.9423  140.5436  159.3921 C   0  0  0  0  0  0  0  0  0  0  0  0
  154.3080  139.5625  158.4790 N   0  0  0  0  0  0  0  0  0  0  0  0
  153.2033  139.3609  157.8166 C   0  0  0  0  0  0  0  0  0  0  0  0
  153.1407  138.0668  156.4204 Br  0  0  0  0  0  0  0  0  0  0  0  0
  152.1055  140.1075  158.1808 N   0  0  0  0  0  0  0  0  0  0  0  0
  150.7235  140.0902  157.6093 C   0  0  1  0  0  0  0  0  0  0  0  0
  149.8599  141.1771  158.2420 C   0  0  0  0  0  0  0  0  0  0  0  0
  148.9476  141.5139  157.0843 C   0  0  1  0  0  0  0  0  0  0  0  0
  148.3921  142.8036  157.2385 O   0  0  0  0  0  0  0  0  0  0  0  0
  149.9115  141.4289  155.8955 C   0  0  2  0  0  0  0  0  0  0  0  0
  149.2096  141.1223  154.5635 C   0  0  0  0  0  0  0  0  0  0  0  0
  150.1135  140.5181  153.6634 O   0  0  0  0  0  0  0  0  0  0  0  0
  150.7939  140.3592  156.2408 O   0  0  0  0  0  0  0  0  0  0  0  0
  156.4460  140.3361  160.1887 H   0  0  0  0  0  0  0  0  0  0  0  0
  156.3616  141.5391  161.4578 H   0  0  0  0  0  0  0  0  0  0  0  0
  152.1839  143.1356  161.4927 H   0  0  0  0  0  0  0  0  0  0  0  0
  150.3390  139.0826  157.7658 H   0  0  0  0  0  0  0  0  0  0  0  0
  149.3410  140.8082  159.1273 H   0  0  0  0  0  0  0  0  0  0  0  0
  150.4775  142.0344  158.5165 H   0  0  0  0  0  0  0  0  0  0  0  0
  148.1564  140.7672  156.9992 H   0  0  0  0  0  0  0  0  0  0  0  0
  148.5660  143.3008  156.4536 H   0  0  0  0  0  0  0  0  0  0  0  0
  150.4903  142.3524  155.8315 H   0  0  0  0  0  0  0  0  0  0  0  0
  148.3363  140.4864  154.7119 H   0  0  0  0  0  0  0  0  0  0  0  0
  148.8618  142.0472  154.1023 H   0  0  0  0  0  0  0  0  0  0  0  0
  149.6659  140.3639  152.8455 H   0  0  0  0  0  0  0  0  0  0  0  0
  1  2  1  0  0  0  0
  1 20  1  0  0  0  0
  1 21  1  0  0  0  0
  2  7  1  0  0  0  0
  2  3  2  0  0  0  0
  3  4  1  0  0  0  0
  4  5  2  0  0  0  0
  4 22  1  0  0  0  0
  5  6  1  0  0  0  0
  6 11  1  0  0  0  0
  6  7  2  0  0  0  0
  7  8  1  0  0  0  0
  8  9  2  0  0  0  0
  9 10  1  0  0  0  0
  9 11  1  0  0  0  0
 11 12  1  0  0  0  0
 12 19  1  0  0  0  0
 12 13  1  0  0  0  0
 12 23  1  0  0  0  0
 13 14  1  0  0  0  0
 13 24  1  0  0  0  0
 13 25  1  0  0  0  0
 14 15  1  0  0  0  0
 14 16  1  0  0  0  0
 14 26  1  0  0  0  0
 15 27  1  0  0  0  0
 16 17  1  0  0  0  0
 16 19  1  0  0  0  0
 16 28  1  0  0  0  0
 17 18  1  0  0  0  0
 17 29  1  0  0  0  0
 17 30  1  0  0  0  0
 18 31  1  0  0  0  0
M  END
> <s_m_source_file>
AV-unprocessed.smi

> <i_m_source_file_index>
285

> <i_lp_mmshare_version>
43012

> <i_f3d_flags>
0

> <s_epik_input>
bjFbY0hdbmMoW05IMl0pYyhjMTIpbmMoQnIpbjJbQ0BASF0zW0NIMl1bQ0BASF0oW09IXSlbQ0BIXShPMylbQ0gyXVtPSF0=

> <s_epik_cmdline>
J2VwaWtfcHl0aG9uJywgJy1waCcsICc3LjAnLCAnLXRuJywgJzgnLCAnLW1hJywgJzIwMCcsICctbWV0YWxfYmluZGluZycsICctaW1hZScsICc8aW5maWxlLm1hZT4nLCAnLW9tYWUnLCAnPG91dGZpbGUubWFlPic=

> <r_lp_tautomer_probability>
1

> <r_epik_Ionization_Penalty>
0.000103242

> <r_epik_Ionization_Penalty_Charging>
0

> <r_epik_Ionization_Penalty_Neutral>
0.000103242

> <r_epik_State_Penalty>
-0

> <r_epik_Charging_Adjusted_Penalty>
0

> <i_epik_Tot_Q>
0

> <i_epik_Tot_abs_Q>
0

> <r_epik_Metal_State_Penalty>
-0

> <b_epik_Metal_Only>
0

> <s_epik_Chemistry_Notes>
This compound contains an acetal/aminal-like group ( X-CH(R)-Y where X, Y are N, S, or O) that may be acid/base labile, releasing an aldehyde.

> <s_lp_Force_Field>
OPLS_2005

> <r_lp_Energy>
32.6465

> <b_lp_Chiralities_Consistent>
1

> <s_lp_Variant>
AV-unprocessed.smi:285-6

> <Gold.Version>
5.8.1

> <Gold.Id.Protein>
6NUR|6NUR_protein|mol2

> <Gold.PLP.Fitness>
39.7755

> <Gold.PLP.PLP>
-30.1716

> <Gold.PLP.part.hbond>
-6.2965

> <Gold.PLP.part.metal>
0.0000

> <Gold.PLP.part.buried>
-2.2855

> <Gold.PLP.part.nonpolar>
-20.9099

> <Gold.PLP.part.repulsive>
0.0288

> <Gold.PLP.ligand.clash>
0.8135

> <Gold.PLP.ligand.torsion>
0.2676

> <Gold.PLP.Chemscore.Hbond>
3.6480

> <Gold.PLP.Chemscore.CHOScore>
0.0000

> <Gold.PLP.Chemscore.Metal>
0.0000

> <Gold.Chemscore.Hbonds>
donor molecule, donor type, donor heavy atom, donor atom, acceptor molecule, acceptor atom, score
      L1  H    15    27       P1  8028  1.00
      L1  H    18    31       P1  7957  1.00
      P1  H  7989  7998       L1    18  0.59
      P1  H  7997  8008       L1     8  0.88

> <Gold.PLP.Chemscore.Internal.Correction>
0.0086

> <Gold.Rescore>
     Score         DG    S(hbond)    S(metal)    S(lipo)     H(rot)  DE(clash)    DE(int)     intcor
      7.84      -9.43       2.41        0.00      32.09       3.06       0.00       1.59       ----

> <Gold.Chemscore.Fitness>
7.8413

> <Gold.Chemscore.DG>
-9.4332

> <Gold.Chemscore.ZeroCoef>
-5.4800

> <Gold.Chemscore.Hbond>
2.4053

> <Gold.Chemscore.Metal>
0.0000

> <Gold.Chemscore.Lipo>
32.0933

> <Gold.Chemscore.Internal_Hbond>
0.0000

> <Gold.Chemscore.DEClash>
0.0048

> <Gold.Chemscore.DEInternal>
1.5871

> <Gold.Chemscore.Rot>
3.0607

> <Gold.Chemscore.Internal.Correction>
   9.000000E+99

> <Gold.Chemscore.Hbonds>
donor molecule, donor type, donor heavy atom, donor atom, acceptor molecule, acceptor atom, score
      L1  H    15    27       P1  8028  0.71
      L1  H    18    31       P1  7957  0.97
      P1  H  7989  7998       L1    18  0.45
      P1  H  7997  8008       L1     8  0.17

> <Gold.Chemscore.Hbond.Weighted>
-8.0337

> <Gold.Chemscore.Metal.Weighted>
-0.0000

> <Gold.Chemscore.Lipo.Weighted>
-3.7549

> <Gold.Chemscore.Internal_Hbond.Weighted>
0.0000

> <Gold.Chemscore.DEClash.Weighted>
0.0048

> <Gold.Chemscore.DEInternal.Weighted>
1.5871

> <Gold.Chemscore.Rot.Weighted>
7.8354

> <Gold.Chemscore.Internal.Correction.Weighted>
   9.000000E+99

> <Gold.Protein.RotatedTorsions>
[ 6907 6896 6895 6894 ] final   22.19 input  -60.11 | X-H torsion
[ 7974 7965 7964 7962 ] final   96.76 input  175.53 | X-H torsion
[ 8008 7997 7996 7995 ] final -125.98 input   59.86 | X-H torsion
[ 10167 10162 10161 10158 ] final  -61.69 input  -65.29 | X-H torsion
[ 10718 10713 10712 10709 ] final  -27.07 input   66.30 | X-H torsion
[ 10763 10752 10751 10750 ] final   -4.74 input  -60.55 | X-H torsion
[ 11005 11000 10999 10996 ] final  -98.67 input  -57.11 | X-H torsion

> <Gold.Protein.ActiveResidues>
 VAL166  LYS551  ARG553  GLY616  TRP617  ASP618  TYR619  PRO620  LYS621  CYS622 
 ASP623  PHE694  ASN695  SER759  ASP760  ASP761  ALA762  ILE779  LEU786  VAL792 
 PHE793  MET794  SER795  GLU796  ALA797  LYS798  CYS799  TRP800  GLU811  SER814 

> <Gold.Protein.RotatedAtoms>
  151.9234  135.0288  160.0523 H   0  0  0  0  0  0  0  0  0  0  0  0  # atno 6907 bound_to 6896
  152.2180  133.4957  159.5155 H   0  0  0  0  0  0  0  0  0  0  0  0  # atno 6908 bound_to 6896
  150.6992  134.1296  159.4107 H   0  0  0  0  0  0  0  0  0  0  0  0  # atno 6909 bound_to 6896
  145.4346  139.2307  143.3125 H   0  0  0  0  0  0  0  0  0  0  0  0  # atno 7974 bound_to 7965
  155.2221  140.0422  157.2950 H   0  0  0  0  0  0  0  0  0  0  0  0  # atno 8008 bound_to 7997
  154.5942  140.2435  155.7849 H   0  0  0  0  0  0  0  0  0  0  0  0  # atno 8009 bound_to 7997
  156.2279  140.2948  156.0123 H   0  0  0  0  0  0  0  0  0  0  0  0  # atno 8010 bound_to 7997
  140.5989  143.2357  151.5974 H   0  0  0  0  0  0  0  0  0  0  0  0  # atno 10167 bound_to 10162
  156.4429  130.4468  149.7040 H   0  0  0  0  0  0  0  0  0  0  0  0  # atno 10718 bound_to 10713
  153.3890  135.7001  153.6508 H   0  0  0  0  0  0  0  0  0  0  0  0  # atno 10763 bound_to 10752
  153.5089  135.3636  155.2577 H   0  0  0  0  0  0  0  0  0  0  0  0  # atno 10764 bound_to 10752
  154.8700  135.4130  154.3203 H   0  0  0  0  0  0  0  0  0  0  0  0  # atno 10765 bound_to 10752
  141.1336  133.8263  157.0870 H   0  0  0  0  0  0  0  0  0  0  0  0  # atno 11005 bound_to 11000
  146.2589  140.5086  142.8862 LP  0  0  0  0  0  0  0  0  0  0  0  0  # atno 17320 bound_to 7965
  144.8161  140.6470  143.6383 LP  0  0  0  0  0  0  0  0  0  0  0  0  # atno 17321 bound_to 7965
  139.5277  144.3009  152.1074 LP  0  0  0  0  0  0  0  0  0  0  0  0  # atno 17342 bound_to 10162
  140.2186  144.4489  150.6352 LP  0  0  0  0  0  0  0  0  0  0  0  0  # atno 17343 bound_to 10162
  156.3898  130.7621  151.2621 LP  0  0  0  0  0  0  0  0  0  0  0  0  # atno 17370 bound_to 10713
  157.7505  131.0271  150.3992 LP  0  0  0  0  0  0  0  0  0  0  0  0  # atno 17371 bound_to 10713
  140.0416  134.9851  157.0971 LP  0  0  0  0  0  0  0  0  0  0  0  0  # atno 17394 bound_to 11000
  140.4127  134.1964  155.7163 LP  0  0  0  0  0  0  0  0  0  0  0  0  # atno 17395 bound_to 11000

$$$$
