AV-unprocessed.smi:2880|AV-procd|sdf|11051|dock1
  -GOLD-   2272015523D 1   1.00000     0.00000
 Structure written by MMmdl.
 47 48  0  0  0  0  0  0  0  0  1 V2000
  143.7312  132.7045  148.5506 C   0  0  0  0  0  0  0  0  0  0  0  0
  144.5320  132.4963  149.8521 C   0  0  0  0  0  0  0  0  0  0  0  0
  143.8104  131.4137  150.6895 C   0  0  0  0  0  0  0  0  0  0  0  0
  145.9519  132.0055  149.5143 C   0  0  0  0  0  0  0  0  0  0  0  0
  144.6346  133.7701  150.5770 N   0  0  0  0  0  0  0  0  0  0  0  0
  143.6080  134.5930  151.0123 C   0  0  0  0  0  0  0  0  0  0  0  0
  144.1647  135.7041  151.5788 C   0  0  0  0  0  0  0  0  0  0  0  0
  145.5589  135.4824  151.4243 C   0  0  0  0  0  0  0  0  0  0  0  0
  146.5024  136.4337  151.8894 N   0  0  0  0  0  0  0  0  0  0  0  0
  146.3080  137.4011  152.8022 C   0  0  0  0  0  0  0  0  0  0  0  0
  145.2456  137.6241  153.3835 O   0  0  0  0  0  0  0  0  0  0  0  0
  147.4288  138.1100  153.0024 N   0  0  0  0  0  0  0  0  0  0  0  0
  147.5699  139.2500  153.9077 C   0  0  2  0  0  0  0  0  0  0  0  0
  147.1038  140.5240  153.1740 C   0  0  0  0  0  0  0  0  0  0  0  0
  147.2891  141.7805  154.0350 C   0  0  0  0  0  0  0  0  0  0  0  0
  148.7464  141.9165  154.4926 C   0  0  0  0  0  0  0  0  0  0  0  0
  149.2041  140.6601  155.2478 C   0  0  0  0  0  0  0  0  0  0  0  0
  149.0347  139.3763  154.4027 C   0  0  1  0  0  0  0  0  0  0  0  0
  149.4897  138.1279  155.1918 C   0  0  0  0  0  0  0  0  0  0  0  0
  149.0529  136.9434  154.5586 O   0  0  0  0  0  0  0  0  0  0  0  0
  145.8399  134.3433  150.8105 N   0  0  0  0  0  0  0  0  0  0  0  0
  143.6031  131.7651  148.0115 H   0  0  0  0  0  0  0  0  0  0  0  0
  144.2273  133.3967  147.8702 H   0  0  0  0  0  0  0  0  0  0  0  0
  142.7365  133.1008  148.7586 H   0  0  0  0  0  0  0  0  0  0  0  0
  142.8092  131.7351  150.9792 H   0  0  0  0  0  0  0  0  0  0  0  0
  144.3591  131.1700  151.6004 H   0  0  0  0  0  0  0  0  0  0  0  0
  143.7032  130.4859  150.1266 H   0  0  0  0  0  0  0  0  0  0  0  0
  145.9267  131.0613  148.9693 H   0  0  0  0  0  0  0  0  0  0  0  0
  146.5415  131.8483  150.4183 H   0  0  0  0  0  0  0  0  0  0  0  0
  146.4874  132.7260  148.8950 H   0  0  0  0  0  0  0  0  0  0  0  0
  142.5696  134.3261  150.8833 H   0  0  0  0  0  0  0  0  0  0  0  0
  143.6526  136.5436  152.0253 H   0  0  0  0  0  0  0  0  0  0  0  0
  147.4215  136.3772  151.4767 H   0  0  0  0  0  0  0  0  0  0  0  0
  148.2507  137.8502  152.4772 H   0  0  0  0  0  0  0  0  0  0  0  0
  146.9347  139.1114  154.7847 H   0  0  0  0  0  0  0  0  0  0  0  0
  147.6644  140.6406  152.2452 H   0  0  0  0  0  0  0  0  0  0  0  0
  146.0550  140.4283  152.8903 H   0  0  0  0  0  0  0  0  0  0  0  0
  146.9913  142.6651  153.4714 H   0  0  0  0  0  0  0  0  0  0  0  0
  146.6328  141.7306  154.9048 H   0  0  0  0  0  0  0  0  0  0  0  0
  149.3903  142.0804  153.6277 H   0  0  0  0  0  0  0  0  0  0  0  0
  148.8553  142.7943  155.1301 H   0  0  0  0  0  0  0  0  0  0  0  0
  150.2465  140.7841  155.5425 H   0  0  0  0  0  0  0  0  0  0  0  0
  148.6342  140.5679  156.1733 H   0  0  0  0  0  0  0  0  0  0  0  0
  149.6748  139.4682  153.5232 H   0  0  0  0  0  0  0  0  0  0  0  0
  150.5755  138.1061  155.2895 H   0  0  0  0  0  0  0  0  0  0  0  0
  149.0797  138.1266  156.2017 H   0  0  0  0  0  0  0  0  0  0  0  0
  149.2097  137.0246  153.6302 H   0  0  0  0  0  0  0  0  0  0  0  0
  1  2  1  0  0  0  0
  1 22  1  0  0  0  0
  1 23  1  0  0  0  0
  1 24  1  0  0  0  0
  2  3  1  0  0  0  0
  2  4  1  0  0  0  0
  2  5  1  0  0  0  0
  3 25  1  0  0  0  0
  3 26  1  0  0  0  0
  3 27  1  0  0  0  0
  4 28  1  0  0  0  0
  4 29  1  0  0  0  0
  4 30  1  0  0  0  0
  5 21  1  0  0  0  0
  5  6  1  0  0  0  0
  6  7  2  0  0  0  0
  6 31  1  0  0  0  0
  7  8  1  0  0  0  0
  7 32  1  0  0  0  0
  8  9  1  0  0  0  0
  8 21  2  0  0  0  0
  9 10  1  0  0  0  0
  9 33  1  0  0  0  0
 10 11  2  0  0  0  0
 10 12  1  0  0  0  0
 12 13  1  0  0  0  0
 12 34  1  0  0  0  0
 13 18  1  0  0  0  0
 13 14  1  0  0  0  0
 13 35  1  0  0  0  0
 14 15  1  0  0  0  0
 14 36  1  0  0  0  0
 14 37  1  0  0  0  0
 15 16  1  0  0  0  0
 15 38  1  0  0  0  0
 15 39  1  0  0  0  0
 16 17  1  0  0  0  0
 16 40  1  0  0  0  0
 16 41  1  0  0  0  0
 17 18  1  0  0  0  0
 17 42  1  0  0  0  0
 17 43  1  0  0  0  0
 18 19  1  0  0  0  0
 18 44  1  0  0  0  0
 19 20  1  0  0  0  0
 19 45  1  0  0  0  0
 19 46  1  0  0  0  0
 20 47  1  0  0  0  0
M  END
> <s_m_source_file>
AV-unprocessed.smi

> <i_m_source_file_index>
2880

> <i_lp_mmshare_version>
43012

> <i_f3d_flags>
0

> <s_epik_input>
W0NIM11DKFtDSDNdKShbQ0gzXSluMVtjSF1bY0hdYyhuMSlbTkhdQyg9TylbTkhdW0NAQEhdMltDSDJdW0NIMl1bQ0gyXVtDSDJdW0NASF0yW0NIMl1bT0hd

> <s_epik_cmdline>
J2VwaWtfcHl0aG9uJywgJy1waCcsICc3LjAnLCAnLXRuJywgJzgnLCAnLW1hJywgJzIwMCcsICctbWV0YWxfYmluZGluZycsICctaW1hZScsICc8aW5maWxlLm1hZT4nLCAnLW9tYWUnLCAnPG91dGZpbGUubWFlPic=

> <r_lp_tautomer_probability>
1

> <r_epik_Ionization_Penalty>
3.89283e-05

> <r_epik_Ionization_Penalty_Charging>
0

> <r_epik_Ionization_Penalty_Neutral>
3.89283e-05

> <r_epik_State_Penalty>
-0

> <r_epik_Charging_Adjusted_Penalty>
0

> <i_epik_Tot_Q>
0

> <i_epik_Tot_abs_Q>
0

> <r_epik_Metal_State_Penalty>
-0

> <b_epik_Metal_Only>
0

> <s_lp_Force_Field>
OPLS_2005

> <r_lp_Energy>
21.5121

> <b_lp_Chiralities_Consistent>
1

> <s_lp_Variant>
AV-unprocessed.smi:2880-1

> <Gold.Version>
5.8.1

> <Gold.Id.Protein>
6NUR|6NUR_protein|mol2

> <Gold.PLP.Fitness>
46.4851

> <Gold.PLP.PLP>
-36.9627

> <Gold.PLP.part.hbond>
-2.6839

> <Gold.PLP.part.metal>
0.0000

> <Gold.PLP.part.buried>
-0.6165

> <Gold.PLP.part.nonpolar>
-36.4685

> <Gold.PLP.part.repulsive>
0.4751

> <Gold.PLP.ligand.clash>
0.0000

> <Gold.PLP.ligand.torsion>
0.5840

> <Gold.PLP.Chemscore.Hbond>
2.5440

> <Gold.PLP.Chemscore.CHOScore>
0.9971

> <Gold.PLP.Chemscore.Metal>
0.0000

> <Gold.Chemscore.Hbonds>
donor molecule, donor type, donor heavy atom, donor atom, acceptor molecule, acceptor atom, score
      L1  H     9    33       P1  7948  0.88
      L1  H    12    34       P1  7948  0.72
      L1  H    20    47       P1  7948  0.94
      L1  C     6    31       P1 10186  1.00

> <Gold.PLP.Chemscore.Internal.Correction>
0.0669

> <Gold.Rescore>
     Score         DG    S(hbond)    S(metal)    S(lipo)     H(rot)  DE(clash)    DE(int)     intcor
     16.95     -21.20       2.60        0.00     103.19       1.97       0.64       3.60       ----

> <Gold.Chemscore.Fitness>
16.9547

> <Gold.Chemscore.DG>
-21.1977

> <Gold.Chemscore.ZeroCoef>
-5.4800

> <Gold.Chemscore.Hbond>
2.5988

> <Gold.Chemscore.Metal>
0.0000

> <Gold.Chemscore.Lipo>
103.1940

> <Gold.Chemscore.Internal_Hbond>
0.0000

> <Gold.Chemscore.DEClash>
0.6421

> <Gold.Chemscore.DEInternal>
3.6009

> <Gold.Chemscore.Rot>
1.9672

> <Gold.Chemscore.Internal.Correction>
   9.000000E+99

> <Gold.Chemscore.Hbonds>
donor molecule, donor type, donor heavy atom, donor atom, acceptor molecule, acceptor atom, score
      L1  H     9    33       P1  7948  0.82
      L1  H    12    34       P1  7948  0.72
      L1  H    20    47       P1  7948  0.89

> <Gold.Chemscore.Hbond.Weighted>
-8.6801

> <Gold.Chemscore.Metal.Weighted>
-0.0000

> <Gold.Chemscore.Lipo.Weighted>
-12.0737

> <Gold.Chemscore.Internal_Hbond.Weighted>
0.0000

> <Gold.Chemscore.DEClash.Weighted>
0.6421

> <Gold.Chemscore.DEInternal.Weighted>
3.6009

> <Gold.Chemscore.Rot.Weighted>
5.0360

> <Gold.Chemscore.Internal.Correction.Weighted>
   9.000000E+99

> <Gold.Protein.RotatedTorsions>
[ 6907 6896 6895 6894 ] final -152.48 input  -60.11 | X-H torsion
[ 7974 7965 7964 7962 ] final -130.40 input  175.53 | X-H torsion
[ 8008 7997 7996 7995 ] final  110.80 input   59.86 | X-H torsion
[ 10167 10162 10161 10158 ] final -108.61 input  -65.29 | X-H torsion
[ 10718 10713 10712 10709 ] final -140.38 input   66.30 | X-H torsion
[ 10763 10752 10751 10750 ] final    2.27 input  -60.55 | X-H torsion
[ 11005 11000 10999 10996 ] final  130.78 input  -57.11 | X-H torsion

> <Gold.Protein.ActiveResidues>
 VAL166  LYS551  ARG553  GLY616  TRP617  ASP618  TYR619  PRO620  LYS621  CYS622 
 ASP623  PHE694  ASN695  SER759  ASP760  ASP761  ALA762  ILE779  LEU786  VAL792 
 PHE793  MET794  SER795  GLU796  ALA797  LYS798  CYS799  TRP800  GLU811  SER814 

> <Gold.Protein.RotatedAtoms>
  151.2284  133.4464  159.2602 H   0  0  0  0  0  0  0  0  0  0  0  0  # atno 6907 bound_to 6896
  151.0818  134.9863  159.8370 H   0  0  0  0  0  0  0  0  0  0  0  0  # atno 6908 bound_to 6896
  152.5425  134.2223  159.8845 H   0  0  0  0  0  0  0  0  0  0  0  0  # atno 6909 bound_to 6896
  144.9478  140.7311  143.4806 H   0  0  0  0  0  0  0  0  0  0  0  0  # atno 7974 bound_to 7965
  156.2078  140.3032  155.9666 H   0  0  0  0  0  0  0  0  0  0  0  0  # atno 8008 bound_to 7997
  155.2797  140.0437  157.3031 H   0  0  0  0  0  0  0  0  0  0  0  0  # atno 8009 bound_to 7997
  154.5658  140.2333  155.8275 H   0  0  0  0  0  0  0  0  0  0  0  0  # atno 8010 bound_to 7997
  140.1643  143.4095  152.1402 H   0  0  0  0  0  0  0  0  0  0  0  0  # atno 10167 bound_to 10162
  156.3216  130.7537  151.1636 H   0  0  0  0  0  0  0  0  0  0  0  0  # atno 10718 bound_to 10713
  153.2976  135.6953  153.7233 H   0  0  0  0  0  0  0  0  0  0  0  0  # atno 10763 bound_to 10752
  153.6160  135.3436  155.2995 H   0  0  0  0  0  0  0  0  0  0  0  0  # atno 10764 bound_to 10752
  154.8542  135.4374  154.2078 H   0  0  0  0  0  0  0  0  0  0  0  0  # atno 10765 bound_to 10752
  139.9691  134.9582  156.9343 H   0  0  0  0  0  0  0  0  0  0  0  0  # atno 11005 bound_to 11000
  145.2890  139.1890  143.4750 LP  0  0  0  0  0  0  0  0  0  0  0  0  # atno 17320 bound_to 7965
  146.3310  140.2864  142.8613 LP  0  0  0  0  0  0  0  0  0  0  0  0  # atno 17321 bound_to 7965
  139.5367  144.7216  151.4870 LP  0  0  0  0  0  0  0  0  0  0  0  0  # atno 17342 bound_to 10162
  140.6623  143.8472  150.6902 LP  0  0  0  0  0  0  0  0  0  0  0  0  # atno 17343 bound_to 10162
  157.7413  131.0506  150.5107 LP  0  0  0  0  0  0  0  0  0  0  0  0  # atno 17370 bound_to 10713
  156.5260  130.4173  149.6226 LP  0  0  0  0  0  0  0  0  0  0  0  0  # atno 17371 bound_to 10713
  140.5331  134.0794  155.7321 LP  0  0  0  0  0  0  0  0  0  0  0  0  # atno 17394 bound_to 11000
  141.1371  133.9202  157.2409 LP  0  0  0  0  0  0  0  0  0  0  0  0  # atno 17395 bound_to 11000

$$$$
