AV-unprocessed.smi:211|AV-procd|sdf|1616|dock8
  -GOLD-   2262019543D 1   1.00000     0.00000
 Structure written by MMmdl.
 59 62  0  0  0  0  0  0  0  0  1 V2000
  146.4995  144.9597  160.0112 C   0  0  0  0  0  0  0  0  0  0  0  0
  146.1264  143.4818  160.0488 C   0  0  0  0  0  0  0  0  0  0  0  0
  146.8036  142.6907  160.7043 O   0  0  0  0  0  0  0  0  0  0  0  0
  145.0457  143.1267  159.3372 N   0  0  0  0  0  0  0  0  0  0  0  0
  144.5195  141.7683  159.2050 C   0  0  1  0  0  0  0  0  0  0  0  0
  143.0896  141.7345  159.7772 C   0  0  0  0  0  0  0  0  0  0  0  0
  144.6022  141.3072  157.7256 C   0  0  0  0  0  0  0  0  0  0  0  0
  143.6994  140.0882  157.4302 C   0  0  0  0  0  0  0  0  0  0  0  0
  143.8142  139.6342  155.9659 C   0  0  0  0  0  0  0  0  0  0  0  0
  145.2065  139.3706  155.6032 N   0  0  0  0  0  0  0  0  0  0  0  0
  145.4365  138.6966  154.4471 C   0  0  0  0  0  0  0  0  0  0  0  0
  146.5180  139.0083  153.6829 N   0  0  0  0  0  0  0  0  0  0  0  0
  146.7637  138.3378  152.5536 C   0  0  0  0  0  0  0  0  0  0  0  0
  146.0676  137.3389  152.0085 N   0  0  0  0  0  0  0  0  0  0  0  0
  144.9745  137.0287  152.7626 C   0  0  0  0  0  0  0  0  0  0  0  0
  144.5906  137.6483  153.9856 C   0  0  0  0  0  0  0  0  0  0  0  0
  143.4252  137.0619  154.4657 N   0  0  0  0  0  0  0  0  0  0  0  0
  143.1475  136.1375  153.5873 C   0  0  0  0  0  0  0  0  0  0  0  0
  144.0109  136.0660  152.5176 N   0  0  0  0  0  0  0  0  0  0  0  0
  143.9687  135.1241  151.4381 C   0  0  0  0  0  0  0  0  0  0  0  0
  143.7869  133.6272  151.7002 C   0  0  0  0  0  0  0  0  0  0  0  0
  144.6445  133.3143  150.4542 C   0  0  0  0  0  0  0  0  0  0  0  0
  145.6351  132.1492  150.6154 C   0  0  0  0  0  0  0  0  0  0  0  0
  146.5697  132.1194  149.5556 O   0  0  0  0  0  0  0  0  0  0  0  0
  143.8519  133.1280  149.1442 C   0  0  0  0  0  0  0  0  0  0  0  0
  142.8381  132.1542  149.2886 O   0  0  0  0  0  0  0  0  0  0  0  0
  145.2340  134.7264  150.6743 C   0  0  0  0  0  0  0  0  0  0  0  0
  146.1164  140.4890  155.8381 C   0  0  0  0  0  0  0  0  0  0  0  0
  146.0481  140.9565  157.3002 C   0  0  0  0  0  0  0  0  0  0  0  0
  145.6593  145.5752  160.3337 H   0  0  0  0  0  0  0  0  0  0  0  0
  146.7770  145.2550  158.9989 H   0  0  0  0  0  0  0  0  0  0  0  0
  147.3445  145.1636  160.6699 H   0  0  0  0  0  0  0  0  0  0  0  0
  144.5539  143.8527  158.8366 H   0  0  0  0  0  0  0  0  0  0  0  0
  145.1381  141.0924  159.7984 H   0  0  0  0  0  0  0  0  0  0  0  0
  142.7018  140.7181  159.8377 H   0  0  0  0  0  0  0  0  0  0  0  0
  142.4027  142.3207  159.1656 H   0  0  0  0  0  0  0  0  0  0  0  0
  143.0601  142.1403  160.7891 H   0  0  0  0  0  0  0  0  0  0  0  0
  144.2625  142.1329  157.0980 H   0  0  0  0  0  0  0  0  0  0  0  0
  143.9687  139.2618  158.0892 H   0  0  0  0  0  0  0  0  0  0  0  0
  142.6548  140.3208  157.6344 H   0  0  0  0  0  0  0  0  0  0  0  0
  143.2139  138.7350  155.8188 H   0  0  0  0  0  0  0  0  0  0  0  0
  143.4091  140.4038  155.3071 H   0  0  0  0  0  0  0  0  0  0  0  0
  147.6445  138.6455  152.0092 H   0  0  0  0  0  0  0  0  0  0  0  0
  142.2956  135.4818  153.6957 H   0  0  0  0  0  0  0  0  0  0  0  0
  143.2039  135.4914  150.7519 H   0  0  0  0  0  0  0  0  0  0  0  0
  144.2562  133.3075  152.6329 H   0  0  0  0  0  0  0  0  0  0  0  0
  142.7545  133.2809  151.6451 H   0  0  0  0  0  0  0  0  0  0  0  0
  146.1737  132.2074  151.5614 H   0  0  0  0  0  0  0  0  0  0  0  0
  145.1102  131.1935  150.6222 H   0  0  0  0  0  0  0  0  0  0  0  0
  147.3806  131.7586  149.8804 H   0  0  0  0  0  0  0  0  0  0  0  0
  143.3971  134.0629  148.8162 H   0  0  0  0  0  0  0  0  0  0  0  0
  144.5032  132.8100  148.3301 H   0  0  0  0  0  0  0  0  0  0  0  0
  142.0023  132.5942  149.3210 H   0  0  0  0  0  0  0  0  0  0  0  0
  145.4101  135.3026  149.7655 H   0  0  0  0  0  0  0  0  0  0  0  0
  146.1217  134.7223  151.3099 H   0  0  0  0  0  0  0  0  0  0  0  0
  147.1452  140.2240  155.5958 H   0  0  0  0  0  0  0  0  0  0  0  0
  145.8419  141.3093  155.1734 H   0  0  0  0  0  0  0  0  0  0  0  0
  146.7088  141.8151  157.4189 H   0  0  0  0  0  0  0  0  0  0  0  0
  146.4423  140.1731  157.9493 H   0  0  0  0  0  0  0  0  0  0  0  0
  1  2  1  0  0  0  0
  1 30  1  0  0  0  0
  1 31  1  0  0  0  0
  1 32  1  0  0  0  0
  2  3  2  0  0  0  0
  2  4  1  0  0  0  0
  4  5  1  0  0  0  0
  4 33  1  0  0  0  0
  5  6  1  0  0  0  0
  5  7  1  0  0  0  0
  5 34  1  0  0  0  0
  6 35  1  0  0  0  0
  6 36  1  0  0  0  0
  6 37  1  0  0  0  0
  7 29  1  0  0  0  0
  7  8  1  0  0  0  0
  7 38  1  0  0  0  0
  8  9  1  0  0  0  0
  8 39  1  0  0  0  0
  8 40  1  0  0  0  0
  9 10  1  0  0  0  0
  9 41  1  0  0  0  0
  9 42  1  0  0  0  0
 10 11  1  0  0  0  0
 10 28  1  0  0  0  0
 11 16  1  0  0  0  0
 11 12  2  0  0  0  0
 12 13  1  0  0  0  0
 13 14  2  0  0  0  0
 13 43  1  0  0  0  0
 14 15  1  0  0  0  0
 15 19  1  0  0  0  0
 15 16  2  0  0  0  0
 16 17  1  0  0  0  0
 17 18  2  0  0  0  0
 18 19  1  0  0  0  0
 18 44  1  0  0  0  0
 19 20  1  0  0  0  0
 20 27  1  0  0  0  0
 20 21  1  0  0  0  0
 20 45  1  0  0  0  0
 21 22  1  0  0  0  0
 21 46  1  0  0  0  0
 21 47  1  0  0  0  0
 22 23  1  0  0  0  0
 22 25  1  0  0  0  0
 22 27  1  0  0  0  0
 23 24  1  0  0  0  0
 23 48  1  0  0  0  0
 23 49  1  0  0  0  0
 24 50  1  0  0  0  0
 25 26  1  0  0  0  0
 25 51  1  0  0  0  0
 25 52  1  0  0  0  0
 26 53  1  0  0  0  0
 27 54  1  0  0  0  0
 27 55  1  0  0  0  0
 28 29  1  0  0  0  0
 28 56  1  0  0  0  0
 28 57  1  0  0  0  0
 29 58  1  0  0  0  0
 29 59  1  0  0  0  0
M  END
> <s_m_source_file>
AV-unprocessed.smi

> <i_m_source_file_index>
211

> <i_lp_mmshare_version>
43012

> <i_f3d_flags>
0

> <s_epik_input>
W0NIM11DKD1PKVtOSF1bQ0BIXShbQ0gzXSlbQ0hdMVtDSDJdW0NIMl1OKFtDSDJdW0NIMl0xKWMobltjSF1uMiljKGMyMyluW2NIXW4zW0NIXShbQ0gyXTQpW0NIMl1DNChbQ0gyXVtPSF0pW0NIMl1bT0hd

> <s_epik_cmdline>
J2VwaWtfcHl0aG9uJywgJy1waCcsICc3LjAnLCAnLXRuJywgJzgnLCAnLW1hJywgJzIwMCcsICctbWV0YWxfYmluZGluZycsICctaW1hZScsICc8aW5maWxlLm1hZT4nLCAnLW9tYWUnLCAnPG91dGZpbGUubWFlPic=

> <r_lp_tautomer_probability>
1

> <r_epik_Ionization_Penalty>
0.00335435

> <r_epik_Ionization_Penalty_Charging>
0

> <r_epik_Ionization_Penalty_Neutral>
0.00335435

> <r_epik_State_Penalty>
0.00231338

> <r_epik_Charging_Adjusted_Penalty>
0.00231338

> <i_epik_Tot_Q>
0

> <i_epik_Tot_abs_Q>
0

> <r_epik_Metal_State_Penalty>
-0

> <b_epik_Metal_Only>
0

> <s_lp_Force_Field>
OPLS_2005

> <r_lp_Energy>
40.8238

> <b_lp_Chiralities_Consistent>
1

> <s_lp_Variant>
AV-unprocessed.smi:211-2

> <Gold.Version>
5.8.1

> <Gold.Id.Protein>
6NUR|6NUR_protein|mol2

> <Gold.PLP.Fitness>
47.9924

> <Gold.PLP.PLP>
-32.7485

> <Gold.PLP.part.hbond>
-5.6816

> <Gold.PLP.part.metal>
0.0000

> <Gold.PLP.part.buried>
-4.7835

> <Gold.PLP.part.nonpolar>
-23.2437

> <Gold.PLP.part.repulsive>
1.2900

> <Gold.PLP.ligand.clash>
0.0000

> <Gold.PLP.ligand.torsion>
1.4352

> <Gold.PLP.Chemscore.Hbond>
4.4254

> <Gold.PLP.Chemscore.CHOScore>
1.3143

> <Gold.PLP.Chemscore.Metal>
0.0000

> <Gold.Chemscore.Hbonds>
donor molecule, donor type, donor heavy atom, donor atom, acceptor molecule, acceptor atom, score
      L1  H    24    50       P1 10747  1.00
      L1  H    26    53       P1 10186  0.83
      P1  H  6933  6944       L1     3  0.82
      P1  H  6934  6946       L1     3  0.86
      P1  H 10785 10796       L1    26  0.80
      L1  C    13    43       P1  7948  0.22
      L1  C    13    43       P1  7957  1.00

> <Gold.PLP.Chemscore.Internal.Correction>
0.8951

> <Gold.Rescore>
     Score         DG    S(hbond)    S(metal)    S(lipo)     H(rot)  DE(clash)    DE(int)     intcor
     12.65     -16.07       4.28        0.00      54.06       3.92       0.16       3.26       ----

> <Gold.Chemscore.Fitness>
12.6458

> <Gold.Chemscore.DG>
-16.0657

> <Gold.Chemscore.ZeroCoef>
-5.4800

> <Gold.Chemscore.Hbond>
4.2766

> <Gold.Chemscore.Metal>
0.0000

> <Gold.Chemscore.Lipo>
54.0635

> <Gold.Chemscore.Internal_Hbond>
0.0000

> <Gold.Chemscore.DEClash>
0.1587

> <Gold.Chemscore.DEInternal>
3.2612

> <Gold.Chemscore.Rot>
3.9155

> <Gold.Chemscore.Internal.Correction>
   9.000000E+99

> <Gold.Chemscore.Hbonds>
donor molecule, donor type, donor heavy atom, donor atom, acceptor molecule, acceptor atom, score
      L1  H    24    50       P1 10747  1.00
      L1  H    26    53       P1 10186  0.78
      P1  H  6933  6944       L1     3  0.81
      P1  H  6934  6946       L1     3  0.87
      P1  H 10785 10796       L1    26  0.77

> <Gold.Chemscore.Hbond.Weighted>
-14.2839

> <Gold.Chemscore.Metal.Weighted>
-0.0000

> <Gold.Chemscore.Lipo.Weighted>
-6.3254

> <Gold.Chemscore.Internal_Hbond.Weighted>
0.0000

> <Gold.Chemscore.DEClash.Weighted>
0.1587

> <Gold.Chemscore.DEInternal.Weighted>
3.2612

> <Gold.Chemscore.Rot.Weighted>
10.0236

> <Gold.Chemscore.Internal.Correction.Weighted>
   9.000000E+99

> <Gold.Protein.RotatedTorsions>
[ 6907 6896 6895 6894 ] final   78.65 input  -60.11 | X-H torsion
[ 7974 7965 7964 7962 ] final  154.27 input  175.53 | X-H torsion
[ 8008 7997 7996 7995 ] final -121.31 input   59.86 | X-H torsion
[ 10167 10162 10161 10158 ] final   -7.72 input  -65.29 | X-H torsion
[ 10718 10713 10712 10709 ] final  118.79 input   66.30 | X-H torsion
[ 10763 10752 10751 10750 ] final  107.94 input  -60.55 | X-H torsion
[ 11005 11000 10999 10996 ] final  -12.60 input  -57.11 | X-H torsion

> <Gold.Protein.ActiveResidues>
 VAL166  LYS551  ARG553  GLY616  TRP617  ASP618  TYR619  PRO620  LYS621  CYS622 
 ASP623  PHE694  ASN695  SER759  ASP760  ASP761  ALA762  ILE779  LEU786  VAL792 
 PHE793  MET794  SER795  GLU796  ALA797  LYS798  CYS799  TRP800  GLU811  SER814 

> <Gold.Protein.RotatedAtoms>
  152.5168  134.3631  159.9291 H   0  0  0  0  0  0  0  0  0  0  0  0  # atno 6907 bound_to 6896
  151.3584  133.3892  159.2695 H   0  0  0  0  0  0  0  0  0  0  0  0  # atno 6908 bound_to 6896
  150.9672  134.9069  159.7824 H   0  0  0  0  0  0  0  0  0  0  0  0  # atno 6909 bound_to 6896
  144.8099  139.6912  143.6146 H   0  0  0  0  0  0  0  0  0  0  0  0  # atno 7974 bound_to 7965
  155.1460  140.0403  157.2810 H   0  0  0  0  0  0  0  0  0  0  0  0  # atno 8008 bound_to 7997
  154.6439  140.2553  155.7264 H   0  0  0  0  0  0  0  0  0  0  0  0  # atno 8009 bound_to 7997
  156.2545  140.2850  156.0844 H   0  0  0  0  0  0  0  0  0  0  0  0  # atno 8010 bound_to 7997
  140.7037  143.6049  150.8760 H   0  0  0  0  0  0  0  0  0  0  0  0  # atno 10167 bound_to 10162
  157.6006  131.1051  150.7806 H   0  0  0  0  0  0  0  0  0  0  0  0  # atno 10718 bound_to 10713
  153.4137  135.3828  155.2067 H   0  0  0  0  0  0  0  0  0  0  0  0  # atno 10763 bound_to 10752
  154.8740  135.3800  154.4469 H   0  0  0  0  0  0  0  0  0  0  0  0  # atno 10764 bound_to 10752
  153.4981  135.7088  153.5909 H   0  0  0  0  0  0  0  0  0  0  0  0  # atno 10765 bound_to 10752
  140.7674  133.8466  155.9177 H   0  0  0  0  0  0  0  0  0  0  0  0  # atno 11005 bound_to 11000
  146.2396  139.5975  142.9500 LP  0  0  0  0  0  0  0  0  0  0  0  0  # atno 17320 bound_to 7965
  145.5348  141.0425  143.2363 LP  0  0  0  0  0  0  0  0  0  0  0  0  # atno 17321 bound_to 7965
  139.9773  143.5990  152.2954 LP  0  0  0  0  0  0  0  0  0  0  0  0  # atno 17342 bound_to 10162
  139.6598  144.7662  151.1985 LP  0  0  0  0  0  0  0  0  0  0  0  0  # atno 17343 bound_to 10162
  156.8206  130.4982  149.5344 LP  0  0  0  0  0  0  0  0  0  0  0  0  # atno 17370 bound_to 10713
  156.1078  130.6018  150.9999 LP  0  0  0  0  0  0  0  0  0  0  0  0  # atno 17371 bound_to 10713
  140.9606  134.1660  157.4657 LP  0  0  0  0  0  0  0  0  0  0  0  0  # atno 17394 bound_to 11000
  139.8761  134.9943  156.5688 LP  0  0  0  0  0  0  0  0  0  0  0  0  # atno 17395 bound_to 11000

$$$$
