AV-unprocessed.smi:3191|AV-procd|sdf|12198|dock3
  -GOLD-   2272018 33D 1   1.00000     0.00000
 Structure written by MMmdl.
 35 36  0  0  0  0  0  0  0  0  1 V2000
  149.0438  139.4967  154.3940 C   0  0  0  0  0  0  0  0  0  0  0  0
  150.1819  138.7576  154.9042 N   0  0  0  0  0  0  0  0  0  0  0  0
  150.4944  137.4815  154.6404 C   0  0  0  0  0  0  0  0  0  0  0  0
  151.5936  137.0481  155.2429 N   0  0  0  0  0  0  0  0  0  0  0  0
  152.0320  138.1535  155.9668 C   0  0  0  0  0  0  0  0  0  0  0  0
  151.1745  139.2131  155.7684 C   0  0  0  0  0  0  0  0  0  0  0  0
  151.2261  140.6029  156.3164 C   0  0  0  0  0  0  0  0  0  0  0  0
  151.1214  140.6449  157.8493 C   0  0  0  0  0  0  0  0  0  0  0  0
  151.6620  141.8868  158.3884 N   0  0  0  0  0  0  0  0  0  0  0  0
  152.1489  142.0373  159.6297 C   0  0  0  0  0  0  0  0  0  0  0  0
  152.1759  141.1193  160.4508 O   0  0  0  0  0  0  0  0  0  0  0  0
  152.6481  143.4197  159.9152 C   0  0  1  0  0  0  0  0  0  0  0  0
  152.8557  144.3594  158.7451 C   0  0  0  0  0  0  0  0  0  0  0  0
  151.7310  144.6253  159.7209 C   0  0  0  0  0  0  0  0  0  0  0  0
  150.2875  144.5006  159.2478 C   0  0  0  0  0  0  0  0  0  0  0  0
  151.8487  145.7731  160.7084 C   0  0  0  0  0  0  0  0  0  0  0  0
  153.3627  143.4955  160.7337 H   0  0  0  0  0  0  0  0  0  0  0  0
  148.4526  138.8678  153.7276 H   0  0  0  0  0  0  0  0  0  0  0  0
  149.3870  140.3711  153.8411 H   0  0  0  0  0  0  0  0  0  0  0  0
  148.4142  139.8215  155.2227 H   0  0  0  0  0  0  0  0  0  0  0  0
  149.9022  136.8535  153.9909 H   0  0  0  0  0  0  0  0  0  0  0  0
  152.9268  138.1038  156.5694 H   0  0  0  0  0  0  0  0  0  0  0  0
  152.1473  141.0872  155.9909 H   0  0  0  0  0  0  0  0  0  0  0  0
  150.4151  141.1890  155.8830 H   0  0  0  0  0  0  0  0  0  0  0  0
  150.0768  140.5665  158.1515 H   0  0  0  0  0  0  0  0  0  0  0  0
  151.6357  139.7923  158.2954 H   0  0  0  0  0  0  0  0  0  0  0  0
  151.6712  142.6873  157.7730 H   0  0  0  0  0  0  0  0  0  0  0  0
  153.7320  145.0033  158.7833 H   0  0  0  0  0  0  0  0  0  0  0  0
  152.5884  144.0179  157.7465 H   0  0  0  0  0  0  0  0  0  0  0  0
  149.8978  145.4758  158.9546 H   0  0  0  0  0  0  0  0  0  0  0  0
  149.6613  144.1047  160.0476 H   0  0  0  0  0  0  0  0  0  0  0  0
  150.2021  143.8444  158.3826 H   0  0  0  0  0  0  0  0  0  0  0  0
  151.5591  146.7129  160.2373 H   0  0  0  0  0  0  0  0  0  0  0  0
  152.8741  145.8743  161.0652 H   0  0  0  0  0  0  0  0  0  0  0  0
  151.2021  145.6003  161.5693 H   0  0  0  0  0  0  0  0  0  0  0  0
  1  2  1  0  0  0  0
  1 18  1  0  0  0  0
  1 19  1  0  0  0  0
  1 20  1  0  0  0  0
  2  6  1  0  0  0  0
  2  3  1  0  0  0  0
  3  4  2  0  0  0  0
  3 21  1  0  0  0  0
  4  5  1  0  0  0  0
  5  6  2  0  0  0  0
  5 22  1  0  0  0  0
  6  7  1  0  0  0  0
  7  8  1  0  0  0  0
  7 23  1  0  0  0  0
  7 24  1  0  0  0  0
  8  9  1  0  0  0  0
  8 25  1  0  0  0  0
  8 26  1  0  0  0  0
  9 10  1  0  0  0  0
  9 27  1  0  0  0  0
 10 11  2  0  0  0  0
 10 12  1  0  0  0  0
 12 17  1  0  0  0  0
 12 14  1  0  0  0  0
 12 13  1  0  0  0  0
 13 14  1  0  0  0  0
 13 28  1  0  0  0  0
 13 29  1  0  0  0  0
 14 15  1  0  0  0  0
 14 16  1  0  0  0  0
 15 30  1  0  0  0  0
 15 31  1  0  0  0  0
 15 32  1  0  0  0  0
 16 33  1  0  0  0  0
 16 34  1  0  0  0  0
 16 35  1  0  0  0  0
M  END
> <s_m_source_file>
AV-unprocessed.smi

> <i_m_source_file_index>
3191

> <i_lp_mmshare_version>
43012

> <i_f3d_flags>
0

> <s_epik_input>
W0NIM11uMVtjSF1uW2NIXWMxW0NIMl1bQ0gyXVtOSF1DKD1PKVtDQEBIXShbQ0gyXTIpQzIoW0NIM10pW0NIM10=

> <s_epik_cmdline>
J2VwaWtfcHl0aG9uJywgJy1waCcsICc3LjAnLCAnLXRuJywgJzgnLCAnLW1hJywgJzIwMCcsICctbWV0YWxfYmluZGluZycsICctaW1hZScsICc8aW5maWxlLm1hZT4nLCAnLW9tYWUnLCAnPG91dGZpbGUubWFlPic=

> <r_lp_tautomer_probability>
1

> <r_epik_Ionization_Penalty>
0.874249

> <r_epik_Ionization_Penalty_Charging>
0.874249

> <r_epik_Ionization_Penalty_Neutral>
1.97773e-08

> <r_epik_State_Penalty>
0.911868

> <r_epik_Charging_Adjusted_Penalty>
1.78612

> <i_epik_Tot_Q>
0

> <i_epik_Tot_abs_Q>
0

> <r_epik_Metal_State_Penalty>
0.361186

> <b_epik_Metal_Only>
0

> <s_lp_Force_Field>
OPLS_2005

> <r_lp_Energy>
11.7772

> <b_lp_Chiralities_Consistent>
1

> <s_lp_Variant>
AV-unprocessed.smi:3191-3

> <Gold.Version>
5.8.1

> <Gold.Id.Protein>
6NUR|6NUR_protein|mol2

> <Gold.PLP.Fitness>
46.4450

> <Gold.PLP.PLP>
-41.9796

> <Gold.PLP.part.hbond>
-1.0000

> <Gold.PLP.part.metal>
0.0000

> <Gold.PLP.part.buried>
-3.9627

> <Gold.PLP.part.nonpolar>
-38.6166

> <Gold.PLP.part.repulsive>
0.1657

> <Gold.PLP.ligand.clash>
0.0000

> <Gold.PLP.ligand.torsion>
0.4724

> <Gold.PLP.Chemscore.Hbond>
0.7840

> <Gold.PLP.Chemscore.CHOScore>
0.9872

> <Gold.PLP.Chemscore.Metal>
0.0000

> <Gold.Chemscore.Hbonds>
donor molecule, donor type, donor heavy atom, donor atom, acceptor molecule, acceptor atom, score
      P1  H 10752 10763       L1     4  0.84
      L1  C     3    21       P1  7948  1.00

> <Gold.PLP.Chemscore.Internal.Correction>
0.0968

> <Gold.Rescore>
     Score         DG    S(hbond)    S(metal)    S(lipo)     H(rot)  DE(clash)    DE(int)     intcor
     14.66     -15.06       0.85        0.00      94.56       1.69       0.06       0.35       ----

> <Gold.Chemscore.Fitness>
14.6564

> <Gold.Chemscore.DG>
-15.0642

> <Gold.Chemscore.ZeroCoef>
-5.4800

> <Gold.Chemscore.Hbond>
0.8540

> <Gold.Chemscore.Metal>
0.0000

> <Gold.Chemscore.Lipo>
94.5552

> <Gold.Chemscore.Internal_Hbond>
0.0000

> <Gold.Chemscore.DEClash>
0.0609

> <Gold.Chemscore.DEInternal>
0.3470

> <Gold.Chemscore.Rot>
1.6919

> <Gold.Chemscore.Internal.Correction>
   9.000000E+99

> <Gold.Chemscore.Hbonds>
donor molecule, donor type, donor heavy atom, donor atom, acceptor molecule, acceptor atom, score
      P1  H 10752 10763       L1     4  0.80

> <Gold.Chemscore.Hbond.Weighted>
-2.8524

> <Gold.Chemscore.Metal.Weighted>
-0.0000

> <Gold.Chemscore.Lipo.Weighted>
-11.0630

> <Gold.Chemscore.Internal_Hbond.Weighted>
0.0000

> <Gold.Chemscore.DEClash.Weighted>
0.0609

> <Gold.Chemscore.DEInternal.Weighted>
0.3470

> <Gold.Chemscore.Rot.Weighted>
4.3312

> <Gold.Chemscore.Internal.Correction.Weighted>
   9.000000E+99

> <Gold.Protein.RotatedTorsions>
[ 6907 6896 6895 6894 ] final  135.84 input  -60.11 | X-H torsion
[ 7974 7965 7964 7962 ] final  -97.29 input  175.53 | X-H torsion
[ 8008 7997 7996 7995 ] final  -50.59 input   59.86 | X-H torsion
[ 10167 10162 10161 10158 ] final  142.56 input  -65.29 | X-H torsion
[ 10718 10713 10712 10709 ] final    3.40 input   66.30 | X-H torsion
[ 10763 10752 10751 10750 ] final   53.44 input  -60.55 | X-H torsion
[ 11005 11000 10999 10996 ] final  105.89 input  -57.11 | X-H torsion

> <Gold.Protein.ActiveResidues>
 VAL166  LYS551  ARG553  GLY616  TRP617  ASP618  TYR619  PRO620  LYS621  CYS622 
 ASP623  PHE694  ASN695  SER759  ASP760  ASP761  ALA762  ILE779  LEU786  VAL792 
 PHE793  MET794  SER795  GLU796  ALA797  LYS798  CYS799  TRP800  GLU811  SER814 

> <Gold.Protein.RotatedAtoms>
  152.2960  133.5608  159.5587 H   0  0  0  0  0  0  0  0  0  0  0  0  # atno 6907 bound_to 6896
  150.7256  134.0360  159.3758 H   0  0  0  0  0  0  0  0  0  0  0  0  # atno 6908 bound_to 6896
  151.8263  135.0636  160.0482 H   0  0  0  0  0  0  0  0  0  0  0  0  # atno 6909 bound_to 6896
  145.3357  140.9450  143.2636 H   0  0  0  0  0  0  0  0  0  0  0  0  # atno 7974 bound_to 7965
  154.4065  140.1268  156.4690 H   0  0  0  0  0  0  0  0  0  0  0  0  # atno 8008 bound_to 7997
  155.7198  140.3493  155.4991 H   0  0  0  0  0  0  0  0  0  0  0  0  # atno 8009 bound_to 7997
  155.9225  140.1055  157.1186 H   0  0  0  0  0  0  0  0  0  0  0  0  # atno 8010 bound_to 7997
  139.4991  144.6099  151.6296 H   0  0  0  0  0  0  0  0  0  0  0  0  # atno 10167 bound_to 10162
  156.8772  130.5641  149.5654 H   0  0  0  0  0  0  0  0  0  0  0  0  # atno 10718 bound_to 10713
  152.9795  135.5779  154.4741 H   0  0  0  0  0  0  0  0  0  0  0  0  # atno 10763 bound_to 10752
  154.4300  135.2773  155.1921 H   0  0  0  0  0  0  0  0  0  0  0  0  # atno 10764 bound_to 10752
  154.3633  135.6184  153.5756 H   0  0  0  0  0  0  0  0  0  0  0  0  # atno 10765 bound_to 10752
  139.8807  134.9351  156.5583 H   0  0  0  0  0  0  0  0  0  0  0  0  # atno 11005 bound_to 11000
  144.8829  139.4879  143.6714 LP  0  0  0  0  0  0  0  0  0  0  0  0  # atno 17320 bound_to 7965
  146.3028  139.7480  142.9079 LP  0  0  0  0  0  0  0  0  0  0  0  0  # atno 17321 bound_to 7965
  140.5770  144.0011  150.6247 LP  0  0  0  0  0  0  0  0  0  0  0  0  # atno 17342 bound_to 10162
  140.3147  143.3175  152.0844 LP  0  0  0  0  0  0  0  0  0  0  0  0  # atno 17343 bound_to 10162
  156.0695  130.5731  150.9356 LP  0  0  0  0  0  0  0  0  0  0  0  0  # atno 17370 bound_to 10713
  157.6161  131.0933  150.8708 LP  0  0  0  0  0  0  0  0  0  0  0  0  # atno 17371 bound_to 10713
  140.8188  133.8370  155.8876 LP  0  0  0  0  0  0  0  0  0  0  0  0  # atno 17394 bound_to 11000
  140.9438  134.1867  157.4778 LP  0  0  0  0  0  0  0  0  0  0  0  0  # atno 17395 bound_to 11000

$$$$
