AV-unprocessed.smi:3287|AV-procd|sdf|12594|dock1
  -GOLD-   2272018513D 1   1.00000     0.00000
 Structure written by MMmdl.
 43 44  0  0  0  0  0  0  0  0  2 V2000
  150.9827  141.8442  156.6223 C   0  0  0  0  0  0  0  0  0  0  0  0
  150.3903  141.1172  155.4020 C   0  0  2  0  0  0  0  0  0  0  0  0
  148.8595  141.3016  155.3778 C   0  0  0  0  0  0  0  0  0  0  0  0
  148.2151  140.6026  154.1737 C   0  0  0  0  0  0  0  0  0  0  0  0
  148.5535  139.1043  154.1586 C   0  0  1  0  0  0  0  0  0  0  0  0
  147.9168  138.4598  152.9886 N   0  3  0  0  0  0  0  0  0  0  0  0
  146.4489  138.2993  153.0757 C   0  0  0  0  0  0  0  0  0  0  0  0
  145.8523  137.8319  151.7368 C   0  0  1  0  0  0  0  0  0  0  0  0
  146.6620  138.3144  150.6822 O   0  0  0  0  0  0  0  0  0  0  0  0
  145.7170  136.3175  151.6983 C   0  0  0  0  0  0  0  0  0  0  0  0
  145.9467  135.5321  152.8491 C   0  0  0  0  0  0  0  0  0  0  0  0
  145.7967  134.1343  152.7526 C   0  0  0  0  0  0  0  0  0  0  0  0
  145.4402  133.5045  151.6128 N   0  0  0  0  0  0  0  0  0  0  0  0
  145.2191  134.2601  150.5162 C   0  0  0  0  0  0  0  0  0  0  0  0
  145.3422  135.6640  150.5059 C   0  0  0  0  0  0  0  0  0  0  0  0
  150.0837  138.9150  154.1555 C   0  0  0  0  0  0  0  0  0  0  0  0
  150.7616  139.6111  155.3550 C   0  0  1  0  0  0  0  0  0  0  0  0
  152.2812  139.3707  155.3061 C   0  0  0  0  0  0  0  0  0  0  0  0
  150.6783  141.3682  157.5549 H   0  0  0  0  0  0  0  0  0  0  0  0
  150.6510  142.8824  156.6579 H   0  0  0  0  0  0  0  0  0  0  0  0
  152.0717  141.8627  156.5938 H   0  0  0  0  0  0  0  0  0  0  0  0
  150.7946  141.5942  154.5077 H   0  0  0  0  0  0  0  0  0  0  0  0
  148.4258  140.9092  156.2987 H   0  0  0  0  0  0  0  0  0  0  0  0
  148.6128  142.3637  155.3515 H   0  0  0  0  0  0  0  0  0  0  0  0
  147.1340  140.7429  154.2073 H   0  0  0  0  0  0  0  0  0  0  0  0
  148.5604  141.0744  153.2522 H   0  0  0  0  0  0  0  0  0  0  0  0
  148.1388  138.6548  155.0624 H   0  0  0  0  0  0  0  0  0  0  0  0
  148.1075  139.0366  152.1818 H   0  0  0  0  0  0  0  0  0  0  0  0
  146.1937  137.5930  153.8659 H   0  0  0  0  0  0  0  0  0  0  0  0
  146.0106  139.2598  153.3508 H   0  0  0  0  0  0  0  0  0  0  0  0
  144.8604  138.2690  151.6120 H   0  0  0  0  0  0  0  0  0  0  0  0
  146.0982  138.6081  149.9819 H   0  0  0  0  0  0  0  0  0  0  0  0
  146.2305  135.9855  153.7875 H   0  0  0  0  0  0  0  0  0  0  0  0
  145.9663  133.5060  153.6143 H   0  0  0  0  0  0  0  0  0  0  0  0
  144.9344  133.7303  149.6192 H   0  0  0  0  0  0  0  0  0  0  0  0
  145.1510  136.2203  149.6002 H   0  0  0  0  0  0  0  0  0  0  0  0
  150.3306  137.8535  154.1780 H   0  0  0  0  0  0  0  0  0  0  0  0
  150.4987  139.3063  153.2251 H   0  0  0  0  0  0  0  0  0  0  0  0
  150.3855  139.1410  156.2651 H   0  0  0  0  0  0  0  0  0  0  0  0
  152.7352  139.8761  154.4531 H   0  0  0  0  0  0  0  0  0  0  0  0
  152.5073  138.3076  155.2188 H   0  0  0  0  0  0  0  0  0  0  0  0
  152.7777  139.7243  156.2093 H   0  0  0  0  0  0  0  0  0  0  0  0
  148.3388  137.5541  152.8388 H   0  0  0  0  0  0  0  0  0  0  0  0
  1  2  1  0  0  0  0
  1 19  1  0  0  0  0
  1 20  1  0  0  0  0
  1 21  1  0  0  0  0
  2 17  1  0  0  0  0
  2  3  1  0  0  0  0
  2 22  1  0  0  0  0
  3  4  1  0  0  0  0
  3 23  1  0  0  0  0
  3 24  1  0  0  0  0
  4  5  1  0  0  0  0
  4 25  1  0  0  0  0
  4 26  1  0  0  0  0
  5  6  1  0  0  0  0
  5 16  1  0  0  0  0
  5 27  1  0  0  0  0
  6  7  1  0  0  0  0
  6 28  1  0  0  0  0
  6 43  1  0  0  0  0
  7  8  1  0  0  0  0
  7 29  1  0  0  0  0
  7 30  1  0  0  0  0
  8  9  1  0  0  0  0
  8 10  1  0  0  0  0
  8 31  1  0  0  0  0
  9 32  1  0  0  0  0
 10 15  1  0  0  0  0
 10 11  2  0  0  0  0
 11 12  1  0  0  0  0
 11 33  1  0  0  0  0
 12 13  2  0  0  0  0
 12 34  1  0  0  0  0
 13 14  1  0  0  0  0
 14 15  2  0  0  0  0
 14 35  1  0  0  0  0
 15 36  1  0  0  0  0
 16 17  1  0  0  0  0
 16 37  1  0  0  0  0
 16 38  1  0  0  0  0
 17 18  1  0  0  0  0
 17 39  1  0  0  0  0
 18 40  1  0  0  0  0
 18 41  1  0  0  0  0
 18 42  1  0  0  0  0
M  CHG  1   6   1
M  END
> <s_m_source_file>
AV-unprocessed.smi

> <i_m_source_file_index>
3287

> <i_lp_mmshare_version>
43012

> <i_f3d_flags>
0

> <s_epik_input>
W0NIM11bQ0BASF0xW0NIMl1bQ0gyXVtDQEhdKFtDSDJdW0NASF0xW0NIM10pW05IXVtDSDJdW0NASF0oW09IXSljMltjSF1bY0hdbltjSF1bY0hdMg==

> <s_epik_cmdline>
J2VwaWtfcHl0aG9uJywgJy1waCcsICc3LjAnLCAnLXRuJywgJzgnLCAnLW1hJywgJzIwMCcsICctbWV0YWxfYmluZGluZycsICctaW1hZScsICc8aW5maWxlLm1hZT4nLCAnLW9tYWUnLCAnPG91dGZpbGUubWFlPic=

> <r_lp_tautomer_probability>
1

> <r_epik_Ionization_Penalty>
0.00537262

> <r_epik_Ionization_Penalty_Charging>
0.00321624

> <r_epik_Ionization_Penalty_Neutral>
0.00215638

> <r_epik_State_Penalty>
-0

> <r_epik_Charging_Adjusted_Penalty>
0.00321624

> <i_epik_Tot_Q>
1

> <i_epik_Tot_abs_Q>
1

> <r_epik_Metal_State_Penalty>
-0

> <b_epik_Metal_Only>
0

> <s_lp_Force_Field>
OPLS_2005

> <r_lp_Energy>
16.1009

> <b_lp_Chiralities_Consistent>
1

> <s_lp_Variant>
AV-unprocessed.smi:3287-5

> <Gold.Version>
5.8.1

> <Gold.Id.Protein>
6NUR|6NUR_protein|mol2

> <Gold.PLP.Fitness>
49.2350

> <Gold.PLP.PLP>
-36.3890

> <Gold.PLP.part.hbond>
-4.1701

> <Gold.PLP.part.metal>
0.0000

> <Gold.PLP.part.buried>
1.8908

> <Gold.PLP.part.nonpolar>
-33.2636

> <Gold.PLP.part.repulsive>
0.1542

> <Gold.PLP.ligand.clash>
0.0000

> <Gold.PLP.ligand.torsion>
0.6798

> <Gold.PLP.Chemscore.Hbond>
4.1940

> <Gold.PLP.Chemscore.CHOScore>
0.5240

> <Gold.PLP.Chemscore.Metal>
0.0000

> <Gold.Chemscore.Hbonds>
donor molecule, donor type, donor heavy atom, donor atom, acceptor molecule, acceptor atom, score
      L1  H     6    28       P1  7957  0.84
      L1  H     6    43       P1  7948  2.00
      L1  H     9    32       P1 10171  0.36
      P1  H  7954  7966       L1     9  0.96
      L1  C    14    35       P1  7921  0.53

> <Gold.PLP.Chemscore.Internal.Correction>
0.0517

> <Gold.Rescore>
     Score         DG    S(hbond)    S(metal)    S(lipo)     H(rot)  DE(clash)    DE(int)     intcor
     19.81     -22.09       3.09        0.00      95.36       1.90       1.63       0.64       ----

> <Gold.Chemscore.Fitness>
19.8109

> <Gold.Chemscore.DG>
-22.0904

> <Gold.Chemscore.ZeroCoef>
-5.4800

> <Gold.Chemscore.Hbond>
3.0916

> <Gold.Chemscore.Metal>
0.0000

> <Gold.Chemscore.Lipo>
95.3630

> <Gold.Chemscore.Internal_Hbond>
0.0000

> <Gold.Chemscore.DEClash>
1.6345

> <Gold.Chemscore.DEInternal>
0.6450

> <Gold.Chemscore.Rot>
1.9035

> <Gold.Chemscore.Internal.Correction>
   9.000000E+99

> <Gold.Chemscore.Hbonds>
donor molecule, donor type, donor heavy atom, donor atom, acceptor molecule, acceptor atom, score
      L1  H     6    28       P1  7957  0.79
      L1  H     6    43       P1  7948  0.98
      L1  H     9    32       P1 10171  0.36
      P1  H  7954  7966       L1     9  0.41

> <Gold.Chemscore.Hbond.Weighted>
-10.3258

> <Gold.Chemscore.Metal.Weighted>
-0.0000

> <Gold.Chemscore.Lipo.Weighted>
-11.1575

> <Gold.Chemscore.Internal_Hbond.Weighted>
0.0000

> <Gold.Chemscore.DEClash.Weighted>
1.6345

> <Gold.Chemscore.DEInternal.Weighted>
0.6450

> <Gold.Chemscore.Rot.Weighted>
4.8729

> <Gold.Chemscore.Internal.Correction.Weighted>
   9.000000E+99

> <Gold.Protein.RotatedTorsions>
[ 6907 6896 6895 6894 ] final    7.57 input  -60.11 | X-H torsion
[ 7974 7965 7964 7962 ] final  -32.05 input  175.53 | X-H torsion
[ 8008 7997 7996 7995 ] final  -32.62 input   59.86 | X-H torsion
[ 10167 10162 10161 10158 ] final    8.95 input  -65.29 | X-H torsion
[ 10718 10713 10712 10709 ] final  -23.97 input   66.30 | X-H torsion
[ 10763 10752 10751 10750 ] final   42.41 input  -60.55 | X-H torsion
[ 11005 11000 10999 10996 ] final  -48.35 input  -57.11 | X-H torsion

> <Gold.Protein.ActiveResidues>
 VAL166  LYS551  ARG553  GLY616  TRP617  ASP618  TYR619  PRO620  LYS621  CYS622 
 ASP623  PHE694  ASN695  SER759  ASP760  ASP761  ALA762  ILE779  LEU786  VAL792 
 PHE793  MET794  SER795  GLU796  ALA797  LYS798  CYS799  TRP800  GLU811  SER814 

> <Gold.Protein.RotatedAtoms>
  151.6920  135.0945  160.0235 H   0  0  0  0  0  0  0  0  0  0  0  0  # atno 6907 bound_to 6896
  152.3773  133.6494  159.6142 H   0  0  0  0  0  0  0  0  0  0  0  0  # atno 6908 bound_to 6896
  150.7719  133.9089  159.3405 H   0  0  0  0  0  0  0  0  0  0  0  0  # atno 6909 bound_to 6896
  146.1020  140.5743  142.8816 H   0  0  0  0  0  0  0  0  0  0  0  0  # atno 7974 bound_to 7965
  154.4174  140.1732  156.1757 H   0  0  0  0  0  0  0  0  0  0  0  0  # atno 8008 bound_to 7997
  155.9724  140.3384  155.6563 H   0  0  0  0  0  0  0  0  0  0  0  0  # atno 8009 bound_to 7997
  155.6608  140.0700  157.2545 H   0  0  0  0  0  0  0  0  0  0  0  0  # atno 8010 bound_to 7997
  140.6284  143.8049  150.7263 H   0  0  0  0  0  0  0  0  0  0  0  0  # atno 10167 bound_to 10162
  156.4839  130.4551  149.6795 H   0  0  0  0  0  0  0  0  0  0  0  0  # atno 10718 bound_to 10713
  152.9884  135.6132  154.2945 H   0  0  0  0  0  0  0  0  0  0  0  0  # atno 10763 bound_to 10752
  154.2669  135.2780  155.2756 H   0  0  0  0  0  0  0  0  0  0  0  0  # atno 10764 bound_to 10752
  154.5157  135.5829  153.6697 H   0  0  0  0  0  0  0  0  0  0  0  0  # atno 10765 bound_to 10752
  141.0695  133.6683  156.3428 H   0  0  0  0  0  0  0  0  0  0  0  0  # atno 11005 bound_to 11000
  144.7440  140.5020  143.6848 LP  0  0  0  0  0  0  0  0  0  0  0  0  # atno 17320 bound_to 7965
  145.5835  139.1490  143.3222 LP  0  0  0  0  0  0  0  0  0  0  0  0  # atno 17321 bound_to 7965
  140.1655  143.4239  152.2037 LP  0  0  0  0  0  0  0  0  0  0  0  0  # atno 17342 bound_to 10162
  139.5501  144.7331  151.4461 LP  0  0  0  0  0  0  0  0  0  0  0  0  # atno 17343 bound_to 10162
  156.3494  130.7424  151.2381 LP  0  0  0  0  0  0  0  0  0  0  0  0  # atno 17370 bound_to 10713
  157.7480  131.0381  150.4488 LP  0  0  0  0  0  0  0  0  0  0  0  0  # atno 17371 bound_to 10713
  140.5703  134.5847  157.5456 LP  0  0  0  0  0  0  0  0  0  0  0  0  # atno 17394 bound_to 11000
  139.9509  134.7618  156.0450 LP  0  0  0  0  0  0  0  0  0  0  0  0  # atno 17395 bound_to 11000

$$$$
