AV-unprocessed.smi:2820|AV-procd|sdf|10854|dock5
  -GOLD-   2272015293D 1   1.00000     0.00000
 Structure written by MMmdl.
 29 30  0  0  0  0  0  0  0  0  1 V2000
  149.4925  141.2092  154.7371 C   0  0  0  0  0  0  0  0  0  0  0  0
  149.8845  142.2997  155.6144 N   0  0  0  0  0  0  0  0  0  0  0  0
  150.5339  142.0474  156.8312 C   0  0  0  0  0  0  0  0  0  0  0  0
  150.8826  140.7494  157.2711 C   0  0  0  0  0  0  0  0  0  0  0  0
  151.5345  140.6002  158.5104 C   0  0  0  0  0  0  0  0  0  0  0  0
  151.8177  141.7523  159.2727 C   0  0  0  0  0  0  0  0  0  0  0  0
  152.4687  141.6093  160.5062 N   0  0  0  0  0  0  0  0  0  0  0  0
  153.7038  140.8395  160.4234 C   0  0  0  0  0  0  0  0  0  0  0  0
  154.2843  140.6229  161.8316 C   0  0  0  0  0  0  0  0  0  0  0  0
  154.4733  141.8827  162.4701 O   0  0  0  0  0  0  0  0  0  0  0  0
  153.2503  142.6002  162.6114 C   0  0  0  0  0  0  0  0  0  0  0  0
  152.6453  142.8669  161.2222 C   0  0  0  0  0  0  0  0  0  0  0  0
  151.4873  142.9984  158.8591 N   0  0  0  0  0  0  0  0  0  0  0  0
  150.8630  143.1330  157.6700 C   0  0  0  0  0  0  0  0  0  0  0  0
  149.0026  141.6068  153.8483 H   0  0  0  0  0  0  0  0  0  0  0  0
  148.7936  140.5394  155.2389 H   0  0  0  0  0  0  0  0  0  0  0  0
  150.3634  140.6364  154.4170 H   0  0  0  0  0  0  0  0  0  0  0  0
  149.6789  143.2495  155.3386 H   0  0  0  0  0  0  0  0  0  0  0  0
  150.6619  139.8721  156.6813 H   0  0  0  0  0  0  0  0  0  0  0  0
  151.8110  139.6188  158.8671 H   0  0  0  0  0  0  0  0  0  0  0  0
  153.5100  139.8786  159.9451 H   0  0  0  0  0  0  0  0  0  0  0  0
  154.4281  141.3694  159.8031 H   0  0  0  0  0  0  0  0  0  0  0  0
  153.6246  139.9947  162.4320 H   0  0  0  0  0  0  0  0  0  0  0  0
  155.2435  140.1091  161.7683 H   0  0  0  0  0  0  0  0  0  0  0  0
  152.5561  142.0365  163.2365 H   0  0  0  0  0  0  0  0  0  0  0  0
  153.4478  143.5421  163.1231 H   0  0  0  0  0  0  0  0  0  0  0  0
  153.3028  143.5266  160.6544 H   0  0  0  0  0  0  0  0  0  0  0  0
  151.6850  143.3742  161.3217 H   0  0  0  0  0  0  0  0  0  0  0  0
  150.6185  144.1445  157.3797 H   0  0  0  0  0  0  0  0  0  0  0  0
  1  2  1  0  0  0  0
  1 15  1  0  0  0  0
  1 16  1  0  0  0  0
  1 17  1  0  0  0  0
  2  3  1  0  0  0  0
  2 18  1  0  0  0  0
  3 14  1  0  0  0  0
  3  4  2  0  0  0  0
  4  5  1  0  0  0  0
  4 19  1  0  0  0  0
  5  6  2  0  0  0  0
  5 20  1  0  0  0  0
  6  7  1  0  0  0  0
  6 13  1  0  0  0  0
  7 12  1  0  0  0  0
  7  8  1  0  0  0  0
  8  9  1  0  0  0  0
  8 21  1  0  0  0  0
  8 22  1  0  0  0  0
  9 10  1  0  0  0  0
  9 23  1  0  0  0  0
  9 24  1  0  0  0  0
 10 11  1  0  0  0  0
 11 12  1  0  0  0  0
 11 25  1  0  0  0  0
 11 26  1  0  0  0  0
 12 27  1  0  0  0  0
 12 28  1  0  0  0  0
 13 14  2  0  0  0  0
 14 29  1  0  0  0  0
M  END
> <s_m_source_file>
AV-unprocessed.smi

> <i_m_source_file_index>
2820

> <i_lp_mmshare_version>
43012

> <i_f3d_flags>
0

> <s_epik_input>
W0NIM11bTkhdYzFbY0hdW2NIXWMobltjSF0xKU4yW0NIMl1bQ0gyXU9bQ0gyXVtDSDJdMg==

> <s_epik_cmdline>
J2VwaWtfcHl0aG9uJywgJy1waCcsICc3LjAnLCAnLXRuJywgJzgnLCAnLW1hJywgJzIwMCcsICctbWV0YWxfYmluZGluZycsICctaW1hZScsICc8aW5maWxlLm1hZT4nLCAnLW9tYWUnLCAnPG91dGZpbGUubWFlPic=

> <r_lp_tautomer_probability>
1

> <r_epik_Ionization_Penalty>
0.0411205

> <r_epik_Ionization_Penalty_Charging>
0

> <r_epik_Ionization_Penalty_Neutral>
0.0411205

> <r_epik_State_Penalty>
0.0346301

> <r_epik_Charging_Adjusted_Penalty>
0.0346301

> <i_epik_Tot_Q>
0

> <i_epik_Tot_abs_Q>
0

> <r_epik_Metal_State_Penalty>
3.56611e-05

> <b_epik_Metal_Only>
0

> <s_lp_Force_Field>
OPLS_2005

> <r_lp_Energy>
22.0638

> <b_lp_Chiralities_Consistent>
1

> <s_lp_Variant>
AV-unprocessed.smi:2820-1

> <Gold.Version>
5.8.1

> <Gold.Id.Protein>
6NUR|6NUR_protein|mol2

> <Gold.PLP.Fitness>
36.2171

> <Gold.PLP.PLP>
-30.5291

> <Gold.PLP.part.hbond>
-2.0000

> <Gold.PLP.part.metal>
0.0000

> <Gold.PLP.part.buried>
-2.1588

> <Gold.PLP.part.nonpolar>
-25.8466

> <Gold.PLP.part.repulsive>
0.2066

> <Gold.PLP.ligand.clash>
0.0000

> <Gold.PLP.ligand.torsion>
0.0579

> <Gold.PLP.Chemscore.Hbond>
1.0000

> <Gold.PLP.Chemscore.CHOScore>
0.9015

> <Gold.PLP.Chemscore.Metal>
0.0000

> <Gold.Chemscore.Hbonds>
donor molecule, donor type, donor heavy atom, donor atom, acceptor molecule, acceptor atom, score
      L1  H     2    18       P1  8028  0.99
      L1  C    14    29       P1  8028  0.90

> <Gold.PLP.Chemscore.Internal.Correction>
0.0992

> <Gold.Rescore>
     Score         DG    S(hbond)    S(metal)    S(lipo)     H(rot)  DE(clash)    DE(int)     intcor
     14.30     -14.45       0.99        0.00      70.13       1.00       0.09       0.06       ----

> <Gold.Chemscore.Fitness>
14.3041

> <Gold.Chemscore.DG>
-14.4471

> <Gold.Chemscore.ZeroCoef>
-5.4800

> <Gold.Chemscore.Hbond>
0.9947

> <Gold.Chemscore.Metal>
0.0000

> <Gold.Chemscore.Lipo>
70.1258

> <Gold.Chemscore.Internal_Hbond>
0.0000

> <Gold.Chemscore.DEClash>
0.0862

> <Gold.Chemscore.DEInternal>
0.0568

> <Gold.Chemscore.Rot>
1.0000

> <Gold.Chemscore.Internal.Correction>
   9.000000E+99

> <Gold.Chemscore.Hbonds>
donor molecule, donor type, donor heavy atom, donor atom, acceptor molecule, acceptor atom, score
      L1  H     2    18       P1  8028  0.94

> <Gold.Chemscore.Hbond.Weighted>
-3.3224

> <Gold.Chemscore.Metal.Weighted>
-0.0000

> <Gold.Chemscore.Lipo.Weighted>
-8.2047

> <Gold.Chemscore.Internal_Hbond.Weighted>
0.0000

> <Gold.Chemscore.DEClash.Weighted>
0.0862

> <Gold.Chemscore.DEInternal.Weighted>
0.0568

> <Gold.Chemscore.Rot.Weighted>
2.5600

> <Gold.Chemscore.Internal.Correction.Weighted>
   9.000000E+99

> <Gold.Protein.RotatedTorsions>
[ 6907 6896 6895 6894 ] final  -47.28 input  -60.11 | X-H torsion
[ 7974 7965 7964 7962 ] final -178.19 input  175.53 | X-H torsion
[ 8008 7997 7996 7995 ] final   22.97 input   59.86 | X-H torsion
[ 10167 10162 10161 10158 ] final -169.88 input  -65.29 | X-H torsion
[ 10718 10713 10712 10709 ] final  -58.69 input   66.30 | X-H torsion
[ 10763 10752 10751 10750 ] final   -7.53 input  -60.55 | X-H torsion
[ 11005 11000 10999 10996 ] final   79.65 input  -57.11 | X-H torsion

> <Gold.Protein.ActiveResidues>
 VAL166  LYS551  ARG553  GLY616  TRP617  ASP618  TYR619  PRO620  LYS621  CYS622 
 ASP623  PHE694  ASN695  SER759  ASP760  ASP761  ALA762  ILE779  LEU786  VAL792 
 PHE793  MET794  SER795  GLU796  ALA797  LYS798  CYS799  TRP800  GLU811  SER814 

> <Gold.Protein.RotatedAtoms>
  150.9024  134.8437  159.7368 H   0  0  0  0  0  0  0  0  0  0  0  0  # atno 6907 bound_to 6896
  152.4900  134.4482  159.9576 H   0  0  0  0  0  0  0  0  0  0  0  0  # atno 6908 bound_to 6896
  151.4533  133.3572  159.2833 H   0  0  0  0  0  0  0  0  0  0  0  0  # atno 6909 bound_to 6896
  144.7130  140.0905  143.6421 H   0  0  0  0  0  0  0  0  0  0  0  0  # atno 7974 bound_to 7965
  154.9738  140.3093  155.4976 H   0  0  0  0  0  0  0  0  0  0  0  0  # atno 8008 bound_to 7997
  156.2962  140.2279  156.4771 H   0  0  0  0  0  0  0  0  0  0  0  0  # atno 8009 bound_to 7997
  154.7852  140.0443  157.1147 H   0  0  0  0  0  0  0  0  0  0  0  0  # atno 8010 bound_to 7997
  139.5895  144.1243  152.1617 H   0  0  0  0  0  0  0  0  0  0  0  0  # atno 10167 bound_to 10162
  156.1116  130.4174  150.0612 H   0  0  0  0  0  0  0  0  0  0  0  0  # atno 10718 bound_to 10713
  153.4277  135.7011  153.6252 H   0  0  0  0  0  0  0  0  0  0  0  0  # atno 10763 bound_to 10752
  153.4680  135.3721  155.2375 H   0  0  0  0  0  0  0  0  0  0  0  0  # atno 10764 bound_to 10752
  154.8724  135.4036  154.3655 H   0  0  0  0  0  0  0  0  0  0  0  0  # atno 10765 bound_to 10752
  139.9164  134.7859  156.1807 H   0  0  0  0  0  0  0  0  0  0  0  0  # atno 11005 bound_to 11000
  145.9624  139.2810  143.1148 LP  0  0  0  0  0  0  0  0  0  0  0  0  # atno 17320 bound_to 7965
  145.9206  140.9118  143.0407 LP  0  0  0  0  0  0  0  0  0  0  0  0  # atno 17321 bound_to 7965
  140.0815  144.5697  150.7119 LP  0  0  0  0  0  0  0  0  0  0  0  0  # atno 17342 bound_to 10162
  140.7161  143.2546  151.4429 LP  0  0  0  0  0  0  0  0  0  0  0  0  # atno 17343 bound_to 10162
  156.8573  130.9479  151.3621 LP  0  0  0  0  0  0  0  0  0  0  0  0  # atno 17370 bound_to 10713
  157.6298  130.8720  149.9253 LP  0  0  0  0  0  0  0  0  0  0  0  0  # atno 17371 bound_to 10713
  141.0644  133.6826  156.2016 LP  0  0  0  0  0  0  0  0  0  0  0  0  # atno 17394 bound_to 11000
  140.6609  134.4969  157.5583 LP  0  0  0  0  0  0  0  0  0  0  0  0  # atno 17395 bound_to 11000

$$$$
