AV-unprocessed.smi:3181|AV-procd|sdf|12143|dock4
  -GOLD-   2272017583D 1   1.00000     0.00000
 Structure written by MMmdl.
 42 43  0  0  0  0  0  0  0  0  2 V2000
  149.2172  141.1572  156.9561 C   0  0  0  0  0  0  0  0  0  0  0  0
  150.5433  141.5297  156.2724 C   0  0  2  0  0  0  0  0  0  0  0  0
  151.6353  140.4562  156.4868 C   0  0  0  0  0  0  0  0  0  0  0  0
  151.5794  139.3898  155.5042 N   0  0  0  0  0  0  0  0  0  0  0  0
  152.2491  138.2382  155.4300 C   0  0  0  0  0  0  0  0  0  0  0  0
  151.9370  137.5060  154.3702 N   0  0  0  0  0  0  0  0  0  0  0  0
  151.0118  138.3266  153.7891 C   0  0  0  0  0  0  0  0  0  0  0  0
  150.7627  139.4700  154.4278 N   0  0  0  0  0  0  0  0  0  0  0  0
  150.9950  142.8494  156.7721 N   0  3  0  0  0  0  0  0  0  0  0  0
  151.0833  143.0013  158.2432 C   0  0  2  0  0  0  0  0  0  0  0  0
  151.1737  144.4920  158.6034 C   0  0  0  0  0  0  0  0  0  0  0  0
  151.2879  144.6898  160.1209 C   0  0  0  0  0  0  0  0  0  0  0  0
  152.5001  143.9414  160.7112 C   0  0  1  0  0  0  0  0  0  0  0  0
  152.5744  144.1840  162.2292 C   0  0  0  0  0  0  0  0  0  0  0  0
  152.4452  142.4359  160.3396 C   0  0  2  0  0  0  0  0  0  0  0  0
  153.6667  141.6491  160.8480 C   0  0  0  0  0  0  0  0  0  0  0  0
  152.3049  142.2530  158.8135 C   0  0  0  0  0  0  0  0  0  0  0  0
  148.8025  140.2331  156.5525 H   0  0  0  0  0  0  0  0  0  0  0  0
  148.4681  141.9358  156.8080 H   0  0  0  0  0  0  0  0  0  0  0  0
  149.3480  141.0219  158.0304 H   0  0  0  0  0  0  0  0  0  0  0  0
  150.3383  141.6137  155.2053 H   0  0  0  0  0  0  0  0  0  0  0  0
  152.6325  140.8942  156.4418 H   0  0  0  0  0  0  0  0  0  0  0  0
  151.5365  140.0127  157.4786 H   0  0  0  0  0  0  0  0  0  0  0  0
  152.9756  137.9268  156.1665 H   0  0  0  0  0  0  0  0  0  0  0  0
  150.5072  138.0739  152.8682 H   0  0  0  0  0  0  0  0  0  0  0  0
  151.9123  143.0384  156.3936 H   0  0  0  0  0  0  0  0  0  0  0  0
  150.1774  142.6012  158.6988 H   0  0  0  0  0  0  0  0  0  0  0  0
  152.0364  144.9449  158.1123 H   0  0  0  0  0  0  0  0  0  0  0  0
  150.2940  145.0201  158.2329 H   0  0  0  0  0  0  0  0  0  0  0  0
  151.3653  145.7553  160.3403 H   0  0  0  0  0  0  0  0  0  0  0  0
  150.3713  144.3443  160.6014 H   0  0  0  0  0  0  0  0  0  0  0  0
  153.4008  144.3680  160.2669 H   0  0  0  0  0  0  0  0  0  0  0  0
  151.7347  143.7198  162.7472 H   0  0  0  0  0  0  0  0  0  0  0  0
  152.5537  145.2504  162.4554 H   0  0  0  0  0  0  0  0  0  0  0  0
  153.4944  143.7892  162.6592 H   0  0  0  0  0  0  0  0  0  0  0  0
  151.5594  142.0028  160.8070 H   0  0  0  0  0  0  0  0  0  0  0  0
  154.5977  142.0779  160.4760 H   0  0  0  0  0  0  0  0  0  0  0  0
  153.6268  140.6099  160.5202 H   0  0  0  0  0  0  0  0  0  0  0  0
  153.7149  141.6338  161.9364 H   0  0  0  0  0  0  0  0  0  0  0  0
  152.2318  141.1886  158.5901 H   0  0  0  0  0  0  0  0  0  0  0  0
  153.2122  142.6059  158.3203 H   0  0  0  0  0  0  0  0  0  0  0  0
  150.3564  143.5458  156.4149 H   0  0  0  0  0  0  0  0  0  0  0  0
  1  2  1  0  0  0  0
  1 18  1  0  0  0  0
  1 19  1  0  0  0  0
  1 20  1  0  0  0  0
  2  3  1  0  0  0  0
  2  9  1  0  0  0  0
  2 21  1  0  0  0  0
  3  4  1  0  0  0  0
  3 22  1  0  0  0  0
  3 23  1  0  0  0  0
  4  8  1  0  0  0  0
  4  5  1  0  0  0  0
  5  6  2  0  0  0  0
  5 24  1  0  0  0  0
  6  7  1  0  0  0  0
  7  8  2  0  0  0  0
  7 25  1  0  0  0  0
  9 10  1  0  0  0  0
  9 26  1  0  0  0  0
  9 42  1  0  0  0  0
 10 17  1  0  0  0  0
 10 11  1  0  0  0  0
 10 27  1  0  0  0  0
 11 12  1  0  0  0  0
 11 28  1  0  0  0  0
 11 29  1  0  0  0  0
 12 13  1  0  0  0  0
 12 30  1  0  0  0  0
 12 31  1  0  0  0  0
 13 14  1  0  0  0  0
 13 15  1  0  0  0  0
 13 32  1  0  0  0  0
 14 33  1  0  0  0  0
 14 34  1  0  0  0  0
 14 35  1  0  0  0  0
 15 16  1  0  0  0  0
 15 17  1  0  0  0  0
 15 36  1  0  0  0  0
 16 37  1  0  0  0  0
 16 38  1  0  0  0  0
 16 39  1  0  0  0  0
 17 40  1  0  0  0  0
 17 41  1  0  0  0  0
M  CHG  1   9   1
M  END
> <s_m_source_file>
AV-unprocessed.smi

> <i_m_source_file_index>
3181

> <i_lp_mmshare_version>
43012

> <i_f3d_flags>
0

> <s_epik_input>
bjFbY0hdbltjSF1uMVtDSDJdW0NAQEhdKFtDSDNdKVtOSF1bQ0BASF0yW0NIMl1bQ0gyXVtDQEBIXShbQ0gzXSlbQ0BASF0oW0NIM10pW0NIMl0y

> <s_epik_cmdline>
J2VwaWtfcHl0aG9uJywgJy1waCcsICc3LjAnLCAnLXRuJywgJzgnLCAnLW1hJywgJzIwMCcsICctbWV0YWxfYmluZGluZycsICctaW1hZScsICc8aW5maWxlLm1hZT4nLCAnLW9tYWUnLCAnPG91dGZpbGUubWFlPic=

> <r_lp_tautomer_probability>
1

> <r_epik_Ionization_Penalty>
0.000617007

> <r_epik_Ionization_Penalty_Charging>
0.000616215

> <r_epik_Ionization_Penalty_Neutral>
7.92544e-07

> <r_epik_State_Penalty>
0.000388807

> <r_epik_Charging_Adjusted_Penalty>
0.00100502

> <i_epik_Tot_Q>
1

> <i_epik_Tot_abs_Q>
1

> <r_epik_Metal_State_Penalty>
-0

> <b_epik_Metal_Only>
0

> <s_lp_Force_Field>
OPLS_2005

> <r_lp_Energy>
18.1842

> <b_lp_Chiralities_Consistent>
1

> <s_lp_Variant>
AV-unprocessed.smi:3181-9

> <Gold.Version>
5.8.1

> <Gold.Id.Protein>
6NUR|6NUR_protein|mol2

> <Gold.PLP.Fitness>
55.1530

> <Gold.PLP.PLP>
-41.2640

> <Gold.PLP.part.hbond>
-3.0000

> <Gold.PLP.part.metal>
0.0000

> <Gold.PLP.part.buried>
-6.4579

> <Gold.PLP.part.nonpolar>
-33.0101

> <Gold.PLP.part.repulsive>
0.3325

> <Gold.PLP.ligand.clash>
0.0000

> <Gold.PLP.ligand.torsion>
0.5393

> <Gold.PLP.Chemscore.Hbond>
3.8003

> <Gold.PLP.Chemscore.CHOScore>
1.1810

> <Gold.PLP.Chemscore.Metal>
0.0000

> <Gold.Chemscore.Hbonds>
donor molecule, donor type, donor heavy atom, donor atom, acceptor molecule, acceptor atom, score
      L1  H     9    42       P1  8028  2.00
      P1  H  7989  7998       L1     8  0.95
      P1  H 10752 10765       L1     6  0.77
      L1  C     7    25       P1  7948  0.54
      L1  C     7    25       P1  7949  0.38
      L1  C     7    25       P1  7957  0.29

> <Gold.PLP.Chemscore.Internal.Correction>
0.0238

> <Gold.Rescore>
     Score         DG    S(hbond)    S(metal)    S(lipo)     H(rot)  DE(clash)    DE(int)     intcor
     18.88     -21.21       2.63        0.00     105.35       2.11       0.54       1.79       ----

> <Gold.Chemscore.Fitness>
18.8792

> <Gold.Chemscore.DG>
-21.2053

> <Gold.Chemscore.ZeroCoef>
-5.4800

> <Gold.Chemscore.Hbond>
2.6346

> <Gold.Chemscore.Metal>
0.0000

> <Gold.Chemscore.Lipo>
105.3506

> <Gold.Chemscore.Internal_Hbond>
0.0000

> <Gold.Chemscore.DEClash>
0.5410

> <Gold.Chemscore.DEInternal>
1.7851

> <Gold.Chemscore.Rot>
2.1095

> <Gold.Chemscore.Internal.Correction>
   9.000000E+99

> <Gold.Chemscore.Hbonds>
donor molecule, donor type, donor heavy atom, donor atom, acceptor molecule, acceptor atom, score
      L1  H     9    42       P1  8028  0.94
      P1  H  7989  7998       L1     8  0.14
      P1  H 10752 10765       L1     6  0.63

> <Gold.Chemscore.Hbond.Weighted>
-8.7996

> <Gold.Chemscore.Metal.Weighted>
-0.0000

> <Gold.Chemscore.Lipo.Weighted>
-12.3260

> <Gold.Chemscore.Internal_Hbond.Weighted>
0.0000

> <Gold.Chemscore.DEClash.Weighted>
0.5410

> <Gold.Chemscore.DEInternal.Weighted>
1.7851

> <Gold.Chemscore.Rot.Weighted>
5.4003

> <Gold.Chemscore.Internal.Correction.Weighted>
   9.000000E+99

> <Gold.Protein.RotatedTorsions>
[ 6907 6896 6895 6894 ] final  -11.69 input  -60.11 | X-H torsion
[ 7974 7965 7964 7962 ] final -155.51 input  175.53 | X-H torsion
[ 8008 7997 7996 7995 ] final  137.65 input   59.86 | X-H torsion
[ 10167 10162 10161 10158 ] final   -0.31 input  -65.29 | X-H torsion
[ 10718 10713 10712 10709 ] final  -47.17 input   66.30 | X-H torsion
[ 10763 10752 10751 10750 ] final  161.85 input  -60.55 | X-H torsion
[ 11005 11000 10999 10996 ] final  -67.66 input  -57.11 | X-H torsion

> <Gold.Protein.ActiveResidues>
 VAL166  LYS551  ARG553  GLY616  TRP617  ASP618  TYR619  PRO620  LYS621  CYS622 
 ASP623  PHE694  ASN695  SER759  ASP760  ASP761  ALA762  ILE779  LEU786  VAL792 
 PHE793  MET794  SER795  GLU796  ALA797  LYS798  CYS799  TRP800  GLU811  SER814 

> <Gold.Protein.RotatedAtoms>
  151.3823  135.0942  159.9499 H   0  0  0  0  0  0  0  0  0  0  0  0  # atno 6907 bound_to 6896
  152.5104  133.9060  159.7475 H   0  0  0  0  0  0  0  0  0  0  0  0  # atno 6908 bound_to 6896
  150.9496  133.6509  159.2803 H   0  0  0  0  0  0  0  0  0  0  0  0  # atno 6909 bound_to 6896
  144.7637  140.4239  143.5958 H   0  0  0  0  0  0  0  0  0  0  0  0  # atno 7974 bound_to 7965
  156.3001  140.2414  156.3945 H   0  0  0  0  0  0  0  0  0  0  0  0  # atno 8008 bound_to 7997
  154.8584  140.0421  157.1669 H   0  0  0  0  0  0  0  0  0  0  0  0  # atno 8009 bound_to 7997
  154.8923  140.2965  155.5367 H   0  0  0  0  0  0  0  0  0  0  0  0  # atno 8010 bound_to 7997
  140.6762  143.6909  150.8028 H   0  0  0  0  0  0  0  0  0  0  0  0  # atno 10167 bound_to 10162
  156.2110  130.4161  149.9114 H   0  0  0  0  0  0  0  0  0  0  0  0  # atno 10718 bound_to 10713
  154.2693  135.2766  155.2745 H   0  0  0  0  0  0  0  0  0  0  0  0  # atno 10763 bound_to 10752
  154.5316  135.5728  153.6767 H   0  0  0  0  0  0  0  0  0  0  0  0  # atno 10764 bound_to 10752
  152.9948  135.6229  154.2846 H   0  0  0  0  0  0  0  0  0  0  0  0  # atno 10765 bound_to 10752
  141.1513  133.6724  156.6327 H   0  0  0  0  0  0  0  0  0  0  0  0  # atno 11005 bound_to 11000
  145.6539  139.1569  143.2846 LP  0  0  0  0  0  0  0  0  0  0  0  0  # atno 17320 bound_to 7965
  146.1724  140.6625  142.9227 LP  0  0  0  0  0  0  0  0  0  0  0  0  # atno 17321 bound_to 7965
  140.0602  143.5162  152.2631 LP  0  0  0  0  0  0  0  0  0  0  0  0  # atno 17342 bound_to 10162
  139.6056  144.7595  151.3070 LP  0  0  0  0  0  0  0  0  0  0  0  0  # atno 17343 bound_to 10162
  156.6792  130.8851  151.3573 LP  0  0  0  0  0  0  0  0  0  0  0  0  # atno 17370 bound_to 10713
  157.7038  130.9363  150.0868 LP  0  0  0  0  0  0  0  0  0  0  0  0  # atno 17371 bound_to 10713
  140.3454  134.7813  157.4428 LP  0  0  0  0  0  0  0  0  0  0  0  0  # atno 17394 bound_to 11000
  140.0903  134.5609  155.8450 LP  0  0  0  0  0  0  0  0  0  0  0  0  # atno 17395 bound_to 11000

$$$$
