AV-unprocessed.smi:1046|AV-procd|sdf|4557|dock3
  -GOLD-   22720 2593D 1   1.00000     0.00000
 Structure written by MMmdl.
 54 56  0  0  0  0  0  0  0  0  3 V2000
  152.2146  144.0784  159.5045 C   0  0  0  0  0  0  0  0  0  0  0  0
  151.9630  142.8359  158.6685 C   0  0  0  0  0  0  0  0  0  0  0  0
  151.1523  142.9359  157.5154 C   0  0  0  0  0  0  0  0  0  0  0  0
  150.8946  141.8047  156.7110 C   0  0  0  0  0  0  0  0  0  0  0  0
  150.1372  141.6735  155.5599 N   0  0  0  0  0  0  0  0  0  0  0  0
  150.2847  140.3809  155.2865 C   0  0  0  0  0  0  0  0  0  0  0  0
  151.0403  139.6545  156.1325 N   0  0  0  0  0  0  0  0  0  0  0  0
  151.3259  138.2342  156.0447 C   0  0  0  0  0  0  0  0  0  0  0  0
  150.3004  137.4823  155.1740 C   0  0  1  0  0  0  0  0  0  0  0  0
  150.5841  137.7736  153.8205 O   0  0  0  0  0  0  0  0  0  0  0  0
  150.3272  135.9498  155.3681 C   0  0  0  0  0  0  0  0  0  0  0  0
  149.2007  135.2699  154.6791 N   0  3  2  0  0  0  0  0  0  0  0  0
  147.8649  135.7076  155.1611 C   0  0  0  0  0  0  0  0  0  0  0  0
  146.7380  135.0351  154.3550 C   0  0  0  0  0  0  0  0  0  0  0  0
  146.8443  133.5551  154.3875 N   0  3  2  0  0  0  0  0  0  0  0  0
  146.3860  132.9536  155.6692 C   0  0  0  0  0  0  0  0  0  0  0  0
  145.1551  133.6714  156.2486 C   0  0  0  0  0  0  0  0  0  0  0  0
  144.3401  132.7468  156.9370 O   0  0  0  0  0  0  0  0  0  0  0  0
  148.1866  133.1071  153.9325 C   0  0  0  0  0  0  0  0  0  0  0  0
  149.3275  133.7913  154.7142 C   0  0  0  0  0  0  0  0  0  0  0  0
  151.4753  140.5604  157.0943 C   0  0  0  0  0  0  0  0  0  0  0  0
  152.2840  140.4481  158.2393 C   0  0  0  0  0  0  0  0  0  0  0  0
  152.5309  141.5883  159.0320 C   0  0  0  0  0  0  0  0  0  0  0  0
  153.4068  141.4581  160.2655 C   0  0  0  0  0  0  0  0  0  0  0  0
  151.7174  144.9514  159.0805 H   0  0  0  0  0  0  0  0  0  0  0  0
  153.2819  144.2943  159.5568 H   0  0  0  0  0  0  0  0  0  0  0  0
  151.8389  143.9395  160.5184 H   0  0  0  0  0  0  0  0  0  0  0  0
  150.7204  143.8865  157.2381 H   0  0  0  0  0  0  0  0  0  0  0  0
  149.8094  139.9337  154.4256 H   0  0  0  0  0  0  0  0  0  0  0  0
  152.3301  138.1147  155.6350 H   0  0  0  0  0  0  0  0  0  0  0  0
  151.3509  137.8202  157.0536 H   0  0  0  0  0  0  0  0  0  0  0  0
  149.3101  137.8769  155.3986 H   0  0  0  0  0  0  0  0  0  0  0  0
  149.8650  137.4703  153.2866 H   0  0  0  0  0  0  0  0  0  0  0  0
  151.2786  135.5714  154.9903 H   0  0  0  0  0  0  0  0  0  0  0  0
  150.2960  135.6838  156.4251 H   0  0  0  0  0  0  0  0  0  0  0  0
  147.7628  135.4733  156.2219 H   0  0  0  0  0  0  0  0  0  0  0  0
  147.7649  136.7885  155.0703 H   0  0  0  0  0  0  0  0  0  0  0  0
  145.7604  135.3556  154.7171 H   0  0  0  0  0  0  0  0  0  0  0  0
  146.7953  135.3598  153.3152 H   0  0  0  0  0  0  0  0  0  0  0  0
  146.1727  131.8933  155.5352 H   0  0  0  0  0  0  0  0  0  0  0  0
  147.1874  133.0067  156.4077 H   0  0  0  0  0  0  0  0  0  0  0  0
  145.4286  134.4891  156.9147 H   0  0  0  0  0  0  0  0  0  0  0  0
  144.5682  134.1080  155.4399 H   0  0  0  0  0  0  0  0  0  0  0  0
  143.8213  132.2711  156.3050 H   0  0  0  0  0  0  0  0  0  0  0  0
  148.2796  132.0235  153.9950 H   0  0  0  0  0  0  0  0  0  0  0  0
  148.2814  133.3542  152.8742 H   0  0  0  0  0  0  0  0  0  0  0  0
  150.2829  133.4983  154.2771 H   0  0  0  0  0  0  0  0  0  0  0  0
  149.3424  133.4514  155.7505 H   0  0  0  0  0  0  0  0  0  0  0  0
  152.7128  139.4933  158.5051 H   0  0  0  0  0  0  0  0  0  0  0  0
  153.7418  140.4306  160.4093 H   0  0  0  0  0  0  0  0  0  0  0  0
  152.8588  141.7592  161.1585 H   0  0  0  0  0  0  0  0  0  0  0  0
  154.2917  142.0885  160.1729 H   0  0  0  0  0  0  0  0  0  0  0  0
  149.2674  135.5364  153.7063 H   0  0  0  0  0  0  0  0  0  0  0  0
  146.1817  133.2205  153.7013 H   0  0  0  0  0  0  0  0  0  0  0  0
  1  2  1  0  0  0  0
  1 25  1  0  0  0  0
  1 26  1  0  0  0  0
  1 27  1  0  0  0  0
  2 23  1  0  0  0  0
  2  3  2  0  0  0  0
  3  4  1  0  0  0  0
  3 28  1  0  0  0  0
  4 21  2  0  0  0  0
  4  5  1  0  0  0  0
  5  6  2  0  0  0  0
  6  7  1  0  0  0  0
  6 29  1  0  0  0  0
  7  8  1  0  0  0  0
  7 21  1  0  0  0  0
  8  9  1  0  0  0  0
  8 30  1  0  0  0  0
  8 31  1  0  0  0  0
  9 10  1  0  0  0  0
  9 11  1  0  0  0  0
  9 32  1  0  0  0  0
 10 33  1  0  0  0  0
 11 12  1  0  0  0  0
 11 34  1  0  0  0  0
 11 35  1  0  0  0  0
 12 20  1  0  0  0  0
 12 13  1  0  0  0  0
 12 53  1  0  0  0  0
 13 14  1  0  0  0  0
 13 36  1  0  0  0  0
 13 37  1  0  0  0  0
 14 15  1  0  0  0  0
 14 38  1  0  0  0  0
 14 39  1  0  0  0  0
 15 16  1  0  0  0  0
 15 19  1  0  0  0  0
 15 54  1  0  0  0  0
 16 17  1  0  0  0  0
 16 40  1  0  0  0  0
 16 41  1  0  0  0  0
 17 18  1  0  0  0  0
 17 42  1  0  0  0  0
 17 43  1  0  0  0  0
 18 44  1  0  0  0  0
 19 20  1  0  0  0  0
 19 45  1  0  0  0  0
 19 46  1  0  0  0  0
 20 47  1  0  0  0  0
 20 48  1  0  0  0  0
 21 22  1  0  0  0  0
 22 23  2  0  0  0  0
 22 49  1  0  0  0  0
 23 24  1  0  0  0  0
 24 50  1  0  0  0  0
 24 51  1  0  0  0  0
 24 52  1  0  0  0  0
M  CHG  1  12   1
M  CHG  1  15   1
M  END
> <s_m_source_file>
AV-unprocessed.smi

> <i_m_source_file_index>
1046

> <i_lp_mmshare_version>
43012

> <i_f3d_flags>
0

> <s_epik_input>
W0NIM11jKFtjSF0xKWMoW0NIM10pW2NIXWMoYzEyKW4oW2NIXW4yKVtDSDJdW0NASF0oW09IXSlbQ0gyXU4zW0NIMl1bQ0gyXU4oW0NIMl1bQ0gyXTMpW0NIMl1bQ0gyXVtPSF0=

> <s_epik_cmdline>
J2VwaWtfcHl0aG9uJywgJy1waCcsICc3LjAnLCAnLXRuJywgJzgnLCAnLW1hJywgJzIwMCcsICctbWV0YWxfYmluZGluZycsICctaW1hZScsICc8aW5maWxlLm1hZT4nLCAnLW9tYWUnLCAnPG91dGZpbGUubWFlPic=

> <r_epik_Ionization_Penalty>
3.17398

> <r_epik_Ionization_Penalty_Charging>
3.09061

> <r_epik_Ionization_Penalty_Neutral>
0.0833726

> <r_epik_State_Penalty>
2.17606

> <r_epik_Charging_Adjusted_Penalty>
5.26667

> <i_epik_Tot_Q>
2

> <i_epik_Tot_abs_Q>
2

> <r_epik_Metal_State_Penalty>
2.08587

> <b_epik_Metal_Only>
0

> <s_lp_Force_Field>
OPLS_2005

> <r_lp_Energy>
29.1343

> <b_lp_Chiralities_Consistent>
1

> <s_lp_Variant>
AV-unprocessed.smi:1046-10

> <Gold.Version>
5.8.1

> <Gold.Id.Protein>
6NUR|6NUR_protein|mol2

> <Gold.PLP.Fitness>
52.4174

> <Gold.PLP.PLP>
-41.8511

> <Gold.PLP.part.hbond>
-4.4153

> <Gold.PLP.part.metal>
0.0000

> <Gold.PLP.part.buried>
-3.1708

> <Gold.PLP.part.nonpolar>
-34.8189

> <Gold.PLP.part.repulsive>
0.1406

> <Gold.PLP.ligand.clash>
0.0000

> <Gold.PLP.ligand.torsion>
0.8263

> <Gold.PLP.Chemscore.Hbond>
3.9913

> <Gold.PLP.Chemscore.CHOScore>
0.0000

> <Gold.PLP.Chemscore.Metal>
0.0000

> <Gold.Chemscore.Hbonds>
donor molecule, donor type, donor heavy atom, donor atom, acceptor molecule, acceptor atom, score
      L1  H    10    33       P1  7948  0.94
      L1  H    12    53       P1  7948  2.00
      L1  H    18    44       P1 10957  1.00

> <Gold.PLP.Chemscore.Internal.Correction>
0.2450

> <Gold.Rescore>
     Score         DG    S(hbond)    S(metal)    S(lipo)     H(rot)  DE(clash)    DE(int)     intcor
     16.08     -17.87       2.63        0.00     102.70       3.28       0.09       1.70       ----

> <Gold.Chemscore.Fitness>
16.0819

> <Gold.Chemscore.DG>
-17.8709

> <Gold.Chemscore.ZeroCoef>
-5.4800

> <Gold.Chemscore.Hbond>
2.6284

> <Gold.Chemscore.Metal>
0.0000

> <Gold.Chemscore.Lipo>
102.7005

> <Gold.Chemscore.Internal_Hbond>
0.0000

> <Gold.Chemscore.DEClash>
0.0920

> <Gold.Chemscore.DEInternal>
1.6969

> <Gold.Chemscore.Rot>
3.2828

> <Gold.Chemscore.Internal.Correction>
   9.000000E+99

> <Gold.Chemscore.Hbonds>
donor molecule, donor type, donor heavy atom, donor atom, acceptor molecule, acceptor atom, score
      L1  H    10    33       P1  7948  0.44
      L1  H    12    53       P1  7948  0.49
      L1  H    18    44       P1 10957  0.99

> <Gold.Chemscore.Hbond.Weighted>
-8.7788

> <Gold.Chemscore.Metal.Weighted>
-0.0000

> <Gold.Chemscore.Lipo.Weighted>
-12.0160

> <Gold.Chemscore.Internal_Hbond.Weighted>
0.0000

> <Gold.Chemscore.DEClash.Weighted>
0.0920

> <Gold.Chemscore.DEInternal.Weighted>
1.6969

> <Gold.Chemscore.Rot.Weighted>
8.4039

> <Gold.Chemscore.Internal.Correction.Weighted>
   9.000000E+99

> <Gold.Protein.RotatedTorsions>
[ 6907 6896 6895 6894 ] final   87.33 input  -60.11 | X-H torsion
[ 7974 7965 7964 7962 ] final  -11.45 input  175.53 | X-H torsion
[ 8008 7997 7996 7995 ] final  -97.60 input   59.86 | X-H torsion
[ 10167 10162 10161 10158 ] final  131.25 input  -65.29 | X-H torsion
[ 10718 10713 10712 10709 ] final -125.96 input   66.30 | X-H torsion
[ 10763 10752 10751 10750 ] final  -55.52 input  -60.55 | X-H torsion
[ 11005 11000 10999 10996 ] final -113.15 input  -57.11 | X-H torsion

> <Gold.Protein.ActiveResidues>
 VAL166  LYS551  ARG553  GLY616  TRP617  ASP618  TYR619  PRO620  LYS621  CYS622 
 ASP623  PHE694  ASN695  SER759  ASP760  ASP761  ALA762  ILE779  LEU786  VAL792 
 PHE793  MET794  SER795  GLU796  ALA797  LYS798  CYS799  TRP800  GLU811  SER814 

> <Gold.Protein.RotatedAtoms>
  152.5409  134.2293  159.8818 H   0  0  0  0  0  0  0  0  0  0  0  0  # atno 6907 bound_to 6896
  151.2266  133.4466  159.2610 H   0  0  0  0  0  0  0  0  0  0  0  0  # atno 6908 bound_to 6896
  151.0755  134.9839  159.8386 H   0  0  0  0  0  0  0  0  0  0  0  0  # atno 6909 bound_to 6896
  146.2187  140.2912  142.8368 H   0  0  0  0  0  0  0  0  0  0  0  0  # atno 7974 bound_to 7965
  154.7899  140.0462  157.1193 H   0  0  0  0  0  0  0  0  0  0  0  0  # atno 8008 bound_to 7997
  154.9603  140.3076  155.5014 H   0  0  0  0  0  0  0  0  0  0  0  0  # atno 8009 bound_to 7997
  156.2948  140.2272  156.4688 H   0  0  0  0  0  0  0  0  0  0  0  0  # atno 8010 bound_to 7997
  139.5392  144.6714  151.4681 H   0  0  0  0  0  0  0  0  0  0  0  0  # atno 10167 bound_to 10162
  156.1722  130.6675  151.0195 H   0  0  0  0  0  0  0  0  0  0  0  0  # atno 10718 bound_to 10713
  154.1921  135.6425  153.5063 H   0  0  0  0  0  0  0  0  0  0  0  0  # atno 10763 bound_to 10752
  153.0032  135.5431  154.6404 H   0  0  0  0  0  0  0  0  0  0  0  0  # atno 10764 bound_to 10752
  154.5796  135.2924  155.0719 H   0  0  0  0  0  0  0  0  0  0  0  0  # atno 10765 bound_to 10752
  141.0632  133.9501  157.2628 H   0  0  0  0  0  0  0  0  0  0  0  0  # atno 11005 bound_to 11000
  144.9125  140.7774  143.5798 LP  0  0  0  0  0  0  0  0  0  0  0  0  # atno 17320 bound_to 7965
  145.2844  139.1906  143.4774 LP  0  0  0  0  0  0  0  0  0  0  0  0  # atno 17321 bound_to 7965
  140.6614  143.8490  150.6892 LP  0  0  0  0  0  0  0  0  0  0  0  0  # atno 17342 bound_to 10162
  140.1885  143.4055  152.1880 LP  0  0  0  0  0  0  0  0  0  0  0  0  # atno 17343 bound_to 10162
  157.6811  131.0838  150.7368 LP  0  0  0  0  0  0  0  0  0  0  0  0  # atno 17370 bound_to 10713
  156.7426  130.4744  149.5474 LP  0  0  0  0  0  0  0  0  0  0  0  0  # atno 17371 bound_to 10713
  139.9452  135.0185  156.8830 LP  0  0  0  0  0  0  0  0  0  0  0  0  # atno 17394 bound_to 11000
  140.5826  134.0337  155.7470 LP  0  0  0  0  0  0  0  0  0  0  0  0  # atno 17395 bound_to 11000

$$$$
