AV-unprocessed.smi:1987|AV-procd|sdf|8055|dock6
  -GOLD-   2272010263D 1   1.00000     0.00000
 Structure written by MMmdl.
 37 39  0  0  0  0  0  0  0  0  2 V2000
  150.8488  135.7160  156.2935 O   0  0  0  0  0  0  0  0  0  0  0  0
  150.2031  135.9652  155.2761 C   0  0  0  0  0  0  0  0  0  0  0  0
  150.3389  137.3267  154.5959 C   0  0  0  0  0  0  0  0  0  0  0  0
  151.6109  137.9360  154.9367 N   0  0  0  0  0  0  0  0  0  0  0  0
  151.9010  139.1402  155.4341 C   0  0  0  0  0  0  0  0  0  0  0  0
  153.2075  139.3123  155.5656 N   0  0  0  0  0  0  0  0  0  0  0  0
  153.7309  138.1129  155.1116 N   0  0  0  0  0  0  0  0  0  0  0  0
  152.7885  137.2926  154.7361 N   0  0  0  0  0  0  0  0  0  0  0  0
  149.3342  135.1063  154.7208 N   0  0  0  0  0  0  0  0  0  0  0  0
  148.9561  133.8151  155.2820 C   0  0  0  0  0  0  0  0  0  0  0  0
  148.2925  132.9096  154.2259 C   0  0  1  0  0  0  0  0  0  0  0  0
  147.4966  131.7351  154.7928 C   0  0  0  0  0  0  0  0  0  0  0  0
  146.6029  131.3465  153.6185 C   0  0  0  0  0  0  0  0  0  0  0  0
  146.2599  132.6172  152.9430 N   0  3  2  0  0  0  0  0  0  0  0  0
  146.0766  132.4860  151.4817 C   0  0  0  0  0  0  0  0  0  0  0  0
  144.6951  132.8729  151.0101 C   0  0  0  0  0  0  0  0  0  0  0  0
  145.0881  131.4136  151.0903 C   0  0  0  0  0  0  0  0  0  0  0  0
  147.2694  133.6288  153.3371 C   0  0  0  0  0  0  0  0  0  0  0  0
  150.2812  137.2143  153.5125 H   0  0  0  0  0  0  0  0  0  0  0  0
  149.5244  137.9867  154.8991 H   0  0  0  0  0  0  0  0  0  0  0  0
  151.1629  139.8871  155.6868 H   0  0  0  0  0  0  0  0  0  0  0  0
  148.8555  135.3961  153.8798 H   0  0  0  0  0  0  0  0  0  0  0  0
  149.8582  133.3412  155.6700 H   0  0  0  0  0  0  0  0  0  0  0  0
  148.2900  133.9587  156.1344 H   0  0  0  0  0  0  0  0  0  0  0  0
  149.0655  132.5007  153.5728 H   0  0  0  0  0  0  0  0  0  0  0  0
  148.1303  130.9133  155.1288 H   0  0  0  0  0  0  0  0  0  0  0  0
  146.8862  132.0602  155.6367 H   0  0  0  0  0  0  0  0  0  0  0  0
  147.1622  130.7029  152.9372 H   0  0  0  0  0  0  0  0  0  0  0  0
  145.7095  130.8057  153.9316 H   0  0  0  0  0  0  0  0  0  0  0  0
  146.9487  132.6882  150.8621 H   0  0  0  0  0  0  0  0  0  0  0  0
  143.9844  133.2441  151.7464 H   0  0  0  0  0  0  0  0  0  0  0  0
  144.6080  133.3114  150.0180 H   0  0  0  0  0  0  0  0  0  0  0  0
  145.2596  130.8915  150.1511 H   0  0  0  0  0  0  0  0  0  0  0  0
  144.6380  130.8143  151.8798 H   0  0  0  0  0  0  0  0  0  0  0  0
  146.7543  134.4129  153.8931 H   0  0  0  0  0  0  0  0  0  0  0  0
  147.7502  134.0998  152.4783 H   0  0  0  0  0  0  0  0  0  0  0  0
  145.3805  132.9278  153.3307 H   0  0  0  0  0  0  0  0  0  0  0  0
  1  2  2  0  0  0  0
  2  3  1  0  0  0  0
  2  9  1  0  0  0  0
  3  4  1  0  0  0  0
  3 19  1  0  0  0  0
  3 20  1  0  0  0  0
  4  8  1  0  0  0  0
  4  5  1  0  0  0  0
  5  6  2  0  0  0  0
  5 21  1  0  0  0  0
  6  7  1  0  0  0  0
  7  8  2  0  0  0  0
  9 10  1  0  0  0  0
  9 22  1  0  0  0  0
 10 11  1  0  0  0  0
 10 23  1  0  0  0  0
 10 24  1  0  0  0  0
 11 18  1  0  0  0  0
 11 12  1  0  0  0  0
 11 25  1  0  0  0  0
 12 13  1  0  0  0  0
 12 26  1  0  0  0  0
 12 27  1  0  0  0  0
 13 14  1  0  0  0  0
 13 28  1  0  0  0  0
 13 29  1  0  0  0  0
 14 15  1  0  0  0  0
 14 18  1  0  0  0  0
 14 37  1  0  0  0  0
 15 17  1  0  0  0  0
 15 16  1  0  0  0  0
 15 30  1  0  0  0  0
 16 17  1  0  0  0  0
 16 31  1  0  0  0  0
 16 32  1  0  0  0  0
 17 33  1  0  0  0  0
 17 34  1  0  0  0  0
 18 35  1  0  0  0  0
 18 36  1  0  0  0  0
M  CHG  1  14   1
M  END
> <s_m_source_file>
AV-unprocessed.smi

> <i_m_source_file_index>
1987

> <i_lp_mmshare_version>
43012

> <i_f3d_flags>
0

> <s_epik_input>
bjFubltjSF1uMVtDSDJdQyg9TylbTkhdW0NIMl1bQ0BASF0yW0NIMl1bQ0gyXU4oW0NIMl0yKVtDSF0zW0NIMl1bQ0gyXTM=

> <s_epik_cmdline>
J2VwaWtfcHl0aG9uJywgJy1waCcsICc3LjAnLCAnLXRuJywgJzgnLCAnLW1hJywgJzIwMCcsICctbWV0YWxfYmluZGluZycsICctaW1hZScsICc8aW5maWxlLm1hZT4nLCAnLW9tYWUnLCAnPG91dGZpbGUubWFlPic=

> <r_lp_tautomer_probability>
1

> <r_epik_Ionization_Penalty>
0.000242849

> <r_epik_Ionization_Penalty_Charging>
0.000241326

> <r_epik_Ionization_Penalty_Neutral>
1.52322e-06

> <r_epik_State_Penalty>
-0

> <r_epik_Charging_Adjusted_Penalty>
0.000241326

> <i_epik_Tot_Q>
1

> <i_epik_Tot_abs_Q>
1

> <r_epik_Metal_State_Penalty>
-0

> <b_epik_Metal_Only>
0

> <s_lp_Force_Field>
OPLS_2005

> <r_lp_Energy>
38.094

> <b_lp_Chiralities_Consistent>
1

> <s_lp_Variant>
AV-unprocessed.smi:1987-2

> <Gold.Version>
5.8.1

> <Gold.Id.Protein>
6NUR|6NUR_protein|mol2

> <Gold.PLP.Fitness>
41.9401

> <Gold.PLP.PLP>
-34.9325

> <Gold.PLP.part.hbond>
-4.9023

> <Gold.PLP.part.metal>
0.0000

> <Gold.PLP.part.buried>
-3.9941

> <Gold.PLP.part.nonpolar>
-25.9203

> <Gold.PLP.part.repulsive>
0.1779

> <Gold.PLP.ligand.clash>
0.0000

> <Gold.PLP.ligand.torsion>
1.3789

> <Gold.PLP.Chemscore.Hbond>
2.8312

> <Gold.PLP.Chemscore.CHOScore>
0.0000

> <Gold.PLP.Chemscore.Metal>
0.0000

> <Gold.Chemscore.Hbonds>
donor molecule, donor type, donor heavy atom, donor atom, acceptor molecule, acceptor atom, score
      L1  H     9    22       P1  7948  0.64
      P1  H  7997  8010       L1     6  1.00
      P1  H 10752 10764       L1     8  0.11

> <Gold.PLP.Chemscore.Internal.Correction>
1.2719

> <Gold.Rescore>
     Score         DG    S(hbond)    S(metal)    S(lipo)     H(rot)  DE(clash)    DE(int)     intcor
     11.47     -13.49       2.44        0.00      56.10       2.62       0.05       1.97       ----

> <Gold.Chemscore.Fitness>
11.4739

> <Gold.Chemscore.DG>
-13.4881

> <Gold.Chemscore.ZeroCoef>
-5.4800

> <Gold.Chemscore.Hbond>
2.4440

> <Gold.Chemscore.Metal>
0.0000

> <Gold.Chemscore.Lipo>
56.0998

> <Gold.Chemscore.Internal_Hbond>
0.0000

> <Gold.Chemscore.DEClash>
0.0480

> <Gold.Chemscore.DEInternal>
1.9662

> <Gold.Chemscore.Rot>
2.6244

> <Gold.Chemscore.Internal.Correction>
   9.000000E+99

> <Gold.Chemscore.Hbonds>
donor molecule, donor type, donor heavy atom, donor atom, acceptor molecule, acceptor atom, score
      L1  H     9    22       P1  7948  0.53
      P1  H  7997  8010       L1     6  0.66
      P1  H 10752 10764       L1     8  0.11

> <Gold.Chemscore.Hbond.Weighted>
-8.1630

> <Gold.Chemscore.Metal.Weighted>
-0.0000

> <Gold.Chemscore.Lipo.Weighted>
-6.5637

> <Gold.Chemscore.Internal_Hbond.Weighted>
0.0000

> <Gold.Chemscore.DEClash.Weighted>
0.0480

> <Gold.Chemscore.DEInternal.Weighted>
1.9662

> <Gold.Chemscore.Rot.Weighted>
6.7186

> <Gold.Chemscore.Internal.Correction.Weighted>
   9.000000E+99

> <Gold.Protein.RotatedTorsions>
[ 6907 6896 6895 6894 ] final -113.82 input  -60.11 | X-H torsion
[ 7974 7965 7964 7962 ] final  -60.95 input  175.53 | X-H torsion
[ 8008 7997 7996 7995 ] final   76.20 input   59.86 | X-H torsion
[ 10167 10162 10161 10158 ] final  168.19 input  -65.29 | X-H torsion
[ 10718 10713 10712 10709 ] final  -42.90 input   66.30 | X-H torsion
[ 10763 10752 10751 10750 ] final  -23.98 input  -60.55 | X-H torsion
[ 11005 11000 10999 10996 ] final  117.47 input  -57.11 | X-H torsion

> <Gold.Protein.ActiveResidues>
 VAL166  LYS551  ARG553  GLY616  TRP617  ASP618  TYR619  PRO620  LYS621  CYS622 
 ASP623  PHE694  ASN695  SER759  ASP760  ASP761  ALA762  ILE779  LEU786  VAL792 
 PHE793  MET794  SER795  GLU796  ALA797  LYS798  CYS799  TRP800  GLU811  SER814 

> <Gold.Protein.RotatedAtoms>
  150.7857  133.8890  159.3307 H   0  0  0  0  0  0  0  0  0  0  0  0  # atno 6907 bound_to 6896
  151.6741  135.0970  160.0213 H   0  0  0  0  0  0  0  0  0  0  0  0  # atno 6908 bound_to 6896
  152.3920  133.6653  159.6280 H   0  0  0  0  0  0  0  0  0  0  0  0  # atno 6909 bound_to 6896
  145.8093  140.8608  143.0190 H   0  0  0  0  0  0  0  0  0  0  0  0  # atno 7974 bound_to 7965
  155.8239  140.3469  155.5531 H   0  0  0  0  0  0  0  0  0  0  0  0  # atno 8008 bound_to 7997
  155.8313  140.0927  157.1811 H   0  0  0  0  0  0  0  0  0  0  0  0  # atno 8009 bound_to 7997
  154.4004  140.1411  156.3605 H   0  0  0  0  0  0  0  0  0  0  0  0  # atno 8010 bound_to 7997
  139.4962  144.3841  151.9590 H   0  0  0  0  0  0  0  0  0  0  0  0  # atno 10167 bound_to 10162
  156.2547  130.4191  149.8610 H   0  0  0  0  0  0  0  0  0  0  0  0  # atno 10718 bound_to 10713
  153.6764  135.6969  153.5131 H   0  0  0  0  0  0  0  0  0  0  0  0  # atno 10763 bound_to 10752
  153.2518  135.4272  155.0804 H   0  0  0  0  0  0  0  0  0  0  0  0  # atno 10764 bound_to 10752
  154.8412  135.3533  154.6308 H   0  0  0  0  0  0  0  0  0  0  0  0  # atno 10765 bound_to 10752
  139.9075  134.9610  156.7355 H   0  0  0  0  0  0  0  0  0  0  0  0  # atno 11005 bound_to 11000
  144.6759  140.0372  143.7481 LP  0  0  0  0  0  0  0  0  0  0  0  0  # atno 17320 bound_to 7965
  145.9794  139.2930  143.1051 LP  0  0  0  0  0  0  0  0  0  0  0  0  # atno 17321 bound_to 7965
  140.3278  144.3352  150.5994 LP  0  0  0  0  0  0  0  0  0  0  0  0  # atno 17342 bound_to 10162
  140.5670  143.2185  151.7666 LP  0  0  0  0  0  0  0  0  0  0  0  0  # atno 17343 bound_to 10162
  156.6146  130.8601  151.3462 LP  0  0  0  0  0  0  0  0  0  0  0  0  # atno 17370 bound_to 10713
  157.7228  130.9581  150.1508 LP  0  0  0  0  0  0  0  0  0  0  0  0  # atno 17371 bound_to 10713
  140.6891  133.9406  155.7955 LP  0  0  0  0  0  0  0  0  0  0  0  0  # atno 17394 bound_to 11000
  141.0455  134.0560  157.3850 LP  0  0  0  0  0  0  0  0  0  0  0  0  # atno 17395 bound_to 11000

$$$$
