AV-unprocessed.smi:296|AV-procd|sdf|2258|dock3
  -GOLD-   2262022143D 1   1.00000     0.00000
 Structure written by MMmdl.
 36 37  0  0  0  0  0  0  0  0  1 V2000
  154.6491  138.3565  154.7012 N   0  0  0  0  0  0  0  0  0  0  0  0
  153.4955  138.3017  154.6260 C   0  0  0  0  0  0  0  0  0  0  0  0
  152.0471  138.2329  154.5317 C   0  0  0  0  0  0  0  0  0  0  0  0
  151.3900  137.0369  154.5099 N   0  0  0  0  0  0  0  0  0  0  0  0
  150.1446  137.4880  154.4226 C   0  0  0  0  0  0  0  0  0  0  0  0
  150.0504  138.8217  154.3943 N   0  0  0  0  0  0  0  0  0  0  0  0
  148.8848  139.6828  154.3144 C   0  0  0  0  0  0  0  0  0  0  0  0
  148.7934  140.6018  155.5327 C   0  0  0  0  0  0  0  0  0  0  0  0
  147.6988  141.0296  155.8969 O   0  0  0  0  0  0  0  0  0  0  0  0
  149.9512  140.8996  156.1440 N   0  0  0  0  0  0  0  0  0  0  0  0
  150.1049  141.7733  157.3038 C   0  0  0  0  0  0  0  0  0  0  0  0
  151.4197  142.5733  157.2463 C   0  0  0  0  0  0  0  0  0  0  0  0
  151.8755  143.0979  158.5992 C   0  0  0  0  0  0  0  0  0  0  0  0
  151.8494  144.4112  158.8989 C   0  0  0  0  0  0  0  0  0  0  0  0
  152.2546  144.9862  160.2441 C   0  0  0  0  0  0  0  0  0  0  0  0
  152.3536  143.9057  161.3336 C   0  0  0  0  0  0  0  0  0  0  0  0
  153.0790  142.6601  160.8107 C   0  0  0  0  0  0  0  0  0  0  0  0
  152.3477  142.0499  159.6015 C   0  0  0  0  0  0  0  0  0  0  0  0
  151.3032  139.3350  154.4648 N   0  0  0  0  0  0  0  0  0  0  0  0
  149.2844  136.8357  154.3816 H   0  0  0  0  0  0  0  0  0  0  0  0
  148.9298  140.2773  153.4005 H   0  0  0  0  0  0  0  0  0  0  0  0
  147.9925  139.0584  154.2489 H   0  0  0  0  0  0  0  0  0  0  0  0
  150.7965  140.4931  155.7694 H   0  0  0  0  0  0  0  0  0  0  0  0
  149.2490  142.4402  157.4166 H   0  0  0  0  0  0  0  0  0  0  0  0
  150.1095  141.1407  158.1916 H   0  0  0  0  0  0  0  0  0  0  0  0
  152.2128  141.9485  156.8343 H   0  0  0  0  0  0  0  0  0  0  0  0
  151.3038  143.4072  156.5524 H   0  0  0  0  0  0  0  0  0  0  0  0
  151.5228  145.1253  158.1572 H   0  0  0  0  0  0  0  0  0  0  0  0
  153.2144  145.4891  160.1213 H   0  0  0  0  0  0  0  0  0  0  0  0
  151.5327  145.7472  160.5415 H   0  0  0  0  0  0  0  0  0  0  0  0
  152.8649  144.3049  162.2101 H   0  0  0  0  0  0  0  0  0  0  0  0
  151.3515  143.6239  161.6603 H   0  0  0  0  0  0  0  0  0  0  0  0
  154.0945  142.9339  160.5214 H   0  0  0  0  0  0  0  0  0  0  0  0
  153.1739  141.9161  161.6020 H   0  0  0  0  0  0  0  0  0  0  0  0
  151.4793  141.4881  159.9448 H   0  0  0  0  0  0  0  0  0  0  0  0
  153.0050  141.3372  159.1024 H   0  0  0  0  0  0  0  0  0  0  0  0
  1  2  3  0  0  0  0
  2  3  1  0  0  0  0
  3 19  2  0  0  0  0
  3  4  1  0  0  0  0
  4  5  2  0  0  0  0
  5  6  1  0  0  0  0
  5 20  1  0  0  0  0
  6  7  1  0  0  0  0
  6 19  1  0  0  0  0
  7  8  1  0  0  0  0
  7 21  1  0  0  0  0
  7 22  1  0  0  0  0
  8  9  2  0  0  0  0
  8 10  1  0  0  0  0
 10 11  1  0  0  0  0
 10 23  1  0  0  0  0
 11 12  1  0  0  0  0
 11 24  1  0  0  0  0
 11 25  1  0  0  0  0
 12 13  1  0  0  0  0
 12 26  1  0  0  0  0
 12 27  1  0  0  0  0
 13 18  1  0  0  0  0
 13 14  2  0  0  0  0
 14 15  1  0  0  0  0
 14 28  1  0  0  0  0
 15 16  1  0  0  0  0
 15 29  1  0  0  0  0
 15 30  1  0  0  0  0
 16 17  1  0  0  0  0
 16 31  1  0  0  0  0
 16 32  1  0  0  0  0
 17 18  1  0  0  0  0
 17 33  1  0  0  0  0
 17 34  1  0  0  0  0
 18 35  1  0  0  0  0
 18 36  1  0  0  0  0
M  END
> <s_m_source_file>
AV-unprocessed.smi

> <i_m_source_file_index>
296

> <i_lp_mmshare_version>
43012

> <i_f3d_flags>
0

> <s_epik_input>
TiNDYzFuW2NIXW4objEpW0NIMl1DKD1PKVtOSF1bQ0gyXVtDSDJdQzI9W0NIXVtDSDJdW0NIMl1bQ0gyXVtDSDJdMg==

> <s_epik_cmdline>
J2VwaWtfcHl0aG9uJywgJy1waCcsICc3LjAnLCAnLXRuJywgJzgnLCAnLW1hJywgJzIwMCcsICctbWV0YWxfYmluZGluZycsICctaW1hZScsICc8aW5maWxlLm1hZT4nLCAnLW9tYWUnLCAnPG91dGZpbGUubWFlPic=

> <r_lp_tautomer_probability>
1

> <r_epik_Ionization_Penalty>
6.69355e-08

> <r_epik_Ionization_Penalty_Charging>
0

> <r_epik_Ionization_Penalty_Neutral>
6.69355e-08

> <r_epik_State_Penalty>
-0

> <r_epik_Charging_Adjusted_Penalty>
0

> <i_epik_Tot_Q>
0

> <i_epik_Tot_abs_Q>
0

> <r_epik_Metal_State_Penalty>
-0

> <b_epik_Metal_Only>
0

> <s_lp_Force_Field>
OPLS_2005

> <r_lp_Energy>
11.6781

> <b_lp_Chiralities_Consistent>
1

> <s_lp_Variant>
AV-unprocessed.smi:296-1

> <Gold.Version>
5.8.1

> <Gold.Id.Protein>
6NUR|6NUR_protein|mol2

> <Gold.PLP.Fitness>
51.3464

> <Gold.PLP.PLP>
-43.2465

> <Gold.PLP.part.hbond>
-2.9299

> <Gold.PLP.part.metal>
0.0000

> <Gold.PLP.part.buried>
-4.5764

> <Gold.PLP.part.nonpolar>
-35.5375

> <Gold.PLP.part.repulsive>
0.3958

> <Gold.PLP.ligand.clash>
0.0000

> <Gold.PLP.ligand.torsion>
0.7206

> <Gold.PLP.Chemscore.Hbond>
2.7360

> <Gold.PLP.Chemscore.CHOScore>
0.4300

> <Gold.PLP.Chemscore.Metal>
0.0000

> <Gold.Chemscore.Hbonds>
donor molecule, donor type, donor heavy atom, donor atom, acceptor molecule, acceptor atom, score
      P1  H  7989  7998       L1    19  1.00
      P1  H  7997  8010       L1     1  0.49
      P1  H 10752 10763       L1     4  0.88
      L1  C     5    20       P1  7948  0.43

> <Gold.PLP.Chemscore.Internal.Correction>
0.0430

> <Gold.Rescore>
     Score         DG    S(hbond)    S(metal)    S(lipo)     H(rot)  DE(clash)    DE(int)     intcor
     15.28     -17.58       2.59        0.00      86.83       2.63       0.15       2.15       ----

> <Gold.Chemscore.Fitness>
15.2763

> <Gold.Chemscore.DG>
-17.5795

> <Gold.Chemscore.ZeroCoef>
-5.4800

> <Gold.Chemscore.Hbond>
2.5947

> <Gold.Chemscore.Metal>
0.0000

> <Gold.Chemscore.Lipo>
86.8304

> <Gold.Chemscore.Internal_Hbond>
0.0000

> <Gold.Chemscore.DEClash>
0.1508

> <Gold.Chemscore.DEInternal>
2.1524

> <Gold.Chemscore.Rot>
2.6273

> <Gold.Chemscore.Internal.Correction>
   9.000000E+99

> <Gold.Chemscore.Hbonds>
donor molecule, donor type, donor heavy atom, donor atom, acceptor molecule, acceptor atom, score
      P1  H  7989  7998       L1    19  0.94
      P1  H  7997  8010       L1     1  0.17
      P1  H 10752 10763       L1     4  0.38

> <Gold.Chemscore.Hbond.Weighted>
-8.6662

> <Gold.Chemscore.Metal.Weighted>
-0.0000

> <Gold.Chemscore.Lipo.Weighted>
-10.1592

> <Gold.Chemscore.Internal_Hbond.Weighted>
0.0000

> <Gold.Chemscore.DEClash.Weighted>
0.1508

> <Gold.Chemscore.DEInternal.Weighted>
2.1524

> <Gold.Chemscore.Rot.Weighted>
6.7259

> <Gold.Chemscore.Internal.Correction.Weighted>
   9.000000E+99

> <Gold.Protein.RotatedTorsions>
[ 6907 6896 6895 6894 ] final    9.13 input  -60.11 | X-H torsion
[ 7974 7965 7964 7962 ] final  -36.53 input  175.53 | X-H torsion
[ 8008 7997 7996 7995 ] final  141.35 input   59.86 | X-H torsion
[ 10167 10162 10161 10158 ] final    8.13 input  -65.29 | X-H torsion
[ 10718 10713 10712 10709 ] final   49.44 input   66.30 | X-H torsion
[ 10763 10752 10751 10750 ] final   49.36 input  -60.55 | X-H torsion
[ 11005 11000 10999 10996 ] final  138.20 input  -57.11 | X-H torsion

> <Gold.Protein.ActiveResidues>
 VAL166  LYS551  ARG553  GLY616  TRP617  ASP618  TYR619  PRO620  LYS621  CYS622 
 ASP623  PHE694  ASN695  SER759  ASP760  ASP761  ALA762  ILE779  LEU786  VAL792 
 PHE793  MET794  SER795  GLU796  ALA797  LYS798  CYS799  TRP800  GLU811  SER814 

> <Gold.Protein.RotatedAtoms>
  151.7172  135.0901  160.0277 H   0  0  0  0  0  0  0  0  0  0  0  0  # atno 6907 bound_to 6896
  152.3625  133.6310  159.6034 H   0  0  0  0  0  0  0  0  0  0  0  0  # atno 6908 bound_to 6896
  150.7614  133.9317  159.3470 H   0  0  0  0  0  0  0  0  0  0  0  0  # atno 6909 bound_to 6896
  146.0654  140.6289  142.8977 H   0  0  0  0  0  0  0  0  0  0  0  0  # atno 7974 bound_to 7965
  156.2967  140.2317  156.4549 H   0  0  0  0  0  0  0  0  0  0  0  0  # atno 8008 bound_to 7997
  154.8069  140.0445  157.1334 H   0  0  0  0  0  0  0  0  0  0  0  0  # atno 8009 bound_to 7997
  154.9469  140.3037  155.5097 H   0  0  0  0  0  0  0  0  0  0  0  0  # atno 8010 bound_to 7997
  140.6332  143.7946  150.7324 H   0  0  0  0  0  0  0  0  0  0  0  0  # atno 10167 bound_to 10162
  157.4786  130.8301  149.8068 H   0  0  0  0  0  0  0  0  0  0  0  0  # atno 10718 bound_to 10713
  152.9787  135.5914  154.4076 H   0  0  0  0  0  0  0  0  0  0  0  0  # atno 10763 bound_to 10752
  154.3715  135.2767  155.2266 H   0  0  0  0  0  0  0  0  0  0  0  0  # atno 10764 bound_to 10752
  154.4219  135.6057  153.6070 H   0  0  0  0  0  0  0  0  0  0  0  0  # atno 10765 bound_to 10752
  140.0167  134.9415  157.0391 H   0  0  0  0  0  0  0  0  0  0  0  0  # atno 11005 bound_to 11000
  144.7199  140.4338  143.7016 LP  0  0  0  0  0  0  0  0  0  0  0  0  # atno 17320 bound_to 7965
  145.6487  139.1561  143.2874 LP  0  0  0  0  0  0  0  0  0  0  0  0  # atno 17321 bound_to 7965
  140.1561  143.4315  152.2098 LP  0  0  0  0  0  0  0  0  0  0  0  0  # atno 17342 bound_to 10162
  139.5544  144.7362  151.4337 LP  0  0  0  0  0  0  0  0  0  0  0  0  # atno 17343 bound_to 10162
  156.0110  130.3833  150.2266 LP  0  0  0  0  0  0  0  0  0  0  0  0  # atno 17370 bound_to 10713
  157.0451  131.0046  151.3271 LP  0  0  0  0  0  0  0  0  0  0  0  0  # atno 17371 bound_to 10713
  140.4458  134.1633  155.7177 LP  0  0  0  0  0  0  0  0  0  0  0  0  # atno 17394 bound_to 11000
  141.1747  133.8537  157.1458 LP  0  0  0  0  0  0  0  0  0  0  0  0  # atno 17395 bound_to 11000

$$$$
