AV-unprocessed.smi:2640|AV-procd|sdf|10270|dock7
  -GOLD-   2272014283D 1   1.00000     0.00000
 Structure written by MMmdl.
 41 42  0  0  0  0  0  0  0  0  1 V2000
  144.3485  136.9734  152.5232 O   0  0  0  0  0  0  0  0  0  0  0  0
  145.5609  136.8984  152.3258 C   0  0  0  0  0  0  0  0  0  0  0  0
  146.4408  138.1346  152.4951 C   0  0  0  0  0  0  0  0  0  0  0  0
  147.5161  137.8977  153.4617 N   0  0  0  0  0  0  0  0  0  0  0  0
  148.1879  139.1441  153.8001 C   0  0  0  0  0  0  0  0  0  0  0  0
  149.5541  138.8587  154.4464 C   0  0  0  0  0  0  0  0  0  0  0  0
  149.9307  139.8760  155.4121 N   0  0  0  0  0  0  0  0  0  0  0  0
  150.1653  139.7281  156.7630 C   0  0  0  0  0  0  0  0  0  0  0  0
  150.4814  140.9608  157.2579 C   0  0  0  0  0  0  0  0  0  0  0  0
  150.4154  141.8097  156.1177 C   0  0  0  0  0  0  0  0  0  0  0  0
  150.0858  141.1576  155.0147 N   0  0  0  0  0  0  0  0  0  0  0  0
  146.1843  135.7663  151.9602 N   0  0  0  0  0  0  0  0  0  0  0  0
  145.5325  134.4780  151.7150 C   0  0  2  0  0  0  0  0  0  0  0  0
  146.6041  133.5109  151.1619 C   0  0  0  0  0  0  0  0  0  0  0  0
  146.2543  132.0248  151.3515 C   0  0  0  0  0  0  0  0  0  0  0  0
  145.0232  131.5438  150.5685 C   0  0  0  0  0  0  0  0  0  0  0  0
  143.7157  132.2401  150.9824 C   0  0  0  0  0  0  0  0  0  0  0  0
  143.6048  133.5791  150.4186 N   0  0  0  0  0  0  0  0  0  0  0  0
  144.3984  134.6305  150.6739 C   0  0  0  0  0  0  0  0  0  0  0  0
  144.2248  135.6966  150.0833 O   0  0  0  0  0  0  0  0  0  0  0  0
  146.8663  138.4093  151.5285 H   0  0  0  0  0  0  0  0  0  0  0  0
  145.8195  138.9687  152.8253 H   0  0  0  0  0  0  0  0  0  0  0  0
  148.1966  137.2433  153.1010 H   0  0  0  0  0  0  0  0  0  0  0  0
  148.3182  139.7586  152.9078 H   0  0  0  0  0  0  0  0  0  0  0  0
  147.5665  139.7105  154.4947 H   0  0  0  0  0  0  0  0  0  0  0  0
  149.5210  137.9005  154.9661 H   0  0  0  0  0  0  0  0  0  0  0  0
  150.3324  138.7722  153.6863 H   0  0  0  0  0  0  0  0  0  0  0  0
  150.0853  138.7692  157.2538 H   0  0  0  0  0  0  0  0  0  0  0  0
  150.7225  141.2174  158.2787 H   0  0  0  0  0  0  0  0  0  0  0  0
  150.5958  142.8729  156.0590 H   0  0  0  0  0  0  0  0  0  0  0  0
  147.1813  135.8074  151.8074 H   0  0  0  0  0  0  0  0  0  0  0  0
  145.1301  134.0952  152.6546 H   0  0  0  0  0  0  0  0  0  0  0  0
  146.8150  133.7186  150.1112 H   0  0  0  0  0  0  0  0  0  0  0  0
  147.5447  133.6854  151.6872 H   0  0  0  0  0  0  0  0  0  0  0  0
  147.1126  131.4249  151.0478 H   0  0  0  0  0  0  0  0  0  0  0  0
  146.1115  131.8196  152.4134 H   0  0  0  0  0  0  0  0  0  0  0  0
  145.1893  131.6603  149.4966 H   0  0  0  0  0  0  0  0  0  0  0  0
  144.9124  130.4723  150.7382 H   0  0  0  0  0  0  0  0  0  0  0  0
  142.8696  131.6641  150.6073 H   0  0  0  0  0  0  0  0  0  0  0  0
  143.6085  132.2705  152.0677 H   0  0  0  0  0  0  0  0  0  0  0  0
  142.8676  133.7169  149.7423 H   0  0  0  0  0  0  0  0  0  0  0  0
  1  2  2  0  0  0  0
  2  3  1  0  0  0  0
  2 12  1  0  0  0  0
  3  4  1  0  0  0  0
  3 21  1  0  0  0  0
  3 22  1  0  0  0  0
  4  5  1  0  0  0  0
  4 23  1  0  0  0  0
  5  6  1  0  0  0  0
  5 24  1  0  0  0  0
  5 25  1  0  0  0  0
  6  7  1  0  0  0  0
  6 26  1  0  0  0  0
  6 27  1  0  0  0  0
  7 11  1  0  0  0  0
  7  8  1  0  0  0  0
  8  9  2  0  0  0  0
  8 28  1  0  0  0  0
  9 10  1  0  0  0  0
  9 29  1  0  0  0  0
 10 11  2  0  0  0  0
 10 30  1  0  0  0  0
 12 13  1  0  0  0  0
 12 31  1  0  0  0  0
 13 19  1  0  0  0  0
 13 14  1  0  0  0  0
 13 32  1  0  0  0  0
 14 15  1  0  0  0  0
 14 33  1  0  0  0  0
 14 34  1  0  0  0  0
 15 16  1  0  0  0  0
 15 35  1  0  0  0  0
 15 36  1  0  0  0  0
 16 17  1  0  0  0  0
 16 37  1  0  0  0  0
 16 38  1  0  0  0  0
 17 18  1  0  0  0  0
 17 39  1  0  0  0  0
 17 40  1  0  0  0  0
 18 19  1  0  0  0  0
 18 41  1  0  0  0  0
 19 20  2  0  0  0  0
M  END
> <s_m_source_file>
AV-unprocessed.smi

> <i_m_source_file_index>
2640

> <i_lp_mmshare_version>
43012

> <i_f3d_flags>
0

> <s_epik_input>
Tz1DMVtOSF1bQ0gyXVtDSDJdW0NIMl1bQ0gyXVtDQEhdMVtOSF1DKD1PKVtDSDJdW05IXVtDSDJdW0NIMl1uMltjSF1bY0hdW2NIXW4y

> <s_epik_cmdline>
J2VwaWtfcHl0aG9uJywgJy1waCcsICc3LjAnLCAnLXRuJywgJzgnLCAnLW1hJywgJzIwMCcsICctbWV0YWxfYmluZGluZycsICctaW1hZScsICc8aW5maWxlLm1hZT4nLCAnLW9tYWUnLCAnPG91dGZpbGUubWFlPic=

> <r_lp_tautomer_probability>
1

> <r_epik_Ionization_Penalty>
0.641667

> <r_epik_Ionization_Penalty_Charging>
0

> <r_epik_Ionization_Penalty_Neutral>
0.641667

> <r_epik_State_Penalty>
0.657743

> <r_epik_Charging_Adjusted_Penalty>
0.657743

> <i_epik_Tot_Q>
0

> <i_epik_Tot_abs_Q>
0

> <r_epik_Metal_State_Penalty>
0.656014

> <b_epik_Metal_Only>
0

> <s_lp_Force_Field>
OPLS_2005

> <r_lp_Energy>
11.9791

> <b_lp_Chiralities_Consistent>
1

> <s_lp_Variant>
AV-unprocessed.smi:2640-3

> <Gold.Version>
5.8.1

> <Gold.Id.Protein>
6NUR|6NUR_protein|mol2

> <Gold.PLP.Fitness>
45.2853

> <Gold.PLP.PLP>
-32.8786

> <Gold.PLP.part.hbond>
-4.0000

> <Gold.PLP.part.metal>
0.0000

> <Gold.PLP.part.buried>
-3.4738

> <Gold.PLP.part.nonpolar>
-27.9465

> <Gold.PLP.part.repulsive>
1.9379

> <Gold.PLP.ligand.clash>
0.0000

> <Gold.PLP.ligand.torsion>
0.3526

> <Gold.PLP.Chemscore.Hbond>
3.4283

> <Gold.PLP.Chemscore.CHOScore>
0.9280

> <Gold.PLP.Chemscore.Metal>
0.0000

> <Gold.Chemscore.Hbonds>
donor molecule, donor type, donor heavy atom, donor atom, acceptor molecule, acceptor atom, score
      L1  H     4    23       P1  7948  1.00
      L1  H    12    31       P1  7948  1.00
      L1  H    18    41       P1 10186  0.85
      P1  H  7989  7998       L1    11  0.41
      L1  C    10    30       P1  8028  0.93

> <Gold.PLP.Chemscore.Internal.Correction>
0.0429

> <Gold.Rescore>
     Score         DG    S(hbond)    S(metal)    S(lipo)     H(rot)  DE(clash)    DE(int)     intcor
     13.62     -18.76       3.22        0.00      73.53       2.37       0.76       4.38       ----

> <Gold.Chemscore.Fitness>
13.6208

> <Gold.Chemscore.DG>
-18.7615

> <Gold.Chemscore.ZeroCoef>
-5.4800

> <Gold.Chemscore.Hbond>
3.2198

> <Gold.Chemscore.Metal>
0.0000

> <Gold.Chemscore.Lipo>
73.5278

> <Gold.Chemscore.Internal_Hbond>
0.0000

> <Gold.Chemscore.DEClash>
0.7620

> <Gold.Chemscore.DEInternal>
4.3787

> <Gold.Chemscore.Rot>
2.3732

> <Gold.Chemscore.Internal.Correction>
   9.000000E+99

> <Gold.Chemscore.Hbonds>
donor molecule, donor type, donor heavy atom, donor atom, acceptor molecule, acceptor atom, score
      L1  H     4    23       P1  7948  0.98
      L1  H    12    31       P1  7948  1.00
      L1  H    18    41       P1 10186  0.82
      P1  H  7989  7998       L1    11  0.10

> <Gold.Chemscore.Hbond.Weighted>
-10.7541

> <Gold.Chemscore.Metal.Weighted>
-0.0000

> <Gold.Chemscore.Lipo.Weighted>
-8.6028

> <Gold.Chemscore.Internal_Hbond.Weighted>
0.0000

> <Gold.Chemscore.DEClash.Weighted>
0.7620

> <Gold.Chemscore.DEInternal.Weighted>
4.3787

> <Gold.Chemscore.Rot.Weighted>
6.0753

> <Gold.Chemscore.Internal.Correction.Weighted>
   9.000000E+99

> <Gold.Protein.RotatedTorsions>
[ 6907 6896 6895 6894 ] final   31.55 input  -60.11 | X-H torsion
[ 7974 7965 7964 7962 ] final   -6.15 input  175.53 | X-H torsion
[ 8008 7997 7996 7995 ] final -171.97 input   59.86 | X-H torsion
[ 10167 10162 10161 10158 ] final  169.93 input  -65.29 | X-H torsion
[ 10718 10713 10712 10709 ] final  -26.07 input   66.30 | X-H torsion
[ 10763 10752 10751 10750 ] final -131.39 input  -60.55 | X-H torsion
[ 11005 11000 10999 10996 ] final  -17.64 input  -57.11 | X-H torsion

> <Gold.Protein.ActiveResidues>
 VAL166  LYS551  ARG553  GLY616  TRP617  ASP618  TYR619  PRO620  LYS621  CYS622 
 ASP623  PHE694  ASN695  SER759  ASP760  ASP761  ALA762  ILE779  LEU786  VAL792 
 PHE793  MET794  SER795  GLU796  ALA797  LYS798  CYS799  TRP800  GLU811  SER814 

> <Gold.Protein.RotatedAtoms>
  152.0618  134.9589  160.0574 H   0  0  0  0  0  0  0  0  0  0  0  0  # atno 6907 bound_to 6896
  152.0949  133.4215  159.4569 H   0  0  0  0  0  0  0  0  0  0  0  0  # atno 6908 bound_to 6896
  150.6838  134.2747  159.4646 H   0  0  0  0  0  0  0  0  0  0  0  0  # atno 6909 bound_to 6896
  146.2337  140.2128  142.8335 H   0  0  0  0  0  0  0  0  0  0  0  0  # atno 7974 bound_to 7965
  155.9386  140.1104  157.1074 H   0  0  0  0  0  0  0  0  0  0  0  0  # atno 8008 bound_to 7997
  154.4084  140.1223  156.4962 H   0  0  0  0  0  0  0  0  0  0  0  0  # atno 8009 bound_to 7997
  155.6991  140.3472  155.4927 H   0  0  0  0  0  0  0  0  0  0  0  0  # atno 8010 bound_to 7997
  139.5005  144.3652  151.9783 H   0  0  0  0  0  0  0  0  0  0  0  0  # atno 10167 bound_to 10162
  156.4561  130.4494  149.6959 H   0  0  0  0  0  0  0  0  0  0  0  0  # atno 10718 bound_to 10713
  154.8751  135.3831  154.4239 H   0  0  0  0  0  0  0  0  0  0  0  0  # atno 10763 bound_to 10752
  153.4939  135.7030  153.5874 H   0  0  0  0  0  0  0  0  0  0  0  0  # atno 10764 bound_to 10752
  153.4235  135.3896  155.2093 H   0  0  0  0  0  0  0  0  0  0  0  0  # atno 10765 bound_to 10752
  140.8189  133.8084  155.9638 H   0  0  0  0  0  0  0  0  0  0  0  0  # atno 11005 bound_to 11000
  144.9693  140.8353  143.5465 LP  0  0  0  0  0  0  0  0  0  0  0  0  # atno 17320 bound_to 7965
  145.2108  139.2206  143.5144 LP  0  0  0  0  0  0  0  0  0  0  0  0  # atno 17321 bound_to 7965
  140.3088  144.3562  150.6039 LP  0  0  0  0  0  0  0  0  0  0  0  0  # atno 17342 bound_to 10162
  140.5815  143.2172  151.7420 LP  0  0  0  0  0  0  0  0  0  0  0  0  # atno 17343 bound_to 10162
  156.3765  130.7557  151.2546 LP  0  0  0  0  0  0  0  0  0  0  0  0  # atno 17370 bound_to 10713
  157.7500  131.0308  150.4152 LP  0  0  0  0  0  0  0  0  0  0  0  0  # atno 17371 bound_to 10713
  140.9120  134.2248  157.4980 LP  0  0  0  0  0  0  0  0  0  0  0  0  # atno 17394 bound_to 11000
  139.8709  134.9754  156.4883 LP  0  0  0  0  0  0  0  0  0  0  0  0  # atno 17395 bound_to 11000

$$$$
