AV-unprocessed.smi:218|AV-procd|sdf|1664|dock1
  -GOLD-   2262020 63D 1   1.00000     0.00000
 Structure written by MMmdl.
 54 57  0  0  0  0  0  0  0  0  1 V2000
  152.3830  142.8443  161.2602 C   0  0  0  0  0  0  0  0  0  0  0  0
  152.1551  142.8082  159.7442 C   0  0  0  0  0  0  0  0  0  0  0  0
  151.7854  144.2006  159.2042 C   0  0  0  0  0  0  0  0  0  0  0  0
  151.0910  141.8845  159.5073 O   0  0  0  0  0  0  0  0  0  0  0  0
  150.6906  141.6027  158.2152 C   0  0  0  0  0  0  0  0  0  0  0  0
  150.7280  140.2614  157.7833 C   0  0  0  0  0  0  0  0  0  0  0  0
  150.3357  139.9571  156.4622 C   0  0  0  0  0  0  0  0  0  0  0  0
  150.3669  138.5290  155.9392 C   0  0  0  0  0  0  0  0  0  0  0  0
  149.4201  137.6149  156.5710 N   0  0  0  0  0  0  0  0  0  0  0  0
  149.1349  136.4277  155.9920 C   0  0  0  0  0  0  0  0  0  0  0  0
  149.9752  135.3676  156.1178 N   0  0  0  0  0  0  0  0  0  0  0  0
  149.6683  134.2008  155.5434 C   0  0  0  0  0  0  0  0  0  0  0  0
  148.5965  133.8874  154.8120 N   0  0  0  0  0  0  0  0  0  0  0  0
  147.7526  134.9513  154.6769 C   0  0  0  0  0  0  0  0  0  0  0  0
  147.9515  136.2465  155.2310 C   0  0  0  0  0  0  0  0  0  0  0  0
  146.8889  137.0732  154.8902 N   0  0  0  0  0  0  0  0  0  0  0  0
  146.1079  136.3055  154.1786 C   0  0  0  0  0  0  0  0  0  0  0  0
  146.5520  135.0140  153.9992 N   0  0  0  0  0  0  0  0  0  0  0  0
  145.8768  133.9134  153.2482 C   0  0  2  0  0  0  0  0  0  0  0  0
  146.7720  133.4381  152.2871 O   0  0  0  0  0  0  0  0  0  0  0  0
  146.0878  133.1709  151.0688 C   0  0  1  0  0  0  0  0  0  0  0  0
  145.6066  131.7040  151.0895 C   0  0  0  0  0  0  0  0  0  0  0  0
  146.6847  130.8264  151.3384 O   0  0  0  0  0  0  0  0  0  0  0  0
  144.9959  134.2505  151.0540 C   0  0  1  0  0  0  0  0  0  0  0  0
  143.9016  133.9791  150.1969 O   0  0  0  0  0  0  0  0  0  0  0  0
  144.6181  134.4255  152.5245 C   0  0  1  0  0  0  0  0  0  0  0  0
  143.4787  133.6640  152.8820 O   0  0  0  0  0  0  0  0  0  0  0  0
  149.9077  141.0097  155.6293 C   0  0  0  0  0  0  0  0  0  0  0  0
  149.9037  142.3182  156.1499 C   0  0  0  0  0  0  0  0  0  0  0  0
  150.2861  142.6160  157.4095 N   0  0  0  0  0  0  0  0  0  0  0  0
  145.6717  133.1468  153.9971 H   0  0  0  0  0  0  0  0  0  0  0  0
  146.7858  133.3104  150.2420 H   0  0  0  0  0  0  0  0  0  0  0  0
  145.4503  135.1789  150.7073 H   0  0  0  0  0  0  0  0  0  0  0  0
  144.4244  135.4723  152.7640 H   0  0  0  0  0  0  0  0  0  0  0  0
  153.1958  143.5229  161.5203 H   0  0  0  0  0  0  0  0  0  0  0  0
  152.6432  141.8555  161.6385 H   0  0  0  0  0  0  0  0  0  0  0  0
  151.4879  143.1769  161.7867 H   0  0  0  0  0  0  0  0  0  0  0  0
  153.0839  142.4644  159.2866 H   0  0  0  0  0  0  0  0  0  0  0  0
  152.5729  144.9236  159.4185 H   0  0  0  0  0  0  0  0  0  0  0  0
  150.8649  144.5669  159.6595 H   0  0  0  0  0  0  0  0  0  0  0  0
  151.6378  144.1908  158.1247 H   0  0  0  0  0  0  0  0  0  0  0  0
  151.0590  139.4843  158.4565 H   0  0  0  0  0  0  0  0  0  0  0  0
  150.1481  138.5555  154.8716 H   0  0  0  0  0  0  0  0  0  0  0  0
  151.3749  138.1234  156.0341 H   0  0  0  0  0  0  0  0  0  0  0  0
  149.2083  137.8103  157.5389 H   0  0  0  0  0  0  0  0  0  0  0  0
  150.3823  133.4044  155.6927 H   0  0  0  0  0  0  0  0  0  0  0  0
  145.1782  136.6641  153.7612 H   0  0  0  0  0  0  0  0  0  0  0  0
  144.8836  131.5663  151.8942 H   0  0  0  0  0  0  0  0  0  0  0  0
  145.1059  131.4237  150.1632 H   0  0  0  0  0  0  0  0  0  0  0  0
  147.4804  131.2320  151.0285 H   0  0  0  0  0  0  0  0  0  0  0  0
  143.1652  134.5019  150.4761 H   0  0  0  0  0  0  0  0  0  0  0  0
  143.7067  133.1086  153.6115 H   0  0  0  0  0  0  0  0  0  0  0  0
  149.5947  140.8228  154.6124 H   0  0  0  0  0  0  0  0  0  0  0  0
  149.5838  143.1485  155.5378 H   0  0  0  0  0  0  0  0  0  0  0  0
  1  2  1  0  0  0  0
  1 35  1  0  0  0  0
  1 36  1  0  0  0  0
  1 37  1  0  0  0  0
  2  3  1  0  0  0  0
  2  4  1  0  0  0  0
  2 38  1  0  0  0  0
  3 39  1  0  0  0  0
  3 40  1  0  0  0  0
  3 41  1  0  0  0  0
  4  5  1  0  0  0  0
  5 30  1  0  0  0  0
  5  6  2  0  0  0  0
  6  7  1  0  0  0  0
  6 42  1  0  0  0  0
  7  8  1  0  0  0  0
  7 28  2  0  0  0  0
  8  9  1  0  0  0  0
  8 43  1  0  0  0  0
  8 44  1  0  0  0  0
  9 10  1  0  0  0  0
  9 45  1  0  0  0  0
 10 15  1  0  0  0  0
 10 11  2  0  0  0  0
 11 12  1  0  0  0  0
 12 13  2  0  0  0  0
 12 46  1  0  0  0  0
 13 14  1  0  0  0  0
 14 18  1  0  0  0  0
 14 15  2  0  0  0  0
 15 16  1  0  0  0  0
 16 17  2  0  0  0  0
 17 18  1  0  0  0  0
 17 47  1  0  0  0  0
 18 19  1  0  0  0  0
 19 31  1  0  0  0  0
 19 26  1  0  0  0  0
 19 20  1  0  0  0  0
 20 21  1  0  0  0  0
 21 32  1  0  0  0  0
 21 22  1  0  0  0  0
 21 24  1  0  0  0  0
 22 23  1  0  0  0  0
 22 48  1  0  0  0  0
 22 49  1  0  0  0  0
 23 50  1  0  0  0  0
 24 33  1  0  0  0  0
 24 25  1  0  0  0  0
 24 26  1  0  0  0  0
 25 51  1  0  0  0  0
 26 34  1  0  0  0  0
 26 27  1  0  0  0  0
 27 52  1  0  0  0  0
 28 29  1  0  0  0  0
 28 53  1  0  0  0  0
 29 30  2  0  0  0  0
 29 54  1  0  0  0  0
M  END
> <s_m_source_file>
AV-unprocessed.smi

> <i_m_source_file_index>
218

> <i_lp_mmshare_version>
43012

> <i_f3d_flags>
0

> <s_epik_input>
W0NIM11bQ0hdKFtDSDNdKU9jMVtjSF1jKFtjSF1bY0hdbjEpW0NIMl1bTkhdYyhuW2NIXW4yKWMoYzIzKW5bY0hdbjNbQ0BASF00T1tDQEhdKFtDSDJdW09IXSlbQ0BASF0oW09IXSlbQ0BIXTRbT0hd

> <s_epik_cmdline>
J2VwaWtfcHl0aG9uJywgJy1waCcsICc3LjAnLCAnLXRuJywgJzgnLCAnLW1hJywgJzIwMCcsICctbWV0YWxfYmluZGluZycsICctaW1hZScsICc8aW5maWxlLm1hZT4nLCAnLW9tYWUnLCAnPG91dGZpbGUubWFlPic=

> <r_lp_tautomer_probability>
1

> <r_epik_Ionization_Penalty>
0.00457014

> <r_epik_Ionization_Penalty_Charging>
0

> <r_epik_Ionization_Penalty_Neutral>
0.00457014

> <r_epik_State_Penalty>
-0

> <r_epik_Charging_Adjusted_Penalty>
0

> <i_epik_Tot_Q>
0

> <i_epik_Tot_abs_Q>
0

> <r_epik_Metal_State_Penalty>
-0

> <b_epik_Metal_Only>
0

> <s_epik_Chemistry_Notes>
This compound contains an acetal/aminal-like group ( X-CH(R)-Y where X, Y are N, S, or O) that may be acid/base labile, releasing an aldehyde.

> <s_lp_Force_Field>
OPLS_2005

> <r_lp_Energy>
44.1408

> <b_lp_Chiralities_Consistent>
1

> <s_lp_Variant>
AV-unprocessed.smi:218-3

> <Gold.Version>
5.8.1

> <Gold.Id.Protein>
6NUR|6NUR_protein|mol2

> <Gold.PLP.Fitness>
50.5950

> <Gold.PLP.PLP>
-43.0299

> <Gold.PLP.part.hbond>
-3.0000

> <Gold.PLP.part.metal>
0.0000

> <Gold.PLP.part.buried>
-7.7447

> <Gold.PLP.part.nonpolar>
-33.1256

> <Gold.PLP.part.repulsive>
0.4291

> <Gold.PLP.ligand.clash>
0.0000

> <Gold.PLP.ligand.torsion>
0.9591

> <Gold.PLP.Chemscore.Hbond>
2.0088

> <Gold.PLP.Chemscore.CHOScore>
1.0000

> <Gold.PLP.Chemscore.Metal>
0.0000

> <Gold.Chemscore.Hbonds>
donor molecule, donor type, donor heavy atom, donor atom, acceptor molecule, acceptor atom, score
      L1  H    23    50       P1 10747  0.83
      L1  H    25    51       P1 10186  0.12
      L1  H    27    52       P1 10957  0.64
      L1  C    29    54       P1  8028  0.23

> <Gold.PLP.Chemscore.Internal.Correction>
0.4567

> <Gold.Rescore>
     Score         DG    S(hbond)    S(metal)    S(lipo)     H(rot)  DE(clash)    DE(int)     intcor
      9.30     -10.82       2.09        0.00      93.37       4.90       0.00       1.52       ----

> <Gold.Chemscore.Fitness>
9.2971

> <Gold.Chemscore.DG>
-10.8202

> <Gold.Chemscore.ZeroCoef>
-5.4800

> <Gold.Chemscore.Hbond>
2.0859

> <Gold.Chemscore.Metal>
0.0000

> <Gold.Chemscore.Lipo>
93.3748

> <Gold.Chemscore.Internal_Hbond>
0.0000

> <Gold.Chemscore.DEClash>
0.0000

> <Gold.Chemscore.DEInternal>
1.5231

> <Gold.Chemscore.Rot>
4.9029

> <Gold.Chemscore.Internal.Correction>
   9.000000E+99

> <Gold.Chemscore.Hbonds>
donor molecule, donor type, donor heavy atom, donor atom, acceptor molecule, acceptor atom, score
      L1  H    23    50       P1 10747  0.81
      L1  H    25    51       P1 10186  0.08
      L1  H    27    52       P1 10957  0.57

> <Gold.Chemscore.Hbond.Weighted>
-6.9669

> <Gold.Chemscore.Metal.Weighted>
-0.0000

> <Gold.Chemscore.Lipo.Weighted>
-10.9249

> <Gold.Chemscore.Internal_Hbond.Weighted>
0.0000

> <Gold.Chemscore.DEClash.Weighted>
0.0000

> <Gold.Chemscore.DEInternal.Weighted>
1.5231

> <Gold.Chemscore.Rot.Weighted>
12.5515

> <Gold.Chemscore.Internal.Correction.Weighted>
   9.000000E+99

> <Gold.Protein.RotatedTorsions>
[ 6907 6896 6895 6894 ] final   13.87 input  -60.11 | X-H torsion
[ 7974 7965 7964 7962 ] final  111.07 input  175.53 | X-H torsion
[ 8008 7997 7996 7995 ] final -111.15 input   59.86 | X-H torsion
[ 10167 10162 10161 10158 ] final  -63.26 input  -65.29 | X-H torsion
[ 10718 10713 10712 10709 ] final   59.70 input   66.30 | X-H torsion
[ 10763 10752 10751 10750 ] final   70.98 input  -60.55 | X-H torsion
[ 11005 11000 10999 10996 ] final  -48.34 input  -57.11 | X-H torsion

> <Gold.Protein.ActiveResidues>
 VAL166  LYS551  ARG553  GLY616  TRP617  ASP618  TYR619  PRO620  LYS621  CYS622 
 ASP623  PHE694  ASN695  SER759  ASP760  ASP761  ALA762  ILE779  LEU786  VAL792 
 PHE793  MET794  SER795  GLU796  ALA797  LYS798  CYS799  TRP800  GLU811  SER814 

> <Gold.Protein.RotatedAtoms>
  151.7932  135.0730  160.0389 H   0  0  0  0  0  0  0  0  0  0  0  0  # atno 6907 bound_to 6896
  152.3141  133.5779  159.5709 H   0  0  0  0  0  0  0  0  0  0  0  0  # atno 6908 bound_to 6896
  150.7335  134.0024  159.3684 H   0  0  0  0  0  0  0  0  0  0  0  0  # atno 6909 bound_to 6896
  145.2469  139.2755  143.4088 H   0  0  0  0  0  0  0  0  0  0  0  0  # atno 7974 bound_to 7965
  154.9854  140.0396  157.2296 H   0  0  0  0  0  0  0  0  0  0  0  0  # atno 8008 bound_to 7997
  154.7676  140.2796  155.6141 H   0  0  0  0  0  0  0  0  0  0  0  0  # atno 8009 bound_to 7997
  156.2915  140.2616  156.2471 H   0  0  0  0  0  0  0  0  0  0  0  0  # atno 8010 bound_to 7997
  140.5883  143.2337  151.6195 H   0  0  0  0  0  0  0  0  0  0  0  0  # atno 10167 bound_to 10162
  157.5696  130.8897  149.9244 H   0  0  0  0  0  0  0  0  0  0  0  0  # atno 10718 bound_to 10713
  153.0372  135.5154  154.7523 H   0  0  0  0  0  0  0  0  0  0  0  0  # atno 10763 bound_to 10752
  154.6490  135.2922  155.0013 H   0  0  0  0  0  0  0  0  0  0  0  0  # atno 10764 bound_to 10752
  154.0904  135.6651  153.4904 H   0  0  0  0  0  0  0  0  0  0  0  0  # atno 10765 bound_to 10752
  141.0695  133.6683  156.3428 H   0  0  0  0  0  0  0  0  0  0  0  0  # atno 11005 bound_to 11000
  146.3313  140.2849  142.8612 LP  0  0  0  0  0  0  0  0  0  0  0  0  # atno 17320 bound_to 7965
  144.9538  140.8205  143.5555 LP  0  0  0  0  0  0  0  0  0  0  0  0  # atno 17321 bound_to 7965
  139.5211  144.3202  152.0917 LP  0  0  0  0  0  0  0  0  0  0  0  0  # atno 17342 bound_to 10162
  140.2362  144.4316  150.6279 LP  0  0  0  0  0  0  0  0  0  0  0  0  # atno 17343 bound_to 10162
  156.0742  130.3681  150.0712 LP  0  0  0  0  0  0  0  0  0  0  0  0  # atno 17370 bound_to 10713
  156.8867  130.9574  151.3593 LP  0  0  0  0  0  0  0  0  0  0  0  0  # atno 17371 bound_to 10713
  140.5703  134.5847  157.5456 LP  0  0  0  0  0  0  0  0  0  0  0  0  # atno 17394 bound_to 11000
  139.9509  134.7618  156.0450 LP  0  0  0  0  0  0  0  0  0  0  0  0  # atno 17395 bound_to 11000

$$$$
