AV-unprocessed.smi:2772|AV-procd|sdf|10667|dock2
  -GOLD-   2272015113D 1   1.00000     0.00000
 Structure written by MMmdl.
 55 57  0  0  0  0  0  0  0  0  3 V2000
  139.6834  145.4992  156.6863 C   0  0  0  0  0  0  0  0  0  0  0  0
  140.2716  144.1712  156.2581 C   0  0  0  0  0  0  0  0  0  0  0  0
  140.6663  143.2118  157.2129 C   0  0  0  0  0  0  0  0  0  0  0  0
  141.2014  141.9909  156.7587 C   0  0  0  0  0  0  0  0  0  0  0  0
  141.3147  141.7695  155.3648 C   0  0  0  0  0  0  0  0  0  0  0  0
  141.8464  140.5865  154.7832 N   0  0  0  0  0  0  0  0  0  0  0  0
  141.6698  139.3125  155.1740 C   0  0  0  0  0  0  0  0  0  0  0  0
  140.9956  138.9491  156.1374 O   0  0  0  0  0  0  0  0  0  0  0  0
  142.3102  138.4597  154.3607 N   0  0  0  0  0  0  0  0  0  0  0  0
  142.3073  137.0060  154.5027 C   0  0  2  0  0  0  0  0  0  0  0  0
  143.7091  136.5135  154.9060 C   0  0  0  0  0  0  0  0  0  0  0  0
  143.7684  134.9733  154.9376 C   0  0  0  0  0  0  0  0  0  0  0  0
  143.3747  134.3717  153.6305 N   0  3  2  0  0  0  0  0  0  0  0  0
  144.3797  134.5314  152.5212 C   0  0  2  0  0  0  0  0  0  0  0  0
  143.9729  133.8211  151.2068 C   0  0  0  0  0  0  0  0  0  0  0  0
  143.9826  132.2882  151.3553 C   0  0  0  0  0  0  0  0  0  0  0  0
  145.3209  131.8039  151.7770 N   0  3  2  0  0  0  0  0  0  0  0  0
  145.3905  130.3285  151.8504 C   0  0  0  0  0  0  0  0  0  0  0  0
  145.7892  132.4559  153.0258 C   0  0  0  0  0  0  0  0  0  0  0  0
  145.7839  133.9896  152.8845 C   0  0  0  0  0  0  0  0  0  0  0  0
  141.9822  134.7917  153.3008 C   0  0  0  0  0  0  0  0  0  0  0  0
  141.8547  136.3233  153.1955 C   0  0  0  0  0  0  0  0  0  0  0  0
  140.9062  142.8065  154.4997 C   0  0  0  0  0  0  0  0  0  0  0  0
  140.3913  143.9792  154.9268 N   0  0  0  0  0  0  0  0  0  0  0  0
  139.5761  145.5536  157.7700 H   0  0  0  0  0  0  0  0  0  0  0  0
  138.6981  145.6390  156.2408 H   0  0  0  0  0  0  0  0  0  0  0  0
  140.3260  146.3194  156.3659 H   0  0  0  0  0  0  0  0  0  0  0  0
  140.5656  143.4044  158.2710 H   0  0  0  0  0  0  0  0  0  0  0  0
  141.5223  141.2604  157.4847 H   0  0  0  0  0  0  0  0  0  0  0  0
  142.3636  140.7227  153.9271 H   0  0  0  0  0  0  0  0  0  0  0  0
  142.8394  138.8447  153.5919 H   0  0  0  0  0  0  0  0  0  0  0  0
  141.6135  136.7309  155.2997 H   0  0  0  0  0  0  0  0  0  0  0  0
  144.4600  136.9028  154.2179 H   0  0  0  0  0  0  0  0  0  0  0  0
  143.9683  136.9076  155.8894 H   0  0  0  0  0  0  0  0  0  0  0  0
  144.7434  134.6290  155.2744 H   0  0  0  0  0  0  0  0  0  0  0  0
  143.0736  134.6114  155.6971 H   0  0  0  0  0  0  0  0  0  0  0  0
  144.4775  135.5947  152.3039 H   0  0  0  0  0  0  0  0  0  0  0  0
  143.0155  134.1693  150.8231 H   0  0  0  0  0  0  0  0  0  0  0  0
  144.6873  134.0935  150.4283 H   0  0  0  0  0  0  0  0  0  0  0  0
  143.2292  131.9705  152.0776 H   0  0  0  0  0  0  0  0  0  0  0  0
  143.7180  131.8296  150.4016 H   0  0  0  0  0  0  0  0  0  0  0  0
  144.7200  129.9418  152.6189 H   0  0  0  0  0  0  0  0  0  0  0  0
  146.4043  130.0017  152.0845 H   0  0  0  0  0  0  0  0  0  0  0  0
  145.1107  129.8816  150.8958 H   0  0  0  0  0  0  0  0  0  0  0  0
  145.1596  132.1488  153.8624 H   0  0  0  0  0  0  0  0  0  0  0  0
  146.8007  132.1162  153.2518 H   0  0  0  0  0  0  0  0  0  0  0  0
  146.4792  134.2626  152.0893 H   0  0  0  0  0  0  0  0  0  0  0  0
  146.1961  134.4609  153.7742 H   0  0  0  0  0  0  0  0  0  0  0  0
  141.6032  134.3043  152.4056 H   0  0  0  0  0  0  0  0  0  0  0  0
  141.3264  134.4400  154.0985 H   0  0  0  0  0  0  0  0  0  0  0  0
  140.8181  136.5840  152.9786 H   0  0  0  0  0  0  0  0  0  0  0  0
  142.4411  136.6915  152.3530 H   0  0  0  0  0  0  0  0  0  0  0  0
  140.9867  142.6908  153.4288 H   0  0  0  0  0  0  0  0  0  0  0  0
  143.3213  133.3768  153.7962 H   0  0  0  0  0  0  0  0  0  0  0  0
  145.9667  132.0814  151.0510 H   0  0  0  0  0  0  0  0  0  0  0  0
  1  2  1  0  0  0  0
  1 25  1  0  0  0  0
  1 26  1  0  0  0  0
  1 27  1  0  0  0  0
  2 24  1  0  0  0  0
  2  3  2  0  0  0  0
  3  4  1  0  0  0  0
  3 28  1  0  0  0  0
  4  5  2  0  0  0  0
  4 29  1  0  0  0  0
  5  6  1  0  0  0  0
  5 23  1  0  0  0  0
  6  7  1  0  0  0  0
  6 30  1  0  0  0  0
  7  8  2  0  0  0  0
  7  9  1  0  0  0  0
  9 10  1  0  0  0  0
  9 31  1  0  0  0  0
 10 22  1  0  0  0  0
 10 11  1  0  0  0  0
 10 32  1  0  0  0  0
 11 12  1  0  0  0  0
 11 33  1  0  0  0  0
 11 34  1  0  0  0  0
 12 13  1  0  0  0  0
 12 35  1  0  0  0  0
 12 36  1  0  0  0  0
 13 14  1  0  0  0  0
 13 21  1  0  0  0  0
 13 54  1  0  0  0  0
 14 20  1  0  0  0  0
 14 15  1  0  0  0  0
 14 37  1  0  0  0  0
 15 16  1  0  0  0  0
 15 38  1  0  0  0  0
 15 39  1  0  0  0  0
 16 17  1  0  0  0  0
 16 40  1  0  0  0  0
 16 41  1  0  0  0  0
 17 18  1  0  0  0  0
 17 19  1  0  0  0  0
 17 55  1  0  0  0  0
 18 42  1  0  0  0  0
 18 43  1  0  0  0  0
 18 44  1  0  0  0  0
 19 20  1  0  0  0  0
 19 45  1  0  0  0  0
 19 46  1  0  0  0  0
 20 47  1  0  0  0  0
 20 48  1  0  0  0  0
 21 22  1  0  0  0  0
 21 49  1  0  0  0  0
 21 50  1  0  0  0  0
 22 51  1  0  0  0  0
 22 52  1  0  0  0  0
 23 24  2  0  0  0  0
 23 53  1  0  0  0  0
M  CHG  1  13   1
M  CHG  1  17   1
M  END
> <s_m_source_file>
AV-unprocessed.smi

> <i_m_source_file_index>
2772

> <i_lp_mmshare_version>
43012

> <i_f3d_flags>
0

> <s_epik_input>
W0NIM11jMVtjSF1bY0hdYyhbY0hdbjEpW05IXUMoPU8pW05IXVtDSF0yW0NIMl1bQ0gyXU4oW0NIMl1bQ0gyXTIpW0NIXTNbQ0gyXVtDSDJdTihbQ0gzXSlbQ0gyXVtDSDJdMw==

> <s_epik_cmdline>
J2VwaWtfcHl0aG9uJywgJy1waCcsICc3LjAnLCAnLXRuJywgJzgnLCAnLW1hJywgJzIwMCcsICctbWV0YWxfYmluZGluZycsICctaW1hZScsICc8aW5maWxlLm1hZT4nLCAnLW9tYWUnLCAnPG91dGZpbGUubWFlPic=

> <r_epik_Ionization_Penalty>
0.196786

> <r_epik_Ionization_Penalty_Charging>
0.180787

> <r_epik_Ionization_Penalty_Neutral>
0.0159988

> <r_epik_State_Penalty>
0.163322

> <r_epik_Charging_Adjusted_Penalty>
0.344109

> <i_epik_Tot_Q>
2

> <i_epik_Tot_abs_Q>
2

> <r_epik_Metal_State_Penalty>
0.163596

> <b_epik_Metal_Only>
0

> <s_lp_Force_Field>
OPLS_2005

> <r_lp_Energy>
49.9042

> <b_lp_Chiralities_Consistent>
1

> <s_lp_Variant>
AV-unprocessed.smi:2772-4

> <Gold.Version>
5.8.1

> <Gold.Id.Protein>
6NUR|6NUR_protein|mol2

> <Gold.PLP.Fitness>
40.9044

> <Gold.PLP.PLP>
-24.0228

> <Gold.PLP.part.hbond>
-3.0609

> <Gold.PLP.part.metal>
0.0000

> <Gold.PLP.part.buried>
-4.4198

> <Gold.PLP.part.nonpolar>
-17.3573

> <Gold.PLP.part.repulsive>
0.0915

> <Gold.PLP.ligand.clash>
0.0000

> <Gold.PLP.ligand.torsion>
0.3688

> <Gold.PLP.Chemscore.Hbond>
3.8600

> <Gold.PLP.Chemscore.CHOScore>
1.9984

> <Gold.PLP.Chemscore.Metal>
0.0000

> <Gold.Chemscore.Hbonds>
donor molecule, donor type, donor heavy atom, donor atom, acceptor molecule, acceptor atom, score
      L1  H     6    30       P1 10175  1.00
      L1  H     9    31       P1 10175  0.84
      L1  H    13    54       P1 10957  2.00
      L1  C    23    53       P1 10162  0.94
      L1  C    23    53       P1 10174  1.00

> <Gold.PLP.Chemscore.Internal.Correction>
0.0441

> <Gold.Rescore>
     Score         DG    S(hbond)    S(metal)    S(lipo)     H(rot)  DE(clash)    DE(int)     intcor
     16.31     -16.87       2.02        0.00      66.20       1.21       0.24       0.32       ----

> <Gold.Chemscore.Fitness>
16.3076

> <Gold.Chemscore.DG>
-16.8697

> <Gold.Chemscore.ZeroCoef>
-5.4800

> <Gold.Chemscore.Hbond>
2.0178

> <Gold.Chemscore.Metal>
0.0000

> <Gold.Chemscore.Lipo>
66.2023

> <Gold.Chemscore.Internal_Hbond>
0.0000

> <Gold.Chemscore.DEClash>
0.2434

> <Gold.Chemscore.DEInternal>
0.3187

> <Gold.Chemscore.Rot>
1.2092

> <Gold.Chemscore.Internal.Correction>
   9.000000E+99

> <Gold.Chemscore.Hbonds>
donor molecule, donor type, donor heavy atom, donor atom, acceptor molecule, acceptor atom, score
      L1  H     6    30       P1 10175  0.30
      L1  H     9    31       P1 10175  0.79
      L1  H    13    54       P1 10957  0.93

> <Gold.Chemscore.Hbond.Weighted>
-6.7395

> <Gold.Chemscore.Metal.Weighted>
-0.0000

> <Gold.Chemscore.Lipo.Weighted>
-7.7457

> <Gold.Chemscore.Internal_Hbond.Weighted>
0.0000

> <Gold.Chemscore.DEClash.Weighted>
0.2434

> <Gold.Chemscore.DEInternal.Weighted>
0.3187

> <Gold.Chemscore.Rot.Weighted>
3.0955

> <Gold.Chemscore.Internal.Correction.Weighted>
   9.000000E+99

> <Gold.Protein.RotatedTorsions>
[ 6907 6896 6895 6894 ] final  -56.74 input  -60.11 | X-H torsion
[ 7974 7965 7964 7962 ] final   90.39 input  175.53 | X-H torsion
[ 8008 7997 7996 7995 ] final  -32.20 input   59.86 | X-H torsion
[ 10167 10162 10161 10158 ] final   14.24 input  -65.29 | X-H torsion
[ 10718 10713 10712 10709 ] final   91.64 input   66.30 | X-H torsion
[ 10763 10752 10751 10750 ] final   18.91 input  -60.55 | X-H torsion
[ 11005 11000 10999 10996 ] final  -73.45 input  -57.11 | X-H torsion

> <Gold.Protein.ActiveResidues>
 VAL166  LYS551  ARG553  GLY616  TRP617  ASP618  TYR619  PRO620  LYS621  CYS622 
 ASP623  PHE694  ASN695  SER759  ASP760  ASP761  ALA762  ILE779  LEU786  VAL792 
 PHE793  MET794  SER795  GLU796  ALA797  LYS798  CYS799  TRP800  GLU811  SER814 

> <Gold.Protein.RotatedAtoms>
  150.8142  134.7315  159.6715 H   0  0  0  0  0  0  0  0  0  0  0  0  # atno 6907 bound_to 6896
  152.4262  134.5861  159.9971 H   0  0  0  0  0  0  0  0  0  0  0  0  # atno 6908 bound_to 6896
  151.6062  133.3314  159.3094 H   0  0  0  0  0  0  0  0  0  0  0  0  # atno 6909 bound_to 6896
  145.5196  139.2279  143.2679 H   0  0  0  0  0  0  0  0  0  0  0  0  # atno 7974 bound_to 7965
  154.4188  140.1744  156.1689 H   0  0  0  0  0  0  0  0  0  0  0  0  # atno 8008 bound_to 7997
  155.9777  140.3380  155.6610 H   0  0  0  0  0  0  0  0  0  0  0  0  # atno 8009 bound_to 7997
  155.6542  140.0693  157.2567 H   0  0  0  0  0  0  0  0  0  0  0  0  # atno 8010 bound_to 7997
  140.5949  143.8722  150.6908 H   0  0  0  0  0  0  0  0  0  0  0  0  # atno 10167 bound_to 10162
  157.6960  131.0414  150.3760 H   0  0  0  0  0  0  0  0  0  0  0  0  # atno 10718 bound_to 10713
  153.1208  135.6718  153.9339 H   0  0  0  0  0  0  0  0  0  0  0  0  # atno 10763 bound_to 10752
  153.8855  135.3053  155.3447 H   0  0  0  0  0  0  0  0  0  0  0  0  # atno 10764 bound_to 10752
  154.7620  135.4983  153.9561 H   0  0  0  0  0  0  0  0  0  0  0  0  # atno 10765 bound_to 10752
  141.1623  133.6879  156.7214 H   0  0  0  0  0  0  0  0  0  0  0  0  # atno 11005 bound_to 11000
  146.2114  140.6007  142.9058 LP  0  0  0  0  0  0  0  0  0  0  0  0  # atno 17320 bound_to 7965
  144.7683  140.5580  143.6688 LP  0  0  0  0  0  0  0  0  0  0  0  0  # atno 17321 bound_to 7965
  140.2253  143.3777  152.1609 LP  0  0  0  0  0  0  0  0  0  0  0  0  # atno 17342 bound_to 10162
  139.5251  144.7092  151.5258 LP  0  0  0  0  0  0  0  0  0  0  0  0  # atno 17343 bound_to 10162
  156.4179  130.3947  149.6845 LP  0  0  0  0  0  0  0  0  0  0  0  0  # atno 17370 bound_to 10713
  156.4107  130.7720  151.2733 LP  0  0  0  0  0  0  0  0  0  0  0  0  # atno 17371 bound_to 10713
  140.2813  134.8314  157.3935 LP  0  0  0  0  0  0  0  0  0  0  0  0  # atno 17394 bound_to 11000
  140.1431  134.4946  155.8017 LP  0  0  0  0  0  0  0  0  0  0  0  0  # atno 17395 bound_to 11000

$$$$
