AV-unprocessed.smi:689|AV-procd|sdf|3359|dock2
  -GOLD-   22720 0333D 1   1.00000     0.00000
 Structure written by MMmdl.
 34 35  0  0  0  0  0  0  0  0  1 V2000
  153.1321  142.8744  162.1058 C   0  0  0  0  0  0  0  0  0  0  0  0
  152.6735  143.6233  160.8876 C   0  0  0  0  0  0  0  0  0  0  0  0
  152.2936  144.8849  160.9996 N   0  0  0  0  0  0  0  0  0  0  0  0
  151.9414  145.2948  159.7103 O   0  0  0  0  0  0  0  0  0  0  0  0
  152.1264  144.2520  158.8619 C   0  0  0  0  0  0  0  0  0  0  0  0
  151.8123  144.5029  157.4258 C   0  0  0  0  0  0  0  0  0  0  0  0
  152.5872  143.1586  159.5439 C   0  0  0  0  0  0  0  0  0  0  0  0
  152.9400  141.7923  159.0150 C   0  0  0  0  0  0  0  0  0  0  0  0
  151.6763  141.1281  158.4734 C   0  0  0  0  0  0  0  0  0  0  0  0
  150.9239  140.4866  159.2052 O   0  0  0  0  0  0  0  0  0  0  0  0
  151.4776  141.2607  157.0963 N   0  0  0  0  0  0  0  0  0  0  0  0
  150.4043  140.3001  156.1409 S   0  0  0  0  0  0  0  0  0  0  0  0
  151.0229  140.0903  154.8225 O   0  0  0  0  0  0  0  0  0  0  0  0
  150.0289  139.1464  156.9721 O   0  0  0  0  0  0  0  0  0  0  0  0
  148.9153  141.3877  155.9798 C   0  0  0  0  0  0  0  0  0  0  0  0
  148.5099  141.6399  154.5392 C   0  0  0  0  0  0  0  0  0  0  0  0
  147.1645  142.2447  154.2078 C   0  0  0  0  0  0  0  0  0  0  0  0
  147.4428  140.8020  153.8709 C   0  0  0  0  0  0  0  0  0  0  0  0
  154.2050  142.6858  162.0644 H   0  0  0  0  0  0  0  0  0  0  0  0
  152.6288  141.9109  162.1837 H   0  0  0  0  0  0  0  0  0  0  0  0
  152.9260  143.4277  163.0229 H   0  0  0  0  0  0  0  0  0  0  0  0
  152.0443  143.6321  156.8130 H   0  0  0  0  0  0  0  0  0  0  0  0
  152.3920  145.3445  157.0464 H   0  0  0  0  0  0  0  0  0  0  0  0
  150.7550  144.7338  157.2971 H   0  0  0  0  0  0  0  0  0  0  0  0
  153.6748  141.8503  158.2115 H   0  0  0  0  0  0  0  0  0  0  0  0
  153.3869  141.1672  159.7893 H   0  0  0  0  0  0  0  0  0  0  0  0
  152.1258  141.8030  156.5262 H   0  0  0  0  0  0  0  0  0  0  0  0
  148.0958  140.8869  156.4958 H   0  0  0  0  0  0  0  0  0  0  0  0
  149.1002  142.3302  156.4944 H   0  0  0  0  0  0  0  0  0  0  0  0
  149.3353  141.9476  153.9009 H   0  0  0  0  0  0  0  0  0  0  0  0
  146.4779  142.4437  155.0282 H   0  0  0  0  0  0  0  0  0  0  0  0
  147.1231  142.9540  153.3837 H   0  0  0  0  0  0  0  0  0  0  0  0
  147.5917  140.5465  152.8236 H   0  0  0  0  0  0  0  0  0  0  0  0
  146.9425  140.0430  154.4694 H   0  0  0  0  0  0  0  0  0  0  0  0
  1  2  1  0  0  0  0
  1 19  1  0  0  0  0
  1 20  1  0  0  0  0
  1 21  1  0  0  0  0
  2  7  1  0  0  0  0
  2  3  2  0  0  0  0
  3  4  1  0  0  0  0
  4  5  1  0  0  0  0
  5  6  1  0  0  0  0
  5  7  2  0  0  0  0
  6 22  1  0  0  0  0
  6 23  1  0  0  0  0
  6 24  1  0  0  0  0
  7  8  1  0  0  0  0
  8  9  1  0  0  0  0
  8 25  1  0  0  0  0
  8 26  1  0  0  0  0
  9 10  2  0  0  0  0
  9 11  1  0  0  0  0
 11 12  1  0  0  0  0
 11 27  1  0  0  0  0
 12 13  2  0  0  0  0
 12 14  2  0  0  0  0
 12 15  1  0  0  0  0
 15 16  1  0  0  0  0
 15 28  1  0  0  0  0
 15 29  1  0  0  0  0
 16 18  1  0  0  0  0
 16 17  1  0  0  0  0
 16 30  1  0  0  0  0
 17 18  1  0  0  0  0
 17 31  1  0  0  0  0
 17 32  1  0  0  0  0
 18 33  1  0  0  0  0
 18 34  1  0  0  0  0
M  END
> <s_m_source_file>
AV-unprocessed.smi

> <i_m_source_file_index>
689

> <i_lp_mmshare_version>
43012

> <i_f3d_flags>
0

> <s_epik_input>
W0NIM11jMW5vYyhbQ0gzXSljMVtDSDJdQyg9TylbTkhdUyg9TykoPU8pW0NIMl1bQ0hdMltDSDJdW0NIMl0y

> <s_epik_cmdline>
J2VwaWtfcHl0aG9uJywgJy1waCcsICc3LjAnLCAnLXRuJywgJzgnLCAnLW1hJywgJzIwMCcsICctbWV0YWxfYmluZGluZycsICctaW1hZScsICc8aW5maWxlLm1hZT4nLCAnLW9tYWUnLCAnPG91dGZpbGUubWFlPic=

> <r_epik_Ionization_Penalty>
2.32728

> <r_epik_Ionization_Penalty_Charging>
0

> <r_epik_Ionization_Penalty_Neutral>
2.32728

> <r_epik_State_Penalty>
2.47991

> <r_epik_Charging_Adjusted_Penalty>
2.47991

> <i_epik_Tot_Q>
0

> <i_epik_Tot_abs_Q>
0

> <r_epik_Metal_State_Penalty>
2.4915

> <b_epik_Metal_Only>
0

> <s_lp_Force_Field>
OPLS_2005

> <r_lp_Energy>
-0.069028

> <b_lp_Chiralities_Consistent>
1

> <s_lp_Variant>
AV-unprocessed.smi:689-2

> <Gold.Version>
5.8.1

> <Gold.Id.Protein>
6NUR|6NUR_protein|mol2

> <Gold.PLP.Fitness>
43.2139

> <Gold.PLP.PLP>
-41.0276

> <Gold.PLP.part.hbond>
-0.9356

> <Gold.PLP.part.metal>
0.0000

> <Gold.PLP.part.buried>
-4.8498

> <Gold.PLP.part.nonpolar>
-35.5013

> <Gold.PLP.part.repulsive>
0.4702

> <Gold.PLP.ligand.clash>
0.0000

> <Gold.PLP.ligand.torsion>
1.2305

> <Gold.PLP.Chemscore.Hbond>
1.0000

> <Gold.PLP.Chemscore.CHOScore>
0.0000

> <Gold.PLP.Chemscore.Metal>
0.0000

> <Gold.Chemscore.Hbonds>
donor molecule, donor type, donor heavy atom, donor atom, acceptor molecule, acceptor atom, score
      P1  H  7989  7998       L1    13  1.00

> <Gold.PLP.Chemscore.Internal.Correction>
1.6473

> <Gold.Rescore>
     Score         DG    S(hbond)    S(metal)    S(lipo)     H(rot)  DE(clash)    DE(int)     intcor
     13.79     -16.61       1.00        0.00     102.76       1.65       0.10       2.72       ----

> <Gold.Chemscore.Fitness>
13.7852

> <Gold.Chemscore.DG>
-16.6055

> <Gold.Chemscore.ZeroCoef>
-5.4800

> <Gold.Chemscore.Hbond>
0.9974

> <Gold.Chemscore.Metal>
0.0000

> <Gold.Chemscore.Lipo>
102.7625

> <Gold.Chemscore.Internal_Hbond>
0.0000

> <Gold.Chemscore.DEClash>
0.1030

> <Gold.Chemscore.DEInternal>
2.7172

> <Gold.Chemscore.Rot>
1.6519

> <Gold.Chemscore.Internal.Correction>
   9.000000E+99

> <Gold.Chemscore.Hbonds>
donor molecule, donor type, donor heavy atom, donor atom, acceptor molecule, acceptor atom, score
      P1  H  7989  7998       L1    13  1.00

> <Gold.Chemscore.Hbond.Weighted>
-3.3313

> <Gold.Chemscore.Metal.Weighted>
-0.0000

> <Gold.Chemscore.Lipo.Weighted>
-12.0232

> <Gold.Chemscore.Internal_Hbond.Weighted>
0.0000

> <Gold.Chemscore.DEClash.Weighted>
0.1030

> <Gold.Chemscore.DEInternal.Weighted>
2.7172

> <Gold.Chemscore.Rot.Weighted>
4.2290

> <Gold.Chemscore.Internal.Correction.Weighted>
   9.000000E+99

> <Gold.Protein.RotatedTorsions>
[ 6907 6896 6895 6894 ] final  -54.66 input  -60.11 | X-H torsion
[ 7974 7965 7964 7962 ] final  -83.37 input  175.53 | X-H torsion
[ 8008 7997 7996 7995 ] final -135.46 input   59.86 | X-H torsion
[ 10167 10162 10161 10158 ] final -119.21 input  -65.29 | X-H torsion
[ 10718 10713 10712 10709 ] final -117.82 input   66.30 | X-H torsion
[ 10763 10752 10751 10750 ] final  -13.40 input  -60.55 | X-H torsion
[ 11005 11000 10999 10996 ] final  110.01 input  -57.11 | X-H torsion

> <Gold.Protein.ActiveResidues>
 VAL166  LYS551  ARG553  GLY616  TRP617  ASP618  TYR619  PRO620  LYS621  CYS622 
 ASP623  PHE694  ASN695  SER759  ASP760  ASP761  ALA762  ILE779  LEU786  VAL792 
 PHE793  MET794  SER795  GLU796  ALA797  LYS798  CYS799  TRP800  GLU811  SER814 

> <Gold.Protein.RotatedAtoms>
  150.8319  134.7575  159.6860 H   0  0  0  0  0  0  0  0  0  0  0  0  # atno 6907 bound_to 6896
  152.4422  134.5564  159.9891 H   0  0  0  0  0  0  0  0  0  0  0  0  # atno 6908 bound_to 6896
  151.5723  133.3350  159.3028 H   0  0  0  0  0  0  0  0  0  0  0  0  # atno 6909 bound_to 6896
  145.5208  140.9531  143.1656 H   0  0  0  0  0  0  0  0  0  0  0  0  # atno 7974 bound_to 7965
  155.3790  140.0493  157.3044 H   0  0  0  0  0  0  0  0  0  0  0  0  # atno 8008 bound_to 7997
  154.5092  140.2185  155.9153 H   0  0  0  0  0  0  0  0  0  0  0  0  # atno 8009 bound_to 7997
  156.1562  140.3126  155.8735 H   0  0  0  0  0  0  0  0  0  0  0  0  # atno 8010 bound_to 7997
  140.0491  143.5078  152.2091 H   0  0  0  0  0  0  0  0  0  0  0  0  # atno 10167 bound_to 10162
  156.1061  130.6211  150.9212 H   0  0  0  0  0  0  0  0  0  0  0  0  # atno 10718 bound_to 10713
  153.5127  135.7016  153.5772 H   0  0  0  0  0  0  0  0  0  0  0  0  # atno 10763 bound_to 10752
  153.3855  135.3909  155.1887 H   0  0  0  0  0  0  0  0  0  0  0  0  # atno 10764 bound_to 10752
  154.8702  135.3845  154.4609 H   0  0  0  0  0  0  0  0  0  0  0  0  # atno 10765 bound_to 10752
  139.8873  134.9473  156.6213 H   0  0  0  0  0  0  0  0  0  0  0  0  # atno 11005 bound_to 11000
  144.7677  139.6807  143.7208 LP  0  0  0  0  0  0  0  0  0  0  0  0  # atno 17320 bound_to 7965
  146.2107  139.5461  142.9683 LP  0  0  0  0  0  0  0  0  0  0  0  0  # atno 17321 bound_to 7965
  139.5964  144.7568  151.3275 LP  0  0  0  0  0  0  0  0  0  0  0  0  # atno 17342 bound_to 10162
  140.7225  143.7096  150.7780 LP  0  0  0  0  0  0  0  0  0  0  0  0  # atno 17343 bound_to 10162
  157.6238  131.0927  150.8572 LP  0  0  0  0  0  0  0  0  0  0  0  0  # atno 17370 bound_to 10713
  156.8691  130.5140  149.5298 LP  0  0  0  0  0  0  0  0  0  0  0  0  # atno 17371 bound_to 10713
  140.7737  133.8717  155.8512 LP  0  0  0  0  0  0  0  0  0  0  0  0  # atno 17394 bound_to 11000
  140.9820  134.1393  157.4486 LP  0  0  0  0  0  0  0  0  0  0  0  0  # atno 17395 bound_to 11000

$$$$
