AV-unprocessed.smi:1648|AV-procd|sdf|6630|dock3
  -GOLD-   22720 7333D 1   1.00000     0.00000
 Structure written by MMmdl.
 42 42  0  0  0  0  0  0  0  0  2 V2000
  148.7784  138.8794  154.0162 C   0  0  0  0  0  0  0  0  0  0  0  0
  148.7119  137.6588  154.9360 C   0  0  0  0  0  0  0  0  0  0  0  0
  148.6368  137.8239  156.1512 O   0  0  0  0  0  0  0  0  0  0  0  0
  148.7334  136.4267  154.3988 N   0  0  0  0  0  0  0  0  0  0  0  0
  148.6789  135.1470  155.1101 C   0  0  1  0  0  0  0  0  0  0  0  0
  147.6364  134.2716  154.3918 C   0  0  0  0  0  0  0  0  0  0  0  0
  146.8328  133.6002  155.0409 O   0  0  0  0  0  0  0  0  0  0  0  0
  147.6741  134.2788  153.0499 N   0  0  0  0  0  0  0  0  0  0  0  0
  146.8123  133.4920  152.1689 C   0  0  1  0  0  0  0  0  0  0  0  0
  146.7747  132.0452  152.6781 C   0  0  0  0  0  0  0  0  0  0  0  0
  145.3916  134.0952  152.0952 C   0  0  0  0  0  0  0  0  0  0  0  0
  144.5128  133.3919  151.1528 N   0  0  0  0  0  0  0  0  0  0  0  0
  144.7338  133.1702  149.8174 C   0  0  0  0  0  0  0  0  0  0  0  0
  143.6406  132.4887  149.3478 C   0  0  0  0  0  0  0  0  0  0  0  0
  142.8043  132.3131  150.4174 N   0  3  0  0  0  0  0  0  0  0  0  0
  143.3408  132.8541  151.5155 C   0  0  0  0  0  0  0  0  0  0  0  0
  150.0794  134.4701  155.0443 C   0  0  0  0  0  0  0  0  0  0  0  0
  150.0219  132.9497  155.2999 C   0  0  0  0  0  0  0  0  0  0  0  0
  151.0713  135.1103  156.0354 C   0  0  0  0  0  0  0  0  0  0  0  0
  149.6442  138.8321  153.3566 H   0  0  0  0  0  0  0  0  0  0  0  0
  148.8529  139.7971  154.6006 H   0  0  0  0  0  0  0  0  0  0  0  0
  147.8780  138.9427  153.4046 H   0  0  0  0  0  0  0  0  0  0  0  0
  148.7360  136.3686  153.3905 H   0  0  0  0  0  0  0  0  0  0  0  0
  148.4021  135.2910  156.1560 H   0  0  0  0  0  0  0  0  0  0  0  0
  148.3614  134.8686  152.6028 H   0  0  0  0  0  0  0  0  0  0  0  0
  147.2388  133.4673  151.1645 H   0  0  0  0  0  0  0  0  0  0  0  0
  146.1691  131.4157  152.0254 H   0  0  0  0  0  0  0  0  0  0  0  0
  146.3518  131.9868  153.6819 H   0  0  0  0  0  0  0  0  0  0  0  0
  147.7758  131.6140  152.7126 H   0  0  0  0  0  0  0  0  0  0  0  0
  144.9110  134.0459  153.0731 H   0  0  0  0  0  0  0  0  0  0  0  0
  145.4321  135.1497  151.8169 H   0  0  0  0  0  0  0  0  0  0  0  0
  145.6243  133.5140  149.3115 H   0  0  0  0  0  0  0  0  0  0  0  0
  143.4021  132.1248  148.3589 H   0  0  0  0  0  0  0  0  0  0  0  0
  142.9057  132.8619  152.4984 H   0  0  0  0  0  0  0  0  0  0  0  0
  150.4924  134.6148  154.0444 H   0  0  0  0  0  0  0  0  0  0  0  0
  149.5820  132.7300  156.2732 H   0  0  0  0  0  0  0  0  0  0  0  0
  151.0206  132.5123  155.2832 H   0  0  0  0  0  0  0  0  0  0  0  0
  149.4375  132.4255  154.5435 H   0  0  0  0  0  0  0  0  0  0  0  0
  150.7105  135.0310  157.0613 H   0  0  0  0  0  0  0  0  0  0  0  0
  151.2380  136.1662  155.8219 H   0  0  0  0  0  0  0  0  0  0  0  0
  152.0444  134.6205  155.9886 H   0  0  0  0  0  0  0  0  0  0  0  0
  141.9094  131.8407  150.3848 H   0  0  0  0  0  0  0  0  0  0  0  0
  1  2  1  0  0  0  0
  1 20  1  0  0  0  0
  1 21  1  0  0  0  0
  1 22  1  0  0  0  0
  2  3  2  0  0  0  0
  2  4  1  0  0  0  0
  4  5  1  0  0  0  0
  4 23  1  0  0  0  0
  5  6  1  0  0  0  0
  5 17  1  0  0  0  0
  5 24  1  0  0  0  0
  6  7  2  0  0  0  0
  6  8  1  0  0  0  0
  8  9  1  0  0  0  0
  8 25  1  0  0  0  0
  9 10  1  0  0  0  0
  9 11  1  0  0  0  0
  9 26  1  0  0  0  0
 10 27  1  0  0  0  0
 10 28  1  0  0  0  0
 10 29  1  0  0  0  0
 11 12  1  0  0  0  0
 11 30  1  0  0  0  0
 11 31  1  0  0  0  0
 12 16  1  0  0  0  0
 12 13  1  0  0  0  0
 13 14  2  0  0  0  0
 13 32  1  0  0  0  0
 14 15  1  0  0  0  0
 14 33  1  0  0  0  0
 15 16  2  0  0  0  0
 15 42  1  0  0  0  0
 16 34  1  0  0  0  0
 17 18  1  0  0  0  0
 17 19  1  0  0  0  0
 17 35  1  0  0  0  0
 18 36  1  0  0  0  0
 18 37  1  0  0  0  0
 18 38  1  0  0  0  0
 19 39  1  0  0  0  0
 19 40  1  0  0  0  0
 19 41  1  0  0  0  0
M  CHG  1  15   1
M  END
> <s_m_source_file>
AV-unprocessed.smi

> <i_m_source_file_index>
1648

> <i_lp_mmshare_version>
43012

> <i_f3d_flags>
0

> <s_epik_input>
W0NIM11DKD1PKVtOSF1bQ0BASF0oW0NIXShbQ0gzXSlbQ0gzXSlDKD1PKVtOSF1bQ0BIXShbQ0gzXSlbQ0gyXW4xW2NIXVtjSF1uW2NIXTE=

> <s_epik_cmdline>
J2VwaWtfcHl0aG9uJywgJy1waCcsICc3LjAnLCAnLXRuJywgJzgnLCAnLW1hJywgJzIwMCcsICctbWV0YWxfYmluZGluZycsICctaW1hZScsICc8aW5maWxlLm1hZT4nLCAnLW9tYWUnLCAnPG91dGZpbGUubWFlPic=

> <r_lp_tautomer_probability>
1

> <r_epik_Ionization_Penalty>
0.251562

> <r_epik_Ionization_Penalty_Charging>
0

> <r_epik_Ionization_Penalty_Neutral>
0.251562

> <r_epik_State_Penalty>
0.242926

> <r_epik_Charging_Adjusted_Penalty>
0.242926

> <i_epik_Tot_Q>
1

> <i_epik_Tot_abs_Q>
1

> <r_epik_Metal_State_Penalty>
0.53388

> <b_epik_Metal_Only>
0

> <s_lp_Force_Field>
OPLS_2005

> <r_lp_Energy>
9.97271

> <b_lp_Chiralities_Consistent>
1

> <s_lp_Variant>
AV-unprocessed.smi:1648-4

> <Gold.Version>
5.8.1

> <Gold.Id.Protein>
6NUR|6NUR_protein|mol2

> <Gold.PLP.Fitness>
41.6329

> <Gold.PLP.PLP>
-29.8611

> <Gold.PLP.part.hbond>
-4.0000

> <Gold.PLP.part.metal>
0.0000

> <Gold.PLP.part.buried>
-1.5704

> <Gold.PLP.part.nonpolar>
-24.2609

> <Gold.PLP.part.repulsive>
0.1575

> <Gold.PLP.ligand.clash>
0.0000

> <Gold.PLP.ligand.torsion>
1.0441

> <Gold.PLP.Chemscore.Hbond>
3.0000

> <Gold.PLP.Chemscore.CHOScore>
1.5982

> <Gold.PLP.Chemscore.Metal>
0.0000

> <Gold.Chemscore.Hbonds>
donor molecule, donor type, donor heavy atom, donor atom, acceptor molecule, acceptor atom, score
      L1  H     4    23       P1  7948  1.00
      L1  H     8    25       P1  7948  1.00
      L1  H    15    42       P1 10952  0.96
      L1  C    13    32       P1  7921  0.98
      L1  C    16    34       P1 10957  0.83

> <Gold.PLP.Chemscore.Internal.Correction>
0.0655

> <Gold.Rescore>
     Score         DG    S(hbond)    S(metal)    S(lipo)     H(rot)  DE(clash)    DE(int)     intcor
     12.43     -15.37       2.81        0.00      61.45       2.61       0.94       1.99       ----

> <Gold.Chemscore.Fitness>
12.4349

> <Gold.Chemscore.DG>
-15.3662

> <Gold.Chemscore.ZeroCoef>
-5.4800

> <Gold.Chemscore.Hbond>
2.8106

> <Gold.Chemscore.Metal>
0.0000

> <Gold.Chemscore.Lipo>
61.4495

> <Gold.Chemscore.Internal_Hbond>
0.0000

> <Gold.Chemscore.DEClash>
0.9375

> <Gold.Chemscore.DEInternal>
1.9939

> <Gold.Chemscore.Rot>
2.6135

> <Gold.Chemscore.Internal.Correction>
   9.000000E+99

> <Gold.Chemscore.Hbonds>
donor molecule, donor type, donor heavy atom, donor atom, acceptor molecule, acceptor atom, score
      L1  H     4    23       P1  7948  0.94
      L1  H     8    25       P1  7948  0.44
      L1  H    15    42       P1 10952  0.39

> <Gold.Chemscore.Hbond.Weighted>
-9.3873

> <Gold.Chemscore.Metal.Weighted>
-0.0000

> <Gold.Chemscore.Lipo.Weighted>
-7.1896

> <Gold.Chemscore.Internal_Hbond.Weighted>
0.0000

> <Gold.Chemscore.DEClash.Weighted>
0.9375

> <Gold.Chemscore.DEInternal.Weighted>
1.9939

> <Gold.Chemscore.Rot.Weighted>
6.6906

> <Gold.Chemscore.Internal.Correction.Weighted>
   9.000000E+99

> <Gold.Protein.RotatedTorsions>
[ 6907 6896 6895 6894 ] final  154.43 input  -60.11 | X-H torsion
[ 7974 7965 7964 7962 ] final  121.61 input  175.53 | X-H torsion
[ 8008 7997 7996 7995 ] final -126.69 input   59.86 | X-H torsion
[ 10167 10162 10161 10158 ] final -164.82 input  -65.29 | X-H torsion
[ 10718 10713 10712 10709 ] final  177.56 input   66.30 | X-H torsion
[ 10763 10752 10751 10750 ] final   83.82 input  -60.55 | X-H torsion
[ 11005 11000 10999 10996 ] final   48.26 input  -57.11 | X-H torsion

> <Gold.Protein.ActiveResidues>
 VAL166  LYS551  ARG553  GLY616  TRP617  ASP618  TYR619  PRO620  LYS621  CYS622 
 ASP623  PHE694  ASN695  SER759  ASP760  ASP761  ALA762  ILE779  LEU786  VAL792 
 PHE793  MET794  SER795  GLU796  ALA797  LYS798  CYS799  TRP800  GLU811  SER814 

> <Gold.Protein.RotatedAtoms>
  152.0586  133.4052  159.4407 H   0  0  0  0  0  0  0  0  0  0  0  0  # atno 6907 bound_to 6896
  150.6867  134.3226  159.4802 H   0  0  0  0  0  0  0  0  0  0  0  0  # atno 6908 bound_to 6896
  152.1044  134.9318  160.0619 H   0  0  0  0  0  0  0  0  0  0  0  0  # atno 6909 bound_to 6896
  145.1173  139.3412  143.4732 H   0  0  0  0  0  0  0  0  0  0  0  0  # atno 7974 bound_to 7965
  155.2338  140.0426  157.2966 H   0  0  0  0  0  0  0  0  0  0  0  0  # atno 8008 bound_to 7997
  154.5871  140.2417  155.7942 H   0  0  0  0  0  0  0  0  0  0  0  0  # atno 8009 bound_to 7997
  156.2234  140.2962  156.0016 H   0  0  0  0  0  0  0  0  0  0  0  0  # atno 8010 bound_to 7997
  139.6224  144.0598  152.1944 H   0  0  0  0  0  0  0  0  0  0  0  0  # atno 10167 bound_to 10162
  156.9036  130.9887  151.3032 H   0  0  0  0  0  0  0  0  0  0  0  0  # atno 10718 bound_to 10713
  153.1325  135.4677  154.9371 H   0  0  0  0  0  0  0  0  0  0  0  0  # atno 10763 bound_to 10752
  154.7677  135.3149  154.8255 H   0  0  0  0  0  0  0  0  0  0  0  0  # atno 10764 bound_to 10752
  153.8795  135.6895  153.4822 H   0  0  0  0  0  0  0  0  0  0  0  0  # atno 10765 bound_to 10752
  140.1206  134.4835  155.8601 H   0  0  0  0  0  0  0  0  0  0  0  0  # atno 11005 bound_to 11000
  146.3523  140.1117  142.8603 LP  0  0  0  0  0  0  0  0  0  0  0  0  # atno 17320 bound_to 7965
  145.0780  140.9201  143.4842 LP  0  0  0  0  0  0  0  0  0  0  0  0  # atno 17321 bound_to 7965
  140.0244  144.6129  150.7540 LP  0  0  0  0  0  0  0  0  0  0  0  0  # atno 17342 bound_to 10162
  140.7390  143.2786  151.3668 LP  0  0  0  0  0  0  0  0  0  0  0  0  # atno 17343 bound_to 10162
  157.6011  130.8513  149.8803 LP  0  0  0  0  0  0  0  0  0  0  0  0  # atno 17370 bound_to 10713
  156.0570  130.3706  150.1068 LP  0  0  0  0  0  0  0  0  0  0  0  0  # atno 17371 bound_to 10713
  141.2151  133.6759  156.6881 LP  0  0  0  0  0  0  0  0  0  0  0  0  # atno 17394 bound_to 11000
  140.2970  134.8194  157.4066 LP  0  0  0  0  0  0  0  0  0  0  0  0  # atno 17395 bound_to 11000

$$$$
