AV-unprocessed.smi:2546|AV-procd|sdf|10000|dock2
  -GOLD-   2272014 43D 1   1.00000     0.00000
 Structure written by MMmdl.
 16 16  0  0  0  0  0  0  0  0  3 V2000
  142.2705  132.7688  148.2157 N   0  3  0  0  0  0  0  0  0  0  0  0
  143.7246  132.7401  148.4398 C   0  0  0  0  0  0  0  0  0  0  0  0
  144.0609  132.3282  149.8777 C   0  0  0  0  0  0  0  0  0  0  0  0
  144.6570  133.4775  150.6584 C   0  0  0  0  0  0  0  0  0  0  0  0
  145.1568  133.3732  151.9041 N   0  0  0  0  0  0  0  0  0  0  0  0
  145.6177  134.5705  152.2110 N   0  5  0  0  0  0  0  0  0  0  0  0
  145.4038  135.3755  151.1612 C   0  0  0  0  0  0  0  0  0  0  0  0
  144.8131  134.7186  150.1742 N   0  0  0  0  0  0  0  0  0  0  0  0
  141.8712  131.8853  148.4987 H   0  0  0  0  0  0  0  0  0  0  0  0
  142.0849  132.9242  147.2352 H   0  0  0  0  0  0  0  0  0  0  0  0
  144.1763  132.0444  147.7317 H   0  0  0  0  0  0  0  0  0  0  0  0
  144.1318  133.7286  148.2249 H   0  0  0  0  0  0  0  0  0  0  0  0
  143.1650  131.9810  150.3943 H   0  0  0  0  0  0  0  0  0  0  0  0
  144.7684  131.4980  149.8801 H   0  0  0  0  0  0  0  0  0  0  0  0
  145.7058  136.4153  151.1817 H   0  0  0  0  0  0  0  0  0  0  0  0
  141.8611  133.5147  148.7598 H   0  0  0  0  0  0  0  0  0  0  0  0
  1  2  1  0  0  0  0
  1  9  1  0  0  0  0
  1 10  1  0  0  0  0
  1 16  1  0  0  0  0
  2  3  1  0  0  0  0
  2 11  1  0  0  0  0
  2 12  1  0  0  0  0
  3 13  1  0  0  0  0
  3 14  1  0  0  0  0
  3  4  1  0  0  0  0
  4  8  1  0  0  0  0
  4  5  2  0  0  0  0
  5  6  1  0  0  0  0
  6  7  1  0  0  0  0
  7  8  2  0  0  0  0
  7 15  1  0  0  0  0
M  CHG  1   1   1
M  CHG  1   6  -1
M  END
> <s_m_source_file>
AV-unprocessed.smi

> <i_m_source_file_index>
2546

> <i_lp_mmshare_version>
43012

> <i_f3d_flags>
0

> <s_epik_input>
W05IMl1bQ0gyXVtDSDJdYzFubltjSF1bbkhdMQ==

> <s_epik_cmdline>
J2VwaWtfcHl0aG9uJywgJy1waCcsICc3LjAnLCAnLXRuJywgJzgnLCAnLW1hJywgJzIwMCcsICctbWV0YWxfYmluZGluZycsICctaW1hZScsICc8aW5maWxlLm1hZT4nLCAnLW9tYWUnLCAnPG91dGZpbGUubWFlPic=

> <r_lp_tautomer_probability>
0.948284

> <r_epik_Ionization_Penalty>
6.40664

> <r_epik_Ionization_Penalty_Charging>
6.40664

> <r_epik_Ionization_Penalty_Neutral>
1.41162e-13

> <r_epik_State_Penalty>
2.81126

> <r_epik_Charging_Adjusted_Penalty>
9.2179

> <i_epik_Tot_Q>
0

> <i_epik_Tot_abs_Q>
2

> <r_epik_Metal_State_Penalty>
0.674554

> <b_epik_Metal_Only>
1

> <s_lp_Force_Field>
OPLS_2005

> <r_lp_Energy>
-3.27829

> <b_lp_Chiralities_Consistent>
1

> <s_lp_Variant>
AV-unprocessed.smi:2546-4

> <Gold.Version>
5.8.1

> <Gold.Id.Protein>
6NUR|6NUR_protein|mol2

> <Gold.PLP.Fitness>
32.8069

> <Gold.PLP.PLP>
-18.5631

> <Gold.PLP.part.hbond>
-3.0000

> <Gold.PLP.part.metal>
0.0000

> <Gold.PLP.part.buried>
-4.5542

> <Gold.PLP.part.nonpolar>
-12.1903

> <Gold.PLP.part.repulsive>
1.4131

> <Gold.PLP.ligand.clash>
0.0000

> <Gold.PLP.ligand.torsion>
0.3809

> <Gold.PLP.Chemscore.Hbond>
4.0000

> <Gold.PLP.Chemscore.CHOScore>
1.0000

> <Gold.PLP.Chemscore.Metal>
0.0000

> <Gold.Chemscore.Hbonds>
donor molecule, donor type, donor heavy atom, donor atom, acceptor molecule, acceptor atom, score
      L1  H     1     9       P1 10952  0.76
      L1  H     1    10       P1 10195  1.00
      L1  H     1    16       P1 10186  1.62

> <Gold.PLP.Chemscore.Internal.Correction>
0.0057

> <Gold.Rescore>
     Score         DG    S(hbond)    S(metal)    S(lipo)     H(rot)  DE(clash)    DE(int)     intcor
     12.99     -14.06       2.98        0.00      24.66       1.66       0.76       0.31       ----

> <Gold.Chemscore.Fitness>
12.9934

> <Gold.Chemscore.DG>
-14.0579

> <Gold.Chemscore.ZeroCoef>
-5.4800

> <Gold.Chemscore.Hbond>
2.9765

> <Gold.Chemscore.Metal>
0.0000

> <Gold.Chemscore.Lipo>
24.6554

> <Gold.Chemscore.Internal_Hbond>
0.0000

> <Gold.Chemscore.DEClash>
0.7593

> <Gold.Chemscore.DEInternal>
0.3052

> <Gold.Chemscore.Rot>
1.6595

> <Gold.Chemscore.Internal.Correction>
   9.000000E+99

> <Gold.Chemscore.Hbonds>
donor molecule, donor type, donor heavy atom, donor atom, acceptor molecule, acceptor atom, score
      L1  H     1     9       P1 10952  0.75
      L1  H     1    10       P1 10195  0.98
      L1  H     1    16       P1 10186  0.79

> <Gold.Chemscore.Hbond.Weighted>
-9.9416

> <Gold.Chemscore.Metal.Weighted>
-0.0000

> <Gold.Chemscore.Lipo.Weighted>
-2.8847

> <Gold.Chemscore.Internal_Hbond.Weighted>
0.0000

> <Gold.Chemscore.DEClash.Weighted>
0.7593

> <Gold.Chemscore.DEInternal.Weighted>
0.3052

> <Gold.Chemscore.Rot.Weighted>
4.2484

> <Gold.Chemscore.Internal.Correction.Weighted>
   9.000000E+99

> <Gold.Protein.RotatedTorsions>
[ 6907 6896 6895 6894 ] final  157.34 input  -60.11 | X-H torsion
[ 7974 7965 7964 7962 ] final  -87.76 input  175.53 | X-H torsion
[ 8008 7997 7996 7995 ] final  177.16 input   59.86 | X-H torsion
[ 10167 10162 10161 10158 ] final  -93.69 input  -65.29 | X-H torsion
[ 10718 10713 10712 10709 ] final  161.59 input   66.30 | X-H torsion
[ 10763 10752 10751 10750 ] final   -4.91 input  -60.55 | X-H torsion
[ 11005 11000 10999 10996 ] final   23.03 input  -57.11 | X-H torsion

> <Gold.Protein.ActiveResidues>
 VAL166  LYS551  ARG553  GLY616  TRP617  ASP618  TYR619  PRO620  LYS621  CYS622 
 ASP623  PHE694  ASN695  SER759  ASP760  ASP761  ALA762  ILE779  LEU786  VAL792 
 PHE793  MET794  SER795  GLU796  ALA797  LYS798  CYS799  TRP800  GLU811  SER814 

> <Gold.Protein.RotatedAtoms>
  152.0166  133.3882  159.4240 H   0  0  0  0  0  0  0  0  0  0  0  0  # atno 6907 bound_to 6896
  150.6894  134.3672  159.4985 H   0  0  0  0  0  0  0  0  0  0  0  0  # atno 6908 bound_to 6896
  152.1440  134.9040  160.0603 H   0  0  0  0  0  0  0  0  0  0  0  0  # atno 6909 bound_to 6896
  145.4622  140.9561  143.1963 H   0  0  0  0  0  0  0  0  0  0  0  0  # atno 7974 bound_to 7965
  156.0687  140.1365  156.9855 H   0  0  0  0  0  0  0  0  0  0  0  0  # atno 8008 bound_to 7997
  154.4520  140.0976  156.6698 H   0  0  0  0  0  0  0  0  0  0  0  0  # atno 8009 bound_to 7997
  155.5262  140.3457  155.4419 H   0  0  0  0  0  0  0  0  0  0  0  0  # atno 8010 bound_to 7997
  140.3220  143.3043  152.0035 H   0  0  0  0  0  0  0  0  0  0  0  0  # atno 10167 bound_to 10162
  157.1343  131.0524  151.2356 H   0  0  0  0  0  0  0  0  0  0  0  0  # atno 10718 bound_to 10713
  153.3914  135.7002  153.6492 H   0  0  0  0  0  0  0  0  0  0  0  0  # atno 10763 bound_to 10752
  153.5063  135.3641  155.2565 H   0  0  0  0  0  0  0  0  0  0  0  0  # atno 10764 bound_to 10752
  154.8702  135.4124  154.3231 H   0  0  0  0  0  0  0  0  0  0  0  0  # atno 10765 bound_to 10752
  140.3741  134.1991  155.7665 H   0  0  0  0  0  0  0  0  0  0  0  0  # atno 11005 bound_to 11000
  144.7996  139.6167  143.7077 LP  0  0  0  0  0  0  0  0  0  0  0  0  # atno 17320 bound_to 7965
  146.2445  139.6069  142.9469 LP  0  0  0  0  0  0  0  0  0  0  0  0  # atno 17321 bound_to 7965
  139.4872  144.6303  151.7083 LP  0  0  0  0  0  0  0  0  0  0  0  0  # atno 17342 bound_to 10162
  140.5474  144.0480  150.6113 LP  0  0  0  0  0  0  0  0  0  0  0  0  # atno 17343 bound_to 10162
  157.4364  130.7519  149.7032 LP  0  0  0  0  0  0  0  0  0  0  0  0  # atno 17370 bound_to 10713
  155.9801  130.4033  150.3546 LP  0  0  0  0  0  0  0  0  0  0  0  0  # atno 17371 bound_to 10713
  141.1945  133.8127  157.0755 LP  0  0  0  0  0  0  0  0  0  0  0  0  # atno 17394 bound_to 11000
  140.0529  134.9796  157.1168 LP  0  0  0  0  0  0  0  0  0  0  0  0  # atno 17395 bound_to 11000

$$$$
