AV-unprocessed.smi:69|AV-procd|sdf|655|dock9
  -GOLD-   2262016553D 1   1.00000     0.00000
 Structure written by MMmdl.
 32 34  0  0  0  0  0  0  0  0  1 V2000
  153.1633  142.5328  160.0872 N   0  0  0  0  0  0  0  0  0  0  0  0
  152.4756  142.1404  159.0062 C   0  0  0  0  0  0  0  0  0  0  0  0
  151.6121  143.0160  158.4400 N   0  0  0  0  0  0  0  0  0  0  0  0
  150.9133  142.6480  157.3606 C   0  0  0  0  0  0  0  0  0  0  0  0
  150.9320  141.4812  156.7100 N   0  0  0  0  0  0  0  0  0  0  0  0
  151.8043  140.6018  157.2841 C   0  0  0  0  0  0  0  0  0  0  0  0
  152.6100  140.8531  158.4282 C   0  0  0  0  0  0  0  0  0  0  0  0
  153.3727  139.7315  158.7241 N   0  0  0  0  0  0  0  0  0  0  0  0
  153.0330  138.8688  157.8037 C   0  0  0  0  0  0  0  0  0  0  0  0
  152.0984  139.3138  156.8916 N   0  0  0  0  0  0  0  0  0  0  0  0
  151.4976  138.5910  155.7235 C   0  0  2  0  0  0  0  0  0  0  0  0
  150.9702  139.5563  154.8621 O   0  0  0  0  0  0  0  0  0  0  0  0
  149.5696  139.3611  154.6672 C   0  0  2  0  0  0  0  0  0  0  0  0
  148.8475  140.7032  154.4537 C   0  0  0  0  0  0  0  0  0  0  0  0
  149.2023  141.2506  153.2020 O   0  0  0  0  0  0  0  0  0  0  0  0
  149.1113  138.5465  155.8853 C   0  0  2  0  0  0  0  0  0  0  0  0
  148.7878  139.3847  156.9826 O   0  0  0  0  0  0  0  0  0  0  0  0
  150.3328  137.6777  156.1501 C   0  0  2  0  0  0  0  0  0  0  0  0
  150.3913  137.1857  157.4777 O   0  0  0  0  0  0  0  0  0  0  0  0
  152.3310  138.0592  155.2626 H   0  0  0  0  0  0  0  0  0  0  0  0
  149.4457  138.7289  153.7857 H   0  0  0  0  0  0  0  0  0  0  0  0
  148.2326  137.9431  155.6552 H   0  0  0  0  0  0  0  0  0  0  0  0
  150.3176  136.8304  155.4635 H   0  0  0  0  0  0  0  0  0  0  0  0
  153.8135  141.8975  160.5269 H   0  0  0  0  0  0  0  0  0  0  0  0
  153.0291  143.4612  160.4608 H   0  0  0  0  0  0  0  0  0  0  0  0
  150.2438  143.3954  156.9611 H   0  0  0  0  0  0  0  0  0  0  0  0
  153.4612  137.8780  157.7670 H   0  0  0  0  0  0  0  0  0  0  0  0
  147.7677  140.5519  154.4473 H   0  0  0  0  0  0  0  0  0  0  0  0
  149.0735  141.4097  155.2528 H   0  0  0  0  0  0  0  0  0  0  0  0
  149.2528  140.5489  152.5710 H   0  0  0  0  0  0  0  0  0  0  0  0
  148.4058  140.1810  156.6462 H   0  0  0  0  0  0  0  0  0  0  0  0
  149.5565  136.7931  157.6840 H   0  0  0  0  0  0  0  0  0  0  0  0
  1  2  1  0  0  0  0
  1 24  1  0  0  0  0
  1 25  1  0  0  0  0
  2  7  1  0  0  0  0
  2  3  2  0  0  0  0
  3  4  1  0  0  0  0
  4  5  2  0  0  0  0
  4 26  1  0  0  0  0
  5  6  1  0  0  0  0
  6 10  1  0  0  0  0
  6  7  2  0  0  0  0
  7  8  1  0  0  0  0
  8  9  2  0  0  0  0
  9 10  1  0  0  0  0
  9 27  1  0  0  0  0
 10 11  1  0  0  0  0
 11 20  1  0  0  0  0
 11 18  1  0  0  0  0
 11 12  1  0  0  0  0
 12 13  1  0  0  0  0
 13 21  1  0  0  0  0
 13 14  1  0  0  0  0
 13 16  1  0  0  0  0
 14 15  1  0  0  0  0
 14 28  1  0  0  0  0
 14 29  1  0  0  0  0
 15 30  1  0  0  0  0
 16 22  1  0  0  0  0
 16 17  1  0  0  0  0
 16 18  1  0  0  0  0
 17 31  1  0  0  0  0
 18 23  1  0  0  0  0
 18 19  1  0  0  0  0
 19 32  1  0  0  0  0
M  END
> <s_m_source_file>
AV-unprocessed.smi

> <i_m_source_file_index>
69

> <i_lp_mmshare_version>
43012

> <i_f3d_flags>
0

> <s_epik_input>
bjFbY0hdbmMoW05IMl0pYyhjMTIpbltjSF1uMltDQEBIXTNPW0NASF0oW0NIMl1bT0hdKVtDQEBIXShbT0hdKVtDQEhdM1tPSF0=

> <s_epik_cmdline>
J2VwaWtfcHl0aG9uJywgJy1waCcsICc3LjAnLCAnLXRuJywgJzgnLCAnLW1hJywgJzIwMCcsICctbWV0YWxfYmluZGluZycsICctaW1hZScsICc8aW5maWxlLm1hZT4nLCAnLW9tYWUnLCAnPG91dGZpbGUubWFlPic=

> <r_lp_tautomer_probability>
1

> <r_epik_Ionization_Penalty>
0.000428445

> <r_epik_Ionization_Penalty_Charging>
0

> <r_epik_Ionization_Penalty_Neutral>
0.000428445

> <r_epik_State_Penalty>
-0

> <r_epik_Charging_Adjusted_Penalty>
0

> <i_epik_Tot_Q>
0

> <i_epik_Tot_abs_Q>
0

> <r_epik_Metal_State_Penalty>
-0

> <b_epik_Metal_Only>
0

> <s_epik_Chemistry_Notes>
This compound contains an acetal/aminal-like group ( X-CH(R)-Y where X, Y are N, S, or O) that may be acid/base labile, releasing an aldehyde.

> <s_lp_Force_Field>
OPLS_2005

> <r_lp_Energy>
42.2813

> <b_lp_Chiralities_Consistent>
1

> <s_lp_Variant>
AV-unprocessed.smi:69-13

> <Gold.Version>
5.8.1

> <Gold.Id.Protein>
6NUR|6NUR_protein|mol2

> <Gold.PLP.Fitness>
34.8454

> <Gold.PLP.PLP>
-23.8188

> <Gold.PLP.part.hbond>
-4.5278

> <Gold.PLP.part.metal>
0.0000

> <Gold.PLP.part.buried>
-4.2063

> <Gold.PLP.part.nonpolar>
-15.6910

> <Gold.PLP.part.repulsive>
0.1967

> <Gold.PLP.ligand.clash>
0.0000

> <Gold.PLP.ligand.torsion>
0.6429

> <Gold.PLP.Chemscore.Hbond>
2.9760

> <Gold.PLP.Chemscore.CHOScore>
1.0000

> <Gold.PLP.Chemscore.Metal>
0.0000

> <Gold.Chemscore.Hbonds>
donor molecule, donor type, donor heavy atom, donor atom, acceptor molecule, acceptor atom, score
      L1  H    15    30       P1  7957  0.99
      P1  H  7989  7998       L1    12  1.00
      P1  H  8011  8017       L1    15  0.95
      L1  C     4    26       P1  8028  1.00

> <Gold.PLP.Chemscore.Internal.Correction>
0.3843

> <Gold.Rescore>
     Score         DG    S(hbond)    S(metal)    S(lipo)     H(rot)  DE(clash)    DE(int)     intcor
      2.54      -4.81       2.02        0.00      24.75       4.03       0.05       2.22       ----

> <Gold.Chemscore.Fitness>
2.5411

> <Gold.Chemscore.DG>
-4.8127

> <Gold.Chemscore.ZeroCoef>
-5.4800

> <Gold.Chemscore.Hbond>
2.0203

> <Gold.Chemscore.Metal>
0.0000

> <Gold.Chemscore.Lipo>
24.7512

> <Gold.Chemscore.Internal_Hbond>
0.0000

> <Gold.Chemscore.DEClash>
0.0502

> <Gold.Chemscore.DEInternal>
2.2214

> <Gold.Chemscore.Rot>
4.0277

> <Gold.Chemscore.Internal.Correction>
   9.000000E+99

> <Gold.Chemscore.Hbonds>
donor molecule, donor type, donor heavy atom, donor atom, acceptor molecule, acceptor atom, score
      L1  H    15    30       P1  7957  0.87
      P1  H  7989  7998       L1    12  0.67
      P1  H  8011  8017       L1    15  0.21

> <Gold.Chemscore.Hbond.Weighted>
-6.7478

> <Gold.Chemscore.Metal.Weighted>
-0.0000

> <Gold.Chemscore.Lipo.Weighted>
-2.8959

> <Gold.Chemscore.Internal_Hbond.Weighted>
0.0000

> <Gold.Chemscore.DEClash.Weighted>
0.0502

> <Gold.Chemscore.DEInternal.Weighted>
2.2214

> <Gold.Chemscore.Rot.Weighted>
10.3110

> <Gold.Chemscore.Internal.Correction.Weighted>
   9.000000E+99

> <Gold.Protein.RotatedTorsions>
[ 6907 6896 6895 6894 ] final -132.36 input  -60.11 | X-H torsion
[ 7974 7965 7964 7962 ] final   64.62 input  175.53 | X-H torsion
[ 8008 7997 7996 7995 ] final -105.75 input   59.86 | X-H torsion
[ 10167 10162 10161 10158 ] final  102.49 input  -65.29 | X-H torsion
[ 10718 10713 10712 10709 ] final -149.09 input   66.30 | X-H torsion
[ 10763 10752 10751 10750 ] final -137.65 input  -60.55 | X-H torsion
[ 11005 11000 10999 10996 ] final  171.92 input  -57.11 | X-H torsion

> <Gold.Protein.ActiveResidues>
 VAL166  LYS551  ARG553  GLY616  TRP617  ASP618  TYR619  PRO620  LYS621  CYS622 
 ASP623  PHE694  ASN695  SER759  ASP760  ASP761  ALA762  ILE779  LEU786  VAL792 
 PHE793  MET794  SER795  GLU796  ALA797  LYS798  CYS799  TRP800  GLU811  SER814 

> <Gold.Protein.RotatedAtoms>
  150.9615  133.6440  159.2753 H   0  0  0  0  0  0  0  0  0  0  0  0  # atno 6907 bound_to 6896
  151.3761  135.0930  159.9491 H   0  0  0  0  0  0  0  0  0  0  0  0  # atno 6908 bound_to 6896
  152.5149  133.9159  159.7565 H   0  0  0  0  0  0  0  0  0  0  0  0  # atno 6909 bound_to 6896
  145.8480  139.3236  143.0892 H   0  0  0  0  0  0  0  0  0  0  0  0  # atno 7974 bound_to 7965
  154.9045  140.0412  157.1911 H   0  0  0  0  0  0  0  0  0  0  0  0  # atno 8008 bound_to 7997
  154.8410  140.2914  155.5638 H   0  0  0  0  0  0  0  0  0  0  0  0  # atno 8009 bound_to 7997
  156.2992  140.2482  156.3353 H   0  0  0  0  0  0  0  0  0  0  0  0  # atno 8010 bound_to 7997
  139.7346  144.7027  151.0669 H   0  0  0  0  0  0  0  0  0  0  0  0  # atno 10167 bound_to 10162
  156.4286  130.8064  151.2290 H   0  0  0  0  0  0  0  0  0  0  0  0  # atno 10718 bound_to 10713
  154.8656  135.3635  154.5258 H   0  0  0  0  0  0  0  0  0  0  0  0  # atno 10763 bound_to 10752
  153.5886  135.7016  153.5437 H   0  0  0  0  0  0  0  0  0  0  0  0  # atno 10764 bound_to 10752
  153.3393  135.4102  155.1521 H   0  0  0  0  0  0  0  0  0  0  0  0  # atno 10765 bound_to 10752
  140.3242  134.7412  157.4087 H   0  0  0  0  0  0  0  0  0  0  0  0  # atno 11005 bound_to 11000
  145.9389  140.8994  143.0318 LP  0  0  0  0  0  0  0  0  0  0  0  0  # atno 17320 bound_to 7965
  144.6730  140.1522  143.7429 LP  0  0  0  0  0  0  0  0  0  0  0  0  # atno 17321 bound_to 7965
  140.7776  143.5001  150.9783 LP  0  0  0  0  0  0  0  0  0  0  0  0  # atno 17342 bound_to 10162
  139.8689  143.7218  152.3168 LP  0  0  0  0  0  0  0  0  0  0  0  0  # atno 17343 bound_to 10162
  157.7508  131.0205  150.3713 LP  0  0  0  0  0  0  0  0  0  0  0  0  # atno 17370 bound_to 10713
  156.4045  130.3922  149.6935 LP  0  0  0  0  0  0  0  0  0  0  0  0  # atno 17371 bound_to 10713
  140.0916  134.5594  155.8439 LP  0  0  0  0  0  0  0  0  0  0  0  0  # atno 17394 bound_to 11000
  141.2079  133.6669  156.6337 LP  0  0  0  0  0  0  0  0  0  0  0  0  # atno 17395 bound_to 11000

$$$$
