AV-unprocessed.smi:1604|AV-procd|sdf|6449|dock3
  -GOLD-   22720 7103D 1   1.00000     0.00000
 Structure written by MMmdl.
 47 49  0  0  0  0  0  0  0  0  2 V2000
  149.3985  140.5364  157.2673 O   0  0  0  0  0  0  0  0  0  0  0  0
  149.2569  141.6972  156.8824 C   0  0  0  0  0  0  0  0  0  0  0  0
  148.5928  142.0645  155.7749 N   0  0  0  0  0  0  0  0  0  0  0  0
  148.0281  141.2082  154.7906 C   0  0  0  0  0  0  0  0  0  0  0  0
  148.6622  139.9887  154.4424 C   0  0  0  0  0  0  0  0  0  0  0  0
  148.0509  139.1186  153.5204 C   0  0  0  0  0  0  0  0  0  0  0  0
  146.8067  139.4745  152.9721 C   0  0  0  0  0  0  0  0  0  0  0  0
  146.2245  140.6373  153.3317 N   0  3  0  0  0  0  0  0  0  0  0  0
  146.7695  141.5242  154.2020 C   0  0  0  0  0  0  0  0  0  0  0  0
  146.0525  142.7125  154.4719 N   0  0  0  0  0  0  0  0  0  0  0  0
  144.9206  142.6988  155.3912 C   0  0  0  0  0  0  0  0  0  0  0  0
  144.2063  144.0274  155.1589 C   0  0  0  0  0  0  0  0  0  0  0  0
  144.3966  144.2437  153.6607 C   0  0  0  0  0  0  0  0  0  0  0  0
  145.7759  143.6388  153.3774 C   0  0  0  0  0  0  0  0  0  0  0  0
  149.7788  142.7610  157.5109 N   0  0  0  0  0  0  0  0  0  0  0  0
  150.6465  142.7079  158.6897 C   0  0  2  0  0  0  0  0  0  0  0  0
  151.2278  144.1239  158.9062 C   0  0  0  0  0  0  0  0  0  0  0  0
  151.7100  144.3835  160.3440 C   0  0  0  0  0  0  0  0  0  0  0  0
  152.9020  143.5253  160.7943 C   0  0  0  0  0  0  0  0  0  0  0  0
  152.6052  142.0161  160.8156 C   0  0  0  0  0  0  0  0  0  0  0  0
  152.6341  141.4325  159.4808 N   0  0  0  0  0  0  0  0  0  0  0  0
  151.8073  141.7112  158.4616 C   0  0  0  0  0  0  0  0  0  0  0  0
  151.9756  141.1837  157.3615 O   0  0  0  0  0  0  0  0  0  0  0  0
  148.6358  143.0437  155.5331 H   0  0  0  0  0  0  0  0  0  0  0  0
  149.6026  139.6999  154.8883 H   0  0  0  0  0  0  0  0  0  0  0  0
  148.5248  138.1868  153.2482 H   0  0  0  0  0  0  0  0  0  0  0  0
  146.2609  138.8679  152.2639 H   0  0  0  0  0  0  0  0  0  0  0  0
  144.2468  141.8751  155.1519 H   0  0  0  0  0  0  0  0  0  0  0  0
  145.2463  142.5896  156.4260 H   0  0  0  0  0  0  0  0  0  0  0  0
  143.1584  144.0051  155.4585 H   0  0  0  0  0  0  0  0  0  0  0  0
  144.7033  144.8228  155.7163 H   0  0  0  0  0  0  0  0  0  0  0  0
  143.6332  143.6900  153.1123 H   0  0  0  0  0  0  0  0  0  0  0  0
  144.3254  145.2919  153.3683 H   0  0  0  0  0  0  0  0  0  0  0  0
  146.5331  144.4233  153.3813 H   0  0  0  0  0  0  0  0  0  0  0  0
  145.7999  143.1465  152.4041 H   0  0  0  0  0  0  0  0  0  0  0  0
  149.6116  143.6754  157.1177 H   0  0  0  0  0  0  0  0  0  0  0  0
  150.0554  142.4061  159.5563 H   0  0  0  0  0  0  0  0  0  0  0  0
  152.0308  144.3307  158.1962 H   0  0  0  0  0  0  0  0  0  0  0  0
  150.4538  144.8627  158.6922 H   0  0  0  0  0  0  0  0  0  0  0  0
  151.9886  145.4341  160.4310 H   0  0  0  0  0  0  0  0  0  0  0  0
  150.8788  144.2400  161.0356 H   0  0  0  0  0  0  0  0  0  0  0  0
  153.7721  143.7296  160.1688 H   0  0  0  0  0  0  0  0  0  0  0  0
  153.1803  143.8357  161.8022 H   0  0  0  0  0  0  0  0  0  0  0  0
  153.3700  141.5087  161.4037 H   0  0  0  0  0  0  0  0  0  0  0  0
  151.6531  141.8066  161.3050 H   0  0  0  0  0  0  0  0  0  0  0  0
  153.3748  140.7699  159.3018 H   0  0  0  0  0  0  0  0  0  0  0  0
  145.3221  140.8672  152.9153 H   0  0  0  0  0  0  0  0  0  0  0  0
  1  2  2  0  0  0  0
  2  3  1  0  0  0  0
  2 15  1  0  0  0  0
  3  4  1  0  0  0  0
  3 24  1  0  0  0  0
  4  9  1  0  0  0  0
  4  5  2  0  0  0  0
  5  6  1  0  0  0  0
  5 25  1  0  0  0  0
  6  7  2  0  0  0  0
  6 26  1  0  0  0  0
  7  8  1  0  0  0  0
  7 27  1  0  0  0  0
  8  9  2  0  0  0  0
  8 47  1  0  0  0  0
  9 10  1  0  0  0  0
 10 14  1  0  0  0  0
 10 11  1  0  0  0  0
 11 12  1  0  0  0  0
 11 28  1  0  0  0  0
 11 29  1  0  0  0  0
 12 13  1  0  0  0  0
 12 30  1  0  0  0  0
 12 31  1  0  0  0  0
 13 14  1  0  0  0  0
 13 32  1  0  0  0  0
 13 33  1  0  0  0  0
 14 34  1  0  0  0  0
 14 35  1  0  0  0  0
 15 16  1  0  0  0  0
 15 36  1  0  0  0  0
 16 22  1  0  0  0  0
 16 17  1  0  0  0  0
 16 37  1  0  0  0  0
 17 18  1  0  0  0  0
 17 38  1  0  0  0  0
 17 39  1  0  0  0  0
 18 19  1  0  0  0  0
 18 40  1  0  0  0  0
 18 41  1  0  0  0  0
 19 20  1  0  0  0  0
 19 42  1  0  0  0  0
 19 43  1  0  0  0  0
 20 21  1  0  0  0  0
 20 44  1  0  0  0  0
 20 45  1  0  0  0  0
 21 22  1  0  0  0  0
 21 46  1  0  0  0  0
 22 23  2  0  0  0  0
M  CHG  1   8   1
M  END
> <s_m_source_file>
AV-unprocessed.smi

> <i_m_source_file_index>
1604

> <i_lp_mmshare_version>
43012

> <i_f3d_flags>
0

> <s_epik_input>
Tz1DMVtOSF1bQ0gyXVtDSDJdW0NIMl1bQ0gyXVtDQEhdMVtOSF1DKD1PKVtOSF1jMltjSF1bY0hdW2NIXW5jMk4zW0NIMl1bQ0gyXVtDSDJdW0NIMl0z

> <s_epik_cmdline>
J2VwaWtfcHl0aG9uJywgJy1waCcsICc3LjAnLCAnLXRuJywgJzgnLCAnLW1hJywgJzIwMCcsICctbWV0YWxfYmluZGluZycsICctaW1hZScsICc8aW5maWxlLm1hZT4nLCAnLW9tYWUnLCAnPG91dGZpbGUubWFlPic=

> <r_lp_tautomer_probability>
0.999994

> <r_epik_Ionization_Penalty>
1.20452

> <r_epik_Ionization_Penalty_Charging>
1.2045

> <r_epik_Ionization_Penalty_Neutral>
1.88134e-05

> <r_epik_State_Penalty>
1.2704

> <r_epik_Charging_Adjusted_Penalty>
2.4749

> <i_epik_Tot_Q>
1

> <i_epik_Tot_abs_Q>
1

> <r_epik_Metal_State_Penalty>
1.34433

> <b_epik_Metal_Only>
0

> <s_lp_Force_Field>
OPLS_2005

> <r_lp_Energy>
45.117

> <b_lp_Chiralities_Consistent>
1

> <s_lp_Variant>
AV-unprocessed.smi:1604-3

> <Gold.Version>
5.8.1

> <Gold.Id.Protein>
6NUR|6NUR_protein|mol2

> <Gold.PLP.Fitness>
49.3270

> <Gold.PLP.PLP>
-38.3344

> <Gold.PLP.part.hbond>
-3.0000

> <Gold.PLP.part.metal>
0.0000

> <Gold.PLP.part.buried>
-3.2064

> <Gold.PLP.part.nonpolar>
-33.1554

> <Gold.PLP.part.repulsive>
0.4759

> <Gold.PLP.ligand.clash>
0.0000

> <Gold.PLP.ligand.torsion>
0.6334

> <Gold.PLP.Chemscore.Hbond>
3.9600

> <Gold.PLP.Chemscore.CHOScore>
0.0000

> <Gold.PLP.Chemscore.Metal>
0.0000

> <Gold.Chemscore.Hbonds>
donor molecule, donor type, donor heavy atom, donor atom, acceptor molecule, acceptor atom, score
      L1  H     3    24       P1  8028  1.00
      L1  H     8    47       P1 10175  2.00
      L1  H    15    36       P1  8028  0.98

> <Gold.PLP.Chemscore.Internal.Correction>
0.3793

> <Gold.Rescore>
     Score         DG    S(hbond)    S(metal)    S(lipo)     H(rot)  DE(clash)    DE(int)     intcor
     15.67     -23.10       2.80        0.00      98.19       1.26       1.59       5.83       ----

> <Gold.Chemscore.Fitness>
15.6694

> <Gold.Chemscore.DG>
-23.0956

> <Gold.Chemscore.ZeroCoef>
-5.4800

> <Gold.Chemscore.Hbond>
2.7976

> <Gold.Chemscore.Metal>
0.0000

> <Gold.Chemscore.Lipo>
98.1928

> <Gold.Chemscore.Internal_Hbond>
0.0000

> <Gold.Chemscore.DEClash>
1.5932

> <Gold.Chemscore.DEInternal>
5.8330

> <Gold.Chemscore.Rot>
1.2566

> <Gold.Chemscore.Internal.Correction>
   9.000000E+99

> <Gold.Chemscore.Hbonds>
donor molecule, donor type, donor heavy atom, donor atom, acceptor molecule, acceptor atom, score
      L1  H     3    24       P1  8028  1.00
      L1  H     8    47       P1 10175  0.39
      L1  H    15    36       P1  8028  0.82

> <Gold.Chemscore.Hbond.Weighted>
-9.3439

> <Gold.Chemscore.Metal.Weighted>
-0.0000

> <Gold.Chemscore.Lipo.Weighted>
-11.4886

> <Gold.Chemscore.Internal_Hbond.Weighted>
0.0000

> <Gold.Chemscore.DEClash.Weighted>
1.5932

> <Gold.Chemscore.DEInternal.Weighted>
5.8330

> <Gold.Chemscore.Rot.Weighted>
3.2168

> <Gold.Chemscore.Internal.Correction.Weighted>
   9.000000E+99

> <Gold.Protein.RotatedTorsions>
[ 6907 6896 6895 6894 ] final  103.30 input  -60.11 | X-H torsion
[ 7974 7965 7964 7962 ] final  -85.77 input  175.53 | X-H torsion
[ 8008 7997 7996 7995 ] final   81.19 input   59.86 | X-H torsion
[ 10167 10162 10161 10158 ] final  116.59 input  -65.29 | X-H torsion
[ 10718 10713 10712 10709 ] final  -24.33 input   66.30 | X-H torsion
[ 10763 10752 10751 10750 ] final  -86.36 input  -60.55 | X-H torsion
[ 11005 11000 10999 10996 ] final  162.97 input  -57.11 | X-H torsion

> <Gold.Protein.ActiveResidues>
 VAL166  LYS551  ARG553  GLY616  TRP617  ASP618  TYR619  PRO620  LYS621  CYS622 
 ASP623  PHE694  ASN695  SER759  ASP760  ASP761  ALA762  ILE779  LEU786  VAL792 
 PHE793  MET794  SER795  GLU796  ALA797  LYS798  CYS799  TRP800  GLU811  SER814 

> <Gold.Protein.RotatedAtoms>
  152.5299  133.9846  159.7822 H   0  0  0  0  0  0  0  0  0  0  0  0  # atno 6907 bound_to 6896
  151.0093  133.5972  159.2692 H   0  0  0  0  0  0  0  0  0  0  0  0  # atno 6908 bound_to 6896
  151.3052  135.0786  159.9306 H   0  0  0  0  0  0  0  0  0  0  0  0  # atno 6909 bound_to 6896
  145.4888  140.9554  143.1823 H   0  0  0  0  0  0  0  0  0  0  0  0  # atno 7974 bound_to 7965
  155.8937  140.3437  155.5975 H   0  0  0  0  0  0  0  0  0  0  0  0  # atno 8008 bound_to 7997
  155.7581  140.0829  157.2188 H   0  0  0  0  0  0  0  0  0  0  0  0  # atno 8009 bound_to 7997
  154.4036  140.1541  156.2788 H   0  0  0  0  0  0  0  0  0  0  0  0  # atno 8010 bound_to 7997
  139.6236  144.7105  151.2580 H   0  0  0  0  0  0  0  0  0  0  0  0  # atno 10167 bound_to 10162
  156.4791  130.4541  149.6822 H   0  0  0  0  0  0  0  0  0  0  0  0  # atno 10718 bound_to 10713
  154.6215  135.5452  153.7581 H   0  0  0  0  0  0  0  0  0  0  0  0  # atno 10763 bound_to 10752
  153.0241  135.6414  154.1433 H   0  0  0  0  0  0  0  0  0  0  0  0  # atno 10764 bound_to 10752
  154.1367  135.2911  155.3151 H   0  0  0  0  0  0  0  0  0  0  0  0  # atno 10765 bound_to 10752
  140.2311  134.8123  157.3318 H   0  0  0  0  0  0  0  0  0  0  0  0  # atno 11005 bound_to 11000
  144.7846  139.6454  143.7140 LP  0  0  0  0  0  0  0  0  0  0  0  0  # atno 17320 bound_to 7965
  146.2296  139.5789  142.9564 LP  0  0  0  0  0  0  0  0  0  0  0  0  # atno 17321 bound_to 7965
  140.7397  143.6609  150.8165 LP  0  0  0  0  0  0  0  0  0  0  0  0  # atno 17342 bound_to 10162
  140.0223  143.5529  152.2795 LP  0  0  0  0  0  0  0  0  0  0  0  0  # atno 17343 bound_to 10162
  156.3540  130.7447  151.2410 LP  0  0  0  0  0  0  0  0  0  0  0  0  # atno 17370 bound_to 10713
  157.7485  131.0369  150.4431 LP  0  0  0  0  0  0  0  0  0  0  0  0  # atno 17371 bound_to 10713
  140.1749  134.4562  155.7808 LP  0  0  0  0  0  0  0  0  0  0  0  0  # atno 17394 bound_to 11000
  141.2217  133.6958  156.7771 LP  0  0  0  0  0  0  0  0  0  0  0  0  # atno 17395 bound_to 11000

$$$$
