AV-unprocessed.smi:1464|AV-procd|sdf|5938|dock8
  -GOLD-   22720 6 23D 1   1.00000     0.00000
 Structure written by MMmdl.
 40 41  0  0  0  0  0  0  0  0  2 V2000
  149.9355  143.7516  159.2783 C   0  0  0  0  0  0  0  0  0  0  0  0
  151.4271  144.0068  158.9789 C   0  0  1  0  0  0  0  0  0  0  0  0
  152.0641  144.9441  160.0245 C   0  0  0  0  0  0  0  0  0  0  0  0
  152.2677  144.2467  161.3783 C   0  0  0  0  0  0  0  0  0  0  0  0
  153.1068  142.9712  161.2224 C   0  0  0  0  0  0  0  0  0  0  0  0
  152.5056  142.0046  160.1805 C   0  0  2  0  0  0  0  0  0  0  0  0
  153.4010  140.8626  160.0084 N   0  0  0  0  0  0  0  0  0  0  0  0
  153.0347  139.6291  159.6276 C   0  0  0  0  0  0  0  0  0  0  0  0
  151.8690  139.3211  159.3743 O   0  0  0  0  0  0  0  0  0  0  0  0
  154.1763  138.6046  159.5296 C   0  0  0  0  0  0  0  0  0  0  0  0
  154.5229  137.9545  160.8022 N   0  0  0  0  0  0  0  0  0  0  0  0
  155.0302  138.8767  161.8151 N   0  5  0  0  0  0  0  0  0  0  0  0
  155.3837  138.3919  163.0349 C   0  0  0  0  0  0  0  0  0  0  0  0
  155.8262  139.1048  163.9327 O   0  0  0  0  0  0  0  0  0  0  0  0
  155.2240  136.9677  163.2776 C   0  0  0  0  0  0  0  0  0  0  0  0
  154.7369  136.1426  162.3300 C   0  0  0  0  0  0  0  0  0  0  0  0
  154.3432  136.6186  161.0095 C   0  0  0  0  0  0  0  0  0  0  0  0
  153.8831  135.8727  160.1446 O   0  0  0  0  0  0  0  0  0  0  0  0
  152.2745  142.7157  158.8215 C   0  0  1  0  0  0  0  0  0  0  0  0
  151.7107  141.7727  157.7399 C   0  0  0  0  0  0  0  0  0  0  0  0
  149.7908  143.1724  160.1897 H   0  0  0  0  0  0  0  0  0  0  0  0
  149.4501  143.2130  158.4647 H   0  0  0  0  0  0  0  0  0  0  0  0
  149.3979  144.6925  159.3994 H   0  0  0  0  0  0  0  0  0  0  0  0
  151.4592  144.5341  158.0245 H   0  0  0  0  0  0  0  0  0  0  0  0
  153.0305  145.2895  159.6546 H   0  0  0  0  0  0  0  0  0  0  0  0
  151.4545  145.8390  160.1531 H   0  0  0  0  0  0  0  0  0  0  0  0
  152.7589  144.9274  162.0742 H   0  0  0  0  0  0  0  0  0  0  0  0
  151.3030  144.0014  161.8229 H   0  0  0  0  0  0  0  0  0  0  0  0
  154.1202  143.2458  160.9257 H   0  0  0  0  0  0  0  0  0  0  0  0
  153.1950  142.4735  162.1890 H   0  0  0  0  0  0  0  0  0  0  0  0
  151.5422  141.6469  160.5479 H   0  0  0  0  0  0  0  0  0  0  0  0
  154.3807  141.0233  160.1918 H   0  0  0  0  0  0  0  0  0  0  0  0
  153.8969  137.8533  158.7884 H   0  0  0  0  0  0  0  0  0  0  0  0
  155.0572  139.1020  159.1200 H   0  0  0  0  0  0  0  0  0  0  0  0
  155.5005  136.5630  164.2399 H   0  0  0  0  0  0  0  0  0  0  0  0
  154.6347  135.0915  162.5546 H   0  0  0  0  0  0  0  0  0  0  0  0
  153.2536  143.0367  158.4613 H   0  0  0  0  0  0  0  0  0  0  0  0
  150.7852  141.2969  158.0651 H   0  0  0  0  0  0  0  0  0  0  0  0
  152.4155  140.9780  157.4948 H   0  0  0  0  0  0  0  0  0  0  0  0
  151.5034  142.3139  156.8165 H   0  0  0  0  0  0  0  0  0  0  0  0
  1  2  1  0  0  0  0
  1 21  1  0  0  0  0
  1 22  1  0  0  0  0
  1 23  1  0  0  0  0
  2 19  1  0  0  0  0
  2  3  1  0  0  0  0
  2 24  1  0  0  0  0
  3  4  1  0  0  0  0
  3 25  1  0  0  0  0
  3 26  1  0  0  0  0
  4  5  1  0  0  0  0
  4 27  1  0  0  0  0
  4 28  1  0  0  0  0
  5  6  1  0  0  0  0
  5 29  1  0  0  0  0
  5 30  1  0  0  0  0
  6  7  1  0  0  0  0
  6 19  1  0  0  0  0
  6 31  1  0  0  0  0
  7  8  1  0  0  0  0
  7 32  1  0  0  0  0
  8  9  2  0  0  0  0
  8 10  1  0  0  0  0
 10 33  1  0  0  0  0
 10 34  1  0  0  0  0
 10 11  1  0  0  0  0
 11 12  1  0  0  0  0
 11 17  1  0  0  0  0
 12 13  1  0  0  0  0
 13 14  2  0  0  0  0
 13 15  1  0  0  0  0
 15 35  1  0  0  0  0
 15 16  2  0  0  0  0
 16 36  1  0  0  0  0
 16 17  1  0  0  0  0
 17 18  2  0  0  0  0
 19 20  1  0  0  0  0
 19 37  1  0  0  0  0
 20 38  1  0  0  0  0
 20 39  1  0  0  0  0
 20 40  1  0  0  0  0
M  CHG  1  12  -1
M  END
> <s_m_source_file>
AV-unprocessed.smi

> <i_m_source_file_index>
1464

> <i_lp_mmshare_version>
43012

> <i_f3d_flags>
0

> <s_epik_input>
W0NIM11bQ0BASF0xW0NIMl1bQ0gyXVtDSDJdW0NASF0oW0NASF0xW0NIM10pW05IXUMoPU8pW0NIMl1uMltuSF1jKD1PKVtjSF1bY0hdYzI9Tw==

> <s_epik_cmdline>
J2VwaWtfcHl0aG9uJywgJy1waCcsICc3LjAnLCAnLXRuJywgJzgnLCAnLW1hJywgJzIwMCcsICctbWV0YWxfYmluZGluZycsICctaW1hZScsICc8aW5maWxlLm1hZT4nLCAnLW9tYWUnLCAnPG91dGZpbGUubWFlPic=

> <r_lp_tautomer_probability>
1

> <r_epik_Ionization_Penalty>
0.101366

> <r_epik_Ionization_Penalty_Charging>
0.101366

> <r_epik_Ionization_Penalty_Neutral>
1.90469e-08

> <r_epik_State_Penalty>
0.035861

> <r_epik_Charging_Adjusted_Penalty>
0.137227

> <i_epik_Tot_Q>
-1

> <i_epik_Tot_abs_Q>
1

> <r_epik_Metal_State_Penalty>
0.035861

> <b_epik_Metal_Only>
0

> <s_lp_Force_Field>
OPLS_2005

> <r_lp_Energy>
30.3142

> <b_lp_Chiralities_Consistent>
1

> <s_lp_Variant>
AV-unprocessed.smi:1464-4

> <Gold.Version>
5.8.1

> <Gold.Id.Protein>
6NUR|6NUR_protein|mol2

> <Gold.PLP.Fitness>
39.6725

> <Gold.PLP.PLP>
-38.1057

> <Gold.PLP.part.hbond>
-1.0000

> <Gold.PLP.part.metal>
0.0000

> <Gold.PLP.part.buried>
-6.1395

> <Gold.PLP.part.nonpolar>
-29.5268

> <Gold.PLP.part.repulsive>
0.0826

> <Gold.PLP.ligand.clash>
0.0000

> <Gold.PLP.ligand.torsion>
0.7196

> <Gold.PLP.Chemscore.Hbond>
1.0000

> <Gold.PLP.Chemscore.CHOScore>
0.0000

> <Gold.PLP.Chemscore.Metal>
0.0000

> <Gold.Chemscore.Hbonds>
donor molecule, donor type, donor heavy atom, donor atom, acceptor molecule, acceptor atom, score
      P1  H  6896  6908       L1    18  1.00

> <Gold.PLP.Chemscore.Internal.Correction>
0.0061

> <Gold.Rescore>
     Score         DG    S(hbond)    S(metal)    S(lipo)     H(rot)  DE(clash)    DE(int)     intcor
     14.61     -16.71       1.00        0.00     103.44       1.64       0.17       1.94       ----

> <Gold.Chemscore.Fitness>
14.6055

> <Gold.Chemscore.DG>
-16.7140

> <Gold.Chemscore.ZeroCoef>
-5.4800

> <Gold.Chemscore.Hbond>
0.9998

> <Gold.Chemscore.Metal>
0.0000

> <Gold.Chemscore.Lipo>
103.4402

> <Gold.Chemscore.Internal_Hbond>
0.0000

> <Gold.Chemscore.DEClash>
0.1689

> <Gold.Chemscore.DEInternal>
1.9396

> <Gold.Chemscore.Rot>
1.6438

> <Gold.Chemscore.Internal.Correction>
   9.000000E+99

> <Gold.Chemscore.Hbonds>
donor molecule, donor type, donor heavy atom, donor atom, acceptor molecule, acceptor atom, score
      P1  H  6896  6908       L1    18  1.00

> <Gold.Chemscore.Hbond.Weighted>
-3.3395

> <Gold.Chemscore.Metal.Weighted>
-0.0000

> <Gold.Chemscore.Lipo.Weighted>
-12.1025

> <Gold.Chemscore.Internal_Hbond.Weighted>
0.0000

> <Gold.Chemscore.DEClash.Weighted>
0.1689

> <Gold.Chemscore.DEInternal.Weighted>
1.9396

> <Gold.Chemscore.Rot.Weighted>
4.2080

> <Gold.Chemscore.Internal.Correction.Weighted>
   9.000000E+99

> <Gold.Protein.RotatedTorsions>
[ 6907 6896 6895 6894 ] final  -53.29 input  -60.11 | X-H torsion
[ 7974 7965 7964 7962 ] final  -34.28 input  175.53 | X-H torsion
[ 8008 7997 7996 7995 ] final -133.90 input   59.86 | X-H torsion
[ 10167 10162 10161 10158 ] final  157.22 input  -65.29 | X-H torsion
[ 10718 10713 10712 10709 ] final -161.30 input   66.30 | X-H torsion
[ 10763 10752 10751 10750 ] final  106.02 input  -60.55 | X-H torsion
[ 11005 11000 10999 10996 ] final   64.24 input  -57.11 | X-H torsion

> <Gold.Protein.ActiveResidues>
 VAL166  LYS551  ARG553  GLY616  TRP617  ASP618  TYR619  PRO620  LYS621  CYS622 
 ASP623  PHE694  ASN695  SER759  ASP760  ASP761  ALA762  ILE779  LEU786  VAL792 
 PHE793  MET794  SER795  GLU796  ALA797  LYS798  CYS799  TRP800  GLU811  SER814 

> <Gold.Protein.RotatedAtoms>
  150.8440  134.7742  159.6955 H   0  0  0  0  0  0  0  0  0  0  0  0  # atno 6907 bound_to 6896
  152.4521  134.5368  159.9837 H   0  0  0  0  0  0  0  0  0  0  0  0  # atno 6908 bound_to 6896
  151.5502  133.3381  159.2987 H   0  0  0  0  0  0  0  0  0  0  0  0  # atno 6909 bound_to 6896
  146.0842  140.6020  142.8894 H   0  0  0  0  0  0  0  0  0  0  0  0  # atno 7974 bound_to 7965
  155.3531  140.0478  157.3046 H   0  0  0  0  0  0  0  0  0  0  0  0  # atno 8008 bound_to 7997
  154.5217  140.2227  155.8928 H   0  0  0  0  0  0  0  0  0  0  0  0  # atno 8009 bound_to 7997
  156.1696  140.3099  155.8956 H   0  0  0  0  0  0  0  0  0  0  0  0  # atno 8010 bound_to 7997
  139.4822  144.4937  151.8270 H   0  0  0  0  0  0  0  0  0  0  0  0  # atno 10167 bound_to 10162
  156.5943  130.8783  151.2898 H   0  0  0  0  0  0  0  0  0  0  0  0  # atno 10718 bound_to 10713
  153.3873  135.3890  155.1899 H   0  0  0  0  0  0  0  0  0  0  0  0  # atno 10763 bound_to 10752
  154.8715  135.3740  154.4781 H   0  0  0  0  0  0  0  0  0  0  0  0  # atno 10764 bound_to 10752
  153.5264  135.7086  153.5766 H   0  0  0  0  0  0  0  0  0  0  0  0  # atno 10765 bound_to 10752
  139.9971  134.6499  155.9991 H   0  0  0  0  0  0  0  0  0  0  0  0  # atno 11005 bound_to 11000
  144.7314  140.4682  143.6935 LP  0  0  0  0  0  0  0  0  0  0  0  0  # atno 17320 bound_to 7965
  145.6161  139.1518  143.3048 LP  0  0  0  0  0  0  0  0  0  0  0  0  # atno 17321 bound_to 7965
  140.4424  144.1968  150.5892 LP  0  0  0  0  0  0  0  0  0  0  0  0  # atno 17342 bound_to 10162
  140.4669  143.2427  151.9142 LP  0  0  0  0  0  0  0  0  0  0  0  0  # atno 17343 bound_to 10162
  157.7296  130.9673  150.1793 LP  0  0  0  0  0  0  0  0  0  0  0  0  # atno 17370 bound_to 10713
  156.2523  130.3702  149.8219 LP  0  0  0  0  0  0  0  0  0  0  0  0  # atno 17371 bound_to 10713
  141.1613  133.6539  156.4329 LP  0  0  0  0  0  0  0  0  0  0  0  0  # atno 17394 bound_to 11000
  140.4797  134.6676  157.5165 LP  0  0  0  0  0  0  0  0  0  0  0  0  # atno 17395 bound_to 11000

$$$$
