AV-unprocessed.smi:933|AV-procd|sdf|4203|dock7
  -GOLD-   22720 2113D 1   1.00000     0.00000
 Structure written by MMmdl.
 42 43  0  0  0  0  0  0  0  0  1 V2000
  150.8021  141.5153  157.6997 C   0  0  0  0  0  0  0  0  0  0  0  0
  150.9748  141.5694  156.1780 C   0  0  0  0  0  0  0  0  0  0  0  0
  150.5629  140.2998  155.5116 C   0  0  0  0  0  0  0  0  0  0  0  0
  151.1620  139.1264  155.7297 N   0  0  0  0  0  0  0  0  0  0  0  0
  150.5648  138.0756  155.0253 C   0  0  0  0  0  0  0  0  0  0  0  0
  151.0972  136.6776  155.1588 C   0  0  0  0  0  0  0  0  0  0  0  0
  150.0179  135.6417  155.5190 C   0  0  0  0  0  0  0  0  0  0  0  0
  149.0699  135.4420  154.4237 N   0  0  0  0  0  0  0  0  0  0  0  0
  148.0098  134.6170  154.4037 C   0  0  0  0  0  0  0  0  0  0  0  0
  147.7189  133.9068  155.3642 O   0  0  0  0  0  0  0  0  0  0  0  0
  147.3103  134.6388  153.2570 N   0  0  0  0  0  0  0  0  0  0  0  0
  146.1211  133.8361  152.9765 C   0  0  2  0  0  0  0  0  0  0  0  0
  146.4862  132.3425  152.8325 C   0  0  0  0  0  0  0  0  0  0  0  0
  146.0091  131.9064  151.4437 C   0  0  0  0  0  0  0  0  0  0  0  0
  145.9313  133.1967  150.6322 C   0  0  0  0  0  0  0  0  0  0  0  0
  145.4466  134.2363  151.6440 C   0  0  2  0  0  0  0  0  0  0  0  0
  145.6396  135.6915  151.1814 C   0  0  0  0  0  0  0  0  0  0  0  0
  149.4938  138.4754  154.2655 C   0  0  0  0  0  0  0  0  0  0  0  0
  149.1909  140.1844  154.4160 S   0  0  0  0  0  0  0  0  0  0  0  0
  151.1090  142.4548  158.1596 H   0  0  0  0  0  0  0  0  0  0  0  0
  151.4050  140.7179  158.1356 H   0  0  0  0  0  0  0  0  0  0  0  0
  149.7615  141.3349  157.9713 H   0  0  0  0  0  0  0  0  0  0  0  0
  150.3846  142.3879  155.7652 H   0  0  0  0  0  0  0  0  0  0  0  0
  152.0159  141.7778  155.9284 H   0  0  0  0  0  0  0  0  0  0  0  0
  151.5781  136.3762  154.2275 H   0  0  0  0  0  0  0  0  0  0  0  0
  151.8841  136.6518  155.9140 H   0  0  0  0  0  0  0  0  0  0  0  0
  150.4937  134.6907  155.7646 H   0  0  0  0  0  0  0  0  0  0  0  0
  149.4784  135.9710  156.4082 H   0  0  0  0  0  0  0  0  0  0  0  0
  149.2390  135.9862  153.5895 H   0  0  0  0  0  0  0  0  0  0  0  0
  147.6245  135.2565  152.5231 H   0  0  0  0  0  0  0  0  0  0  0  0
  145.4015  133.9728  153.7859 H   0  0  0  0  0  0  0  0  0  0  0  0
  147.5646  132.1942  152.9080 H   0  0  0  0  0  0  0  0  0  0  0  0
  146.0282  131.7384  153.6162 H   0  0  0  0  0  0  0  0  0  0  0  0
  146.6665  131.1648  150.9888 H   0  0  0  0  0  0  0  0  0  0  0  0
  145.0150  131.4644  151.5205 H   0  0  0  0  0  0  0  0  0  0  0  0
  146.9237  133.4622  150.2649 H   0  0  0  0  0  0  0  0  0  0  0  0
  145.2683  133.1082  149.7709 H   0  0  0  0  0  0  0  0  0  0  0  0
  144.3747  134.0771  151.7727 H   0  0  0  0  0  0  0  0  0  0  0  0
  146.6837  135.9125  150.9581 H   0  0  0  0  0  0  0  0  0  0  0  0
  145.3030  136.3924  151.9457 H   0  0  0  0  0  0  0  0  0  0  0  0
  145.0636  135.8885  150.2768 H   0  0  0  0  0  0  0  0  0  0  0  0
  148.8610  137.8686  153.6351 H   0  0  0  0  0  0  0  0  0  0  0  0
  1  2  1  0  0  0  0
  1 20  1  0  0  0  0
  1 21  1  0  0  0  0
  1 22  1  0  0  0  0
  2  3  1  0  0  0  0
  2 23  1  0  0  0  0
  2 24  1  0  0  0  0
  3 19  1  0  0  0  0
  3  4  2  0  0  0  0
  4  5  1  0  0  0  0
  5  6  1  0  0  0  0
  5 18  2  0  0  0  0
  6  7  1  0  0  0  0
  6 25  1  0  0  0  0
  6 26  1  0  0  0  0
  7  8  1  0  0  0  0
  7 27  1  0  0  0  0
  7 28  1  0  0  0  0
  8  9  1  0  0  0  0
  8 29  1  0  0  0  0
  9 10  2  0  0  0  0
  9 11  1  0  0  0  0
 11 12  1  0  0  0  0
 11 30  1  0  0  0  0
 12 16  1  0  0  0  0
 12 13  1  0  0  0  0
 12 31  1  0  0  0  0
 13 14  1  0  0  0  0
 13 32  1  0  0  0  0
 13 33  1  0  0  0  0
 14 15  1  0  0  0  0
 14 34  1  0  0  0  0
 14 35  1  0  0  0  0
 15 16  1  0  0  0  0
 15 36  1  0  0  0  0
 15 37  1  0  0  0  0
 16 17  1  0  0  0  0
 16 38  1  0  0  0  0
 17 39  1  0  0  0  0
 17 40  1  0  0  0  0
 17 41  1  0  0  0  0
 18 19  1  0  0  0  0
 18 42  1  0  0  0  0
M  END
> <s_m_source_file>
AV-unprocessed.smi

> <i_m_source_file_index>
933

> <i_lp_mmshare_version>
43012

> <i_f3d_flags>
0

> <s_epik_input>
W0NIM11bQ0gyXWMxbmMoW2NIXXMxKVtDSDJdW0NIMl1bTkhdQyg9TylbTkhdW0NAQEhdMltDSDJdW0NIMl1bQ0gyXVtDQEhdMltDSDNd

> <s_epik_cmdline>
J2VwaWtfcHl0aG9uJywgJy1waCcsICc3LjAnLCAnLXRuJywgJzgnLCAnLW1hJywgJzIwMCcsICctbWV0YWxfYmluZGluZycsICctaW1hZScsICc8aW5maWxlLm1hZT4nLCAnLW9tYWUnLCAnPG91dGZpbGUubWFlPic=

> <r_epik_Ionization_Penalty>
0.00203408

> <r_epik_Ionization_Penalty_Charging>
0

> <r_epik_Ionization_Penalty_Neutral>
0.00203408

> <r_epik_State_Penalty>
0.0013452

> <r_epik_Charging_Adjusted_Penalty>
0.0013452

> <i_epik_Tot_Q>
0

> <i_epik_Tot_abs_Q>
0

> <r_epik_Metal_State_Penalty>
-0

> <b_epik_Metal_Only>
0

> <s_lp_Force_Field>
OPLS_2005

> <r_lp_Energy>
20.7198

> <b_lp_Chiralities_Consistent>
1

> <s_lp_Variant>
AV-unprocessed.smi:933-3

> <Gold.Version>
5.8.1

> <Gold.Id.Protein>
6NUR|6NUR_protein|mol2

> <Gold.PLP.Fitness>
40.4808

> <Gold.PLP.PLP>
-31.9856

> <Gold.PLP.part.hbond>
-2.0000

> <Gold.PLP.part.metal>
0.0000

> <Gold.PLP.part.buried>
-4.2803

> <Gold.PLP.part.nonpolar>
-26.2555

> <Gold.PLP.part.repulsive>
0.0352

> <Gold.PLP.ligand.clash>
0.0000

> <Gold.PLP.ligand.torsion>
0.1774

> <Gold.PLP.Chemscore.Hbond>
1.9360

> <Gold.PLP.Chemscore.CHOScore>
1.0000

> <Gold.PLP.Chemscore.Metal>
0.0000

> <Gold.Chemscore.Hbonds>
donor molecule, donor type, donor heavy atom, donor atom, acceptor molecule, acceptor atom, score
      L1  H     8    29       P1  7948  0.98
      L1  H    11    30       P1  7948  0.94
      L1  C    18    42       P1  7948  1.00

> <Gold.PLP.Chemscore.Internal.Correction>
0.0421

> <Gold.Rescore>
     Score         DG    S(hbond)    S(metal)    S(lipo)     H(rot)  DE(clash)    DE(int)     intcor
     16.77     -16.92       1.72        0.00      82.56       1.55       0.00       0.15       ----

> <Gold.Chemscore.Fitness>
16.7669

> <Gold.Chemscore.DG>
-16.9199

> <Gold.Chemscore.ZeroCoef>
-5.4800

> <Gold.Chemscore.Hbond>
1.7197

> <Gold.Chemscore.Metal>
0.0000

> <Gold.Chemscore.Lipo>
82.5594

> <Gold.Chemscore.Internal_Hbond>
0.0000

> <Gold.Chemscore.DEClash>
0.0000

> <Gold.Chemscore.DEInternal>
0.1530

> <Gold.Chemscore.Rot>
1.5482

> <Gold.Chemscore.Internal.Correction>
   9.000000E+99

> <Gold.Chemscore.Hbonds>
donor molecule, donor type, donor heavy atom, donor atom, acceptor molecule, acceptor atom, score
      L1  H     8    29       P1  7948  0.73
      L1  H    11    30       P1  7948  0.91

> <Gold.Chemscore.Hbond.Weighted>
-5.7439

> <Gold.Chemscore.Metal.Weighted>
-0.0000

> <Gold.Chemscore.Lipo.Weighted>
-9.6595

> <Gold.Chemscore.Internal_Hbond.Weighted>
0.0000

> <Gold.Chemscore.DEClash.Weighted>
0.0000

> <Gold.Chemscore.DEInternal.Weighted>
0.1530

> <Gold.Chemscore.Rot.Weighted>
3.9635

> <Gold.Chemscore.Internal.Correction.Weighted>
   9.000000E+99

> <Gold.Protein.RotatedTorsions>
[ 6907 6896 6895 6894 ] final -124.31 input  -60.11 | X-H torsion
[ 7974 7965 7964 7962 ] final  -60.05 input  175.53 | X-H torsion
[ 8008 7997 7996 7995 ] final  122.11 input   59.86 | X-H torsion
[ 10167 10162 10161 10158 ] final -176.46 input  -65.29 | X-H torsion
[ 10718 10713 10712 10709 ] final  -19.03 input   66.30 | X-H torsion
[ 10763 10752 10751 10750 ] final  154.84 input  -60.55 | X-H torsion
[ 11005 11000 10999 10996 ] final  -99.51 input  -57.11 | X-H torsion

> <Gold.Protein.ActiveResidues>
 VAL166  LYS551  ARG553  GLY616  TRP617  ASP618  TYR619  PRO620  LYS621  CYS622 
 ASP623  PHE694  ASN695  SER759  ASP760  ASP761  ALA762  ILE779  LEU786  VAL792 
 PHE793  MET794  SER795  GLU796  ALA797  LYS798  CYS799  TRP800  GLU811  SER814 

> <Gold.Protein.RotatedAtoms>
  150.8755  133.7444  159.2947 H   0  0  0  0  0  0  0  0  0  0  0  0  # atno 6907 bound_to 6896
  151.5042  135.1061  159.9846 H   0  0  0  0  0  0  0  0  0  0  0  0  # atno 6908 bound_to 6896
  152.4725  133.8016  159.7011 H   0  0  0  0  0  0  0  0  0  0  0  0  # atno 6909 bound_to 6896
  145.8201  140.8545  143.0137 H   0  0  0  0  0  0  0  0  0  0  0  0  # atno 7974 bound_to 7965
  156.2714  140.2793  156.1414 H   0  0  0  0  0  0  0  0  0  0  0  0  # atno 8008 bound_to 7997
  155.0949  140.0389  157.2697 H   0  0  0  0  0  0  0  0  0  0  0  0  # atno 8009 bound_to 7997
  154.6860  140.2619  155.6866 H   0  0  0  0  0  0  0  0  0  0  0  0  # atno 8010 bound_to 7997
  139.5528  144.2065  152.1108 H   0  0  0  0  0  0  0  0  0  0  0  0  # atno 10167 bound_to 10162
  156.5514  130.4702  149.6450 H   0  0  0  0  0  0  0  0  0  0  0  0  # atno 10718 bound_to 10713
  154.1588  135.2811  155.3114 H   0  0  0  0  0  0  0  0  0  0  0  0  # atno 10763 bound_to 10752
  154.6162  135.5482  153.7529 H   0  0  0  0  0  0  0  0  0  0  0  0  # atno 10764 bound_to 10752
  153.0198  135.6427  154.1731 H   0  0  0  0  0  0  0  0  0  0  0  0  # atno 10765 bound_to 10752
  141.1306  133.8327  157.0982 H   0  0  0  0  0  0  0  0  0  0  0  0  # atno 11005 bound_to 11000
  144.6748  140.0521  143.7478 LP  0  0  0  0  0  0  0  0  0  0  0  0  # atno 17320 bound_to 7965
  145.9684  139.2851  143.1114 LP  0  0  0  0  0  0  0  0  0  0  0  0  # atno 17321 bound_to 7965
  140.1563  144.5067  150.6658 LP  0  0  0  0  0  0  0  0  0  0  0  0  # atno 17342 bound_to 10162
  140.6795  143.2320  151.5421 LP  0  0  0  0  0  0  0  0  0  0  0  0  # atno 17343 bound_to 10162
  156.2881  130.7109  151.1951 LP  0  0  0  0  0  0  0  0  0  0  0  0  # atno 17370 bound_to 10713
  157.7387  131.0538  150.5280 LP  0  0  0  0  0  0  0  0  0  0  0  0  # atno 17371 bound_to 10713
  140.0350  134.9882  157.0854 LP  0  0  0  0  0  0  0  0  0  0  0  0  # atno 17394 bound_to 11000
  140.4225  134.1866  155.7165 LP  0  0  0  0  0  0  0  0  0  0  0  0  # atno 17395 bound_to 11000

$$$$
