AV-unprocessed.smi:3031|AV-procd|sdf|11549|dock7
  -GOLD-   2272016503D 1   1.00000     0.00000
 Structure written by MMmdl.
 48 49  0  0  0  0  0  0  0  0  3 V2000
  151.0296  142.3448  158.4725 C   0  0  0  0  0  0  0  0  0  0  0  0
  150.8010  141.6614  157.1550 C   0  0  0  0  0  0  0  0  0  0  0  0
  151.7338  140.9056  156.3903 C   0  0  0  0  0  0  0  0  0  0  0  0
  151.2159  140.4369  155.2666 N   0  0  0  0  0  0  0  0  0  0  0  0
  149.9364  140.8683  155.2766 N   0  0  0  0  0  0  0  0  0  0  0  0
  149.0515  140.5537  154.1664 C   0  0  0  0  0  0  0  0  0  0  0  0
  148.7543  139.0453  154.0361 C   0  0  2  0  0  0  0  0  0  0  0  0
  150.0502  138.2231  154.1232 C   0  0  0  0  0  0  0  0  0  0  0  0
  148.0389  138.7757  152.7678 N   0  3  0  0  0  0  0  0  0  0  0  0
  146.5669  138.9010  152.8340 C   0  0  0  0  0  0  0  0  0  0  0  0
  145.8750  137.6442  152.2781 C   0  0  2  0  0  0  0  0  0  0  0  0
  144.4927  137.9174  152.1449 O   0  0  0  0  0  0  0  0  0  0  0  0
  146.0455  136.4311  153.2170 C   0  0  0  0  0  0  0  0  0  0  0  0
  146.5871  135.2343  152.5220 N   0  3  0  0  0  0  0  0  0  0  0  0
  146.9372  134.1189  153.4374 C   0  0  0  0  0  0  0  0  0  0  0  0
  147.5209  132.9356  152.6459 C   0  0  0  0  0  0  0  0  0  0  0  0
  146.5903  132.5184  151.6554 O   0  0  0  0  0  0  0  0  0  0  0  0
  146.3148  133.5503  150.7169 C   0  0  0  0  0  0  0  0  0  0  0  0
  145.6902  134.7538  151.4434 C   0  0  0  0  0  0  0  0  0  0  0  0
  149.6634  141.6205  156.3997 C   0  0  0  0  0  0  0  0  0  0  0  0
  151.3940  143.3634  158.3376 H   0  0  0  0  0  0  0  0  0  0  0  0
  151.7664  141.8172  159.0786 H   0  0  0  0  0  0  0  0  0  0  0  0
  150.1145  142.4056  159.0620 H   0  0  0  0  0  0  0  0  0  0  0  0
  152.7671  140.6870  156.6164 H   0  0  0  0  0  0  0  0  0  0  0  0
  148.1231  141.1124  154.2950 H   0  0  0  0  0  0  0  0  0  0  0  0
  149.5158  140.9268  153.2525 H   0  0  0  0  0  0  0  0  0  0  0  0
  148.1100  138.7531  154.8665 H   0  0  0  0  0  0  0  0  0  0  0  0
  150.5853  138.4381  155.0488 H   0  0  0  0  0  0  0  0  0  0  0  0
  150.7213  138.4491  153.2939 H   0  0  0  0  0  0  0  0  0  0  0  0
  149.8512  137.1516  154.1099 H   0  0  0  0  0  0  0  0  0  0  0  0
  148.3602  139.4567  152.0939 H   0  0  0  0  0  0  0  0  0  0  0  0
  146.2745  139.0485  153.8738 H   0  0  0  0  0  0  0  0  0  0  0  0
  146.2436  139.7856  152.2830 H   0  0  0  0  0  0  0  0  0  0  0  0
  146.2862  137.4233  151.2932 H   0  0  0  0  0  0  0  0  0  0  0  0
  144.3075  138.1332  151.2428 H   0  0  0  0  0  0  0  0  0  0  0  0
  146.6993  136.6825  154.0538 H   0  0  0  0  0  0  0  0  0  0  0  0
  145.0744  136.1921  153.6545 H   0  0  0  0  0  0  0  0  0  0  0  0
  147.6637  134.4449  154.1807 H   0  0  0  0  0  0  0  0  0  0  0  0
  146.0472  133.7968  153.9806 H   0  0  0  0  0  0  0  0  0  0  0  0
  148.4701  133.2065  152.1806 H   0  0  0  0  0  0  0  0  0  0  0  0
  147.7219  132.0991  153.3154 H   0  0  0  0  0  0  0  0  0  0  0  0
  147.2289  133.8402  150.1962 H   0  0  0  0  0  0  0  0  0  0  0  0
  145.6265  133.1680  149.9627 H   0  0  0  0  0  0  0  0  0  0  0  0
  144.7239  134.4750  151.8671 H   0  0  0  0  0  0  0  0  0  0  0  0
  145.5078  135.5563  150.7272 H   0  0  0  0  0  0  0  0  0  0  0  0
  148.6913  142.0601  156.5695 H   0  0  0  0  0  0  0  0  0  0  0  0
  148.2888  137.8556  152.4346 H   0  0  0  0  0  0  0  0  0  0  0  0
  147.4415  135.5263  152.0681 H   0  0  0  0  0  0  0  0  0  0  0  0
  1  2  1  0  0  0  0
  1 21  1  0  0  0  0
  1 22  1  0  0  0  0
  1 23  1  0  0  0  0
  2 20  2  0  0  0  0
  2  3  1  0  0  0  0
  3  4  2  0  0  0  0
  3 24  1  0  0  0  0
  4  5  1  0  0  0  0
  5  6  1  0  0  0  0
  5 20  1  0  0  0  0
  6  7  1  0  0  0  0
  6 25  1  0  0  0  0
  6 26  1  0  0  0  0
  7  8  1  0  0  0  0
  7  9  1  0  0  0  0
  7 27  1  0  0  0  0
  8 28  1  0  0  0  0
  8 29  1  0  0  0  0
  8 30  1  0  0  0  0
  9 10  1  0  0  0  0
  9 31  1  0  0  0  0
  9 47  1  0  0  0  0
 10 11  1  0  0  0  0
 10 32  1  0  0  0  0
 10 33  1  0  0  0  0
 11 12  1  0  0  0  0
 11 13  1  0  0  0  0
 11 34  1  0  0  0  0
 12 35  1  0  0  0  0
 13 14  1  0  0  0  0
 13 36  1  0  0  0  0
 13 37  1  0  0  0  0
 14 19  1  0  0  0  0
 14 15  1  0  0  0  0
 14 48  1  0  0  0  0
 15 16  1  0  0  0  0
 15 38  1  0  0  0  0
 15 39  1  0  0  0  0
 16 17  1  0  0  0  0
 16 40  1  0  0  0  0
 16 41  1  0  0  0  0
 17 18  1  0  0  0  0
 18 19  1  0  0  0  0
 18 42  1  0  0  0  0
 18 43  1  0  0  0  0
 19 44  1  0  0  0  0
 19 45  1  0  0  0  0
 20 46  1  0  0  0  0
M  CHG  1   9   1
M  CHG  1  14   1
M  END
> <s_m_source_file>
AV-unprocessed.smi

> <i_m_source_file_index>
3031

> <i_lp_mmshare_version>
43012

> <i_f3d_flags>
0

> <s_epik_input>
W0NIM11jMVtjSF1ubihbY0hdMSlbQ0gyXVtDQEhdKFtDSDNdKVtOSF1bQ0gyXVtDQEhdKFtPSF0pW0NIMl1OMltDSDJdW0NIMl1PW0NIMl1bQ0gyXTI=

> <s_epik_cmdline>
J2VwaWtfcHl0aG9uJywgJy1waCcsICc3LjAnLCAnLXRuJywgJzgnLCAnLW1hJywgJzIwMCcsICctbWV0YWxfYmluZGluZycsICctaW1hZScsICc8aW5maWxlLm1hZT4nLCAnLW9tYWUnLCAnPG91dGZpbGUubWFlPic=

> <r_lp_tautomer_probability>
1

> <r_epik_Ionization_Penalty>
1.76542

> <r_epik_Ionization_Penalty_Charging>
1.76348

> <r_epik_Ionization_Penalty_Neutral>
0.00194017

> <r_epik_State_Penalty>
1.49348

> <r_epik_Charging_Adjusted_Penalty>
3.25696

> <i_epik_Tot_Q>
2

> <i_epik_Tot_abs_Q>
2

> <r_epik_Metal_State_Penalty>
1.49349

> <b_epik_Metal_Only>
0

> <s_lp_Force_Field>
OPLS_2005

> <r_lp_Energy>
27.3319

> <b_lp_Chiralities_Consistent>
1

> <s_lp_Variant>
AV-unprocessed.smi:3031-9

> <Gold.Version>
5.8.1

> <Gold.Id.Protein>
6NUR|6NUR_protein|mol2

> <Gold.PLP.Fitness>
54.9307

> <Gold.PLP.PLP>
-36.6530

> <Gold.PLP.part.hbond>
-5.9728

> <Gold.PLP.part.metal>
0.0000

> <Gold.PLP.part.buried>
-2.6678

> <Gold.PLP.part.nonpolar>
-28.1248

> <Gold.PLP.part.repulsive>
0.2340

> <Gold.PLP.ligand.clash>
0.0000

> <Gold.PLP.ligand.torsion>
1.5900

> <Gold.PLP.Chemscore.Hbond>
6.7752

> <Gold.PLP.Chemscore.CHOScore>
0.3069

> <Gold.PLP.Chemscore.Metal>
0.0000

> <Gold.Chemscore.Hbonds>
donor molecule, donor type, donor heavy atom, donor atom, acceptor molecule, acceptor atom, score
      L1  H     9    31       P1  7957  0.98
      L1  H     9    47       P1  7948  2.00
      L1  H    12    35       P1 10171  1.00
      L1  H    14    48       P1  7948  2.00
      P1  H  7989  7998       L1     4  0.91
      L1  C    20    46       P1  8028  0.15

> <Gold.PLP.Chemscore.Internal.Correction>
0.2114

> <Gold.Rescore>
     Score         DG    S(hbond)    S(metal)    S(lipo)     H(rot)  DE(clash)    DE(int)     intcor
     19.79     -22.82       4.50        0.00      79.85       2.74       0.11       2.92       ----

> <Gold.Chemscore.Fitness>
19.7859

> <Gold.Chemscore.DG>
-22.8186

> <Gold.Chemscore.ZeroCoef>
-5.4800

> <Gold.Chemscore.Hbond>
4.4967

> <Gold.Chemscore.Metal>
0.0000

> <Gold.Chemscore.Lipo>
79.8517

> <Gold.Chemscore.Internal_Hbond>
0.0000

> <Gold.Chemscore.DEClash>
0.1103

> <Gold.Chemscore.DEInternal>
2.9224

> <Gold.Chemscore.Rot>
2.7434

> <Gold.Chemscore.Internal.Correction>
   9.000000E+99

> <Gold.Chemscore.Hbonds>
donor molecule, donor type, donor heavy atom, donor atom, acceptor molecule, acceptor atom, score
      L1  H     9    31       P1  7957  0.93
      L1  H     9    47       P1  7948  1.00
      L1  H    12    35       P1 10171  0.96
      L1  H    14    48       P1  7948  0.99
      P1  H  7989  7998       L1     4  0.20

> <Gold.Chemscore.Hbond.Weighted>
-15.0190

> <Gold.Chemscore.Metal.Weighted>
-0.0000

> <Gold.Chemscore.Lipo.Weighted>
-9.3427

> <Gold.Chemscore.Internal_Hbond.Weighted>
0.0000

> <Gold.Chemscore.DEClash.Weighted>
0.1103

> <Gold.Chemscore.DEInternal.Weighted>
2.9224

> <Gold.Chemscore.Rot.Weighted>
7.0231

> <Gold.Chemscore.Internal.Correction.Weighted>
   9.000000E+99

> <Gold.Protein.RotatedTorsions>
[ 6907 6896 6895 6894 ] final   27.63 input  -60.11 | X-H torsion
[ 7974 7965 7964 7962 ] final -125.16 input  175.53 | X-H torsion
[ 8008 7997 7996 7995 ] final  -83.35 input   59.86 | X-H torsion
[ 10167 10162 10161 10158 ] final   75.59 input  -65.29 | X-H torsion
[ 10718 10713 10712 10709 ] final  -73.28 input   66.30 | X-H torsion
[ 10763 10752 10751 10750 ] final  -49.38 input  -60.55 | X-H torsion
[ 11005 11000 10999 10996 ] final   63.23 input  -57.11 | X-H torsion

> <Gold.Protein.ActiveResidues>
 VAL166  LYS551  ARG553  GLY616  TRP617  ASP618  TYR619  PRO620  LYS621  CYS622 
 ASP623  PHE694  ASN695  SER759  ASP760  ASP761  ALA762  ILE779  LEU786  VAL792 
 PHE793  MET794  SER795  GLU796  ALA797  LYS798  CYS799  TRP800  GLU811  SER814 

> <Gold.Protein.RotatedAtoms>
  152.0052  134.9907  160.0566 H   0  0  0  0  0  0  0  0  0  0  0  0  # atno 6907 bound_to 6896
  152.1482  133.4500  159.4808 H   0  0  0  0  0  0  0  0  0  0  0  0  # atno 6908 bound_to 6896
  150.6872  134.2140  159.4413 H   0  0  0  0  0  0  0  0  0  0  0  0  # atno 6909 bound_to 6896
  145.0005  140.7816  143.4499 H   0  0  0  0  0  0  0  0  0  0  0  0  # atno 7974 bound_to 7965
  154.6181  140.0620  156.9580 H   0  0  0  0  0  0  0  0  0  0  0  0  # atno 8008 bound_to 7997
  155.1862  140.3303  155.4348 H   0  0  0  0  0  0  0  0  0  0  0  0  # atno 8009 bound_to 7997
  156.2416  140.1889  156.6955 H   0  0  0  0  0  0  0  0  0  0  0  0  # atno 8010 bound_to 7997
  140.0014  144.5683  150.7734 H   0  0  0  0  0  0  0  0  0  0  0  0  # atno 10167 bound_to 10162
  156.0286  130.4390  150.2719 H   0  0  0  0  0  0  0  0  0  0  0  0  # atno 10718 bound_to 10713
  154.0932  135.6574  153.4856 H   0  0  0  0  0  0  0  0  0  0  0  0  # atno 10763 bound_to 10752
  153.0314  135.5207  154.7360 H   0  0  0  0  0  0  0  0  0  0  0  0  # atno 10764 bound_to 10752
  154.6490  135.2998  154.9979 H   0  0  0  0  0  0  0  0  0  0  0  0  # atno 10765 bound_to 10752
  140.0038  134.6400  155.9887 H   0  0  0  0  0  0  0  0  0  0  0  0  # atno 11005 bound_to 11000
  145.2160  139.2182  143.5118 LP  0  0  0  0  0  0  0  0  0  0  0  0  # atno 17320 bound_to 7965
  146.3451  140.2008  142.8589 LP  0  0  0  0  0  0  0  0  0  0  0  0  # atno 17321 bound_to 7965
  140.7417  143.2822  151.3565 LP  0  0  0  0  0  0  0  0  0  0  0  0  # atno 17342 bound_to 10162
  139.6269  144.0796  152.2442 LP  0  0  0  0  0  0  0  0  0  0  0  0  # atno 17343 bound_to 10162
  157.0822  131.0146  151.3152 LP  0  0  0  0  0  0  0  0  0  0  0  0  # atno 17370 bound_to 10713
  157.4919  130.7827  149.7516 LP  0  0  0  0  0  0  0  0  0  0  0  0  # atno 17371 bound_to 10713
  141.1662  133.6537  156.4488 LP  0  0  0  0  0  0  0  0  0  0  0  0  # atno 17394 bound_to 11000
  140.4678  134.6781  157.5115 LP  0  0  0  0  0  0  0  0  0  0  0  0  # atno 17395 bound_to 11000

$$$$
