AV-unprocessed.smi:136|AV-procd|sdf|1174|dock6
  -GOLD-   2262018323D 1   1.00000     0.00000
 Structure written by MMmdl.
 54 58  0  0  0  0  0  0  0  0  1 V2000
  151.4062  139.1886  154.3496 O   0  0  0  0  0  0  0  0  0  0  0  0
  151.6032  139.2337  155.5654 C   0  0  0  0  0  0  0  0  0  0  0  0
  152.0548  137.9644  156.3185 C   0  0  0  0  0  0  0  0  0  0  0  0
  150.9879  136.9499  156.4626 N   0  0  0  0  0  0  0  0  0  0  0  0
  150.7475  136.0552  155.3902 C   0  0  0  0  0  0  0  0  0  0  0  0
  151.4128  136.1053  154.3548 O   0  0  0  0  0  0  0  0  0  0  0  0
  149.6672  135.0977  155.5993 C   0  0  0  0  0  0  0  0  0  0  0  0
  149.3649  134.2137  154.6333 F   0  0  0  0  0  0  0  0  0  0  0  0
  148.9614  135.0867  156.7488 C   0  0  0  0  0  0  0  0  0  0  0  0
  149.2086  135.9653  157.7877 N   0  0  0  0  0  0  0  0  0  0  0  0
  148.3847  135.9359  159.0555 C   0  0  1  0  0  0  0  0  0  0  0  0
  146.9208  136.2659  158.7431 C   0  0  0  0  0  0  0  0  0  0  0  0
  146.3189  134.8868  158.5812 C   0  0  0  0  0  0  0  0  0  0  0  0
  147.1102  134.0856  159.6085 C   0  0  0  0  0  0  0  0  0  0  0  0
  148.4209  134.6452  159.5943 O   0  0  0  0  0  0  0  0  0  0  0  0
  150.2268  136.9342  157.6558 C   0  0  0  0  0  0  0  0  0  0  0  0
  150.4383  137.7524  158.5538 O   0  0  0  0  0  0  0  0  0  0  0  0
  151.4458  140.3746  156.2735 N   0  0  0  0  0  0  0  0  0  0  0  0
  151.7980  140.4880  157.5787 N   0  0  0  0  0  0  0  0  0  0  0  0
  151.7013  141.7104  157.9505 C   0  0  0  0  0  0  0  0  0  0  0  0
  152.0163  142.1986  159.3114 C   0  0  0  0  0  0  0  0  0  0  0  0
  151.5538  143.4715  159.7166 C   0  0  0  0  0  0  0  0  0  0  0  0
  151.8525  143.9374  161.0118 C   0  0  0  0  0  0  0  0  0  0  0  0
  152.6063  143.1389  161.8952 C   0  0  0  0  0  0  0  0  0  0  0  0
  152.9698  143.7160  163.4799 Cl  0  0  0  0  0  0  0  0  0  0  0  0
  153.0638  141.8700  161.4867 C   0  0  0  0  0  0  0  0  0  0  0  0
  152.7719  141.3934  160.1936 C   0  0  0  0  0  0  0  0  0  0  0  0
  151.2357  142.6316  156.8739 C   0  0  0  0  0  0  0  0  0  0  0  0
  151.0213  141.6625  155.7083 C   0  0  2  0  0  0  0  0  0  0  0  0
  149.6084  141.6729  155.1971 C   0  0  0  0  0  0  0  0  0  0  0  0
  148.8362  142.5852  154.5282 C   0  0  0  0  0  0  0  0  0  0  0  0
  147.5700  141.9712  154.3243 C   0  0  0  0  0  0  0  0  0  0  0  0
  147.6623  140.7271  154.8793 C   0  0  0  0  0  0  0  0  0  0  0  0
  148.8980  140.5294  155.4129 O   0  0  0  0  0  0  0  0  0  0  0  0
  152.9247  137.5496  155.8070 H   0  0  0  0  0  0  0  0  0  0  0  0
  152.4347  138.2497  157.3009 H   0  0  0  0  0  0  0  0  0  0  0  0
  148.1686  134.3598  156.8452 H   0  0  0  0  0  0  0  0  0  0  0  0
  148.8597  136.6339  159.7468 H   0  0  0  0  0  0  0  0  0  0  0  0
  146.4871  136.7733  159.6055 H   0  0  0  0  0  0  0  0  0  0  0  0
  146.8147  136.9056  157.8660 H   0  0  0  0  0  0  0  0  0  0  0  0
  145.2435  134.8643  158.7589 H   0  0  0  0  0  0  0  0  0  0  0  0
  146.5076  134.5075  157.5761 H   0  0  0  0  0  0  0  0  0  0  0  0
  146.6839  134.2199  160.6036 H   0  0  0  0  0  0  0  0  0  0  0  0
  147.1281  133.0183  159.3877 H   0  0  0  0  0  0  0  0  0  0  0  0
  150.9744  144.0985  159.0542 H   0  0  0  0  0  0  0  0  0  0  0  0
  151.5019  144.9094  161.3265 H   0  0  0  0  0  0  0  0  0  0  0  0
  153.6404  141.2594  162.1661 H   0  0  0  0  0  0  0  0  0  0  0  0
  153.1340  140.4179  159.9048 H   0  0  0  0  0  0  0  0  0  0  0  0
  150.3150  143.1402  157.1638 H   0  0  0  0  0  0  0  0  0  0  0  0
  151.9922  143.3812  156.6390 H   0  0  0  0  0  0  0  0  0  0  0  0
  151.6993  141.9234  154.8936 H   0  0  0  0  0  0  0  0  0  0  0  0
  149.1448  143.5747  154.2244 H   0  0  0  0  0  0  0  0  0  0  0  0
  146.7024  142.3863  153.8331 H   0  0  0  0  0  0  0  0  0  0  0  0
  146.9787  139.8966  154.9772 H   0  0  0  0  0  0  0  0  0  0  0  0
  1  2  2  0  0  0  0
  2  3  1  0  0  0  0
  2 18  1  0  0  0  0
  3  4  1  0  0  0  0
  3 35  1  0  0  0  0
  3 36  1  0  0  0  0
  4 16  1  0  0  0  0
  4  5  1  0  0  0  0
  5  6  2  0  0  0  0
  5  7  1  0  0  0  0
  7  8  1  0  0  0  0
  7  9  2  0  0  0  0
  9 10  1  0  0  0  0
  9 37  1  0  0  0  0
 10 11  1  0  0  0  0
 10 16  1  0  0  0  0
 11 15  1  0  0  0  0
 11 12  1  0  0  0  0
 11 38  1  0  0  0  0
 12 13  1  0  0  0  0
 12 39  1  0  0  0  0
 12 40  1  0  0  0  0
 13 14  1  0  0  0  0
 13 41  1  0  0  0  0
 13 42  1  0  0  0  0
 14 15  1  0  0  0  0
 14 43  1  0  0  0  0
 14 44  1  0  0  0  0
 16 17  2  0  0  0  0
 18 29  1  0  0  0  0
 18 19  1  0  0  0  0
 19 20  2  0  0  0  0
 20 21  1  0  0  0  0
 20 28  1  0  0  0  0
 21 27  1  0  0  0  0
 21 22  2  0  0  0  0
 22 23  1  0  0  0  0
 22 45  1  0  0  0  0
 23 24  2  0  0  0  0
 23 46  1  0  0  0  0
 24 25  1  0  0  0  0
 24 26  1  0  0  0  0
 26 27  2  0  0  0  0
 26 47  1  0  0  0  0
 27 48  1  0  0  0  0
 28 29  1  0  0  0  0
 28 49  1  0  0  0  0
 28 50  1  0  0  0  0
 29 30  1  0  0  0  0
 29 51  1  0  0  0  0
 30 34  1  0  0  0  0
 30 31  2  0  0  0  0
 31 32  1  0  0  0  0
 31 52  1  0  0  0  0
 32 33  2  0  0  0  0
 32 53  1  0  0  0  0
 33 34  1  0  0  0  0
 33 54  1  0  0  0  0
M  END
> <s_m_source_file>
AV-unprocessed.smi

> <i_m_source_file_index>
136

> <i_lp_mmshare_version>
43012

> <i_f3d_flags>
0

> <s_epik_input>
bzFbY0hdW2NIXVtjSF1jMVtDQEBIXTJbQ0gyXUMoYzNbY0hdW2NIXWMoQ2wpW2NIXVtjSF0zKT1OTjJDKD1PKVtDSDJdbjRjKD1PKWMoRilbY0hdbihjND1PKVtDQEBIXTVbQ0gyXVtDSDJdW0NIMl1PNQ==

> <s_epik_cmdline>
J2VwaWtfcHl0aG9uJywgJy1waCcsICc3LjAnLCAnLXRuJywgJzgnLCAnLW1hJywgJzIwMCcsICctbWV0YWxfYmluZGluZycsICctaW1hZScsICc8aW5maWxlLm1hZT4nLCAnLW9tYWUnLCAnPG91dGZpbGUubWFlPic=

> <r_lp_tautomer_probability>
1

> <r_epik_Ionization_Penalty>
2.55467e-08

> <r_epik_Ionization_Penalty_Charging>
4.85705e-09

> <r_epik_Ionization_Penalty_Neutral>
2.06897e-08

> <r_epik_State_Penalty>
-0

> <r_epik_Charging_Adjusted_Penalty>
4.85705e-09

> <i_epik_Tot_Q>
0

> <i_epik_Tot_abs_Q>
0

> <r_epik_Metal_State_Penalty>
-0

> <b_epik_Metal_Only>
0

> <s_epik_Chemistry_Notes>
This compound has an imine and may undergo hydrolysis. This compound contains an acetal/aminal-like group ( X-CH(R)-Y where X, Y are N, S, or O) that may be acid/base labile, releasing an aldehyde.

> <s_lp_Force_Field>
OPLS_2005

> <r_lp_Energy>
39.5424

> <b_lp_Chiralities_Consistent>
1

> <s_lp_Variant>
AV-unprocessed.smi:136-4

> <Gold.Version>
5.8.1

> <Gold.Id.Protein>
6NUR|6NUR_protein|mol2

> <Gold.PLP.Fitness>
56.3180

> <Gold.PLP.PLP>
-49.4181

> <Gold.PLP.part.hbond>
-3.0000

> <Gold.PLP.part.metal>
0.0000

> <Gold.PLP.part.buried>
2.1495

> <Gold.PLP.part.nonpolar>
-48.2242

> <Gold.PLP.part.repulsive>
1.7552

> <Gold.PLP.ligand.clash>
0.0000

> <Gold.PLP.ligand.torsion>
0.7322

> <Gold.PLP.Chemscore.Hbond>
2.7670

> <Gold.PLP.Chemscore.CHOScore>
0.0000

> <Gold.PLP.Chemscore.Metal>
0.0000

> <Gold.Chemscore.Hbonds>
donor molecule, donor type, donor heavy atom, donor atom, acceptor molecule, acceptor atom, score
      P1  H  6896  6907       L1    15  0.42
      P1  H  7989  7998       L1     1  1.00
      P1  H 10752 10765       L1     6  1.00

> <Gold.PLP.Chemscore.Internal.Correction>
0.0633

> <Gold.Rescore>
     Score         DG    S(hbond)    S(metal)    S(lipo)     H(rot)  DE(clash)    DE(int)     intcor
     18.64     -24.67       1.96        0.00     147.53       1.81       2.35       3.69       ----

> <Gold.Chemscore.Fitness>
18.6350

> <Gold.Chemscore.DG>
-24.6715

> <Gold.Chemscore.ZeroCoef>
-5.4800

> <Gold.Chemscore.Hbond>
1.9621

> <Gold.Chemscore.Metal>
0.0000

> <Gold.Chemscore.Lipo>
147.5266

> <Gold.Chemscore.Internal_Hbond>
0.0000

> <Gold.Chemscore.DEClash>
2.3486

> <Gold.Chemscore.DEInternal>
3.6879

> <Gold.Chemscore.Rot>
1.8056

> <Gold.Chemscore.Internal.Correction>
   9.000000E+99

> <Gold.Chemscore.Hbonds>
donor molecule, donor type, donor heavy atom, donor atom, acceptor molecule, acceptor atom, score
      P1  H  6896  6907       L1    15  0.09
      P1  H  7989  7998       L1     1  0.87
      P1  H 10752 10765       L1     6  0.84

> <Gold.Chemscore.Hbond.Weighted>
-6.5533

> <Gold.Chemscore.Metal.Weighted>
-0.0000

> <Gold.Chemscore.Lipo.Weighted>
-17.2606

> <Gold.Chemscore.Internal_Hbond.Weighted>
0.0000

> <Gold.Chemscore.DEClash.Weighted>
2.3486

> <Gold.Chemscore.DEInternal.Weighted>
3.6879

> <Gold.Chemscore.Rot.Weighted>
4.6223

> <Gold.Chemscore.Internal.Correction.Weighted>
   9.000000E+99

> <Gold.Protein.RotatedTorsions>
[ 6907 6896 6895 6894 ] final  -90.27 input  -60.11 | X-H torsion
[ 7974 7965 7964 7962 ] final   51.09 input  175.53 | X-H torsion
[ 8008 7997 7996 7995 ] final -123.98 input   59.86 | X-H torsion
[ 10167 10162 10161 10158 ] final  101.60 input  -65.29 | X-H torsion
[ 10718 10713 10712 10709 ] final   97.83 input   66.30 | X-H torsion
[ 10763 10752 10751 10750 ] final  178.46 input  -60.55 | X-H torsion
[ 11005 11000 10999 10996 ] final -136.98 input  -57.11 | X-H torsion

> <Gold.Protein.ActiveResidues>
 VAL166  LYS551  ARG553  GLY616  TRP617  ASP618  TYR619  PRO620  LYS621  CYS622 
 ASP623  PHE694  ASN695  SER759  ASP760  ASP761  ALA762  ILE779  LEU786  VAL792 
 PHE793  MET794  SER795  GLU796  ALA797  LYS798  CYS799  TRP800  GLU811  SER814 

> <Gold.Protein.RotatedAtoms>
  150.6880  134.2458  159.4490 H   0  0  0  0  0  0  0  0  0  0  0  0  # atno 6907 bound_to 6896
  152.0399  134.9715  160.0583 H   0  0  0  0  0  0  0  0  0  0  0  0  # atno 6908 bound_to 6896
  152.1221  133.4324  159.4717 H   0  0  0  0  0  0  0  0  0  0  0  0  # atno 6909 bound_to 6896
  145.9948  139.4376  143.0051 H   0  0  0  0  0  0  0  0  0  0  0  0  # atno 7974 bound_to 7965
  155.1894  140.0413  157.2897 H   0  0  0  0  0  0  0  0  0  0  0  0  # atno 8008 bound_to 7997
  154.6149  140.2486  155.7594 H   0  0  0  0  0  0  0  0  0  0  0  0  # atno 8009 bound_to 7997
  156.2400  140.2907  156.0429 H   0  0  0  0  0  0  0  0  0  0  0  0  # atno 8010 bound_to 7997
  139.7424  144.7007  151.0556 H   0  0  0  0  0  0  0  0  0  0  0  0  # atno 10167 bound_to 10162
  157.6906  131.0621  150.4704 H   0  0  0  0  0  0  0  0  0  0  0  0  # atno 10718 bound_to 10713
  154.5079  135.2787  155.1367 H   0  0  0  0  0  0  0  0  0  0  0  0  # atno 10763 bound_to 10752
  154.2974  135.6255  153.5414 H   0  0  0  0  0  0  0  0  0  0  0  0  # atno 10764 bound_to 10752
  152.9913  135.5688  154.5537 H   0  0  0  0  0  0  0  0  0  0  0  0  # atno 10765 bound_to 10752
  140.8754  134.1998  157.4625 H   0  0  0  0  0  0  0  0  0  0  0  0  # atno 11005 bound_to 11000
  145.7577  140.9948  143.1217 LP  0  0  0  0  0  0  0  0  0  0  0  0  # atno 17320 bound_to 7965
  144.6900  139.9291  143.7471 LP  0  0  0  0  0  0  0  0  0  0  0  0  # atno 17321 bound_to 7965
  140.7787  143.4908  150.9895 LP  0  0  0  0  0  0  0  0  0  0  0  0  # atno 17342 bound_to 10162
  139.8597  143.7331  152.3174 LP  0  0  0  0  0  0  0  0  0  0  0  0  # atno 17343 bound_to 10162
  156.5042  130.4124  149.6336 LP  0  0  0  0  0  0  0  0  0  0  0  0  # atno 17370 bound_to 10713
  156.3300  130.7326  151.2254 LP  0  0  0  0  0  0  0  0  0  0  0  0  # atno 17371 bound_to 10713
  139.8715  134.9793  156.5033 LP  0  0  0  0  0  0  0  0  0  0  0  0  # atno 17394 bound_to 11000
  140.8524  133.8122  155.9182 LP  0  0  0  0  0  0  0  0  0  0  0  0  # atno 17395 bound_to 11000

$$$$
