AV-unprocessed.smi:682|AV-procd|sdf|3326|dock8
  -GOLD-   22720 0293D 1   1.00000     0.00000
 Structure written by MMmdl.
 41 42  0  0  0  0  0  0  0  0  1 V2000
  146.5961  137.4047  155.9380 C   0  0  0  0  0  0  0  0  0  0  0  0
  147.9642  137.1900  155.6133 O   0  0  0  0  0  0  0  0  0  0  0  0
  148.7930  136.5793  156.6115 C   0  0  1  0  0  0  0  0  0  0  0  0
  148.8169  137.4396  157.8816 C   0  0  0  0  0  0  0  0  0  0  0  0
  148.4706  135.0772  156.7254 C   0  0  0  0  0  0  0  0  0  0  0  0
  149.4888  134.8043  155.6161 C   0  0  1  0  0  0  0  0  0  0  0  0
  148.8416  134.7513  154.3050 N   0  0  0  0  0  0  0  0  0  0  0  0
  148.0148  133.7792  153.8991 C   0  0  0  0  0  0  0  0  0  0  0  0
  147.6816  132.8286  154.6067 O   0  0  0  0  0  0  0  0  0  0  0  0
  147.6201  133.9759  152.6311 N   0  0  0  0  0  0  0  0  0  0  0  0
  146.7674  133.1470  151.8603 C   0  0  0  0  0  0  0  0  0  0  0  0
  146.2587  131.8513  152.1589 C   0  0  0  0  0  0  0  0  0  0  0  0
  145.4899  131.4051  151.1766 N   0  0  0  0  0  0  0  0  0  0  0  0
  145.4939  132.3933  150.2494 N   0  0  0  0  0  0  0  0  0  0  0  0
  144.7392  132.2199  149.0265 C   0  0  0  0  0  0  0  0  0  0  0  0
  146.2615  133.4729  150.6380 C   0  0  0  0  0  0  0  0  0  0  0  0
  150.1483  136.1711  155.9466 C   0  0  0  0  0  0  0  0  0  0  0  0
  150.6461  137.0445  154.7828 C   0  0  0  0  0  0  0  0  0  0  0  0
  151.3475  136.0474  156.8984 C   0  0  0  0  0  0  0  0  0  0  0  0
  146.0639  137.7164  155.0395 H   0  0  0  0  0  0  0  0  0  0  0  0
  146.4780  138.2004  156.6733 H   0  0  0  0  0  0  0  0  0  0  0  0
  146.1106  136.5050  156.3143 H   0  0  0  0  0  0  0  0  0  0  0  0
  149.5149  137.0510  158.6223 H   0  0  0  0  0  0  0  0  0  0  0  0
  147.8446  137.4700  158.3724 H   0  0  0  0  0  0  0  0  0  0  0  0
  149.1133  138.4649  157.6598 H   0  0  0  0  0  0  0  0  0  0  0  0
  148.7805  134.6558  157.6829 H   0  0  0  0  0  0  0  0  0  0  0  0
  147.4475  134.7835  156.4909 H   0  0  0  0  0  0  0  0  0  0  0  0
  150.1233  133.9430  155.8335 H   0  0  0  0  0  0  0  0  0  0  0  0
  149.0696  135.4895  153.6551 H   0  0  0  0  0  0  0  0  0  0  0  0
  147.9849  134.7921  152.1626 H   0  0  0  0  0  0  0  0  0  0  0  0
  146.4108  131.2292  153.0283 H   0  0  0  0  0  0  0  0  0  0  0  0
  144.8837  133.0800  148.3719 H   0  0  0  0  0  0  0  0  0  0  0  0
  143.6781  132.1241  149.2582 H   0  0  0  0  0  0  0  0  0  0  0  0
  145.0756  131.3209  148.5092 H   0  0  0  0  0  0  0  0  0  0  0  0
  146.3800  134.3539  150.0244 H   0  0  0  0  0  0  0  0  0  0  0  0
  151.5005  136.5893  154.2809 H   0  0  0  0  0  0  0  0  0  0  0  0
  150.9562  138.0304  155.1303 H   0  0  0  0  0  0  0  0  0  0  0  0
  149.8847  137.2061  154.0201 H   0  0  0  0  0  0  0  0  0  0  0  0
  152.1981  135.5740  156.4068 H   0  0  0  0  0  0  0  0  0  0  0  0
  151.1135  135.4415  157.7738 H   0  0  0  0  0  0  0  0  0  0  0  0
  151.6797  137.0216  157.2583 H   0  0  0  0  0  0  0  0  0  0  0  0
  1  2  1  0  0  0  0
  1 20  1  0  0  0  0
  1 21  1  0  0  0  0
  1 22  1  0  0  0  0
  2  3  1  0  0  0  0
  3 17  1  0  0  0  0
  3  4  1  0  0  0  0
  3  5  1  0  0  0  0
  4 23  1  0  0  0  0
  4 24  1  0  0  0  0
  4 25  1  0  0  0  0
  5  6  1  0  0  0  0
  5 26  1  0  0  0  0
  5 27  1  0  0  0  0
  6  7  1  0  0  0  0
  6 17  1  0  0  0  0
  6 28  1  0  0  0  0
  7  8  1  0  0  0  0
  7 29  1  0  0  0  0
  8  9  2  0  0  0  0
  8 10  1  0  0  0  0
 10 11  1  0  0  0  0
 10 30  1  0  0  0  0
 11 16  2  0  0  0  0
 11 12  1  0  0  0  0
 12 13  2  0  0  0  0
 12 31  1  0  0  0  0
 13 14  1  0  0  0  0
 14 15  1  0  0  0  0
 14 16  1  0  0  0  0
 15 32  1  0  0  0  0
 15 33  1  0  0  0  0
 15 34  1  0  0  0  0
 16 35  1  0  0  0  0
 17 18  1  0  0  0  0
 17 19  1  0  0  0  0
 18 36  1  0  0  0  0
 18 37  1  0  0  0  0
 18 38  1  0  0  0  0
 19 39  1  0  0  0  0
 19 40  1  0  0  0  0
 19 41  1  0  0  0  0
M  END
> <s_m_source_file>
AV-unprocessed.smi

> <i_m_source_file_index>
682

> <i_lp_mmshare_version>
43012

> <i_f3d_flags>
0

> <s_epik_input>
W0NIM11PW0NAQF0xKFtDSDNdKVtDSDJdW0NASF0oQzEoW0NIM10pW0NIM10pW05IXUMoPU8pW05IXWMyW2NIXW5uKFtDSDNdKVtjSF0y

> <s_epik_cmdline>
J2VwaWtfcHl0aG9uJywgJy1waCcsICc3LjAnLCAnLXRuJywgJzgnLCAnLW1hJywgJzIwMCcsICctbWV0YWxfYmluZGluZycsICctaW1hZScsICc8aW5maWxlLm1hZT4nLCAnLW9tYWUnLCAnPG91dGZpbGUubWFlPic=

> <r_lp_tautomer_probability>
1

> <r_epik_Ionization_Penalty>
0.000192302

> <r_epik_Ionization_Penalty_Charging>
0

> <r_epik_Ionization_Penalty_Neutral>
0.000192302

> <r_epik_State_Penalty>
-0

> <r_epik_Charging_Adjusted_Penalty>
0

> <i_epik_Tot_Q>
0

> <i_epik_Tot_abs_Q>
0

> <r_epik_Metal_State_Penalty>
-0

> <b_epik_Metal_Only>
0

> <s_lp_Force_Field>
OPLS_2005

> <r_lp_Energy>
26.143

> <b_lp_Chiralities_Consistent>
1

> <s_lp_Variant>
AV-unprocessed.smi:682-1

> <Gold.Version>
5.8.1

> <Gold.Id.Protein>
6NUR|6NUR_protein|mol2

> <Gold.PLP.Fitness>
33.2847

> <Gold.PLP.PLP>
-24.3446

> <Gold.PLP.part.hbond>
-2.0000

> <Gold.PLP.part.metal>
0.0000

> <Gold.PLP.part.buried>
-4.8355

> <Gold.PLP.part.nonpolar>
-18.4357

> <Gold.PLP.part.repulsive>
0.2008

> <Gold.PLP.ligand.clash>
0.0000

> <Gold.PLP.ligand.torsion>
0.2102

> <Gold.PLP.Chemscore.Hbond>
1.9920

> <Gold.PLP.Chemscore.CHOScore>
1.0000

> <Gold.PLP.Chemscore.Metal>
0.0000

> <Gold.Chemscore.Hbonds>
donor molecule, donor type, donor heavy atom, donor atom, acceptor molecule, acceptor atom, score
      L1  H     7    29       P1  7948  0.98
      L1  H    10    30       P1  7948  1.00
      L1  C    16    35       P1  7921  0.80

> <Gold.PLP.Chemscore.Internal.Correction>
0.3846

> <Gold.Rescore>
     Score         DG    S(hbond)    S(metal)    S(lipo)     H(rot)  DE(clash)    DE(int)     intcor
     12.99     -14.28       1.66        0.00      54.93       1.23       0.00       1.28       ----

> <Gold.Chemscore.Fitness>
12.9935

> <Gold.Chemscore.DG>
-14.2765

> <Gold.Chemscore.ZeroCoef>
-5.4800

> <Gold.Chemscore.Hbond>
1.6550

> <Gold.Chemscore.Metal>
0.0000

> <Gold.Chemscore.Lipo>
54.9303

> <Gold.Chemscore.Internal_Hbond>
0.0000

> <Gold.Chemscore.DEClash>
0.0021

> <Gold.Chemscore.DEInternal>
1.2808

> <Gold.Chemscore.Rot>
1.2336

> <Gold.Chemscore.Internal.Correction>
   9.000000E+99

> <Gold.Chemscore.Hbonds>
donor molecule, donor type, donor heavy atom, donor atom, acceptor molecule, acceptor atom, score
      L1  H     7    29       P1  7948  0.65
      L1  H    10    30       P1  7948  0.50

> <Gold.Chemscore.Hbond.Weighted>
-5.5277

> <Gold.Chemscore.Metal.Weighted>
-0.0000

> <Gold.Chemscore.Lipo.Weighted>
-6.4268

> <Gold.Chemscore.Internal_Hbond.Weighted>
0.0000

> <Gold.Chemscore.DEClash.Weighted>
0.0021

> <Gold.Chemscore.DEInternal.Weighted>
1.2808

> <Gold.Chemscore.Rot.Weighted>
3.1581

> <Gold.Chemscore.Internal.Correction.Weighted>
   9.000000E+99

> <Gold.Protein.RotatedTorsions>
[ 6907 6896 6895 6894 ] final  -70.35 input  -60.11 | X-H torsion
[ 7974 7965 7964 7962 ] final  177.34 input  175.53 | X-H torsion
[ 8008 7997 7996 7995 ] final  107.23 input   59.86 | X-H torsion
[ 10167 10162 10161 10158 ] final -107.09 input  -65.29 | X-H torsion
[ 10718 10713 10712 10709 ] final   86.22 input   66.30 | X-H torsion
[ 10763 10752 10751 10750 ] final  -65.17 input  -60.55 | X-H torsion
[ 11005 11000 10999 10996 ] final  128.37 input  -57.11 | X-H torsion

> <Gold.Protein.ActiveResidues>
 VAL166  LYS551  ARG553  GLY616  TRP617  ASP618  TYR619  PRO620  LYS621  CYS622 
 ASP623  PHE694  ASN695  SER759  ASP760  ASP761  ALA762  ILE779  LEU786  VAL792 
 PHE793  MET794  SER795  GLU796  ALA797  LYS798  CYS799  TRP800  GLU811  SER814 

> <Gold.Protein.RotatedAtoms>
  150.7262  134.5466  159.5773 H   0  0  0  0  0  0  0  0  0  0  0  0  # atno 6907 bound_to 6896
  152.2963  134.7660  160.0376 H   0  0  0  0  0  0  0  0  0  0  0  0  # atno 6908 bound_to 6896
  151.8256  133.3365  159.3634 H   0  0  0  0  0  0  0  0  0  0  0  0  # atno 6909 bound_to 6896
  144.7170  140.0232  143.6440 H   0  0  0  0  0  0  0  0  0  0  0  0  # atno 7974 bound_to 7965
  156.1808  140.3098  155.9144 H   0  0  0  0  0  0  0  0  0  0  0  0  # atno 8008 bound_to 7997
  155.3389  140.0465  157.3061 H   0  0  0  0  0  0  0  0  0  0  0  0  # atno 8009 bound_to 7997
  154.5340  140.2240  155.8765 H   0  0  0  0  0  0  0  0  0  0  0  0  # atno 8010 bound_to 7997
  140.1807  143.3969  152.1284 H   0  0  0  0  0  0  0  0  0  0  0  0  # atno 10167 bound_to 10162
  157.6926  131.0206  150.2940 H   0  0  0  0  0  0  0  0  0  0  0  0  # atno 10718 bound_to 10713
  154.3411  135.6156  153.5597 H   0  0  0  0  0  0  0  0  0  0  0  0  # atno 10763 bound_to 10752
  152.9804  135.5770  154.4852 H   0  0  0  0  0  0  0  0  0  0  0  0  # atno 10764 bound_to 10752
  154.4556  135.2854  155.1727 H   0  0  0  0  0  0  0  0  0  0  0  0  # atno 10765 bound_to 10752
  139.9557  134.9613  156.8992 H   0  0  0  0  0  0  0  0  0  0  0  0  # atno 11005 bound_to 11000
  146.0163  139.3213  143.0839 LP  0  0  0  0  0  0  0  0  0  0  0  0  # atno 17320 bound_to 7965
  145.8621  140.9469  143.0694 LP  0  0  0  0  0  0  0  0  0  0  0  0  # atno 17321 bound_to 7965
  139.5297  144.7145  151.5099 LP  0  0  0  0  0  0  0  0  0  0  0  0  # atno 17342 bound_to 10162
  140.6522  143.8674  150.6797 LP  0  0  0  0  0  0  0  0  0  0  0  0  # atno 17343 bound_to 10162
  156.3466  130.3824  149.7364 LP  0  0  0  0  0  0  0  0  0  0  0  0  # atno 17370 bound_to 10713
  156.4855  130.8061  151.3073 LP  0  0  0  0  0  0  0  0  0  0  0  0  # atno 17371 bound_to 10713
  140.5615  134.0531  155.7400 LP  0  0  0  0  0  0  0  0  0  0  0  0  # atno 17394 bound_to 11000
  141.1228  133.9433  157.2695 LP  0  0  0  0  0  0  0  0  0  0  0  0  # atno 17395 bound_to 11000

$$$$
