AV-unprocessed.smi:72|AV-procd|sdf|670|dock10
  -GOLD-   2262016573D 1   1.00000     0.00000
 Structure written by MMmdl.
 29 30  0  0  0  0  0  0  0  0  1 V2000
  151.6142  136.8548  159.7731 N   0  0  0  0  0  0  0  0  0  0  0  0
  151.2843  137.5578  158.7488 C   0  0  0  0  0  0  0  0  0  0  0  0
  149.9948  138.0408  158.4782 N   0  0  0  0  0  0  0  0  0  0  0  0
  149.8049  138.7366  157.3998 C   0  0  0  0  0  0  0  0  0  0  0  0
  150.8811  139.0250  156.4642 N   0  0  0  0  0  0  0  0  0  0  0  0
  150.6250  139.8395  155.2134 C   0  0  1  0  0  0  0  0  0  0  0  0
  149.5950  139.2337  154.4949 O   0  0  0  0  0  0  0  0  0  0  0  0
  148.8009  140.2394  153.8830 C   0  0  1  0  0  0  0  0  0  0  0  0
  147.4044  139.6825  153.5664 C   0  0  0  0  0  0  0  0  0  0  0  0
  147.4719  138.7944  152.4711 O   0  0  0  0  0  0  0  0  0  0  0  0
  148.7927  141.3496  154.9386 C   0  0  2  0  0  0  0  0  0  0  0  0
  148.5397  142.6040  154.3387 O   0  0  0  0  0  0  0  0  0  0  0  0
  150.2076  141.2998  155.5018 C   0  0  1  0  0  0  0  0  0  0  0  0
  150.2158  141.6609  156.8716 O   0  0  0  0  0  0  0  0  0  0  0  0
  152.1922  138.5628  156.7316 C   0  0  0  0  0  0  0  0  0  0  0  0
  153.1456  138.8082  155.9931 O   0  0  0  0  0  0  0  0  0  0  0  0
  152.3343  137.8393  157.8634 N   0  0  0  0  0  0  0  0  0  0  0  0
  151.5292  139.7787  154.6060 H   0  0  0  0  0  0  0  0  0  0  0  0
  149.3039  140.5904  152.9791 H   0  0  0  0  0  0  0  0  0  0  0  0
  148.0548  141.1320  155.7128 H   0  0  0  0  0  0  0  0  0  0  0  0
  150.8806  141.9528  154.9434 H   0  0  0  0  0  0  0  0  0  0  0  0
  152.5978  136.6298  159.7476 H   0  0  0  0  0  0  0  0  0  0  0  0
  148.8342  139.1536  157.1272 H   0  0  0  0  0  0  0  0  0  0  0  0
  146.9687  139.1859  154.4341 H   0  0  0  0  0  0  0  0  0  0  0  0
  146.7321  140.4939  153.2863 H   0  0  0  0  0  0  0  0  0  0  0  0
  147.9825  139.1994  151.7866 H   0  0  0  0  0  0  0  0  0  0  0  0
  148.8918  143.2780  154.9002 H   0  0  0  0  0  0  0  0  0  0  0  0
  150.0475  142.5886  156.9374 H   0  0  0  0  0  0  0  0  0  0  0  0
  153.2568  137.4916  158.0799 H   0  0  0  0  0  0  0  0  0  0  0  0
  1  2  2  0  0  0  0
  1 22  1  0  0  0  0
  2 17  1  0  0  0  0
  2  3  1  0  0  0  0
  3  4  2  0  0  0  0
  4  5  1  0  0  0  0
  4 23  1  0  0  0  0
  5  6  1  0  0  0  0
  5 15  1  0  0  0  0
  6 18  1  0  0  0  0
  6 13  1  0  0  0  0
  6  7  1  0  0  0  0
  7  8  1  0  0  0  0
  8 19  1  0  0  0  0
  8  9  1  0  0  0  0
  8 11  1  0  0  0  0
  9 10  1  0  0  0  0
  9 24  1  0  0  0  0
  9 25  1  0  0  0  0
 10 26  1  0  0  0  0
 11 20  1  0  0  0  0
 11 12  1  0  0  0  0
 11 13  1  0  0  0  0
 12 27  1  0  0  0  0
 13 21  1  0  0  0  0
 13 14  1  0  0  0  0
 14 28  1  0  0  0  0
 15 16  2  0  0  0  0
 15 17  1  0  0  0  0
 17 29  1  0  0  0  0
M  END
> <s_m_source_file>
AV-unprocessed.smi

> <i_m_source_file_index>
72

> <i_lp_mmshare_version>
43012

> <i_f3d_flags>
0

> <s_epik_input>
W05IMl1jMW5bY0hdbihjKD1PKW4xKVtDQEBIXTJPW0NASF0oW0NIMl1bT0hdKVtDQEBIXShbT0hdKVtDQEhdMltPSF0=

> <s_epik_cmdline>
J2VwaWtfcHl0aG9uJywgJy1waCcsICc3LjAnLCAnLXRuJywgJzgnLCAnLW1hJywgJzIwMCcsICctbWV0YWxfYmluZGluZycsICctaW1hZScsICc8aW5maWxlLm1hZT4nLCAnLW9tYWUnLCAnPG91dGZpbGUubWFlPic=

> <r_lp_tautomer_probability>
7.17554e-07

> <r_epik_Ionization_Penalty>
0.0066451

> <r_epik_Ionization_Penalty_Charging>
0.00663793

> <r_epik_Ionization_Penalty_Neutral>
7.17052e-06

> <r_epik_State_Penalty>
0.419231

> <r_epik_Charging_Adjusted_Penalty>
0.425868

> <i_epik_Tot_Q>
0

> <i_epik_Tot_abs_Q>
0

> <r_epik_Metal_State_Penalty>
1.44144

> <b_epik_Metal_Only>
0

> <s_epik_Chemistry_Notes>
This compound contains an acetal/aminal-like group ( X-CH(R)-Y where X, Y are N, S, or O) that may be acid/base labile, releasing an aldehyde.

> <s_lp_Force_Field>
OPLS_2005

> <r_lp_Energy>
43.9506

> <b_lp_Chiralities_Consistent>
1

> <s_lp_Variant>
AV-unprocessed.smi:72-8

> <Gold.Version>
5.8.1

> <Gold.Id.Protein>
6NUR|6NUR_protein|mol2

> <Gold.PLP.Fitness>
35.3186

> <Gold.PLP.PLP>
-23.4230

> <Gold.PLP.part.hbond>
-5.6065

> <Gold.PLP.part.metal>
0.0000

> <Gold.PLP.part.buried>
-2.0874

> <Gold.PLP.part.nonpolar>
-15.6801

> <Gold.PLP.part.repulsive>
0.2528

> <Gold.PLP.ligand.clash>
0.0017

> <Gold.PLP.ligand.torsion>
0.1146

> <Gold.PLP.Chemscore.Hbond>
4.0000

> <Gold.PLP.Chemscore.CHOScore>
0.0000

> <Gold.PLP.Chemscore.Metal>
0.0000

> <Gold.Chemscore.Hbonds>
donor molecule, donor type, donor heavy atom, donor atom, acceptor molecule, acceptor atom, score
      L1  H    10    26       P1  7957  1.00
      L1  H    12    27       P1  8028  1.00
      P1  H  6896  6907       L1     1  0.10
      P1  H  7997  8008       L1    16  1.00
      P1  H  8011  8017       L1    12  0.02

> <Gold.PLP.Chemscore.Internal.Correction>
0.1266

> <Gold.Rescore>
     Score         DG    S(hbond)    S(metal)    S(lipo)     H(rot)  DE(clash)    DE(int)     intcor
      8.40      -9.67       3.48        0.00      25.39       4.06       0.06       1.21       ----

> <Gold.Chemscore.Fitness>
8.3979

> <Gold.Chemscore.DG>
-9.6706

> <Gold.Chemscore.ZeroCoef>
-5.4800

> <Gold.Chemscore.Hbond>
3.4770

> <Gold.Chemscore.Metal>
0.0000

> <Gold.Chemscore.Lipo>
25.3930

> <Gold.Chemscore.Internal_Hbond>
0.0000

> <Gold.Chemscore.DEClash>
0.0637

> <Gold.Chemscore.DEInternal>
1.2090

> <Gold.Chemscore.Rot>
4.0600

> <Gold.Chemscore.Internal.Correction>
   9.000000E+99

> <Gold.Chemscore.Hbonds>
donor molecule, donor type, donor heavy atom, donor atom, acceptor molecule, acceptor atom, score
      L1  H    10    26       P1  7957  0.95
      L1  H    12    27       P1  8028  0.97
      P1  H  7997  8008       L1    16  0.98
      P1  H  8011  8017       L1    12  0.01

> <Gold.Chemscore.Hbond.Weighted>
-11.6132

> <Gold.Chemscore.Metal.Weighted>
-0.0000

> <Gold.Chemscore.Lipo.Weighted>
-2.9710

> <Gold.Chemscore.Internal_Hbond.Weighted>
0.0000

> <Gold.Chemscore.DEClash.Weighted>
0.0637

> <Gold.Chemscore.DEInternal.Weighted>
1.2090

> <Gold.Chemscore.Rot.Weighted>
10.3936

> <Gold.Chemscore.Internal.Correction.Weighted>
   9.000000E+99

> <Gold.Protein.RotatedTorsions>
[ 6907 6896 6895 6894 ] final   -5.20 input  -60.11 | X-H torsion
[ 7974 7965 7964 7962 ] final -160.12 input  175.53 | X-H torsion
[ 8008 7997 7996 7995 ] final  -41.34 input   59.86 | X-H torsion
[ 10167 10162 10161 10158 ] final  -97.37 input  -65.29 | X-H torsion
[ 10718 10713 10712 10709 ] final  -54.39 input   66.30 | X-H torsion
[ 10763 10752 10751 10750 ] final   61.81 input  -60.55 | X-H torsion
[ 11005 11000 10999 10996 ] final  -70.10 input  -57.11 | X-H torsion

> <Gold.Protein.ActiveResidues>
 VAL166  LYS551  ARG553  GLY616  TRP617  ASP618  TYR619  PRO620  LYS621  CYS622 
 ASP623  PHE694  ASN695  SER759  ASP760  ASP761  ALA762  ILE779  LEU786  VAL792 
 PHE793  MET794  SER795  GLU796  ALA797  LYS798  CYS799  TRP800  GLU811  SER814 

> <Gold.Protein.RotatedAtoms>
  151.4853  135.1054  159.9788 H   0  0  0  0  0  0  0  0  0  0  0  0  # atno 6907 bound_to 6896
  152.4763  133.8141  159.7029 H   0  0  0  0  0  0  0  0  0  0  0  0  # atno 6908 bound_to 6896
  150.8803  133.7320  159.2960 H   0  0  0  0  0  0  0  0  0  0  0  0  # atno 6909 bound_to 6896
  144.7439  140.3588  143.6100 H   0  0  0  0  0  0  0  0  0  0  0  0  # atno 7974 bound_to 7965
  154.4005  140.1502  156.3176 H   0  0  0  0  0  0  0  0  0  0  0  0  # atno 8008 bound_to 7997
  155.8559  140.3455  155.5702 H   0  0  0  0  0  0  0  0  0  0  0  0  # atno 8009 bound_to 7997
  155.7933  140.0860  157.1987 H   0  0  0  0  0  0  0  0  0  0  0  0  # atno 8010 bound_to 7997
  140.2841  143.3263  152.0411 H   0  0  0  0  0  0  0  0  0  0  0  0  # atno 10167 bound_to 10162
  156.1455  130.4153  150.0031 H   0  0  0  0  0  0  0  0  0  0  0  0  # atno 10718 bound_to 10713
  152.9962  135.5487  154.6094 H   0  0  0  0  0  0  0  0  0  0  0  0  # atno 10763 bound_to 10752
  154.5418  135.2820  155.1091 H   0  0  0  0  0  0  0  0  0  0  0  0  # atno 10764 bound_to 10752
  154.2365  135.6424  153.5245 H   0  0  0  0  0  0  0  0  0  0  0  0  # atno 10765 bound_to 10752
  141.1567  133.6781  156.6701 H   0  0  0  0  0  0  0  0  0  0  0  0  # atno 11005 bound_to 11000
  145.7199  139.1707  143.2490 LP  0  0  0  0  0  0  0  0  0  0  0  0  # atno 17320 bound_to 7965
  146.1285  140.7217  142.9424 LP  0  0  0  0  0  0  0  0  0  0  0  0  # atno 17321 bound_to 7965
  139.4955  144.6571  151.6548 LP  0  0  0  0  0  0  0  0  0  0  0  0  # atno 17342 bound_to 10162
  140.5787  143.9984  150.6256 LP  0  0  0  0  0  0  0  0  0  0  0  0  # atno 17343 bound_to 10162
  156.7904  130.9254  151.3646 LP  0  0  0  0  0  0  0  0  0  0  0  0  # atno 17370 bound_to 10713
  157.6613  130.8968  149.9836 LP  0  0  0  0  0  0  0  0  0  0  0  0  # atno 17371 bound_to 10713
  140.3181  134.8030  157.4230 LP  0  0  0  0  0  0  0  0  0  0  0  0  # atno 17394 bound_to 11000
  140.1120  134.5332  155.8257 LP  0  0  0  0  0  0  0  0  0  0  0  0  # atno 17395 bound_to 11000

$$$$
