AV-unprocessed.smi:480|AV-procd|sdf|2678|dock1
  -GOLD-   2262023103D 1   1.00000     0.00000
 Structure written by MMmdl.
 47 49  0  0  0  0  0  0  0  0  2 V2000
  148.8547  141.5457  154.6619 C   0  0  0  0  0  0  0  0  0  0  0  0
  150.0418  140.8265  155.3172 C   0  0  0  0  0  0  0  0  0  0  0  0
  150.6685  141.6273  156.4176 C   0  0  0  0  0  0  0  0  0  0  0  0
  150.8230  142.9827  156.4345 N   0  3  0  0  0  0  0  0  0  0  0  0
  151.4606  143.3747  157.6113 C   0  0  0  0  0  0  0  0  0  0  0  0
  151.8159  144.6360  158.0790 C   0  0  0  0  0  0  0  0  0  0  0  0
  152.4636  144.6868  159.3309 C   0  0  0  0  0  0  0  0  0  0  0  0
  152.7363  143.5139  160.0647 C   0  0  0  0  0  0  0  0  0  0  0  0
  152.3720  142.2408  159.5789 C   0  0  0  0  0  0  0  0  0  0  0  0
  151.7287  142.2003  158.3424 C   0  0  0  0  0  0  0  0  0  0  0  0
  151.2249  141.1479  157.5702 N   0  0  0  0  0  0  0  0  0  0  0  0
  151.3433  139.7728  158.0825 C   0  0  0  0  0  0  0  0  0  0  0  0
  152.7739  139.4021  158.5376 C   0  0  2  0  0  0  0  0  0  0  0  0
  153.4211  138.7537  157.4636 O   0  0  0  0  0  0  0  0  0  0  0  0
  152.8359  138.4902  159.7770 C   0  0  0  0  0  0  0  0  0  0  0  0
  154.1001  137.8392  159.8057 O   0  0  0  0  0  0  0  0  0  0  0  0
  154.4072  137.0533  160.8931 C   0  0  0  0  0  0  0  0  0  0  0  0
  153.8115  137.4026  162.1220 C   0  0  0  0  0  0  0  0  0  0  0  0
  154.0563  136.6436  163.2818 C   0  0  0  0  0  0  0  0  0  0  0  0
  154.9108  135.5252  163.2260 C   0  0  0  0  0  0  0  0  0  0  0  0
  155.1763  134.7100  164.4748 C   0  0  0  0  0  0  0  0  0  0  0  0
  154.3981  133.4619  164.4954 C   0  0  0  0  0  0  0  0  0  0  0  0
  153.7868  132.4798  164.5116 N   0  0  0  0  0  0  0  0  0  0  0  0
  155.5198  135.1739  162.0050 C   0  0  0  0  0  0  0  0  0  0  0  0
  155.2725  135.9324  160.8444 C   0  0  0  0  0  0  0  0  0  0  0  0
  148.4114  140.9255  153.8828 H   0  0  0  0  0  0  0  0  0  0  0  0
  149.1601  142.4848  154.1997 H   0  0  0  0  0  0  0  0  0  0  0  0
  148.0750  141.7667  155.3910 H   0  0  0  0  0  0  0  0  0  0  0  0
  149.7022  139.8694  155.7114 H   0  0  0  0  0  0  0  0  0  0  0  0
  150.8035  140.6064  154.5690 H   0  0  0  0  0  0  0  0  0  0  0  0
  151.6090  145.5355  157.5180 H   0  0  0  0  0  0  0  0  0  0  0  0
  152.7582  145.6442  159.7356 H   0  0  0  0  0  0  0  0  0  0  0  0
  153.2347  143.5917  161.0202 H   0  0  0  0  0  0  0  0  0  0  0  0
  152.5847  141.3481  160.1483 H   0  0  0  0  0  0  0  0  0  0  0  0
  150.6465  139.6721  158.9150 H   0  0  0  0  0  0  0  0  0  0  0  0
  150.9908  139.0865  157.3112 H   0  0  0  0  0  0  0  0  0  0  0  0
  153.3403  140.3105  158.7447 H   0  0  0  0  0  0  0  0  0  0  0  0
  153.3406  137.8196  157.5829 H   0  0  0  0  0  0  0  0  0  0  0  0
  152.6602  139.0828  160.6759 H   0  0  0  0  0  0  0  0  0  0  0  0
  152.0590  137.7257  159.7238 H   0  0  0  0  0  0  0  0  0  0  0  0
  153.1524  138.2570  162.1734 H   0  0  0  0  0  0  0  0  0  0  0  0
  153.5890  136.9221  164.2150 H   0  0  0  0  0  0  0  0  0  0  0  0
  156.2354  134.4573  164.5339 H   0  0  0  0  0  0  0  0  0  0  0  0
  154.9261  135.2871  165.3656 H   0  0  0  0  0  0  0  0  0  0  0  0
  156.1817  134.3215  161.9549 H   0  0  0  0  0  0  0  0  0  0  0  0
  155.7617  135.6381  159.9283 H   0  0  0  0  0  0  0  0  0  0  0  0
  150.5061  143.5937  155.6928 H   0  0  0  0  0  0  0  0  0  0  0  0
  1  2  1  0  0  0  0
  1 26  1  0  0  0  0
  1 27  1  0  0  0  0
  1 28  1  0  0  0  0
  2  3  1  0  0  0  0
  2 29  1  0  0  0  0
  2 30  1  0  0  0  0
  3 11  1  0  0  0  0
  3  4  2  0  0  0  0
  4  5  1  0  0  0  0
  4 47  1  0  0  0  0
  5 10  2  0  0  0  0
  5  6  1  0  0  0  0
  6  7  2  0  0  0  0
  6 31  1  0  0  0  0
  7  8  1  0  0  0  0
  7 32  1  0  0  0  0
  8  9  2  0  0  0  0
  8 33  1  0  0  0  0
  9 10  1  0  0  0  0
  9 34  1  0  0  0  0
 10 11  1  0  0  0  0
 11 12  1  0  0  0  0
 12 13  1  0  0  0  0
 12 35  1  0  0  0  0
 12 36  1  0  0  0  0
 13 14  1  0  0  0  0
 13 15  1  0  0  0  0
 13 37  1  0  0  0  0
 14 38  1  0  0  0  0
 15 16  1  0  0  0  0
 15 39  1  0  0  0  0
 15 40  1  0  0  0  0
 16 17  1  0  0  0  0
 17 25  1  0  0  0  0
 17 18  2  0  0  0  0
 18 19  1  0  0  0  0
 18 41  1  0  0  0  0
 19 20  2  0  0  0  0
 19 42  1  0  0  0  0
 20 21  1  0  0  0  0
 20 24  1  0  0  0  0
 21 22  1  0  0  0  0
 21 43  1  0  0  0  0
 21 44  1  0  0  0  0
 22 23  3  0  0  0  0
 24 25  2  0  0  0  0
 24 45  1  0  0  0  0
 25 46  1  0  0  0  0
M  CHG  1   4   1
M  END
> <s_m_source_file>
AV-unprocessed.smi

> <i_m_source_file_index>
480

> <i_lp_mmshare_version>
43012

> <i_f3d_flags>
0

> <s_epik_input>
W2NIXTFbY0hdW2NIXVtjSF1jKGMxMiluKGMobjIpW0NIMl1bQ0gzXSlbQ0gyXVtDQEhdKFtPSF0pW0NIMl1PYzNbY0hdW2NIXWMoW0NIMl1DI04pW2NIXVtjSF0z

> <s_epik_cmdline>
J2VwaWtfcHl0aG9uJywgJy1waCcsICc3LjAnLCAnLXRuJywgJzgnLCAnLW1hJywgJzIwMCcsICctbWV0YWxfYmluZGluZycsICctaW1hZScsICc8aW5maWxlLm1hZT4nLCAnLW9tYWUnLCAnPG91dGZpbGUubWFlPic=

> <r_lp_tautomer_probability>
1

> <r_epik_Ionization_Penalty>
1.03158

> <r_epik_Ionization_Penalty_Charging>
1.03158

> <r_epik_Ionization_Penalty_Neutral>
2.3994e-06

> <r_epik_State_Penalty>
1.08278

> <r_epik_Charging_Adjusted_Penalty>
2.11436

> <i_epik_Tot_Q>
1

> <i_epik_Tot_abs_Q>
1

> <r_epik_Metal_State_Penalty>
5.07177

> <b_epik_Metal_Only>
0

> <s_lp_Force_Field>
OPLS_2005

> <r_lp_Energy>
18.4444

> <b_lp_Chiralities_Consistent>
1

> <s_lp_Variant>
AV-unprocessed.smi:480-3

> <Gold.Version>
5.8.1

> <Gold.Id.Protein>
6NUR|6NUR_protein|mol2

> <Gold.PLP.Fitness>
58.8951

> <Gold.PLP.PLP>
-55.4616

> <Gold.PLP.part.hbond>
-2.0000

> <Gold.PLP.part.metal>
0.0000

> <Gold.PLP.part.buried>
-6.4175

> <Gold.PLP.part.nonpolar>
-47.7905

> <Gold.PLP.part.repulsive>
0.1047

> <Gold.PLP.ligand.clash>
0.0000

> <Gold.PLP.ligand.torsion>
1.7679

> <Gold.PLP.Chemscore.Hbond>
2.2160

> <Gold.PLP.Chemscore.CHOScore>
0.0000

> <Gold.PLP.Chemscore.Metal>
0.0000

> <Gold.Chemscore.Hbonds>
donor molecule, donor type, donor heavy atom, donor atom, acceptor molecule, acceptor atom, score
      L1  H     4    47       P1  8028  1.15
      P1  H  7997  8010       L1    14  1.00

> <Gold.PLP.Chemscore.Internal.Correction>
0.3212

> <Gold.Rescore>
     Score         DG    S(hbond)    S(metal)    S(lipo)     H(rot)  DE(clash)    DE(int)     intcor
     18.82     -20.47       1.94        0.00     131.31       2.67       0.01       1.64       ----

> <Gold.Chemscore.Fitness>
18.8220

> <Gold.Chemscore.DG>
-20.4719

> <Gold.Chemscore.ZeroCoef>
-5.4800

> <Gold.Chemscore.Hbond>
1.9362

> <Gold.Chemscore.Metal>
0.0000

> <Gold.Chemscore.Lipo>
131.3059

> <Gold.Chemscore.Internal_Hbond>
0.0000

> <Gold.Chemscore.DEClash>
0.0089

> <Gold.Chemscore.DEInternal>
1.6411

> <Gold.Chemscore.Rot>
2.6710

> <Gold.Chemscore.Internal.Correction>
   9.000000E+99

> <Gold.Chemscore.Hbonds>
donor molecule, donor type, donor heavy atom, donor atom, acceptor molecule, acceptor atom, score
      L1  H     4    47       P1  8028  0.57
      P1  H  7997  8010       L1    14  0.30

> <Gold.Chemscore.Hbond.Weighted>
-6.4668

> <Gold.Chemscore.Metal.Weighted>
-0.0000

> <Gold.Chemscore.Lipo.Weighted>
-15.3628

> <Gold.Chemscore.Internal_Hbond.Weighted>
0.0000

> <Gold.Chemscore.DEClash.Weighted>
0.0089

> <Gold.Chemscore.DEInternal.Weighted>
1.6411

> <Gold.Chemscore.Rot.Weighted>
6.8377

> <Gold.Chemscore.Internal.Correction.Weighted>
   9.000000E+99

> <Gold.Protein.RotatedTorsions>
[ 6907 6896 6895 6894 ] final   40.55 input  -60.11 | X-H torsion
[ 7974 7965 7964 7962 ] final  124.14 input  175.53 | X-H torsion
[ 8008 7997 7996 7995 ] final   39.65 input   59.86 | X-H torsion
[ 10167 10162 10161 10158 ] final  -36.61 input  -65.29 | X-H torsion
[ 10718 10713 10712 10709 ] final   65.68 input   66.30 | X-H torsion
[ 10763 10752 10751 10750 ] final -118.06 input  -60.55 | X-H torsion
[ 11005 11000 10999 10996 ] final   70.67 input  -57.11 | X-H torsion

> <Gold.Protein.ActiveResidues>
 VAL166  LYS551  ARG553  GLY616  TRP617  ASP618  TYR619  PRO620  LYS621  CYS622 
 ASP623  PHE694  ASN695  SER759  ASP760  ASP761  ALA762  ILE779  LEU786  VAL792 
 PHE793  MET794  SER795  GLU796  ALA797  LYS798  CYS799  TRP800  GLU811  SER814 

> <Gold.Protein.RotatedAtoms>
  152.1840  134.8730  160.0523 H   0  0  0  0  0  0  0  0  0  0  0  0  # atno 6907 bound_to 6896
  151.9643  133.3700  159.4055 H   0  0  0  0  0  0  0  0  0  0  0  0  # atno 6908 bound_to 6896
  150.6922  134.4130  159.5214 H   0  0  0  0  0  0  0  0  0  0  0  0  # atno 6909 bound_to 6896
  145.0879  139.3609  143.4876 H   0  0  0  0  0  0  0  0  0  0  0  0  # atno 7974 bound_to 7965
  155.2401  140.3345  155.4293 H   0  0  0  0  0  0  0  0  0  0  0  0  # atno 8008 bound_to 7997
  156.2259  140.1829  156.7409 H   0  0  0  0  0  0  0  0  0  0  0  0  # atno 8009 bound_to 7997
  154.5898  140.0640  156.9208 H   0  0  0  0  0  0  0  0  0  0  0  0  # atno 8010 bound_to 7997
  140.7138  143.3397  151.2384 H   0  0  0  0  0  0  0  0  0  0  0  0  # atno 10167 bound_to 10162
  157.6121  130.9227  150.0008 H   0  0  0  0  0  0  0  0  0  0  0  0  # atno 10718 bound_to 10713
  154.8575  135.4287  154.2078 H   0  0  0  0  0  0  0  0  0  0  0  0  # atno 10763 bound_to 10752
  153.3110  135.6976  153.7121 H   0  0  0  0  0  0  0  0  0  0  0  0  # atno 10764 bound_to 10752
  153.6214  135.3501  155.2986 H   0  0  0  0  0  0  0  0  0  0  0  0  # atno 10765 bound_to 10752
  139.9585  134.7102  156.0699 H   0  0  0  0  0  0  0  0  0  0  0  0  # atno 11005 bound_to 11000
  146.3531  140.0699  142.8624 LP  0  0  0  0  0  0  0  0  0  0  0  0  # atno 17320 bound_to 7965
  145.1101  140.9399  143.4661 LP  0  0  0  0  0  0  0  0  0  0  0  0  # atno 17321 bound_to 7965
  139.6901  143.9706  152.2855 LP  0  0  0  0  0  0  0  0  0  0  0  0  # atno 17342 bound_to 10162
  139.9365  144.6709  150.8310 LP  0  0  0  0  0  0  0  0  0  0  0  0  # atno 17343 bound_to 10162
  156.1228  130.3645  149.9859 LP  0  0  0  0  0  0  0  0  0  0  0  0  # atno 17370 bound_to 10713
  156.7936  130.9265  151.3646 LP  0  0  0  0  0  0  0  0  0  0  0  0  # atno 17371 bound_to 10713
  141.1259  133.6599  156.3336 LP  0  0  0  0  0  0  0  0  0  0  0  0  # atno 17394 bound_to 11000
  140.5554  134.5986  157.5419 LP  0  0  0  0  0  0  0  0  0  0  0  0  # atno 17395 bound_to 11000

$$$$
