AV-unprocessed.smi:1870|AV-procd|sdf|7598|dock3
  -GOLD-   22720 9313D 1   1.00000     0.00000
 Structure written by MMmdl.
 47 49  0  0  0  0  0  0  0  0  1 V2000
  146.7374  137.2059  162.7941 C   0  0  0  0  0  0  0  0  0  0  0  0
  147.3067  136.4588  161.6184 C   0  0  0  0  0  0  0  0  0  0  0  0
  147.8313  137.1720  160.6767 N   0  0  0  0  0  0  0  0  0  0  0  0
  148.3757  136.5881  159.5503 N   0  0  0  0  0  0  0  0  0  0  0  0
  148.9210  137.5502  158.5839 C   0  0  0  0  0  0  0  0  0  0  0  0
  150.4210  137.8302  158.8293 C   0  0  1  0  0  0  0  0  0  0  0  0
  151.0843  136.5856  158.9273 O   0  0  0  0  0  0  0  0  0  0  0  0
  151.1315  138.6057  157.7002 C   0  0  0  0  0  0  0  0  0  0  0  0
  150.9997  140.0615  157.7838 N   0  0  0  0  0  0  0  0  0  0  0  0
  151.1205  140.7069  156.4771 C   0  0  0  0  0  0  0  0  0  0  0  0
  150.7020  142.1839  156.5392 C   0  0  0  0  0  0  0  0  0  0  0  0
  151.3352  142.9070  157.7173 C   0  0  0  0  0  0  0  0  0  0  0  0
  151.3048  144.3149  157.7832 C   0  0  0  0  0  0  0  0  0  0  0  0
  151.8681  144.9819  158.8883 C   0  0  0  0  0  0  0  0  0  0  0  0
  152.4629  144.2432  159.9293 C   0  0  0  0  0  0  0  0  0  0  0  0
  152.4959  142.8364  159.8670 C   0  0  0  0  0  0  0  0  0  0  0  0
  151.9284  142.1630  158.7658 C   0  0  0  0  0  0  0  0  0  0  0  0
  151.9947  140.6421  158.6882 C   0  0  0  0  0  0  0  0  0  0  0  0
  148.4163  135.2451  159.3139 C   0  0  0  0  0  0  0  0  0  0  0  0
  148.9035  134.7665  158.2885 O   0  0  0  0  0  0  0  0  0  0  0  0
  147.8258  134.4426  160.3875 C   0  0  0  0  0  0  0  0  0  0  0  0
  147.8487  133.0302  160.1817 C   0  0  0  0  0  0  0  0  0  0  0  0
  147.8468  131.8845  160.0155 N   0  0  0  0  0  0  0  0  0  0  0  0
  147.2913  135.0042  161.5006 C   0  0  0  0  0  0  0  0  0  0  0  0
  146.6638  134.2151  162.6416 C   0  0  0  0  0  0  0  0  0  0  0  0
  145.6944  136.9345  162.9583 H   0  0  0  0  0  0  0  0  0  0  0  0
  146.7751  138.2864  162.6463 H   0  0  0  0  0  0  0  0  0  0  0  0
  147.2944  136.9773  163.7031 H   0  0  0  0  0  0  0  0  0  0  0  0
  148.7572  137.2134  157.5583 H   0  0  0  0  0  0  0  0  0  0  0  0
  148.3445  138.4691  158.6782 H   0  0  0  0  0  0  0  0  0  0  0  0
  150.5619  138.3700  159.7666 H   0  0  0  0  0  0  0  0  0  0  0  0
  150.5256  135.9860  159.3981 H   0  0  0  0  0  0  0  0  0  0  0  0
  152.1889  138.3417  157.7587 H   0  0  0  0  0  0  0  0  0  0  0  0
  150.8044  138.2476  156.7224 H   0  0  0  0  0  0  0  0  0  0  0  0
  152.1536  140.6359  156.1326 H   0  0  0  0  0  0  0  0  0  0  0  0
  150.5222  140.1986  155.7236 H   0  0  0  0  0  0  0  0  0  0  0  0
  150.9686  142.6885  155.6100 H   0  0  0  0  0  0  0  0  0  0  0  0
  149.6184  142.2549  156.6404 H   0  0  0  0  0  0  0  0  0  0  0  0
  150.8459  144.8856  156.9893 H   0  0  0  0  0  0  0  0  0  0  0  0
  151.8429  146.0604  158.9378 H   0  0  0  0  0  0  0  0  0  0  0  0
  152.8958  144.7560  160.7755 H   0  0  0  0  0  0  0  0  0  0  0  0
  152.9595  142.2759  160.6656 H   0  0  0  0  0  0  0  0  0  0  0  0
  151.8568  140.2375  159.6918 H   0  0  0  0  0  0  0  0  0  0  0  0
  153.0002  140.3620  158.3698 H   0  0  0  0  0  0  0  0  0  0  0  0
  146.7935  133.1401  162.5195 H   0  0  0  0  0  0  0  0  0  0  0  0
  145.5933  134.4148  162.6980 H   0  0  0  0  0  0  0  0  0  0  0  0
  147.1159  134.4888  163.5956 H   0  0  0  0  0  0  0  0  0  0  0  0
  1  2  1  0  0  0  0
  1 26  1  0  0  0  0
  1 27  1  0  0  0  0
  1 28  1  0  0  0  0
  2 24  1  0  0  0  0
  2  3  2  0  0  0  0
  3  4  1  0  0  0  0
  4  5  1  0  0  0  0
  4 19  1  0  0  0  0
  5  6  1  0  0  0  0
  5 29  1  0  0  0  0
  5 30  1  0  0  0  0
  6  7  1  0  0  0  0
  6  8  1  0  0  0  0
  6 31  1  0  0  0  0
  7 32  1  0  0  0  0
  8  9  1  0  0  0  0
  8 33  1  0  0  0  0
  8 34  1  0  0  0  0
  9 18  1  0  0  0  0
  9 10  1  0  0  0  0
 10 11  1  0  0  0  0
 10 35  1  0  0  0  0
 10 36  1  0  0  0  0
 11 12  1  0  0  0  0
 11 37  1  0  0  0  0
 11 38  1  0  0  0  0
 12 17  2  0  0  0  0
 12 13  1  0  0  0  0
 13 14  2  0  0  0  0
 13 39  1  0  0  0  0
 14 15  1  0  0  0  0
 14 40  1  0  0  0  0
 15 16  2  0  0  0  0
 15 41  1  0  0  0  0
 16 17  1  0  0  0  0
 16 42  1  0  0  0  0
 17 18  1  0  0  0  0
 18 43  1  0  0  0  0
 18 44  1  0  0  0  0
 19 20  2  0  0  0  0
 19 21  1  0  0  0  0
 21 22  1  0  0  0  0
 21 24  2  0  0  0  0
 22 23  3  0  0  0  0
 24 25  1  0  0  0  0
 25 45  1  0  0  0  0
 25 46  1  0  0  0  0
 25 47  1  0  0  0  0
M  END
> <s_m_source_file>
AV-unprocessed.smi

> <i_m_source_file_index>
1870

> <i_lp_mmshare_version>
43012

> <i_f3d_flags>
0

> <s_epik_input>
TiNDYyhjMVtDSDNdKWMoPU8pbihuYzFbQ0gzXSlbQ0gyXVtDQEhdKFtPSF0pW0NIMl1OKFtDSDJdW0NIMl0yKVtDSDJdYyhjMjMpW2NIXVtjSF1bY0hdW2NIXTM=

> <s_epik_cmdline>
J2VwaWtfcHl0aG9uJywgJy1waCcsICc3LjAnLCAnLXRuJywgJzgnLCAnLW1hJywgJzIwMCcsICctbWV0YWxfYmluZGluZycsICctaW1hZScsICc8aW5maWxlLm1hZT4nLCAnLW9tYWUnLCAnPG91dGZpbGUubWFlPic=

> <r_epik_Ionization_Penalty>
2.30251

> <r_epik_Ionization_Penalty_Charging>
1.06171e-10

> <r_epik_Ionization_Penalty_Neutral>
2.30251

> <r_epik_State_Penalty>
2.45335

> <r_epik_Charging_Adjusted_Penalty>
2.45335

> <i_epik_Tot_Q>
0

> <i_epik_Tot_abs_Q>
0

> <r_epik_Metal_State_Penalty>
2.45335

> <b_epik_Metal_Only>
0

> <s_lp_Force_Field>
OPLS_2005

> <r_lp_Energy>
48.2343

> <b_lp_Chiralities_Consistent>
1

> <s_lp_Variant>
AV-unprocessed.smi:1870-6

> <Gold.Version>
5.8.1

> <Gold.Id.Protein>
6NUR|6NUR_protein|mol2

> <Gold.PLP.Fitness>
58.3860

> <Gold.PLP.PLP>
-53.7062

> <Gold.PLP.part.hbond>
-4.0000

> <Gold.PLP.part.metal>
0.0000

> <Gold.PLP.part.buried>
-6.2429

> <Gold.PLP.part.nonpolar>
-44.0043

> <Gold.PLP.part.repulsive>
0.0000

> <Gold.PLP.ligand.clash>
0.0000

> <Gold.PLP.ligand.torsion>
0.9679

> <Gold.PLP.Chemscore.Hbond>
2.2004

> <Gold.PLP.Chemscore.CHOScore>
0.0000

> <Gold.PLP.Chemscore.Metal>
0.0000

> <Gold.Chemscore.Hbonds>
donor molecule, donor type, donor heavy atom, donor atom, acceptor molecule, acceptor atom, score
      P1  H  6896  6908       L1    20  0.37
      P1  H  6931  6943       L1     3  0.65
      P1  H  6934  6947       L1     3  0.85

> <Gold.PLP.Chemscore.Internal.Correction>
0.0144

> <Gold.Rescore>
     Score         DG    S(hbond)    S(metal)    S(lipo)     H(rot)  DE(clash)    DE(int)     intcor
     19.05     -19.95       1.12        0.00     137.52       2.10       0.01       0.89       ----

> <Gold.Chemscore.Fitness>
19.0513

> <Gold.Chemscore.DG>
-19.9527

> <Gold.Chemscore.ZeroCoef>
-5.4800

> <Gold.Chemscore.Hbond>
1.1231

> <Gold.Chemscore.Metal>
0.0000

> <Gold.Chemscore.Lipo>
137.5218

> <Gold.Chemscore.Internal_Hbond>
0.0000

> <Gold.Chemscore.DEClash>
0.0149

> <Gold.Chemscore.DEInternal>
0.8865

> <Gold.Chemscore.Rot>
2.0971

> <Gold.Chemscore.Internal.Correction>
   9.000000E+99

> <Gold.Chemscore.Hbonds>
donor molecule, donor type, donor heavy atom, donor atom, acceptor molecule, acceptor atom, score
      P1  H  6896  6908       L1    20  0.02
      P1  H  6931  6943       L1     3  0.09
      P1  H  6934  6947       L1     3  0.50

> <Gold.Chemscore.Hbond.Weighted>
-3.7512

> <Gold.Chemscore.Metal.Weighted>
-0.0000

> <Gold.Chemscore.Lipo.Weighted>
-16.0900

> <Gold.Chemscore.Internal_Hbond.Weighted>
0.0000

> <Gold.Chemscore.DEClash.Weighted>
0.0149

> <Gold.Chemscore.DEInternal.Weighted>
0.8865

> <Gold.Chemscore.Rot.Weighted>
5.3685

> <Gold.Chemscore.Internal.Correction.Weighted>
   9.000000E+99

> <Gold.Protein.RotatedTorsions>
[ 6907 6896 6895 6894 ] final  143.91 input  -60.11 | X-H torsion
[ 7974 7965 7964 7962 ] final  116.79 input  175.53 | X-H torsion
[ 8008 7997 7996 7995 ] final -115.89 input   59.86 | X-H torsion
[ 10167 10162 10161 10158 ] final -158.58 input  -65.29 | X-H torsion
[ 10718 10713 10712 10709 ] final  -53.85 input   66.30 | X-H torsion
[ 10763 10752 10751 10750 ] final  -43.46 input  -60.55 | X-H torsion
[ 11005 11000 10999 10996 ] final  -84.96 input  -57.11 | X-H torsion

> <Gold.Protein.ActiveResidues>
 VAL166  LYS551  ARG553  GLY616  TRP617  ASP618  TYR619  PRO620  LYS621  CYS622 
 ASP623  PHE694  ASN695  SER759  ASP760  ASP761  ALA762  ILE779  LEU786  VAL792 
 PHE793  MET794  SER795  GLU796  ALA797  LYS798  CYS799  TRP800  GLU811  SER814 

> <Gold.Protein.RotatedAtoms>
  152.2003  133.4836  159.5054 H   0  0  0  0  0  0  0  0  0  0  0  0  # atno 6907 bound_to 6896
  150.6968  134.1599  159.4181 H   0  0  0  0  0  0  0  0  0  0  0  0  # atno 6908 bound_to 6896
  151.9516  135.0166  160.0593 H   0  0  0  0  0  0  0  0  0  0  0  0  # atno 6909 bound_to 6896
  145.1753  139.3079  143.4446 H   0  0  0  0  0  0  0  0  0  0  0  0  # atno 7974 bound_to 7965
  155.0591  140.0393  157.2570 H   0  0  0  0  0  0  0  0  0  0  0  0  # atno 8008 bound_to 7997
  154.7074  140.2686  155.6637 H   0  0  0  0  0  0  0  0  0  0  0  0  # atno 8009 bound_to 7997
  156.2779  140.2728  156.1704 H   0  0  0  0  0  0  0  0  0  0  0  0  # atno 8010 bound_to 7997
  139.6681  143.9793  152.2267 H   0  0  0  0  0  0  0  0  0  0  0  0  # atno 10167 bound_to 10162
  156.1500  130.4151  149.9960 H   0  0  0  0  0  0  0  0  0  0  0  0  # atno 10718 bound_to 10713
  153.9959  135.6699  153.4756 H   0  0  0  0  0  0  0  0  0  0  0  0  # atno 10763 bound_to 10752
  153.0684  135.4988  154.8247 H   0  0  0  0  0  0  0  0  0  0  0  0  # atno 10764 bound_to 10752
  154.7082  135.3092  154.9201 H   0  0  0  0  0  0  0  0  0  0  0  0  # atno 10765 bound_to 10752
  141.1646  133.7374  156.8945 H   0  0  0  0  0  0  0  0  0  0  0  0  # atno 11005 bound_to 11000
  146.3462  140.1913  142.8589 LP  0  0  0  0  0  0  0  0  0  0  0  0  # atno 17320 bound_to 7965
  145.0191  140.8778  143.5178 LP  0  0  0  0  0  0  0  0  0  0  0  0  # atno 17321 bound_to 7965
  139.9550  144.6595  150.8134 LP  0  0  0  0  0  0  0  0  0  0  0  0  # atno 17342 bound_to 10162
  140.7607  143.3158  151.2737 LP  0  0  0  0  0  0  0  0  0  0  0  0  # atno 17343 bound_to 10162
  156.7820  130.9225  151.3646 LP  0  0  0  0  0  0  0  0  0  0  0  0  # atno 17370 bound_to 10713
  157.6649  130.8999  149.9910 LP  0  0  0  0  0  0  0  0  0  0  0  0  # atno 17371 bound_to 10713
  140.1626  134.9155  157.2733 LP  0  0  0  0  0  0  0  0  0  0  0  0  # atno 17394 bound_to 11000
  140.2594  134.3589  155.7412 LP  0  0  0  0  0  0  0  0  0  0  0  0  # atno 17395 bound_to 11000

$$$$
