AV-unprocessed.smi:1017|AV-procd|sdf|4438|dock4
  -GOLD-   22720 2393D 1   1.00000     0.00000
 Structure written by MMmdl.
 44 45  0  0  0  0  0  0  0  0  1 V2000
  152.3050  143.8571  158.8825 C   0  0  0  0  0  0  0  0  0  0  0  0
  151.5245  143.3619  157.8089 O   0  0  0  0  0  0  0  0  0  0  0  0
  150.9716  142.0858  158.0827 C   0  0  0  0  0  0  0  0  0  0  0  0
  150.6753  141.3777  156.7519 C   0  0  0  0  0  0  0  0  0  0  0  0
  149.2802  141.5635  156.3393 N   0  0  0  0  0  0  0  0  0  0  0  0
  148.4227  141.8888  157.3770 N   0  0  0  0  0  0  0  0  0  0  0  0
  147.1642  142.0767  157.1492 C   0  0  0  0  0  0  0  0  0  0  0  0
  146.2537  142.4327  158.2748 C   0  0  0  0  0  0  0  0  0  0  0  0
  145.6374  141.5585  158.8847 O   0  0  0  0  0  0  0  0  0  0  0  0
  146.1663  143.7446  158.5687 N   0  0  0  0  0  0  0  0  0  0  0  0
  145.3863  144.4297  159.6131 C   0  0  0  0  0  0  0  0  0  0  0  0
  143.9813  144.8155  159.0660 C   0  0  0  0  0  0  0  0  0  0  0  0
  143.2769  145.4558  160.0003 F   0  0  0  0  0  0  0  0  0  0  0  0
  144.1011  145.6224  158.0103 F   0  0  0  0  0  0  0  0  0  0  0  0
  143.2785  143.7451  158.6966 F   0  0  0  0  0  0  0  0  0  0  0  0
  145.2635  143.5728  160.9058 C   0  0  0  0  0  0  0  0  0  0  0  0
  146.6244  143.2670  161.5578 C   0  0  0  0  0  0  0  0  0  0  0  0
  147.3850  144.5611  161.8790 C   0  0  0  0  0  0  0  0  0  0  0  0
  147.5375  145.4387  160.6283 C   0  0  0  0  0  0  0  0  0  0  0  0
  146.1722  145.7206  159.9702 C   0  0  0  0  0  0  0  0  0  0  0  0
  146.6263  141.9478  155.8001 C   0  0  0  0  0  0  0  0  0  0  0  0
  147.4761  141.6284  154.7997 C   0  0  0  0  0  0  0  0  0  0  0  0
  148.9037  141.4108  155.0341 C   0  0  0  0  0  0  0  0  0  0  0  0
  149.6946  141.1141  154.1391 O   0  0  0  0  0  0  0  0  0  0  0  0
  152.7099  144.8344  158.6197 H   0  0  0  0  0  0  0  0  0  0  0  0
  153.1428  143.1934  159.1005 H   0  0  0  0  0  0  0  0  0  0  0  0
  151.7051  143.9729  159.7863 H   0  0  0  0  0  0  0  0  0  0  0  0
  151.6722  141.4992  158.6795 H   0  0  0  0  0  0  0  0  0  0  0  0
  150.0533  142.1937  158.6625 H   0  0  0  0  0  0  0  0  0  0  0  0
  151.3462  141.7630  155.9818 H   0  0  0  0  0  0  0  0  0  0  0  0
  150.9081  140.3146  156.8339 H   0  0  0  0  0  0  0  0  0  0  0  0
  146.7206  144.3587  157.9901 H   0  0  0  0  0  0  0  0  0  0  0  0
  144.6489  144.1071  161.6312 H   0  0  0  0  0  0  0  0  0  0  0  0
  144.7319  142.6414  160.7152 H   0  0  0  0  0  0  0  0  0  0  0  0
  146.4741  142.6919  162.4717 H   0  0  0  0  0  0  0  0  0  0  0  0
  147.2242  142.6393  160.8979 H   0  0  0  0  0  0  0  0  0  0  0  0
  146.8497  145.1159  162.6507 H   0  0  0  0  0  0  0  0  0  0  0  0
  148.3663  144.3248  162.2916 H   0  0  0  0  0  0  0  0  0  0  0  0
  148.0179  146.3799  160.8970 H   0  0  0  0  0  0  0  0  0  0  0  0
  148.2040  144.9502  159.9167 H   0  0  0  0  0  0  0  0  0  0  0  0
  146.3212  146.3296  159.0777 H   0  0  0  0  0  0  0  0  0  0  0  0
  145.5843  146.3339  160.6539 H   0  0  0  0  0  0  0  0  0  0  0  0
  145.5798  142.1001  155.5810 H   0  0  0  0  0  0  0  0  0  0  0  0
  147.0916  141.5301  153.7951 H   0  0  0  0  0  0  0  0  0  0  0  0
  1  2  1  0  0  0  0
  1 25  1  0  0  0  0
  1 26  1  0  0  0  0
  1 27  1  0  0  0  0
  2  3  1  0  0  0  0
  3  4  1  0  0  0  0
  3 28  1  0  0  0  0
  3 29  1  0  0  0  0
  4  5  1  0  0  0  0
  4 30  1  0  0  0  0
  4 31  1  0  0  0  0
  5 23  1  0  0  0  0
  5  6  1  0  0  0  0
  6  7  2  0  0  0  0
  7  8  1  0  0  0  0
  7 21  1  0  0  0  0
  8  9  2  0  0  0  0
  8 10  1  0  0  0  0
 10 11  1  0  0  0  0
 10 32  1  0  0  0  0
 11 20  1  0  0  0  0
 11 12  1  0  0  0  0
 11 16  1  0  0  0  0
 12 13  1  0  0  0  0
 12 14  1  0  0  0  0
 12 15  1  0  0  0  0
 16 17  1  0  0  0  0
 16 33  1  0  0  0  0
 16 34  1  0  0  0  0
 17 18  1  0  0  0  0
 17 35  1  0  0  0  0
 17 36  1  0  0  0  0
 18 19  1  0  0  0  0
 18 37  1  0  0  0  0
 18 38  1  0  0  0  0
 19 20  1  0  0  0  0
 19 39  1  0  0  0  0
 19 40  1  0  0  0  0
 20 41  1  0  0  0  0
 20 42  1  0  0  0  0
 21 22  2  0  0  0  0
 21 43  1  0  0  0  0
 22 23  1  0  0  0  0
 22 44  1  0  0  0  0
 23 24  2  0  0  0  0
M  END
> <s_m_source_file>
AV-unprocessed.smi

> <i_m_source_file_index>
1017

> <i_lp_mmshare_version>
43012

> <i_f3d_flags>
0

> <s_epik_input>
W0NIM11PW0NIMl1bQ0gyXW4xbmMoW2NIXVtjSF1jMT1PKUMoPU8pW05IXUMyKEMoRikoRilGKVtDSDJdW0NIMl1bQ0gyXVtDSDJdW0NIMl0y

> <s_epik_cmdline>
J2VwaWtfcHl0aG9uJywgJy1waCcsICc3LjAnLCAnLXRuJywgJzgnLCAnLW1hJywgJzIwMCcsICctbWV0YWxfYmluZGluZycsICctaW1hZScsICc8aW5maWxlLm1hZT4nLCAnLW9tYWUnLCAnPG91dGZpbGUubWFlPic=

> <r_lp_tautomer_probability>
1

> <r_epik_Ionization_Penalty>
9.29602e-06

> <r_epik_Ionization_Penalty_Charging>
4.97824e-09

> <r_epik_Ionization_Penalty_Neutral>
9.29104e-06

> <r_epik_State_Penalty>
-0

> <r_epik_Charging_Adjusted_Penalty>
4.97824e-09

> <i_epik_Tot_Q>
0

> <i_epik_Tot_abs_Q>
0

> <r_epik_Metal_State_Penalty>
0.00907788

> <b_epik_Metal_Only>
0

> <s_lp_Force_Field>
OPLS_2005

> <r_lp_Energy>
35.4859

> <b_lp_Chiralities_Consistent>
1

> <s_lp_Variant>
AV-unprocessed.smi:1017-1

> <Gold.Version>
5.8.1

> <Gold.Id.Protein>
6NUR|6NUR_protein|mol2

> <Gold.PLP.Fitness>
39.5340

> <Gold.PLP.PLP>
-36.4657

> <Gold.PLP.part.hbond>
-4.0000

> <Gold.PLP.part.metal>
0.0000

> <Gold.PLP.part.buried>
-0.9543

> <Gold.PLP.part.nonpolar>
-32.8786

> <Gold.PLP.part.repulsive>
0.5034

> <Gold.PLP.ligand.clash>
0.0000

> <Gold.PLP.ligand.torsion>
2.7390

> <Gold.PLP.Chemscore.Hbond>
2.8063

> <Gold.PLP.Chemscore.CHOScore>
0.0000

> <Gold.PLP.Chemscore.Metal>
0.0000

> <Gold.Chemscore.Hbonds>
donor molecule, donor type, donor heavy atom, donor atom, acceptor molecule, acceptor atom, score
      L1  H    10    32       P1  8029  0.91
      P1  H  6934  6946       L1     9  0.24
      P1  H  7989  7998       L1    24  0.43
      P1  H  8011  8017       L1    24  0.41

> <Gold.PLP.Chemscore.Internal.Correction>
0.1275

> <Gold.Rescore>
     Score         DG    S(hbond)    S(metal)    S(lipo)     H(rot)  DE(clash)    DE(int)     intcor
     12.01     -17.30       2.26        0.00      73.69       1.70       1.54       3.75       ----

> <Gold.Chemscore.Fitness>
12.0129

> <Gold.Chemscore.DG>
-17.3010

> <Gold.Chemscore.ZeroCoef>
-5.4800

> <Gold.Chemscore.Hbond>
2.2594

> <Gold.Chemscore.Metal>
0.0000

> <Gold.Chemscore.Lipo>
73.6916

> <Gold.Chemscore.Internal_Hbond>
0.0000

> <Gold.Chemscore.DEClash>
1.5414

> <Gold.Chemscore.DEInternal>
3.7467

> <Gold.Chemscore.Rot>
1.6982

> <Gold.Chemscore.Internal.Correction>
   9.000000E+99

> <Gold.Chemscore.Hbonds>
donor molecule, donor type, donor heavy atom, donor atom, acceptor molecule, acceptor atom, score
      L1  H    10    32       P1  8029  0.35
      P1  H  6934  6946       L1     9  0.17
      P1  H  7989  7998       L1    24  0.41
      P1  H  8011  8017       L1    24  0.39

> <Gold.Chemscore.Hbond.Weighted>
-7.5464

> <Gold.Chemscore.Metal.Weighted>
-0.0000

> <Gold.Chemscore.Lipo.Weighted>
-8.6219

> <Gold.Chemscore.Internal_Hbond.Weighted>
0.0000

> <Gold.Chemscore.DEClash.Weighted>
1.5414

> <Gold.Chemscore.DEInternal.Weighted>
3.7467

> <Gold.Chemscore.Rot.Weighted>
4.3474

> <Gold.Chemscore.Internal.Correction.Weighted>
   9.000000E+99

> <Gold.Protein.RotatedTorsions>
[ 6907 6896 6895 6894 ] final  -98.99 input  -60.11 | X-H torsion
[ 7974 7965 7964 7962 ] final  102.83 input  175.53 | X-H torsion
[ 8008 7997 7996 7995 ] final  -69.60 input   59.86 | X-H torsion
[ 10167 10162 10161 10158 ] final -117.18 input  -65.29 | X-H torsion
[ 10718 10713 10712 10709 ] final  -39.39 input   66.30 | X-H torsion
[ 10763 10752 10751 10750 ] final   19.56 input  -60.55 | X-H torsion
[ 11005 11000 10999 10996 ] final   53.72 input  -57.11 | X-H torsion

> <Gold.Protein.ActiveResidues>
 VAL166  LYS551  ARG553  GLY616  TRP617  ASP618  TYR619  PRO620  LYS621  CYS622 
 ASP623  PHE694  ASN695  SER759  ASP760  ASP761  ALA762  ILE779  LEU786  VAL792 
 PHE793  MET794  SER795  GLU796  ALA797  LYS798  CYS799  TRP800  GLU811  SER814 

> <Gold.Protein.RotatedAtoms>
  150.7065  134.1109  159.3999 H   0  0  0  0  0  0  0  0  0  0  0  0  # atno 6907 bound_to 6896
  151.9096  135.0342  160.0522 H   0  0  0  0  0  0  0  0  0  0  0  0  # atno 6908 bound_to 6896
  152.2347  133.5051  159.5272 H   0  0  0  0  0  0  0  0  0  0  0  0  # atno 6909 bound_to 6896
  145.3539  139.2433  143.3543 H   0  0  0  0  0  0  0  0  0  0  0  0  # atno 7974 bound_to 7965
  154.4950  140.0850  156.7677 H   0  0  0  0  0  0  0  0  0  0  0  0  # atno 8008 bound_to 7997
  155.4138  140.3442  155.4247 H   0  0  0  0  0  0  0  0  0  0  0  0  # atno 8009 bound_to 7997
  156.1382  140.1521  156.8950 H   0  0  0  0  0  0  0  0  0  0  0  0  # atno 8010 bound_to 7997
  140.0712  143.4876  152.1979 H   0  0  0  0  0  0  0  0  0  0  0  0  # atno 10167 bound_to 10162
  156.2930  130.4230  149.8219 H   0  0  0  0  0  0  0  0  0  0  0  0  # atno 10718 bound_to 10713
  153.1152  135.6706  153.9431 H   0  0  0  0  0  0  0  0  0  0  0  0  # atno 10763 bound_to 10752
  153.8963  135.3041  155.3449 H   0  0  0  0  0  0  0  0  0  0  0  0  # atno 10764 bound_to 10752
  154.7569  135.5007  153.9469 H   0  0  0  0  0  0  0  0  0  0  0  0  # atno 10765 bound_to 10752
  140.0744  134.5424  155.9012 H   0  0  0  0  0  0  0  0  0  0  0  0  # atno 11005 bound_to 11000
  146.2956  140.4160  142.8723 LP  0  0  0  0  0  0  0  0  0  0  0  0  # atno 17320 bound_to 7965
  144.8697  140.7255  143.6055 LP  0  0  0  0  0  0  0  0  0  0  0  0  # atno 17321 bound_to 7965
  139.5835  144.7521  151.3579 LP  0  0  0  0  0  0  0  0  0  0  0  0  # atno 17342 bound_to 10162
  140.7125  143.7354  150.7593 LP  0  0  0  0  0  0  0  0  0  0  0  0  # atno 17343 bound_to 10162
  156.5625  130.8389  151.3333 LP  0  0  0  0  0  0  0  0  0  0  0  0  # atno 17370 bound_to 10713
  157.7348  130.9751  150.2046 LP  0  0  0  0  0  0  0  0  0  0  0  0  # atno 17371 bound_to 10713
  141.2024  133.6625  156.6004 LP  0  0  0  0  0  0  0  0  0  0  0  0  # atno 17394 bound_to 11000
  140.3579  134.7713  157.4513 LP  0  0  0  0  0  0  0  0  0  0  0  0  # atno 17395 bound_to 11000

$$$$
