AV-unprocessed.smi:1946|AV-procd|sdf|7864|dock3
  -GOLD-   2272010 13D 1   1.00000     0.00000
 Structure written by MMmdl.
 39 41  0  0  0  0  0  0  0  0  2 V2000
  146.6566  136.4353  159.3035 C   0  0  0  0  0  0  0  0  0  0  0  0
  148.4039  136.3055  159.8612 S   0  0  0  0  0  0  0  0  0  0  0  0
  148.4962  136.8810  161.2120 O   0  0  0  0  0  0  0  0  0  0  0  0
  148.8565  134.9259  159.6248 O   0  0  0  0  0  0  0  0  0  0  0  0
  149.2862  137.3807  158.7365 C   0  0  0  0  0  0  0  0  0  0  0  0
  148.5690  138.2878  157.9318 C   0  0  0  0  0  0  0  0  0  0  0  0
  149.2665  139.1558  157.0698 C   0  0  0  0  0  0  0  0  0  0  0  0
  150.6780  139.1259  157.0165 C   0  0  0  0  0  0  0  0  0  0  0  0
  151.4370  140.0705  156.0951 C   0  0  1  0  0  0  0  0  0  0  0  0
  150.9704  140.0011  154.7642 O   0  0  0  0  0  0  0  0  0  0  0  0
  151.3501  141.5394  156.5565 C   0  0  0  0  0  0  0  0  0  0  0  0
  151.8779  141.7393  157.9120 N   0  0  0  0  0  0  0  0  0  0  0  0
  152.4996  140.8612  158.7453 C   0  0  0  0  0  0  0  0  0  0  0  0
  152.8088  141.5306  159.8904 N   0  3  0  0  0  0  0  0  0  0  0  0
  152.3749  142.8543  159.7885 C   0  0  0  0  0  0  0  0  0  0  0  0
  152.4603  143.9137  160.6865 C   0  0  0  0  0  0  0  0  0  0  0  0
  151.9133  145.1445  160.2671 C   0  0  0  0  0  0  0  0  0  0  0  0
  151.3107  145.2876  159.0002 C   0  0  0  0  0  0  0  0  0  0  0  0
  151.2292  144.2065  158.0977 C   0  0  0  0  0  0  0  0  0  0  0  0
  151.7736  142.9943  158.5198 C   0  0  0  0  0  0  0  0  0  0  0  0
  151.3874  138.2248  157.8406 C   0  0  0  0  0  0  0  0  0  0  0  0
  150.6945  137.3545  158.7042 C   0  0  0  0  0  0  0  0  0  0  0  0
  146.0283  135.8061  159.9337 H   0  0  0  0  0  0  0  0  0  0  0  0
  146.5789  136.1038  158.2682 H   0  0  0  0  0  0  0  0  0  0  0  0
  146.3253  137.4706  159.3802 H   0  0  0  0  0  0  0  0  0  0  0  0
  147.4904  138.3219  157.9710 H   0  0  0  0  0  0  0  0  0  0  0  0
  148.7144  139.8490  156.4521 H   0  0  0  0  0  0  0  0  0  0  0  0
  152.4835  139.7651  156.0693 H   0  0  0  0  0  0  0  0  0  0  0  0
  150.9879  139.0977  154.4868 H   0  0  0  0  0  0  0  0  0  0  0  0
  151.8975  142.1959  155.8785 H   0  0  0  0  0  0  0  0  0  0  0  0
  150.3148  141.8838  156.5518 H   0  0  0  0  0  0  0  0  0  0  0  0
  152.7140  139.8235  158.5333 H   0  0  0  0  0  0  0  0  0  0  0  0
  152.9196  143.8073  161.6586 H   0  0  0  0  0  0  0  0  0  0  0  0
  151.9559  145.9959  160.9307 H   0  0  0  0  0  0  0  0  0  0  0  0
  150.9014  146.2459  158.7149 H   0  0  0  0  0  0  0  0  0  0  0  0
  150.7645  144.3259  157.1300 H   0  0  0  0  0  0  0  0  0  0  0  0
  152.4672  138.2006  157.8169 H   0  0  0  0  0  0  0  0  0  0  0  0
  151.2451  136.6730  159.3356 H   0  0  0  0  0  0  0  0  0  0  0  0
  153.2797  141.1113  160.6821 H   0  0  0  0  0  0  0  0  0  0  0  0
  1  2  1  0  0  0  0
  1 23  1  0  0  0  0
  1 24  1  0  0  0  0
  1 25  1  0  0  0  0
  2  3  2  0  0  0  0
  2  4  2  0  0  0  0
  2  5  1  0  0  0  0
  5 22  1  0  0  0  0
  5  6  2  0  0  0  0
  6  7  1  0  0  0  0
  6 26  1  0  0  0  0
  7  8  2  0  0  0  0
  7 27  1  0  0  0  0
  8  9  1  0  0  0  0
  8 21  1  0  0  0  0
  9 10  1  0  0  0  0
  9 11  1  0  0  0  0
  9 28  1  0  0  0  0
 10 29  1  0  0  0  0
 11 12  1  0  0  0  0
 11 30  1  0  0  0  0
 11 31  1  0  0  0  0
 12 20  1  0  0  0  0
 12 13  1  0  0  0  0
 13 14  2  0  0  0  0
 13 32  1  0  0  0  0
 14 15  1  0  0  0  0
 14 39  1  0  0  0  0
 15 20  2  0  0  0  0
 15 16  1  0  0  0  0
 16 17  2  0  0  0  0
 16 33  1  0  0  0  0
 17 18  1  0  0  0  0
 17 34  1  0  0  0  0
 18 19  2  0  0  0  0
 18 35  1  0  0  0  0
 19 20  1  0  0  0  0
 19 36  1  0  0  0  0
 21 22  2  0  0  0  0
 21 37  1  0  0  0  0
 22 38  1  0  0  0  0
M  CHG  1  14   1
M  END
> <s_m_source_file>
AV-unprocessed.smi

> <i_m_source_file_index>
1946

> <i_lp_mmshare_version>
43012

> <i_f3d_flags>
0

> <s_epik_input>
W0NIM11TKD1PKSg9TyljMVtjSF1bY0hdYyhbY0hdW2NIXTEpW0NASF0oW09IXSlbQ0gyXW4oW2NIXW4yKWMoYzIzKVtjSF1bY0hdW2NIXVtjSF0z

> <s_epik_cmdline>
J2VwaWtfcHl0aG9uJywgJy1waCcsICc3LjAnLCAnLXRuJywgJzgnLCAnLW1hJywgJzIwMCcsICctbWV0YWxfYmluZGluZycsICctaW1hZScsICc8aW5maWxlLm1hZT4nLCAnLW9tYWUnLCAnPG91dGZpbGUubWFlPic=

> <r_epik_Ionization_Penalty>
1.3029

> <r_epik_Ionization_Penalty_Charging>
1.3029

> <r_epik_Ionization_Penalty_Neutral>
1.34362e-06

> <r_epik_State_Penalty>
1.377

> <r_epik_Charging_Adjusted_Penalty>
2.6799

> <i_epik_Tot_Q>
1

> <i_epik_Tot_abs_Q>
1

> <r_epik_Metal_State_Penalty>
5.40879

> <b_epik_Metal_Only>
0

> <s_lp_Force_Field>
OPLS_2005

> <r_lp_Energy>
16.9066

> <b_lp_Chiralities_Consistent>
1

> <s_lp_Variant>
AV-unprocessed.smi:1946-4

> <Gold.Version>
5.8.1

> <Gold.Id.Protein>
6NUR|6NUR_protein|mol2

> <Gold.PLP.Fitness>
50.6302

> <Gold.PLP.PLP>
-42.1672

> <Gold.PLP.part.hbond>
-3.7909

> <Gold.PLP.part.metal>
0.0000

> <Gold.PLP.part.buried>
-7.3947

> <Gold.PLP.part.nonpolar>
-31.0257

> <Gold.PLP.part.repulsive>
0.1060

> <Gold.PLP.ligand.clash>
0.0000

> <Gold.PLP.ligand.torsion>
1.4101

> <Gold.PLP.Chemscore.Hbond>
3.0783

> <Gold.PLP.Chemscore.CHOScore>
0.0000

> <Gold.PLP.Chemscore.Metal>
0.0000

> <Gold.Chemscore.Hbonds>
donor molecule, donor type, donor heavy atom, donor atom, acceptor molecule, acceptor atom, score
      P1  H  6896  6908       L1     4  0.99
      P1  H  6931  6943       L1     3  1.00
      P1  H  7989  7998       L1    10  1.00

> <Gold.PLP.Chemscore.Internal.Correction>
2.0482

> <Gold.Rescore>
     Score         DG    S(hbond)    S(metal)    S(lipo)     H(rot)  DE(clash)    DE(int)     intcor
     22.43     -24.02       3.55        0.00     101.66       2.04       0.27       1.32       ----

> <Gold.Chemscore.Fitness>
22.4304

> <Gold.Chemscore.DG>
-24.0228

> <Gold.Chemscore.ZeroCoef>
-5.4800

> <Gold.Chemscore.Hbond>
3.5527

> <Gold.Chemscore.Metal>
0.0000

> <Gold.Chemscore.Lipo>
101.6618

> <Gold.Chemscore.Internal_Hbond>
0.0000

> <Gold.Chemscore.DEClash>
0.2742

> <Gold.Chemscore.DEInternal>
1.3182

> <Gold.Chemscore.Rot>
2.0382

> <Gold.Chemscore.Internal.Correction>
   9.000000E+99

> <Gold.Chemscore.Hbonds>
donor molecule, donor type, donor heavy atom, donor atom, acceptor molecule, acceptor atom, score
      P1  H  6896  6908       L1     4  0.93
      P1  H  6931  6943       L1     3  0.99
      P1  H  7989  7998       L1    10  0.50

> <Gold.Chemscore.Hbond.Weighted>
-11.8661

> <Gold.Chemscore.Metal.Weighted>
-0.0000

> <Gold.Chemscore.Lipo.Weighted>
-11.8944

> <Gold.Chemscore.Internal_Hbond.Weighted>
0.0000

> <Gold.Chemscore.DEClash.Weighted>
0.2742

> <Gold.Chemscore.DEInternal.Weighted>
1.3182

> <Gold.Chemscore.Rot.Weighted>
5.2177

> <Gold.Chemscore.Internal.Correction.Weighted>
   9.000000E+99

> <Gold.Protein.RotatedTorsions>
[ 6907 6896 6895 6894 ] final  158.64 input  -60.11 | X-H torsion
[ 7974 7965 7964 7962 ] final  132.34 input  175.53 | X-H torsion
[ 8008 7997 7996 7995 ] final   20.34 input   59.86 | X-H torsion
[ 10167 10162 10161 10158 ] final -116.52 input  -65.29 | X-H torsion
[ 10718 10713 10712 10709 ] final  -51.07 input   66.30 | X-H torsion
[ 10763 10752 10751 10750 ] final -141.95 input  -60.55 | X-H torsion
[ 11005 11000 10999 10996 ] final -139.54 input  -57.11 | X-H torsion

> <Gold.Protein.ActiveResidues>
 VAL166  LYS551  ARG553  GLY616  TRP617  ASP618  TYR619  PRO620  LYS621  CYS622 
 ASP623  PHE694  ASN695  SER759  ASP760  ASP761  ALA762  ILE779  LEU786  VAL792 
 PHE793  MET794  SER795  GLU796  ALA797  LYS798  CYS799  TRP800  GLU811  SER814 

> <Gold.Protein.RotatedAtoms>
  151.9974  133.3813  159.4168 H   0  0  0  0  0  0  0  0  0  0  0  0  # atno 6907 bound_to 6896
  150.6914  134.3870  159.5069 H   0  0  0  0  0  0  0  0  0  0  0  0  # atno 6908 bound_to 6896
  152.1613  134.8910  160.0592 H   0  0  0  0  0  0  0  0  0  0  0  0  # atno 6909 bound_to 6896
  144.9979  139.4341  143.5307 H   0  0  0  0  0  0  0  0  0  0  0  0  # atno 7974 bound_to 7965
  154.9342  140.3044  155.5152 H   0  0  0  0  0  0  0  0  0  0  0  0  # atno 8008 bound_to 7997
  156.3001  140.2348  156.4342 H   0  0  0  0  0  0  0  0  0  0  0  0  # atno 8009 bound_to 7997
  154.8208  140.0423  157.1398 H   0  0  0  0  0  0  0  0  0  0  0  0  # atno 8010 bound_to 7997
  140.0783  143.4812  152.1940 H   0  0  0  0  0  0  0  0  0  0  0  0  # atno 10167 bound_to 10162
  156.1743  130.4149  149.9600 H   0  0  0  0  0  0  0  0  0  0  0  0  # atno 10718 bound_to 10713
  154.8527  135.3509  154.5950 H   0  0  0  0  0  0  0  0  0  0  0  0  # atno 10763 bound_to 10752
  153.6559  135.6992  153.5198 H   0  0  0  0  0  0  0  0  0  0  0  0  # atno 10764 bound_to 10752
  153.2856  135.4250  155.1077 H   0  0  0  0  0  0  0  0  0  0  0  0  # atno 10765 bound_to 10752
  140.8509  134.2286  157.4760 H   0  0  0  0  0  0  0  0  0  0  0  0  # atno 11005 bound_to 11000
  146.3446  139.9350  142.8748 LP  0  0  0  0  0  0  0  0  0  0  0  0  # atno 17320 bound_to 7965
  145.2194  140.9929  143.4054 LP  0  0  0  0  0  0  0  0  0  0  0  0  # atno 17321 bound_to 7965
  139.5794  144.7503  151.3678 LP  0  0  0  0  0  0  0  0  0  0  0  0  # atno 17342 bound_to 10162
  140.7091  143.7438  150.7534 LP  0  0  0  0  0  0  0  0  0  0  0  0  # atno 17343 bound_to 10162
  156.7390  130.9072  151.3631 LP  0  0  0  0  0  0  0  0  0  0  0  0  # atno 17370 bound_to 10713
  157.6825  130.9153  150.0302 LP  0  0  0  0  0  0  0  0  0  0  0  0  # atno 17371 bound_to 10713
  139.8704  134.9683  156.4626 LP  0  0  0  0  0  0  0  0  0  0  0  0  # atno 17394 bound_to 11000
  140.8790  133.7931  155.9446 LP  0  0  0  0  0  0  0  0  0  0  0  0  # atno 17395 bound_to 11000

$$$$
