AV-unprocessed.smi:2124|AV-procd|sdf|8663|dock6
  -GOLD-   2272011413D 1   1.00000     0.00000
 Structure written by MMmdl.
 47 49  0  0  0  0  0  0  0  0  1 V2000
  150.3995  134.1614  154.2552 C   0  0  0  0  0  0  0  0  0  0  0  0
  151.0241  135.3792  154.9006 C   0  0  0  0  0  0  0  0  0  0  0  0
  150.6871  136.5713  154.2807 N   0  0  0  0  0  0  0  0  0  0  0  0
  151.2096  137.7419  154.8012 C   0  0  0  0  0  0  0  0  0  0  0  0
  150.7936  139.0019  154.0623 C   0  0  0  0  0  0  0  0  0  0  0  0
  152.0288  137.7253  155.8834 C   0  0  0  0  0  0  0  0  0  0  0  0
  152.6339  138.9939  156.4836 C   0  0  0  0  0  0  0  0  0  0  0  0
  151.6534  139.9596  157.1548 C   0  0  0  0  0  0  0  0  0  0  0  0
  150.9874  139.6039  158.1277 O   0  0  0  0  0  0  0  0  0  0  0  0
  151.5789  141.1873  156.6189 N   0  0  0  0  0  0  0  0  0  0  0  0
  150.7083  142.2647  157.0846 C   0  0  1  0  0  0  0  0  0  0  0  0
  149.2593  141.7484  157.1501 C   0  0  0  0  0  0  0  0  0  0  0  0
  151.2051  142.7909  158.4533 C   0  0  2  0  0  0  0  0  0  0  0  0
  150.3969  144.0015  158.9815 C   0  0  0  0  0  0  0  0  0  0  0  0
  151.4797  145.0604  159.2566 C   0  0  1  0  0  0  0  0  0  0  0  0
  152.3283  144.6284  160.4660 C   0  0  0  0  0  0  0  0  0  0  0  0
  153.1543  143.4597  159.8975 C   0  0  0  0  0  0  0  0  0  0  0  0
  152.6483  143.3597  158.4452 C   0  0  2  0  0  0  0  0  0  0  0  0
  152.4373  144.8293  158.0957 C   0  0  0  0  0  0  0  0  0  0  0  0
  152.3574  136.4186  156.5003 C   0  0  0  0  0  0  0  0  0  0  0  0
  153.1033  136.3365  157.4752 O   0  0  0  0  0  0  0  0  0  0  0  0
  151.7964  135.2607  155.9376 N   0  0  0  0  0  0  0  0  0  0  0  0
  150.0847  136.6285  153.4723 H   0  0  0  0  0  0  0  0  0  0  0  0
  150.7362  133.2455  154.7424 H   0  0  0  0  0  0  0  0  0  0  0  0
  150.6742  134.1062  153.2013 H   0  0  0  0  0  0  0  0  0  0  0  0
  149.3127  134.2080  154.3294 H   0  0  0  0  0  0  0  0  0  0  0  0
  151.6706  139.5430  153.7064 H   0  0  0  0  0  0  0  0  0  0  0  0
  150.2261  139.6595  154.7212 H   0  0  0  0  0  0  0  0  0  0  0  0
  150.1681  138.7731  153.1983 H   0  0  0  0  0  0  0  0  0  0  0  0
  153.1970  139.5427  155.7276 H   0  0  0  0  0  0  0  0  0  0  0  0
  153.3775  138.7034  157.2261 H   0  0  0  0  0  0  0  0  0  0  0  0
  152.1629  141.3897  155.8204 H   0  0  0  0  0  0  0  0  0  0  0  0
  150.7492  143.0854  156.3662 H   0  0  0  0  0  0  0  0  0  0  0  0
  148.5658  142.5316  157.4548 H   0  0  0  0  0  0  0  0  0  0  0  0
  149.1634  140.9265  157.8603 H   0  0  0  0  0  0  0  0  0  0  0  0
  148.9263  141.3852  156.1773 H   0  0  0  0  0  0  0  0  0  0  0  0
  151.1467  141.9693  159.1695 H   0  0  0  0  0  0  0  0  0  0  0  0
  149.6996  144.3771  158.2315 H   0  0  0  0  0  0  0  0  0  0  0  0
  149.8197  143.7567  159.8738 H   0  0  0  0  0  0  0  0  0  0  0  0
  151.0881  146.0749  159.3363 H   0  0  0  0  0  0  0  0  0  0  0  0
  152.9829  145.4378  160.7914 H   0  0  0  0  0  0  0  0  0  0  0  0
  151.7140  144.3307  161.3166 H   0  0  0  0  0  0  0  0  0  0  0  0
  154.2188  143.6971  159.9205 H   0  0  0  0  0  0  0  0  0  0  0  0
  153.0086  142.5348  160.4567 H   0  0  0  0  0  0  0  0  0  0  0  0
  153.3443  142.8329  157.7926 H   0  0  0  0  0  0  0  0  0  0  0  0
  151.9799  144.9852  157.1174 H   0  0  0  0  0  0  0  0  0  0  0  0
  153.3495  145.4253  158.1622 H   0  0  0  0  0  0  0  0  0  0  0  0
  1 24  1  0  0  0  0
  1 25  1  0  0  0  0
  1 26  1  0  0  0  0
  1  2  1  0  0  0  0
  2  3  1  0  0  0  0
  2 22  2  0  0  0  0
  3  4  1  0  0  0  0
  3 23  1  0  0  0  0
  4  6  2  0  0  0  0
  4  5  1  0  0  0  0
  5 27  1  0  0  0  0
  5 28  1  0  0  0  0
  5 29  1  0  0  0  0
  6 20  1  0  0  0  0
  6  7  1  0  0  0  0
  7  8  1  0  0  0  0
  7 30  1  0  0  0  0
  7 31  1  0  0  0  0
  8  9  2  0  0  0  0
  8 10  1  0  0  0  0
 10 11  1  0  0  0  0
 10 32  1  0  0  0  0
 11 12  1  0  0  0  0
 11 13  1  0  0  0  0
 11 33  1  0  0  0  0
 12 34  1  0  0  0  0
 12 35  1  0  0  0  0
 12 36  1  0  0  0  0
 13 18  1  0  0  0  0
 13 14  1  0  0  0  0
 13 37  1  0  0  0  0
 14 15  1  0  0  0  0
 14 38  1  0  0  0  0
 14 39  1  0  0  0  0
 15 19  1  0  0  0  0
 15 16  1  0  0  0  0
 15 40  1  0  0  0  0
 16 17  1  0  0  0  0
 16 41  1  0  0  0  0
 16 42  1  0  0  0  0
 17 18  1  0  0  0  0
 17 43  1  0  0  0  0
 17 44  1  0  0  0  0
 18 19  1  0  0  0  0
 18 45  1  0  0  0  0
 19 46  1  0  0  0  0
 19 47  1  0  0  0  0
 20 21  2  0  0  0  0
 20 22  1  0  0  0  0
M  END
> <s_m_source_file>
AV-unprocessed.smi

> <i_m_source_file_index>
2124

> <i_lp_mmshare_version>
43012

> <i_f3d_flags>
0

> <s_epik_input>
W0NIM11jMW5jKFtDSDNdKWMoYyg9TylbbkhdMSlbQ0gyXUMoPU8pW05IXVtDQEhdKFtDSDNdKVtDQEhdKFtDSDJdW0NASF0yMylbQ0BIXShbQ0gyXTMpW0NIMl1bQ0gyXTI=

> <s_epik_cmdline>
J2VwaWtfcHl0aG9uJywgJy1waCcsICc3LjAnLCAnLXRuJywgJzgnLCAnLW1hJywgJzIwMCcsICctbWV0YWxfYmluZGluZycsICctaW1hZScsICc8aW5maWxlLm1hZT4nLCAnLW9tYWUnLCAnPG91dGZpbGUubWFlPic=

> <r_lp_tautomer_probability>
0.156392

> <r_epik_Ionization_Penalty>
0.0139374

> <r_epik_Ionization_Penalty_Charging>
0.0138122

> <r_epik_Ionization_Penalty_Neutral>
0.000125146

> <r_epik_State_Penalty>
1.15342

> <r_epik_Charging_Adjusted_Penalty>
1.16723

> <i_epik_Tot_Q>
0

> <i_epik_Tot_abs_Q>
0

> <r_epik_Metal_State_Penalty>
1.3173

> <b_epik_Metal_Only>
0

> <s_lp_Force_Field>
OPLS_2005

> <r_lp_Energy>
55.952

> <b_lp_Chiralities_Consistent>
1

> <s_lp_Variant>
AV-unprocessed.smi:2124-14

> <Gold.Version>
5.8.1

> <Gold.Id.Protein>
6NUR|6NUR_protein|mol2

> <Gold.PLP.Fitness>
47.9131

> <Gold.PLP.PLP>
-45.1668

> <Gold.PLP.part.hbond>
-3.0062

> <Gold.PLP.part.metal>
0.0000

> <Gold.PLP.part.buried>
-5.2199

> <Gold.PLP.part.nonpolar>
-36.7942

> <Gold.PLP.part.repulsive>
0.1848

> <Gold.PLP.ligand.clash>
0.0000

> <Gold.PLP.ligand.torsion>
0.1373

> <Gold.PLP.Chemscore.Hbond>
1.0000

> <Gold.PLP.Chemscore.CHOScore>
0.0000

> <Gold.PLP.Chemscore.Metal>
0.0000

> <Gold.Chemscore.Hbonds>
donor molecule, donor type, donor heavy atom, donor atom, acceptor molecule, acceptor atom, score
      L1  H     3    23       P1  7948  0.75

> <Gold.PLP.Chemscore.Internal.Correction>
0.0209

> <Gold.Rescore>
     Score         DG    S(hbond)    S(metal)    S(lipo)     H(rot)  DE(clash)    DE(int)     intcor
     17.13     -18.75       0.99        0.00     121.41       1.65       0.21       1.41       ----

> <Gold.Chemscore.Fitness>
17.1348

> <Gold.Chemscore.DG>
-18.7480

> <Gold.Chemscore.ZeroCoef>
-5.4800

> <Gold.Chemscore.Hbond>
0.9867

> <Gold.Chemscore.Metal>
0.0000

> <Gold.Chemscore.Lipo>
121.4108

> <Gold.Chemscore.Internal_Hbond>
0.0000

> <Gold.Chemscore.DEClash>
0.2073

> <Gold.Chemscore.DEInternal>
1.4060

> <Gold.Chemscore.Rot>
1.6534

> <Gold.Chemscore.Internal.Correction>
   9.000000E+99

> <Gold.Chemscore.Hbonds>
donor molecule, donor type, donor heavy atom, donor atom, acceptor molecule, acceptor atom, score
      L1  H     3    23       P1  7948  0.09

> <Gold.Chemscore.Hbond.Weighted>
-3.2956

> <Gold.Chemscore.Metal.Weighted>
-0.0000

> <Gold.Chemscore.Lipo.Weighted>
-14.2051

> <Gold.Chemscore.Internal_Hbond.Weighted>
0.0000

> <Gold.Chemscore.DEClash.Weighted>
0.2073

> <Gold.Chemscore.DEInternal.Weighted>
1.4060

> <Gold.Chemscore.Rot.Weighted>
4.2326

> <Gold.Chemscore.Internal.Correction.Weighted>
   9.000000E+99

> <Gold.Protein.RotatedTorsions>
[ 6907 6896 6895 6894 ] final    4.13 input  -60.11 | X-H torsion
[ 7974 7965 7964 7962 ] final  177.61 input  175.53 | X-H torsion
[ 8008 7997 7996 7995 ] final -150.13 input   59.86 | X-H torsion
[ 10167 10162 10161 10158 ] final  161.11 input  -65.29 | X-H torsion
[ 10718 10713 10712 10709 ] final  112.65 input   66.30 | X-H torsion
[ 10763 10752 10751 10750 ] final  -13.01 input  -60.55 | X-H torsion
[ 11005 11000 10999 10996 ] final  -60.62 input  -57.11 | X-H torsion

> <Gold.Protein.ActiveResidues>
 VAL166  LYS551  ARG553  GLY616  TRP617  ASP618  TYR619  PRO620  LYS621  CYS622 
 ASP623  PHE694  ASN695  SER759  ASP760  ASP761  ALA762  ILE779  LEU786  VAL792 
 PHE793  MET794  SER795  GLU796  ALA797  LYS798  CYS799  TRP800  GLU811  SER814 

> <Gold.Protein.RotatedAtoms>
  151.6364  135.1017  160.0132 H   0  0  0  0  0  0  0  0  0  0  0  0  # atno 6907 bound_to 6896
  152.4078  133.6912  159.6380 H   0  0  0  0  0  0  0  0  0  0  0  0  # atno 6908 bound_to 6896
  150.7971  133.8594  159.3268 H   0  0  0  0  0  0  0  0  0  0  0  0  # atno 6909 bound_to 6896
  144.7167  140.0273  143.6439 H   0  0  0  0  0  0  0  0  0  0  0  0  # atno 7974 bound_to 7965
  155.6187  140.0679  157.2684 H   0  0  0  0  0  0  0  0  0  0  0  0  # atno 8008 bound_to 7997
  154.4235  140.1788  156.1397 H   0  0  0  0  0  0  0  0  0  0  0  0  # atno 8009 bound_to 7997
  156.0027  140.3334  155.6865 H   0  0  0  0  0  0  0  0  0  0  0  0  # atno 8010 bound_to 7997
  139.4846  144.4568  151.8758 H   0  0  0  0  0  0  0  0  0  0  0  0  # atno 10167 bound_to 10162
  157.6381  131.0971  150.6926 H   0  0  0  0  0  0  0  0  0  0  0  0  # atno 10718 bound_to 10713
  153.5070  135.7017  153.5801 H   0  0  0  0  0  0  0  0  0  0  0  0  # atno 10763 bound_to 10752
  153.3908  135.3896  155.1922 H   0  0  0  0  0  0  0  0  0  0  0  0  # atno 10764 bound_to 10752
  154.8706  135.3858  154.4546 H   0  0  0  0  0  0  0  0  0  0  0  0  # atno 10765 bound_to 10752
  141.1294  133.6623  156.5250 H   0  0  0  0  0  0  0  0  0  0  0  0  # atno 11005 bound_to 11000
  146.0131  139.3187  143.0858 LP  0  0  0  0  0  0  0  0  0  0  0  0  # atno 17320 bound_to 7965
  145.8657  140.9449  143.0676 LP  0  0  0  0  0  0  0  0  0  0  0  0  # atno 17321 bound_to 7965
  140.4028  144.2471  150.5892 LP  0  0  0  0  0  0  0  0  0  0  0  0  # atno 17342 bound_to 10162
  140.5041  143.2309  151.8635 LP  0  0  0  0  0  0  0  0  0  0  0  0  # atno 17343 bound_to 10162
  156.7255  130.4693  149.5512 LP  0  0  0  0  0  0  0  0  0  0  0  0  # atno 17370 bound_to 10713
  156.1637  130.6391  151.0751 LP  0  0  0  0  0  0  0  0  0  0  0  0  # atno 17371 bound_to 10713
  140.4261  134.7143  157.4917 LP  0  0  0  0  0  0  0  0  0  0  0  0  # atno 17394 bound_to 11000
  140.0326  134.6384  155.9086 LP  0  0  0  0  0  0  0  0  0  0  0  0  # atno 17395 bound_to 11000

$$$$
