AV-unprocessed.smi:44|AV-procd|sdf|398|dock6
  -GOLD-   2262016253D 1   1.00000     0.00000
 Structure written by MMmdl.
 29 31  0  0  0  0  0  0  0  0  1 V2000
  152.6743  137.6234  155.0198 O   0  0  0  0  0  0  0  0  0  0  0  0
  151.9804  138.6308  155.1405 C   0  0  0  0  0  0  0  0  0  0  0  0
  151.1668  139.1056  154.1656 N   0  0  0  0  0  0  0  0  0  0  0  0
  150.3647  140.2674  154.2984 C   0  0  0  0  0  0  0  0  0  0  0  0
  150.3067  141.0217  155.3658 N   0  0  0  0  0  0  0  0  0  0  0  0
  151.1272  140.5590  156.3748 C   0  0  0  0  0  0  0  0  0  0  0  0
  151.9427  139.4598  156.3679 C   0  0  0  0  0  0  0  0  0  0  0  0
  152.6166  139.3226  157.5746 N   0  0  0  0  0  0  0  0  0  0  0  0
  152.1676  140.3666  158.2685 C   0  0  0  0  0  0  0  0  0  0  0  0
  151.2813  141.1530  157.6233 N   0  0  0  0  0  0  0  0  0  0  0  0
  150.6001  142.3912  158.1203 C   0  0  2  0  0  0  0  0  0  0  0  0
  151.3587  143.6251  157.6301 C   0  0  0  0  0  0  0  0  0  0  0  0
  152.3588  143.8221  158.7471 C   0  0  0  0  0  0  0  0  0  0  0  0
  151.5167  143.4612  159.9706 C   0  0  2  0  0  0  0  0  0  0  0  0
  152.3531  143.0180  161.1805 C   0  0  0  0  0  0  0  0  0  0  0  0
  151.5119  142.4917  162.1839 O   0  0  0  0  0  0  0  0  0  0  0  0
  150.6727  142.4006  159.5177 O   0  0  0  0  0  0  0  0  0  0  0  0
  151.1367  138.5958  153.2947 H   0  0  0  0  0  0  0  0  0  0  0  0
  149.5748  142.3132  157.7572 H   0  0  0  0  0  0  0  0  0  0  0  0
  150.8919  144.3194  160.2256 H   0  0  0  0  0  0  0  0  0  0  0  0
  149.7809  140.4848  153.4030 H   0  0  0  0  0  0  0  0  0  0  0  0
  152.4981  140.5617  159.2771 H   0  0  0  0  0  0  0  0  0  0  0  0
  151.8083  143.4740  156.6479 H   0  0  0  0  0  0  0  0  0  0  0  0
  150.6661  144.4661  157.5787 H   0  0  0  0  0  0  0  0  0  0  0  0
  153.1955  143.1314  158.6320 H   0  0  0  0  0  0  0  0  0  0  0  0
  152.7564  144.8365  158.7893 H   0  0  0  0  0  0  0  0  0  0  0  0
  153.1113  142.2875  160.8996 H   0  0  0  0  0  0  0  0  0  0  0  0
  152.8738  143.8750  161.6088 H   0  0  0  0  0  0  0  0  0  0  0  0
  152.0514  142.1540  162.8824 H   0  0  0  0  0  0  0  0  0  0  0  0
  1  2  2  0  0  0  0
  2  7  1  0  0  0  0
  2  3  1  0  0  0  0
  3 18  1  0  0  0  0
  3  4  1  0  0  0  0
  4  5  2  0  0  0  0
  4 21  1  0  0  0  0
  5  6  1  0  0  0  0
  6 10  1  0  0  0  0
  6  7  2  0  0  0  0
  7  8  1  0  0  0  0
  8  9  2  0  0  0  0
  9 10  1  0  0  0  0
  9 22  1  0  0  0  0
 10 11  1  0  0  0  0
 11 19  1  0  0  0  0
 11 17  1  0  0  0  0
 11 12  1  0  0  0  0
 12 13  1  0  0  0  0
 12 23  1  0  0  0  0
 12 24  1  0  0  0  0
 13 14  1  0  0  0  0
 13 25  1  0  0  0  0
 13 26  1  0  0  0  0
 14 20  1  0  0  0  0
 14 15  1  0  0  0  0
 14 17  1  0  0  0  0
 15 16  1  0  0  0  0
 15 27  1  0  0  0  0
 15 28  1  0  0  0  0
 16 29  1  0  0  0  0
M  END
> <s_m_source_file>
AV-unprocessed.smi

> <i_m_source_file_index>
44

> <i_lp_mmshare_version>
43012

> <i_f3d_flags>
0

> <s_epik_input>
bjFbY0hdW25IXWMoPU8pYyhjMTIpbltjSF1uMltDQEhdM1tDSDJdW0NIMl1bQ0BIXShPMylbQ0gyXVtPSF0=

> <s_epik_cmdline>
J2VwaWtfcHl0aG9uJywgJy1waCcsICc3LjAnLCAnLXRuJywgJzgnLCAnLW1hJywgJzIwMCcsICctbWV0YWxfYmluZGluZycsICctaW1hZScsICc8aW5maWxlLm1hZT4nLCAnLW9tYWUnLCAnPG91dGZpbGUubWFlPic=

> <r_lp_tautomer_probability>
0.85571

> <r_epik_Ionization_Penalty>
0.00801444

> <r_epik_Ionization_Penalty_Charging>
0.00794574

> <r_epik_Ionization_Penalty_Neutral>
6.87072e-05

> <r_epik_State_Penalty>
0.0826172

> <r_epik_Charging_Adjusted_Penalty>
0.090563

> <i_epik_Tot_Q>
0

> <i_epik_Tot_abs_Q>
0

> <r_epik_Metal_State_Penalty>
0.440697

> <b_epik_Metal_Only>
0

> <s_epik_Chemistry_Notes>
This compound contains an acetal/aminal-like group ( X-CH(R)-Y where X, Y are N, S, or O) that may be acid/base labile, releasing an aldehyde.

> <s_lp_Force_Field>
OPLS_2005

> <r_lp_Energy>
40.4283

> <b_lp_Chiralities_Consistent>
1

> <s_lp_Variant>
AV-unprocessed.smi:44-4

> <Gold.Version>
5.8.1

> <Gold.Id.Protein>
6NUR|6NUR_protein|mol2

> <Gold.PLP.Fitness>
43.5679

> <Gold.PLP.PLP>
-34.3890

> <Gold.PLP.part.hbond>
-5.1342

> <Gold.PLP.part.metal>
0.0000

> <Gold.PLP.part.buried>
-3.1392

> <Gold.PLP.part.nonpolar>
-28.3470

> <Gold.PLP.part.repulsive>
0.3202

> <Gold.PLP.ligand.clash>
0.0000

> <Gold.PLP.ligand.torsion>
0.6320

> <Gold.PLP.Chemscore.Hbond>
2.4750

> <Gold.PLP.Chemscore.CHOScore>
1.0000

> <Gold.PLP.Chemscore.Metal>
0.0000

> <Gold.Chemscore.Hbonds>
donor molecule, donor type, donor heavy atom, donor atom, acceptor molecule, acceptor atom, score
      P1  H  6933  6945       L1    16  0.96
      P1  H  7997  8010       L1     8  0.66
      P1  H 10752 10765       L1     1  0.41
      L1  C     4    21       P1  7957  1.00

> <Gold.PLP.Chemscore.Internal.Correction>
0.0179

> <Gold.Rescore>
     Score         DG    S(hbond)    S(metal)    S(lipo)     H(rot)  DE(clash)    DE(int)     intcor
     10.95     -12.01       1.94        0.00      50.19       2.27       0.06       1.00       ----

> <Gold.Chemscore.Fitness>
10.9536

> <Gold.Chemscore.DG>
-12.0116

> <Gold.Chemscore.ZeroCoef>
-5.4800

> <Gold.Chemscore.Hbond>
1.9390

> <Gold.Chemscore.Metal>
0.0000

> <Gold.Chemscore.Lipo>
50.1860

> <Gold.Chemscore.Internal_Hbond>
0.0000

> <Gold.Chemscore.DEClash>
0.0623

> <Gold.Chemscore.DEInternal>
0.9957

> <Gold.Chemscore.Rot>
2.2720

> <Gold.Chemscore.Internal.Correction>
   9.000000E+99

> <Gold.Chemscore.Hbonds>
donor molecule, donor type, donor heavy atom, donor atom, acceptor molecule, acceptor atom, score
      P1  H  6933  6945       L1    16  0.64
      P1  H  7997  8010       L1     8  0.04
      P1  H 10752 10765       L1     1  0.42

> <Gold.Chemscore.Hbond.Weighted>
-6.4762

> <Gold.Chemscore.Metal.Weighted>
-0.0000

> <Gold.Chemscore.Lipo.Weighted>
-5.8718

> <Gold.Chemscore.Internal_Hbond.Weighted>
0.0000

> <Gold.Chemscore.DEClash.Weighted>
0.0623

> <Gold.Chemscore.DEInternal.Weighted>
0.9957

> <Gold.Chemscore.Rot.Weighted>
5.8164

> <Gold.Chemscore.Internal.Correction.Weighted>
   9.000000E+99

> <Gold.Protein.RotatedTorsions>
[ 6907 6896 6895 6894 ] final  -85.56 input  -60.11 | X-H torsion
[ 7974 7965 7964 7962 ] final  154.71 input  175.53 | X-H torsion
[ 8008 7997 7996 7995 ] final   39.72 input   59.86 | X-H torsion
[ 10167 10162 10161 10158 ] final  100.11 input  -65.29 | X-H torsion
[ 10718 10713 10712 10709 ] final   15.76 input   66.30 | X-H torsion
[ 10763 10752 10751 10750 ] final -172.44 input  -60.55 | X-H torsion
[ 11005 11000 10999 10996 ] final  123.52 input  -57.11 | X-H torsion

> <Gold.Protein.ActiveResidues>
 VAL166  LYS551  ARG553  GLY616  TRP617  ASP618  TYR619  PRO620  LYS621  CYS622 
 ASP623  PHE694  ASN695  SER759  ASP760  ASP761  ALA762  ILE779  LEU786  VAL792 
 PHE793  MET794  SER795  GLU796  ALA797  LYS798  CYS799  TRP800  GLU811  SER814 

> <Gold.Protein.RotatedAtoms>
  150.6870  134.3186  159.4776 H   0  0  0  0  0  0  0  0  0  0  0  0  # atno 6907 bound_to 6896
  152.1064  134.9303  160.0577 H   0  0  0  0  0  0  0  0  0  0  0  0  # atno 6908 bound_to 6896
  152.0562  133.4006  159.4435 H   0  0  0  0  0  0  0  0  0  0  0  0  # atno 6909 bound_to 6896
  144.8071  139.6970  143.6157 H   0  0  0  0  0  0  0  0  0  0  0  0  # atno 7974 bound_to 7965
  155.2412  140.3345  155.4292 H   0  0  0  0  0  0  0  0  0  0  0  0  # atno 8008 bound_to 7997
  156.2255  140.1827  156.7419 H   0  0  0  0  0  0  0  0  0  0  0  0  # atno 8009 bound_to 7997
  154.5892  140.0641  156.9199 H   0  0  0  0  0  0  0  0  0  0  0  0  # atno 8010 bound_to 7997
  139.7556  144.6970  151.0367 H   0  0  0  0  0  0  0  0  0  0  0  0  # atno 10167 bound_to 10162
  157.0581  130.6297  149.5780 H   0  0  0  0  0  0  0  0  0  0  0  0  # atno 10718 bound_to 10713
  154.6193  135.2873  155.0344 H   0  0  0  0  0  0  0  0  0  0  0  0  # atno 10763 bound_to 10752
  154.1545  135.6498  153.4975 H   0  0  0  0  0  0  0  0  0  0  0  0  # atno 10764 bound_to 10752
  153.0229  135.5363  154.6976 H   0  0  0  0  0  0  0  0  0  0  0  0  # atno 10765 bound_to 10752
  139.9316  134.9641  156.8272 H   0  0  0  0  0  0  0  0  0  0  0  0  # atno 11005 bound_to 11000
  146.2364  139.5914  142.9521 LP  0  0  0  0  0  0  0  0  0  0  0  0  # atno 17320 bound_to 7965
  145.5412  141.0420  143.2330 LP  0  0  0  0  0  0  0  0  0  0  0  0  # atno 17321 bound_to 7965
  140.7802  143.4757  151.0086 LP  0  0  0  0  0  0  0  0  0  0  0  0  # atno 17342 bound_to 10162
  139.8444  143.7521  152.3179 LP  0  0  0  0  0  0  0  0  0  0  0  0  # atno 17343 bound_to 10162
  155.9987  130.5061  150.7579 LP  0  0  0  0  0  0  0  0  0  0  0  0  # atno 17370 bound_to 10713
  157.4976  131.0916  151.0352 LP  0  0  0  0  0  0  0  0  0  0  0  0  # atno 17371 bound_to 10713
  140.6185  134.0015  155.7608 LP  0  0  0  0  0  0  0  0  0  0  0  0  # atno 17394 bound_to 11000
  141.0908  133.9919  157.3239 LP  0  0  0  0  0  0  0  0  0  0  0  0  # atno 17395 bound_to 11000

$$$$
