AV-unprocessed.smi:2026|AV-procd|sdf|8201|dock1
  -GOLD-   2272010453D 1   1.00000     0.00000
 Structure written by MMmdl.
 46 48  0  0  0  0  0  0  0  0  1 V2000
  153.0646  142.7674  161.3414 C   0  0  0  0  0  0  0  0  0  0  0  0
  152.4348  142.4321  160.0012 C   0  0  0  0  0  0  0  0  0  0  0  0
  152.8433  141.2606  159.3233 C   0  0  0  0  0  0  0  0  0  0  0  0
  152.2794  140.9117  158.0761 C   0  0  0  0  0  0  0  0  0  0  0  0
  152.5212  139.8288  157.2472 N   0  0  0  0  0  0  0  0  0  0  0  0
  151.6855  140.0691  156.2398 C   0  0  0  0  0  0  0  0  0  0  0  0
  150.9318  141.1822  156.3193 N   0  0  0  0  0  0  0  0  0  0  0  0
  149.9593  141.6680  155.3599 C   0  0  0  0  0  0  0  0  0  0  0  0
  149.2040  140.5131  154.6711 C   0  0  2  0  0  0  0  0  0  0  0  0
  150.0155  139.9620  153.6539 O   0  0  0  0  0  0  0  0  0  0  0  0
  147.8529  140.9315  154.0544 C   0  0  0  0  0  0  0  0  0  0  0  0
  146.9772  141.5965  155.0277 N   0  0  0  0  0  0  0  0  0  0  0  0
  146.2712  142.7147  154.7806 C   0  0  0  0  0  0  0  0  0  0  0  0
  146.2359  143.3400  153.7219 O   0  0  0  0  0  0  0  0  0  0  0  0
  145.6092  143.0501  155.8957 N   0  0  0  0  0  0  0  0  0  0  0  0
  145.8561  142.1377  156.9956 C   0  0  0  0  0  0  0  0  0  0  0  0
  146.5505  142.8617  158.1633 C   0  0  0  0  0  0  0  0  0  0  0  0
  144.5563  141.4379  157.4314 C   0  0  0  0  0  0  0  0  0  0  0  0
  146.8014  141.1788  156.2891 C   0  0  0  0  0  0  0  0  0  0  0  0
  147.3110  140.1948  156.8254 O   0  0  0  0  0  0  0  0  0  0  0  0
  151.2907  141.7757  157.5229 C   0  0  0  0  0  0  0  0  0  0  0  0
  150.8767  142.9436  158.1860 C   0  0  0  0  0  0  0  0  0  0  0  0
  151.4492  143.2775  159.4304 C   0  0  0  0  0  0  0  0  0  0  0  0
  150.9922  144.5409  160.1384 C   0  0  0  0  0  0  0  0  0  0  0  0
  153.7423  141.9798  161.6715 H   0  0  0  0  0  0  0  0  0  0  0  0
  152.2975  142.8886  162.1066 H   0  0  0  0  0  0  0  0  0  0  0  0
  153.6342  143.6944  161.2717 H   0  0  0  0  0  0  0  0  0  0  0  0
  153.5947  140.6176  159.7574 H   0  0  0  0  0  0  0  0  0  0  0  0
  151.6166  139.3978  155.3963 H   0  0  0  0  0  0  0  0  0  0  0  0
  149.2682  142.3118  155.9034 H   0  0  0  0  0  0  0  0  0  0  0  0
  150.4605  142.2998  154.6254 H   0  0  0  0  0  0  0  0  0  0  0  0
  149.0270  139.7173  155.3953 H   0  0  0  0  0  0  0  0  0  0  0  0
  149.6077  140.1309  152.8185 H   0  0  0  0  0  0  0  0  0  0  0  0
  148.0220  141.5693  153.1851 H   0  0  0  0  0  0  0  0  0  0  0  0
  147.3344  140.0497  153.6733 H   0  0  0  0  0  0  0  0  0  0  0  0
  145.0078  143.8569  155.9791 H   0  0  0  0  0  0  0  0  0  0  0  0
  146.7704  142.1741  158.9808 H   0  0  0  0  0  0  0  0  0  0  0  0
  145.9190  143.6557  158.5629 H   0  0  0  0  0  0  0  0  0  0  0  0
  147.4924  143.3171  157.8544 H   0  0  0  0  0  0  0  0  0  0  0  0
  144.7358  140.7497  158.2583 H   0  0  0  0  0  0  0  0  0  0  0  0
  144.1120  140.8647  156.6164 H   0  0  0  0  0  0  0  0  0  0  0  0
  143.8141  142.1639  157.7643 H   0  0  0  0  0  0  0  0  0  0  0  0
  150.1209  143.5734  157.7409 H   0  0  0  0  0  0  0  0  0  0  0  0
  150.2825  145.1028  159.5298 H   0  0  0  0  0  0  0  0  0  0  0  0
  151.8406  145.1925  160.3483 H   0  0  0  0  0  0  0  0  0  0  0  0
  150.5034  144.2929  161.0807 H   0  0  0  0  0  0  0  0  0  0  0  0
  1  2  1  0  0  0  0
  1 25  1  0  0  0  0
  1 26  1  0  0  0  0
  1 27  1  0  0  0  0
  2 23  1  0  0  0  0
  2  3  2  0  0  0  0
  3  4  1  0  0  0  0
  3 28  1  0  0  0  0
  4 21  2  0  0  0  0
  4  5  1  0  0  0  0
  5  6  2  0  0  0  0
  6  7  1  0  0  0  0
  6 29  1  0  0  0  0
  7  8  1  0  0  0  0
  7 21  1  0  0  0  0
  8  9  1  0  0  0  0
  8 30  1  0  0  0  0
  8 31  1  0  0  0  0
  9 10  1  0  0  0  0
  9 11  1  0  0  0  0
  9 32  1  0  0  0  0
 10 33  1  0  0  0  0
 11 12  1  0  0  0  0
 11 34  1  0  0  0  0
 11 35  1  0  0  0  0
 12 19  1  0  0  0  0
 12 13  1  0  0  0  0
 13 14  2  0  0  0  0
 13 15  1  0  0  0  0
 15 16  1  0  0  0  0
 15 36  1  0  0  0  0
 16 17  1  0  0  0  0
 16 18  1  0  0  0  0
 16 19  1  0  0  0  0
 17 37  1  0  0  0  0
 17 38  1  0  0  0  0
 17 39  1  0  0  0  0
 18 40  1  0  0  0  0
 18 41  1  0  0  0  0
 18 42  1  0  0  0  0
 19 20  2  0  0  0  0
 21 22  1  0  0  0  0
 22 23  2  0  0  0  0
 22 43  1  0  0  0  0
 23 24  1  0  0  0  0
 24 44  1  0  0  0  0
 24 45  1  0  0  0  0
 24 46  1  0  0  0  0
M  END
> <s_m_source_file>
AV-unprocessed.smi

> <i_m_source_file_index>
2026

> <i_lp_mmshare_version>
43012

> <i_f3d_flags>
0

> <s_epik_input>
W0NIM11jKFtjSF0xKWMoW0NIM10pW2NIXWMoYzEyKW4oW2NIXW4yKVtDSDJdW0NASF0oW09IXSlbQ0gyXU4oQzM9TylDKD1PKVtOSF1DMyhbQ0gzXSlbQ0gzXQ==

> <s_epik_cmdline>
J2VwaWtfcHl0aG9uJywgJy1waCcsICc3LjAnLCAnLXRuJywgJzgnLCAnLW1hJywgJzIwMCcsICctbWV0YWxfYmluZGluZycsICctaW1hZScsICc8aW5maWxlLm1hZT4nLCAnLW9tYWUnLCAnPG91dGZpbGUubWFlPic=

> <r_lp_tautomer_probability>
1

> <r_epik_Ionization_Penalty>
0.103994

> <r_epik_Ionization_Penalty_Charging>
0

> <r_epik_Ionization_Penalty_Neutral>
0.103994

> <r_epik_State_Penalty>
0.0938482

> <r_epik_Charging_Adjusted_Penalty>
0.0938482

> <i_epik_Tot_Q>
0

> <i_epik_Tot_abs_Q>
0

> <r_epik_Metal_State_Penalty>
0.106997

> <b_epik_Metal_Only>
0

> <s_lp_Force_Field>
OPLS_2005

> <r_lp_Energy>
21.0149

> <b_lp_Chiralities_Consistent>
1

> <s_lp_Variant>
AV-unprocessed.smi:2026-1

> <Gold.Version>
5.8.1

> <Gold.Id.Protein>
6NUR|6NUR_protein|mol2

> <Gold.PLP.Fitness>
51.6536

> <Gold.PLP.PLP>
-44.8750

> <Gold.PLP.part.hbond>
-3.4094

> <Gold.PLP.part.metal>
0.0000

> <Gold.PLP.part.buried>
-6.7043

> <Gold.PLP.part.nonpolar>
-35.9422

> <Gold.PLP.part.repulsive>
0.2284

> <Gold.PLP.ligand.clash>
0.0000

> <Gold.PLP.ligand.torsion>
0.7602

> <Gold.PLP.Chemscore.Hbond>
2.7280

> <Gold.PLP.Chemscore.CHOScore>
0.0000

> <Gold.PLP.Chemscore.Metal>
0.0000

> <Gold.Chemscore.Hbonds>
donor molecule, donor type, donor heavy atom, donor atom, acceptor molecule, acceptor atom, score
      L1  H    10    33       P1  7957  1.00
      P1  H  7989  7998       L1    10  0.77
      P1  H  7997  8009       L1     5  1.00

> <Gold.PLP.Chemscore.Internal.Correction>
0.1150

> <Gold.Rescore>
     Score         DG    S(hbond)    S(metal)    S(lipo)     H(rot)  DE(clash)    DE(int)     intcor
     17.13     -17.76       2.20        0.00      95.39       2.44       0.10       0.53       ----

> <Gold.Chemscore.Fitness>
17.1294

> <Gold.Chemscore.DG>
-17.7587

> <Gold.Chemscore.ZeroCoef>
-5.4800

> <Gold.Chemscore.Hbond>
2.2019

> <Gold.Chemscore.Metal>
0.0000

> <Gold.Chemscore.Lipo>
95.3857

> <Gold.Chemscore.Internal_Hbond>
0.0000

> <Gold.Chemscore.DEClash>
0.1036

> <Gold.Chemscore.DEInternal>
0.5256

> <Gold.Chemscore.Rot>
2.4358

> <Gold.Chemscore.Internal.Correction>
   9.000000E+99

> <Gold.Chemscore.Hbonds>
donor molecule, donor type, donor heavy atom, donor atom, acceptor molecule, acceptor atom, score
      L1  H    10    33       P1  7957  0.94
      P1  H  7989  7998       L1    10  0.19
      P1  H  7997  8009       L1     5  0.22

> <Gold.Chemscore.Hbond.Weighted>
-7.3542

> <Gold.Chemscore.Metal.Weighted>
-0.0000

> <Gold.Chemscore.Lipo.Weighted>
-11.1601

> <Gold.Chemscore.Internal_Hbond.Weighted>
0.0000

> <Gold.Chemscore.DEClash.Weighted>
0.1036

> <Gold.Chemscore.DEInternal.Weighted>
0.5256

> <Gold.Chemscore.Rot.Weighted>
6.2357

> <Gold.Chemscore.Internal.Correction.Weighted>
   9.000000E+99

> <Gold.Protein.RotatedTorsions>
[ 6907 6896 6895 6894 ] final   81.09 input  -60.11 | X-H torsion
[ 7974 7965 7964 7962 ] final  150.02 input  175.53 | X-H torsion
[ 8008 7997 7996 7995 ] final -165.74 input   59.86 | X-H torsion
[ 10167 10162 10161 10158 ] final   57.40 input  -65.29 | X-H torsion
[ 10718 10713 10712 10709 ] final   51.69 input   66.30 | X-H torsion
[ 10763 10752 10751 10750 ] final   59.44 input  -60.55 | X-H torsion
[ 11005 11000 10999 10996 ] final  -91.72 input  -57.11 | X-H torsion

> <Gold.Protein.ActiveResidues>
 VAL166  LYS551  ARG553  GLY616  TRP617  ASP618  TYR619  PRO620  LYS621  CYS622 
 ASP623  PHE694  ASN695  SER759  ASP760  ASP761  ALA762  ILE779  LEU786  VAL792 
 PHE793  MET794  SER795  GLU796  ALA797  LYS798  CYS799  TRP800  GLU811  SER814 

> <Gold.Protein.RotatedAtoms>
  152.5257  134.3258  159.9164 H   0  0  0  0  0  0  0  0  0  0  0  0  # atno 6907 bound_to 6896
  151.3207  133.4035  159.2662 H   0  0  0  0  0  0  0  0  0  0  0  0  # atno 6908 bound_to 6896
  150.9962  134.9302  159.7985 H   0  0  0  0  0  0  0  0  0  0  0  0  # atno 6909 bound_to 6896
  144.8395  139.6354  143.6023 H   0  0  0  0  0  0  0  0  0  0  0  0  # atno 7974 bound_to 7965
  155.8541  140.0967  157.1656 H   0  0  0  0  0  0  0  0  0  0  0  0  # atno 8008 bound_to 7997
  154.3987  140.1377  156.3942 H   0  0  0  0  0  0  0  0  0  0  0  0  # atno 8009 bound_to 7997
  155.7929  140.3455  155.5362 H   0  0  0  0  0  0  0  0  0  0  0  0  # atno 8010 bound_to 7997
  140.1983  144.4014  150.6540 H   0  0  0  0  0  0  0  0  0  0  0  0  # atno 10167 bound_to 10162
  157.5004  130.8434  149.8310 H   0  0  0  0  0  0  0  0  0  0  0  0  # atno 10718 bound_to 10713
  152.9894  135.5571  154.5713 H   0  0  0  0  0  0  0  0  0  0  0  0  # atno 10763 bound_to 10752
  154.5113  135.2802  155.1342 H   0  0  0  0  0  0  0  0  0  0  0  0  # atno 10764 bound_to 10752
  154.2733  135.6359  153.5371 H   0  0  0  0  0  0  0  0  0  0  0  0  # atno 10765 bound_to 10752
  141.1538  133.7774  156.9920 H   0  0  0  0  0  0  0  0  0  0  0  0  # atno 11005 bound_to 11000
  146.2689  139.6588  142.9309 LP  0  0  0  0  0  0  0  0  0  0  0  0  # atno 17320 bound_to 7965
  145.4724  141.0436  143.2691 LP  0  0  0  0  0  0  0  0  0  0  0  0  # atno 17321 bound_to 7965
  140.6408  143.2203  151.6295 LP  0  0  0  0  0  0  0  0  0  0  0  0  # atno 17342 bound_to 10162
  139.5227  144.3154  152.0957 LP  0  0  0  0  0  0  0  0  0  0  0  0  # atno 17343 bound_to 10162
  156.0226  130.3790  150.1917 LP  0  0  0  0  0  0  0  0  0  0  0  0  # atno 17370 bound_to 10713
  157.0107  130.9950  151.3367 LP  0  0  0  0  0  0  0  0  0  0  0  0  # atno 17371 bound_to 10713
  140.0997  134.9543  157.1904 LP  0  0  0  0  0  0  0  0  0  0  0  0  # atno 17394 bound_to 11000
  140.3335  134.2783  155.7224 LP  0  0  0  0  0  0  0  0  0  0  0  0  # atno 17395 bound_to 11000

$$$$
