AV-unprocessed.smi:2497|AV-procd|sdf|9829|dock10
  -GOLD-   2272013463D 1   1.00000     0.00000
 Structure written by MMmdl.
 47 48  0  0  0  0  0  0  0  0  1 V2000
  152.8762  142.8843  159.6365 C   0  0  0  0  0  0  0  0  0  0  0  0
  152.5838  141.3745  159.5964 C   0  0  0  0  0  0  0  0  0  0  0  0
  153.7611  140.5869  160.1911 C   0  0  0  0  0  0  0  0  0  0  0  0
  152.2601  140.8776  158.1734 C   0  0  0  0  0  0  0  0  0  0  0  0
  151.7310  139.4340  158.1178 C   0  0  0  0  0  0  0  0  0  0  0  0
  151.4006  139.0450  156.7612 N   0  0  0  0  0  0  0  0  0  0  0  0
  151.6349  139.7347  155.5889 C   0  0  0  0  0  0  0  0  0  0  0  0
  151.1340  138.9833  154.5641 C   0  0  0  0  0  0  0  0  0  0  0  0
  150.6001  137.8394  155.2298 C   0  0  0  0  0  0  0  0  0  0  0  0
  149.9686  136.7325  154.6079 N   0  0  0  0  0  0  0  0  0  0  0  0
  149.6286  135.5542  155.1559 C   0  0  0  0  0  0  0  0  0  0  0  0
  149.8429  135.2292  156.3233 O   0  0  0  0  0  0  0  0  0  0  0  0
  149.0283  134.7622  154.2512 N   0  0  0  0  0  0  0  0  0  0  0  0
  148.5093  133.3976  154.4285 C   0  0  0  0  0  0  0  0  0  0  0  0
  149.6208  132.4866  154.9924 C   0  0  0  0  0  0  0  0  0  0  0  0
  147.2589  133.3683  155.3415 C   0  0  0  0  0  0  0  0  0  0  0  0
  146.0606  134.0900  154.7002 C   0  0  0  0  0  0  0  0  0  0  0  0
  145.7599  133.4988  153.4416 O   0  0  0  0  0  0  0  0  0  0  0  0
  146.8289  133.6076  152.5094 C   0  0  0  0  0  0  0  0  0  0  0  0
  148.0747  132.8739  153.0423 C   0  0  0  0  0  0  0  0  0  0  0  0
  150.7702  137.8716  156.5399 N   0  0  0  0  0  0  0  0  0  0  0  0
  153.7185  143.1418  158.9936 H   0  0  0  0  0  0  0  0  0  0  0  0
  153.1217  143.2081  160.6484 H   0  0  0  0  0  0  0  0  0  0  0  0
  152.0174  143.4714  159.3126 H   0  0  0  0  0  0  0  0  0  0  0  0
  151.7153  141.1831  160.2279 H   0  0  0  0  0  0  0  0  0  0  0  0
  154.6683  140.7255  159.6019 H   0  0  0  0  0  0  0  0  0  0  0  0
  153.5448  139.5188  160.2233 H   0  0  0  0  0  0  0  0  0  0  0  0
  153.9748  140.9082  161.2109 H   0  0  0  0  0  0  0  0  0  0  0  0
  151.5434  141.5538  157.7047 H   0  0  0  0  0  0  0  0  0  0  0  0
  153.1647  140.9308  157.5656 H   0  0  0  0  0  0  0  0  0  0  0  0
  152.4779  138.7398  158.5049 H   0  0  0  0  0  0  0  0  0  0  0  0
  150.8397  139.3175  158.7345 H   0  0  0  0  0  0  0  0  0  0  0  0
  152.1326  140.6932  155.5819 H   0  0  0  0  0  0  0  0  0  0  0  0
  151.1550  139.2259  153.5123 H   0  0  0  0  0  0  0  0  0  0  0  0
  149.7827  136.8403  153.6218 H   0  0  0  0  0  0  0  0  0  0  0  0
  148.9148  135.1470  153.3248 H   0  0  0  0  0  0  0  0  0  0  0  0
  149.2930  131.4477  155.0416 H   0  0  0  0  0  0  0  0  0  0  0  0
  149.9138  132.7760  156.0017 H   0  0  0  0  0  0  0  0  0  0  0  0
  150.5139  132.5175  154.3671 H   0  0  0  0  0  0  0  0  0  0  0  0
  146.9748  132.3317  155.5276 H   0  0  0  0  0  0  0  0  0  0  0  0
  147.4687  133.7933  156.3227 H   0  0  0  0  0  0  0  0  0  0  0  0
  145.1857  134.0040  155.3445 H   0  0  0  0  0  0  0  0  0  0  0  0
  146.2590  135.1559  154.5788 H   0  0  0  0  0  0  0  0  0  0  0  0
  146.5125  133.1659  151.5643 H   0  0  0  0  0  0  0  0  0  0  0  0
  147.0442  134.6582  152.3086 H   0  0  0  0  0  0  0  0  0  0  0  0
  148.8927  132.9617  152.3259 H   0  0  0  0  0  0  0  0  0  0  0  0
  147.8443  131.8095  153.1090 H   0  0  0  0  0  0  0  0  0  0  0  0
  1  2  1  0  0  0  0
  1 22  1  0  0  0  0
  1 23  1  0  0  0  0
  1 24  1  0  0  0  0
  2  3  1  0  0  0  0
  2  4  1  0  0  0  0
  2 25  1  0  0  0  0
  3 26  1  0  0  0  0
  3 27  1  0  0  0  0
  3 28  1  0  0  0  0
  4  5  1  0  0  0  0
  4 29  1  0  0  0  0
  4 30  1  0  0  0  0
  5  6  1  0  0  0  0
  5 31  1  0  0  0  0
  5 32  1  0  0  0  0
  6 21  1  0  0  0  0
  6  7  1  0  0  0  0
  7  8  2  0  0  0  0
  7 33  1  0  0  0  0
  8  9  1  0  0  0  0
  8 34  1  0  0  0  0
  9 10  1  0  0  0  0
  9 21  2  0  0  0  0
 10 11  1  0  0  0  0
 10 35  1  0  0  0  0
 11 12  2  0  0  0  0
 11 13  1  0  0  0  0
 13 14  1  0  0  0  0
 13 36  1  0  0  0  0
 14 20  1  0  0  0  0
 14 15  1  0  0  0  0
 14 16  1  0  0  0  0
 15 37  1  0  0  0  0
 15 38  1  0  0  0  0
 15 39  1  0  0  0  0
 16 17  1  0  0  0  0
 16 40  1  0  0  0  0
 16 41  1  0  0  0  0
 17 18  1  0  0  0  0
 17 42  1  0  0  0  0
 17 43  1  0  0  0  0
 18 19  1  0  0  0  0
 19 20  1  0  0  0  0
 19 44  1  0  0  0  0
 19 45  1  0  0  0  0
 20 46  1  0  0  0  0
 20 47  1  0  0  0  0
M  END
> <s_m_source_file>
AV-unprocessed.smi

> <i_m_source_file_index>
2497

> <i_lp_mmshare_version>
43012

> <i_f3d_flags>
0

> <s_epik_input>
W0NIM11bQ0hdKFtDSDNdKVtDSDJdW0NIMl1uMVtjSF1bY0hdYyhuMSlbTkhdQyg9TylbTkhdQzIoW0NIM10pW0NIMl1bQ0gyXU9bQ0gyXVtDSDJdMg==

> <s_epik_cmdline>
J2VwaWtfcHl0aG9uJywgJy1waCcsICc3LjAnLCAnLXRuJywgJzgnLCAnLW1hJywgJzIwMCcsICctbWV0YWxfYmluZGluZycsICctaW1hZScsICc8aW5maWxlLm1hZT4nLCAnLW9tYWUnLCAnPG91dGZpbGUubWFlPic=

> <r_lp_tautomer_probability>
1

> <r_epik_Ionization_Penalty>
3.57775e-05

> <r_epik_Ionization_Penalty_Charging>
0

> <r_epik_Ionization_Penalty_Neutral>
3.57775e-05

> <r_epik_State_Penalty>
-0

> <r_epik_Charging_Adjusted_Penalty>
0

> <i_epik_Tot_Q>
0

> <i_epik_Tot_abs_Q>
0

> <r_epik_Metal_State_Penalty>
-0

> <b_epik_Metal_Only>
0

> <s_lp_Force_Field>
OPLS_2005

> <r_lp_Energy>
13.1227

> <b_lp_Chiralities_Consistent>
1

> <s_lp_Variant>
AV-unprocessed.smi:2497-1

> <Gold.Version>
5.8.1

> <Gold.Id.Protein>
6NUR|6NUR_protein|mol2

> <Gold.PLP.Fitness>
41.2596

> <Gold.PLP.PLP>
-35.6196

> <Gold.PLP.part.hbond>
-2.0000

> <Gold.PLP.part.metal>
0.0000

> <Gold.PLP.part.buried>
-3.0507

> <Gold.PLP.part.nonpolar>
-30.7556

> <Gold.PLP.part.repulsive>
0.1761

> <Gold.PLP.ligand.clash>
0.0000

> <Gold.PLP.ligand.torsion>
0.1940

> <Gold.PLP.Chemscore.Hbond>
2.0000

> <Gold.PLP.Chemscore.CHOScore>
0.0000

> <Gold.PLP.Chemscore.Metal>
0.0000

> <Gold.Chemscore.Hbonds>
donor molecule, donor type, donor heavy atom, donor atom, acceptor molecule, acceptor atom, score
      L1  H    10    35       P1  7948  1.00
      L1  H    13    36       P1  7948  1.00

> <Gold.PLP.Chemscore.Internal.Correction>
0.0280

> <Gold.Rescore>
     Score         DG    S(hbond)    S(metal)    S(lipo)     H(rot)  DE(clash)    DE(int)     intcor
     15.25     -16.76       1.74        0.00      78.80       1.47       0.05       1.46       ----

> <Gold.Chemscore.Fitness>
15.2469

> <Gold.Chemscore.DG>
-16.7642

> <Gold.Chemscore.ZeroCoef>
-5.4800

> <Gold.Chemscore.Hbond>
1.7447

> <Gold.Chemscore.Metal>
0.0000

> <Gold.Chemscore.Lipo>
78.7999

> <Gold.Chemscore.Internal_Hbond>
0.0000

> <Gold.Chemscore.DEClash>
0.0544

> <Gold.Chemscore.DEInternal>
1.4629

> <Gold.Chemscore.Rot>
1.4698

> <Gold.Chemscore.Internal.Correction>
   9.000000E+99

> <Gold.Chemscore.Hbonds>
donor molecule, donor type, donor heavy atom, donor atom, acceptor molecule, acceptor atom, score
      L1  H    10    35       P1  7948  0.51
      L1  H    13    36       P1  7948  0.45

> <Gold.Chemscore.Hbond.Weighted>
-5.8274

> <Gold.Chemscore.Metal.Weighted>
-0.0000

> <Gold.Chemscore.Lipo.Weighted>
-9.2196

> <Gold.Chemscore.Internal_Hbond.Weighted>
0.0000

> <Gold.Chemscore.DEClash.Weighted>
0.0544

> <Gold.Chemscore.DEInternal.Weighted>
1.4629

> <Gold.Chemscore.Rot.Weighted>
3.7628

> <Gold.Chemscore.Internal.Correction.Weighted>
   9.000000E+99

> <Gold.Protein.RotatedTorsions>
[ 6907 6896 6895 6894 ] final -102.24 input  -60.11 | X-H torsion
[ 7974 7965 7964 7962 ] final  -51.77 input  175.53 | X-H torsion
[ 8008 7997 7996 7995 ] final -134.06 input   59.86 | X-H torsion
[ 10167 10162 10161 10158 ] final   57.19 input  -65.29 | X-H torsion
[ 10718 10713 10712 10709 ] final  142.35 input   66.30 | X-H torsion
[ 10763 10752 10751 10750 ] final  137.51 input  -60.55 | X-H torsion
[ 11005 11000 10999 10996 ] final  116.56 input  -57.11 | X-H torsion

> <Gold.Protein.ActiveResidues>
 VAL166  LYS551  ARG553  GLY616  TRP617  ASP618  TYR619  PRO620  LYS621  CYS622 
 ASP623  PHE694  ASN695  SER759  ASP760  ASP761  ALA762  ILE779  LEU786  VAL792 
 PHE793  MET794  SER795  GLU796  ALA797  LYS798  CYS799  TRP800  GLU811  SER814 

> <Gold.Protein.RotatedAtoms>
  150.7188  134.0611  159.3831 H   0  0  0  0  0  0  0  0  0  0  0  0  # atno 6907 bound_to 6896
  151.8591  135.0528  160.0476 H   0  0  0  0  0  0  0  0  0  0  0  0  # atno 6908 bound_to 6896
  152.2731  133.5365  159.5488 H   0  0  0  0  0  0  0  0  0  0  0  0  # atno 6909 bound_to 6896
  145.9153  140.7880  142.9674 H   0  0  0  0  0  0  0  0  0  0  0  0  # atno 7974 bound_to 7965
  155.3558  140.0480  157.3046 H   0  0  0  0  0  0  0  0  0  0  0  0  # atno 8008 bound_to 7997
  154.5204  140.2223  155.8951 H   0  0  0  0  0  0  0  0  0  0  0  0  # atno 8009 bound_to 7997
  156.1683  140.3101  155.8933 H   0  0  0  0  0  0  0  0  0  0  0  0  # atno 8010 bound_to 7997
  140.2007  144.3991  150.6530 H   0  0  0  0  0  0  0  0  0  0  0  0  # atno 10167 bound_to 10162
  157.3815  131.0993  151.0734 H   0  0  0  0  0  0  0  0  0  0  0  0  # atno 10718 bound_to 10713
  153.8743  135.3052  155.3443 H   0  0  0  0  0  0  0  0  0  0  0  0  # atno 10763 bound_to 10752
  154.7791  135.4845  153.9809 H   0  0  0  0  0  0  0  0  0  0  0  0  # atno 10764 bound_to 10752
  153.1388  135.6819  153.9157 H   0  0  0  0  0  0  0  0  0  0  0  0  # atno 10765 bound_to 10752
  139.9045  134.9599  156.7217 H   0  0  0  0  0  0  0  0  0  0  0  0  # atno 11005 bound_to 11000
  144.6747  140.1890  143.7398 LP  0  0  0  0  0  0  0  0  0  0  0  0  # atno 17320 bound_to 7965
  145.8619  139.2227  143.1711 LP  0  0  0  0  0  0  0  0  0  0  0  0  # atno 17321 bound_to 7965
  140.6392  143.2200  151.6327 LP  0  0  0  0  0  0  0  0  0  0  0  0  # atno 17342 bound_to 10162
  139.5218  144.3181  152.0935 LP  0  0  0  0  0  0  0  0  0  0  0  0  # atno 17343 bound_to 10162
  157.1801  130.6305  149.5669 LP  0  0  0  0  0  0  0  0  0  0  0  0  # atno 17370 bound_to 10713
  155.9777  130.4756  150.6609 LP  0  0  0  0  0  0  0  0  0  0  0  0  # atno 17371 bound_to 10713
  140.6995  133.9318  155.8016 LP  0  0  0  0  0  0  0  0  0  0  0  0  # atno 17394 bound_to 11000
  141.0382  134.0659  157.3934 LP  0  0  0  0  0  0  0  0  0  0  0  0  # atno 17395 bound_to 11000

$$$$
