AV-unprocessed.smi:634|AV-procd|sdf|3136|dock5
  -GOLD-   22720 0 63D 1   1.00000     0.00000
 Structure written by MMmdl.
 32 33  0  0  0  0  0  0  0  0  2 V2000
  145.2195  135.6284  162.4476 C   0  0  0  0  0  0  0  0  0  0  0  0
  146.4451  135.9289  161.6545 C   0  0  0  0  0  0  0  0  0  0  0  0
  147.0594  135.2866  160.6173 C   0  0  0  0  0  0  0  0  0  0  0  0
  148.1767  136.1194  160.3354 C   0  0  0  0  0  0  0  0  0  0  0  0
  149.1049  135.9013  159.3909 N   0  5  0  0  0  0  0  0  0  0  0  0
  149.4598  136.8927  158.5412 C   0  0  0  0  0  0  0  0  0  0  0  0
  148.7024  137.5087  157.7887 O   0  0  0  0  0  0  0  0  0  0  0  0
  150.7734  137.1757  158.5740 N   0  0  0  0  0  0  0  0  0  0  0  0
  151.5431  138.1737  157.8179 C   0  0  2  0  0  0  0  0  0  0  0  0
  153.0123  138.0189  158.2619 C   0  0  0  0  0  0  0  0  0  0  0  0
  151.0731  139.6252  158.1068 C   0  0  0  0  0  0  0  0  0  0  0  0
  151.6285  140.5703  157.0309 C   0  0  0  0  0  0  0  0  0  0  0  0
  151.8164  139.5669  155.5085 S   0  0  0  0  0  0  0  0  0  0  0  0
  150.7457  139.9061  154.5589 O   0  0  0  0  0  0  0  0  0  0  0  0
  153.2276  139.5918  155.0941 O   0  0  0  0  0  0  0  0  0  0  0  0
  151.4384  137.9526  156.2906 C   0  0  0  0  0  0  0  0  0  0  0  0
  148.2442  137.1651  161.1421 N   0  0  0  0  0  0  0  0  0  0  0  0
  147.1337  137.0537  161.9873 O   0  0  0  0  0  0  0  0  0  0  0  0
  145.3879  134.7781  163.1082 H   0  0  0  0  0  0  0  0  0  0  0  0
  144.3844  135.3864  161.7902 H   0  0  0  0  0  0  0  0  0  0  0  0
  144.9290  136.4818  163.0608 H   0  0  0  0  0  0  0  0  0  0  0  0
  146.7573  134.3698  160.1334 H   0  0  0  0  0  0  0  0  0  0  0  0
  151.3144  136.6211  159.2212 H   0  0  0  0  0  0  0  0  0  0  0  0
  153.6731  138.7136  157.7437 H   0  0  0  0  0  0  0  0  0  0  0  0
  153.3816  137.0122  158.0622 H   0  0  0  0  0  0  0  0  0  0  0  0
  153.1237  138.2003  159.3317 H   0  0  0  0  0  0  0  0  0  0  0  0
  149.9871  139.6905  158.0614 H   0  0  0  0  0  0  0  0  0  0  0  0
  151.3533  139.9545  159.1078 H   0  0  0  0  0  0  0  0  0  0  0  0
  150.9752  141.4219  156.8409 H   0  0  0  0  0  0  0  0  0  0  0  0
  152.6129  140.9444  157.3117 H   0  0  0  0  0  0  0  0  0  0  0  0
  152.1188  137.1874  155.9166 H   0  0  0  0  0  0  0  0  0  0  0  0
  150.4315  137.6797  155.9784 H   0  0  0  0  0  0  0  0  0  0  0  0
  1  2  1  0  0  0  0
  1 19  1  0  0  0  0
  1 20  1  0  0  0  0
  1 21  1  0  0  0  0
  2 18  1  0  0  0  0
  2  3  2  0  0  0  0
  3  4  1  0  0  0  0
  3 22  1  0  0  0  0
  4  5  1  0  0  0  0
  4 17  2  0  0  0  0
  5  6  1  0  0  0  0
  6  7  2  0  0  0  0
  6  8  1  0  0  0  0
  8  9  1  0  0  0  0
  8 23  1  0  0  0  0
  9 16  1  0  0  0  0
  9 10  1  0  0  0  0
  9 11  1  0  0  0  0
 10 24  1  0  0  0  0
 10 25  1  0  0  0  0
 10 26  1  0  0  0  0
 11 12  1  0  0  0  0
 11 27  1  0  0  0  0
 11 28  1  0  0  0  0
 12 13  1  0  0  0  0
 12 29  1  0  0  0  0
 12 30  1  0  0  0  0
 13 14  2  0  0  0  0
 13 15  2  0  0  0  0
 13 16  1  0  0  0  0
 16 31  1  0  0  0  0
 16 32  1  0  0  0  0
 17 18  1  0  0  0  0
M  CHG  1   5  -1
M  END
> <s_m_source_file>
AV-unprocessed.smi

> <i_m_source_file_index>
634

> <i_lp_mmshare_version>
43012

> <i_f3d_flags>
0

> <s_epik_input>
W0NIM11jMVtjSF1jKG5vMSlbTkhdQyg9TylbTkhdW0NAQF0yKFtDSDNdKVtDSDJdW0NIMl1TKD1PKSg9TylbQ0gyXTI=

> <s_epik_cmdline>
J2VwaWtfcHl0aG9uJywgJy1waCcsICc3LjAnLCAnLXRuJywgJzgnLCAnLW1hJywgJzIwMCcsICctbWV0YWxfYmluZGluZycsICctaW1hZScsICc8aW5maWxlLm1hZT4nLCAnLW9tYWUnLCAnPG91dGZpbGUubWFlPic=

> <r_lp_tautomer_probability>
1

> <r_epik_Ionization_Penalty>
6.15572

> <r_epik_Ionization_Penalty_Charging>
6.1556

> <r_epik_Ionization_Penalty_Neutral>
0.000118136

> <r_epik_State_Penalty>
6.15558

> <r_epik_Charging_Adjusted_Penalty>
12.3112

> <i_epik_Tot_Q>
-1

> <i_epik_Tot_abs_Q>
1

> <r_epik_Metal_State_Penalty>
2.10569

> <b_epik_Metal_Only>
1

> <s_lp_Force_Field>
OPLS_2005

> <r_lp_Energy>
-1.68809

> <b_lp_Chiralities_Consistent>
1

> <s_lp_Variant>
AV-unprocessed.smi:634-4

> <Gold.Version>
5.8.1

> <Gold.Id.Protein>
6NUR|6NUR_protein|mol2

> <Gold.PLP.Fitness>
38.2164

> <Gold.PLP.PLP>
-25.1681

> <Gold.PLP.part.hbond>
-6.8582

> <Gold.PLP.part.metal>
0.0000

> <Gold.PLP.part.buried>
-4.3872

> <Gold.PLP.part.nonpolar>
-14.7088

> <Gold.PLP.part.repulsive>
0.2448

> <Gold.PLP.ligand.clash>
0.0000

> <Gold.PLP.ligand.torsion>
0.9658

> <Gold.PLP.Chemscore.Hbond>
4.9913

> <Gold.PLP.Chemscore.CHOScore>
0.0000

> <Gold.PLP.Chemscore.Metal>
0.0000

> <Gold.Chemscore.Hbonds>
donor molecule, donor type, donor heavy atom, donor atom, acceptor molecule, acceptor atom, score
      P1  H  6896  6909       L1     5  2.00
      P1  H  6931  6943       L1    17  1.00
      P1  H  7989  7998       L1    14  0.95
      P1  H  7997  8008       L1    15  1.00

> <Gold.PLP.Chemscore.Internal.Correction>
0.0061

> <Gold.Rescore>
     Score         DG    S(hbond)    S(metal)    S(lipo)     H(rot)  DE(clash)    DE(int)     intcor
     15.52     -16.65       2.65        0.00      41.82       1.00       0.13       1.00       ----

> <Gold.Chemscore.Fitness>
15.5191

> <Gold.Chemscore.DG>
-16.6493

> <Gold.Chemscore.ZeroCoef>
-5.4800

> <Gold.Chemscore.Hbond>
2.6456

> <Gold.Chemscore.Metal>
0.0000

> <Gold.Chemscore.Lipo>
41.8197

> <Gold.Chemscore.Internal_Hbond>
0.0000

> <Gold.Chemscore.DEClash>
0.1334

> <Gold.Chemscore.DEInternal>
0.9968

> <Gold.Chemscore.Rot>
1.0000

> <Gold.Chemscore.Internal.Correction>
   9.000000E+99

> <Gold.Chemscore.Hbonds>
donor molecule, donor type, donor heavy atom, donor atom, acceptor molecule, acceptor atom, score
      P1  H  6896  6909       L1     5  0.51
      P1  H  6931  6943       L1    17  0.23
      P1  H  7989  7998       L1    14  0.22
      P1  H  7997  8008       L1    15  0.96

> <Gold.Chemscore.Hbond.Weighted>
-8.8364

> <Gold.Chemscore.Metal.Weighted>
-0.0000

> <Gold.Chemscore.Lipo.Weighted>
-4.8929

> <Gold.Chemscore.Internal_Hbond.Weighted>
0.0000

> <Gold.Chemscore.DEClash.Weighted>
0.1334

> <Gold.Chemscore.DEInternal.Weighted>
0.9968

> <Gold.Chemscore.Rot.Weighted>
2.5600

> <Gold.Chemscore.Internal.Correction.Weighted>
   9.000000E+99

> <Gold.Protein.RotatedTorsions>
[ 6907 6896 6895 6894 ] final   66.88 input  -60.11 | X-H torsion
[ 7974 7965 7964 7962 ] final  -34.61 input  175.53 | X-H torsion
[ 8008 7997 7996 7995 ] final  -31.54 input   59.86 | X-H torsion
[ 10167 10162 10161 10158 ] final   25.15 input  -65.29 | X-H torsion
[ 10718 10713 10712 10709 ] final   40.80 input   66.30 | X-H torsion
[ 10763 10752 10751 10750 ] final  137.81 input  -60.55 | X-H torsion
[ 11005 11000 10999 10996 ] final   81.78 input  -57.11 | X-H torsion

> <Gold.Protein.ActiveResidues>
 VAL166  LYS551  ARG553  GLY616  TRP617  ASP618  TYR619  PRO620  LYS621  CYS622 
 ASP623  PHE694  ASN695  SER759  ASP760  ASP761  ALA762  ILE779  LEU786  VAL792 
 PHE793  MET794  SER795  GLU796  ALA797  LYS798  CYS799  TRP800  GLU811  SER814 

> <Gold.Protein.RotatedAtoms>
  152.4512  134.5389  159.9832 H   0  0  0  0  0  0  0  0  0  0  0  0  # atno 6907 bound_to 6896
  151.5461  133.3419  159.2952 H   0  0  0  0  0  0  0  0  0  0  0  0  # atno 6908 bound_to 6896
  150.8442  134.7776  159.7020 H   0  0  0  0  0  0  0  0  0  0  0  0  # atno 6909 bound_to 6896
  146.0815  140.6060  142.8906 H   0  0  0  0  0  0  0  0  0  0  0  0  # atno 7974 bound_to 7965
  154.4210  140.1761  156.1584 H   0  0  0  0  0  0  0  0  0  0  0  0  # atno 8008 bound_to 7997
  155.9858  140.3373  155.6682 H   0  0  0  0  0  0  0  0  0  0  0  0  # atno 8009 bound_to 7997
  155.6439  140.0683  157.2600 H   0  0  0  0  0  0  0  0  0  0  0  0  # atno 8010 bound_to 7997
  140.5130  144.0129  150.6381 H   0  0  0  0  0  0  0  0  0  0  0  0  # atno 10167 bound_to 10162
  157.3863  130.7782  149.7233 H   0  0  0  0  0  0  0  0  0  0  0  0  # atno 10718 bound_to 10713
  153.8792  135.3046  155.3444 H   0  0  0  0  0  0  0  0  0  0  0  0  # atno 10763 bound_to 10752
  154.7769  135.4856  153.9767 H   0  0  0  0  0  0  0  0  0  0  0  0  # atno 10764 bound_to 10752
  153.1361  135.6814  153.9197 H   0  0  0  0  0  0  0  0  0  0  0  0  # atno 10765 bound_to 10752
  139.9086  134.8023  156.2087 H   0  0  0  0  0  0  0  0  0  0  0  0  # atno 11005 bound_to 11000
  144.7296  140.4632  143.6947 LP  0  0  0  0  0  0  0  0  0  0  0  0  # atno 17320 bound_to 7965
  145.6209  139.1524  143.3023 LP  0  0  0  0  0  0  0  0  0  0  0  0  # atno 17321 bound_to 7965
  140.3457  143.2993  152.0541 LP  0  0  0  0  0  0  0  0  0  0  0  0  # atno 17342 bound_to 10162
  139.4901  144.6410  151.6876 LP  0  0  0  0  0  0  0  0  0  0  0  0  # atno 17343 bound_to 10162
  155.9787  130.4048  150.3629 LP  0  0  0  0  0  0  0  0  0  0  0  0  # atno 17370 bound_to 10713
  157.1740  131.0376  151.2781 LP  0  0  0  0  0  0  0  0  0  0  0  0  # atno 17371 bound_to 10713
  141.0479  133.6904  156.1717 LP  0  0  0  0  0  0  0  0  0  0  0  0  # atno 17394 bound_to 11000
  140.6856  134.4721  157.5589 LP  0  0  0  0  0  0  0  0  0  0  0  0  # atno 17395 bound_to 11000

$$$$
