AV-unprocessed.smi:1040|AV-procd|sdf|4524|dock4
  -GOLD-   22720 2543D 1   1.00000     0.00000
 Structure written by MMmdl.
 54 55  0  0  0  0  0  0  0  0  1 V2000
  149.5291  135.3434  155.8500 C   0  0  0  0  0  0  0  0  0  0  0  0
  148.7708  134.0115  155.9776 C   0  0  2  0  0  0  0  0  0  0  0  0
  147.5801  134.0854  155.1324 N   0  0  0  0  0  0  0  0  0  0  0  0
  147.2721  133.2252  154.1501 C   0  0  0  0  0  0  0  0  0  0  0  0
  147.9834  132.2695  153.8420 O   0  0  0  0  0  0  0  0  0  0  0  0
  146.1013  133.5538  153.5782 N   0  0  0  0  0  0  0  0  0  0  0  0
  145.3896  132.9342  152.5073 C   0  0  0  0  0  0  0  0  0  0  0  0
  145.8433  131.7774  151.8248 C   0  0  0  0  0  0  0  0  0  0  0  0
  145.0579  131.2357  150.7913 C   0  0  0  0  0  0  0  0  0  0  0  0
  143.8438  131.8669  150.4718 C   0  0  0  0  0  0  0  0  0  0  0  0
  143.3992  132.9708  151.1042 N   0  0  0  0  0  0  0  0  0  0  0  0
  144.1511  133.5016  152.0995 C   0  0  0  0  0  0  0  0  0  0  0  0
  143.6650  134.6704  152.7188 N   0  0  0  0  0  0  0  0  0  0  0  0
  144.3615  135.8838  152.2959 C   0  0  0  0  0  0  0  0  0  0  0  0
  144.0422  137.0531  153.2430 C   0  0  0  0  0  0  0  0  0  0  0  0
  142.5242  137.2582  153.3726 C   0  0  0  0  0  0  0  0  0  0  0  0
  141.8410  135.9449  153.7877 C   0  0  0  0  0  0  0  0  0  0  0  0
  142.2124  134.8033  152.8258 C   0  0  0  0  0  0  0  0  0  0  0  0
  148.3754  133.8267  157.4511 C   0  0  0  0  0  0  0  0  0  0  0  0
  149.2434  133.7163  158.3181 O   0  0  0  0  0  0  0  0  0  0  0  0
  147.0549  133.7796  157.7011 N   0  0  0  0  0  0  0  0  0  0  0  0
  146.3753  133.6075  158.9905 C   0  0  0  0  0  0  0  0  0  0  0  0
  146.7379  134.8283  159.8541 C   0  0  0  0  0  0  0  0  0  0  0  0
  146.8666  132.3286  159.7016 C   0  0  0  0  0  0  0  0  0  0  0  0
  144.8453  133.5680  158.7949 C   0  0  0  0  0  0  0  0  0  0  0  0
  150.4296  135.3469  156.4657 H   0  0  0  0  0  0  0  0  0  0  0  0
  148.9150  136.1924  156.1545 H   0  0  0  0  0  0  0  0  0  0  0  0
  149.8410  135.5166  154.8197 H   0  0  0  0  0  0  0  0  0  0  0  0
  149.4125  133.1916  155.6484 H   0  0  0  0  0  0  0  0  0  0  0  0
  146.9347  134.8371  155.3250 H   0  0  0  0  0  0  0  0  0  0  0  0
  145.6349  134.3545  153.9791 H   0  0  0  0  0  0  0  0  0  0  0  0
  146.7740  131.2887  152.0613 H   0  0  0  0  0  0  0  0  0  0  0  0
  145.3798  130.3546  150.2563 H   0  0  0  0  0  0  0  0  0  0  0  0
  143.2144  131.4779  149.6851 H   0  0  0  0  0  0  0  0  0  0  0  0
  145.4391  135.7204  152.2636 H   0  0  0  0  0  0  0  0  0  0  0  0
  144.0513  136.1317  151.2797 H   0  0  0  0  0  0  0  0  0  0  0  0
  144.4692  136.8517  154.2265 H   0  0  0  0  0  0  0  0  0  0  0  0
  144.5143  137.9670  152.8813 H   0  0  0  0  0  0  0  0  0  0  0  0
  142.3101  138.0415  154.1001 H   0  0  0  0  0  0  0  0  0  0  0  0
  142.1178  137.5967  152.4186 H   0  0  0  0  0  0  0  0  0  0  0  0
  142.1445  135.6798  154.8013 H   0  0  0  0  0  0  0  0  0  0  0  0
  140.7590  136.0757  153.8119 H   0  0  0  0  0  0  0  0  0  0  0  0
  141.7911  135.0010  151.8390 H   0  0  0  0  0  0  0  0  0  0  0  0
  141.7803  133.8661  153.1794 H   0  0  0  0  0  0  0  0  0  0  0  0
  146.4457  133.8804  156.9022 H   0  0  0  0  0  0  0  0  0  0  0  0
  146.2743  134.7698  160.8396 H   0  0  0  0  0  0  0  0  0  0  0  0
  146.4043  135.7579  159.3911 H   0  0  0  0  0  0  0  0  0  0  0  0
  147.8158  134.9043  160.0040 H   0  0  0  0  0  0  0  0  0  0  0  0
  147.9518  132.3272  159.8112 H   0  0  0  0  0  0  0  0  0  0  0  0
  146.5885  131.4241  159.1609 H   0  0  0  0  0  0  0  0  0  0  0  0
  146.4366  132.2459  160.7004 H   0  0  0  0  0  0  0  0  0  0  0  0
  144.3279  133.5347  159.7543 H   0  0  0  0  0  0  0  0  0  0  0  0
  144.5265  132.6920  158.2300 H   0  0  0  0  0  0  0  0  0  0  0  0
  144.4906  134.4510  158.2620 H   0  0  0  0  0  0  0  0  0  0  0  0
  1  2  1  0  0  0  0
  1 26  1  0  0  0  0
  1 27  1  0  0  0  0
  1 28  1  0  0  0  0
  2  3  1  0  0  0  0
  2 19  1  0  0  0  0
  2 29  1  0  0  0  0
  3  4  1  0  0  0  0
  3 30  1  0  0  0  0
  4  5  2  0  0  0  0
  4  6  1  0  0  0  0
  6  7  1  0  0  0  0
  6 31  1  0  0  0  0
  7 12  1  0  0  0  0
  7  8  2  0  0  0  0
  8  9  1  0  0  0  0
  8 32  1  0  0  0  0
  9 10  2  0  0  0  0
  9 33  1  0  0  0  0
 10 11  1  0  0  0  0
 10 34  1  0  0  0  0
 11 12  2  0  0  0  0
 12 13  1  0  0  0  0
 13 18  1  0  0  0  0
 13 14  1  0  0  0  0
 14 15  1  0  0  0  0
 14 35  1  0  0  0  0
 14 36  1  0  0  0  0
 15 16  1  0  0  0  0
 15 37  1  0  0  0  0
 15 38  1  0  0  0  0
 16 17  1  0  0  0  0
 16 39  1  0  0  0  0
 16 40  1  0  0  0  0
 17 18  1  0  0  0  0
 17 41  1  0  0  0  0
 17 42  1  0  0  0  0
 18 43  1  0  0  0  0
 18 44  1  0  0  0  0
 19 20  2  0  0  0  0
 19 21  1  0  0  0  0
 21 22  1  0  0  0  0
 21 45  1  0  0  0  0
 22 23  1  0  0  0  0
 22 24  1  0  0  0  0
 22 25  1  0  0  0  0
 23 46  1  0  0  0  0
 23 47  1  0  0  0  0
 23 48  1  0  0  0  0
 24 49  1  0  0  0  0
 24 50  1  0  0  0  0
 24 51  1  0  0  0  0
 25 52  1  0  0  0  0
 25 53  1  0  0  0  0
 25 54  1  0  0  0  0
M  END
> <s_m_source_file>
AV-unprocessed.smi

> <i_m_source_file_index>
1040

> <i_lp_mmshare_version>
43012

> <i_f3d_flags>
0

> <s_epik_input>
W0NIM11DKFtDSDNdKShbQ0gzXSlbTkhdQyg9TylbQ0BIXShbQ0gzXSlbTkhdQyg9TylbTkhdYzFbY0hdW2NIXVtjSF1uYzFOMltDSDJdW0NIMl1bQ0gyXVtDSDJdW0NIMl0y

> <s_epik_cmdline>
J2VwaWtfcHl0aG9uJywgJy1waCcsICc3LjAnLCAnLXRuJywgJzgnLCAnLW1hJywgJzIwMCcsICctbWV0YWxfYmluZGluZycsICctaW1hZScsICc8aW5maWxlLm1hZT4nLCAnLW9tYWUnLCAnPG91dGZpbGUubWFlPic=

> <r_lp_tautomer_probability>
1

> <r_epik_Ionization_Penalty>
0.0878593

> <r_epik_Ionization_Penalty_Charging>
0

> <r_epik_Ionization_Penalty_Neutral>
0.0878593

> <r_epik_State_Penalty>
0.07381

> <r_epik_Charging_Adjusted_Penalty>
0.07381

> <i_epik_Tot_Q>
0

> <i_epik_Tot_abs_Q>
0

> <r_epik_Metal_State_Penalty>
0.0646628

> <b_epik_Metal_Only>
0

> <s_lp_Force_Field>
OPLS_2005

> <r_lp_Energy>
21.1097

> <b_lp_Chiralities_Consistent>
1

> <s_lp_Variant>
AV-unprocessed.smi:1040-1

> <Gold.Version>
5.8.1

> <Gold.Id.Protein>
6NUR|6NUR_protein|mol2

> <Gold.PLP.Fitness>
36.5373

> <Gold.PLP.PLP>
-31.6909

> <Gold.PLP.part.hbond>
-1.0000

> <Gold.PLP.part.metal>
0.0000

> <Gold.PLP.part.buried>
-7.4613

> <Gold.PLP.part.nonpolar>
-24.5704

> <Gold.PLP.part.repulsive>
0.5097

> <Gold.PLP.ligand.clash>
0.0000

> <Gold.PLP.ligand.torsion>
0.6052

> <Gold.PLP.Chemscore.Hbond>
0.9280

> <Gold.PLP.Chemscore.CHOScore>
0.9957

> <Gold.PLP.Chemscore.Metal>
0.0000

> <Gold.Chemscore.Hbonds>
donor molecule, donor type, donor heavy atom, donor atom, acceptor molecule, acceptor atom, score
      P1  H  6896  6907       L1    20  1.00
      L1  C    10    34       P1 10952  0.70

> <Gold.PLP.Chemscore.Internal.Correction>
0.2856

> <Gold.Rescore>
     Score         DG    S(hbond)    S(metal)    S(lipo)     H(rot)  DE(clash)    DE(int)     intcor
     11.63     -13.36       1.00        0.00      74.19       1.61       0.12       1.62       ----

> <Gold.Chemscore.Fitness>
11.6271

> <Gold.Chemscore.DG>
-13.3610

> <Gold.Chemscore.ZeroCoef>
-5.4800

> <Gold.Chemscore.Hbond>
0.9979

> <Gold.Chemscore.Metal>
0.0000

> <Gold.Chemscore.Lipo>
74.1931

> <Gold.Chemscore.Internal_Hbond>
0.0000

> <Gold.Chemscore.DEClash>
0.1176

> <Gold.Chemscore.DEInternal>
1.6164

> <Gold.Chemscore.Rot>
1.6143

> <Gold.Chemscore.Internal.Correction>
   9.000000E+99

> <Gold.Chemscore.Hbonds>
donor molecule, donor type, donor heavy atom, donor atom, acceptor molecule, acceptor atom, score
      P1  H  6896  6907       L1    20  1.00

> <Gold.Chemscore.Hbond.Weighted>
-3.3330

> <Gold.Chemscore.Metal.Weighted>
-0.0000

> <Gold.Chemscore.Lipo.Weighted>
-8.6806

> <Gold.Chemscore.Internal_Hbond.Weighted>
0.0000

> <Gold.Chemscore.DEClash.Weighted>
0.1176

> <Gold.Chemscore.DEInternal.Weighted>
1.6164

> <Gold.Chemscore.Rot.Weighted>
4.1326

> <Gold.Chemscore.Internal.Correction.Weighted>
   9.000000E+99

> <Gold.Protein.RotatedTorsions>
[ 6907 6896 6895 6894 ] final -104.03 input  -60.11 | X-H torsion
[ 7974 7965 7964 7962 ] final  -99.09 input  175.53 | X-H torsion
[ 8008 7997 7996 7995 ] final  153.99 input   59.86 | X-H torsion
[ 10167 10162 10161 10158 ] final   68.66 input  -65.29 | X-H torsion
[ 10718 10713 10712 10709 ] final  -22.24 input   66.30 | X-H torsion
[ 10763 10752 10751 10750 ] final  132.25 input  -60.55 | X-H torsion
[ 11005 11000 10999 10996 ] final -144.07 input  -57.11 | X-H torsion

> <Gold.Protein.ActiveResidues>
 VAL166  LYS551  ARG553  GLY616  TRP617  ASP618  TYR619  PRO620  LYS621  CYS622 
 ASP623  PHE694  ASN695  SER759  ASP760  ASP761  ALA762  ILE779  LEU786  VAL792 
 PHE793  MET794  SER795  GLU796  ALA797  LYS798  CYS799  TRP800  GLU811  SER814 

> <Gold.Protein.RotatedAtoms>
  150.7268  134.0339  159.3742 H   0  0  0  0  0  0  0  0  0  0  0  0  # atno 6907 bound_to 6896
  151.8310  135.0619  160.0446 H   0  0  0  0  0  0  0  0  0  0  0  0  # atno 6908 bound_to 6896
  152.2934  133.5547  159.5608 H   0  0  0  0  0  0  0  0  0  0  0  0  # atno 6909 bound_to 6896
  145.3121  140.9402  143.2764 H   0  0  0  0  0  0  0  0  0  0  0  0  # atno 7974 bound_to 7965
  156.2554  140.1978  156.6577 H   0  0  0  0  0  0  0  0  0  0  0  0  # atno 8008 bound_to 7997
  154.6488  140.0574  156.9957 H   0  0  0  0  0  0  0  0  0  0  0  0  # atno 8009 bound_to 7997
  155.1449  140.3246  155.4446 H   0  0  0  0  0  0  0  0  0  0  0  0  # atno 8010 bound_to 7997
  140.0762  144.5110  150.7193 H   0  0  0  0  0  0  0  0  0  0  0  0  # atno 10167 bound_to 10162
  156.5072  130.4601  149.6668 H   0  0  0  0  0  0  0  0  0  0  0  0  # atno 10718 bound_to 10713
  153.7877  135.3159  155.3374 H   0  0  0  0  0  0  0  0  0  0  0  0  # atno 10763 bound_to 10752
  154.8138  135.4650  154.0589 H   0  0  0  0  0  0  0  0  0  0  0  0  # atno 10764 bound_to 10752
  153.1898  135.6906  153.8454 H   0  0  0  0  0  0  0  0  0  0  0  0  # atno 10765 bound_to 10752
  140.8062  134.2799  157.4959 H   0  0  0  0  0  0  0  0  0  0  0  0  # atno 11005 bound_to 11000
  144.9008  139.4653  143.6633 LP  0  0  0  0  0  0  0  0  0  0  0  0  # atno 17320 bound_to 7965
  146.3114  139.7760  142.9017 LP  0  0  0  0  0  0  0  0  0  0  0  0  # atno 17321 bound_to 7965
  140.7101  143.2498  151.4608 LP  0  0  0  0  0  0  0  0  0  0  0  0  # atno 17342 bound_to 10162
  139.5806  144.1717  152.1963 LP  0  0  0  0  0  0  0  0  0  0  0  0  # atno 17343 bound_to 10162
  156.3275  130.7313  151.2237 LP  0  0  0  0  0  0  0  0  0  0  0  0  # atno 17370 bound_to 10713
  157.7455  131.0439  150.4766 LP  0  0  0  0  0  0  0  0  0  0  0  0  # atno 17371 bound_to 10713
  139.8717  134.9457  156.3918 LP  0  0  0  0  0  0  0  0  0  0  0  0  # atno 17394 bound_to 11000
  140.9245  133.7622  155.9947 LP  0  0  0  0  0  0  0  0  0  0  0  0  # atno 17395 bound_to 11000

$$$$
