AV-unprocessed.smi:1876|AV-procd|sdf|7620|dock8
  -GOLD-   22720 9343D 1   1.00000     0.00000
 Structure written by MMmdl.
 31 32  0  0  0  0  0  0  0  0  1 V2000
  151.9951  131.9468  157.0424 C   0  0  0  0  0  0  0  0  0  0  0  0
  150.9982  132.8660  156.4240 C   0  0  0  0  0  0  0  0  0  0  0  0
  150.4172  132.9146  155.1878 C   0  0  0  0  0  0  0  0  0  0  0  0
  149.5664  134.0485  155.2782 C   0  0  0  0  0  0  0  0  0  0  0  0
  148.7672  134.4496  154.1769 N   0  0  0  0  0  0  0  0  0  0  0  0
  147.4766  134.1503  153.9499 C   0  0  0  0  0  0  0  0  0  0  0  0
  146.7663  133.4702  154.6911 O   0  0  0  0  0  0  0  0  0  0  0  0
  147.0443  134.6918  152.8005 N   0  0  0  0  0  0  0  0  0  0  0  0
  145.6830  134.5884  152.2724 C   0  0  2  0  0  0  0  0  0  0  0  0
  145.6723  133.4776  151.2040 C   0  0  0  0  0  0  0  0  0  0  0  0
  144.3072  133.4128  150.5140 C   0  0  0  0  0  0  0  0  0  0  0  0
  144.0024  134.7425  149.8089 C   0  0  0  0  0  0  0  0  0  0  0  0
  144.4074  135.9151  150.5846 N   0  0  0  0  0  0  0  0  0  0  0  0
  145.2322  135.9314  151.6479 C   0  0  0  0  0  0  0  0  0  0  0  0
  145.5862  136.9975  152.1493 O   0  0  0  0  0  0  0  0  0  0  0  0
  149.6213  134.6370  156.4634 N   0  0  0  0  0  0  0  0  0  0  0  0
  150.5391  133.8822  157.2035 O   0  0  0  0  0  0  0  0  0  0  0  0
  152.3129  131.1818  156.3337 H   0  0  0  0  0  0  0  0  0  0  0  0
  151.5712  131.4457  157.9128 H   0  0  0  0  0  0  0  0  0  0  0  0
  152.8792  132.4969  157.3650 H   0  0  0  0  0  0  0  0  0  0  0  0
  150.5783  132.2461  154.3551 H   0  0  0  0  0  0  0  0  0  0  0  0
  149.2275  135.0265  153.4888 H   0  0  0  0  0  0  0  0  0  0  0  0
  147.6975  135.2384  152.2591 H   0  0  0  0  0  0  0  0  0  0  0  0
  144.9813  134.3293  153.0671 H   0  0  0  0  0  0  0  0  0  0  0  0
  146.4524  133.6498  150.4601 H   0  0  0  0  0  0  0  0  0  0  0  0
  145.8936  132.5156  151.6680 H   0  0  0  0  0  0  0  0  0  0  0  0
  144.2761  132.5914  149.7977 H   0  0  0  0  0  0  0  0  0  0  0  0
  143.5364  133.2058  151.2576 H   0  0  0  0  0  0  0  0  0  0  0  0
  144.5365  134.7801  148.8589 H   0  0  0  0  0  0  0  0  0  0  0  0
  142.9403  134.8130  149.5728 H   0  0  0  0  0  0  0  0  0  0  0  0
  144.0950  136.8095  150.2350 H   0  0  0  0  0  0  0  0  0  0  0  0
  1  2  1  0  0  0  0
  1 18  1  0  0  0  0
  1 19  1  0  0  0  0
  1 20  1  0  0  0  0
  2 17  1  0  0  0  0
  2  3  2  0  0  0  0
  3  4  1  0  0  0  0
  3 21  1  0  0  0  0
  4  5  1  0  0  0  0
  4 16  2  0  0  0  0
  5  6  1  0  0  0  0
  5 22  1  0  0  0  0
  6  7  2  0  0  0  0
  6  8  1  0  0  0  0
  8  9  1  0  0  0  0
  8 23  1  0  0  0  0
  9 14  1  0  0  0  0
  9 10  1  0  0  0  0
  9 24  1  0  0  0  0
 10 11  1  0  0  0  0
 10 25  1  0  0  0  0
 10 26  1  0  0  0  0
 11 12  1  0  0  0  0
 11 27  1  0  0  0  0
 11 28  1  0  0  0  0
 12 13  1  0  0  0  0
 12 29  1  0  0  0  0
 12 30  1  0  0  0  0
 13 14  1  0  0  0  0
 13 31  1  0  0  0  0
 14 15  2  0  0  0  0
 16 17  1  0  0  0  0
M  END
> <s_m_source_file>
AV-unprocessed.smi

> <i_m_source_file_index>
1876

> <i_lp_mmshare_version>
43012

> <i_f3d_flags>
0

> <s_epik_input>
W0NIM11jMVtjSF1jKG5vMSlbTkhdQyg9TylbTkhdW0NAQEhdMltDSDJdW0NIMl1bQ0gyXVtOSF1DMj1P

> <s_epik_cmdline>
J2VwaWtfcHl0aG9uJywgJy1waCcsICc3LjAnLCAnLXRuJywgJzgnLCAnLW1hJywgJzIwMCcsICctbWV0YWxfYmluZGluZycsICctaW1hZScsICc8aW5maWxlLm1hZT4nLCAnLW9tYWUnLCAnPG91dGZpbGUubWFlPic=

> <r_lp_tautomer_probability>
1

> <r_epik_Ionization_Penalty>
2.33177e-05

> <r_epik_Ionization_Penalty_Charging>
0

> <r_epik_Ionization_Penalty_Neutral>
2.33177e-05

> <r_epik_State_Penalty>
-0

> <r_epik_Charging_Adjusted_Penalty>
0

> <i_epik_Tot_Q>
0

> <i_epik_Tot_abs_Q>
0

> <r_epik_Metal_State_Penalty>
-0

> <b_epik_Metal_Only>
0

> <s_lp_Force_Field>
OPLS_2005

> <r_lp_Energy>
8.43972

> <b_lp_Chiralities_Consistent>
1

> <s_lp_Variant>
AV-unprocessed.smi:1876-1

> <Gold.Version>
5.8.1

> <Gold.Id.Protein>
6NUR|6NUR_protein|mol2

> <Gold.PLP.Fitness>
30.6977

> <Gold.PLP.PLP>
-22.0072

> <Gold.PLP.part.hbond>
-4.0000

> <Gold.PLP.part.metal>
0.0000

> <Gold.PLP.part.buried>
-1.9579

> <Gold.PLP.part.nonpolar>
-17.1334

> <Gold.PLP.part.repulsive>
0.3285

> <Gold.PLP.ligand.clash>
0.0000

> <Gold.PLP.ligand.torsion>
1.0259

> <Gold.PLP.Chemscore.Hbond>
3.5806

> <Gold.PLP.Chemscore.CHOScore>
0.0000

> <Gold.PLP.Chemscore.Metal>
0.0000

> <Gold.Chemscore.Hbonds>
donor molecule, donor type, donor heavy atom, donor atom, acceptor molecule, acceptor atom, score
      L1  H     5    22       P1  7948  0.79
      L1  H     8    23       P1  7948  1.00
      L1  H    13    31       P1 10171  1.00
      P1  H  6896  6907       L1    17  0.71

> <Gold.PLP.Chemscore.Internal.Correction>
0.0003

> <Gold.Rescore>
     Score         DG    S(hbond)    S(metal)    S(lipo)     H(rot)  DE(clash)    DE(int)     intcor
     16.45     -17.79       3.11        0.00      38.37       1.00       0.30       1.03       ----

> <Gold.Chemscore.Fitness>
16.4534

> <Gold.Chemscore.DG>
-17.7894

> <Gold.Chemscore.ZeroCoef>
-5.4800

> <Gold.Chemscore.Hbond>
3.1079

> <Gold.Chemscore.Metal>
0.0000

> <Gold.Chemscore.Lipo>
38.3688

> <Gold.Chemscore.Internal_Hbond>
0.0000

> <Gold.Chemscore.DEClash>
0.3035

> <Gold.Chemscore.DEInternal>
1.0325

> <Gold.Chemscore.Rot>
1.0000

> <Gold.Chemscore.Internal.Correction>
   9.000000E+99

> <Gold.Chemscore.Hbonds>
donor molecule, donor type, donor heavy atom, donor atom, acceptor molecule, acceptor atom, score
      L1  H     5    22       P1  7948  0.13
      L1  H     8    23       P1  7948  0.98
      L1  H    13    31       P1 10171  1.00
      P1  H  6896  6907       L1    17  0.63

> <Gold.Chemscore.Hbond.Weighted>
-10.3803

> <Gold.Chemscore.Metal.Weighted>
-0.0000

> <Gold.Chemscore.Lipo.Weighted>
-4.4891

> <Gold.Chemscore.Internal_Hbond.Weighted>
0.0000

> <Gold.Chemscore.DEClash.Weighted>
0.3035

> <Gold.Chemscore.DEInternal.Weighted>
1.0325

> <Gold.Chemscore.Rot.Weighted>
2.5600

> <Gold.Chemscore.Internal.Correction.Weighted>
   9.000000E+99

> <Gold.Protein.RotatedTorsions>
[ 6907 6896 6895 6894 ] final -124.44 input  -60.11 | X-H torsion
[ 7974 7965 7964 7962 ] final  175.63 input  175.53 | X-H torsion
[ 8008 7997 7996 7995 ] final -166.47 input   59.86 | X-H torsion
[ 10167 10162 10161 10158 ] final  -40.01 input  -65.29 | X-H torsion
[ 10718 10713 10712 10709 ] final  132.08 input   66.30 | X-H torsion
[ 10763 10752 10751 10750 ] final -129.05 input  -60.55 | X-H torsion
[ 11005 11000 10999 10996 ] final   71.52 input  -57.11 | X-H torsion

> <Gold.Protein.ActiveResidues>
 VAL166  LYS551  ARG553  GLY616  TRP617  ASP618  TYR619  PRO620  LYS621  CYS622 
 ASP623  PHE694  ASN695  SER759  ASP760  ASP761  ALA762  ILE779  LEU786  VAL792 
 PHE793  MET794  SER795  GLU796  ALA797  LYS798  CYS799  TRP800  GLU811  SER814 

> <Gold.Protein.RotatedAtoms>
  150.8768  133.7427  159.2943 H   0  0  0  0  0  0  0  0  0  0  0  0  # atno 6907 bound_to 6896
  151.5021  135.1060  159.9841 H   0  0  0  0  0  0  0  0  0  0  0  0  # atno 6908 bound_to 6896
  152.4733  133.8034  159.7021 H   0  0  0  0  0  0  0  0  0  0  0  0  # atno 6909 bound_to 6896
  144.7198  139.9976  143.6440 H   0  0  0  0  0  0  0  0  0  0  0  0  # atno 7974 bound_to 7965
  155.8643  140.0983  157.1592 H   0  0  0  0  0  0  0  0  0  0  0  0  # atno 8008 bound_to 7997
  154.3992  140.1359  156.4062 H   0  0  0  0  0  0  0  0  0  0  0  0  # atno 8009 bound_to 7997
  155.7821  140.3458  155.5306 H   0  0  0  0  0  0  0  0  0  0  0  0  # atno 8010 bound_to 7997
  140.7047  143.3179  151.2863 H   0  0  0  0  0  0  0  0  0  0  0  0  # atno 10167 bound_to 10162
  157.4906  131.1090  150.9561 H   0  0  0  0  0  0  0  0  0  0  0  0  # atno 10718 bound_to 10713
  154.8757  135.3908  154.3856 H   0  0  0  0  0  0  0  0  0  0  0  0  # atno 10763 bound_to 10752
  153.4598  135.7029  153.6062 H   0  0  0  0  0  0  0  0  0  0  0  0  # atno 10764 bound_to 10752
  153.4566  135.3821  155.2283 H   0  0  0  0  0  0  0  0  0  0  0  0  # atno 10765 bound_to 10752
  139.9539  134.7179  156.0798 H   0  0  0  0  0  0  0  0  0  0  0  0  # atno 11005 bound_to 11000
  146.0362  139.3379  143.0725 LP  0  0  0  0  0  0  0  0  0  0  0  0  # atno 17320 bound_to 7965
  145.8392  140.9590  143.0808 LP  0  0  0  0  0  0  0  0  0  0  0  0  # atno 17321 bound_to 7965
  139.6624  144.0165  152.2701 LP  0  0  0  0  0  0  0  0  0  0  0  0  # atno 17342 bound_to 10162
  139.9737  144.6476  150.7965 LP  0  0  0  0  0  0  0  0  0  0  0  0  # atno 17343 bound_to 10162
  157.0264  130.5694  149.5337 LP  0  0  0  0  0  0  0  0  0  0  0  0  # atno 17370 bound_to 10713
  156.0171  130.5266  150.8167 LP  0  0  0  0  0  0  0  0  0  0  0  0  # atno 17371 bound_to 10713
  141.1207  133.6614  156.3207 LP  0  0  0  0  0  0  0  0  0  0  0  0  # atno 17394 bound_to 11000
  140.5655  134.5892  157.5444 LP  0  0  0  0  0  0  0  0  0  0  0  0  # atno 17395 bound_to 11000

$$$$
