AV-unprocessed.smi:1783|AV-procd|sdf|7193|dock1
  -GOLD-   22720 8433D 1   1.00000     0.00000
 Structure written by MMmdl.
 30 31  0  0  0  0  0  0  0  0  1 V2000
  150.1199  143.0144  158.2647 O   0  0  0  0  0  0  0  0  0  0  0  0
  151.2894  142.6986  158.0469 C   0  0  0  0  0  0  0  0  0  0  0  0
  151.6874  141.8166  157.1079 N   0  0  0  0  0  0  0  0  0  0  0  0
  150.9209  141.0872  156.1839 C   0  0  0  0  0  0  0  0  0  0  0  0
  149.6561  141.4039  155.8014 C   0  0  0  0  0  0  0  0  0  0  0  0
  148.9228  140.6102  154.8294 C   0  0  0  0  0  0  0  0  0  0  0  0
  147.4779  140.9240  154.4737 C   0  0  0  0  0  0  0  0  0  0  0  0
  147.3653  141.1093  153.1591 F   0  0  0  0  0  0  0  0  0  0  0  0
  146.6653  139.9258  154.8238 F   0  0  0  0  0  0  0  0  0  0  0  0
  147.0648  142.0339  155.0860 F   0  0  0  0  0  0  0  0  0  0  0  0
  149.5602  139.5364  154.3277 C   0  0  0  0  0  0  0  0  0  0  0  0
  150.8685  139.2176  154.6981 N   0  0  0  0  0  0  0  0  0  0  0  0
  151.5974  139.9203  155.5940 C   0  0  0  0  0  0  0  0  0  0  0  0
  152.7451  139.5727  155.8700 O   0  0  0  0  0  0  0  0  0  0  0  0
  152.4189  143.3285  158.8869 C   0  0  1  0  0  0  0  0  0  0  0  0
  152.5072  144.8551  158.7884 C   0  0  0  0  0  0  0  0  0  0  0  0
  151.4494  145.3360  159.7682 C   0  0  0  0  0  0  0  0  0  0  0  0
  151.3014  144.1706  160.7522 C   0  0  0  0  0  0  0  0  0  0  0  0
  152.1708  143.1434  160.2783 O   0  0  0  0  0  0  0  0  0  0  0  0
  151.2837  138.4058  154.2641 H   0  0  0  0  0  0  0  0  0  0  0  0
  152.6757  141.6074  157.0914 H   0  0  0  0  0  0  0  0  0  0  0  0
  149.1591  142.2758  156.1936 H   0  0  0  0  0  0  0  0  0  0  0  0
  149.1244  138.8450  153.6217 H   0  0  0  0  0  0  0  0  0  0  0  0
  153.3616  142.8579  158.6063 H   0  0  0  0  0  0  0  0  0  0  0  0
  153.4930  145.1806  159.1226 H   0  0  0  0  0  0  0  0  0  0  0  0
  152.3599  145.2481  157.7818 H   0  0  0  0  0  0  0  0  0  0  0  0
  151.7413  146.2641  160.2605 H   0  0  0  0  0  0  0  0  0  0  0  0
  150.5041  145.5123  159.2533 H   0  0  0  0  0  0  0  0  0  0  0  0
  151.5773  144.4534  161.7684 H   0  0  0  0  0  0  0  0  0  0  0  0
  150.2731  143.8070  160.7699 H   0  0  0  0  0  0  0  0  0  0  0  0
  1  2  2  0  0  0  0
  2  3  1  0  0  0  0
  2 15  1  0  0  0  0
  3  4  1  0  0  0  0
  3 21  1  0  0  0  0
  4 13  1  0  0  0  0
  4  5  2  0  0  0  0
  5  6  1  0  0  0  0
  5 22  1  0  0  0  0
  6  7  1  0  0  0  0
  6 11  2  0  0  0  0
  7  8  1  0  0  0  0
  7  9  1  0  0  0  0
  7 10  1  0  0  0  0
 11 12  1  0  0  0  0
 11 23  1  0  0  0  0
 12 20  1  0  0  0  0
 12 13  1  0  0  0  0
 13 14  2  0  0  0  0
 15 19  1  0  0  0  0
 15 16  1  0  0  0  0
 15 24  1  0  0  0  0
 16 17  1  0  0  0  0
 16 25  1  0  0  0  0
 16 26  1  0  0  0  0
 17 18  1  0  0  0  0
 17 27  1  0  0  0  0
 17 28  1  0  0  0  0
 18 19  1  0  0  0  0
 18 29  1  0  0  0  0
 18 30  1  0  0  0  0
M  END
> <s_m_source_file>
AV-unprocessed.smi

> <i_m_source_file_index>
1783

> <i_lp_mmshare_version>
43012

> <i_f3d_flags>
0

> <s_epik_input>
TzFbQ0gyXVtDSDJdW0NIMl1bQ0BIXTFDKD1PKVtOSF1jMltjSF1jKEMoRikoRilGKVtjSF1bbkhdYzI9Tw==

> <s_epik_cmdline>
J2VwaWtfcHl0aG9uJywgJy1waCcsICc3LjAnLCAnLXRuJywgJzgnLCAnLW1hJywgJzIwMCcsICctbWV0YWxfYmluZGluZycsICctaW1hZScsICc8aW5maWxlLm1hZT4nLCAnLW9tYWUnLCAnPG91dGZpbGUubWFlPic=

> <r_lp_tautomer_probability>
0.999

> <r_epik_Ionization_Penalty>
0.00885957

> <r_epik_Ionization_Penalty_Charging>
0.00885947

> <r_epik_Ionization_Penalty_Neutral>
9.33956e-08

> <r_epik_State_Penalty>
0.00669851

> <r_epik_Charging_Adjusted_Penalty>
0.015558

> <i_epik_Tot_Q>
0

> <i_epik_Tot_abs_Q>
0

> <r_epik_Metal_State_Penalty>
0.320804

> <b_epik_Metal_Only>
0

> <s_lp_Force_Field>
OPLS_2005

> <r_lp_Energy>
32.0123

> <b_lp_Chiralities_Consistent>
1

> <s_lp_Variant>
AV-unprocessed.smi:1783-2

> <Gold.Version>
5.8.1

> <Gold.Id.Protein>
6NUR|6NUR_protein|mol2

> <Gold.PLP.Fitness>
41.7713

> <Gold.PLP.PLP>
-38.5474

> <Gold.PLP.part.hbond>
-1.0000

> <Gold.PLP.part.metal>
0.0000

> <Gold.PLP.part.buried>
-3.4693

> <Gold.PLP.part.nonpolar>
-34.0380

> <Gold.PLP.part.repulsive>
0.3750

> <Gold.PLP.ligand.clash>
0.0000

> <Gold.PLP.ligand.torsion>
0.1405

> <Gold.PLP.Chemscore.Hbond>
1.0000

> <Gold.PLP.Chemscore.CHOScore>
0.1438

> <Gold.PLP.Chemscore.Metal>
0.0000

> <Gold.Chemscore.Hbonds>
donor molecule, donor type, donor heavy atom, donor atom, acceptor molecule, acceptor atom, score
      P1  H  7997  8010       L1    14  1.00
      L1  C    11    23       P1  7957  0.19

> <Gold.PLP.Chemscore.Internal.Correction>
0.0735

> <Gold.Rescore>
     Score         DG    S(hbond)    S(metal)    S(lipo)     H(rot)  DE(clash)    DE(int)     intcor
     12.31     -15.46       1.00        0.00      78.67       1.00       0.10       3.06       ----

> <Gold.Chemscore.Fitness>
12.3075

> <Gold.Chemscore.DG>
-15.4648

> <Gold.Chemscore.ZeroCoef>
-5.4800

> <Gold.Chemscore.Hbond>
1.0000

> <Gold.Chemscore.Metal>
0.0000

> <Gold.Chemscore.Lipo>
78.6742

> <Gold.Chemscore.Internal_Hbond>
0.0000

> <Gold.Chemscore.DEClash>
0.1007

> <Gold.Chemscore.DEInternal>
3.0566

> <Gold.Chemscore.Rot>
1.0000

> <Gold.Chemscore.Internal.Correction>
   9.000000E+99

> <Gold.Chemscore.Hbonds>
donor molecule, donor type, donor heavy atom, donor atom, acceptor molecule, acceptor atom, score
      P1  H  7997  8010       L1    14  1.00

> <Gold.Chemscore.Hbond.Weighted>
-3.3399

> <Gold.Chemscore.Metal.Weighted>
-0.0000

> <Gold.Chemscore.Lipo.Weighted>
-9.2049

> <Gold.Chemscore.Internal_Hbond.Weighted>
0.0000

> <Gold.Chemscore.DEClash.Weighted>
0.1007

> <Gold.Chemscore.DEInternal.Weighted>
3.0566

> <Gold.Chemscore.Rot.Weighted>
2.5600

> <Gold.Chemscore.Internal.Correction.Weighted>
   9.000000E+99

> <Gold.Protein.RotatedTorsions>
[ 6907 6896 6895 6894 ] final  109.22 input  -60.11 | X-H torsion
[ 7974 7965 7964 7962 ] final  136.30 input  175.53 | X-H torsion
[ 8008 7997 7996 7995 ] final   74.86 input   59.86 | X-H torsion
[ 10167 10162 10161 10158 ] final  -22.55 input  -65.29 | X-H torsion
[ 10718 10713 10712 10709 ] final   48.39 input   66.30 | X-H torsion
[ 10763 10752 10751 10750 ] final  136.20 input  -60.55 | X-H torsion
[ 11005 11000 10999 10996 ] final  132.13 input  -57.11 | X-H torsion

> <Gold.Protein.ActiveResidues>
 VAL166  LYS551  ARG553  GLY616  TRP617  ASP618  TYR619  PRO620  LYS621  CYS622 
 ASP623  PHE694  ASN695  SER759  ASP760  ASP761  ALA762  ILE779  LEU786  VAL792 
 PHE793  MET794  SER795  GLU796  ALA797  LYS798  CYS799  TRP800  GLU811  SER814 

> <Gold.Protein.RotatedAtoms>
  152.5077  133.8976  159.7424 H   0  0  0  0  0  0  0  0  0  0  0  0  # atno 6907 bound_to 6896
  150.9400  133.6659  159.2799 H   0  0  0  0  0  0  0  0  0  0  0  0  # atno 6908 bound_to 6896
  151.3974  135.0970  159.9598 H   0  0  0  0  0  0  0  0  0  0  0  0  # atno 6909 bound_to 6896
  144.9578  139.4744  143.5494 H   0  0  0  0  0  0  0  0  0  0  0  0  # atno 7974 bound_to 7965
  155.8045  140.3475  155.5422 H   0  0  0  0  0  0  0  0  0  0  0  0  # atno 8008 bound_to 7997
  155.8504  140.0955  157.1699 H   0  0  0  0  0  0  0  0  0  0  0  0  # atno 8009 bound_to 7997
  154.4007  140.1377  156.3824 H   0  0  0  0  0  0  0  0  0  0  0  0  # atno 8010 bound_to 7997
  140.7286  143.4524  151.0497 H   0  0  0  0  0  0  0  0  0  0  0  0  # atno 10167 bound_to 10162
  157.4681  130.8238  149.7958 H   0  0  0  0  0  0  0  0  0  0  0  0  # atno 10718 bound_to 10713
  153.8526  135.3077  155.3433 H   0  0  0  0  0  0  0  0  0  0  0  0  # atno 10763 bound_to 10752
  154.7884  135.4796  154.0001 H   0  0  0  0  0  0  0  0  0  0  0  0  # atno 10764 bound_to 10752
  153.1509  135.6843  153.8977 H   0  0  0  0  0  0  0  0  0  0  0  0  # atno 10765 bound_to 10752
  139.9771  134.9560  156.9537 H   0  0  0  0  0  0  0  0  0  0  0  0  # atno 11005 bound_to 11000
  146.3343  139.8708  142.8840 LP  0  0  0  0  0  0  0  0  0  0  0  0  # atno 17320 bound_to 7965
  145.2745  141.0119  143.3753 LP  0  0  0  0  0  0  0  0  0  0  0  0  # atno 17321 bound_to 7965
  139.8202  143.7831  152.3176 LP  0  0  0  0  0  0  0  0  0  0  0  0  # atno 17342 bound_to 10162
  139.7911  144.7410  150.9954 LP  0  0  0  0  0  0  0  0  0  0  0  0  # atno 17343 bound_to 10162
  156.0060  130.3855  150.2429 LP  0  0  0  0  0  0  0  0  0  0  0  0  # atno 17370 bound_to 10713
  157.0611  131.0090  151.3222 LP  0  0  0  0  0  0  0  0  0  0  0  0  # atno 17371 bound_to 10713
  140.5172  134.0944  155.7283 LP  0  0  0  0  0  0  0  0  0  0  0  0  # atno 17394 bound_to 11000
  141.1447  133.9076  157.2243 LP  0  0  0  0  0  0  0  0  0  0  0  0  # atno 17395 bound_to 11000

$$$$
