AV-unprocessed.smi:3046|AV-procd|sdf|11615|dock10
  -GOLD-   2272016593D 1   1.00000     0.00000
 Structure written by MMmdl.
 38 38  0  0  0  0  0  0  0  0  2 V2000
  146.4281  133.7572  150.5776 C   0  0  0  0  0  0  0  0  0  0  0  0
  145.7844  134.6192  151.3787 C   0  0  0  0  0  0  0  0  0  0  0  0
  145.6258  136.0999  151.0946 C   0  0  0  0  0  0  0  0  0  0  0  0
  146.2018  136.9114  152.1599 N   0  0  0  0  0  0  0  0  0  0  0  0
  146.7967  138.1022  151.9879 C   0  0  0  0  0  0  0  0  0  0  0  0
  146.9026  138.6523  150.8910 O   0  0  0  0  0  0  0  0  0  0  0  0
  147.3553  138.7747  153.2488 C   0  0  2  0  0  0  0  0  0  0  0  0
  146.9458  140.2553  153.2769 C   0  0  0  0  0  0  0  0  0  0  0  0
  148.8321  138.6704  153.3136 N   0  3  0  0  0  0  0  0  0  0  0  0
  149.4692  139.0087  154.6105 C   0  0  1  0  0  0  0  0  0  0  0  0
  150.8768  138.3990  154.7249 C   0  0  0  0  0  0  0  0  0  0  0  0
  149.5236  140.5392  154.7860 C   0  0  0  0  0  0  0  0  0  0  0  0
  150.0795  140.9279  156.0705 N   0  0  0  0  0  0  0  0  0  0  0  0
  150.2823  142.1986  156.5669 C   0  0  0  0  0  0  0  0  0  0  0  0
  150.8362  142.0660  157.8080 C   0  0  0  0  0  0  0  0  0  0  0  0
  150.9335  140.6577  157.9870 C   0  0  0  0  0  0  0  0  0  0  0  0
  150.4822  139.9793  156.9441 N   0  0  0  0  0  0  0  0  0  0  0  0
  146.8818  134.0809  149.6521 H   0  0  0  0  0  0  0  0  0  0  0  0
  146.5097  132.7123  150.8393 H   0  0  0  0  0  0  0  0  0  0  0  0
  145.3483  134.2560  152.2983 H   0  0  0  0  0  0  0  0  0  0  0  0
  146.0967  136.3351  150.1388 H   0  0  0  0  0  0  0  0  0  0  0  0
  144.5692  136.3505  150.9959 H   0  0  0  0  0  0  0  0  0  0  0  0
  146.1495  136.5347  153.0955 H   0  0  0  0  0  0  0  0  0  0  0  0
  146.9240  138.2934  154.1281 H   0  0  0  0  0  0  0  0  0  0  0  0
  145.8612  140.3692  153.2550 H   0  0  0  0  0  0  0  0  0  0  0  0
  147.3551  140.8014  152.4258 H   0  0  0  0  0  0  0  0  0  0  0  0
  147.3049  140.7414  154.1847 H   0  0  0  0  0  0  0  0  0  0  0  0
  149.1139  137.7448  153.0224 H   0  0  0  0  0  0  0  0  0  0  0  0
  148.8536  138.6074  155.4170 H   0  0  0  0  0  0  0  0  0  0  0  0
  151.3577  138.6984  155.6566 H   0  0  0  0  0  0  0  0  0  0  0  0
  151.5177  138.7216  153.9033 H   0  0  0  0  0  0  0  0  0  0  0  0
  150.8470  137.3098  154.7199 H   0  0  0  0  0  0  0  0  0  0  0  0
  150.1441  140.9843  154.0071 H   0  0  0  0  0  0  0  0  0  0  0  0
  148.5301  140.9785  154.6792 H   0  0  0  0  0  0  0  0  0  0  0  0
  150.0205  143.0816  156.0022 H   0  0  0  0  0  0  0  0  0  0  0  0
  151.1266  142.8550  158.4860 H   0  0  0  0  0  0  0  0  0  0  0  0
  151.3173  140.1122  158.8364 H   0  0  0  0  0  0  0  0  0  0  0  0
  149.1960  139.3329  152.6430 H   0  0  0  0  0  0  0  0  0  0  0  0
  1  2  2  0  0  0  0
  1 18  1  0  0  0  0
  1 19  1  0  0  0  0
  2  3  1  0  0  0  0
  2 20  1  0  0  0  0
  3  4  1  0  0  0  0
  3 21  1  0  0  0  0
  3 22  1  0  0  0  0
  4  5  1  0  0  0  0
  4 23  1  0  0  0  0
  5  6  2  0  0  0  0
  5  7  1  0  0  0  0
  7  8  1  0  0  0  0
  7  9  1  0  0  0  0
  7 24  1  0  0  0  0
  8 25  1  0  0  0  0
  8 26  1  0  0  0  0
  8 27  1  0  0  0  0
  9 10  1  0  0  0  0
  9 28  1  0  0  0  0
  9 38  1  0  0  0  0
 10 11  1  0  0  0  0
 10 12  1  0  0  0  0
 10 29  1  0  0  0  0
 11 30  1  0  0  0  0
 11 31  1  0  0  0  0
 11 32  1  0  0  0  0
 12 13  1  0  0  0  0
 12 33  1  0  0  0  0
 12 34  1  0  0  0  0
 13 17  1  0  0  0  0
 13 14  1  0  0  0  0
 14 15  2  0  0  0  0
 14 35  1  0  0  0  0
 15 16  1  0  0  0  0
 15 36  1  0  0  0  0
 16 17  2  0  0  0  0
 16 37  1  0  0  0  0
M  CHG  1   9   1
M  END
> <s_m_source_file>
AV-unprocessed.smi

> <i_m_source_file_index>
3046

> <i_lp_mmshare_version>
43012

> <i_f3d_flags>
0

> <s_epik_input>
W0NIMl09W0NIXVtDSDJdW05IXUMoPU8pW0NASF0oW0NIM10pW05IXVtDQEhdKFtDSDNdKVtDSDJdbjFbY0hdW2NIXVtjSF1uMQ==

> <s_epik_cmdline>
J2VwaWtfcHl0aG9uJywgJy1waCcsICc3LjAnLCAnLXRuJywgJzgnLCAnLW1hJywgJzIwMCcsICctbWV0YWxfYmluZGluZycsICctaW1hZScsICc8aW5maWxlLm1hZT4nLCAnLW9tYWUnLCAnPG91dGZpbGUubWFlPic=

> <r_lp_tautomer_probability>
1

> <r_epik_Ionization_Penalty>
0.132961

> <r_epik_Ionization_Penalty_Charging>
0.132956

> <r_epik_Ionization_Penalty_Neutral>
5.00268e-06

> <r_epik_State_Penalty>
0.122332

> <r_epik_Charging_Adjusted_Penalty>
0.255288

> <i_epik_Tot_Q>
1

> <i_epik_Tot_abs_Q>
1

> <r_epik_Metal_State_Penalty>
0.122338

> <b_epik_Metal_Only>
0

> <s_lp_Force_Field>
OPLS_2005

> <r_lp_Energy>
6.26821

> <b_lp_Chiralities_Consistent>
1

> <s_lp_Variant>
AV-unprocessed.smi:3046-3

> <Gold.Version>
5.8.1

> <Gold.Id.Protein>
6NUR|6NUR_protein|mol2

> <Gold.PLP.Fitness>
48.1062

> <Gold.PLP.PLP>
-34.6026

> <Gold.PLP.part.hbond>
-4.0000

> <Gold.PLP.part.metal>
0.0000

> <Gold.PLP.part.buried>
-2.6110

> <Gold.PLP.part.nonpolar>
-30.0053

> <Gold.PLP.part.repulsive>
0.8753

> <Gold.PLP.ligand.clash>
0.0000

> <Gold.PLP.ligand.torsion>
0.7891

> <Gold.PLP.Chemscore.Hbond>
3.9760

> <Gold.PLP.Chemscore.CHOScore>
1.0000

> <Gold.PLP.Chemscore.Metal>
0.0000

> <Gold.Chemscore.Hbonds>
donor molecule, donor type, donor heavy atom, donor atom, acceptor molecule, acceptor atom, score
      L1  H     9    28       P1  7948  2.00
      L1  H     9    38       P1  7957  1.00
      P1  H  7954  7966       L1     6  0.93
      L1  C    14    35       P1  8028  0.97

> <Gold.PLP.Chemscore.Internal.Correction>
0.1538

> <Gold.Rescore>
     Score         DG    S(hbond)    S(metal)    S(lipo)     H(rot)  DE(clash)    DE(int)     intcor
     14.91     -17.69       2.94        0.00      69.84       2.26       0.85       1.93       ----

> <Gold.Chemscore.Fitness>
14.9128

> <Gold.Chemscore.DG>
-17.6866

> <Gold.Chemscore.ZeroCoef>
-5.4800

> <Gold.Chemscore.Hbond>
2.9423

> <Gold.Chemscore.Metal>
0.0000

> <Gold.Chemscore.Lipo>
69.8420

> <Gold.Chemscore.Internal_Hbond>
0.0000

> <Gold.Chemscore.DEClash>
0.8481

> <Gold.Chemscore.DEInternal>
1.9257

> <Gold.Chemscore.Rot>
2.2626

> <Gold.Chemscore.Internal.Correction>
   9.000000E+99

> <Gold.Chemscore.Hbonds>
donor molecule, donor type, donor heavy atom, donor atom, acceptor molecule, acceptor atom, score
      L1  H     9    28       P1  7948  0.95
      L1  H     9    38       P1  7957  1.00
      P1  H  7954  7966       L1     6  0.74

> <Gold.Chemscore.Hbond.Weighted>
-9.8273

> <Gold.Chemscore.Metal.Weighted>
-0.0000

> <Gold.Chemscore.Lipo.Weighted>
-8.1715

> <Gold.Chemscore.Internal_Hbond.Weighted>
0.0000

> <Gold.Chemscore.DEClash.Weighted>
0.8481

> <Gold.Chemscore.DEInternal.Weighted>
1.9257

> <Gold.Chemscore.Rot.Weighted>
5.7922

> <Gold.Chemscore.Internal.Correction.Weighted>
   9.000000E+99

> <Gold.Protein.RotatedTorsions>
[ 6907 6896 6895 6894 ] final  161.52 input  -60.11 | X-H torsion
[ 7974 7965 7964 7962 ] final -115.30 input  175.53 | X-H torsion
[ 8008 7997 7996 7995 ] final -178.93 input   59.86 | X-H torsion
[ 10167 10162 10161 10158 ] final  137.69 input  -65.29 | X-H torsion
[ 10718 10713 10712 10709 ] final  -73.11 input   66.30 | X-H torsion
[ 10763 10752 10751 10750 ] final -175.39 input  -60.55 | X-H torsion
[ 11005 11000 10999 10996 ] final  -20.79 input  -57.11 | X-H torsion

> <Gold.Protein.ActiveResidues>
 VAL166  LYS551  ARG553  GLY616  TRP617  ASP618  TYR619  PRO620  LYS621  CYS622 
 ASP623  PHE694  ASN695  SER759  ASP760  ASP761  ALA762  ILE779  LEU786  VAL792 
 PHE793  MET794  SER795  GLU796  ALA797  LYS798  CYS799  TRP800  GLU811  SER814 

> <Gold.Protein.RotatedAtoms>
  151.9543  133.3675  159.4011 H   0  0  0  0  0  0  0  0  0  0  0  0  # atno 6907 bound_to 6896
  150.6975  134.4307  159.5256 H   0  0  0  0  0  0  0  0  0  0  0  0  # atno 6908 bound_to 6896
  152.1986  134.8608  160.0561 H   0  0  0  0  0  0  0  0  0  0  0  0  # atno 6909 bound_to 6896
  145.1100  140.8605  143.3875 H   0  0  0  0  0  0  0  0  0  0  0  0  # atno 7974 bound_to 7965
  156.0246  140.1268  157.0322 H   0  0  0  0  0  0  0  0  0  0  0  0  # atno 8008 bound_to 7997
  154.4325  140.1062  156.6083 H   0  0  0  0  0  0  0  0  0  0  0  0  # atno 8009 bound_to 7997
  155.5895  140.3469  155.4564 H   0  0  0  0  0  0  0  0  0  0  0  0  # atno 8010 bound_to 7997
  139.5135  144.6395  151.5606 H   0  0  0  0  0  0  0  0  0  0  0  0  # atno 10167 bound_to 10162
  156.0293  130.4387  150.2694 H   0  0  0  0  0  0  0  0  0  0  0  0  # atno 10718 bound_to 10713
  154.5849  135.2839  155.0695 H   0  0  0  0  0  0  0  0  0  0  0  0  # atno 10763 bound_to 10752
  154.2017  135.6423  153.5093 H   0  0  0  0  0  0  0  0  0  0  0  0  # atno 10764 bound_to 10752
  153.0101  135.5470  154.6515 H   0  0  0  0  0  0  0  0  0  0  0  0  # atno 10765 bound_to 10752
  140.8499  133.7864  155.9954 H   0  0  0  0  0  0  0  0  0  0  0  0  # atno 11005 bound_to 11000
  145.0858  139.2926  143.5760 LP  0  0  0  0  0  0  0  0  0  0  0  0  # atno 17320 bound_to 7965
  146.3526  140.0379  142.8645 LP  0  0  0  0  0  0  0  0  0  0  0  0  # atno 17321 bound_to 7965
  140.6157  143.9353  150.6487 LP  0  0  0  0  0  0  0  0  0  0  0  0  # atno 17342 bound_to 10162
  140.2610  143.3524  152.1322 LP  0  0  0  0  0  0  0  0  0  0  0  0  # atno 17343 bound_to 10162
  157.0797  131.0140  151.3161 LP  0  0  0  0  0  0  0  0  0  0  0  0  # atno 17370 bound_to 10713
  157.4937  130.7837  149.7533 LP  0  0  0  0  0  0  0  0  0  0  0  0  # atno 17371 bound_to 10713
  140.8802  134.2621  157.5148 LP  0  0  0  0  0  0  0  0  0  0  0  0  # atno 17394 bound_to 11000
  139.8704  134.9611  156.4386 LP  0  0  0  0  0  0  0  0  0  0  0  0  # atno 17395 bound_to 11000

$$$$
