AV-unprocessed.smi:1093|AV-procd|sdf|4744|dock3
  -GOLD-   22720 3283D 1   1.00000     0.00000
 Structure written by MMmdl.
 47 48  0  0  0  0  0  0  0  0  2 V2000
  145.3075  131.2168  151.7781 C   0  0  0  0  0  0  0  0  0  0  0  0
  146.5153  132.1449  151.9714 C   0  0  0  0  0  0  0  0  0  0  0  0
  146.1289  133.5775  151.9806 N   0  3  1  0  0  0  0  0  0  0  0  0
  145.3547  133.9657  150.7729 C   0  0  0  0  0  0  0  0  0  0  0  0
  145.1036  135.4836  150.7360 C   0  0  0  0  0  0  0  0  0  0  0  0
  144.4278  135.9736  152.0279 C   0  0  0  0  0  0  0  0  0  0  0  0
  145.2150  135.5179  153.2695 C   0  0  2  0  0  0  0  0  0  0  0  0
  146.4881  136.2360  153.3443 N   0  0  0  0  0  0  0  0  0  0  0  0
  146.8587  137.0568  154.3376 C   0  0  0  0  0  0  0  0  0  0  0  0
  146.1562  137.2890  155.3209 O   0  0  0  0  0  0  0  0  0  0  0  0
  148.0878  137.5554  154.1230 N   0  0  0  0  0  0  0  0  0  0  0  0
  148.8344  138.4441  154.9422 C   0  0  0  0  0  0  0  0  0  0  0  0
  148.6666  138.5718  156.3401 C   0  0  0  0  0  0  0  0  0  0  0  0
  149.4561  139.5036  157.0408 C   0  0  0  0  0  0  0  0  0  0  0  0
  150.3926  140.2953  156.3306 C   0  0  0  0  0  0  0  0  0  0  0  0
  151.2096  141.2424  156.9895 N   0  0  0  0  0  0  0  0  0  0  0  0
  151.0360  142.6655  156.7169 C   0  0  0  0  0  0  0  0  0  0  0  0
  152.1695  140.8080  157.9969 C   0  0  0  0  0  0  0  0  0  0  0  0
  150.5379  140.1764  154.9881 N   0  0  0  0  0  0  0  0  0  0  0  0
  149.7782  139.2842  154.3204 C   0  0  0  0  0  0  0  0  0  0  0  0
  145.4218  133.9878  153.2229 C   0  0  0  0  0  0  0  0  0  0  0  0
  145.6107  130.1729  151.8589 H   0  0  0  0  0  0  0  0  0  0  0  0
  144.8429  131.3423  150.8004 H   0  0  0  0  0  0  0  0  0  0  0  0
  144.5463  131.3980  152.5373 H   0  0  0  0  0  0  0  0  0  0  0  0
  146.9768  131.8904  152.9265 H   0  0  0  0  0  0  0  0  0  0  0  0
  147.2704  131.9639  151.2051 H   0  0  0  0  0  0  0  0  0  0  0  0
  145.8986  133.6735  149.8739 H   0  0  0  0  0  0  0  0  0  0  0  0
  144.4063  133.4263  150.7595 H   0  0  0  0  0  0  0  0  0  0  0  0
  146.0505  136.0056  150.5937 H   0  0  0  0  0  0  0  0  0  0  0  0
  144.4842  135.7365  149.8749 H   0  0  0  0  0  0  0  0  0  0  0  0
  144.3259  137.0594  152.0142 H   0  0  0  0  0  0  0  0  0  0  0  0
  143.4146  135.5725  152.0772 H   0  0  0  0  0  0  0  0  0  0  0  0
  144.6316  135.7708  154.1566 H   0  0  0  0  0  0  0  0  0  0  0  0
  147.1273  136.1088  152.5731 H   0  0  0  0  0  0  0  0  0  0  0  0
  148.5735  137.2108  153.3079 H   0  0  0  0  0  0  0  0  0  0  0  0
  147.9423  137.9875  156.8861 H   0  0  0  0  0  0  0  0  0  0  0  0
  149.3241  139.5938  158.1082 H   0  0  0  0  0  0  0  0  0  0  0  0
  150.0294  142.9863  156.9873 H   0  0  0  0  0  0  0  0  0  0  0  0
  151.1947  142.8751  155.6587 H   0  0  0  0  0  0  0  0  0  0  0  0
  151.7434  143.2696  157.2849 H   0  0  0  0  0  0  0  0  0  0  0  0
  152.9073  140.1352  157.5589 H   0  0  0  0  0  0  0  0  0  0  0  0
  151.6627  140.2895  158.8112 H   0  0  0  0  0  0  0  0  0  0  0  0
  152.7057  141.6549  158.4250 H   0  0  0  0  0  0  0  0  0  0  0  0
  149.9361  139.2363  153.2529 H   0  0  0  0  0  0  0  0  0  0  0  0
  144.4566  133.4810  153.2718 H   0  0  0  0  0  0  0  0  0  0  0  0
  145.9762  133.6650  154.1030 H   0  0  0  0  0  0  0  0  0  0  0  0
  146.9905  134.1034  151.9455 H   0  0  0  0  0  0  0  0  0  0  0  0
  1  2  1  0  0  0  0
  1 22  1  0  0  0  0
  1 23  1  0  0  0  0
  1 24  1  0  0  0  0
  2  3  1  0  0  0  0
  2 25  1  0  0  0  0
  2 26  1  0  0  0  0
  3 21  1  0  0  0  0
  3  4  1  0  0  0  0
  3 47  1  0  0  0  0
  4  5  1  0  0  0  0
  4 27  1  0  0  0  0
  4 28  1  0  0  0  0
  5  6  1  0  0  0  0
  5 29  1  0  0  0  0
  5 30  1  0  0  0  0
  6  7  1  0  0  0  0
  6 31  1  0  0  0  0
  6 32  1  0  0  0  0
  7  8  1  0  0  0  0
  7 21  1  0  0  0  0
  7 33  1  0  0  0  0
  8  9  1  0  0  0  0
  8 34  1  0  0  0  0
  9 10  2  0  0  0  0
  9 11  1  0  0  0  0
 11 12  1  0  0  0  0
 11 35  1  0  0  0  0
 12 20  1  0  0  0  0
 12 13  2  0  0  0  0
 13 14  1  0  0  0  0
 13 36  1  0  0  0  0
 14 15  2  0  0  0  0
 14 37  1  0  0  0  0
 15 16  1  0  0  0  0
 15 19  1  0  0  0  0
 16 17  1  0  0  0  0
 16 18  1  0  0  0  0
 17 38  1  0  0  0  0
 17 39  1  0  0  0  0
 17 40  1  0  0  0  0
 18 41  1  0  0  0  0
 18 42  1  0  0  0  0
 18 43  1  0  0  0  0
 19 20  2  0  0  0  0
 20 44  1  0  0  0  0
 21 45  1  0  0  0  0
 21 46  1  0  0  0  0
M  CHG  1   3   1
M  END
> <s_m_source_file>
AV-unprocessed.smi

> <i_m_source_file_index>
1093

> <i_lp_mmshare_version>
43012

> <i_f3d_flags>
0

> <s_epik_input>
W0NIM11bQ0gyXU4xW0NIMl1bQ0gyXVtDSDJdW0NASF0oW0NIMl0xKVtOSF1DKD1PKVtOSF1jMltjSF1bY0hdYyhOKFtDSDNdKVtDSDNdKW5bY0hdMg==

> <s_epik_cmdline>
J2VwaWtfcHl0aG9uJywgJy1waCcsICc3LjAnLCAnLXRuJywgJzgnLCAnLW1hJywgJzIwMCcsICctbWV0YWxfYmluZGluZycsICctaW1hZScsICc8aW5maWxlLm1hZT4nLCAnLW9tYWUnLCAnPG91dGZpbGUubWFlPic=

> <r_lp_tautomer_probability>
1

> <r_epik_Ionization_Penalty>
0.489418

> <r_epik_Ionization_Penalty_Charging>
0.00268196

> <r_epik_Ionization_Penalty_Neutral>
0.486736

> <r_epik_State_Penalty>
0.491157

> <r_epik_Charging_Adjusted_Penalty>
0.493839

> <i_epik_Tot_Q>
1

> <i_epik_Tot_abs_Q>
1

> <r_epik_Metal_State_Penalty>
0.266953

> <b_epik_Metal_Only>
0

> <s_lp_Force_Field>
OPLS_2005

> <r_lp_Energy>
27.6013

> <b_lp_Chiralities_Consistent>
1

> <s_lp_Variant>
AV-unprocessed.smi:1093-7

> <Gold.Version>
5.8.1

> <Gold.Id.Protein>
6NUR|6NUR_protein|mol2

> <Gold.PLP.Fitness>
37.4607

> <Gold.PLP.PLP>
-28.2750

> <Gold.PLP.part.hbond>
-3.0000

> <Gold.PLP.part.metal>
0.0000

> <Gold.PLP.part.buried>
-4.6647

> <Gold.PLP.part.nonpolar>
-21.4592

> <Gold.PLP.part.repulsive>
0.0898

> <Gold.PLP.ligand.clash>
0.0000

> <Gold.PLP.ligand.torsion>
1.4159

> <Gold.PLP.Chemscore.Hbond>
2.9920

> <Gold.PLP.Chemscore.CHOScore>
1.0000

> <Gold.PLP.Chemscore.Metal>
0.0000

> <Gold.Chemscore.Hbonds>
donor molecule, donor type, donor heavy atom, donor atom, acceptor molecule, acceptor atom, score
      L1  H     8    34       P1  7948  1.00
      L1  H    11    35       P1  7948  1.00
      P1  H  7989  7998       L1    19  1.00
      L1  C    20    44       P1  7957  1.00

> <Gold.PLP.Chemscore.Internal.Correction>
0.0414

> <Gold.Rescore>
     Score         DG    S(hbond)    S(metal)    S(lipo)     H(rot)  DE(clash)    DE(int)     intcor
     15.99     -18.76       2.48        0.00      68.58       1.18       0.29       2.48       ----

> <Gold.Chemscore.Fitness>
15.9887

> <Gold.Chemscore.DG>
-18.7564

> <Gold.Chemscore.ZeroCoef>
-5.4800

> <Gold.Chemscore.Hbond>
2.4804

> <Gold.Chemscore.Metal>
0.0000

> <Gold.Chemscore.Lipo>
68.5781

> <Gold.Chemscore.Internal_Hbond>
0.0000

> <Gold.Chemscore.DEClash>
0.2879

> <Gold.Chemscore.DEInternal>
2.4798

> <Gold.Chemscore.Rot>
1.1842

> <Gold.Chemscore.Internal.Correction>
   9.000000E+99

> <Gold.Chemscore.Hbonds>
donor molecule, donor type, donor heavy atom, donor atom, acceptor molecule, acceptor atom, score
      L1  H     8    34       P1  7948  0.93
      L1  H    11    35       P1  7948  1.00
      P1  H  7989  7998       L1    19  0.25

> <Gold.Chemscore.Hbond.Weighted>
-8.2844

> <Gold.Chemscore.Metal.Weighted>
-0.0000

> <Gold.Chemscore.Lipo.Weighted>
-8.0236

> <Gold.Chemscore.Internal_Hbond.Weighted>
0.0000

> <Gold.Chemscore.DEClash.Weighted>
0.2879

> <Gold.Chemscore.DEInternal.Weighted>
2.4798

> <Gold.Chemscore.Rot.Weighted>
3.0317

> <Gold.Chemscore.Internal.Correction.Weighted>
   9.000000E+99

> <Gold.Protein.RotatedTorsions>
[ 6907 6896 6895 6894 ] final -107.88 input  -60.11 | X-H torsion
[ 7974 7965 7964 7962 ] final  -96.57 input  175.53 | X-H torsion
[ 8008 7997 7996 7995 ] final  -52.03 input   59.86 | X-H torsion
[ 10167 10162 10161 10158 ] final  125.31 input  -65.29 | X-H torsion
[ 10718 10713 10712 10709 ] final  104.32 input   66.30 | X-H torsion
[ 10763 10752 10751 10750 ] final  168.15 input  -60.55 | X-H torsion
[ 11005 11000 10999 10996 ] final    0.10 input  -57.11 | X-H torsion

> <Gold.Protein.ActiveResidues>
 VAL166  LYS551  ARG553  GLY616  TRP617  ASP618  TYR619  PRO620  LYS621  CYS622 
 ASP623  PHE694  ASN695  SER759  ASP760  ASP761  ALA762  ILE779  LEU786  VAL792 
 PHE793  MET794  SER795  GLU796  ALA797  LYS798  CYS799  TRP800  GLU811  SER814 

> <Gold.Protein.RotatedAtoms>
  150.7469  133.9760  159.3560 H   0  0  0  0  0  0  0  0  0  0  0  0  # atno 6907 bound_to 6896
  151.7697  135.0787  160.0367 H   0  0  0  0  0  0  0  0  0  0  0  0  # atno 6908 bound_to 6896
  152.3347  133.5961  159.5870 H   0  0  0  0  0  0  0  0  0  0  0  0  # atno 6909 bound_to 6896
  145.3451  140.9467  143.2586 H   0  0  0  0  0  0  0  0  0  0  0  0  # atno 7974 bound_to 7965
  154.4097  140.1233  156.4925 H   0  0  0  0  0  0  0  0  0  0  0  0  # atno 8008 bound_to 7997
  155.6976  140.3495  155.4900 H   0  0  0  0  0  0  0  0  0  0  0  0  # atno 8009 bound_to 7997
  155.9414  140.1088  157.1042 H   0  0  0  0  0  0  0  0  0  0  0  0  # atno 8010 bound_to 7997
  139.5692  144.6929  151.3824 H   0  0  0  0  0  0  0  0  0  0  0  0  # atno 10167 bound_to 10162
  157.6744  131.0801  150.5688 H   0  0  0  0  0  0  0  0  0  0  0  0  # atno 10718 bound_to 10713
  154.3643  135.2753  155.2302 H   0  0  0  0  0  0  0  0  0  0  0  0  # atno 10763 bound_to 10752
  154.4477  135.5938  153.6174 H   0  0  0  0  0  0  0  0  0  0  0  0  # atno 10764 bound_to 10752
  152.9841  135.6034  154.3867 H   0  0  0  0  0  0  0  0  0  0  0  0  # atno 10765 bound_to 10752
  140.6303  133.9581  155.8271 H   0  0  0  0  0  0  0  0  0  0  0  0  # atno 11005 bound_to 11000
  144.8760  139.4970  143.6745 LP  0  0  0  0  0  0  0  0  0  0  0  0  # atno 17320 bound_to 7965
  146.2991  139.7371  142.9104 LP  0  0  0  0  0  0  0  0  0  0  0  0  # atno 17321 bound_to 7965
  140.6977  143.7709  150.7352 LP  0  0  0  0  0  0  0  0  0  0  0  0  # atno 17342 bound_to 10162
  140.1210  143.4611  152.2313 LP  0  0  0  0  0  0  0  0  0  0  0  0  # atno 17343 bound_to 10162
  156.5989  130.4349  149.5905 LP  0  0  0  0  0  0  0  0  0  0  0  0  # atno 17370 bound_to 10713
  156.2522  130.6914  151.1655 LP  0  0  0  0  0  0  0  0  0  0  0  0  # atno 17371 bound_to 10713
  141.0680  134.0248  157.3566 LP  0  0  0  0  0  0  0  0  0  0  0  0  # atno 17394 bound_to 11000
  139.9119  135.0191  156.7725 LP  0  0  0  0  0  0  0  0  0  0  0  0  # atno 17395 bound_to 11000

$$$$
