AV-unprocessed.smi:671|AV-procd|sdf|3278|dock3
  -GOLD-   22720 0233D 1   1.00000     0.00000
 Structure written by MMmdl.
 49 50  0  0  0  0  0  0  0  0  1 V2000
  153.7921  136.4259  153.8633 C   0  0  0  0  0  0  0  0  0  0  0  0
  153.4738  135.8807  155.2263 C   0  0  0  0  0  0  0  0  0  0  0  0
  154.2657  136.1952  156.2376 N   0  0  0  0  0  0  0  0  0  0  0  0
  153.7327  135.5657  157.3030 N   0  0  0  0  0  0  0  0  0  0  0  0
  154.3675  135.7023  158.5994 C   0  0  0  0  0  0  0  0  0  0  0  0
  152.6013  134.8499  156.9647 C   0  0  0  0  0  0  0  0  0  0  0  0
  151.8288  134.0629  157.9744 C   0  0  0  0  0  0  0  0  0  0  0  0
  152.4010  135.0259  155.6216 C   0  0  0  0  0  0  0  0  0  0  0  0
  151.3018  134.4515  154.7621 C   0  0  0  0  0  0  0  0  0  0  0  0
  149.8948  134.7919  155.2924 C   0  0  1  0  0  0  0  0  0  0  0  0
  149.8385  136.2150  155.8647 C   0  0  0  0  0  0  0  0  0  0  0  0
  148.9003  134.6705  154.2210 N   0  0  0  0  0  0  0  0  0  0  0  0
  147.8118  133.8832  154.1451 C   0  0  0  0  0  0  0  0  0  0  0  0
  147.5076  133.1175  155.0575 O   0  0  0  0  0  0  0  0  0  0  0  0
  147.0941  134.0075  153.0169 N   0  0  0  0  0  0  0  0  0  0  0  0
  145.8911  133.2387  152.6969 C   0  0  2  0  0  0  0  0  0  0  0  0
  146.1289  132.3287  151.4715 C   0  0  0  0  0  0  0  0  0  0  0  0
  145.1399  132.7769  150.3890 C   0  0  0  0  0  0  0  0  0  0  0  0
  144.7244  134.1907  150.7873 C   0  0  0  0  0  0  0  0  0  0  0  0
  144.7015  134.1463  152.3154 C   0  0  2  0  0  0  0  0  0  0  0  0
  144.6552  135.5311  152.9795 C   0  0  0  0  0  0  0  0  0  0  0  0
  154.6377  135.8985  153.4215 H   0  0  0  0  0  0  0  0  0  0  0  0
  154.0483  137.4848  153.9113 H   0  0  0  0  0  0  0  0  0  0  0  0
  152.9475  136.3239  153.1824 H   0  0  0  0  0  0  0  0  0  0  0  0
  154.4757  134.7215  159.0630 H   0  0  0  0  0  0  0  0  0  0  0  0
  153.7541  136.3350  159.2412 H   0  0  0  0  0  0  0  0  0  0  0  0
  155.3568  136.1507  158.4977 H   0  0  0  0  0  0  0  0  0  0  0  0
  150.9623  133.5793  157.5240 H   0  0  0  0  0  0  0  0  0  0  0  0
  151.4719  134.7084  158.7772 H   0  0  0  0  0  0  0  0  0  0  0  0
  152.4493  133.2843  158.4179 H   0  0  0  0  0  0  0  0  0  0  0  0
  151.3957  134.8272  153.7429 H   0  0  0  0  0  0  0  0  0  0  0  0
  151.4040  133.3699  154.6690 H   0  0  0  0  0  0  0  0  0  0  0  0
  149.6758  134.1177  156.1213 H   0  0  0  0  0  0  0  0  0  0  0  0
  150.5474  136.3375  156.6841 H   0  0  0  0  0  0  0  0  0  0  0  0
  148.8454  136.4419  156.2545 H   0  0  0  0  0  0  0  0  0  0  0  0
  150.0765  136.9599  155.1044 H   0  0  0  0  0  0  0  0  0  0  0  0
  149.0374  135.2974  153.4414 H   0  0  0  0  0  0  0  0  0  0  0  0
  147.4083  134.6714  152.3245 H   0  0  0  0  0  0  0  0  0  0  0  0
  145.6128  132.6412  153.5674 H   0  0  0  0  0  0  0  0  0  0  0  0
  147.1504  132.4233  151.0997 H   0  0  0  0  0  0  0  0  0  0  0  0
  145.9809  131.2778  151.7220 H   0  0  0  0  0  0  0  0  0  0  0  0
  145.5689  132.7347  149.3874 H   0  0  0  0  0  0  0  0  0  0  0  0
  144.2658  132.1242  150.4009 H   0  0  0  0  0  0  0  0  0  0  0  0
  145.4721  134.9066  150.4425 H   0  0  0  0  0  0  0  0  0  0  0  0
  143.7630  134.4788  150.3609 H   0  0  0  0  0  0  0  0  0  0  0  0
  143.7923  133.6168  152.6054 H   0  0  0  0  0  0  0  0  0  0  0  0
  145.4995  136.1507  152.6785 H   0  0  0  0  0  0  0  0  0  0  0  0
  144.6715  135.4400  154.0655 H   0  0  0  0  0  0  0  0  0  0  0  0
  143.7445  136.0644  152.7063 H   0  0  0  0  0  0  0  0  0  0  0  0
  1  2  1  0  0  0  0
  1 22  1  0  0  0  0
  1 23  1  0  0  0  0
  1 24  1  0  0  0  0
  2  8  1  0  0  0  0
  2  3  2  0  0  0  0
  3  4  1  0  0  0  0
  4  5  1  0  0  0  0
  4  6  1  0  0  0  0
  5 25  1  0  0  0  0
  5 26  1  0  0  0  0
  5 27  1  0  0  0  0
  6  7  1  0  0  0  0
  6  8  2  0  0  0  0
  7 28  1  0  0  0  0
  7 29  1  0  0  0  0
  7 30  1  0  0  0  0
  8  9  1  0  0  0  0
  9 10  1  0  0  0  0
  9 31  1  0  0  0  0
  9 32  1  0  0  0  0
 10 11  1  0  0  0  0
 10 12  1  0  0  0  0
 10 33  1  0  0  0  0
 11 34  1  0  0  0  0
 11 35  1  0  0  0  0
 11 36  1  0  0  0  0
 12 13  1  0  0  0  0
 12 37  1  0  0  0  0
 13 14  2  0  0  0  0
 13 15  1  0  0  0  0
 15 16  1  0  0  0  0
 15 38  1  0  0  0  0
 16 20  1  0  0  0  0
 16 17  1  0  0  0  0
 16 39  1  0  0  0  0
 17 18  1  0  0  0  0
 17 40  1  0  0  0  0
 17 41  1  0  0  0  0
 18 19  1  0  0  0  0
 18 42  1  0  0  0  0
 18 43  1  0  0  0  0
 19 20  1  0  0  0  0
 19 44  1  0  0  0  0
 19 45  1  0  0  0  0
 20 21  1  0  0  0  0
 20 46  1  0  0  0  0
 21 47  1  0  0  0  0
 21 48  1  0  0  0  0
 21 49  1  0  0  0  0
M  END
> <s_m_source_file>
AV-unprocessed.smi

> <i_m_source_file_index>
671

> <i_lp_mmshare_version>
43012

> <i_f3d_flags>
0

> <s_epik_input>
W0NIM11jMW5uKFtDSDNdKWMoW0NIM10pYzFbQ0gyXVtDQEhdKFtDSDNdKVtOSF1DKD1PKVtOSF1bQ0BASF0yW0NIMl1bQ0gyXVtDSDJdW0NASF0yW0NIM10=

> <s_epik_cmdline>
J2VwaWtfcHl0aG9uJywgJy1waCcsICc3LjAnLCAnLXRuJywgJzgnLCAnLW1hJywgJzIwMCcsICctbWV0YWxfYmluZGluZycsICctaW1hZScsICc8aW5maWxlLm1hZT4nLCAnLW9tYWUnLCAnPG91dGZpbGUubWFlPic=

> <r_lp_tautomer_probability>
1

> <r_epik_Ionization_Penalty>
0.0126855

> <r_epik_Ionization_Penalty_Charging>
0

> <r_epik_Ionization_Penalty_Neutral>
0.0126855

> <r_epik_State_Penalty>
0.00977547

> <r_epik_Charging_Adjusted_Penalty>
0.00977547

> <i_epik_Tot_Q>
0

> <i_epik_Tot_abs_Q>
0

> <r_epik_Metal_State_Penalty>
0.00957132

> <b_epik_Metal_Only>
0

> <s_lp_Force_Field>
OPLS_2005

> <r_lp_Energy>
22.0359

> <b_lp_Chiralities_Consistent>
1

> <s_lp_Variant>
AV-unprocessed.smi:671-6

> <Gold.Version>
5.8.1

> <Gold.Id.Protein>
6NUR|6NUR_protein|mol2

> <Gold.PLP.Fitness>
36.4790

> <Gold.PLP.PLP>
-28.1913

> <Gold.PLP.part.hbond>
-3.0000

> <Gold.PLP.part.metal>
0.0000

> <Gold.PLP.part.buried>
-3.1226

> <Gold.PLP.part.nonpolar>
-21.9639

> <Gold.PLP.part.repulsive>
0.0359

> <Gold.PLP.ligand.clash>
0.0000

> <Gold.PLP.ligand.torsion>
0.2770

> <Gold.PLP.Chemscore.Hbond>
2.9360

> <Gold.PLP.Chemscore.CHOScore>
0.0000

> <Gold.PLP.Chemscore.Metal>
0.0000

> <Gold.Chemscore.Hbonds>
donor molecule, donor type, donor heavy atom, donor atom, acceptor molecule, acceptor atom, score
      L1  H    12    37       P1  7948  1.00
      L1  H    15    38       P1  7948  0.51

> <Gold.PLP.Chemscore.Internal.Correction>
0.0337

> <Gold.Rescore>
     Score         DG    S(hbond)    S(metal)    S(lipo)     H(rot)  DE(clash)    DE(int)     intcor
     19.22     -19.61       2.86        0.00      70.91       1.45       0.02       0.37       ----

> <Gold.Chemscore.Fitness>
19.2178

> <Gold.Chemscore.DG>
-19.6123

> <Gold.Chemscore.ZeroCoef>
-5.4800

> <Gold.Chemscore.Hbond>
2.8584

> <Gold.Chemscore.Metal>
0.0000

> <Gold.Chemscore.Lipo>
70.9141

> <Gold.Chemscore.Internal_Hbond>
0.0000

> <Gold.Chemscore.DEClash>
0.0226

> <Gold.Chemscore.DEInternal>
0.3719

> <Gold.Chemscore.Rot>
1.4499

> <Gold.Chemscore.Internal.Correction>
   9.000000E+99

> <Gold.Chemscore.Hbonds>
donor molecule, donor type, donor heavy atom, donor atom, acceptor molecule, acceptor atom, score
      L1  H    12    37       P1  7948  0.50
      L1  H    15    38       P1  7948  0.44

> <Gold.Chemscore.Hbond.Weighted>
-9.5472

> <Gold.Chemscore.Metal.Weighted>
-0.0000

> <Gold.Chemscore.Lipo.Weighted>
-8.2970

> <Gold.Chemscore.Internal_Hbond.Weighted>
0.0000

> <Gold.Chemscore.DEClash.Weighted>
0.0226

> <Gold.Chemscore.DEInternal.Weighted>
0.3719

> <Gold.Chemscore.Rot.Weighted>
3.7118

> <Gold.Chemscore.Internal.Correction.Weighted>
   9.000000E+99

> <Gold.Protein.RotatedTorsions>
[ 6907 6896 6895 6894 ] final  -13.38 input  -60.11 | X-H torsion
[ 7974 7965 7964 7962 ] final  110.13 input  175.53 | X-H torsion
[ 8008 7997 7996 7995 ] final   64.44 input   59.86 | X-H torsion
[ 10167 10162 10161 10158 ] final  167.55 input  -65.29 | X-H torsion
[ 10718 10713 10712 10709 ] final   -2.59 input   66.30 | X-H torsion
[ 10763 10752 10751 10750 ] final   13.34 input  -60.55 | X-H torsion
[ 11005 11000 10999 10996 ] final   84.38 input  -57.11 | X-H torsion

> <Gold.Protein.ActiveResidues>
 VAL166  LYS551  ARG553  GLY616  TRP617  ASP618  TYR619  PRO620  LYS621  CYS622 
 ASP623  PHE694  ASN695  SER759  ASP760  ASP761  ALA762  ILE779  LEU786  VAL792 
 PHE793  MET794  SER795  GLU796  ALA797  LYS798  CYS799  TRP800  GLU811  SER814 

> <Gold.Protein.RotatedAtoms>
  151.3559  135.0894  159.9418 H   0  0  0  0  0  0  0  0  0  0  0  0  # atno 6907 bound_to 6896
  152.5175  133.9306  159.7589 H   0  0  0  0  0  0  0  0  0  0  0  0  # atno 6908 bound_to 6896
  150.9691  133.6309  159.2770 H   0  0  0  0  0  0  0  0  0  0  0  0  # atno 6909 bound_to 6896
  145.2589  139.2710  143.4027 H   0  0  0  0  0  0  0  0  0  0  0  0  # atno 7974 bound_to 7965
  155.6461  140.3497  155.4731 H   0  0  0  0  0  0  0  0  0  0  0  0  # atno 8008 bound_to 7997
  155.9886  140.1189  157.0682 H   0  0  0  0  0  0  0  0  0  0  0  0  # atno 8009 bound_to 7997
  154.4212  140.1124  156.5521 H   0  0  0  0  0  0  0  0  0  0  0  0  # atno 8010 bound_to 7997
  139.4948  144.3910  151.9517 H   0  0  0  0  0  0  0  0  0  0  0  0  # atno 10167 bound_to 10162
  156.7885  130.5354  149.5739 H   0  0  0  0  0  0  0  0  0  0  0  0  # atno 10718 bound_to 10713
  153.1731  135.6815  153.8581 H   0  0  0  0  0  0  0  0  0  0  0  0  # atno 10763 bound_to 10752
  153.7938  135.3165  155.3383 H   0  0  0  0  0  0  0  0  0  0  0  0  # atno 10764 bound_to 10752
  154.8011  135.4777  154.0370 H   0  0  0  0  0  0  0  0  0  0  0  0  # atno 10765 bound_to 10752
  139.9002  134.8212  156.2437 H   0  0  0  0  0  0  0  0  0  0  0  0  # atno 11005 bound_to 11000
  146.3281  140.3000  142.8620 LP  0  0  0  0  0  0  0  0  0  0  0  0  # atno 17320 bound_to 7965
  144.9436  140.8105  143.5615 LP  0  0  0  0  0  0  0  0  0  0  0  0  # atno 17321 bound_to 7965
  140.3347  144.3274  150.5979 LP  0  0  0  0  0  0  0  0  0  0  0  0  # atno 17342 bound_to 10162
  140.5615  143.2191  151.7756 LP  0  0  0  0  0  0  0  0  0  0  0  0  # atno 17343 bound_to 10162
  156.1174  130.6085  151.0141 LP  0  0  0  0  0  0  0  0  0  0  0  0  # atno 17370 bound_to 10713
  157.6612  131.0880  150.7834 LP  0  0  0  0  0  0  0  0  0  0  0  0  # atno 17371 bound_to 10713
  141.0269  133.7010  156.1362 LP  0  0  0  0  0  0  0  0  0  0  0  0  # atno 17394 bound_to 11000
  140.7154  134.4417  157.5579 LP  0  0  0  0  0  0  0  0  0  0  0  0  # atno 17395 bound_to 11000

$$$$
