AV-unprocessed.smi:2224|AV-procd|sdf|8991|dock2
  -GOLD-   2272012203D 1   1.00000     0.00000
 Structure written by MMmdl.
 44 46  0  0  0  0  0  0  0  0  1 V2000
  151.0109  130.1481  155.3659 C   0  0  0  0  0  0  0  0  0  0  0  0
  149.9125  130.9059  154.6503 C   0  0  0  0  0  0  0  0  0  0  0  0
  148.8563  130.2242  154.0160 C   0  0  0  0  0  0  0  0  0  0  0  0
  147.8671  130.9886  153.3664 C   0  0  0  0  0  0  0  0  0  0  0  0
  146.7009  130.3221  152.6670 C   0  0  0  0  0  0  0  0  0  0  0  0
  147.8877  132.3382  153.3245 N   0  0  0  0  0  0  0  0  0  0  0  0
  148.9012  133.0047  153.9307 C   0  0  0  0  0  0  0  0  0  0  0  0
  149.0168  134.4198  153.9449 N   0  0  0  0  0  0  0  0  0  0  0  0
  149.4124  135.2121  154.9565 C   0  0  0  0  0  0  0  0  0  0  0  0
  149.7466  134.8268  156.0773 O   0  0  0  0  0  0  0  0  0  0  0  0
  149.3927  136.5021  154.5949 N   0  0  0  0  0  0  0  0  0  0  0  0
  149.7446  137.6128  155.4715 C   0  0  2  0  0  0  0  0  0  0  0  0
  149.4198  138.9707  154.8483 C   0  0  1  0  0  0  0  0  0  0  0  0
  148.4567  140.0605  155.1587 C   0  0  0  0  0  0  0  0  0  0  0  0
  149.4406  141.2549  155.0353 C   0  0  0  0  0  0  0  0  0  0  0  0
  150.7649  140.6727  154.9545 O   0  0  0  0  0  0  0  0  0  0  0  0
  150.6312  139.4391  155.6303 C   0  0  2  0  0  0  0  0  0  0  0  0
  151.2541  138.0528  155.3686 C   0  0  0  0  0  0  0  0  0  0  0  0
  152.1645  137.5292  156.4798 C   0  0  0  0  0  0  0  0  0  0  0  0
  152.0215  137.8472  154.0465 C   0  0  0  0  0  0  0  0  0  0  0  0
  149.9313  132.3143  154.6078 C   0  0  0  0  0  0  0  0  0  0  0  0
  150.8820  129.0702  155.2634 H   0  0  0  0  0  0  0  0  0  0  0  0
  151.0078  130.3932  156.4281 H   0  0  0  0  0  0  0  0  0  0  0  0
  151.9846  130.4152  154.9542 H   0  0  0  0  0  0  0  0  0  0  0  0
  148.8056  129.1450  154.0271 H   0  0  0  0  0  0  0  0  0  0  0  0
  146.8034  129.2365  152.6727 H   0  0  0  0  0  0  0  0  0  0  0  0
  146.6403  130.6522  151.6295 H   0  0  0  0  0  0  0  0  0  0  0  0
  145.7658  130.5790  153.1651 H   0  0  0  0  0  0  0  0  0  0  0  0
  148.7538  134.8843  153.0887 H   0  0  0  0  0  0  0  0  0  0  0  0
  149.1082  136.7333  153.6545 H   0  0  0  0  0  0  0  0  0  0  0  0
  149.3739  137.5105  156.4957 H   0  0  0  0  0  0  0  0  0  0  0  0
  149.5910  138.9433  153.7696 H   0  0  0  0  0  0  0  0  0  0  0  0
  147.6360  140.1184  154.4432 H   0  0  0  0  0  0  0  0  0  0  0  0
  148.0472  139.9695  156.1658 H   0  0  0  0  0  0  0  0  0  0  0  0
  149.2490  141.8502  154.1422 H   0  0  0  0  0  0  0  0  0  0  0  0
  149.3648  141.9117  155.9029 H   0  0  0  0  0  0  0  0  0  0  0  0
  150.4331  139.6032  156.6958 H   0  0  0  0  0  0  0  0  0  0  0  0
  153.0997  138.0878  156.5275 H   0  0  0  0  0  0  0  0  0  0  0  0
  152.4145  136.4779  156.3328 H   0  0  0  0  0  0  0  0  0  0  0  0
  151.6899  137.6110  157.4582 H   0  0  0  0  0  0  0  0  0  0  0  0
  152.9628  138.3977  154.0503 H   0  0  0  0  0  0  0  0  0  0  0  0
  151.4743  138.1756  153.1651 H   0  0  0  0  0  0  0  0  0  0  0  0
  152.2645  136.7958  153.8894 H   0  0  0  0  0  0  0  0  0  0  0  0
  150.7329  132.8570  155.0882 H   0  0  0  0  0  0  0  0  0  0  0  0
  1  2  1  0  0  0  0
  1 22  1  0  0  0  0
  1 23  1  0  0  0  0
  1 24  1  0  0  0  0
  2 21  1  0  0  0  0
  2  3  2  0  0  0  0
  3  4  1  0  0  0  0
  3 25  1  0  0  0  0
  4  5  1  0  0  0  0
  4  6  2  0  0  0  0
  5 26  1  0  0  0  0
  5 27  1  0  0  0  0
  5 28  1  0  0  0  0
  6  7  1  0  0  0  0
  7  8  1  0  0  0  0
  7 21  2  0  0  0  0
  8  9  1  0  0  0  0
  8 29  1  0  0  0  0
  9 10  2  0  0  0  0
  9 11  1  0  0  0  0
 11 12  1  0  0  0  0
 11 30  1  0  0  0  0
 12 18  1  0  0  0  0
 12 13  1  0  0  0  0
 12 31  1  0  0  0  0
 13 17  1  0  0  0  0
 13 14  1  0  0  0  0
 13 32  1  0  0  0  0
 14 15  1  0  0  0  0
 14 33  1  0  0  0  0
 14 34  1  0  0  0  0
 15 16  1  0  0  0  0
 15 35  1  0  0  0  0
 15 36  1  0  0  0  0
 16 17  1  0  0  0  0
 17 18  1  0  0  0  0
 17 37  1  0  0  0  0
 18 19  1  0  0  0  0
 18 20  1  0  0  0  0
 19 38  1  0  0  0  0
 19 39  1  0  0  0  0
 19 40  1  0  0  0  0
 20 41  1  0  0  0  0
 20 42  1  0  0  0  0
 20 43  1  0  0  0  0
 21 44  1  0  0  0  0
M  END
> <s_m_source_file>
AV-unprocessed.smi

> <i_m_source_file_index>
2224

> <i_lp_mmshare_version>
43012

> <i_f3d_flags>
0

> <s_epik_input>
W0NIM11jMVtjSF1jKFtDSDNdKW5jKFtjSF0xKVtOSF1DKD1PKVtOSF1bQ0BIXTJDKFtDSDNdKShbQ0gzXSlbQ0BIXShbQ0BASF0yMylPW0NIMl1bQ0gyXTM=

> <s_epik_cmdline>
J2VwaWtfcHl0aG9uJywgJy1waCcsICc3LjAnLCAnLXRuJywgJzgnLCAnLW1hJywgJzIwMCcsICctbWV0YWxfYmluZGluZycsICctaW1hZScsICc8aW5maWxlLm1hZT4nLCAnLW9tYWUnLCAnPG91dGZpbGUubWFlPic=

> <r_lp_tautomer_probability>
1

> <r_epik_Ionization_Penalty>
0.000276544

> <r_epik_Ionization_Penalty_Charging>
0

> <r_epik_Ionization_Penalty_Neutral>
0.000276544

> <r_epik_State_Penalty>
-0

> <r_epik_Charging_Adjusted_Penalty>
0

> <i_epik_Tot_Q>
0

> <i_epik_Tot_abs_Q>
0

> <r_epik_Metal_State_Penalty>
-0

> <b_epik_Metal_Only>
0

> <s_lp_Force_Field>
OPLS_2005

> <r_lp_Energy>
62.2425

> <b_lp_Chiralities_Consistent>
1

> <s_lp_Variant>
AV-unprocessed.smi:2224-1

> <Gold.Version>
5.8.1

> <Gold.Id.Protein>
6NUR|6NUR_protein|mol2

> <Gold.PLP.Fitness>
39.4775

> <Gold.PLP.PLP>
-31.4277

> <Gold.PLP.part.hbond>
-3.0000

> <Gold.PLP.part.metal>
0.0000

> <Gold.PLP.part.buried>
-2.9100

> <Gold.PLP.part.nonpolar>
-26.3349

> <Gold.PLP.part.repulsive>
0.2367

> <Gold.PLP.ligand.clash>
0.0000

> <Gold.PLP.ligand.torsion>
0.5243

> <Gold.PLP.Chemscore.Hbond>
2.9440

> <Gold.PLP.Chemscore.CHOScore>
0.0000

> <Gold.PLP.Chemscore.Metal>
0.0000

> <Gold.Chemscore.Hbonds>
donor molecule, donor type, donor heavy atom, donor atom, acceptor molecule, acceptor atom, score
      L1  H     8    29       P1  7948  1.00
      L1  H    11    30       P1  7948  0.96
      P1  H  7989  7998       L1    16  0.93

> <Gold.PLP.Chemscore.Internal.Correction>
0.2664

> <Gold.Rescore>
     Score         DG    S(hbond)    S(metal)    S(lipo)     H(rot)  DE(clash)    DE(int)     intcor
     17.84     -19.74       2.40        0.00      75.18       1.00       0.13       1.77       ----

> <Gold.Chemscore.Fitness>
17.8363

> <Gold.Chemscore.DG>
-19.7384

> <Gold.Chemscore.ZeroCoef>
-5.4800

> <Gold.Chemscore.Hbond>
2.4018

> <Gold.Chemscore.Metal>
0.0000

> <Gold.Chemscore.Lipo>
75.1841

> <Gold.Chemscore.Internal_Hbond>
0.0000

> <Gold.Chemscore.DEClash>
0.1308

> <Gold.Chemscore.DEInternal>
1.7713

> <Gold.Chemscore.Rot>
1.0000

> <Gold.Chemscore.Internal.Correction>
   9.000000E+99

> <Gold.Chemscore.Hbonds>
donor molecule, donor type, donor heavy atom, donor atom, acceptor molecule, acceptor atom, score
      L1  H     8    29       P1  7948  0.29
      L1  H    11    30       P1  7948  0.92
      P1  H  7989  7998       L1    16  0.84

> <Gold.Chemscore.Hbond.Weighted>
-8.0219

> <Gold.Chemscore.Metal.Weighted>
-0.0000

> <Gold.Chemscore.Lipo.Weighted>
-8.7965

> <Gold.Chemscore.Internal_Hbond.Weighted>
0.0000

> <Gold.Chemscore.DEClash.Weighted>
0.1308

> <Gold.Chemscore.DEInternal.Weighted>
1.7713

> <Gold.Chemscore.Rot.Weighted>
2.5600

> <Gold.Chemscore.Internal.Correction.Weighted>
   9.000000E+99

> <Gold.Protein.RotatedTorsions>
[ 6907 6896 6895 6894 ] final   32.83 input  -60.11 | X-H torsion
[ 7974 7965 7964 7962 ] final    4.41 input  175.53 | X-H torsion
[ 8008 7997 7996 7995 ] final -132.60 input   59.86 | X-H torsion
[ 10167 10162 10161 10158 ] final  -46.50 input  -65.29 | X-H torsion
[ 10718 10713 10712 10709 ] final  150.73 input   66.30 | X-H torsion
[ 10763 10752 10751 10750 ] final   53.35 input  -60.55 | X-H torsion
[ 11005 11000 10999 10996 ] final   73.39 input  -57.11 | X-H torsion

> <Gold.Protein.ActiveResidues>
 VAL166  LYS551  ARG553  GLY616  TRP617  ASP618  TYR619  PRO620  LYS621  CYS622 
 ASP623  PHE694  ASN695  SER759  ASP760  ASP761  ALA762  ILE779  LEU786  VAL792 
 PHE793  MET794  SER795  GLU796  ALA797  LYS798  CYS799  TRP800  GLU811  SER814 

> <Gold.Protein.RotatedAtoms>
  152.0799  134.9478  160.0573 H   0  0  0  0  0  0  0  0  0  0  0  0  # atno 6907 bound_to 6896
  152.0770  133.4129  159.4492 H   0  0  0  0  0  0  0  0  0  0  0  0  # atno 6908 bound_to 6896
  150.6836  134.2945  159.4724 H   0  0  0  0  0  0  0  0  0  0  0  0  # atno 6909 bound_to 6896
  146.2444  140.0538  142.8373 H   0  0  0  0  0  0  0  0  0  0  0  0  # atno 7974 bound_to 7965
  155.3316  140.0467  157.3042 H   0  0  0  0  0  0  0  0  0  0  0  0  # atno 8008 bound_to 7997
  154.5325  140.2261  155.8745 H   0  0  0  0  0  0  0  0  0  0  0  0  # atno 8009 bound_to 7997
  156.1803  140.3075  155.9142 H   0  0  0  0  0  0  0  0  0  0  0  0  # atno 8010 bound_to 7997
  140.6815  143.2828  151.3792 H   0  0  0  0  0  0  0  0  0  0  0  0  # atno 10167 bound_to 10162
  157.2797  131.0833  151.1540 H   0  0  0  0  0  0  0  0  0  0  0  0  # atno 10718 bound_to 10713
  152.9795  135.5781  154.4728 H   0  0  0  0  0  0  0  0  0  0  0  0  # atno 10763 bound_to 10752
  154.4288  135.2773  155.1928 H   0  0  0  0  0  0  0  0  0  0  0  0  # atno 10764 bound_to 10752
  154.3646  135.6181  153.5762 H   0  0  0  0  0  0  0  0  0  0  0  0  # atno 10765 bound_to 10752
  139.9443  134.7342  156.1020 H   0  0  0  0  0  0  0  0  0  0  0  0  # atno 11005 bound_to 11000
  145.0960  140.9315  143.4740 LP  0  0  0  0  0  0  0  0  0  0  0  0  # atno 17320 bound_to 7965
  145.0721  139.3023  143.5827 LP  0  0  0  0  0  0  0  0  0  0  0  0  # atno 17321 bound_to 7965
  139.6140  144.1040  152.2327 LP  0  0  0  0  0  0  0  0  0  0  0  0  # atno 17342 bound_to 10162
  140.0463  144.5968  150.7371 LP  0  0  0  0  0  0  0  0  0  0  0  0  # atno 17343 bound_to 10162
  157.2979  130.6828  149.6148 LP  0  0  0  0  0  0  0  0  0  0  0  0  # atno 17370 bound_to 10713
  155.9664  130.4401  150.5285 LP  0  0  0  0  0  0  0  0  0  0  0  0  # atno 17371 bound_to 10713
  141.1088  133.6650  156.2927 LP  0  0  0  0  0  0  0  0  0  0  0  0  # atno 17394 bound_to 11000
  140.5875  134.5684  157.5492 LP  0  0  0  0  0  0  0  0  0  0  0  0  # atno 17395 bound_to 11000

$$$$
