AV-unprocessed.smi:763|AV-procd|sdf|3639|dock2
  -GOLD-   22720 1 33D 1   1.00000     0.00000
 Structure written by MMmdl.
 43 44  0  0  0  0  0  0  0  0  2 V2000
  152.4011  136.9659  164.8012 C   0  0  0  0  0  0  0  0  0  0  0  0
  153.5469  137.2845  164.0318 O   0  0  0  0  0  0  0  0  0  0  0  0
  153.2229  137.9739  162.8356 C   0  0  0  0  0  0  0  0  0  0  0  0
  154.4973  138.1788  162.0116 C   0  0  0  0  0  0  0  0  0  0  0  0
  154.1432  138.7928  160.7770 O   0  0  0  0  0  0  0  0  0  0  0  0
  153.6762  140.0944  160.7844 C   0  0  0  0  0  0  0  0  0  0  0  0
  153.9056  140.8466  161.8911 N   0  0  0  0  0  0  0  0  0  0  0  0
  153.4557  142.1160  161.9101 C   0  0  0  0  0  0  0  0  0  0  0  0
  152.7583  142.6970  160.8385 C   0  0  0  0  0  0  0  0  0  0  0  0
  152.5234  141.9134  159.6945 C   0  0  0  0  0  0  0  0  0  0  0  0
  152.9862  140.5753  159.6429 C   0  0  0  0  0  0  0  0  0  0  0  0
  152.8002  139.7750  158.5792 N   0  5  0  0  0  0  0  0  0  0  0  0
  151.5417  139.8029  157.5622 S   0  0  0  0  0  0  0  0  0  0  0  0
  150.3756  139.1138  158.1371 O   0  0  0  0  0  0  0  0  0  0  0  0
  151.3130  141.1556  157.0329 O   0  0  0  0  0  0  0  0  0  0  0  0
  152.1949  138.7261  156.1745 C   0  0  1  0  0  0  0  0  0  0  0  0
  152.5270  137.3042  156.6750 C   0  0  0  0  0  0  0  0  0  0  0  0
  151.2584  136.4821  156.9596 C   0  0  0  0  0  0  0  0  0  0  0  0
  150.3797  136.3781  155.7028 C   0  0  0  0  0  0  0  0  0  0  0  0
  150.0134  137.7661  155.1528 C   0  0  0  0  0  0  0  0  0  0  0  0
  151.2703  138.6343  154.9318 C   0  0  1  0  0  0  0  0  0  0  0  0
  150.9086  139.9136  154.4528 O   0  0  0  0  0  0  0  0  0  0  0  0
  152.7029  136.4429  165.7085 H   0  0  0  0  0  0  0  0  0  0  0  0
  151.7240  136.3144  164.2468 H   0  0  0  0  0  0  0  0  0  0  0  0
  151.8596  137.8658  165.0953 H   0  0  0  0  0  0  0  0  0  0  0  0
  152.4792  137.4256  162.2551 H   0  0  0  0  0  0  0  0  0  0  0  0
  152.7920  138.9439  163.0882 H   0  0  0  0  0  0  0  0  0  0  0  0
  155.1767  138.8319  162.5614 H   0  0  0  0  0  0  0  0  0  0  0  0
  155.0020  137.2245  161.8513 H   0  0  0  0  0  0  0  0  0  0  0  0
  153.6573  142.6849  162.8057 H   0  0  0  0  0  0  0  0  0  0  0  0
  152.4122  143.7184  160.8902 H   0  0  0  0  0  0  0  0  0  0  0  0
  151.9870  142.3534  158.8670 H   0  0  0  0  0  0  0  0  0  0  0  0
  153.1385  139.1785  155.8678 H   0  0  0  0  0  0  0  0  0  0  0  0
  153.1172  136.7889  155.9164 H   0  0  0  0  0  0  0  0  0  0  0  0
  153.1609  137.3441  157.5608 H   0  0  0  0  0  0  0  0  0  0  0  0
  151.5345  135.4839  157.2998 H   0  0  0  0  0  0  0  0  0  0  0  0
  150.6892  136.9374  157.7707 H   0  0  0  0  0  0  0  0  0  0  0  0
  150.9103  135.8125  154.9360 H   0  0  0  0  0  0  0  0  0  0  0  0
  149.4723  135.8172  155.9277 H   0  0  0  0  0  0  0  0  0  0  0  0
  149.4762  137.6517  154.2107 H   0  0  0  0  0  0  0  0  0  0  0  0
  149.3140  138.2485  155.8324 H   0  0  0  0  0  0  0  0  0  0  0  0
  151.8489  138.1697  154.1326 H   0  0  0  0  0  0  0  0  0  0  0  0
  149.9727  140.0141  154.5389 H   0  0  0  0  0  0  0  0  0  0  0  0
  1  2  1  0  0  0  0
  1 23  1  0  0  0  0
  1 24  1  0  0  0  0
  1 25  1  0  0  0  0
  2  3  1  0  0  0  0
  3  4  1  0  0  0  0
  3 26  1  0  0  0  0
  3 27  1  0  0  0  0
  4  5  1  0  0  0  0
  4 28  1  0  0  0  0
  4 29  1  0  0  0  0
  5  6  1  0  0  0  0
  6 11  1  0  0  0  0
  6  7  2  0  0  0  0
  7  8  1  0  0  0  0
  8  9  2  0  0  0  0
  8 30  1  0  0  0  0
  9 10  1  0  0  0  0
  9 31  1  0  0  0  0
 10 11  2  0  0  0  0
 10 32  1  0  0  0  0
 11 12  1  0  0  0  0
 12 13  1  0  0  0  0
 13 14  2  0  0  0  0
 13 15  2  0  0  0  0
 13 16  1  0  0  0  0
 16 21  1  0  0  0  0
 16 17  1  0  0  0  0
 16 33  1  0  0  0  0
 17 18  1  0  0  0  0
 17 34  1  0  0  0  0
 17 35  1  0  0  0  0
 18 19  1  0  0  0  0
 18 36  1  0  0  0  0
 18 37  1  0  0  0  0
 19 20  1  0  0  0  0
 19 38  1  0  0  0  0
 19 39  1  0  0  0  0
 20 21  1  0  0  0  0
 20 40  1  0  0  0  0
 20 41  1  0  0  0  0
 21 22  1  0  0  0  0
 21 42  1  0  0  0  0
 22 43  1  0  0  0  0
M  CHG  1  12  -1
M  END
> <s_m_source_file>
AV-unprocessed.smi

> <i_m_source_file_index>
763

> <i_lp_mmshare_version>
43012

> <i_f3d_flags>
0

> <s_epik_input>
W0NIM11PW0NIMl1bQ0gyXU9jMW5bY0hdW2NIXVtjSF1jMVtOSF1TKD1PKSg9TylbQ0BASF0yW0NIMl1bQ0gyXVtDSDJdW0NIMl1bQ0BIXTJbT0hd

> <s_epik_cmdline>
J2VwaWtfcHl0aG9uJywgJy1waCcsICc3LjAnLCAnLXRuJywgJzgnLCAnLW1hJywgJzIwMCcsICctbWV0YWxfYmluZGluZycsICctaW1hZScsICc8aW5maWxlLm1hZT4nLCAnLW9tYWUnLCAnPG91dGZpbGUubWFlPic=

> <r_epik_Ionization_Penalty>
0.985866

> <r_epik_Ionization_Penalty_Charging>
0.984689

> <r_epik_Ionization_Penalty_Neutral>
0.00117669

> <r_epik_State_Penalty>
1.03185

> <r_epik_Charging_Adjusted_Penalty>
2.01654

> <i_epik_Tot_Q>
-1

> <i_epik_Tot_abs_Q>
1

> <r_epik_Metal_State_Penalty>
0.379327

> <b_epik_Metal_Only>
0

> <s_lp_Force_Field>
OPLS_2005

> <r_lp_Energy>
9.05773

> <b_lp_Chiralities_Consistent>
1

> <s_lp_Variant>
AV-unprocessed.smi:763-6

> <Gold.Version>
5.8.1

> <Gold.Id.Protein>
6NUR|6NUR_protein|mol2

> <Gold.PLP.Fitness>
47.6935

> <Gold.PLP.PLP>
-39.8078

> <Gold.PLP.part.hbond>
-2.3200

> <Gold.PLP.part.metal>
0.0000

> <Gold.PLP.part.buried>
-4.5455

> <Gold.PLP.part.nonpolar>
-31.6503

> <Gold.PLP.part.repulsive>
0.0482

> <Gold.PLP.ligand.clash>
0.0000

> <Gold.PLP.ligand.torsion>
1.1485

> <Gold.PLP.Chemscore.Hbond>
3.0000

> <Gold.PLP.Chemscore.CHOScore>
0.0000

> <Gold.PLP.Chemscore.Metal>
0.0000

> <Gold.Chemscore.Hbonds>
donor molecule, donor type, donor heavy atom, donor atom, acceptor molecule, acceptor atom, score
      P1  H  7989  7998       L1    22  1.00
      P1  H  7997  8010       L1    12  0.23

> <Gold.PLP.Chemscore.Internal.Correction>
1.1827

> <Gold.Rescore>
     Score         DG    S(hbond)    S(metal)    S(lipo)     H(rot)  DE(clash)    DE(int)     intcor
     13.51     -16.03       1.71        0.00      92.66       2.35       0.00       2.51       ----

> <Gold.Chemscore.Fitness>
13.5127

> <Gold.Chemscore.DG>
-16.0278

> <Gold.Chemscore.ZeroCoef>
-5.4800

> <Gold.Chemscore.Hbond>
1.7140

> <Gold.Chemscore.Metal>
0.0000

> <Gold.Chemscore.Lipo>
92.6607

> <Gold.Chemscore.Internal_Hbond>
0.0000

> <Gold.Chemscore.DEClash>
0.0009

> <Gold.Chemscore.DEInternal>
2.5142

> <Gold.Chemscore.Rot>
2.3509

> <Gold.Chemscore.Internal.Correction>
   9.000000E+99

> <Gold.Chemscore.Hbonds>
donor molecule, donor type, donor heavy atom, donor atom, acceptor molecule, acceptor atom, score
      P1  H  7989  7998       L1    22  0.88
      P1  H  7997  8010       L1    12  0.03

> <Gold.Chemscore.Hbond.Weighted>
-5.7247

> <Gold.Chemscore.Metal.Weighted>
-0.0000

> <Gold.Chemscore.Lipo.Weighted>
-10.8413

> <Gold.Chemscore.Internal_Hbond.Weighted>
0.0000

> <Gold.Chemscore.DEClash.Weighted>
0.0009

> <Gold.Chemscore.DEInternal.Weighted>
2.5142

> <Gold.Chemscore.Rot.Weighted>
6.0182

> <Gold.Chemscore.Internal.Correction.Weighted>
   9.000000E+99

> <Gold.Protein.RotatedTorsions>
[ 6907 6896 6895 6894 ] final  -49.51 input  -60.11 | X-H torsion
[ 7974 7965 7964 7962 ] final   25.80 input  175.53 | X-H torsion
[ 8008 7997 7996 7995 ] final   33.93 input   59.86 | X-H torsion
[ 10167 10162 10161 10158 ] final -129.04 input  -65.29 | X-H torsion
[ 10718 10713 10712 10709 ] final  135.16 input   66.30 | X-H torsion
[ 10763 10752 10751 10750 ] final -117.44 input  -60.55 | X-H torsion
[ 11005 11000 10999 10996 ] final -121.10 input  -57.11 | X-H torsion

> <Gold.Protein.ActiveResidues>
 VAL166  LYS551  ARG553  GLY616  TRP617  ASP618  TYR619  PRO620  LYS621  CYS622 
 ASP623  PHE694  ASN695  SER759  ASP760  ASP761  ALA762  ILE779  LEU786  VAL792 
 PHE793  MET794  SER795  GLU796  ALA797  LYS798  CYS799  TRP800  GLU811  SER814 

> <Gold.Protein.RotatedAtoms>
  150.8798  134.8188  159.7216 H   0  0  0  0  0  0  0  0  0  0  0  0  # atno 6907 bound_to 6896
  152.4771  134.4813  159.9676 H   0  0  0  0  0  0  0  0  0  0  0  0  # atno 6908 bound_to 6896
  151.4890  133.3490  159.2886 H   0  0  0  0  0  0  0  0  0  0  0  0  # atno 6909 bound_to 6896
  146.1870  139.7416  142.8859 H   0  0  0  0  0  0  0  0  0  0  0  0  # atno 7974 bound_to 7965
  155.1466  140.3271  155.4440 H   0  0  0  0  0  0  0  0  0  0  0  0  # atno 8008 bound_to 7997
  156.2587  140.1984  156.6530 H   0  0  0  0  0  0  0  0  0  0  0  0  # atno 8009 bound_to 7997
  154.6503  140.0559  156.9934 H   0  0  0  0  0  0  0  0  0  0  0  0  # atno 8010 bound_to 7997
  139.9440  143.6131  152.2495 H   0  0  0  0  0  0  0  0  0  0  0  0  # atno 10167 bound_to 10162
  157.4598  131.1072  150.9933 H   0  0  0  0  0  0  0  0  0  0  0  0  # atno 10718 bound_to 10713
  154.8555  135.4309  154.1980 H   0  0  0  0  0  0  0  0  0  0  0  0  # atno 10763 bound_to 10752
  153.3033  135.6970  153.7188 H   0  0  0  0  0  0  0  0  0  0  0  0  # atno 10764 bound_to 10752
  153.6310  135.3485  155.3016 H   0  0  0  0  0  0  0  0  0  0  0  0  # atno 10765 bound_to 10752
  141.0095  134.0285  157.3432 H   0  0  0  0  0  0  0  0  0  0  0  0  # atno 11005 bound_to 11000
  145.3908  141.0372  143.3125 LP  0  0  0  0  0  0  0  0  0  0  0  0  # atno 17320 bound_to 7965
  144.8416  139.5463  143.6897 LP  0  0  0  0  0  0  0  0  0  0  0  0  # atno 17321 bound_to 7965
  139.6682  144.7661  151.1833 LP  0  0  0  0  0  0  0  0  0  0  0  0  # atno 17342 bound_to 10162
  140.7603  143.5906  150.8800 LP  0  0  0  0  0  0  0  0  0  0  0  0  # atno 17343 bound_to 10162
  157.0734  130.5873  149.5407 LP  0  0  0  0  0  0  0  0  0  0  0  0  # atno 17370 bound_to 10713
  156.0024  130.5105  150.7709 LP  0  0  0  0  0  0  0  0  0  0  0  0  # atno 17371 bound_to 10713
  139.9082  135.0184  156.7578 LP  0  0  0  0  0  0  0  0  0  0  0  0  # atno 17394 bound_to 11000
  140.6757  133.9520  155.7881 LP  0  0  0  0  0  0  0  0  0  0  0  0  # atno 17395 bound_to 11000

$$$$
