AV-unprocessed.smi:488|AV-procd|sdf|2701|dock9
  -GOLD-   2262023133D 1   1.00000     0.00000
 Structure written by MMmdl.
 45 46  0  0  0  0  0  0  0  0  1 V2000
  148.3676  132.0944  159.9259 C   0  0  0  0  0  0  0  0  0  0  0  0
  148.2915  133.5941  160.0264 C   0  0  0  0  0  0  0  0  0  0  0  0
  148.9079  134.2686  159.1121 N   0  0  0  0  0  0  0  0  0  0  0  0
  148.9099  135.6505  159.1148 N   0  0  0  0  0  0  0  0  0  0  0  0
  149.6702  136.2501  158.0095 C   0  0  0  0  0  0  0  0  0  0  0  0
  150.8213  137.1232  158.5207 C   0  0  0  0  0  0  0  0  0  0  0  0
  151.7468  136.5967  159.1411 O   0  0  0  0  0  0  0  0  0  0  0  0
  150.7213  138.4389  158.2400 N   0  0  0  0  0  0  0  0  0  0  0  0
  151.5947  139.4144  158.5538 C   0  0  0  0  0  0  0  0  0  0  0  0
  152.7021  139.2495  159.0703 O   0  0  0  0  0  0  0  0  0  0  0  0
  151.1051  140.6198  158.2280 N   0  0  0  0  0  0  0  0  0  0  0  0
  151.8238  141.8843  158.3532 C   0  0  0  0  0  0  0  0  0  0  0  0
  152.1475  142.1502  159.8353 C   0  0  0  0  0  0  0  0  0  0  0  0
  152.8585  143.5003  160.0205 C   0  0  0  0  0  0  0  0  0  0  0  0
  152.0309  144.6511  159.4271 C   0  0  0  0  0  0  0  0  0  0  0  0
  151.7037  144.3937  157.9476 C   0  0  0  0  0  0  0  0  0  0  0  0
  150.9959  143.0418  157.7577 C   0  0  0  0  0  0  0  0  0  0  0  0
  148.2805  136.4255  160.0448 C   0  0  0  0  0  0  0  0  0  0  0  0
  148.3073  137.6565  160.0104 O   0  0  0  0  0  0  0  0  0  0  0  0
  147.5815  135.6544  161.0752 C   0  0  0  0  0  0  0  0  0  0  0  0
  146.9134  136.4270  162.0725 C   0  0  0  0  0  0  0  0  0  0  0  0
  146.3625  137.0658  162.8654 N   0  0  0  0  0  0  0  0  0  0  0  0
  147.5715  134.2980  161.0825 C   0  0  0  0  0  0  0  0  0  0  0  0
  146.8621  133.4534  162.1320 C   0  0  0  0  0  0  0  0  0  0  0  0
  147.3854  131.6716  159.7143 H   0  0  0  0  0  0  0  0  0  0  0  0
  148.7298  131.6608  160.8583 H   0  0  0  0  0  0  0  0  0  0  0  0
  149.0435  131.7736  159.1318 H   0  0  0  0  0  0  0  0  0  0  0  0
  150.0785  135.4711  157.3624 H   0  0  0  0  0  0  0  0  0  0  0  0
  149.0175  136.8440  157.3668 H   0  0  0  0  0  0  0  0  0  0  0  0
  149.8970  138.7226  157.7315 H   0  0  0  0  0  0  0  0  0  0  0  0
  150.1616  140.6698  157.8725 H   0  0  0  0  0  0  0  0  0  0  0  0
  152.7689  141.8126  157.8111 H   0  0  0  0  0  0  0  0  0  0  0  0
  151.2282  142.1430  160.4230 H   0  0  0  0  0  0  0  0  0  0  0  0
  152.7734  141.3491  160.2308 H   0  0  0  0  0  0  0  0  0  0  0  0
  153.0420  143.6815  161.0798 H   0  0  0  0  0  0  0  0  0  0  0  0
  153.8365  143.4670  159.5385 H   0  0  0  0  0  0  0  0  0  0  0  0
  151.1052  144.7648  159.9923 H   0  0  0  0  0  0  0  0  0  0  0  0
  152.5734  145.5913  159.5299 H   0  0  0  0  0  0  0  0  0  0  0  0
  151.0786  145.1985  157.5599 H   0  0  0  0  0  0  0  0  0  0  0  0
  152.6239  144.4080  157.3623 H   0  0  0  0  0  0  0  0  0  0  0  0
  150.8172  142.8705  156.6955 H   0  0  0  0  0  0  0  0  0  0  0  0
  150.0147  143.0778  158.2336 H   0  0  0  0  0  0  0  0  0  0  0  0
  146.2295  134.0546  162.7844 H   0  0  0  0  0  0  0  0  0  0  0  0
  147.5905  132.9379  162.7585 H   0  0  0  0  0  0  0  0  0  0  0  0
  146.2213  132.7063  161.6627 H   0  0  0  0  0  0  0  0  0  0  0  0
  1  2  1  0  0  0  0
  1 25  1  0  0  0  0
  1 26  1  0  0  0  0
  1 27  1  0  0  0  0
  2 23  1  0  0  0  0
  2  3  2  0  0  0  0
  3  4  1  0  0  0  0
  4  5  1  0  0  0  0
  4 18  1  0  0  0  0
  5  6  1  0  0  0  0
  5 28  1  0  0  0  0
  5 29  1  0  0  0  0
  6  7  2  0  0  0  0
  6  8  1  0  0  0  0
  8  9  1  0  0  0  0
  8 30  1  0  0  0  0
  9 10  2  0  0  0  0
  9 11  1  0  0  0  0
 11 12  1  0  0  0  0
 11 31  1  0  0  0  0
 12 17  1  0  0  0  0
 12 13  1  0  0  0  0
 12 32  1  0  0  0  0
 13 14  1  0  0  0  0
 13 33  1  0  0  0  0
 13 34  1  0  0  0  0
 14 15  1  0  0  0  0
 14 35  1  0  0  0  0
 14 36  1  0  0  0  0
 15 16  1  0  0  0  0
 15 37  1  0  0  0  0
 15 38  1  0  0  0  0
 16 17  1  0  0  0  0
 16 39  1  0  0  0  0
 16 40  1  0  0  0  0
 17 41  1  0  0  0  0
 17 42  1  0  0  0  0
 18 19  2  0  0  0  0
 18 20  1  0  0  0  0
 20 21  1  0  0  0  0
 20 23  2  0  0  0  0
 21 22  3  0  0  0  0
 23 24  1  0  0  0  0
 24 43  1  0  0  0  0
 24 44  1  0  0  0  0
 24 45  1  0  0  0  0
M  END
> <s_m_source_file>
AV-unprocessed.smi

> <i_m_source_file_index>
488

> <i_lp_mmshare_version>
43012

> <i_f3d_flags>
0

> <s_epik_input>
TiNDYyhjMVtDSDNdKWMoPU8pbihuYzFbQ0gzXSlbQ0gyXUMoPU8pW05IXUMoPU8pW05IXVtDSF0yW0NIMl1bQ0gyXVtDSDJdW0NIMl1bQ0gyXTI=

> <s_epik_cmdline>
J2VwaWtfcHl0aG9uJywgJy1waCcsICc3LjAnLCAnLXRuJywgJzgnLCAnLW1hJywgJzIwMCcsICctbWV0YWxfYmluZGluZycsICctaW1hZScsICc8aW5maWxlLm1hZT4nLCAnLW9tYWUnLCAnPG91dGZpbGUubWFlPic=

> <r_lp_tautomer_probability>
1

> <r_epik_Ionization_Penalty>
3.27035e-05

> <r_epik_Ionization_Penalty_Charging>
1.69167e-11

> <r_epik_Ionization_Penalty_Neutral>
3.27035e-05

> <r_epik_State_Penalty>
-0

> <r_epik_Charging_Adjusted_Penalty>
1.69167e-11

> <i_epik_Tot_Q>
0

> <i_epik_Tot_abs_Q>
0

> <r_epik_Metal_State_Penalty>
-0

> <b_epik_Metal_Only>
0

> <s_lp_Force_Field>
OPLS_2005

> <r_lp_Energy>
25.832

> <b_lp_Chiralities_Consistent>
1

> <s_lp_Variant>
AV-unprocessed.smi:488-1

> <Gold.Version>
5.8.1

> <Gold.Id.Protein>
6NUR|6NUR_protein|mol2

> <Gold.PLP.Fitness>
48.9632

> <Gold.PLP.PLP>
-41.9998

> <Gold.PLP.part.hbond>
-3.9091

> <Gold.PLP.part.metal>
0.0000

> <Gold.PLP.part.buried>
-3.1878

> <Gold.PLP.part.nonpolar>
-36.8848

> <Gold.PLP.part.repulsive>
0.1871

> <Gold.PLP.ligand.clash>
0.0000

> <Gold.PLP.ligand.torsion>
0.0554

> <Gold.PLP.Chemscore.Hbond>
2.3541

> <Gold.PLP.Chemscore.CHOScore>
0.0000

> <Gold.PLP.Chemscore.Metal>
0.0000

> <Gold.Chemscore.Hbonds>
donor molecule, donor type, donor heavy atom, donor atom, acceptor molecule, acceptor atom, score
      P1  H  6896  6907       L1     7  0.86
      P1  H  6896  6909       L1     3  0.90
      P1  H  6931  6943       L1    19  0.32
      P1  H  6934  6947       L1    19  0.45

> <Gold.PLP.Chemscore.Internal.Correction>
0.0120

> <Gold.Rescore>
     Score         DG    S(hbond)    S(metal)    S(lipo)     H(rot)  DE(clash)    DE(int)     intcor
     17.91     -19.48       1.85        0.00     101.67       1.59       0.05       1.53       ----

> <Gold.Chemscore.Fitness>
17.9076

> <Gold.Chemscore.DG>
-19.4835

> <Gold.Chemscore.ZeroCoef>
-5.4800

> <Gold.Chemscore.Hbond>
1.8468

> <Gold.Chemscore.Metal>
0.0000

> <Gold.Chemscore.Lipo>
101.6741

> <Gold.Chemscore.Internal_Hbond>
0.0000

> <Gold.Chemscore.DEClash>
0.0476

> <Gold.Chemscore.DEInternal>
1.5283

> <Gold.Chemscore.Rot>
1.5862

> <Gold.Chemscore.Internal.Correction>
   9.000000E+99

> <Gold.Chemscore.Hbonds>
donor molecule, donor type, donor heavy atom, donor atom, acceptor molecule, acceptor atom, score
      P1  H  6896  6907       L1     7  0.85
      P1  H  6896  6909       L1     3  0.12
      P1  H  6931  6943       L1    19  0.17
      P1  H  6934  6947       L1    19  0.45

> <Gold.Chemscore.Hbond.Weighted>
-6.1683

> <Gold.Chemscore.Metal.Weighted>
-0.0000

> <Gold.Chemscore.Lipo.Weighted>
-11.8959

> <Gold.Chemscore.Internal_Hbond.Weighted>
0.0000

> <Gold.Chemscore.DEClash.Weighted>
0.0476

> <Gold.Chemscore.DEInternal.Weighted>
1.5283

> <Gold.Chemscore.Rot.Weighted>
4.0607

> <Gold.Chemscore.Internal.Correction.Weighted>
   9.000000E+99

> <Gold.Protein.RotatedTorsions>
[ 6907 6896 6895 6894 ] final   12.39 input  -60.11 | X-H torsion
[ 7974 7965 7964 7962 ] final    4.99 input  175.53 | X-H torsion
[ 8008 7997 7996 7995 ] final   49.73 input   59.86 | X-H torsion
[ 10167 10162 10161 10158 ] final  -60.50 input  -65.29 | X-H torsion
[ 10718 10713 10712 10709 ] final   -6.99 input   66.30 | X-H torsion
[ 10763 10752 10751 10750 ] final  159.84 input  -60.55 | X-H torsion
[ 11005 11000 10999 10996 ] final   89.81 input  -57.11 | X-H torsion

> <Gold.Protein.ActiveResidues>
 VAL166  LYS551  ARG553  GLY616  TRP617  ASP618  TYR619  PRO620  LYS621  CYS622 
 ASP623  PHE694  ASN695  SER759  ASP760  ASP761  ALA762  ILE779  LEU786  VAL792 
 PHE793  MET794  SER795  GLU796  ALA797  LYS798  CYS799  TRP800  GLU811  SER814 

> <Gold.Protein.RotatedAtoms>
  151.7696  135.0789  160.0357 H   0  0  0  0  0  0  0  0  0  0  0  0  # atno 6907 bound_to 6896
  152.3297  133.5940  159.5810 H   0  0  0  0  0  0  0  0  0  0  0  0  # atno 6908 bound_to 6896
  150.7416  133.9802  159.3615 H   0  0  0  0  0  0  0  0  0  0  0  0  # atno 6909 bound_to 6896
  146.2442  140.0451  142.8379 H   0  0  0  0  0  0  0  0  0  0  0  0  # atno 7974 bound_to 7965
  155.4070  140.3440  155.4261 H   0  0  0  0  0  0  0  0  0  0  0  0  # atno 8008 bound_to 7997
  156.1471  140.1559  156.8861 H   0  0  0  0  0  0  0  0  0  0  0  0  # atno 8009 bound_to 7997
  154.5020  140.0812  156.7798 H   0  0  0  0  0  0  0  0  0  0  0  0  # atno 8010 bound_to 7997
  140.6067  143.2375  151.5805 H   0  0  0  0  0  0  0  0  0  0  0  0  # atno 10167 bound_to 10162
  156.7237  130.5159  149.5862 H   0  0  0  0  0  0  0  0  0  0  0  0  # atno 10718 bound_to 10713
  154.2380  135.2776  155.2864 H   0  0  0  0  0  0  0  0  0  0  0  0  # atno 10763 bound_to 10752
  154.5568  135.5659  153.6975 H   0  0  0  0  0  0  0  0  0  0  0  0  # atno 10764 bound_to 10752
  153.0006  135.6288  154.2524 H   0  0  0  0  0  0  0  0  0  0  0  0  # atno 10765 bound_to 10752
  139.8868  134.8575  156.3196 H   0  0  0  0  0  0  0  0  0  0  0  0  # atno 11005 bound_to 11000
  145.1035  140.9360  143.4699 LP  0  0  0  0  0  0  0  0  0  0  0  0  # atno 17320 bound_to 7965
  145.0649  139.3076  143.5861 LP  0  0  0  0  0  0  0  0  0  0  0  0  # atno 17321 bound_to 7965
  139.5330  144.2861  152.1190 LP  0  0  0  0  0  0  0  0  0  0  0  0  # atno 17342 bound_to 10162
  140.2052  144.4618  150.6412 LP  0  0  0  0  0  0  0  0  0  0  0  0  # atno 17343 bound_to 10162
  156.1576  130.6352  151.0678 LP  0  0  0  0  0  0  0  0  0  0  0  0  # atno 17370 bound_to 10713
  157.6887  131.0817  150.7169 LP  0  0  0  0  0  0  0  0  0  0  0  0  # atno 17371 bound_to 10713
  140.9796  133.7276  156.0652 LP  0  0  0  0  0  0  0  0  0  0  0  0  # atno 17394 bound_to 11000
  140.7767  134.3772  157.5496 LP  0  0  0  0  0  0  0  0  0  0  0  0  # atno 17395 bound_to 11000

$$$$
