AV-unprocessed.smi:1703|AV-procd|sdf|6878|dock4
  -GOLD-   22720 8 83D 1   1.00000     0.00000
 Structure written by MMmdl.
 50 52  0  0  0  0  0  0  0  0  3 V2000
  142.1362  145.3032  154.6970 C   0  0  0  0  0  0  0  0  0  0  0  0
  143.5711  145.7810  154.9842 C   0  0  1  0  0  0  0  0  0  0  0  0
  144.4082  144.7649  155.7860 C   0  0  0  0  0  0  0  0  0  0  0  0
  144.8001  143.6135  154.9397 N   0  3  2  0  0  0  0  0  0  0  0  0
  145.5330  142.5678  155.6980 C   0  0  0  0  0  0  0  0  0  0  0  0
  146.0037  141.4094  154.7967 C   0  0  2  0  0  0  0  0  0  0  0  0
  146.0101  140.2141  155.5539 O   0  0  0  0  0  0  0  0  0  0  0  0
  147.4122  141.6613  154.2236 C   0  0  0  0  0  0  0  0  0  0  0  0
  148.1459  140.4130  153.9535 N   0  0  0  0  0  0  0  0  0  0  0  0
  147.8022  139.3494  153.1704 C   0  0  0  0  0  0  0  0  0  0  0  0
  146.5467  139.1985  152.3710 C   0  0  0  0  0  0  0  0  0  0  0  0
  146.7761  138.7424  151.0547 O   0  0  0  0  0  0  0  0  0  0  0  0
  148.8116  138.4372  153.2649 N   0  3  0  0  0  0  0  0  0  0  0  0
  149.8107  138.9209  154.1092 C   0  0  0  0  0  0  0  0  0  0  0  0
  151.0180  138.3545  154.5063 C   0  0  0  0  0  0  0  0  0  0  0  0
  151.8147  139.1153  155.3865 C   0  0  0  0  0  0  0  0  0  0  0  0
  151.4008  140.3849  155.8386 C   0  0  0  0  0  0  0  0  0  0  0  0
  150.1737  140.9482  155.4298 C   0  0  0  0  0  0  0  0  0  0  0  0
  149.3915  140.1910  154.5565 C   0  0  0  0  0  0  0  0  0  0  0  0
  145.5134  144.0856  153.7287 C   0  0  0  0  0  0  0  0  0  0  0  0
  144.6330  145.0755  152.9443 C   0  0  2  0  0  0  0  0  0  0  0  0
  145.3632  145.6581  151.7294 C   0  0  0  0  0  0  0  0  0  0  0  0
  144.2641  146.1587  153.7942 O   0  0  0  0  0  0  0  0  0  0  0  0
  141.5852  145.1553  155.6262 H   0  0  0  0  0  0  0  0  0  0  0  0
  142.1142  144.3581  154.1549 H   0  0  0  0  0  0  0  0  0  0  0  0
  141.5914  146.0402  154.1068 H   0  0  0  0  0  0  0  0  0  0  0  0
  143.4865  146.6879  155.5840 H   0  0  0  0  0  0  0  0  0  0  0  0
  145.3089  145.2481  156.1682 H   0  0  0  0  0  0  0  0  0  0  0  0
  143.8417  144.4210  156.6525 H   0  0  0  0  0  0  0  0  0  0  0  0
  146.3803  143.0236  156.2130 H   0  0  0  0  0  0  0  0  0  0  0  0
  144.8889  142.1586  156.4781 H   0  0  0  0  0  0  0  0  0  0  0  0
  145.3124  141.2763  153.9651 H   0  0  0  0  0  0  0  0  0  0  0  0
  145.6545  139.5170  155.0239 H   0  0  0  0  0  0  0  0  0  0  0  0
  147.3375  142.2028  153.2803 H   0  0  0  0  0  0  0  0  0  0  0  0
  148.0019  142.2964  154.8847 H   0  0  0  0  0  0  0  0  0  0  0  0
  145.8869  138.4948  152.8789 H   0  0  0  0  0  0  0  0  0  0  0  0
  146.0260  140.1547  152.3214 H   0  0  0  0  0  0  0  0  0  0  0  0
  145.9644  138.7913  150.5725 H   0  0  0  0  0  0  0  0  0  0  0  0
  151.3359  137.3809  154.1627 H   0  0  0  0  0  0  0  0  0  0  0  0
  152.7611  138.7161  155.7220 H   0  0  0  0  0  0  0  0  0  0  0  0
  152.0375  140.9383  156.5139 H   0  0  0  0  0  0  0  0  0  0  0  0
  149.8704  141.9202  155.7881 H   0  0  0  0  0  0  0  0  0  0  0  0
  146.4513  144.5618  154.0199 H   0  0  0  0  0  0  0  0  0  0  0  0
  145.7710  143.2448  153.0853 H   0  0  0  0  0  0  0  0  0  0  0  0
  143.7382  144.5658  152.5860 H   0  0  0  0  0  0  0  0  0  0  0  0
  145.6629  144.8716  151.0363 H   0  0  0  0  0  0  0  0  0  0  0  0
  146.2605  146.2002  152.0294 H   0  0  0  0  0  0  0  0  0  0  0  0
  144.7216  146.3519  151.1856 H   0  0  0  0  0  0  0  0  0  0  0  0
  143.9385  143.1862  154.6295 H   0  0  0  0  0  0  0  0  0  0  0  0
  148.8099  137.5454  152.7858 H   0  0  0  0  0  0  0  0  0  0  0  0
  1  2  1  0  0  0  0
  1 24  1  0  0  0  0
  1 25  1  0  0  0  0
  1 26  1  0  0  0  0
  2 23  1  0  0  0  0
  2  3  1  0  0  0  0
  2 27  1  0  0  0  0
  3  4  1  0  0  0  0
  3 28  1  0  0  0  0
  3 29  1  0  0  0  0
  4  5  1  0  0  0  0
  4 20  1  0  0  0  0
  4 49  1  0  0  0  0
  5  6  1  0  0  0  0
  5 30  1  0  0  0  0
  5 31  1  0  0  0  0
  6  7  1  0  0  0  0
  6  8  1  0  0  0  0
  6 32  1  0  0  0  0
  7 33  1  0  0  0  0
  8  9  1  0  0  0  0
  8 34  1  0  0  0  0
  8 35  1  0  0  0  0
  9 19  1  0  0  0  0
  9 10  1  0  0  0  0
 10 11  1  0  0  0  0
 10 13  2  0  0  0  0
 11 12  1  0  0  0  0
 11 36  1  0  0  0  0
 11 37  1  0  0  0  0
 12 38  1  0  0  0  0
 13 14  1  0  0  0  0
 13 50  1  0  0  0  0
 14 19  2  0  0  0  0
 14 15  1  0  0  0  0
 15 16  2  0  0  0  0
 15 39  1  0  0  0  0
 16 17  1  0  0  0  0
 16 40  1  0  0  0  0
 17 18  2  0  0  0  0
 17 41  1  0  0  0  0
 18 19  1  0  0  0  0
 18 42  1  0  0  0  0
 20 21  1  0  0  0  0
 20 43  1  0  0  0  0
 20 44  1  0  0  0  0
 21 22  1  0  0  0  0
 21 23  1  0  0  0  0
 21 45  1  0  0  0  0
 22 46  1  0  0  0  0
 22 47  1  0  0  0  0
 22 48  1  0  0  0  0
M  CHG  1   4   1
M  CHG  1  13   1
M  END
> <s_m_source_file>
AV-unprocessed.smi

> <i_m_source_file_index>
1703

> <i_lp_mmshare_version>
43012

> <i_f3d_flags>
0

> <s_epik_input>
W0NIM11bQ0BASF0xW0NIMl1OKFtDSDJdW0NASF0oTzEpW0NIM10pW0NIMl1bQ0BIXShbT0hdKVtDSDJdbihjKG4yKVtDSDJdW09IXSljKGMyMylbY0hdW2NIXVtjSF1bY0hdMw==

> <s_epik_cmdline>
J2VwaWtfcHl0aG9uJywgJy1waCcsICc3LjAnLCAnLXRuJywgJzgnLCAnLW1hJywgJzIwMCcsICctbWV0YWxfYmluZGluZycsICctaW1hZScsICc8aW5maWxlLm1hZT4nLCAnLW9tYWUnLCAnPG91dGZpbGUubWFlPic=

> <r_epik_Ionization_Penalty>
2.22579

> <r_epik_Ionization_Penalty_Charging>
2.22492

> <r_epik_Ionization_Penalty_Neutral>
0.000870007

> <r_epik_State_Penalty>
2.3141

> <r_epik_Charging_Adjusted_Penalty>
4.53902

> <i_epik_Tot_Q>
2

> <i_epik_Tot_abs_Q>
2

> <r_epik_Metal_State_Penalty>
6.36517

> <b_epik_Metal_Only>
0

> <s_lp_Force_Field>
OPLS_2005

> <r_lp_Energy>
31.039

> <b_lp_Chiralities_Consistent>
1

> <s_lp_Variant>
AV-unprocessed.smi:1703-26

> <Gold.Version>
5.8.1

> <Gold.Id.Protein>
6NUR|6NUR_protein|mol2

> <Gold.PLP.Fitness>
56.0048

> <Gold.PLP.PLP>
-47.2197

> <Gold.PLP.part.hbond>
-5.3795

> <Gold.PLP.part.metal>
0.0000

> <Gold.PLP.part.buried>
1.1217

> <Gold.PLP.part.nonpolar>
-43.0120

> <Gold.PLP.part.repulsive>
0.1335

> <Gold.PLP.ligand.clash>
0.0000

> <Gold.PLP.ligand.torsion>
0.9367

> <Gold.PLP.Chemscore.Hbond>
3.5283

> <Gold.PLP.Chemscore.CHOScore>
0.0000

> <Gold.PLP.Chemscore.Metal>
0.0000

> <Gold.Chemscore.Hbonds>
donor molecule, donor type, donor heavy atom, donor atom, acceptor molecule, acceptor atom, score
      L1  H    12    38       P1 10171  0.55
      L1  H    13    50       P1  7948  2.00
      P1  H  7954  7966       L1    12  0.94

> <Gold.PLP.Chemscore.Internal.Correction>
0.0738

> <Gold.Rescore>
     Score         DG    S(hbond)    S(metal)    S(lipo)     H(rot)  DE(clash)    DE(int)     intcor
     14.99     -19.00       2.41        0.00     113.12       3.04       2.85       1.15       ----

> <Gold.Chemscore.Fitness>
14.9948

> <Gold.Chemscore.DG>
-18.9980

> <Gold.Chemscore.ZeroCoef>
-5.4800

> <Gold.Chemscore.Hbond>
2.4131

> <Gold.Chemscore.Metal>
0.0000

> <Gold.Chemscore.Lipo>
113.1191

> <Gold.Chemscore.Internal_Hbond>
0.0000

> <Gold.Chemscore.DEClash>
2.8499

> <Gold.Chemscore.DEInternal>
1.1533

> <Gold.Chemscore.Rot>
3.0378

> <Gold.Chemscore.Internal.Correction>
   9.000000E+99

> <Gold.Chemscore.Hbonds>
donor molecule, donor type, donor heavy atom, donor atom, acceptor molecule, acceptor atom, score
      L1  H    12    38       P1 10171  0.54
      L1  H    13    50       P1  7948  0.98
      P1  H  7954  7966       L1    12  0.61

> <Gold.Chemscore.Hbond.Weighted>
-8.0597

> <Gold.Chemscore.Metal.Weighted>
-0.0000

> <Gold.Chemscore.Lipo.Weighted>
-13.2349

> <Gold.Chemscore.Internal_Hbond.Weighted>
0.0000

> <Gold.Chemscore.DEClash.Weighted>
2.8499

> <Gold.Chemscore.DEInternal.Weighted>
1.1533

> <Gold.Chemscore.Rot.Weighted>
7.7767

> <Gold.Chemscore.Internal.Correction.Weighted>
   9.000000E+99

> <Gold.Protein.RotatedTorsions>
[ 6907 6896 6895 6894 ] final -176.54 input  -60.11 | X-H torsion
[ 7974 7965 7964 7962 ] final  -42.91 input  175.53 | X-H torsion
[ 8008 7997 7996 7995 ] final   77.73 input   59.86 | X-H torsion
[ 10167 10162 10161 10158 ] final -120.54 input  -65.29 | X-H torsion
[ 10718 10713 10712 10709 ] final  145.47 input   66.30 | X-H torsion
[ 10763 10752 10751 10750 ] final   46.37 input  -60.55 | X-H torsion
[ 11005 11000 10999 10996 ] final  -79.22 input  -57.11 | X-H torsion

> <Gold.Protein.ActiveResidues>
 VAL166  LYS551  ARG553  GLY616  TRP617  ASP618  TYR619  PRO620  LYS621  CYS622 
 ASP623  PHE694  ASN695  SER759  ASP760  ASP761  ALA762  ILE779  LEU786  VAL792 
 PHE793  MET794  SER795  GLU796  ALA797  LYS798  CYS799  TRP800  GLU811  SER814 

> <Gold.Protein.RotatedAtoms>
  151.6065  133.3351  159.3058 H   0  0  0  0  0  0  0  0  0  0  0  0  # atno 6907 bound_to 6896
  150.8179  134.7375  159.6758 H   0  0  0  0  0  0  0  0  0  0  0  0  # atno 6908 bound_to 6896
  152.4274  134.5847  160.0009 H   0  0  0  0  0  0  0  0  0  0  0  0  # atno 6909 bound_to 6896
  146.0070  140.7009  142.9243 H   0  0  0  0  0  0  0  0  0  0  0  0  # atno 7974 bound_to 7965
  155.8457  140.3460  155.5661 H   0  0  0  0  0  0  0  0  0  0  0  0  # atno 8008 bound_to 7997
  155.8092  140.0896  157.1933 H   0  0  0  0  0  0  0  0  0  0  0  0  # atno 8009 bound_to 7997
  154.4006  140.1451  156.3354 H   0  0  0  0  0  0  0  0  0  0  0  0  # atno 8010 bound_to 7997
  140.0347  143.5213  152.2159 H   0  0  0  0  0  0  0  0  0  0  0  0  # atno 10167 bound_to 10162
  157.3449  131.0941  151.1050 H   0  0  0  0  0  0  0  0  0  0  0  0  # atno 10718 bound_to 10713
  152.9812  135.6010  154.3588 H   0  0  0  0  0  0  0  0  0  0  0  0  # atno 10763 bound_to 10752
  154.3272  135.2769  155.2492 H   0  0  0  0  0  0  0  0  0  0  0  0  # atno 10764 bound_to 10752
  154.4632  135.5960  153.6326 H   0  0  0  0  0  0  0  0  0  0  0  0  # atno 10765 bound_to 10752
  141.1667  133.7096  156.8089 H   0  0  0  0  0  0  0  0  0  0  0  0  # atno 11005 bound_to 11000
  144.6939  140.3332  143.7212 LP  0  0  0  0  0  0  0  0  0  0  0  0  # atno 17320 bound_to 7965
  145.7401  139.1761  143.2381 LP  0  0  0  0  0  0  0  0  0  0  0  0  # atno 17321 bound_to 7965
  139.6053  144.7594  151.3077 LP  0  0  0  0  0  0  0  0  0  0  0  0  # atno 17342 bound_to 10162
  140.7286  143.6930  150.7907 LP  0  0  0  0  0  0  0  0  0  0  0  0  # atno 17343 bound_to 10162
  157.2248  130.6498  149.5825 LP  0  0  0  0  0  0  0  0  0  0  0  0  # atno 17370 bound_to 10713
  155.9713  130.4617  150.6121 LP  0  0  0  0  0  0  0  0  0  0  0  0  # atno 17371 bound_to 10713
  140.2202  134.8763  157.3369 LP  0  0  0  0  0  0  0  0  0  0  0  0  # atno 17394 bound_to 11000
  140.1996  134.4271  155.7670 LP  0  0  0  0  0  0  0  0  0  0  0  0  # atno 17395 bound_to 11000

$$$$
