AV-unprocessed.smi:158|AV-procd|sdf|1334|dock10
  -GOLD-   2262019 33D 1   1.00000     0.00000
 Structure written by MMmdl.
 31 33  0  0  0  0  0  0  0  0  1 V2000
  144.1878  142.0562  155.0046 N   0  0  0  0  0  0  0  0  0  0  0  0
  145.2234  141.9311  155.8464 C   0  0  0  0  0  0  0  0  0  0  0  0
  145.2536  142.7138  156.9497 N   0  0  0  0  0  0  0  0  0  0  0  0
  146.2722  142.6230  157.8125 C   0  0  0  0  0  0  0  0  0  0  0  0
  146.2134  143.6628  159.1865 Cl  0  0  0  0  0  0  0  0  0  0  0  0
  147.3329  141.8145  157.7303 N   0  0  0  0  0  0  0  0  0  0  0  0
  147.3077  141.0155  156.6239 C   0  0  0  0  0  0  0  0  0  0  0  0
  146.2871  141.0200  155.6340 C   0  0  0  0  0  0  0  0  0  0  0  0
  146.5805  140.0939  154.6439 N   0  0  0  0  0  0  0  0  0  0  0  0
  147.7118  139.5710  155.0323 C   0  0  0  0  0  0  0  0  0  0  0  0
  148.2208  140.0576  156.2177 N   0  0  0  0  0  0  0  0  0  0  0  0
  149.4990  139.6281  156.8834 C   0  0  1  0  0  0  0  0  0  0  0  0
  149.7666  138.2955  156.5528 O   0  0  0  0  0  0  0  0  0  0  0  0
  151.0212  138.1877  155.8767 C   0  0  1  0  0  0  0  0  0  0  0  0
  151.0352  137.0148  154.8794 C   0  0  0  0  0  0  0  0  0  0  0  0
  152.0420  137.2117  153.9091 O   0  0  0  0  0  0  0  0  0  0  0  0
  151.3103  139.5877  155.3142 C   0  0  1  0  0  0  0  0  0  0  0  0
  150.6973  139.7924  154.0544 O   0  0  0  0  0  0  0  0  0  0  0  0
  150.6973  140.4576  156.3958 C   0  0  1  0  0  0  0  0  0  0  0  0
  150.3640  141.6871  155.9950 F   0  0  0  0  0  0  0  0  0  0  0  0
  149.2951  139.7423  157.9485 H   0  0  0  0  0  0  0  0  0  0  0  0
  151.7550  137.9836  156.6584 H   0  0  0  0  0  0  0  0  0  0  0  0
  152.3805  139.7679  155.2073 H   0  0  0  0  0  0  0  0  0  0  0  0
  151.3951  140.5626  157.2272 H   0  0  0  0  0  0  0  0  0  0  0  0
  144.1439  141.4836  154.1737 H   0  0  0  0  0  0  0  0  0  0  0  0
  143.4536  142.7204  155.2030 H   0  0  0  0  0  0  0  0  0  0  0  0
  148.2109  138.8010  154.4621 H   0  0  0  0  0  0  0  0  0  0  0  0
  151.2483  136.0844  155.4066 H   0  0  0  0  0  0  0  0  0  0  0  0
  150.0719  136.8846  154.3869 H   0  0  0  0  0  0  0  0  0  0  0  0
  151.6556  137.1136  153.0521 H   0  0  0  0  0  0  0  0  0  0  0  0
  149.8058  139.4821  154.1014 H   0  0  0  0  0  0  0  0  0  0  0  0
  1  2  1  0  0  0  0
  1 25  1  0  0  0  0
  1 26  1  0  0  0  0
  2  8  1  0  0  0  0
  2  3  2  0  0  0  0
  3  4  1  0  0  0  0
  4  5  1  0  0  0  0
  4  6  2  0  0  0  0
  6  7  1  0  0  0  0
  7 11  1  0  0  0  0
  7  8  2  0  0  0  0
  8  9  1  0  0  0  0
  9 10  2  0  0  0  0
 10 11  1  0  0  0  0
 10 27  1  0  0  0  0
 11 12  1  0  0  0  0
 12 21  1  0  0  0  0
 12 19  1  0  0  0  0
 12 13  1  0  0  0  0
 13 14  1  0  0  0  0
 14 22  1  0  0  0  0
 14 15  1  0  0  0  0
 14 17  1  0  0  0  0
 15 16  1  0  0  0  0
 15 28  1  0  0  0  0
 15 29  1  0  0  0  0
 16 30  1  0  0  0  0
 17 23  1  0  0  0  0
 17 18  1  0  0  0  0
 17 19  1  0  0  0  0
 18 31  1  0  0  0  0
 19 24  1  0  0  0  0
 19 20  1  0  0  0  0
M  END
> <s_m_source_file>
AV-unprocessed.smi

> <i_m_source_file_index>
158

> <i_lp_mmshare_version>
43012

> <i_f3d_flags>
0

> <s_epik_input>
Q2xjKG4xKW5jKFtOSDJdKWMoYzEyKW5bY0hdbjJbQ0BASF0zT1tDQEhdKFtDSDJdW09IXSlbQ0BASF0oW09IXSlbQ0BASF0zRg==

> <s_epik_cmdline>
J2VwaWtfcHl0aG9uJywgJy1waCcsICc3LjAnLCAnLXRuJywgJzgnLCAnLW1hJywgJzIwMCcsICctbWV0YWxfYmluZGluZycsICctaW1hZScsICc8aW5maWxlLm1hZT4nLCAnLW9tYWUnLCAnPG91dGZpbGUubWFlPic=

> <r_lp_tautomer_probability>
1

> <r_epik_Ionization_Penalty>
6.51543e-05

> <r_epik_Ionization_Penalty_Charging>
0

> <r_epik_Ionization_Penalty_Neutral>
6.51543e-05

> <r_epik_State_Penalty>
-0

> <r_epik_Charging_Adjusted_Penalty>
0

> <i_epik_Tot_Q>
0

> <i_epik_Tot_abs_Q>
0

> <r_epik_Metal_State_Penalty>
-0

> <b_epik_Metal_Only>
0

> <s_epik_Chemistry_Notes>
This compound contains an acetal/aminal-like group ( X-CH(R)-Y where X, Y are N, S, or O) that may be acid/base labile, releasing an aldehyde.

> <s_lp_Force_Field>
OPLS_2005

> <r_lp_Energy>
41.2986

> <b_lp_Chiralities_Consistent>
1

> <s_lp_Variant>
AV-unprocessed.smi:158-12

> <Gold.Version>
5.8.1

> <Gold.Id.Protein>
6NUR|6NUR_protein|mol2

> <Gold.PLP.Fitness>
32.1975

> <Gold.PLP.PLP>
-21.3581

> <Gold.PLP.part.hbond>
-5.0010

> <Gold.PLP.part.metal>
0.0000

> <Gold.PLP.part.buried>
-3.3921

> <Gold.PLP.part.nonpolar>
-13.5053

> <Gold.PLP.part.repulsive>
0.2765

> <Gold.PLP.ligand.clash>
0.0000

> <Gold.PLP.ligand.torsion>
0.9752

> <Gold.PLP.Chemscore.Hbond>
4.0000

> <Gold.PLP.Chemscore.CHOScore>
0.0000

> <Gold.PLP.Chemscore.Metal>
0.0000

> <Gold.Chemscore.Hbonds>
donor molecule, donor type, donor heavy atom, donor atom, acceptor molecule, acceptor atom, score
      L1  H     1    25       P1 10175  1.00
      L1  H    16    30       P1  7949  1.00
      P1  H  7989  7998       L1    18  0.99
      P1  H 10752 10765       L1    16  1.00

> <Gold.PLP.Chemscore.Internal.Correction>
0.7897

> <Gold.Rescore>
     Score         DG    S(hbond)    S(metal)    S(lipo)     H(rot)  DE(clash)    DE(int)     intcor
      7.59      -8.59       2.34        0.00      28.26       3.12       0.09       0.91       ----

> <Gold.Chemscore.Fitness>
7.5903

> <Gold.Chemscore.DG>
-8.5933

> <Gold.Chemscore.ZeroCoef>
-5.4800

> <Gold.Chemscore.Hbond>
2.3360

> <Gold.Chemscore.Metal>
0.0000

> <Gold.Chemscore.Lipo>
28.2560

> <Gold.Chemscore.Internal_Hbond>
0.0000

> <Gold.Chemscore.DEClash>
0.0901

> <Gold.Chemscore.DEInternal>
0.9129

> <Gold.Chemscore.Rot>
3.1230

> <Gold.Chemscore.Internal.Correction>
   9.000000E+99

> <Gold.Chemscore.Hbonds>
donor molecule, donor type, donor heavy atom, donor atom, acceptor molecule, acceptor atom, score
      L1  H     1    25       P1 10175  0.25
      L1  H    16    30       P1  7949  0.90
      P1  H  7989  7998       L1    18  0.24
      P1  H 10752 10765       L1    16  0.13

> <Gold.Chemscore.Hbond.Weighted>
-7.8023

> <Gold.Chemscore.Metal.Weighted>
-0.0000

> <Gold.Chemscore.Lipo.Weighted>
-3.3060

> <Gold.Chemscore.Internal_Hbond.Weighted>
0.0000

> <Gold.Chemscore.DEClash.Weighted>
0.0901

> <Gold.Chemscore.DEInternal.Weighted>
0.9129

> <Gold.Chemscore.Rot.Weighted>
7.9950

> <Gold.Chemscore.Internal.Correction.Weighted>
   9.000000E+99

> <Gold.Protein.RotatedTorsions>
[ 6907 6896 6895 6894 ] final   75.48 input  -60.11 | X-H torsion
[ 7974 7965 7964 7962 ] final   19.55 input  175.53 | X-H torsion
[ 8008 7997 7996 7995 ] final   76.26 input   59.86 | X-H torsion
[ 10167 10162 10161 10158 ] final   86.67 input  -65.29 | X-H torsion
[ 10718 10713 10712 10709 ] final  -53.12 input   66.30 | X-H torsion
[ 10763 10752 10751 10750 ] final  141.47 input  -60.55 | X-H torsion
[ 11005 11000 10999 10996 ] final -139.13 input  -57.11 | X-H torsion

> <Gold.Protein.ActiveResidues>
 VAL166  LYS551  ARG553  GLY616  TRP617  ASP618  TYR619  PRO620  LYS621  CYS622 
 ASP623  PHE694  ASN695  SER759  ASP760  ASP761  ALA762  ILE779  LEU786  VAL792 
 PHE793  MET794  SER795  GLU796  ALA797  LYS798  CYS799  TRP800  GLU811  SER814 

> <Gold.Protein.RotatedAtoms>
  152.5028  134.4113  159.9449 H   0  0  0  0  0  0  0  0  0  0  0  0  # atno 6907 bound_to 6896
  151.4082  133.3729  159.2748 H   0  0  0  0  0  0  0  0  0  0  0  0  # atno 6908 bound_to 6896
  150.9311  134.8748  159.7611 H   0  0  0  0  0  0  0  0  0  0  0  0  # atno 6909 bound_to 6896
  146.2145  139.8297  142.8662 H   0  0  0  0  0  0  0  0  0  0  0  0  # atno 7974 bound_to 7965
  155.8248  140.3468  155.5536 H   0  0  0  0  0  0  0  0  0  0  0  0  # atno 8008 bound_to 7997
  155.8304  140.0926  157.1816 H   0  0  0  0  0  0  0  0  0  0  0  0  # atno 8009 bound_to 7997
  154.4004  140.1413  156.3595 H   0  0  0  0  0  0  0  0  0  0  0  0  # atno 8010 bound_to 7997
  139.8852  144.6417  150.8799 H   0  0  0  0  0  0  0  0  0  0  0  0  # atno 10167 bound_to 10162
  156.1562  130.4150  149.9865 H   0  0  0  0  0  0  0  0  0  0  0  0  # atno 10718 bound_to 10713
  153.9397  135.2981  155.3443 H   0  0  0  0  0  0  0  0  0  0  0  0  # atno 10763 bound_to 10752
  154.7483  135.4992  153.9247 H   0  0  0  0  0  0  0  0  0  0  0  0  # atno 10764 bound_to 10752
  153.1049  135.6744  153.9712 H   0  0  0  0  0  0  0  0  0  0  0  0  # atno 10765 bound_to 10752
  140.8549  134.2240  157.4740 H   0  0  0  0  0  0  0  0  0  0  0  0  # atno 11005 bound_to 11000
  145.3010  141.0194  143.3609 LP  0  0  0  0  0  0  0  0  0  0  0  0  # atno 17320 bound_to 7965
  144.9006  139.4654  143.6634 LP  0  0  0  0  0  0  0  0  0  0  0  0  # atno 17321 bound_to 7965
  140.7737  143.3554  151.1932 LP  0  0  0  0  0  0  0  0  0  0  0  0  # atno 17342 bound_to 10162
  139.7160  143.9300  152.2966 LP  0  0  0  0  0  0  0  0  0  0  0  0  # atno 17343 bound_to 10162
  156.7708  130.9185  151.3644 LP  0  0  0  0  0  0  0  0  0  0  0  0  # atno 17370 bound_to 10713
  157.6697  130.9039  150.0012 LP  0  0  0  0  0  0  0  0  0  0  0  0  # atno 17371 bound_to 10713
  139.8705  134.9701  156.4691 LP  0  0  0  0  0  0  0  0  0  0  0  0  # atno 17394 bound_to 11000
  140.8748  133.7961  155.9403 LP  0  0  0  0  0  0  0  0  0  0  0  0  # atno 17395 bound_to 11000

$$$$
