AV-unprocessed.smi:176|AV-procd|sdf|1434|dock5
  -GOLD-   2262019213D 1   1.00000     0.00000
 Structure written by MMmdl.
 57 61  0  0  0  0  0  0  0  0  1 V2000
  143.0585  138.4825  153.2803 O   0  0  0  0  0  0  0  0  0  0  0  0
  143.2162  137.2247  152.6559 C   0  0  0  0  0  0  0  0  0  0  0  0
  144.6173  136.6475  152.9150 C   0  0  0  0  0  0  0  0  0  0  0  0
  144.6933  135.2199  152.3371 C   0  0  0  0  0  0  0  0  0  0  0  0
  143.8245  134.3385  153.0202 O   0  0  0  0  0  0  0  0  0  0  0  0
  145.7977  137.5729  152.5430 C   0  0  0  0  0  0  0  0  0  0  0  0
  146.5163  137.1644  153.8306 C   0  0  0  0  0  0  0  0  0  0  0  0
  147.3587  138.0894  154.5296 N   0  0  0  0  0  0  0  0  0  0  0  0
  148.5901  138.5531  154.1238 C   0  0  0  0  0  0  0  0  0  0  0  0
  149.1457  139.4262  154.9186 N   0  0  0  0  0  0  0  0  0  0  0  0
  148.2125  139.6022  155.9332 C   0  0  0  0  0  0  0  0  0  0  0  0
  148.1636  140.4111  157.1028 C   0  0  0  0  0  0  0  0  0  0  0  0
  149.1852  141.2248  157.4681 N   0  0  0  0  0  0  0  0  0  0  0  0
  148.8122  142.6271  157.6395 C   0  0  0  0  0  0  0  0  0  0  0  0
  149.8748  143.3825  158.4559 C   0  0  0  0  0  0  0  0  0  0  0  0
  151.2967  143.2067  157.8705 C   0  0  1  0  0  0  0  0  0  0  0  0
  151.3255  143.8739  156.6209 O   0  0  0  0  0  0  0  0  0  0  0  0
  152.3838  143.8838  158.7382 C   0  0  0  0  0  0  0  0  0  0  0  0
  152.6659  143.1269  160.0466 C   0  0  0  0  0  0  0  0  0  0  0  0
  153.0227  141.6608  159.7681 C   0  0  0  0  0  0  0  0  0  0  0  0
  151.9142  140.9663  158.9641 C   0  0  0  0  0  0  0  0  0  0  0  0
  151.6180  141.7033  157.6387 C   0  0  1  0  0  0  0  0  0  0  0  0
  150.4923  141.0003  156.8495 C   0  0  0  0  0  0  0  0  0  0  0  0
  147.0384  140.3450  157.8638 N   0  0  0  0  0  0  0  0  0  0  0  0
  146.0343  139.5358  157.5133 C   0  0  0  0  0  0  0  0  0  0  0  0
  145.9482  138.7204  156.4604 N   0  0  0  0  0  0  0  0  0  0  0  0
  147.0722  138.7859  155.6906 C   0  0  0  0  0  0  0  0  0  0  0  0
  145.1298  136.7965  154.3641 C   0  0  0  0  0  0  0  0  0  0  0  0
  143.2326  139.1578  152.6425 H   0  0  0  0  0  0  0  0  0  0  0  0
  142.4321  136.5531  153.0060 H   0  0  0  0  0  0  0  0  0  0  0  0
  143.0462  137.3611  151.5876 H   0  0  0  0  0  0  0  0  0  0  0  0
  144.4168  135.2067  151.2828 H   0  0  0  0  0  0  0  0  0  0  0  0
  145.7072  134.8226  152.3877 H   0  0  0  0  0  0  0  0  0  0  0  0
  143.6906  133.5730  152.4826 H   0  0  0  0  0  0  0  0  0  0  0  0
  146.3283  137.3046  151.6290 H   0  0  0  0  0  0  0  0  0  0  0  0
  145.5273  138.6306  152.5377 H   0  0  0  0  0  0  0  0  0  0  0  0
  147.1190  136.2692  153.6681 H   0  0  0  0  0  0  0  0  0  0  0  0
  149.0725  138.2170  153.2174 H   0  0  0  0  0  0  0  0  0  0  0  0
  148.7037  143.0818  156.6541 H   0  0  0  0  0  0  0  0  0  0  0  0
  147.8454  142.7252  158.1324 H   0  0  0  0  0  0  0  0  0  0  0  0
  149.6134  144.4401  158.5110 H   0  0  0  0  0  0  0  0  0  0  0  0
  149.8425  143.0132  159.4806 H   0  0  0  0  0  0  0  0  0  0  0  0
  150.4358  144.0118  156.3342 H   0  0  0  0  0  0  0  0  0  0  0  0
  153.3158  143.9402  158.1731 H   0  0  0  0  0  0  0  0  0  0  0  0
  152.1040  144.9145  158.9601 H   0  0  0  0  0  0  0  0  0  0  0  0
  153.4836  143.6100  160.5818 H   0  0  0  0  0  0  0  0  0  0  0  0
  151.7991  143.1778  160.7059 H   0  0  0  0  0  0  0  0  0  0  0  0
  153.9624  141.6099  159.2167 H   0  0  0  0  0  0  0  0  0  0  0  0
  153.1865  141.1331  160.7081 H   0  0  0  0  0  0  0  0  0  0  0  0
  152.2080  139.9367  158.7573 H   0  0  0  0  0  0  0  0  0  0  0  0
  151.0120  140.9056  159.5738 H   0  0  0  0  0  0  0  0  0  0  0  0
  152.5273  141.6383  157.0386 H   0  0  0  0  0  0  0  0  0  0  0  0
  150.7020  139.9314  156.7859 H   0  0  0  0  0  0  0  0  0  0  0  0
  150.4659  141.3780  155.8262 H   0  0  0  0  0  0  0  0  0  0  0  0
  145.1788  139.5405  158.1721 H   0  0  0  0  0  0  0  0  0  0  0  0
  144.6540  137.6214  154.8984 H   0  0  0  0  0  0  0  0  0  0  0  0
  145.1021  135.8814  154.9565 H   0  0  0  0  0  0  0  0  0  0  0  0
  1  2  1  0  0  0  0
  1 29  1  0  0  0  0
  2  3  1  0  0  0  0
  2 30  1  0  0  0  0
  2 31  1  0  0  0  0
  3 28  1  0  0  0  0
  3  4  1  0  0  0  0
  3  6  1  0  0  0  0
  4  5  1  0  0  0  0
  4 32  1  0  0  0  0
  4 33  1  0  0  0  0
  5 34  1  0  0  0  0
  6  7  1  0  0  0  0
  6 35  1  0  0  0  0
  6 36  1  0  0  0  0
  7  8  1  0  0  0  0
  7 28  1  0  0  0  0
  7 37  1  0  0  0  0
  8 27  1  0  0  0  0
  8  9  1  0  0  0  0
  9 10  2  0  0  0  0
  9 38  1  0  0  0  0
 10 11  1  0  0  0  0
 11 27  2  0  0  0  0
 11 12  1  0  0  0  0
 12 13  1  0  0  0  0
 12 24  2  0  0  0  0
 13 23  1  0  0  0  0
 13 14  1  0  0  0  0
 14 15  1  0  0  0  0
 14 39  1  0  0  0  0
 14 40  1  0  0  0  0
 15 16  1  0  0  0  0
 15 41  1  0  0  0  0
 15 42  1  0  0  0  0
 16 22  1  0  0  0  0
 16 17  1  0  0  0  0
 16 18  1  0  0  0  0
 17 43  1  0  0  0  0
 18 19  1  0  0  0  0
 18 44  1  0  0  0  0
 18 45  1  0  0  0  0
 19 20  1  0  0  0  0
 19 46  1  0  0  0  0
 19 47  1  0  0  0  0
 20 21  1  0  0  0  0
 20 48  1  0  0  0  0
 20 49  1  0  0  0  0
 21 22  1  0  0  0  0
 21 50  1  0  0  0  0
 21 51  1  0  0  0  0
 22 23  1  0  0  0  0
 22 52  1  0  0  0  0
 23 53  1  0  0  0  0
 23 54  1  0  0  0  0
 24 25  1  0  0  0  0
 25 26  2  0  0  0  0
 25 55  1  0  0  0  0
 26 27  1  0  0  0  0
 28 56  1  0  0  0  0
 28 57  1  0  0  0  0
M  END
> <s_m_source_file>
AV-unprocessed.smi

> <i_m_source_file_index>
176

> <i_lp_mmshare_version>
43012

> <i_f3d_flags>
0

> <s_epik_input>
W09IXVtDSDJdQzEoW0NIMl1bT0hdKVtDSDJdW0NIXShbQ0gyXTEpbihbY0hdbjIpYyhjMjMpbltjSF1uYzNOKFtDSDJdW0NIMl00KVtDSDJdW0NAQEhdKFtDQF00NVtPSF0pW0NIMl1bQ0gyXVtDSDJdW0NIMl01

> <s_epik_cmdline>
J2VwaWtfcHl0aG9uJywgJy1waCcsICc3LjAnLCAnLXRuJywgJzgnLCAnLW1hJywgJzIwMCcsICctbWV0YWxfYmluZGluZycsICctaW1hZScsICc8aW5maWxlLm1hZT4nLCAnLW9tYWUnLCAnPG91dGZpbGUubWFlPic=

> <r_lp_tautomer_probability>
1

> <r_epik_Ionization_Penalty>
0.00642876

> <r_epik_Ionization_Penalty_Charging>
0

> <r_epik_Ionization_Penalty_Neutral>
0.00642876

> <r_epik_State_Penalty>
0.00467813

> <r_epik_Charging_Adjusted_Penalty>
0.00467813

> <i_epik_Tot_Q>
0

> <i_epik_Tot_abs_Q>
0

> <r_epik_Metal_State_Penalty>
-0

> <b_epik_Metal_Only>
0

> <s_lp_Force_Field>
OPLS_2005

> <r_lp_Energy>
50.7593

> <b_lp_Chiralities_Consistent>
1

> <s_lp_Variant>
AV-unprocessed.smi:176-2

> <Gold.Version>
5.8.1

> <Gold.Id.Protein>
6NUR|6NUR_protein|mol2

> <Gold.PLP.Fitness>
48.5245

> <Gold.PLP.PLP>
-36.8461

> <Gold.PLP.part.hbond>
-2.6873

> <Gold.PLP.part.metal>
0.0000

> <Gold.PLP.part.buried>
-6.1637

> <Gold.PLP.part.nonpolar>
-28.0053

> <Gold.PLP.part.repulsive>
0.1428

> <Gold.PLP.ligand.clash>
0.0000

> <Gold.PLP.ligand.torsion>
0.5764

> <Gold.PLP.Chemscore.Hbond>
2.0000

> <Gold.PLP.Chemscore.CHOScore>
1.9835

> <Gold.PLP.Chemscore.Metal>
0.0000

> <Gold.Chemscore.Hbonds>
donor molecule, donor type, donor heavy atom, donor atom, acceptor molecule, acceptor atom, score
      L1  H     1    29       P1 10175  0.49
      L1  H    17    43       P1  8028  1.00
      L1  C     9    38       P1  7948  1.00
      L1  C     9    38       P1  7957  0.30

> <Gold.PLP.Chemscore.Internal.Correction>
0.8806

> <Gold.Rescore>
     Score         DG    S(hbond)    S(metal)    S(lipo)     H(rot)  DE(clash)    DE(int)     intcor
     10.79     -13.99       1.98        0.00      97.41       3.71       0.05       3.15       ----

> <Gold.Chemscore.Fitness>
10.7883

> <Gold.Chemscore.DG>
-13.9878

> <Gold.Chemscore.ZeroCoef>
-5.4800

> <Gold.Chemscore.Hbond>
1.9793

> <Gold.Chemscore.Metal>
0.0000

> <Gold.Chemscore.Lipo>
97.4111

> <Gold.Chemscore.Internal_Hbond>
0.0000

> <Gold.Chemscore.DEClash>
0.0515

> <Gold.Chemscore.DEInternal>
3.1480

> <Gold.Chemscore.Rot>
3.7109

> <Gold.Chemscore.Internal.Correction>
   9.000000E+99

> <Gold.Chemscore.Hbonds>
donor molecule, donor type, donor heavy atom, donor atom, acceptor molecule, acceptor atom, score
      L1  H     1    29       P1 10175  0.48
      L1  H    17    43       P1  8028  1.00

> <Gold.Chemscore.Hbond.Weighted>
-6.6107

> <Gold.Chemscore.Metal.Weighted>
-0.0000

> <Gold.Chemscore.Lipo.Weighted>
-11.3971

> <Gold.Chemscore.Internal_Hbond.Weighted>
0.0000

> <Gold.Chemscore.DEClash.Weighted>
0.0515

> <Gold.Chemscore.DEInternal.Weighted>
3.1480

> <Gold.Chemscore.Rot.Weighted>
9.5000

> <Gold.Chemscore.Internal.Correction.Weighted>
   9.000000E+99

> <Gold.Protein.RotatedTorsions>
[ 6907 6896 6895 6894 ] final  -90.35 input  -60.11 | X-H torsion
[ 7974 7965 7964 7962 ] final   60.80 input  175.53 | X-H torsion
[ 8008 7997 7996 7995 ] final   23.70 input   59.86 | X-H torsion
[ 10167 10162 10161 10158 ] final -169.38 input  -65.29 | X-H torsion
[ 10718 10713 10712 10709 ] final  -50.56 input   66.30 | X-H torsion
[ 10763 10752 10751 10750 ] final    9.53 input  -60.55 | X-H torsion
[ 11005 11000 10999 10996 ] final  -54.39 input  -57.11 | X-H torsion

> <Gold.Protein.ActiveResidues>
 VAL166  LYS551  ARG553  GLY616  TRP617  ASP618  TYR619  PRO620  LYS621  CYS622 
 ASP623  PHE694  ASN695  SER759  ASP760  ASP761  ALA762  ILE779  LEU786  VAL792 
 PHE793  MET794  SER795  GLU796  ALA797  LYS798  CYS799  TRP800  GLU811  SER814 

> <Gold.Protein.RotatedAtoms>
  150.6881  134.2446  159.4485 H   0  0  0  0  0  0  0  0  0  0  0  0  # atno 6907 bound_to 6896
  152.0388  134.9721  160.0583 H   0  0  0  0  0  0  0  0  0  0  0  0  # atno 6908 bound_to 6896
  152.1231  133.4330  159.4722 H   0  0  0  0  0  0  0  0  0  0  0  0  # atno 6909 bound_to 6896
  145.8920  139.3518  143.0644 H   0  0  0  0  0  0  0  0  0  0  0  0  # atno 7974 bound_to 7965
  154.9850  140.3106  155.4930 H   0  0  0  0  0  0  0  0  0  0  0  0  # atno 8008 bound_to 7997
  156.2948  140.2259  156.4891 H   0  0  0  0  0  0  0  0  0  0  0  0  # atno 8009 bound_to 7997
  154.7755  140.0449  157.1074 H   0  0  0  0  0  0  0  0  0  0  0  0  # atno 8010 bound_to 7997
  139.5926  144.1180  152.1652 H   0  0  0  0  0  0  0  0  0  0  0  0  # atno 10167 bound_to 10162
  156.1789  130.4150  149.9536 H   0  0  0  0  0  0  0  0  0  0  0  0  # atno 10718 bound_to 10713
  153.2130  135.6871  153.8091 H   0  0  0  0  0  0  0  0  0  0  0  0  # atno 10763 bound_to 10752
  153.7317  135.3251  155.3288 H   0  0  0  0  0  0  0  0  0  0  0  0  # atno 10764 bound_to 10752
  154.8231  135.4637  154.0945 H   0  0  0  0  0  0  0  0  0  0  0  0  # atno 10765 bound_to 10752
  141.1023  133.6616  156.4314 H   0  0  0  0  0  0  0  0  0  0  0  0  # atno 11005 bound_to 11000
  145.8897  140.9312  143.0558 LP  0  0  0  0  0  0  0  0  0  0  0  0  # atno 17320 bound_to 7965
  144.6731  140.0889  143.7466 LP  0  0  0  0  0  0  0  0  0  0  0  0  # atno 17321 bound_to 7965
  140.0758  144.5742  150.7158 LP  0  0  0  0  0  0  0  0  0  0  0  0  # atno 17342 bound_to 10162
  140.7186  143.2567  151.4353 LP  0  0  0  0  0  0  0  0  0  0  0  0  # atno 17343 bound_to 10162
  156.7312  130.9044  151.3626 LP  0  0  0  0  0  0  0  0  0  0  0  0  # atno 17370 bound_to 10713
  157.6855  130.9181  150.0375 LP  0  0  0  0  0  0  0  0  0  0  0  0  # atno 17371 bound_to 10713
  140.4990  134.6504  157.5241 LP  0  0  0  0  0  0  0  0  0  0  0  0  # atno 17394 bound_to 11000
  139.9880  134.7031  155.9740 LP  0  0  0  0  0  0  0  0  0  0  0  0  # atno 17395 bound_to 11000

$$$$
