AV-unprocessed.smi:210|AV-procd|sdf|1613|dock1
  -GOLD-   2262019533D 1   1.00000     0.00000
 Structure written by MMmdl.
 57 61  0  0  0  0  0  0  0  0  1 V2000
  150.7783  145.2043  160.7116 C   0  0  0  0  0  0  0  0  0  0  0  0
  151.5814  144.0532  160.9048 O   0  0  0  0  0  0  0  0  0  0  0  0
  152.0885  143.5288  159.6877 C   0  0  2  0  0  0  0  0  0  0  0  0
  151.0178  142.9744  158.7364 C   0  0  0  0  0  0  0  0  0  0  0  0
  152.0093  141.8394  158.4239 C   0  0  2  0  0  0  0  0  0  0  0  0
  151.4287  140.5053  158.2047 N   0  0  0  0  0  0  0  0  0  0  0  0
  152.1379  139.2757  158.5523 C   0  0  0  0  0  0  0  0  0  0  0  0
  150.4512  140.4373  157.2603 C   0  0  0  0  0  0  0  0  0  0  0  0
  150.2729  141.5190  156.4566 N   0  0  0  0  0  0  0  0  0  0  0  0
  149.3316  141.5163  155.5095 C   0  0  0  0  0  0  0  0  0  0  0  0
  148.4729  140.5475  155.1906 N   0  0  0  0  0  0  0  0  0  0  0  0
  148.6508  139.4500  155.9795 C   0  0  0  0  0  0  0  0  0  0  0  0
  149.6018  139.3113  157.0325 C   0  0  0  0  0  0  0  0  0  0  0  0
  149.4769  138.0486  157.6040 N   0  0  0  0  0  0  0  0  0  0  0  0
  148.5031  137.4862  156.9439 C   0  0  0  0  0  0  0  0  0  0  0  0
  147.9682  138.2466  155.9304 N   0  0  0  0  0  0  0  0  0  0  0  0
  146.8715  137.8896  155.0783 C   0  0  0  0  0  0  0  0  0  0  0  0
  147.0549  136.9076  153.9157 C   0  0  0  0  0  0  0  0  0  0  0  0
  145.9802  137.6773  153.1133 C   0  0  0  0  0  0  0  0  0  0  0  0
  146.2390  137.8534  151.6039 C   0  0  0  0  0  0  0  0  0  0  0  0
  147.5523  138.2960  151.3263 O   0  0  0  0  0  0  0  0  0  0  0  0
  144.5552  137.1124  153.2675 C   0  0  0  0  0  0  0  0  0  0  0  0
  143.6265  137.8162  152.4676 O   0  0  0  0  0  0  0  0  0  0  0  0
  146.3252  138.8696  154.0359 C   0  0  0  0  0  0  0  0  0  0  0  0
  152.6321  142.0898  159.8133 C   0  0  0  0  0  0  0  0  0  0  0  0
  152.3263  141.2314  161.0570 C   0  0  0  0  0  0  0  0  0  0  0  0
  153.7467  141.5371  161.5424 C   0  0  0  0  0  0  0  0  0  0  0  0
  154.1213  141.8473  160.0890 C   0  0  0  0  0  0  0  0  0  0  0  0
  150.4316  145.5744  161.6764 H   0  0  0  0  0  0  0  0  0  0  0  0
  149.9011  144.9793  160.1040 H   0  0  0  0  0  0  0  0  0  0  0  0
  151.3437  146.0021  160.2287 H   0  0  0  0  0  0  0  0  0  0  0  0
  152.7985  144.1918  159.1883 H   0  0  0  0  0  0  0  0  0  0  0  0
  150.1197  142.6832  159.2816 H   0  0  0  0  0  0  0  0  0  0  0  0
  150.7838  143.6217  157.8910 H   0  0  0  0  0  0  0  0  0  0  0  0
  152.6871  142.1558  157.6289 H   0  0  0  0  0  0  0  0  0  0  0  0
  151.4952  138.4015  158.4449 H   0  0  0  0  0  0  0  0  0  0  0  0
  152.4500  139.2953  159.5959 H   0  0  0  0  0  0  0  0  0  0  0  0
  153.0214  139.1373  157.9296 H   0  0  0  0  0  0  0  0  0  0  0  0
  149.2569  142.4192  154.9217 H   0  0  0  0  0  0  0  0  0  0  0  0
  148.1528  136.4910  157.1763 H   0  0  0  0  0  0  0  0  0  0  0  0
  146.0744  137.5540  155.7438 H   0  0  0  0  0  0  0  0  0  0  0  0
  148.0537  136.9645  153.4805 H   0  0  0  0  0  0  0  0  0  0  0  0
  146.7975  135.8752  154.1544 H   0  0  0  0  0  0  0  0  0  0  0  0
  146.0832  136.9147  151.0711 H   0  0  0  0  0  0  0  0  0  0  0  0
  145.5509  138.5794  151.1697 H   0  0  0  0  0  0  0  0  0  0  0  0
  148.1619  137.6593  151.6668 H   0  0  0  0  0  0  0  0  0  0  0  0
  144.5207  136.0565  152.9968 H   0  0  0  0  0  0  0  0  0  0  0  0
  144.2147  137.1722  154.3013 H   0  0  0  0  0  0  0  0  0  0  0  0
  143.5648  138.7032  152.7880 H   0  0  0  0  0  0  0  0  0  0  0  0
  145.4697  139.4538  154.3760 H   0  0  0  0  0  0  0  0  0  0  0  0
  147.1028  139.5220  153.6353 H   0  0  0  0  0  0  0  0  0  0  0  0
  151.5310  141.6039  161.7026 H   0  0  0  0  0  0  0  0  0  0  0  0
  152.1986  140.1711  160.8410 H   0  0  0  0  0  0  0  0  0  0  0  0
  153.7912  142.4171  162.1862 H   0  0  0  0  0  0  0  0  0  0  0  0
  154.2737  140.6881  161.9780 H   0  0  0  0  0  0  0  0  0  0  0  0
  154.5126  140.9766  159.5604 H   0  0  0  0  0  0  0  0  0  0  0  0
  154.7617  142.7202  159.9590 H   0  0  0  0  0  0  0  0  0  0  0  0
  1  2  1  0  0  0  0
  1 29  1  0  0  0  0
  1 30  1  0  0  0  0
  1 31  1  0  0  0  0
  2  3  1  0  0  0  0
  3 25  1  0  0  0  0
  3  4  1  0  0  0  0
  3 32  1  0  0  0  0
  4  5  1  0  0  0  0
  4 33  1  0  0  0  0
  4 34  1  0  0  0  0
  5  6  1  0  0  0  0
  5 25  1  0  0  0  0
  5 35  1  0  0  0  0
  6  7  1  0  0  0  0
  6  8  1  0  0  0  0
  7 36  1  0  0  0  0
  7 37  1  0  0  0  0
  7 38  1  0  0  0  0
  8 13  1  0  0  0  0
  8  9  2  0  0  0  0
  9 10  1  0  0  0  0
 10 11  2  0  0  0  0
 10 39  1  0  0  0  0
 11 12  1  0  0  0  0
 12 16  1  0  0  0  0
 12 13  2  0  0  0  0
 13 14  1  0  0  0  0
 14 15  2  0  0  0  0
 15 16  1  0  0  0  0
 15 40  1  0  0  0  0
 16 17  1  0  0  0  0
 17 24  1  0  0  0  0
 17 18  1  0  0  0  0
 17 41  1  0  0  0  0
 18 19  1  0  0  0  0
 18 42  1  0  0  0  0
 18 43  1  0  0  0  0
 19 20  1  0  0  0  0
 19 22  1  0  0  0  0
 19 24  1  0  0  0  0
 20 21  1  0  0  0  0
 20 44  1  0  0  0  0
 20 45  1  0  0  0  0
 21 46  1  0  0  0  0
 22 23  1  0  0  0  0
 22 47  1  0  0  0  0
 22 48  1  0  0  0  0
 23 49  1  0  0  0  0
 24 50  1  0  0  0  0
 24 51  1  0  0  0  0
 25 28  1  0  0  0  0
 25 26  1  0  0  0  0
 26 27  1  0  0  0  0
 26 52  1  0  0  0  0
 26 53  1  0  0  0  0
 27 28  1  0  0  0  0
 27 54  1  0  0  0  0
 27 55  1  0  0  0  0
 28 56  1  0  0  0  0
 28 57  1  0  0  0  0
M  END
> <s_m_source_file>
AV-unprocessed.smi

> <i_m_source_file_index>
210

> <i_lp_mmshare_version>
43012

> <i_f3d_flags>
0

> <s_epik_input>
W0NIMl0xW0NIMl1bQ0gyXUMxMltDQEhdKE9bQ0gzXSlbQ0gyXVtDQEhdMk4oW0NIM10pYyhuW2NIXW4zKWMoYzM0KW5bY0hdbjRbQ0hdKFtDSDJdNSlbQ0gyXUM1KFtDSDJdW09IXSlbQ0gyXVtPSF0=

> <s_epik_cmdline>
J2VwaWtfcHl0aG9uJywgJy1waCcsICc3LjAnLCAnLXRuJywgJzgnLCAnLW1hJywgJzIwMCcsICctbWV0YWxfYmluZGluZycsICctaW1hZScsICc8aW5maWxlLm1hZT4nLCAnLW9tYWUnLCAnPG91dGZpbGUubWFlPic=

> <r_lp_tautomer_probability>
1

> <r_epik_Ionization_Penalty>
0.00313676

> <r_epik_Ionization_Penalty_Charging>
0

> <r_epik_Ionization_Penalty_Neutral>
0.00313676

> <r_epik_State_Penalty>
0.00199132

> <r_epik_Charging_Adjusted_Penalty>
0.00199132

> <i_epik_Tot_Q>
0

> <i_epik_Tot_abs_Q>
0

> <r_epik_Metal_State_Penalty>
-0

> <b_epik_Metal_Only>
0

> <s_lp_Force_Field>
OPLS_2005

> <r_lp_Energy>
62.7777

> <b_lp_Chiralities_Consistent>
1

> <s_lp_Variant>
AV-unprocessed.smi:210-3

> <Gold.Version>
5.8.1

> <Gold.Id.Protein>
6NUR|6NUR_protein|mol2

> <Gold.PLP.Fitness>
50.4443

> <Gold.PLP.PLP>
-41.7345

> <Gold.PLP.part.hbond>
-4.1441

> <Gold.PLP.part.metal>
0.0000

> <Gold.PLP.part.buried>
-5.3317

> <Gold.PLP.part.nonpolar>
-32.4577

> <Gold.PLP.part.repulsive>
0.2553

> <Gold.PLP.ligand.clash>
0.0000

> <Gold.PLP.ligand.torsion>
1.2077

> <Gold.PLP.Chemscore.Hbond>
2.5672

> <Gold.PLP.Chemscore.CHOScore>
0.6069

> <Gold.PLP.Chemscore.Metal>
0.0000

> <Gold.Chemscore.Hbonds>
donor molecule, donor type, donor heavy atom, donor atom, acceptor molecule, acceptor atom, score
      L1  H    21    46       P1  7948  1.00
      L1  H    23    49       P1 10175  0.98
      P1  H  7954  7966       L1    21  0.20
      L1  C    10    39       P1  8028  1.00

> <Gold.PLP.Chemscore.Internal.Correction>
1.6029

> <Gold.Rescore>
     Score         DG    S(hbond)    S(metal)    S(lipo)     H(rot)  DE(clash)    DE(int)     intcor
     12.40     -16.30       2.06        0.00     105.63       3.29       0.25       3.65       ----

> <Gold.Chemscore.Fitness>
12.4026

> <Gold.Chemscore.DG>
-16.3033

> <Gold.Chemscore.ZeroCoef>
-5.4800

> <Gold.Chemscore.Hbond>
2.0599

> <Gold.Chemscore.Metal>
0.0000

> <Gold.Chemscore.Lipo>
105.6252

> <Gold.Chemscore.Internal_Hbond>
0.0000

> <Gold.Chemscore.DEClash>
0.2508

> <Gold.Chemscore.DEInternal>
3.6499

> <Gold.Chemscore.Rot>
3.2870

> <Gold.Chemscore.Internal.Correction>
   9.000000E+99

> <Gold.Chemscore.Hbonds>
donor molecule, donor type, donor heavy atom, donor atom, acceptor molecule, acceptor atom, score
      L1  H    21    46       P1  7948  0.98
      L1  H    23    49       P1 10175  0.93

> <Gold.Chemscore.Hbond.Weighted>
-6.8799

> <Gold.Chemscore.Metal.Weighted>
-0.0000

> <Gold.Chemscore.Lipo.Weighted>
-12.3582

> <Gold.Chemscore.Internal_Hbond.Weighted>
0.0000

> <Gold.Chemscore.DEClash.Weighted>
0.2508

> <Gold.Chemscore.DEInternal.Weighted>
3.6499

> <Gold.Chemscore.Rot.Weighted>
8.4147

> <Gold.Chemscore.Internal.Correction.Weighted>
   9.000000E+99

> <Gold.Protein.RotatedTorsions>
[ 6907 6896 6895 6894 ] final  165.62 input  -60.11 | X-H torsion
[ 7974 7965 7964 7962 ] final   39.70 input  175.53 | X-H torsion
[ 8008 7997 7996 7995 ] final -112.10 input   59.86 | X-H torsion
[ 10167 10162 10161 10158 ] final  101.83 input  -65.29 | X-H torsion
[ 10718 10713 10712 10709 ] final  -86.43 input   66.30 | X-H torsion
[ 10763 10752 10751 10750 ] final  -35.37 input  -60.55 | X-H torsion
[ 11005 11000 10999 10996 ] final -140.49 input  -57.11 | X-H torsion

> <Gold.Protein.ActiveResidues>
 VAL166  LYS551  ARG553  GLY616  TRP617  ASP618  TYR619  PRO620  LYS621  CYS622 
 ASP623  PHE694  ASN695  SER759  ASP760  ASP761  ALA762  ILE779  LEU786  VAL792 
 PHE793  MET794  SER795  GLU796  ALA797  LYS798  CYS799  TRP800  GLU811  SER814 

> <Gold.Protein.RotatedAtoms>
  151.8917  133.3517  159.3800 H   0  0  0  0  0  0  0  0  0  0  0  0  # atno 6907 bound_to 6896
  150.7102  134.4917  159.5528 H   0  0  0  0  0  0  0  0  0  0  0  0  # atno 6908 bound_to 6896
  152.2489  134.8153  160.0500 H   0  0  0  0  0  0  0  0  0  0  0  0  # atno 6909 bound_to 6896
  146.0963  139.5620  142.9443 H   0  0  0  0  0  0  0  0  0  0  0  0  # atno 7974 bound_to 7965
  155.0000  140.0394  157.2356 H   0  0  0  0  0  0  0  0  0  0  0  0  # atno 8008 bound_to 7997
  154.7552  140.2774  155.6236 H   0  0  0  0  0  0  0  0  0  0  0  0  # atno 8009 bound_to 7997
  156.2893  140.2639  156.2316 H   0  0  0  0  0  0  0  0  0  0  0  0  # atno 8010 bound_to 7997
  139.7403  144.7013  151.0586 H   0  0  0  0  0  0  0  0  0  0  0  0  # atno 10167 bound_to 10162
  155.9990  130.4765  150.4713 H   0  0  0  0  0  0  0  0  0  0  0  0  # atno 10718 bound_to 10713
  153.8621  135.6839  153.4782 H   0  0  0  0  0  0  0  0  0  0  0  0  # atno 10763 bound_to 10752
  153.1336  135.4687  154.9385 H   0  0  0  0  0  0  0  0  0  0  0  0  # atno 10764 bound_to 10752
  154.7754  135.3251  154.8053 H   0  0  0  0  0  0  0  0  0  0  0  0  # atno 10765 bound_to 10752
  140.8417  134.2394  157.4807 H   0  0  0  0  0  0  0  0  0  0  0  0  # atno 11005 bound_to 11000
  145.5941  141.0365  143.2054 LP  0  0  0  0  0  0  0  0  0  0  0  0  # atno 17320 bound_to 7965
  144.7398  139.7481  143.7315 LP  0  0  0  0  0  0  0  0  0  0  0  0  # atno 17321 bound_to 7965
  140.7785  143.4933  150.9865 LP  0  0  0  0  0  0  0  0  0  0  0  0  # atno 17342 bound_to 10162
  139.8621  143.7301  152.3172 LP  0  0  0  0  0  0  0  0  0  0  0  0  # atno 17343 bound_to 10162
  157.2728  131.0590  151.2249 LP  0  0  0  0  0  0  0  0  0  0  0  0  # atno 17370 bound_to 10713
  157.3323  130.6991  149.6332 LP  0  0  0  0  0  0  0  0  0  0  0  0  # atno 17371 bound_to 10713
  139.8703  134.9638  156.4476 LP  0  0  0  0  0  0  0  0  0  0  0  0  # atno 17394 bound_to 11000
  140.8888  133.7863  155.9548 LP  0  0  0  0  0  0  0  0  0  0  0  0  # atno 17395 bound_to 11000

$$$$
