AV-unprocessed.smi:39|AV-procd|sdf|359|dock1
  -GOLD-   2262016193D 1   1.00000     0.00000
 Structure written by MMmdl.
 31 32  0  0  0  0  0  0  0  0  4 V2000
  150.9462  143.1154  158.5167 C   0  0  0  0  0  0  0  0  0  0  0  0
  151.2682  141.9193  157.6378 C   0  0  0  0  0  0  0  0  0  0  0  0
  150.6463  141.7034  156.4576 C   0  0  0  0  0  0  0  0  0  0  0  0
  150.9397  140.6098  155.6612 N   0  0  0  0  0  0  0  0  0  0  0  0
  150.2195  140.3824  154.3486 C   0  0  1  0  0  0  0  0  0  0  0  0
  149.4014  139.0895  154.4089 C   0  0  0  0  0  0  0  0  0  0  0  0
  148.0214  139.6140  154.7578 C   0  0  2  0  0  0  0  0  0  0  0  0
  146.9477  138.7014  154.3584 N   0  0  0  0  0  0  0  0  0  0  0  0
  146.1793  138.3306  155.2553 N   0  3  0  0  0  0  0  0  0  0  0  0
  145.5733  137.9784  156.1518 N   0  5  0  0  0  0  0  0  0  0  0  0
  147.9976  140.9293  153.9747 C   0  0  1  0  0  0  0  0  0  0  0  0
  146.9816  141.9474  154.5163 C   0  0  0  0  0  0  0  0  0  0  0  0
  147.1685  143.2002  153.8931 O   0  0  0  0  0  0  0  0  0  0  0  0
  149.3236  141.4335  154.1247 O   0  0  0  0  0  0  0  0  0  0  0  0
  151.9046  139.6645  156.0980 C   0  0  0  0  0  0  0  0  0  0  0  0
  152.1184  138.6830  155.3859 O   0  0  0  0  0  0  0  0  0  0  0  0
  152.5429  139.8780  157.2838 N   0  5  0  0  0  0  0  0  0  0  0  0
  152.2837  140.9558  158.0785 C   0  0  0  0  0  0  0  0  0  0  0  0
  152.8710  141.1390  159.1443 O   0  0  0  0  0  0  0  0  0  0  0  0
  150.9864  140.3862  153.5725 H   0  0  0  0  0  0  0  0  0  0  0  0
  147.9758  139.8322  155.8269 H   0  0  0  0  0  0  0  0  0  0  0  0
  147.8174  140.7189  152.9185 H   0  0  0  0  0  0  0  0  0  0  0  0
  150.1813  143.7460  158.0631 H   0  0  0  0  0  0  0  0  0  0  0  0
  151.8372  143.7239  158.6733 H   0  0  0  0  0  0  0  0  0  0  0  0
  150.5790  142.7849  159.4887 H   0  0  0  0  0  0  0  0  0  0  0  0
  149.8947  142.4078  156.1369 H   0  0  0  0  0  0  0  0  0  0  0  0
  149.4092  138.6306  153.4191 H   0  0  0  0  0  0  0  0  0  0  0  0
  149.8012  138.3765  155.1312 H   0  0  0  0  0  0  0  0  0  0  0  0
  145.9662  141.6210  154.2904 H   0  0  0  0  0  0  0  0  0  0  0  0
  147.0548  142.0467  155.5994 H   0  0  0  0  0  0  0  0  0  0  0  0
  147.8843  143.6444  154.3211 H   0  0  0  0  0  0  0  0  0  0  0  0
  1  2  1  0  0  0  0
  1 23  1  0  0  0  0
  1 24  1  0  0  0  0
  1 25  1  0  0  0  0
  2 18  1  0  0  0  0
  2  3  2  0  0  0  0
  3  4  1  0  0  0  0
  3 26  1  0  0  0  0
  4  5  1  0  0  0  0
  4 15  1  0  0  0  0
  5 20  1  0  0  0  0
  5 14  1  0  0  0  0
  5  6  1  0  0  0  0
  6  7  1  0  0  0  0
  6 27  1  0  0  0  0
  6 28  1  0  0  0  0
  7 21  1  0  0  0  0
  7  8  1  0  0  0  0
  7 11  1  0  0  0  0
  8  9  2  0  0  0  0
  9 10  2  0  0  0  0
 11 22  1  0  0  0  0
 11 12  1  0  0  0  0
 11 14  1  0  0  0  0
 12 13  1  0  0  0  0
 12 29  1  0  0  0  0
 12 30  1  0  0  0  0
 13 31  1  0  0  0  0
 15 16  2  0  0  0  0
 15 17  1  0  0  0  0
 17 18  1  0  0  0  0
 18 19  2  0  0  0  0
M  CHG  1   9   1
M  CHG  1  10  -1
M  CHG  1  17  -1
M  END
> <s_m_source_file>
AV-unprocessed.smi

> <i_m_source_file_index>
39

> <i_lp_mmshare_version>
43012

> <i_f3d_flags>
0

> <s_epik_input>
Tz1jMVtuSF1jKD1PKW4oW2NIXWMxW0NIM10pW0NASF0yW0NIMl1bQ0BIXShOPVtOK109W04tXSlbQ0BIXShPMilbQ0gyXVtPSF0=

> <s_epik_cmdline>
J2VwaWtfcHl0aG9uJywgJy1waCcsICc3LjAnLCAnLXRuJywgJzgnLCAnLW1hJywgJzIwMCcsICctbWV0YWxfYmluZGluZycsICctaW1hZScsICc8aW5maWxlLm1hZT4nLCAnLW9tYWUnLCAnPG91dGZpbGUubWFlPic=

> <r_lp_tautomer_probability>
0.999537

> <r_epik_Ionization_Penalty>
3.6393

> <r_epik_Ionization_Penalty_Charging>
9.76484e-08

> <r_epik_Ionization_Penalty_Neutral>
3.6393

> <r_epik_State_Penalty>
3.63887

> <r_epik_Charging_Adjusted_Penalty>
3.63887

> <i_epik_Tot_Q>
-1

> <i_epik_Tot_abs_Q>
3

> <r_epik_Metal_State_Penalty>
0.225911

> <b_epik_Metal_Only>
1

> <s_epik_Chemistry_Notes>
This compound contains an acetal/aminal-like group ( X-CH(R)-Y where X, Y are N, S, or O) that may be acid/base labile, releasing an aldehyde.

> <s_lp_Force_Field>
OPLS_2005

> <r_lp_Energy>
34.0218

> <b_lp_Chiralities_Consistent>
1

> <s_lp_Variant>
AV-unprocessed.smi:39-9

> <Gold.Version>
5.8.1

> <Gold.Id.Protein>
6NUR|6NUR_protein|mol2

> <Gold.PLP.Fitness>
41.0283

> <Gold.PLP.PLP>
-27.1109

> <Gold.PLP.part.hbond>
-5.0418

> <Gold.PLP.part.metal>
0.0000

> <Gold.PLP.part.buried>
2.3394

> <Gold.PLP.part.nonpolar>
-23.7470

> <Gold.PLP.part.repulsive>
0.3581

> <Gold.PLP.ligand.clash>
0.0000

> <Gold.PLP.ligand.torsion>
0.0539

> <Gold.PLP.Chemscore.Hbond>
3.6635

> <Gold.PLP.Chemscore.CHOScore>
1.0000

> <Gold.PLP.Chemscore.Metal>
0.0000

> <Gold.Chemscore.Hbonds>
donor molecule, donor type, donor heavy atom, donor atom, acceptor molecule, acceptor atom, score
      L1  H    13    31       P1  8028  1.00
      P1  H  7997  8008       L1    17  1.80
      P1  H  8011  8017       L1    14  0.58
      L1  C     3    26       P1  8028  0.91

> <Gold.PLP.Chemscore.Internal.Correction>
0.0346

> <Gold.Rescore>
     Score         DG    S(hbond)    S(metal)    S(lipo)     H(rot)  DE(clash)    DE(int)     intcor
      5.75      -8.97       1.50        0.00      46.50       2.72       1.91       1.31       ----

> <Gold.Chemscore.Fitness>
5.7463

> <Gold.Chemscore.DG>
-8.9652

> <Gold.Chemscore.ZeroCoef>
-5.4800

> <Gold.Chemscore.Hbond>
1.4958

> <Gold.Chemscore.Metal>
0.0000

> <Gold.Chemscore.Lipo>
46.4999

> <Gold.Chemscore.Internal_Hbond>
0.0000

> <Gold.Chemscore.DEClash>
1.9107

> <Gold.Chemscore.DEInternal>
1.3082

> <Gold.Chemscore.Rot>
2.7153

> <Gold.Chemscore.Internal.Correction>
   9.000000E+99

> <Gold.Chemscore.Hbonds>
donor molecule, donor type, donor heavy atom, donor atom, acceptor molecule, acceptor atom, score
      L1  H    13    31       P1  8028  0.60
      P1  H  7997  8008       L1    17  0.11
      P1  H  8011  8017       L1    14  0.25

> <Gold.Chemscore.Hbond.Weighted>
-4.9959

> <Gold.Chemscore.Metal.Weighted>
-0.0000

> <Gold.Chemscore.Lipo.Weighted>
-5.4405

> <Gold.Chemscore.Internal_Hbond.Weighted>
0.0000

> <Gold.Chemscore.DEClash.Weighted>
1.9107

> <Gold.Chemscore.DEInternal.Weighted>
1.3082

> <Gold.Chemscore.Rot.Weighted>
6.9512

> <Gold.Chemscore.Internal.Correction.Weighted>
   9.000000E+99

> <Gold.Protein.RotatedTorsions>
[ 6907 6896 6895 6894 ] final  -98.10 input  -60.11 | X-H torsion
[ 7974 7965 7964 7962 ] final  138.00 input  175.53 | X-H torsion
[ 8008 7997 7996 7995 ] final  -55.27 input   59.86 | X-H torsion
[ 10167 10162 10161 10158 ] final  -30.55 input  -65.29 | X-H torsion
[ 10718 10713 10712 10709 ] final -140.79 input   66.30 | X-H torsion
[ 10763 10752 10751 10750 ] final  167.59 input  -60.55 | X-H torsion
[ 11005 11000 10999 10996 ] final  136.02 input  -57.11 | X-H torsion

> <Gold.Protein.ActiveResidues>
 VAL166  LYS551  ARG553  GLY616  TRP617  ASP618  TYR619  PRO620  LYS621  CYS622 
 ASP623  PHE694  ASN695  SER759  ASP760  ASP761  ALA762  ILE779  LEU786  VAL792 
 PHE793  MET794  SER795  GLU796  ALA797  LYS798  CYS799  TRP800  GLU811  SER814 

> <Gold.Protein.RotatedAtoms>
  150.7036  134.1247  159.4047 H   0  0  0  0  0  0  0  0  0  0  0  0  # atno 6907 bound_to 6896
  151.9233  135.0286  160.0533 H   0  0  0  0  0  0  0  0  0  0  0  0  # atno 6908 bound_to 6896
  152.2238  133.4969  159.5214 H   0  0  0  0  0  0  0  0  0  0  0  0  # atno 6909 bound_to 6896
  144.9414  139.4926  143.5570 H   0  0  0  0  0  0  0  0  0  0  0  0  # atno 7974 bound_to 7965
  154.4189  140.1157  156.5449 H   0  0  0  0  0  0  0  0  0  0  0  0  # atno 8008 bound_to 7997
  155.6469  140.3496  155.4715 H   0  0  0  0  0  0  0  0  0  0  0  0  # atno 8009 bound_to 7997
  155.9824  140.1163  157.0704 H   0  0  0  0  0  0  0  0  0  0  0  0  # atno 8010 bound_to 7997
  140.7248  143.3840  151.1549 H   0  0  0  0  0  0  0  0  0  0  0  0  # atno 10167 bound_to 10162
  156.3264  130.7562  151.1671 H   0  0  0  0  0  0  0  0  0  0  0  0  # atno 10718 bound_to 10713
  154.3561  135.2753  155.2345 H   0  0  0  0  0  0  0  0  0  0  0  0  # atno 10763 bound_to 10752
  154.4554  135.5920  153.6223 H   0  0  0  0  0  0  0  0  0  0  0  0  # atno 10764 bound_to 10752
  152.9846  135.6052  154.3777 H   0  0  0  0  0  0  0  0  0  0  0  0  # atno 10765 bound_to 10752
  140.0018  134.9475  157.0089 H   0  0  0  0  0  0  0  0  0  0  0  0  # atno 11005 bound_to 11000
  146.3287  139.8435  142.8886 LP  0  0  0  0  0  0  0  0  0  0  0  0  # atno 17320 bound_to 7965
  145.2985  141.0187  143.3622 LP  0  0  0  0  0  0  0  0  0  0  0  0  # atno 17321 bound_to 7965
  139.7434  143.8889  152.3056 LP  0  0  0  0  0  0  0  0  0  0  0  0  # atno 17342 bound_to 10162
  139.8718  144.7064  150.8978 LP  0  0  0  0  0  0  0  0  0  0  0  0  # atno 17343 bound_to 10162
  157.7422  131.0493  150.5042 LP  0  0  0  0  0  0  0  0  0  0  0  0  # atno 17370 bound_to 10713
  156.5202  130.4160  149.6255 LP  0  0  0  0  0  0  0  0  0  0  0  0  # atno 17371 bound_to 10713
  140.4714  134.1383  155.7203 LP  0  0  0  0  0  0  0  0  0  0  0  0  # atno 17394 bound_to 11000
  141.1647  133.8725  157.1747 LP  0  0  0  0  0  0  0  0  0  0  0  0  # atno 17395 bound_to 11000

$$$$
