AV-unprocessed.smi:3004|AV-procd|sdf|11442|dock4
  -GOLD-   2272016373D 1   1.00000     0.00000
 Structure written by MMmdl.
 47 48  0  0  0  0  0  0  0  0  2 V2000
  153.5817  141.4725  161.6344 C   0  0  0  0  0  0  0  0  0  0  0  0
  152.9897  142.0669  160.3910 C   0  0  0  0  0  0  0  0  0  0  0  0
  153.0437  143.4180  159.9478 C   0  0  0  0  0  0  0  0  0  0  0  0
  152.3505  143.4153  158.7703 C   0  0  0  0  0  0  0  0  0  0  0  0
  152.0544  144.5329  157.8250 C   0  0  0  0  0  0  0  0  0  0  0  0
  151.9243  142.1157  158.5589 N   0  0  0  0  0  0  0  0  0  0  0  0
  151.1563  141.5698  157.4513 C   0  0  0  0  0  0  0  0  0  0  0  0
  151.8511  140.3488  156.8474 C   0  0  0  0  0  0  0  0  0  0  0  0
  152.8579  139.8850  157.3827 O   0  0  0  0  0  0  0  0  0  0  0  0
  151.3062  139.8377  155.7319 N   0  0  0  0  0  0  0  0  0  0  0  0
  151.8014  138.6648  155.0213 C   0  0  0  0  0  0  0  0  0  0  0  0
  150.9150  138.3137  153.8109 C   0  0  0  0  0  0  0  0  0  0  0  0
  149.8729  137.3093  154.1646 N   0  3  1  0  0  0  0  0  0  0  0  0
  150.4321  136.2723  155.0785 C   0  0  0  0  0  0  0  0  0  0  0  0
  149.4296  135.1472  155.3632 C   0  0  0  0  0  0  0  0  0  0  0  0
  148.1502  135.7232  155.9681 C   0  0  0  0  0  0  0  0  0  0  0  0
  147.5738  136.7740  155.0171 C   0  0  0  0  0  0  0  0  0  0  0  0
  148.5891  137.8904  154.6796 C   0  0  2  0  0  0  0  0  0  0  0  0
  147.9175  138.8529  153.6749 C   0  0  0  0  0  0  0  0  0  0  0  0
  152.3197  141.2919  159.5543 N   0  0  0  0  0  0  0  0  0  0  0  0
  154.0487  142.2389  162.2534 H   0  0  0  0  0  0  0  0  0  0  0  0
  154.3442  140.7323  161.3910 H   0  0  0  0  0  0  0  0  0  0  0  0
  152.8180  140.9802  162.2369 H   0  0  0  0  0  0  0  0  0  0  0  0
  153.5201  144.2628  160.4233 H   0  0  0  0  0  0  0  0  0  0  0  0
  152.4957  145.4660  158.1755 H   0  0  0  0  0  0  0  0  0  0  0  0
  150.9795  144.6870  157.7299 H   0  0  0  0  0  0  0  0  0  0  0  0
  152.4576  144.3233  156.8342 H   0  0  0  0  0  0  0  0  0  0  0  0
  150.1577  141.3001  157.7995 H   0  0  0  0  0  0  0  0  0  0  0  0
  151.0266  142.3406  156.6909 H   0  0  0  0  0  0  0  0  0  0  0  0
  150.4736  140.2794  155.3676 H   0  0  0  0  0  0  0  0  0  0  0  0
  152.8309  138.8366  154.7020 H   0  0  0  0  0  0  0  0  0  0  0  0
  151.8321  137.8404  155.7327 H   0  0  0  0  0  0  0  0  0  0  0  0
  150.4465  139.2110  153.4034 H   0  0  0  0  0  0  0  0  0  0  0  0
  151.5668  137.9504  153.0225 H   0  0  0  0  0  0  0  0  0  0  0  0
  151.3319  135.8352  154.6468 H   0  0  0  0  0  0  0  0  0  0  0  0
  150.7329  136.7400  156.0176 H   0  0  0  0  0  0  0  0  0  0  0  0
  149.1995  134.6111  154.4415 H   0  0  0  0  0  0  0  0  0  0  0  0
  149.8686  134.4191  156.0457 H   0  0  0  0  0  0  0  0  0  0  0  0
  147.4223  134.9297  156.1409 H   0  0  0  0  0  0  0  0  0  0  0  0
  148.3625  136.1733  156.9388 H   0  0  0  0  0  0  0  0  0  0  0  0
  147.2492  136.2830  154.0981 H   0  0  0  0  0  0  0  0  0  0  0  0
  146.6777  137.2068  155.4639 H   0  0  0  0  0  0  0  0  0  0  0  0
  148.8111  138.4419  155.5948 H   0  0  0  0  0  0  0  0  0  0  0  0
  146.9089  139.1102  154.0002 H   0  0  0  0  0  0  0  0  0  0  0  0
  147.8341  138.4004  152.6861 H   0  0  0  0  0  0  0  0  0  0  0  0
  148.4436  139.8006  153.5717 H   0  0  0  0  0  0  0  0  0  0  0  0
  149.6301  136.8400  153.3037 H   0  0  0  0  0  0  0  0  0  0  0  0
  1  2  1  0  0  0  0
  1 21  1  0  0  0  0
  1 22  1  0  0  0  0
  1 23  1  0  0  0  0
  2 20  2  0  0  0  0
  2  3  1  0  0  0  0
  3  4  2  0  0  0  0
  3 24  1  0  0  0  0
  4  5  1  0  0  0  0
  4  6  1  0  0  0  0
  5 25  1  0  0  0  0
  5 26  1  0  0  0  0
  5 27  1  0  0  0  0
  6  7  1  0  0  0  0
  6 20  1  0  0  0  0
  7  8  1  0  0  0  0
  7 28  1  0  0  0  0
  7 29  1  0  0  0  0
  8  9  2  0  0  0  0
  8 10  1  0  0  0  0
 10 11  1  0  0  0  0
 10 30  1  0  0  0  0
 11 12  1  0  0  0  0
 11 31  1  0  0  0  0
 11 32  1  0  0  0  0
 12 13  1  0  0  0  0
 12 33  1  0  0  0  0
 12 34  1  0  0  0  0
 13 18  1  0  0  0  0
 13 14  1  0  0  0  0
 13 47  1  0  0  0  0
 14 15  1  0  0  0  0
 14 35  1  0  0  0  0
 14 36  1  0  0  0  0
 15 16  1  0  0  0  0
 15 37  1  0  0  0  0
 15 38  1  0  0  0  0
 16 17  1  0  0  0  0
 16 39  1  0  0  0  0
 16 40  1  0  0  0  0
 17 18  1  0  0  0  0
 17 41  1  0  0  0  0
 17 42  1  0  0  0  0
 18 19  1  0  0  0  0
 18 43  1  0  0  0  0
 19 44  1  0  0  0  0
 19 45  1  0  0  0  0
 19 46  1  0  0  0  0
M  CHG  1  13   1
M  END
> <s_m_source_file>
AV-unprocessed.smi

> <i_m_source_file_index>
3004

> <i_lp_mmshare_version>
43012

> <i_f3d_flags>
0

> <s_epik_input>
W0NIM11jMVtjSF1jKFtDSDNdKW4objEpW0NIMl1DKD1PKVtOSF1bQ0gyXVtDSDJdTjJbQ0gyXVtDSDJdW0NIMl1bQ0gyXVtDQEhdMltDSDNd

> <s_epik_cmdline>
J2VwaWtfcHl0aG9uJywgJy1waCcsICc3LjAnLCAnLXRuJywgJzgnLCAnLW1hJywgJzIwMCcsICctbWV0YWxfYmluZGluZycsICctaW1hZScsICc8aW5maWxlLm1hZT4nLCAnLW9tYWUnLCAnPG91dGZpbGUubWFlPic=

> <r_lp_tautomer_probability>
1

> <r_epik_Ionization_Penalty>
0.00303644

> <r_epik_Ionization_Penalty_Charging>
0.00284254

> <r_epik_Ionization_Penalty_Neutral>
0.000193908

> <r_epik_State_Penalty>
-0

> <r_epik_Charging_Adjusted_Penalty>
0.00284254

> <i_epik_Tot_Q>
1

> <i_epik_Tot_abs_Q>
1

> <r_epik_Metal_State_Penalty>
-0

> <b_epik_Metal_Only>
0

> <s_lp_Force_Field>
OPLS_2005

> <r_lp_Energy>
17.2859

> <b_lp_Chiralities_Consistent>
1

> <s_lp_Variant>
AV-unprocessed.smi:3004-4

> <Gold.Version>
5.8.1

> <Gold.Id.Protein>
6NUR|6NUR_protein|mol2

> <Gold.PLP.Fitness>
47.3866

> <Gold.PLP.PLP>
-39.5449

> <Gold.PLP.part.hbond>
-2.2450

> <Gold.PLP.part.metal>
0.0000

> <Gold.PLP.part.buried>
-5.1486

> <Gold.PLP.part.nonpolar>
-32.6875

> <Gold.PLP.part.repulsive>
0.1569

> <Gold.PLP.ligand.clash>
0.0000

> <Gold.PLP.ligand.torsion>
0.5979

> <Gold.PLP.Chemscore.Hbond>
3.0000

> <Gold.PLP.Chemscore.CHOScore>
0.0000

> <Gold.PLP.Chemscore.Metal>
0.0000

> <Gold.Chemscore.Hbonds>
donor molecule, donor type, donor heavy atom, donor atom, acceptor molecule, acceptor atom, score
      L1  H    13    47       P1  7948  2.00
      P1  H  7997  8009       L1     9  1.00

> <Gold.PLP.Chemscore.Internal.Correction>
0.0375

> <Gold.Rescore>
     Score         DG    S(hbond)    S(metal)    S(lipo)     H(rot)  DE(clash)    DE(int)     intcor
     17.34     -19.72       1.99        0.00     101.44       1.67       0.05       2.34       ----

> <Gold.Chemscore.Fitness>
17.3354

> <Gold.Chemscore.DG>
-19.7234

> <Gold.Chemscore.ZeroCoef>
-5.4800

> <Gold.Chemscore.Hbond>
1.9877

> <Gold.Chemscore.Metal>
0.0000

> <Gold.Chemscore.Lipo>
101.4404

> <Gold.Chemscore.Internal_Hbond>
0.0000

> <Gold.Chemscore.DEClash>
0.0451

> <Gold.Chemscore.DEInternal>
2.3430

> <Gold.Chemscore.Rot>
1.6657

> <Gold.Chemscore.Internal.Correction>
   9.000000E+99

> <Gold.Chemscore.Hbonds>
donor molecule, donor type, donor heavy atom, donor atom, acceptor molecule, acceptor atom, score
      L1  H    13    47       P1  7948  0.60
      P1  H  7997  8009       L1     9  0.99

> <Gold.Chemscore.Hbond.Weighted>
-6.6390

> <Gold.Chemscore.Metal.Weighted>
-0.0000

> <Gold.Chemscore.Lipo.Weighted>
-11.8685

> <Gold.Chemscore.Internal_Hbond.Weighted>
0.0000

> <Gold.Chemscore.DEClash.Weighted>
0.0451

> <Gold.Chemscore.DEInternal.Weighted>
2.3430

> <Gold.Chemscore.Rot.Weighted>
4.2641

> <Gold.Chemscore.Internal.Correction.Weighted>
   9.000000E+99

> <Gold.Protein.RotatedTorsions>
[ 6907 6896 6895 6894 ] final  153.20 input  -60.11 | X-H torsion
[ 7974 7965 7964 7962 ] final  105.16 input  175.53 | X-H torsion
[ 8008 7997 7996 7995 ] final  172.65 input   59.86 | X-H torsion
[ 10167 10162 10161 10158 ] final  106.79 input  -65.29 | X-H torsion
[ 10718 10713 10712 10709 ] final  149.74 input   66.30 | X-H torsion
[ 10763 10752 10751 10750 ] final  118.43 input  -60.55 | X-H torsion
[ 11005 11000 10999 10996 ] final   87.68 input  -57.11 | X-H torsion

> <Gold.Protein.ActiveResidues>
 VAL166  LYS551  ARG553  GLY616  TRP617  ASP618  TYR619  PRO620  LYS621  CYS622 
 ASP623  PHE694  ASN695  SER759  ASP760  ASP761  ALA762  ILE779  LEU786  VAL792 
 PHE793  MET794  SER795  GLU796  ALA797  LYS798  CYS799  TRP800  GLU811  SER814 

> <Gold.Protein.RotatedAtoms>
  152.0760  133.4129  159.4479 H   0  0  0  0  0  0  0  0  0  0  0  0  # atno 6907 bound_to 6896
  150.6863  134.3037  159.4726 H   0  0  0  0  0  0  0  0  0  0  0  0  # atno 6908 bound_to 6896
  152.0874  134.9430  160.0623 H   0  0  0  0  0  0  0  0  0  0  0  0  # atno 6909 bound_to 6896
  145.3233  139.2507  143.3700 H   0  0  0  0  0  0  0  0  0  0  0  0  # atno 7974 bound_to 7965
  156.1154  140.1480  156.9280 H   0  0  0  0  0  0  0  0  0  0  0  0  # atno 8008 bound_to 7997
  154.4796  140.0883  156.7389 H   0  0  0  0  0  0  0  0  0  0  0  0  # atno 8009 bound_to 7997
  155.4523  140.3435  155.4304 H   0  0  0  0  0  0  0  0  0  0  0  0  # atno 8010 bound_to 7997
  139.6980  144.7098  151.1233 H   0  0  0  0  0  0  0  0  0  0  0  0  # atno 10167 bound_to 10162
  157.2922  131.0855  151.1453 H   0  0  0  0  0  0  0  0  0  0  0  0  # atno 10718 bound_to 10713
  153.5675  135.3509  155.2824 H   0  0  0  0  0  0  0  0  0  0  0  0  # atno 10763 bound_to 10752
  154.8686  135.4151  154.2762 H   0  0  0  0  0  0  0  0  0  0  0  0  # atno 10764 bound_to 10752
  153.3521  135.7055  153.6850 H   0  0  0  0  0  0  0  0  0  0  0  0  # atno 10765 bound_to 10752
  139.8914  134.8438  156.2894 H   0  0  0  0  0  0  0  0  0  0  0  0  # atno 11005 bound_to 11000
  146.3074  140.3795  142.8682 LP  0  0  0  0  0  0  0  0  0  0  0  0  # atno 17320 bound_to 7965
  144.8922  140.7538  143.5919 LP  0  0  0  0  0  0  0  0  0  0  0  0  # atno 17321 bound_to 7965
  140.7702  143.5464  150.9254 LP  0  0  0  0  0  0  0  0  0  0  0  0  # atno 17342 bound_to 10162
  139.9144  143.6681  152.3109 LP  0  0  0  0  0  0  0  0  0  0  0  0  # atno 17343 bound_to 10162
  157.2845  130.6766  149.6082 LP  0  0  0  0  0  0  0  0  0  0  0  0  # atno 17370 bound_to 10713
  155.9667  130.4440  150.5442 LP  0  0  0  0  0  0  0  0  0  0  0  0  # atno 17371 bound_to 10713
  140.9986  133.7165  156.0925 LP  0  0  0  0  0  0  0  0  0  0  0  0  # atno 17394 bound_to 11000
  140.7528  134.4025  157.5538 LP  0  0  0  0  0  0  0  0  0  0  0  0  # atno 17395 bound_to 11000

$$$$
