AV-unprocessed.smi:103|AV-procd|sdf|988|dock2
  -GOLD-   2262017563D 1   1.00000     0.00000
 Structure written by MMmdl.
 53 55  0  0  0  0  0  0  0  0  1 V2000
  147.3078  134.8472  162.4267 C   0  0  0  0  0  0  0  0  0  0  0  0
  147.6654  136.1182  161.6682 C   0  0  0  0  0  0  0  0  0  0  0  0
  147.3839  137.2329  162.1085 O   0  0  0  0  0  0  0  0  0  0  0  0
  148.3006  135.8620  160.5161 O   0  0  0  0  0  0  0  0  0  0  0  0
  148.8471  136.9300  159.7603 C   0  0  0  0  0  0  0  0  0  0  0  0
  148.6248  136.6668  158.2665 C   0  0  1  0  0  0  0  0  0  0  0  0
  149.5163  137.4667  157.5060 O   0  0  0  0  0  0  0  0  0  0  0  0
  149.7265  136.8832  156.2603 C   0  0  2  0  0  0  0  0  0  0  0  0
  148.8452  137.5736  155.2521 N   0  0  0  0  0  0  0  0  0  0  0  0
  148.8510  138.9078  154.8890 C   0  0  0  0  0  0  0  0  0  0  0  0
  149.9727  140.1717  155.4815 S   0  0  0  0  0  0  0  0  0  0  0  0
  149.2150  141.7043  154.8035 C   0  0  0  0  0  0  0  0  0  0  0  0
  149.8661  140.1869  156.9490 O   0  0  0  0  0  0  0  0  0  0  0  0
  151.2719  139.9409  154.8314 O   0  0  0  0  0  0  0  0  0  0  0  0
  148.0178  139.2694  153.9528 N   0  0  0  0  0  0  0  0  0  0  0  0
  147.3059  138.1079  153.7014 C   0  0  0  0  0  0  0  0  0  0  0  0
  146.2324  137.7868  152.8328 C   0  0  0  0  0  0  0  0  0  0  0  0
  145.6697  138.6788  152.0060 N   0  0  0  0  0  0  0  0  0  0  0  0
  145.7491  136.5235  152.8391 N   0  0  0  0  0  0  0  0  0  0  0  0
  146.2918  135.6174  153.6568 C   0  0  0  0  0  0  0  0  0  0  0  0
  147.3000  135.7705  154.5181 N   0  0  0  0  0  0  0  0  0  0  0  0
  147.7948  137.0445  154.5156 C   0  0  0  0  0  0  0  0  0  0  0  0
  149.4275  135.3782  156.3867 C   0  0  1  0  0  0  0  0  0  0  0  0
  150.6074  134.6102  156.1885 O   0  0  0  0  0  0  0  0  0  0  0  0
  150.5782  133.2763  156.3566 C   0  0  0  0  0  0  0  0  0  0  0  0
  151.9204  132.7179  156.8092 C   0  0  0  0  0  0  0  0  0  0  0  0
  149.6066  132.5440  156.1681 O   0  0  0  0  0  0  0  0  0  0  0  0
  148.9472  135.2329  157.8261 C   0  0  2  0  0  0  0  0  0  0  0  0
  147.7872  134.4098  157.8421 O   0  0  0  0  0  0  0  0  0  0  0  0
  147.7552  133.2822  158.5719 C   0  0  0  0  0  0  0  0  0  0  0  0
  146.4543  132.5125  158.3890 C   0  0  0  0  0  0  0  0  0  0  0  0
  148.6419  132.8754  159.3225 O   0  0  0  0  0  0  0  0  0  0  0  0
  146.6860  134.1994  161.8086 H   0  0  0  0  0  0  0  0  0  0  0  0
  146.7592  135.0861  163.3381 H   0  0  0  0  0  0  0  0  0  0  0  0
  148.2124  134.3032  162.6993 H   0  0  0  0  0  0  0  0  0  0  0  0
  148.3507  137.8558  160.0534 H   0  0  0  0  0  0  0  0  0  0  0  0
  149.9119  137.0501  159.9666 H   0  0  0  0  0  0  0  0  0  0  0  0
  147.6080  136.9447  157.9902 H   0  0  0  0  0  0  0  0  0  0  0  0
  150.7417  137.0747  155.9209 H   0  0  0  0  0  0  0  0  0  0  0  0
  149.8035  142.5672  155.1138 H   0  0  0  0  0  0  0  0  0  0  0  0
  148.1978  141.8039  155.1820 H   0  0  0  0  0  0  0  0  0  0  0  0
  149.1924  141.6544  153.7160 H   0  0  0  0  0  0  0  0  0  0  0  0
  146.0104  139.6293  151.9845 H   0  0  0  0  0  0  0  0  0  0  0  0
  144.9055  138.4000  151.4078 H   0  0  0  0  0  0  0  0  0  0  0  0
  145.8588  134.6288  153.6141 H   0  0  0  0  0  0  0  0  0  0  0  0
  148.6610  135.0753  155.6745 H   0  0  0  0  0  0  0  0  0  0  0  0
  152.1819  133.1117  157.7916 H   0  0  0  0  0  0  0  0  0  0  0  0
  152.7039  132.9951  156.1040 H   0  0  0  0  0  0  0  0  0  0  0  0
  151.8813  131.6303  156.8717 H   0  0  0  0  0  0  0  0  0  0  0  0
  149.7594  134.8326  158.4356 H   0  0  0  0  0  0  0  0  0  0  0  0
  146.3698  132.1506  157.3642 H   0  0  0  0  0  0  0  0  0  0  0  0
  145.6005  133.1561  158.6014 H   0  0  0  0  0  0  0  0  0  0  0  0
  146.4175  131.6564  159.0631 H   0  0  0  0  0  0  0  0  0  0  0  0
  1  2  1  0  0  0  0
  1 33  1  0  0  0  0
  1 34  1  0  0  0  0
  1 35  1  0  0  0  0
  2  3  2  0  0  0  0
  2  4  1  0  0  0  0
  4  5  1  0  0  0  0
  5  6  1  0  0  0  0
  5 36  1  0  0  0  0
  5 37  1  0  0  0  0
  6 28  1  0  0  0  0
  6  7  1  0  0  0  0
  6 38  1  0  0  0  0
  7  8  1  0  0  0  0
  8  9  1  0  0  0  0
  8 23  1  0  0  0  0
  8 39  1  0  0  0  0
  9 22  1  0  0  0  0
  9 10  1  0  0  0  0
 10 11  1  0  0  0  0
 10 15  2  0  0  0  0
 11 12  1  0  0  0  0
 11 13  2  0  0  0  0
 11 14  2  0  0  0  0
 12 40  1  0  0  0  0
 12 41  1  0  0  0  0
 12 42  1  0  0  0  0
 15 16  1  0  0  0  0
 16 22  2  0  0  0  0
 16 17  1  0  0  0  0
 17 18  1  0  0  0  0
 17 19  2  0  0  0  0
 18 43  1  0  0  0  0
 18 44  1  0  0  0  0
 19 20  1  0  0  0  0
 20 21  2  0  0  0  0
 20 45  1  0  0  0  0
 21 22  1  0  0  0  0
 23 24  1  0  0  0  0
 23 28  1  0  0  0  0
 23 46  1  0  0  0  0
 24 25  1  0  0  0  0
 25 26  1  0  0  0  0
 25 27  2  0  0  0  0
 26 47  1  0  0  0  0
 26 48  1  0  0  0  0
 26 49  1  0  0  0  0
 28 29  1  0  0  0  0
 28 50  1  0  0  0  0
 29 30  1  0  0  0  0
 30 31  1  0  0  0  0
 30 32  2  0  0  0  0
 31 51  1  0  0  0  0
 31 52  1  0  0  0  0
 31 53  1  0  0  0  0
M  END
> <s_m_source_file>
AV-unprocessed.smi

> <i_m_source_file_index>
103

> <i_lp_mmshare_version>
43012

> <i_f3d_flags>
0

> <s_epik_input>
W0NIM11DKD1PKU9bQ0gyXVtDQEBIXTFPW0NASF0oW0NAQEhdKE9DKD1PKVtDSDNdKVtDQEhdMU9DKD1PKVtDSDNdKW4oYyhuMilTKD1PKSg9TylbQ0gzXSljKGMyMyluW2NIXW5jM1tOSDJd

> <s_epik_cmdline>
J2VwaWtfcHl0aG9uJywgJy1waCcsICc3LjAnLCAnLXRuJywgJzgnLCAnLW1hJywgJzIwMCcsICctbWV0YWxfYmluZGluZycsICctaW1hZScsICc8aW5maWxlLm1hZT4nLCAnLW9tYWUnLCAnPG91dGZpbGUubWFlPic=

> <r_lp_tautomer_probability>
1

> <r_epik_Ionization_Penalty>
1.51338e-05

> <r_epik_Ionization_Penalty_Charging>
0

> <r_epik_Ionization_Penalty_Neutral>
1.51338e-05

> <r_epik_State_Penalty>
-0

> <r_epik_Charging_Adjusted_Penalty>
0

> <i_epik_Tot_Q>
0

> <i_epik_Tot_abs_Q>
0

> <r_epik_Metal_State_Penalty>
-0

> <b_epik_Metal_Only>
0

> <s_epik_Chemistry_Notes>
This compound has an ester and may undergo hydrolysis at high or low pH. This compound contains an acetal/aminal-like group ( X-CH(R)-Y where X, Y are N, S, or O) that may be acid/base labile, releasing an aldehyde.

> <s_lp_Force_Field>
OPLS_2005

> <r_lp_Energy>
13.207

> <b_lp_Chiralities_Consistent>
1

> <s_lp_Variant>
AV-unprocessed.smi:103-12

> <Gold.Version>
5.8.1

> <Gold.Id.Protein>
6NUR|6NUR_protein|mol2

> <Gold.PLP.Fitness>
38.7441

> <Gold.PLP.PLP>
-31.1111

> <Gold.PLP.part.hbond>
-5.4454

> <Gold.PLP.part.metal>
0.0000

> <Gold.PLP.part.buried>
-2.4861

> <Gold.PLP.part.nonpolar>
-22.7085

> <Gold.PLP.part.repulsive>
0.6959

> <Gold.PLP.ligand.clash>
0.0000

> <Gold.PLP.ligand.torsion>
2.8493

> <Gold.PLP.Chemscore.Hbond>
3.6555

> <Gold.PLP.Chemscore.CHOScore>
0.0000

> <Gold.PLP.Chemscore.Metal>
0.0000

> <Gold.Chemscore.Hbonds>
donor molecule, donor type, donor heavy atom, donor atom, acceptor molecule, acceptor atom, score
      L1  H    18    44       P1 10171  1.00
      P1  H  6896  6907       L1    32  0.23
      P1  H  6931  6943       L1     3  0.86
      P1  H  6934  6947       L1     3  0.49
      P1  H  7989  7998       L1    14  1.00

> <Gold.PLP.Chemscore.Internal.Correction>
2.3651

> <Gold.Rescore>
     Score         DG    S(hbond)    S(metal)    S(lipo)     H(rot)  DE(clash)    DE(int)     intcor
      4.06     -10.74       3.45        0.00      39.35       4.25       0.53       6.15       ----

> <Gold.Chemscore.Fitness>
4.0592

> <Gold.Chemscore.DG>
-10.7449

> <Gold.Chemscore.ZeroCoef>
-5.4800

> <Gold.Chemscore.Hbond>
3.4520

> <Gold.Chemscore.Metal>
0.0000

> <Gold.Chemscore.Lipo>
39.3505

> <Gold.Chemscore.Internal_Hbond>
0.0000

> <Gold.Chemscore.DEClash>
0.5330

> <Gold.Chemscore.DEInternal>
6.1528

> <Gold.Chemscore.Rot>
4.2456

> <Gold.Chemscore.Internal.Correction>
   9.000000E+99

> <Gold.Chemscore.Hbonds>
donor molecule, donor type, donor heavy atom, donor atom, acceptor molecule, acceptor atom, score
      L1  H    18    44       P1 10171  0.95
      P1  H  6896  6907       L1    32  0.22
      P1  H  6931  6943       L1     3  0.42
      P1  H  6934  6947       L1     3  0.48
      P1  H  7989  7998       L1    14  0.96

> <Gold.Chemscore.Hbond.Weighted>
-11.5296

> <Gold.Chemscore.Metal.Weighted>
-0.0000

> <Gold.Chemscore.Lipo.Weighted>
-4.6040

> <Gold.Chemscore.Internal_Hbond.Weighted>
0.0000

> <Gold.Chemscore.DEClash.Weighted>
0.5330

> <Gold.Chemscore.DEInternal.Weighted>
6.1528

> <Gold.Chemscore.Rot.Weighted>
10.8687

> <Gold.Chemscore.Internal.Correction.Weighted>
   9.000000E+99

> <Gold.Protein.RotatedTorsions>
[ 6907 6896 6895 6894 ] final -120.05 input  -60.11 | X-H torsion
[ 7974 7965 7964 7962 ] final  146.15 input  175.53 | X-H torsion
[ 8008 7997 7996 7995 ] final  152.65 input   59.86 | X-H torsion
[ 10167 10162 10161 10158 ] final -156.31 input  -65.29 | X-H torsion
[ 10718 10713 10712 10709 ] final   23.15 input   66.30 | X-H torsion
[ 10763 10752 10751 10750 ] final  -76.09 input  -60.55 | X-H torsion
[ 11005 11000 10999 10996 ] final  128.01 input  -57.11 | X-H torsion

> <Gold.Protein.ActiveResidues>
 VAL166  LYS551  ARG553  GLY616  TRP617  ASP618  TYR619  PRO620  LYS621  CYS622 
 ASP623  PHE694  ASN695  SER759  ASP760  ASP761  ALA762  ILE779  LEU786  VAL792 
 PHE793  MET794  SER795  GLU796  ALA797  LYS798  CYS799  TRP800  GLU811  SER814 

> <Gold.Protein.RotatedAtoms>
  150.8359  133.8014  159.3079 H   0  0  0  0  0  0  0  0  0  0  0  0  # atno 6907 bound_to 6896
  151.5730  135.1060  160.0009 H   0  0  0  0  0  0  0  0  0  0  0  0  # atno 6908 bound_to 6896
  152.4431  133.7444  159.6715 H   0  0  0  0  0  0  0  0  0  0  0  0  # atno 6909 bound_to 6896
  144.8694  139.5870  143.5894 H   0  0  0  0  0  0  0  0  0  0  0  0  # atno 7974 bound_to 7965
  156.2619  140.2015  156.6366 H   0  0  0  0  0  0  0  0  0  0  0  0  # atno 8008 bound_to 7997
  154.6641  140.0557  157.0119 H   0  0  0  0  0  0  0  0  0  0  0  0  # atno 8009 bound_to 7997
  155.1232  140.3226  155.4495 H   0  0  0  0  0  0  0  0  0  0  0  0  # atno 8010 bound_to 7997
  139.6860  143.9500  152.2361 H   0  0  0  0  0  0  0  0  0  0  0  0  # atno 10167 bound_to 10162
  157.1622  130.6722  149.6048 H   0  0  0  0  0  0  0  0  0  0  0  0  # atno 10718 bound_to 10713
  154.4952  135.5809  153.6489 H   0  0  0  0  0  0  0  0  0  0  0  0  # atno 10763 bound_to 10752
  152.9869  135.6122  154.3073 H   0  0  0  0  0  0  0  0  0  0  0  0  # atno 10764 bound_to 10752
  154.2976  135.2847  155.2605 H   0  0  0  0  0  0  0  0  0  0  0  0  # atno 10765 bound_to 10752
  139.9538  134.9617  156.8939 H   0  0  0  0  0  0  0  0  0  0  0  0  # atno 11005 bound_to 11000
  146.2919  139.7165  142.9154 LP  0  0  0  0  0  0  0  0  0  0  0  0  # atno 17320 bound_to 7965
  145.4159  141.0401  143.2991 LP  0  0  0  0  0  0  0  0  0  0  0  0  # atno 17321 bound_to 7965
  139.9303  144.6745  150.8370 LP  0  0  0  0  0  0  0  0  0  0  0  0  # atno 17342 bound_to 10162
  140.7668  143.3313  151.2403 LP  0  0  0  0  0  0  0  0  0  0  0  0  # atno 17343 bound_to 10162
  155.9752  130.4708  150.6442 LP  0  0  0  0  0  0  0  0  0  0  0  0  # atno 17370 bound_to 10713
  157.4122  131.0825  151.1210 LP  0  0  0  0  0  0  0  0  0  0  0  0  # atno 17371 bound_to 10713
  140.5657  134.0492  155.7413 LP  0  0  0  0  0  0  0  0  0  0  0  0  # atno 17394 bound_to 11000
  141.1206  133.9468  157.2738 LP  0  0  0  0  0  0  0  0  0  0  0  0  # atno 17395 bound_to 11000

$$$$
