AV-unprocessed.smi:3220|AV-procd|sdf|12297|dock1
  -GOLD-   2272018143D 1   1.00000     0.00000
 Structure written by MMmdl.
 33 34  0  0  0  0  0  0  0  0  1 V2000
  154.3429  140.4007  161.2916 C   0  0  0  0  0  0  0  0  0  0  0  0
  153.6859  141.4473  160.3797 C   0  0  2  0  0  0  0  0  0  0  0  0
  153.0063  142.5655  161.1942 C   0  0  0  0  0  0  0  0  0  0  0  0
  152.5198  143.6472  160.3551 N   0  0  0  0  0  0  0  0  0  0  0  0
  152.6455  143.7950  158.9897 C   0  0  0  0  0  0  0  0  0  0  0  0
  152.0419  144.9718  158.6508 C   0  0  0  0  0  0  0  0  0  0  0  0
  151.5646  145.4761  159.8929 C   0  0  0  0  0  0  0  0  0  0  0  0
  151.8488  144.6794  160.9104 N   0  0  0  0  0  0  0  0  0  0  0  0
  152.7053  140.8010  159.5105 N   0  0  0  0  0  0  0  0  0  0  0  0
  152.9552  139.7998  158.6515 C   0  0  0  0  0  0  0  0  0  0  0  0
  154.0569  139.2592  158.5529 O   0  0  0  0  0  0  0  0  0  0  0  0
  151.7790  139.3221  157.7802 C   0  0  2  0  0  0  0  0  0  0  0  0
  152.0275  139.4752  156.2646 C   0  0  0  0  0  0  0  0  0  0  0  0
  150.9386  140.4262  155.7948 C   0  0  0  0  0  0  0  0  0  0  0  0
  150.5395  141.1462  157.0738 C   0  0  0  0  0  0  0  0  0  0  0  0
  150.6170  140.1124  158.0429 O   0  0  0  0  0  0  0  0  0  0  0  0
  155.0893  140.8599  161.9402 H   0  0  0  0  0  0  0  0  0  0  0  0
  154.8463  139.6299  160.7072 H   0  0  0  0  0  0  0  0  0  0  0  0
  153.6060  139.9093  161.9278 H   0  0  0  0  0  0  0  0  0  0  0  0
  154.4698  141.9028  159.7716 H   0  0  0  0  0  0  0  0  0  0  0  0
  152.1688  142.1659  161.7681 H   0  0  0  0  0  0  0  0  0  0  0  0
  153.7072  142.9858  161.9169 H   0  0  0  0  0  0  0  0  0  0  0  0
  153.1545  143.0621  158.3810 H   0  0  0  0  0  0  0  0  0  0  0  0
  151.9549  145.4065  157.6662 H   0  0  0  0  0  0  0  0  0  0  0  0
  151.0237  146.3910  160.0844 H   0  0  0  0  0  0  0  0  0  0  0  0
  151.7659  141.1712  159.5312 H   0  0  0  0  0  0  0  0  0  0  0  0
  151.5619  138.2846  158.0359 H   0  0  0  0  0  0  0  0  0  0  0  0
  153.0072  139.9023  156.0456 H   0  0  0  0  0  0  0  0  0  0  0  0
  151.9682  138.5186  155.7450 H   0  0  0  0  0  0  0  0  0  0  0  0
  151.2727  141.1063  155.0107 H   0  0  0  0  0  0  0  0  0  0  0  0
  150.0899  139.8575  155.4126 H   0  0  0  0  0  0  0  0  0  0  0  0
  151.2495  141.9386  157.3147 H   0  0  0  0  0  0  0  0  0  0  0  0
  149.5402  141.5788  157.0232 H   0  0  0  0  0  0  0  0  0  0  0  0
  1  2  1  0  0  0  0
  1 17  1  0  0  0  0
  1 18  1  0  0  0  0
  1 19  1  0  0  0  0
  2  3  1  0  0  0  0
  2  9  1  0  0  0  0
  2 20  1  0  0  0  0
  3  4  1  0  0  0  0
  3 21  1  0  0  0  0
  3 22  1  0  0  0  0
  4  8  1  0  0  0  0
  4  5  1  0  0  0  0
  5  6  2  0  0  0  0
  5 23  1  0  0  0  0
  6  7  1  0  0  0  0
  6 24  1  0  0  0  0
  7  8  2  0  0  0  0
  7 25  1  0  0  0  0
  9 10  1  0  0  0  0
  9 26  1  0  0  0  0
 10 11  2  0  0  0  0
 10 12  1  0  0  0  0
 12 16  1  0  0  0  0
 12 13  1  0  0  0  0
 12 27  1  0  0  0  0
 13 14  1  0  0  0  0
 13 28  1  0  0  0  0
 13 29  1  0  0  0  0
 14 15  1  0  0  0  0
 14 30  1  0  0  0  0
 14 31  1  0  0  0  0
 15 16  1  0  0  0  0
 15 32  1  0  0  0  0
 15 33  1  0  0  0  0
M  END
> <s_m_source_file>
AV-unprocessed.smi

> <i_m_source_file_index>
3220

> <i_lp_mmshare_version>
43012

> <i_f3d_flags>
0

> <s_epik_input>
bjFbY0hdW2NIXVtjSF1uMVtDSDJdW0NAQEhdKFtDSDNdKVtOSF1DKD1PKVtDQEBIXTJbQ0gyXVtDSDJdW0NIMl1PMg==

> <s_epik_cmdline>
J2VwaWtfcHl0aG9uJywgJy1waCcsICc3LjAnLCAnLXRuJywgJzgnLCAnLW1hJywgJzIwMCcsICctbWV0YWxfYmluZGluZycsICctaW1hZScsICc8aW5maWxlLm1hZT4nLCAnLW9tYWUnLCAnPG91dGZpbGUubWFlPic=

> <r_lp_tautomer_probability>
1

> <r_epik_Ionization_Penalty>
0.00033363

> <r_epik_Ionization_Penalty_Charging>
0

> <r_epik_Ionization_Penalty_Neutral>
0.00033363

> <r_epik_State_Penalty>
-0

> <r_epik_Charging_Adjusted_Penalty>
0

> <i_epik_Tot_Q>
0

> <i_epik_Tot_abs_Q>
0

> <r_epik_Metal_State_Penalty>
-0

> <b_epik_Metal_Only>
0

> <s_lp_Force_Field>
OPLS_2005

> <r_lp_Energy>
17.2779

> <b_lp_Chiralities_Consistent>
1

> <s_lp_Variant>
AV-unprocessed.smi:3220-1

> <Gold.Version>
5.8.1

> <Gold.Id.Protein>
6NUR|6NUR_protein|mol2

> <Gold.PLP.Fitness>
43.3702

> <Gold.PLP.PLP>
-40.3856

> <Gold.PLP.part.hbond>
-1.0000

> <Gold.PLP.part.metal>
0.0000

> <Gold.PLP.part.buried>
-3.6687

> <Gold.PLP.part.nonpolar>
-35.6936

> <Gold.PLP.part.repulsive>
0.2939

> <Gold.PLP.ligand.clash>
0.0000

> <Gold.PLP.ligand.torsion>
0.0338

> <Gold.PLP.Chemscore.Hbond>
1.0000

> <Gold.PLP.Chemscore.CHOScore>
0.0000

> <Gold.PLP.Chemscore.Metal>
0.0000

> <Gold.Chemscore.Hbonds>
donor molecule, donor type, donor heavy atom, donor atom, acceptor molecule, acceptor atom, score
      P1  H  7997  8010       L1    11  1.00

> <Gold.PLP.Chemscore.Internal.Correction>
0.0522

> <Gold.Rescore>
     Score         DG    S(hbond)    S(metal)    S(lipo)     H(rot)  DE(clash)    DE(int)     intcor
     14.42     -15.40       0.93        0.00      93.78       1.62       0.01       0.96       ----

> <Gold.Chemscore.Fitness>
14.4245

> <Gold.Chemscore.DG>
-15.3957

> <Gold.Chemscore.ZeroCoef>
-5.4800

> <Gold.Chemscore.Hbond>
0.9266

> <Gold.Chemscore.Metal>
0.0000

> <Gold.Chemscore.Lipo>
93.7843

> <Gold.Chemscore.Internal_Hbond>
0.0000

> <Gold.Chemscore.DEClash>
0.0111

> <Gold.Chemscore.DEInternal>
0.9601

> <Gold.Chemscore.Rot>
1.6219

> <Gold.Chemscore.Internal.Correction>
   9.000000E+99

> <Gold.Chemscore.Hbonds>
donor molecule, donor type, donor heavy atom, donor atom, acceptor molecule, acceptor atom, score
      P1  H  7997  8010       L1    11  0.84

> <Gold.Chemscore.Hbond.Weighted>
-3.0948

> <Gold.Chemscore.Metal.Weighted>
-0.0000

> <Gold.Chemscore.Lipo.Weighted>
-10.9728

> <Gold.Chemscore.Internal_Hbond.Weighted>
0.0000

> <Gold.Chemscore.DEClash.Weighted>
0.0111

> <Gold.Chemscore.DEInternal.Weighted>
0.9601

> <Gold.Chemscore.Rot.Weighted>
4.1520

> <Gold.Chemscore.Internal.Correction.Weighted>
   9.000000E+99

> <Gold.Protein.RotatedTorsions>
[ 6907 6896 6895 6894 ] final   39.27 input  -60.11 | X-H torsion
[ 7974 7965 7964 7962 ] final  171.23 input  175.53 | X-H torsion
[ 8008 7997 7996 7995 ] final   -0.80 input   59.86 | X-H torsion
[ 10167 10162 10161 10158 ] final -178.05 input  -65.29 | X-H torsion
[ 10718 10713 10712 10709 ] final   82.80 input   66.30 | X-H torsion
[ 10763 10752 10751 10750 ] final  -49.57 input  -60.55 | X-H torsion
[ 11005 11000 10999 10996 ] final   66.00 input  -57.11 | X-H torsion

> <Gold.Protein.ActiveResidues>
 VAL166  LYS551  ARG553  GLY616  TRP617  ASP618  TYR619  PRO620  LYS621  CYS622 
 ASP623  PHE694  ASN695  SER759  ASP760  ASP761  ALA762  ILE779  LEU786  VAL792 
 PHE793  MET794  SER795  GLU796  ALA797  LYS798  CYS799  TRP800  GLU811  SER814 

> <Gold.Protein.RotatedAtoms>
  152.1674  134.8862  160.0536 H   0  0  0  0  0  0  0  0  0  0  0  0  # atno 6907 bound_to 6896
  151.9835  133.3761  159.4125 H   0  0  0  0  0  0  0  0  0  0  0  0  # atno 6908 bound_to 6896
  150.6896  134.3936  159.5131 H   0  0  0  0  0  0  0  0  0  0  0  0  # atno 6909 bound_to 6896
  144.7301  139.9319  143.6425 H   0  0  0  0  0  0  0  0  0  0  0  0  # atno 7974 bound_to 7965
  154.6540  140.2575  155.7182 H   0  0  0  0  0  0  0  0  0  0  0  0  # atno 8008 bound_to 7997
  156.2588  140.2862  156.0906 H   0  0  0  0  0  0  0  0  0  0  0  0  # atno 8009 bound_to 7997
  155.1408  140.0380  157.2788 H   0  0  0  0  0  0  0  0  0  0  0  0  # atno 8010 bound_to 7997
  139.5451  144.2258  152.0972 H   0  0  0  0  0  0  0  0  0  0  0  0  # atno 10167 bound_to 10162
  157.6865  131.0063  150.2428 H   0  0  0  0  0  0  0  0  0  0  0  0  # atno 10718 bound_to 10713
  154.0963  135.6570  153.4860 H   0  0  0  0  0  0  0  0  0  0  0  0  # atno 10763 bound_to 10752
  153.0304  135.5214  154.7331 H   0  0  0  0  0  0  0  0  0  0  0  0  # atno 10764 bound_to 10752
  154.6470  135.2996  155.0003 H   0  0  0  0  0  0  0  0  0  0  0  0  # atno 10765 bound_to 10752
  139.9859  134.6669  156.0177 H   0  0  0  0  0  0  0  0  0  0  0  0  # atno 11005 bound_to 11000
  146.0851  139.3839  143.0440 LP  0  0  0  0  0  0  0  0  0  0  0  0  # atno 17320 bound_to 7965
  145.7788  140.9865  143.1110 LP  0  0  0  0  0  0  0  0  0  0  0  0  # atno 17321 bound_to 7965
  140.1743  144.4906  150.6562 LP  0  0  0  0  0  0  0  0  0  0  0  0  # atno 17342 bound_to 10162
  140.6696  143.2280  151.5658 LP  0  0  0  0  0  0  0  0  0  0  0  0  # atno 17343 bound_to 10162
  156.3039  130.3762  149.7724 LP  0  0  0  0  0  0  0  0  0  0  0  0  # atno 17370 bound_to 10713
  156.5346  130.8273  151.3248 LP  0  0  0  0  0  0  0  0  0  0  0  0  # atno 17371 bound_to 10713
  141.1524  133.6547  156.4055 LP  0  0  0  0  0  0  0  0  0  0  0  0  # atno 17394 bound_to 11000
  140.5003  134.6492  157.5246 LP  0  0  0  0  0  0  0  0  0  0  0  0  # atno 17395 bound_to 11000

$$$$
