AV-unprocessed.smi:3336|AV-procd|sdf|12853|dock7
  -GOLD-   2272019243D 1   1.00000     0.00000
 Structure written by MMmdl.
 42 43  0  0  0  0  0  0  0  0  2 V2000
  146.3087  134.5456  153.1439 C   0  0  0  0  0  0  0  0  0  0  0  0
  145.6510  135.7897  152.5238 C   0  0  2  0  0  0  0  0  0  0  0  0
  145.2524  135.5697  151.0461 C   0  0  0  0  0  0  0  0  0  0  0  0
  145.1095  134.1672  150.7008 N   0  0  0  0  0  0  0  0  0  0  0  0
  143.9531  133.4528  150.4665 C   0  0  0  0  0  0  0  0  0  0  0  0
  144.3205  132.1682  150.1855 C   0  0  0  0  0  0  0  0  0  0  0  0
  145.7400  132.1931  150.2811 C   0  0  0  0  0  0  0  0  0  0  0  0
  146.2091  133.3907  150.5930 N   0  0  0  0  0  0  0  0  0  0  0  0
  146.5720  136.9439  152.6552 N   0  3  0  0  0  0  0  0  0  0  0  0
  146.8671  137.3977  154.0375 C   0  0  2  0  0  0  0  0  0  0  0  0
  145.6141  138.0734  154.6193 C   0  0  0  0  0  0  0  0  0  0  0  0
  148.0653  138.3720  154.0768 C   0  0  0  0  0  0  0  0  0  0  0  0
  147.9429  139.4600  153.5107 O   0  0  0  0  0  0  0  0  0  0  0  0
  149.2069  138.0273  154.7245 N   0  0  0  0  0  0  0  0  0  0  0  0
  149.3693  136.7450  155.4190 C   0  0  0  0  0  0  0  0  0  0  0  0
  150.4973  135.9521  154.7359 C   0  0  0  0  0  0  0  0  0  0  0  0
  151.6997  136.7150  154.7653 O   0  0  0  0  0  0  0  0  0  0  0  0
  151.5730  137.9766  154.1163 C   0  0  0  0  0  0  0  0  0  0  0  0
  150.4547  138.7983  154.7838 C   0  0  0  0  0  0  0  0  0  0  0  0
  145.6251  133.6964  153.1622 H   0  0  0  0  0  0  0  0  0  0  0  0
  146.6105  134.7356  154.1746 H   0  0  0  0  0  0  0  0  0  0  0  0
  147.1973  134.2460  152.5868 H   0  0  0  0  0  0  0  0  0  0  0  0
  144.7514  135.9974  153.1048 H   0  0  0  0  0  0  0  0  0  0  0  0
  144.3091  136.0644  150.8148 H   0  0  0  0  0  0  0  0  0  0  0  0
  146.0018  136.0095  150.3869 H   0  0  0  0  0  0  0  0  0  0  0  0
  142.9766  133.9121  150.5155 H   0  0  0  0  0  0  0  0  0  0  0  0
  143.6733  131.3363  149.9500 H   0  0  0  0  0  0  0  0  0  0  0  0
  146.4383  131.3822  150.1355 H   0  0  0  0  0  0  0  0  0  0  0  0
  147.4551  136.6919  152.2337 H   0  0  0  0  0  0  0  0  0  0  0  0
  147.0903  136.5080  154.6221 H   0  0  0  0  0  0  0  0  0  0  0  0
  145.7683  138.3994  155.6477 H   0  0  0  0  0  0  0  0  0  0  0  0
  144.7674  137.3864  154.6229 H   0  0  0  0  0  0  0  0  0  0  0  0
  145.3257  138.9492  154.0362 H   0  0  0  0  0  0  0  0  0  0  0  0
  149.6218  136.9308  156.4643 H   0  0  0  0  0  0  0  0  0  0  0  0
  148.4587  136.1452  155.4331 H   0  0  0  0  0  0  0  0  0  0  0  0
  150.6652  135.0093  155.2564 H   0  0  0  0  0  0  0  0  0  0  0  0
  150.2337  135.7073  153.7056 H   0  0  0  0  0  0  0  0  0  0  0  0
  152.5233  138.5057  154.1874 H   0  0  0  0  0  0  0  0  0  0  0  0
  151.3682  137.8295  153.0547 H   0  0  0  0  0  0  0  0  0  0  0  0
  150.4043  139.7724  154.3041 H   0  0  0  0  0  0  0  0  0  0  0  0
  150.7054  138.9920  155.8278 H   0  0  0  0  0  0  0  0  0  0  0  0
  146.1788  137.7146  152.1347 H   0  0  0  0  0  0  0  0  0  0  0  0
  1  2  1  0  0  0  0
  1 20  1  0  0  0  0
  1 21  1  0  0  0  0
  1 22  1  0  0  0  0
  2  3  1  0  0  0  0
  2  9  1  0  0  0  0
  2 23  1  0  0  0  0
  3  4  1  0  0  0  0
  3 24  1  0  0  0  0
  3 25  1  0  0  0  0
  4  8  1  0  0  0  0
  4  5  1  0  0  0  0
  5  6  2  0  0  0  0
  5 26  1  0  0  0  0
  6  7  1  0  0  0  0
  6 27  1  0  0  0  0
  7  8  2  0  0  0  0
  7 28  1  0  0  0  0
  9 10  1  0  0  0  0
  9 29  1  0  0  0  0
  9 42  1  0  0  0  0
 10 11  1  0  0  0  0
 10 12  1  0  0  0  0
 10 30  1  0  0  0  0
 11 31  1  0  0  0  0
 11 32  1  0  0  0  0
 11 33  1  0  0  0  0
 12 13  2  0  0  0  0
 12 14  1  0  0  0  0
 14 19  1  0  0  0  0
 14 15  1  0  0  0  0
 15 16  1  0  0  0  0
 15 34  1  0  0  0  0
 15 35  1  0  0  0  0
 16 17  1  0  0  0  0
 16 36  1  0  0  0  0
 16 37  1  0  0  0  0
 17 18  1  0  0  0  0
 18 19  1  0  0  0  0
 18 38  1  0  0  0  0
 18 39  1  0  0  0  0
 19 40  1  0  0  0  0
 19 41  1  0  0  0  0
M  CHG  1   9   1
M  END
> <s_m_source_file>
AV-unprocessed.smi

> <i_m_source_file_index>
3336

> <i_lp_mmshare_version>
43012

> <i_f3d_flags>
0

> <s_epik_input>
bjFbY0hdW2NIXVtjSF1uMVtDSDJdW0NAQEhdKFtDSDNdKVtOSF1bQ0BIXShbQ0gzXSlDKD1PKU4yW0NIMl1bQ0gyXU9bQ0gyXVtDSDJdMg==

> <s_epik_cmdline>
J2VwaWtfcHl0aG9uJywgJy1waCcsICc3LjAnLCAnLXRuJywgJzgnLCAnLW1hJywgJzIwMCcsICctbWV0YWxfYmluZGluZycsICctaW1hZScsICc8aW5maWxlLm1hZT4nLCAnLW9tYWUnLCAnPG91dGZpbGUubWFlPic=

> <r_lp_tautomer_probability>
1

> <r_epik_Ionization_Penalty>
0.200288

> <r_epik_Ionization_Penalty_Charging>
0.200285

> <r_epik_Ionization_Penalty_Neutral>
3.37705e-06

> <r_epik_State_Penalty>
0.190126

> <r_epik_Charging_Adjusted_Penalty>
0.39041

> <i_epik_Tot_Q>
1

> <i_epik_Tot_abs_Q>
1

> <r_epik_Metal_State_Penalty>
0.190133

> <b_epik_Metal_Only>
0

> <s_lp_Force_Field>
OPLS_2005

> <r_lp_Energy>
27.4401

> <b_lp_Chiralities_Consistent>
1

> <s_lp_Variant>
AV-unprocessed.smi:3336-1

> <Gold.Version>
5.8.1

> <Gold.Id.Protein>
6NUR|6NUR_protein|mol2

> <Gold.PLP.Fitness>
43.1224

> <Gold.PLP.PLP>
-29.6407

> <Gold.PLP.part.hbond>
-2.0000

> <Gold.PLP.part.metal>
0.0000

> <Gold.PLP.part.buried>
-6.1438

> <Gold.PLP.part.nonpolar>
-23.4404

> <Gold.PLP.part.repulsive>
1.3116

> <Gold.PLP.ligand.clash>
0.0000

> <Gold.PLP.ligand.torsion>
0.7907

> <Gold.PLP.Chemscore.Hbond>
3.0000

> <Gold.PLP.Chemscore.CHOScore>
2.0000

> <Gold.PLP.Chemscore.Metal>
0.0000

> <Gold.Chemscore.Hbonds>
donor molecule, donor type, donor heavy atom, donor atom, acceptor molecule, acceptor atom, score
      L1  H     9    29       P1  7948  2.00
      P1  H 10752 10765       L1    17  1.00
      L1  C     5    26       P1 10186  1.00
      L1  C     7    28       P1 10747  0.87

> <Gold.PLP.Chemscore.Internal.Correction>
0.0632

> <Gold.Rescore>
     Score         DG    S(hbond)    S(metal)    S(lipo)     H(rot)  DE(clash)    DE(int)     intcor
     12.62     -14.83       1.89        0.00      66.45       1.85       0.04       2.17       ----

> <Gold.Chemscore.Fitness>
12.6231

> <Gold.Chemscore.DG>
-14.8328

> <Gold.Chemscore.ZeroCoef>
-5.4800

> <Gold.Chemscore.Hbond>
1.8936

> <Gold.Chemscore.Metal>
0.0000

> <Gold.Chemscore.Lipo>
66.4515

> <Gold.Chemscore.Internal_Hbond>
0.0000

> <Gold.Chemscore.DEClash>
0.0427

> <Gold.Chemscore.DEInternal>
2.1669

> <Gold.Chemscore.Rot>
1.8541

> <Gold.Chemscore.Internal.Correction>
   9.000000E+99

> <Gold.Chemscore.Hbonds>
donor molecule, donor type, donor heavy atom, donor atom, acceptor molecule, acceptor atom, score
      L1  H     9    29       P1  7948  0.99
      P1  H 10752 10765       L1    17  0.55

> <Gold.Chemscore.Hbond.Weighted>
-6.3245

> <Gold.Chemscore.Metal.Weighted>
-0.0000

> <Gold.Chemscore.Lipo.Weighted>
-7.7748

> <Gold.Chemscore.Internal_Hbond.Weighted>
0.0000

> <Gold.Chemscore.DEClash.Weighted>
0.0427

> <Gold.Chemscore.DEInternal.Weighted>
2.1669

> <Gold.Chemscore.Rot.Weighted>
4.7465

> <Gold.Chemscore.Internal.Correction.Weighted>
   9.000000E+99

> <Gold.Protein.RotatedTorsions>
[ 6907 6896 6895 6894 ] final -105.93 input  -60.11 | X-H torsion
[ 7974 7965 7964 7962 ] final   32.72 input  175.53 | X-H torsion
[ 8008 7997 7996 7995 ] final -131.64 input   59.86 | X-H torsion
[ 10167 10162 10161 10158 ] final   17.57 input  -65.29 | X-H torsion
[ 10718 10713 10712 10709 ] final  171.58 input   66.30 | X-H torsion
[ 10763 10752 10751 10750 ] final  175.52 input  -60.55 | X-H torsion
[ 11005 11000 10999 10996 ] final  -19.04 input  -57.11 | X-H torsion

> <Gold.Protein.ActiveResidues>
 VAL166  LYS551  ARG553  GLY616  TRP617  ASP618  TYR619  PRO620  LYS621  CYS622 
 ASP623  PHE694  ASN695  SER759  ASP760  ASP761  ALA762  ILE779  LEU786  VAL792 
 PHE793  MET794  SER795  GLU796  ALA797  LYS798  CYS799  TRP800  GLU811  SER814 

> <Gold.Protein.RotatedAtoms>
  150.7362  134.0053  159.3651 H   0  0  0  0  0  0  0  0  0  0  0  0  # atno 6907 bound_to 6896
  151.8009  135.0707  160.0409 H   0  0  0  0  0  0  0  0  0  0  0  0  # atno 6908 bound_to 6896
  152.3141  133.5747  159.5737 H   0  0  0  0  0  0  0  0  0  0  0  0  # atno 6909 bound_to 6896
  146.1468  139.6489  142.9126 H   0  0  0  0  0  0  0  0  0  0  0  0  # atno 7974 bound_to 7965
  155.3156  140.0459  157.3037 H   0  0  0  0  0  0  0  0  0  0  0  0  # atno 8008 bound_to 7997
  154.5408  140.2287  155.8610 H   0  0  0  0  0  0  0  0  0  0  0  0  # atno 8009 bound_to 7997
  156.1879  140.3058  155.9281 H   0  0  0  0  0  0  0  0  0  0  0  0  # atno 8010 bound_to 7997
  140.5716  143.9150  150.6717 H   0  0  0  0  0  0  0  0  0  0  0  0  # atno 10167 bound_to 10162
  156.9914  131.0149  151.2855 H   0  0  0  0  0  0  0  0  0  0  0  0  # atno 10718 bound_to 10713
  154.4686  135.2770  155.1659 H   0  0  0  0  0  0  0  0  0  0  0  0  # atno 10763 bound_to 10752
  154.3417  135.6168  153.5603 H   0  0  0  0  0  0  0  0  0  0  0  0  # atno 10764 bound_to 10752
  152.9862  135.5790  154.5063 H   0  0  0  0  0  0  0  0  0  0  0  0  # atno 10765 bound_to 10752
  140.8328  133.7984  155.9776 H   0  0  0  0  0  0  0  0  0  0  0  0  # atno 11005 bound_to 11000
  145.4919  141.0438  143.2588 LP  0  0  0  0  0  0  0  0  0  0  0  0  # atno 17320 bound_to 7965
  144.7855  139.6435  143.7136 LP  0  0  0  0  0  0  0  0  0  0  0  0  # atno 17321 bound_to 7965
  140.2627  143.3512  152.1308 LP  0  0  0  0  0  0  0  0  0  0  0  0  # atno 17342 bound_to 10162
  139.5120  144.6910  151.5759 LP  0  0  0  0  0  0  0  0  0  0  0  0  # atno 17343 bound_to 10162
  157.5456  130.8148  149.8081 LP  0  0  0  0  0  0  0  0  0  0  0  0  # atno 17370 bound_to 10713
  156.0206  130.3797  150.1975 LP  0  0  0  0  0  0  0  0  0  0  0  0  # atno 17371 bound_to 10713
  140.8980  134.2413  157.5058 LP  0  0  0  0  0  0  0  0  0  0  0  0  # atno 17394 bound_to 11000
  139.8704  134.9693  156.4661 LP  0  0  0  0  0  0  0  0  0  0  0  0  # atno 17395 bound_to 11000

$$$$
