AV-unprocessed.smi:2412|AV-procd|sdf|9532|dock8
  -GOLD-   2272013163D 1   1.00000     0.00000
 Structure written by MMmdl.
 37 38  0  0  0  0  0  0  0  0  1 V2000
  150.7397  137.6725  154.3821 C   0  0  0  0  0  0  0  0  0  0  0  0
  150.0575  139.0240  154.5027 C   0  0  0  0  0  0  0  0  0  0  0  0
  150.7172  140.0892  155.1532 C   0  0  0  0  0  0  0  0  0  0  0  0
  150.1840  141.3195  155.2991 N   0  0  0  0  0  0  0  0  0  0  0  0
  148.9551  141.5362  154.7878 C   0  0  0  0  0  0  0  0  0  0  0  0
  148.2077  140.5471  154.1196 C   0  0  0  0  0  0  0  0  0  0  0  0
  148.7609  139.2511  153.9802 C   0  0  0  0  0  0  0  0  0  0  0  0
  148.0985  138.1871  153.3043 N   0  0  0  0  0  0  0  0  0  0  0  0
  146.7856  137.9004  153.2651 C   0  0  0  0  0  0  0  0  0  0  0  0
  145.9011  138.5168  153.8593 O   0  0  0  0  0  0  0  0  0  0  0  0
  146.5472  136.8270  152.4965 N   0  0  0  0  0  0  0  0  0  0  0  0
  145.2251  136.2662  152.2226 C   0  0  0  0  0  0  0  0  0  0  0  0
  145.1171  134.7661  152.5547 C   0  0  0  0  0  0  0  0  0  0  0  0
  145.4103  134.3625  153.6818 O   0  0  0  0  0  0  0  0  0  0  0  0
  144.6850  133.9299  151.5879 N   0  0  0  0  0  0  0  0  0  0  0  0
  144.3015  134.3161  150.2300 C   0  0  0  0  0  0  0  0  0  0  0  0
  144.0845  133.0058  149.4718 C   0  0  0  0  0  0  0  0  0  0  0  0
  143.7469  131.9950  150.5585 C   0  0  0  0  0  0  0  0  0  0  0  0
  144.5172  132.4910  151.7822 C   0  0  0  0  0  0  0  0  0  0  0  0
  151.7150  137.6755  154.8696 H   0  0  0  0  0  0  0  0  0  0  0  0
  150.8879  137.4131  153.3335 H   0  0  0  0  0  0  0  0  0  0  0  0
  150.1329  136.8962  154.8491 H   0  0  0  0  0  0  0  0  0  0  0  0
  151.7053  139.9532  155.5681 H   0  0  0  0  0  0  0  0  0  0  0  0
  148.5563  142.5326  154.9079 H   0  0  0  0  0  0  0  0  0  0  0  0
  147.2398  140.8064  153.7195 H   0  0  0  0  0  0  0  0  0  0  0  0
  148.7065  137.5344  152.8324 H   0  0  0  0  0  0  0  0  0  0  0  0
  147.3318  136.3794  152.0460 H   0  0  0  0  0  0  0  0  0  0  0  0
  144.4964  136.8123  152.8219 H   0  0  0  0  0  0  0  0  0  0  0  0
  144.9667  136.4370  151.1765 H   0  0  0  0  0  0  0  0  0  0  0  0
  143.3754  134.8914  150.2709 H   0  0  0  0  0  0  0  0  0  0  0  0
  145.0612  134.9250  149.7385 H   0  0  0  0  0  0  0  0  0  0  0  0
  143.3092  133.0818  148.7089 H   0  0  0  0  0  0  0  0  0  0  0  0
  145.0115  132.7120  148.9774 H   0  0  0  0  0  0  0  0  0  0  0  0
  142.6759  132.0247  150.7634 H   0  0  0  0  0  0  0  0  0  0  0  0
  144.0060  130.9727  150.2816 H   0  0  0  0  0  0  0  0  0  0  0  0
  145.5020  132.0240  151.8309 H   0  0  0  0  0  0  0  0  0  0  0  0
  143.9852  132.2577  152.7061 H   0  0  0  0  0  0  0  0  0  0  0  0
  1  2  1  0  0  0  0
  1 20  1  0  0  0  0
  1 21  1  0  0  0  0
  1 22  1  0  0  0  0
  2  7  1  0  0  0  0
  2  3  2  0  0  0  0
  3  4  1  0  0  0  0
  3 23  1  0  0  0  0
  4  5  2  0  0  0  0
  5  6  1  0  0  0  0
  5 24  1  0  0  0  0
  6  7  2  0  0  0  0
  6 25  1  0  0  0  0
  7  8  1  0  0  0  0
  8  9  1  0  0  0  0
  8 26  1  0  0  0  0
  9 10  2  0  0  0  0
  9 11  1  0  0  0  0
 11 12  1  0  0  0  0
 11 27  1  0  0  0  0
 12 13  1  0  0  0  0
 12 28  1  0  0  0  0
 12 29  1  0  0  0  0
 13 14  2  0  0  0  0
 13 15  1  0  0  0  0
 15 19  1  0  0  0  0
 15 16  1  0  0  0  0
 16 17  1  0  0  0  0
 16 30  1  0  0  0  0
 16 31  1  0  0  0  0
 17 18  1  0  0  0  0
 17 32  1  0  0  0  0
 17 33  1  0  0  0  0
 18 19  1  0  0  0  0
 18 34  1  0  0  0  0
 18 35  1  0  0  0  0
 19 36  1  0  0  0  0
 19 37  1  0  0  0  0
M  END
> <s_m_source_file>
AV-unprocessed.smi

> <i_m_source_file_index>
2412

> <i_lp_mmshare_version>
43012

> <i_f3d_flags>
0

> <s_epik_input>
W0NIM11jMVtjSF1uW2NIXVtjSF1jMVtOSF1DKD1PKVtOSF1bQ0gyXUMoPU8pTjJbQ0gyXVtDSDJdW0NIMl1bQ0gyXTI=

> <s_epik_cmdline>
J2VwaWtfcHl0aG9uJywgJy1waCcsICc3LjAnLCAnLXRuJywgJzgnLCAnLW1hJywgJzIwMCcsICctbWV0YWxfYmluZGluZycsICctaW1hZScsICc8aW5maWxlLm1hZT4nLCAnLW9tYWUnLCAnPG91dGZpbGUubWFlPic=

> <r_epik_Ionization_Penalty>
0.157619

> <r_epik_Ionization_Penalty_Charging>
0

> <r_epik_Ionization_Penalty_Neutral>
0.157619

> <r_epik_State_Penalty>
0.146889

> <r_epik_Charging_Adjusted_Penalty>
0.146889

> <i_epik_Tot_Q>
0

> <i_epik_Tot_abs_Q>
0

> <r_epik_Metal_State_Penalty>
0.115729

> <b_epik_Metal_Only>
0

> <s_lp_Force_Field>
OPLS_2005

> <r_lp_Energy>
29.7149

> <b_lp_Chiralities_Consistent>
1

> <s_lp_Variant>
AV-unprocessed.smi:2412-1

> <Gold.Version>
5.8.1

> <Gold.Id.Protein>
6NUR|6NUR_protein|mol2

> <Gold.PLP.Fitness>
41.5684

> <Gold.PLP.PLP>
-33.1506

> <Gold.PLP.part.hbond>
-3.2498

> <Gold.PLP.part.metal>
0.0000

> <Gold.PLP.part.buried>
0.0425

> <Gold.PLP.part.nonpolar>
-30.3191

> <Gold.PLP.part.repulsive>
0.4301

> <Gold.PLP.ligand.clash>
0.0000

> <Gold.PLP.ligand.torsion>
0.2918

> <Gold.PLP.Chemscore.Hbond>
2.0000

> <Gold.PLP.Chemscore.CHOScore>
1.0000

> <Gold.PLP.Chemscore.Metal>
0.0000

> <Gold.Chemscore.Hbonds>
donor molecule, donor type, donor heavy atom, donor atom, acceptor molecule, acceptor atom, score
      L1  H     8    26       P1  7948  1.00
      L1  H    11    27       P1  7948  1.00
      L1  C     5    24       P1  8028  1.00

> <Gold.PLP.Chemscore.Internal.Correction>
0.0014

> <Gold.Rescore>
     Score         DG    S(hbond)    S(metal)    S(lipo)     H(rot)  DE(clash)    DE(int)     intcor
     17.36     -17.72       1.93        0.00      77.17       1.26       0.02       0.34       ----

> <Gold.Chemscore.Fitness>
17.3630

> <Gold.Chemscore.DG>
-17.7176

> <Gold.Chemscore.ZeroCoef>
-5.4800

> <Gold.Chemscore.Hbond>
1.9289

> <Gold.Chemscore.Metal>
0.0000

> <Gold.Chemscore.Lipo>
77.1716

> <Gold.Chemscore.Internal_Hbond>
0.0000

> <Gold.Chemscore.DEClash>
0.0178

> <Gold.Chemscore.DEInternal>
0.3369

> <Gold.Chemscore.Rot>
1.2633

> <Gold.Chemscore.Internal.Correction>
   9.000000E+99

> <Gold.Chemscore.Hbonds>
donor molecule, donor type, donor heavy atom, donor atom, acceptor molecule, acceptor atom, score
      L1  H     8    26       P1  7948  0.96
      L1  H    11    27       P1  7948  0.95

> <Gold.Chemscore.Hbond.Weighted>
-6.4426

> <Gold.Chemscore.Metal.Weighted>
-0.0000

> <Gold.Chemscore.Lipo.Weighted>
-9.0291

> <Gold.Chemscore.Internal_Hbond.Weighted>
0.0000

> <Gold.Chemscore.DEClash.Weighted>
0.0178

> <Gold.Chemscore.DEInternal.Weighted>
0.3369

> <Gold.Chemscore.Rot.Weighted>
3.2341

> <Gold.Chemscore.Internal.Correction.Weighted>
   9.000000E+99

> <Gold.Protein.RotatedTorsions>
[ 6907 6896 6895 6894 ] final  178.21 input  -60.11 | X-H torsion
[ 7974 7965 7964 7962 ] final -179.53 input  175.53 | X-H torsion
[ 8008 7997 7996 7995 ] final -100.62 input   59.86 | X-H torsion
[ 10167 10162 10161 10158 ] final   71.99 input  -65.29 | X-H torsion
[ 10718 10713 10712 10709 ] final  -40.76 input   66.30 | X-H torsion
[ 10763 10752 10751 10750 ] final   20.50 input  -60.55 | X-H torsion
[ 11005 11000 10999 10996 ] final  129.17 input  -57.11 | X-H torsion

> <Gold.Protein.ActiveResidues>
 VAL166  LYS551  ARG553  GLY616  TRP617  ASP618  TYR619  PRO620  LYS621  CYS622 
 ASP623  PHE694  ASN695  SER759  ASP760  ASP761  ALA762  ILE779  LEU786  VAL792 
 PHE793  MET794  SER795  GLU796  ALA797  LYS798  CYS799  TRP800  GLU811  SER814 

> <Gold.Protein.RotatedAtoms>
  151.6915  133.3311  159.3243 H   0  0  0  0  0  0  0  0  0  0  0  0  # atno 6907 bound_to 6896
  150.7776  134.6694  159.6392 H   0  0  0  0  0  0  0  0  0  0  0  0  # atno 6908 bound_to 6896
  152.3824  134.6573  160.0190 H   0  0  0  0  0  0  0  0  0  0  0  0  # atno 6909 bound_to 6896
  144.7137  140.0704  143.6429 H   0  0  0  0  0  0  0  0  0  0  0  0  # atno 7974 bound_to 7965
  154.8312  140.0439  157.1478 H   0  0  0  0  0  0  0  0  0  0  0  0  # atno 8008 bound_to 7997
  154.9151  140.3019  155.5225 H   0  0  0  0  0  0  0  0  0  0  0  0  # atno 8009 bound_to 7997
  156.2987  140.2351  156.4194 H   0  0  0  0  0  0  0  0  0  0  0  0  # atno 8010 bound_to 7997
  140.0401  144.5396  150.7441 H   0  0  0  0  0  0  0  0  0  0  0  0  # atno 10167 bound_to 10162
  156.2778  130.4214  149.8369 H   0  0  0  0  0  0  0  0  0  0  0  0  # atno 10718 bound_to 10713
  153.1073  135.6688  153.9564 H   0  0  0  0  0  0  0  0  0  0  0  0  # atno 10763 bound_to 10752
  153.9118  135.3024  155.3450 H   0  0  0  0  0  0  0  0  0  0  0  0  # atno 10764 bound_to 10752
  154.7493  135.5042  153.9337 H   0  0  0  0  0  0  0  0  0  0  0  0  # atno 10765 bound_to 10752
  139.9601  134.9604  156.9109 H   0  0  0  0  0  0  0  0  0  0  0  0  # atno 11005 bound_to 11000
  145.9788  139.2925  143.1054 LP  0  0  0  0  0  0  0  0  0  0  0  0  # atno 17320 bound_to 7965
  145.9034  140.9228  143.0491 LP  0  0  0  0  0  0  0  0  0  0  0  0  # atno 17321 bound_to 7965
  140.7264  143.2641  151.4106 LP  0  0  0  0  0  0  0  0  0  0  0  0  # atno 17342 bound_to 10162
  139.6019  144.1277  152.2208 LP  0  0  0  0  0  0  0  0  0  0  0  0  # atno 17343 bound_to 10162
  156.5827  130.8472  151.3387 LP  0  0  0  0  0  0  0  0  0  0  0  0  # atno 17370 bound_to 10713
  157.7305  130.9686  150.1835 LP  0  0  0  0  0  0  0  0  0  0  0  0  # atno 17371 bound_to 10713
  140.5521  134.0617  155.7372 LP  0  0  0  0  0  0  0  0  0  0  0  0  # atno 17394 bound_to 11000
  141.1277  133.9356  157.2602 LP  0  0  0  0  0  0  0  0  0  0  0  0  # atno 17395 bound_to 11000

$$$$
