AV-unprocessed.smi:2482|AV-procd|sdf|9778|dock7
  -GOLD-   2272013423D 1   1.00000     0.00000
 Structure written by MMmdl.
 35 36  0  0  0  0  0  0  0  0  2 V2000
  152.4184  144.0477  161.9540 C   0  0  0  0  0  0  0  0  0  0  0  0
  151.9081  143.9324  160.5296 C   0  0  0  0  0  0  0  0  0  0  0  0
  151.2273  145.0019  160.0637 N   0  0  0  0  0  0  0  0  0  0  0  0
  150.7469  144.9497  158.8046 C   0  0  0  0  0  0  0  0  0  0  0  0
  150.9240  143.8424  157.9531 C   0  0  0  0  0  0  0  0  0  0  0  0
  151.6506  142.7262  158.4326 C   0  0  0  0  0  0  0  0  0  0  0  0
  151.8719  141.5470  157.6686 N   0  0  0  0  0  0  0  0  0  0  0  0
  151.2858  141.1562  156.5212 C   0  0  0  0  0  0  0  0  0  0  0  0
  150.4095  141.7930  155.9365 O   0  0  0  0  0  0  0  0  0  0  0  0
  151.7751  139.8187  155.9437 C   0  0  1  0  0  0  0  0  0  0  0  0
  151.4416  138.6149  156.8560 C   0  0  0  0  0  0  0  0  0  0  0  0
  151.8660  137.3455  156.2219 N   0  3  1  0  0  0  0  0  0  0  0  0
  151.6025  136.1666  157.0743 C   0  0  0  0  0  0  0  0  0  0  0  0
  151.2867  137.2109  154.8667 C   0  0  0  0  0  0  0  0  0  0  0  0
  151.6310  138.4443  154.0174 C   0  0  0  0  0  0  0  0  0  0  0  0
  151.1619  139.6170  154.6707 O   0  0  0  0  0  0  0  0  0  0  0  0
  152.1423  142.7698  159.7583 C   0  0  0  0  0  0  0  0  0  0  0  0
  153.0190  141.4307  160.4212 Cl  0  0  0  0  0  0  0  0  0  0  0  0
  153.5045  143.9554  161.9753 H   0  0  0  0  0  0  0  0  0  0  0  0
  151.9919  143.2600  162.5755 H   0  0  0  0  0  0  0  0  0  0  0  0
  152.1538  145.0082  162.3985 H   0  0  0  0  0  0  0  0  0  0  0  0
  150.1972  145.8155  158.4664 H   0  0  0  0  0  0  0  0  0  0  0  0
  150.4908  143.8684  156.9654 H   0  0  0  0  0  0  0  0  0  0  0  0
  152.6315  140.9652  157.9918 H   0  0  0  0  0  0  0  0  0  0  0  0
  152.8559  139.8957  155.8133 H   0  0  0  0  0  0  0  0  0  0  0  0
  151.9479  138.7173  157.8172 H   0  0  0  0  0  0  0  0  0  0  0  0
  150.3696  138.5774  157.0595 H   0  0  0  0  0  0  0  0  0  0  0  0
  150.5333  136.0414  157.2511 H   0  0  0  0  0  0  0  0  0  0  0  0
  152.0987  136.2723  158.0395 H   0  0  0  0  0  0  0  0  0  0  0  0
  151.9805  135.2588  156.6031 H   0  0  0  0  0  0  0  0  0  0  0  0
  151.6737  136.3107  154.3879 H   0  0  0  0  0  0  0  0  0  0  0  0
  150.2038  137.0971  154.9388 H   0  0  0  0  0  0  0  0  0  0  0  0
  152.7064  138.5135  153.8461 H   0  0  0  0  0  0  0  0  0  0  0  0
  151.1566  138.3713  153.0387 H   0  0  0  0  0  0  0  0  0  0  0  0
  152.8680  137.3996  156.1048 H   0  0  0  0  0  0  0  0  0  0  0  0
  1  2  1  0  0  0  0
  1 19  1  0  0  0  0
  1 20  1  0  0  0  0
  1 21  1  0  0  0  0
  2 17  1  0  0  0  0
  2  3  2  0  0  0  0
  3  4  1  0  0  0  0
  4  5  2  0  0  0  0
  4 22  1  0  0  0  0
  5  6  1  0  0  0  0
  5 23  1  0  0  0  0
  6  7  1  0  0  0  0
  6 17  2  0  0  0  0
  7  8  1  0  0  0  0
  7 24  1  0  0  0  0
  8  9  2  0  0  0  0
  8 10  1  0  0  0  0
 10 16  1  0  0  0  0
 10 11  1  0  0  0  0
 10 25  1  0  0  0  0
 11 12  1  0  0  0  0
 11 26  1  0  0  0  0
 11 27  1  0  0  0  0
 12 13  1  0  0  0  0
 12 14  1  0  0  0  0
 12 35  1  0  0  0  0
 13 28  1  0  0  0  0
 13 29  1  0  0  0  0
 13 30  1  0  0  0  0
 14 15  1  0  0  0  0
 14 31  1  0  0  0  0
 14 32  1  0  0  0  0
 15 16  1  0  0  0  0
 15 33  1  0  0  0  0
 15 34  1  0  0  0  0
 17 18  1  0  0  0  0
M  CHG  1  12   1
M  END
> <s_m_source_file>
AV-unprocessed.smi

> <i_m_source_file_index>
2482

> <i_lp_mmshare_version>
43012

> <i_f3d_flags>
0

> <s_epik_input>
W0NIM11jMW5bY0hdW2NIXWMoYzFDbClbTkhdQyg9TylbQ0BASF0yW0NIMl1OKFtDSDNdKVtDSDJdW0NIMl1PMg==

> <s_epik_cmdline>
J2VwaWtfcHl0aG9uJywgJy1waCcsICc3LjAnLCAnLXRuJywgJzgnLCAnLW1hJywgJzIwMCcsICctbWV0YWxfYmluZGluZycsICctaW1hZScsICc8aW5maWxlLm1hZT4nLCAnLW9tYWUnLCAnPG91dGZpbGUubWFlPic=

> <r_epik_Ionization_Penalty>
0.314226

> <r_epik_Ionization_Penalty_Charging>
0.314023

> <r_epik_Ionization_Penalty_Neutral>
0.00020299

> <r_epik_State_Penalty>
0.308208

> <r_epik_Charging_Adjusted_Penalty>
0.62223

> <i_epik_Tot_Q>
1

> <i_epik_Tot_abs_Q>
1

> <r_epik_Metal_State_Penalty>
0.314444

> <b_epik_Metal_Only>
0

> <s_lp_Force_Field>
OPLS_2005

> <r_lp_Energy>
22.3096

> <b_lp_Chiralities_Consistent>
1

> <s_lp_Variant>
AV-unprocessed.smi:2482-4

> <Gold.Version>
5.8.1

> <Gold.Id.Protein>
6NUR|6NUR_protein|mol2

> <Gold.PLP.Fitness>
39.5538

> <Gold.PLP.PLP>
-33.7679

> <Gold.PLP.part.hbond>
-1.0000

> <Gold.PLP.part.metal>
0.0000

> <Gold.PLP.part.buried>
-4.7030

> <Gold.PLP.part.nonpolar>
-27.5865

> <Gold.PLP.part.repulsive>
0.4881

> <Gold.PLP.ligand.clash>
0.0000

> <Gold.PLP.ligand.torsion>
0.1030

> <Gold.PLP.Chemscore.Hbond>
1.0000

> <Gold.PLP.Chemscore.CHOScore>
0.9968

> <Gold.PLP.Chemscore.Metal>
0.0000

> <Gold.Chemscore.Hbonds>
donor molecule, donor type, donor heavy atom, donor atom, acceptor molecule, acceptor atom, score
      P1  H  7989  7998       L1    16  1.00
      L1  C     4    22       P1  8029  0.90

> <Gold.PLP.Chemscore.Internal.Correction>
0.0014

> <Gold.Rescore>
     Score         DG    S(hbond)    S(metal)    S(lipo)     H(rot)  DE(clash)    DE(int)     intcor
     16.54     -18.11       0.82        0.00     106.52       1.00       0.16       1.41       ----

> <Gold.Chemscore.Fitness>
16.5376

> <Gold.Chemscore.DG>
-18.1070

> <Gold.Chemscore.ZeroCoef>
-5.4800

> <Gold.Chemscore.Hbond>
0.8156

> <Gold.Chemscore.Metal>
0.0000

> <Gold.Chemscore.Lipo>
106.5203

> <Gold.Chemscore.Internal_Hbond>
0.0000

> <Gold.Chemscore.DEClash>
0.1558

> <Gold.Chemscore.DEInternal>
1.4136

> <Gold.Chemscore.Rot>
1.0000

> <Gold.Chemscore.Internal.Correction>
   9.000000E+99

> <Gold.Chemscore.Hbonds>
donor molecule, donor type, donor heavy atom, donor atom, acceptor molecule, acceptor atom, score
      P1  H  7989  7998       L1    16  0.21

> <Gold.Chemscore.Hbond.Weighted>
-2.7242

> <Gold.Chemscore.Metal.Weighted>
-0.0000

> <Gold.Chemscore.Lipo.Weighted>
-12.4629

> <Gold.Chemscore.Internal_Hbond.Weighted>
0.0000

> <Gold.Chemscore.DEClash.Weighted>
0.1558

> <Gold.Chemscore.DEInternal.Weighted>
1.4136

> <Gold.Chemscore.Rot.Weighted>
2.5600

> <Gold.Chemscore.Internal.Correction.Weighted>
   9.000000E+99

> <Gold.Protein.RotatedTorsions>
[ 6907 6896 6895 6894 ] final -135.49 input  -60.11 | X-H torsion
[ 7974 7965 7964 7962 ] final  -22.28 input  175.53 | X-H torsion
[ 8008 7997 7996 7995 ] final   28.78 input   59.86 | X-H torsion
[ 10167 10162 10161 10158 ] final  -76.36 input  -65.29 | X-H torsion
[ 10718 10713 10712 10709 ] final -151.11 input   66.30 | X-H torsion
[ 10763 10752 10751 10750 ] final  166.33 input  -60.55 | X-H torsion
[ 11005 11000 10999 10996 ] final  -35.20 input  -57.11 | X-H torsion

> <Gold.Protein.ActiveResidues>
 VAL166  LYS551  ARG553  GLY616  TRP617  ASP618  TYR619  PRO620  LYS621  CYS622 
 ASP623  PHE694  ASN695  SER759  ASP760  ASP761  ALA762  ILE779  LEU786  VAL792 
 PHE793  MET794  SER795  GLU796  ALA797  LYS798  CYS799  TRP800  GLU811  SER814 

> <Gold.Protein.RotatedAtoms>
  150.9986  133.6079  159.2697 H   0  0  0  0  0  0  0  0  0  0  0  0  # atno 6907 bound_to 6896
  151.3273  135.0832  159.9336 H   0  0  0  0  0  0  0  0  0  0  0  0  # atno 6908 bound_to 6896
  152.5267  133.9622  159.7776 H   0  0  0  0  0  0  0  0  0  0  0  0  # atno 6909 bound_to 6896
  146.1685  140.4457  142.8542 H   0  0  0  0  0  0  0  0  0  0  0  0  # atno 7974 bound_to 7965
  155.0640  140.3193  155.4651 H   0  0  0  0  0  0  0  0  0  0  0  0  # atno 8008 bound_to 7997
  156.2806  140.2124  156.5712 H   0  0  0  0  0  0  0  0  0  0  0  0  # atno 8009 bound_to 7997
  154.7109  140.0498  157.0536 H   0  0  0  0  0  0  0  0  0  0  0  0  # atno 8010 bound_to 7997
  140.4863  143.2390  151.7977 H   0  0  0  0  0  0  0  0  0  0  0  0  # atno 10167 bound_to 10162
  156.4550  130.8186  151.2417 H   0  0  0  0  0  0  0  0  0  0  0  0  # atno 10718 bound_to 10713
  154.3374  135.2754  155.2440 H   0  0  0  0  0  0  0  0  0  0  0  0  # atno 10763 bound_to 10752
  154.4726  135.5879  153.6336 H   0  0  0  0  0  0  0  0  0  0  0  0  # atno 10764 bound_to 10752
  152.9860  135.6092  154.3572 H   0  0  0  0  0  0  0  0  0  0  0  0  # atno 10765 bound_to 10752
  140.9777  133.7073  156.1631 H   0  0  0  0  0  0  0  0  0  0  0  0  # atno 11005 bound_to 11000
  144.8127  140.6415  143.6404 LP  0  0  0  0  0  0  0  0  0  0  0  0  # atno 17320 bound_to 7965
  145.4404  139.1536  143.3973 LP  0  0  0  0  0  0  0  0  0  0  0  0  # atno 17321 bound_to 7965
  139.4842  144.4707  151.9429 LP  0  0  0  0  0  0  0  0  0  0  0  0  # atno 17342 bound_to 10162
  140.3793  144.2757  150.5910 LP  0  0  0  0  0  0  0  0  0  0  0  0  # atno 17343 bound_to 10162
  157.7501  131.0126  150.3390 LP  0  0  0  0  0  0  0  0  0  0  0  0  # atno 17370 bound_to 10713
  156.3776  130.3875  149.7126 LP  0  0  0  0  0  0  0  0  0  0  0  0  # atno 17371 bound_to 10713
  140.7233  134.4334  157.5573 LP  0  0  0  0  0  0  0  0  0  0  0  0  # atno 17394 bound_to 11000
  139.8937  134.8723  156.2210 LP  0  0  0  0  0  0  0  0  0  0  0  0  # atno 17395 bound_to 11000

$$$$
