AV-unprocessed.smi:798|AV-procd|sdf|3774|dock3
  -GOLD-   22720 1203D 1   1.00000     0.00000
 Structure written by MMmdl.
 34 36  0  0  0  0  0  0  0  0  1 V2000
  142.9577  136.1309  152.2910 O   0  0  0  0  0  0  0  0  0  0  0  0
  142.5366  135.1302  152.8717 C   0  0  0  0  0  0  0  0  0  0  0  0
  141.4171  135.0766  153.6143 N   0  0  0  0  0  0  0  0  0  0  0  0
  140.4949  136.1196  153.8932 C   0  0  0  0  0  0  0  0  0  0  0  0
  139.4813  136.0044  154.7654 N   0  0  0  0  0  0  0  0  0  0  0  0
  138.7325  137.1712  154.8487 N   0  0  0  0  0  0  0  0  0  0  0  0
  139.2099  138.1188  154.0370 C   0  0  0  0  0  0  0  0  0  0  0  0
  140.6202  137.6782  153.0900 S   0  0  0  0  0  0  0  0  0  0  0  0
  143.1507  133.9392  152.8394 N   0  0  0  0  0  0  0  0  0  0  0  0
  144.3773  133.6400  152.1041 C   0  0  1  0  0  0  0  0  0  0  0  0
  144.4181  132.1479  151.7061 C   0  0  2  0  0  0  0  0  0  0  0  0
  145.8571  131.7848  151.2988 C   0  0  0  0  0  0  0  0  0  0  0  0
  146.0072  132.4961  149.9409 C   0  0  0  0  0  0  0  0  0  0  0  0
  144.6337  133.1759  149.7515 C   0  0  1  0  0  0  0  0  0  0  0  0
  143.7042  132.1322  150.3574 C   0  0  0  0  0  0  0  0  0  0  0  0
  144.4330  134.3576  150.7304 C   0  0  2  0  0  0  0  0  0  0  0  0
  145.4863  135.4774  150.6235 C   0  0  0  0  0  0  0  0  0  0  0  0
  145.2331  136.2759  149.4877 O   0  0  0  0  0  0  0  0  0  0  0  0
  141.1975  134.1829  154.0282 H   0  0  0  0  0  0  0  0  0  0  0  0
  138.7281  139.0844  153.9955 H   0  0  0  0  0  0  0  0  0  0  0  0
  142.7325  133.1750  153.3490 H   0  0  0  0  0  0  0  0  0  0  0  0
  145.2462  133.8802  152.7205 H   0  0  0  0  0  0  0  0  0  0  0  0
  144.0030  131.4749  152.4573 H   0  0  0  0  0  0  0  0  0  0  0  0
  146.5958  132.1166  152.0293 H   0  0  0  0  0  0  0  0  0  0  0  0
  145.9668  130.7061  151.1800 H   0  0  0  0  0  0  0  0  0  0  0  0
  146.8420  133.1956  149.9222 H   0  0  0  0  0  0  0  0  0  0  0  0
  146.1811  131.7650  149.1504 H   0  0  0  0  0  0  0  0  0  0  0  0
  144.4138  133.4305  148.7144 H   0  0  0  0  0  0  0  0  0  0  0  0
  143.7498  131.1645  149.8547 H   0  0  0  0  0  0  0  0  0  0  0  0
  142.6632  132.4555  150.4122 H   0  0  0  0  0  0  0  0  0  0  0  0
  143.4577  134.7934  150.5024 H   0  0  0  0  0  0  0  0  0  0  0  0
  145.4881  136.1143  151.5078 H   0  0  0  0  0  0  0  0  0  0  0  0
  146.4845  135.0506  150.5255 H   0  0  0  0  0  0  0  0  0  0  0  0
  144.5709  136.9132  149.7076 H   0  0  0  0  0  0  0  0  0  0  0  0
  1  2  2  0  0  0  0
  2  3  1  0  0  0  0
  2  9  1  0  0  0  0
  3  4  1  0  0  0  0
  3 19  1  0  0  0  0
  4  8  1  0  0  0  0
  4  5  2  0  0  0  0
  5  6  1  0  0  0  0
  6  7  2  0  0  0  0
  7  8  1  0  0  0  0
  7 20  1  0  0  0  0
  9 10  1  0  0  0  0
  9 21  1  0  0  0  0
 10 16  1  0  0  0  0
 10 11  1  0  0  0  0
 10 22  1  0  0  0  0
 11 15  1  0  0  0  0
 11 12  1  0  0  0  0
 11 23  1  0  0  0  0
 12 13  1  0  0  0  0
 12 24  1  0  0  0  0
 12 25  1  0  0  0  0
 13 14  1  0  0  0  0
 13 26  1  0  0  0  0
 13 27  1  0  0  0  0
 14 15  1  0  0  0  0
 14 16  1  0  0  0  0
 14 28  1  0  0  0  0
 15 29  1  0  0  0  0
 15 30  1  0  0  0  0
 16 17  1  0  0  0  0
 16 31  1  0  0  0  0
 17 18  1  0  0  0  0
 17 32  1  0  0  0  0
 17 33  1  0  0  0  0
 18 34  1  0  0  0  0
M  END
> <s_m_source_file>
AV-unprocessed.smi

> <i_m_source_file_index>
798

> <i_lp_mmshare_version>
43012

> <i_f3d_flags>
0

> <s_epik_input>
W0NIMl0xW0NIMl1bQ0BASF0oW0NIMl0yKVtDQEBIXShbQ0gyXVtPSF0pW0NAQEhdKFtDQEhdMTIpW05IXUMoPU8pW05IXWMzbm5bY0hdczM=

> <s_epik_cmdline>
J2VwaWtfcHl0aG9uJywgJy1waCcsICc3LjAnLCAnLXRuJywgJzgnLCAnLW1hJywgJzIwMCcsICctbWV0YWxfYmluZGluZycsICctaW1hZScsICc8aW5maWxlLm1hZT4nLCAnLW9tYWUnLCAnPG91dGZpbGUubWFlPic=

> <r_lp_tautomer_probability>
1

> <r_epik_Ionization_Penalty>
0.000329046

> <r_epik_Ionization_Penalty_Charging>
0

> <r_epik_Ionization_Penalty_Neutral>
0.000329046

> <r_epik_State_Penalty>
-0

> <r_epik_Charging_Adjusted_Penalty>
0

> <i_epik_Tot_Q>
0

> <i_epik_Tot_abs_Q>
0

> <r_epik_Metal_State_Penalty>
0.173433

> <b_epik_Metal_Only>
0

> <s_lp_Force_Field>
OPLS_2005

> <r_lp_Energy>
48.4277

> <b_lp_Chiralities_Consistent>
1

> <s_lp_Variant>
AV-unprocessed.smi:798-6

> <Gold.Version>
5.8.1

> <Gold.Id.Protein>
6NUR|6NUR_protein|mol2

> <Gold.PLP.Fitness>
42.6851

> <Gold.PLP.PLP>
-34.6086

> <Gold.PLP.part.hbond>
-4.1925

> <Gold.PLP.part.metal>
0.0000

> <Gold.PLP.part.buried>
-5.6495

> <Gold.PLP.part.nonpolar>
-25.0706

> <Gold.PLP.part.repulsive>
0.4427

> <Gold.PLP.ligand.clash>
0.0000

> <Gold.PLP.ligand.torsion>
0.4734

> <Gold.PLP.Chemscore.Hbond>
3.0000

> <Gold.PLP.Chemscore.CHOScore>
0.0000

> <Gold.PLP.Chemscore.Metal>
0.0000

> <Gold.Chemscore.Hbonds>
donor molecule, donor type, donor heavy atom, donor atom, acceptor molecule, acceptor atom, score
      L1  H     9    21       P1 10957  1.00
      L1  H    18    34       P1 10171  1.00
      P1  H 11000 11005       L1     5  1.00

> <Gold.PLP.Chemscore.Internal.Correction>
0.0234

> <Gold.Rescore>
     Score         DG    S(hbond)    S(metal)    S(lipo)     H(rot)  DE(clash)    DE(int)     intcor
     15.88     -19.03       2.89        0.00      75.79       1.94       0.15       3.01       ----

> <Gold.Chemscore.Fitness>
15.8752

> <Gold.Chemscore.DG>
-19.0268

> <Gold.Chemscore.ZeroCoef>
-5.4800

> <Gold.Chemscore.Hbond>
2.8910

> <Gold.Chemscore.Metal>
0.0000

> <Gold.Chemscore.Lipo>
75.7928

> <Gold.Chemscore.Internal_Hbond>
0.0000

> <Gold.Chemscore.DEClash>
0.1461

> <Gold.Chemscore.DEInternal>
3.0054

> <Gold.Chemscore.Rot>
1.9442

> <Gold.Chemscore.Internal.Correction>
   9.000000E+99

> <Gold.Chemscore.Hbonds>
donor molecule, donor type, donor heavy atom, donor atom, acceptor molecule, acceptor atom, score
      L1  H     9    21       P1 10957  0.86
      L1  H    18    34       P1 10171  0.98
      P1  H 11000 11005       L1     5  0.65

> <Gold.Chemscore.Hbond.Weighted>
-9.6561

> <Gold.Chemscore.Metal.Weighted>
-0.0000

> <Gold.Chemscore.Lipo.Weighted>
-8.8678

> <Gold.Chemscore.Internal_Hbond.Weighted>
0.0000

> <Gold.Chemscore.DEClash.Weighted>
0.1461

> <Gold.Chemscore.DEInternal.Weighted>
3.0054

> <Gold.Chemscore.Rot.Weighted>
4.9771

> <Gold.Chemscore.Internal.Correction.Weighted>
   9.000000E+99

> <Gold.Protein.RotatedTorsions>
[ 6907 6896 6895 6894 ] final   29.28 input  -60.11 | X-H torsion
[ 7974 7965 7964 7962 ] final  -84.76 input  175.53 | X-H torsion
[ 8008 7997 7996 7995 ] final  132.35 input   59.86 | X-H torsion
[ 10167 10162 10161 10158 ] final    8.44 input  -65.29 | X-H torsion
[ 10718 10713 10712 10709 ] final   10.54 input   66.30 | X-H torsion
[ 10763 10752 10751 10750 ] final   66.43 input  -60.55 | X-H torsion
[ 11005 11000 10999 10996 ] final   69.96 input  -57.11 | X-H torsion

> <Gold.Protein.ActiveResidues>
 VAL166  LYS551  ARG553  GLY616  TRP617  ASP618  TYR619  PRO620  LYS621  CYS622 
 ASP623  PHE694  ASN695  SER759  ASP760  ASP761  ALA762  ILE779  LEU786  VAL792 
 PHE793  MET794  SER795  GLU796  ALA797  LYS798  CYS799  TRP800  GLU811  SER814 

> <Gold.Protein.RotatedAtoms>
  152.0293  134.9777  160.0571 H   0  0  0  0  0  0  0  0  0  0  0  0  # atno 6907 bound_to 6896
  152.1260  133.4376  159.4706 H   0  0  0  0  0  0  0  0  0  0  0  0  # atno 6908 bound_to 6896
  150.6852  134.2396  159.4510 H   0  0  0  0  0  0  0  0  0  0  0  0  # atno 6909 bound_to 6896
  145.5023  140.9546  143.1753 H   0  0  0  0  0  0  0  0  0  0  0  0  # atno 7974 bound_to 7965
  156.2981  140.2548  156.3075 H   0  0  0  0  0  0  0  0  0  0  0  0  # atno 8008 bound_to 7997
  154.9358  140.0397  157.2090 H   0  0  0  0  0  0  0  0  0  0  0  0  # atno 8009 bound_to 7997
  154.8174  140.2854  155.5815 H   0  0  0  0  0  0  0  0  0  0  0  0  # atno 8010 bound_to 7997
  140.6314  143.7985  150.7300 H   0  0  0  0  0  0  0  0  0  0  0  0  # atno 10167 bound_to 10162
  156.9825  130.6011  149.5678 H   0  0  0  0  0  0  0  0  0  0  0  0  # atno 10718 bound_to 10713
  153.0139  135.5321  154.6822 H   0  0  0  0  0  0  0  0  0  0  0  0  # atno 10763 bound_to 10752
  154.5979  135.2865  155.0569 H   0  0  0  0  0  0  0  0  0  0  0  0  # atno 10764 bound_to 10752
  154.1637  135.6543  153.5044 H   0  0  0  0  0  0  0  0  0  0  0  0  # atno 10765 bound_to 10752
  139.9624  134.7038  156.0617 H   0  0  0  0  0  0  0  0  0  0  0  0  # atno 11005 bound_to 11000
  144.7773  139.6602  143.7169 LP  0  0  0  0  0  0  0  0  0  0  0  0  # atno 17320 bound_to 7965
  146.2218  139.5650  142.9613 LP  0  0  0  0  0  0  0  0  0  0  0  0  # atno 17321 bound_to 7965
  140.1597  143.4286  152.2075 LP  0  0  0  0  0  0  0  0  0  0  0  0  # atno 17342 bound_to 10162
  139.5528  144.7350  151.4385 LP  0  0  0  0  0  0  0  0  0  0  0  0  # atno 17343 bound_to 10162
  156.0239  130.5333  150.8352 LP  0  0  0  0  0  0  0  0  0  0  0  0  # atno 17370 bound_to 10713
  157.5516  131.0944  150.9687 LP  0  0  0  0  0  0  0  0  0  0  0  0  # atno 17371 bound_to 10713
  141.1302  133.6588  156.3445 LP  0  0  0  0  0  0  0  0  0  0  0  0  # atno 17394 bound_to 11000
  140.5470  134.6065  157.5397 LP  0  0  0  0  0  0  0  0  0  0  0  0  # atno 17395 bound_to 11000

$$$$
