AV-unprocessed.smi:2922|AV-procd|sdf|11198|dock7
  -GOLD-   2272016 93D 1   1.00000     0.00000
 Structure written by MMmdl.
 30 31  0  0  0  0  0  0  0  0  1 V2000
  149.0480  140.8257  153.7961 N   0  0  0  0  0  0  0  0  0  0  0  0
  149.8145  140.2394  154.7205 C   0  0  0  0  0  0  0  0  0  0  0  0
  150.9067  139.7496  154.4392 O   0  0  0  0  0  0  0  0  0  0  0  0
  149.2951  140.2191  156.1704 C   0  0  2  0  0  0  0  0  0  0  0  0
  150.3102  140.7506  157.2034 C   0  0  0  0  0  0  0  0  0  0  0  0
  150.5548  139.5703  158.1295 C   0  0  0  0  0  0  0  0  0  0  0  0
  150.1673  138.3750  157.2677 C   0  0  1  0  0  0  0  0  0  0  0  0
  149.8032  137.1181  158.0723 C   0  0  0  0  0  0  0  0  0  0  0  0
  149.0785  137.4420  159.2935 N   0  0  0  0  0  0  0  0  0  0  0  0
  148.3452  136.5361  160.0382 C   0  0  0  0  0  0  0  0  0  0  0  0
  148.2442  135.2778  159.5912 N   0  0  0  0  0  0  0  0  0  0  0  0
  147.5171  134.4165  160.3360 C   0  0  0  0  0  0  0  0  0  0  0  0
  146.8925  134.8226  161.5319 C   0  0  0  0  0  0  0  0  0  0  0  0
  145.9612  133.7287  162.4869 Cl  0  0  0  0  0  0  0  0  0  0  0  0
  147.0683  136.1696  161.9065 C   0  0  0  0  0  0  0  0  0  0  0  0
  147.7973  137.0239  161.1547 N   0  0  0  0  0  0  0  0  0  0  0  0
  149.0309  138.8763  156.5791 O   0  0  0  0  0  0  0  0  0  0  0  0
  149.3544  140.8579  152.8346 H   0  0  0  0  0  0  0  0  0  0  0  0
  148.1641  141.2333  154.0657 H   0  0  0  0  0  0  0  0  0  0  0  0
  148.3652  140.7871  156.2113 H   0  0  0  0  0  0  0  0  0  0  0  0
  151.2500  141.0576  156.7420 H   0  0  0  0  0  0  0  0  0  0  0  0
  149.9215  141.6097  157.7504 H   0  0  0  0  0  0  0  0  0  0  0  0
  151.5823  139.5175  158.4903 H   0  0  0  0  0  0  0  0  0  0  0  0
  149.8948  139.6399  158.9953 H   0  0  0  0  0  0  0  0  0  0  0  0
  150.9660  138.1663  156.5535 H   0  0  0  0  0  0  0  0  0  0  0  0
  149.1973  136.4454  157.4644 H   0  0  0  0  0  0  0  0  0  0  0  0
  150.7059  136.5670  158.3369 H   0  0  0  0  0  0  0  0  0  0  0  0
  148.9727  138.4178  159.5300 H   0  0  0  0  0  0  0  0  0  0  0  0
  147.4343  133.4019  159.9751 H   0  0  0  0  0  0  0  0  0  0  0  0
  146.6242  136.5639  162.8087 H   0  0  0  0  0  0  0  0  0  0  0  0
  1  2  1  0  0  0  0
  1 18  1  0  0  0  0
  1 19  1  0  0  0  0
  2  3  2  0  0  0  0
  2  4  1  0  0  0  0
  4 17  1  0  0  0  0
  4  5  1  0  0  0  0
  4 20  1  0  0  0  0
  5  6  1  0  0  0  0
  5 21  1  0  0  0  0
  5 22  1  0  0  0  0
  6  7  1  0  0  0  0
  6 23  1  0  0  0  0
  6 24  1  0  0  0  0
  7  8  1  0  0  0  0
  7 17  1  0  0  0  0
  7 25  1  0  0  0  0
  8  9  1  0  0  0  0
  8 26  1  0  0  0  0
  8 27  1  0  0  0  0
  9 10  1  0  0  0  0
  9 28  1  0  0  0  0
 10 16  1  0  0  0  0
 10 11  2  0  0  0  0
 11 12  1  0  0  0  0
 12 13  2  0  0  0  0
 12 29  1  0  0  0  0
 13 14  1  0  0  0  0
 13 15  1  0  0  0  0
 15 16  2  0  0  0  0
 15 30  1  0  0  0  0
M  END
> <s_m_source_file>
AV-unprocessed.smi

> <i_m_source_file_index>
2922

> <i_lp_mmshare_version>
43012

> <i_f3d_flags>
0

> <s_epik_input>
W05IMl1DKD1PKVtDQEBIXTFbQ0gyXVtDSDJdW0NASF0oTzEpW0NIMl1bTkhdYzJuW2NIXWMoQ2wpW2NIXW4y

> <s_epik_cmdline>
J2VwaWtfcHl0aG9uJywgJy1waCcsICc3LjAnLCAnLXRuJywgJzgnLCAnLW1hJywgJzIwMCcsICctbWV0YWxfYmluZGluZycsICctaW1hZScsICc8aW5maWxlLm1hZT4nLCAnLW9tYWUnLCAnPG91dGZpbGUubWFlPic=

> <r_lp_tautomer_probability>
1

> <r_epik_Ionization_Penalty>
6.13883e-06

> <r_epik_Ionization_Penalty_Charging>
0

> <r_epik_Ionization_Penalty_Neutral>
6.13883e-06

> <r_epik_State_Penalty>
-0

> <r_epik_Charging_Adjusted_Penalty>
0

> <i_epik_Tot_Q>
0

> <i_epik_Tot_abs_Q>
0

> <r_epik_Metal_State_Penalty>
-0

> <b_epik_Metal_Only>
0

> <s_lp_Force_Field>
OPLS_2005

> <r_lp_Energy>
9.74106

> <b_lp_Chiralities_Consistent>
1

> <s_lp_Variant>
AV-unprocessed.smi:2922-1

> <Gold.Version>
5.8.1

> <Gold.Id.Protein>
6NUR|6NUR_protein|mol2

> <Gold.PLP.Fitness>
35.5376

> <Gold.PLP.PLP>
-24.8080

> <Gold.PLP.part.hbond>
-4.0000

> <Gold.PLP.part.metal>
0.0000

> <Gold.PLP.part.buried>
-4.4152

> <Gold.PLP.part.nonpolar>
-16.7794

> <Gold.PLP.part.repulsive>
0.5473

> <Gold.PLP.ligand.clash>
0.0000

> <Gold.PLP.ligand.torsion>
0.4081

> <Gold.PLP.Chemscore.Hbond>
3.8406

> <Gold.PLP.Chemscore.CHOScore>
0.0000

> <Gold.PLP.Chemscore.Metal>
0.0000

> <Gold.Chemscore.Hbonds>
donor molecule, donor type, donor heavy atom, donor atom, acceptor molecule, acceptor atom, score
      L1  H     1    18       P1  7957  1.00
      P1  H  6931  6943       L1    16  1.00
      P1  H  6934  6947       L1    16  0.69
      P1  H  7989  7998       L1     3  1.00

> <Gold.PLP.Chemscore.Internal.Correction>
0.0241

> <Gold.Rescore>
     Score         DG    S(hbond)    S(metal)    S(lipo)     H(rot)  DE(clash)    DE(int)     intcor
     16.43     -16.94       3.30        0.00      45.77       1.91       0.05       0.47       ----

> <Gold.Chemscore.Fitness>
16.4252

> <Gold.Chemscore.DG>
-16.9442

> <Gold.Chemscore.ZeroCoef>
-5.4800

> <Gold.Chemscore.Hbond>
3.2964

> <Gold.Chemscore.Metal>
0.0000

> <Gold.Chemscore.Lipo>
45.7651

> <Gold.Chemscore.Internal_Hbond>
0.0000

> <Gold.Chemscore.DEClash>
0.0515

> <Gold.Chemscore.DEInternal>
0.4675

> <Gold.Chemscore.Rot>
1.9142

> <Gold.Chemscore.Internal.Correction>
   9.000000E+99

> <Gold.Chemscore.Hbonds>
donor molecule, donor type, donor heavy atom, donor atom, acceptor molecule, acceptor atom, score
      L1  H     1    18       P1  7957  0.96
      P1  H  6931  6943       L1    16  0.58
      P1  H  6934  6947       L1    16  0.55
      P1  H  7989  7998       L1     3  0.50

> <Gold.Chemscore.Hbond.Weighted>
-11.0099

> <Gold.Chemscore.Metal.Weighted>
-0.0000

> <Gold.Chemscore.Lipo.Weighted>
-5.3545

> <Gold.Chemscore.Internal_Hbond.Weighted>
0.0000

> <Gold.Chemscore.DEClash.Weighted>
0.0515

> <Gold.Chemscore.DEInternal.Weighted>
0.4675

> <Gold.Chemscore.Rot.Weighted>
4.9002

> <Gold.Chemscore.Internal.Correction.Weighted>
   9.000000E+99

> <Gold.Protein.RotatedTorsions>
[ 6907 6896 6895 6894 ] final   23.47 input  -60.11 | X-H torsion
[ 7974 7965 7964 7962 ] final   77.32 input  175.53 | X-H torsion
[ 8008 7997 7996 7995 ] final   83.55 input   59.86 | X-H torsion
[ 10167 10162 10161 10158 ] final   13.98 input  -65.29 | X-H torsion
[ 10718 10713 10712 10709 ] final   57.55 input   66.30 | X-H torsion
[ 10763 10752 10751 10750 ] final  -75.24 input  -60.55 | X-H torsion
[ 11005 11000 10999 10996 ] final -138.31 input  -57.11 | X-H torsion

> <Gold.Protein.ActiveResidues>
 VAL166  LYS551  ARG553  GLY616  TRP617  ASP618  TYR619  PRO620  LYS621  CYS622 
 ASP623  PHE694  ASN695  SER759  ASP760  ASP761  ALA762  ILE779  LEU786  VAL792 
 PHE793  MET794  SER795  GLU796  ALA797  LYS798  CYS799  TRP800  GLU811  SER814 

> <Gold.Protein.RotatedAtoms>
  151.9428  135.0205  160.0536 H   0  0  0  0  0  0  0  0  0  0  0  0  # atno 6907 bound_to 6896
  152.2021  133.4844  159.5072 H   0  0  0  0  0  0  0  0  0  0  0  0  # atno 6908 bound_to 6896
  150.6957  134.1494  159.4177 H   0  0  0  0  0  0  0  0  0  0  0  0  # atno 6909 bound_to 6896
  145.6916  139.2554  143.1756 H   0  0  0  0  0  0  0  0  0  0  0  0  # atno 7974 bound_to 7965
  155.9254  140.3418  155.6206 H   0  0  0  0  0  0  0  0  0  0  0  0  # atno 8008 bound_to 7997
  155.7222  140.0785  157.2344 H   0  0  0  0  0  0  0  0  0  0  0  0  # atno 8009 bound_to 7997
  154.4076  140.1603  156.2402 H   0  0  0  0  0  0  0  0  0  0  0  0  # atno 8010 bound_to 7997
  140.5966  143.8688  150.6924 H   0  0  0  0  0  0  0  0  0  0  0  0  # atno 10167 bound_to 10162
  157.5524  130.8775  149.8983 H   0  0  0  0  0  0  0  0  0  0  0  0  # atno 10718 bound_to 10713
  154.4838  135.5838  153.6409 H   0  0  0  0  0  0  0  0  0  0  0  0  # atno 10763 bound_to 10752
  152.9851  135.6096  154.3212 H   0  0  0  0  0  0  0  0  0  0  0  0  # atno 10764 bound_to 10752
  154.3105  135.2845  155.2547 H   0  0  0  0  0  0  0  0  0  0  0  0  # atno 10765 bound_to 10752
  140.8628  134.2147  157.4697 H   0  0  0  0  0  0  0  0  0  0  0  0  # atno 11005 bound_to 11000
  146.0877  140.7692  142.9610 LP  0  0  0  0  0  0  0  0  0  0  0  0  # atno 17320 bound_to 7965
  144.6995  140.3588  143.7168 LP  0  0  0  0  0  0  0  0  0  0  0  0  # atno 17321 bound_to 7965
  140.2224  143.3798  152.1632 LP  0  0  0  0  0  0  0  0  0  0  0  0  # atno 17342 bound_to 10162
  139.5262  144.7105  151.5219 LP  0  0  0  0  0  0  0  0  0  0  0  0  # atno 17343 bound_to 10162
  156.0588  130.3703  150.1029 LP  0  0  0  0  0  0  0  0  0  0  0  0  # atno 17370 bound_to 10713
  156.9201  130.9680  151.3550 LP  0  0  0  0  0  0  0  0  0  0  0  0  # atno 17371 bound_to 10713
  139.8708  134.9738  156.4821 LP  0  0  0  0  0  0  0  0  0  0  0  0  # atno 17394 bound_to 11000
  140.8663  133.8022  155.9317 LP  0  0  0  0  0  0  0  0  0  0  0  0  # atno 17395 bound_to 11000

$$$$
