AV-unprocessed.smi:1897|AV-procd|sdf|7699|dock3
  -GOLD-   22720 9433D 1   1.00000     0.00000
 Structure written by MMmdl.
 38 40  0  0  0  0  0  0  0  0  3 V2000
  151.7733  131.2628  156.2963 C   0  0  0  0  0  0  0  0  0  0  0  0
  150.8733  132.4454  156.1884 C   0  0  0  0  0  0  0  0  0  0  0  0
  150.7279  133.3342  157.1741 N   0  0  0  0  0  0  0  0  0  0  0  0
  149.8377  134.3443  156.8401 N   0  0  0  0  0  0  0  0  0  0  0  0
  149.3344  134.2142  155.6044 C   0  0  0  0  0  0  0  0  0  0  0  0
  148.4614  135.0962  155.0829 N   0  5  0  0  0  0  0  0  0  0  0  0
  147.3042  134.7127  154.4838 C   0  0  0  0  0  0  0  0  0  0  0  0
  146.4423  134.0377  155.0451 O   0  0  0  0  0  0  0  0  0  0  0  0
  147.1004  135.0978  153.2103 N   0  0  0  0  0  0  0  0  0  0  0  0
  145.9275  134.7891  152.4019 C   0  0  1  0  0  0  0  0  0  0  0  0
  145.2202  136.0290  151.8359 C   0  0  0  0  0  0  0  0  0  0  0  0
  144.7541  135.6222  150.4241 C   0  0  0  0  0  0  0  0  0  0  0  0
  145.1497  134.2069  150.2332 N   0  3  2  0  0  0  0  0  0  0  0  0
  144.0135  133.2727  150.4636 C   0  0  0  0  0  0  0  0  0  0  0  0
  144.4667  131.8076  150.5041 C   0  0  0  0  0  0  0  0  0  0  0  0
  145.5165  131.6119  151.6006 C   0  0  0  0  0  0  0  0  0  0  0  0
  146.7112  132.5333  151.3331 C   0  0  0  0  0  0  0  0  0  0  0  0
  146.3070  134.0123  151.1399 C   0  0  2  0  0  0  0  0  0  0  0  0
  149.9245  132.7882  154.7516 S   0  0  0  0  0  0  0  0  0  0  0  0
  152.8041  131.5612  156.1048 H   0  0  0  0  0  0  0  0  0  0  0  0
  151.4871  130.5021  155.5700 H   0  0  0  0  0  0  0  0  0  0  0  0
  151.7117  130.8303  157.2953 H   0  0  0  0  0  0  0  0  0  0  0  0
  147.8218  135.6541  152.7750 H   0  0  0  0  0  0  0  0  0  0  0  0
  145.2183  134.2033  152.9892 H   0  0  0  0  0  0  0  0  0  0  0  0
  144.3868  136.3305  152.4711 H   0  0  0  0  0  0  0  0  0  0  0  0
  145.9034  136.8772  151.7682 H   0  0  0  0  0  0  0  0  0  0  0  0
  143.6840  135.7788  150.2807 H   0  0  0  0  0  0  0  0  0  0  0  0
  145.2702  136.2286  149.6790 H   0  0  0  0  0  0  0  0  0  0  0  0
  143.5130  133.5205  151.4011 H   0  0  0  0  0  0  0  0  0  0  0  0
  143.2761  133.4097  149.6719 H   0  0  0  0  0  0  0  0  0  0  0  0
  143.6100  131.1590  150.6896 H   0  0  0  0  0  0  0  0  0  0  0  0
  144.8758  131.5155  149.5361 H   0  0  0  0  0  0  0  0  0  0  0  0
  145.0838  131.8284  152.5780 H   0  0  0  0  0  0  0  0  0  0  0  0
  145.8443  130.5723  151.6285 H   0  0  0  0  0  0  0  0  0  0  0  0
  147.4427  132.4443  152.1371 H   0  0  0  0  0  0  0  0  0  0  0  0
  147.2167  132.1895  150.4298 H   0  0  0  0  0  0  0  0  0  0  0  0
  147.1533  134.5241  150.6769 H   0  0  0  0  0  0  0  0  0  0  0  0
  145.4601  134.0719  149.2818 H   0  0  0  0  0  0  0  0  0  0  0  0
  1  2  1  0  0  0  0
  1 20  1  0  0  0  0
  1 21  1  0  0  0  0
  1 22  1  0  0  0  0
  2 19  1  0  0  0  0
  2  3  2  0  0  0  0
  3  4  1  0  0  0  0
  4  5  2  0  0  0  0
  5  6  1  0  0  0  0
  5 19  1  0  0  0  0
  6  7  1  0  0  0  0
  7  8  2  0  0  0  0
  7  9  1  0  0  0  0
  9 10  1  0  0  0  0
  9 23  1  0  0  0  0
 10 18  1  0  0  0  0
 10 11  1  0  0  0  0
 10 24  1  0  0  0  0
 11 12  1  0  0  0  0
 11 25  1  0  0  0  0
 11 26  1  0  0  0  0
 12 13  1  0  0  0  0
 12 27  1  0  0  0  0
 12 28  1  0  0  0  0
 13 18  1  0  0  0  0
 13 14  1  0  0  0  0
 13 38  1  0  0  0  0
 14 15  1  0  0  0  0
 14 29  1  0  0  0  0
 14 30  1  0  0  0  0
 15 16  1  0  0  0  0
 15 31  1  0  0  0  0
 15 32  1  0  0  0  0
 16 17  1  0  0  0  0
 16 33  1  0  0  0  0
 16 34  1  0  0  0  0
 17 18  1  0  0  0  0
 17 35  1  0  0  0  0
 17 36  1  0  0  0  0
 18 37  1  0  0  0  0
M  CHG  1   6  -1
M  CHG  1  13   1
M  END
> <s_m_source_file>
AV-unprocessed.smi

> <i_m_source_file_index>
1897

> <i_lp_mmshare_version>
43012

> <i_f3d_flags>
0

> <s_epik_input>
W0NIM11jMW5uYyhzMSlbTkhdQyg9TylbTkhdW0NASF0oW0NIMl1bQ0gyXTIpW0NAQEhdKE4yMylbQ0gyXVtDSDJdW0NIMl1bQ0gyXTM=

> <s_epik_cmdline>
J2VwaWtfcHl0aG9uJywgJy1waCcsICc3LjAnLCAnLXRuJywgJzgnLCAnLW1hJywgJzIwMCcsICctbWV0YWxfYmluZGluZycsICctaW1hZScsICc8aW5maWxlLm1hZT4nLCAnLW9tYWUnLCAnPG91dGZpbGUubWFlPic=

> <r_lp_tautomer_probability>
1

> <r_epik_Ionization_Penalty>
3.77712

> <r_epik_Ionization_Penalty_Charging>
3.67739

> <r_epik_Ionization_Penalty_Neutral>
0.0997294

> <r_epik_State_Penalty>
3.67514

> <r_epik_Charging_Adjusted_Penalty>
7.35254

> <i_epik_Tot_Q>
0

> <i_epik_Tot_abs_Q>
2

> <r_epik_Metal_State_Penalty>
0.540795

> <b_epik_Metal_Only>
1

> <s_lp_Force_Field>
OPLS_2005

> <r_lp_Energy>
31.3807

> <b_lp_Chiralities_Consistent>
1

> <s_lp_Variant>
AV-unprocessed.smi:1897-16

> <Gold.Version>
5.8.1

> <Gold.Id.Protein>
6NUR|6NUR_protein|mol2

> <Gold.PLP.Fitness>
36.3337

> <Gold.PLP.PLP>
-29.6245

> <Gold.PLP.part.hbond>
-3.0000

> <Gold.PLP.part.metal>
0.0000

> <Gold.PLP.part.buried>
-2.5197

> <Gold.PLP.part.nonpolar>
-24.6191

> <Gold.PLP.part.repulsive>
0.2162

> <Gold.PLP.ligand.clash>
0.0000

> <Gold.PLP.ligand.torsion>
0.9705

> <Gold.PLP.Chemscore.Hbond>
2.8800

> <Gold.PLP.Chemscore.CHOScore>
0.0000

> <Gold.PLP.Chemscore.Metal>
0.0000

> <Gold.Chemscore.Hbonds>
donor molecule, donor type, donor heavy atom, donor atom, acceptor molecule, acceptor atom, score
      L1  H     9    23       P1  7948  1.00
      L1  H    13    38       P1  7921  0.99
      P1  H  6896  6908       L1     3  0.82

> <Gold.PLP.Chemscore.Internal.Correction>
0.0102

> <Gold.Rescore>
     Score         DG    S(hbond)    S(metal)    S(lipo)     H(rot)  DE(clash)    DE(int)     intcor
     19.74     -20.71       2.84        0.00      70.90       1.00       0.12       0.85       ----

> <Gold.Chemscore.Fitness>
19.7416

> <Gold.Chemscore.DG>
-20.7070

> <Gold.Chemscore.ZeroCoef>
-5.4800

> <Gold.Chemscore.Hbond>
2.8418

> <Gold.Chemscore.Metal>
0.0000

> <Gold.Chemscore.Lipo>
70.9005

> <Gold.Chemscore.Internal_Hbond>
0.0000

> <Gold.Chemscore.DEClash>
0.1151

> <Gold.Chemscore.DEInternal>
0.8503

> <Gold.Chemscore.Rot>
1.0000

> <Gold.Chemscore.Internal.Correction>
   9.000000E+99

> <Gold.Chemscore.Hbonds>
donor molecule, donor type, donor heavy atom, donor atom, acceptor molecule, acceptor atom, score
      L1  H     9    23       P1  7948  0.95
      L1  H    13    38       P1  7921  0.77
      P1  H  6896  6908       L1     3  0.34

> <Gold.Chemscore.Hbond.Weighted>
-9.4916

> <Gold.Chemscore.Metal.Weighted>
-0.0000

> <Gold.Chemscore.Lipo.Weighted>
-8.2954

> <Gold.Chemscore.Internal_Hbond.Weighted>
0.0000

> <Gold.Chemscore.DEClash.Weighted>
0.1151

> <Gold.Chemscore.DEInternal.Weighted>
0.8503

> <Gold.Chemscore.Rot.Weighted>
2.5600

> <Gold.Chemscore.Internal.Correction.Weighted>
   9.000000E+99

> <Gold.Protein.RotatedTorsions>
[ 6907 6896 6895 6894 ] final  101.80 input  -60.11 | X-H torsion
[ 7974 7965 7964 7962 ] final -104.77 input  175.53 | X-H torsion
[ 8008 7997 7996 7995 ] final   88.46 input   59.86 | X-H torsion
[ 10167 10162 10161 10158 ] final  -53.07 input  -65.29 | X-H torsion
[ 10718 10713 10712 10709 ] final  113.33 input   66.30 | X-H torsion
[ 10763 10752 10751 10750 ] final   52.35 input  -60.55 | X-H torsion
[ 11005 11000 10999 10996 ] final  144.27 input  -57.11 | X-H torsion

> <Gold.Protein.ActiveResidues>
 VAL166  LYS551  ARG553  GLY616  TRP617  ASP618  TYR619  PRO620  LYS621  CYS622 
 ASP623  PHE694  ASN695  SER759  ASP760  ASP761  ALA762  ILE779  LEU786  VAL792 
 PHE793  MET794  SER795  GLU796  ALA797  LYS798  CYS799  TRP800  GLU811  SER814 

> <Gold.Protein.RotatedAtoms>
  152.5340  134.0071  159.7921 H   0  0  0  0  0  0  0  0  0  0  0  0  # atno 6907 bound_to 6896
  151.0280  133.5808  159.2671 H   0  0  0  0  0  0  0  0  0  0  0  0  # atno 6908 bound_to 6896
  151.2823  135.0724  159.9227 H   0  0  0  0  0  0  0  0  0  0  0  0  # atno 6909 bound_to 6896
  145.2389  140.9198  143.3161 H   0  0  0  0  0  0  0  0  0  0  0  0  # atno 7974 bound_to 7965
  155.9880  140.3371  155.6726 H   0  0  0  0  0  0  0  0  0  0  0  0  # atno 8008 bound_to 7997
  155.6459  140.0700  157.2621 H   0  0  0  0  0  0  0  0  0  0  0  0  # atno 8009 bound_to 7997
  154.4211  140.1734  156.1610 H   0  0  0  0  0  0  0  0  0  0  0  0  # atno 8010 bound_to 7997
  140.6504  143.2562  151.4739 H   0  0  0  0  0  0  0  0  0  0  0  0  # atno 10167 bound_to 10162
  157.6344  131.0982  150.7025 H   0  0  0  0  0  0  0  0  0  0  0  0  # atno 10718 bound_to 10713
  152.9788  135.5815  154.4565 H   0  0  0  0  0  0  0  0  0  0  0  0  # atno 10763 bound_to 10752
  154.4147  135.2770  155.2016 H   0  0  0  0  0  0  0  0  0  0  0  0  # atno 10764 bound_to 10752
  154.3791  135.6150  153.5835 H   0  0  0  0  0  0  0  0  0  0  0  0  # atno 10765 bound_to 10752
  140.0619  134.9200  157.1199 H   0  0  0  0  0  0  0  0  0  0  0  0  # atno 11005 bound_to 11000
  144.9607  139.3983  143.6357 LP  0  0  0  0  0  0  0  0  0  0  0  0  # atno 17320 bound_to 7965
  146.3334  139.8659  142.8848 LP  0  0  0  0  0  0  0  0  0  0  0  0  # atno 17321 bound_to 7965
  139.5719  144.1909  152.1848 LP  0  0  0  0  0  0  0  0  0  0  0  0  # atno 17342 bound_to 10162
  140.1208  144.5375  150.6864 LP  0  0  0  0  0  0  0  0  0  0  0  0  # atno 17343 bound_to 10162
  156.7359  130.4724  149.5488 LP  0  0  0  0  0  0  0  0  0  0  0  0  # atno 17370 bound_to 10713
  156.1571  130.6349  151.0671 LP  0  0  0  0  0  0  0  0  0  0  0  0  # atno 17371 bound_to 10713
  140.3757  134.2342  155.7174 LP  0  0  0  0  0  0  0  0  0  0  0  0  # atno 17394 bound_to 11000
  141.1977  133.8054  157.0617 LP  0  0  0  0  0  0  0  0  0  0  0  0  # atno 17395 bound_to 11000

$$$$
