AV-unprocessed.smi:1606|AV-procd|sdf|6462|dock5
  -GOLD-   22720 7113D 1   1.00000     0.00000
 Structure written by MMmdl.
 36 37  0  0  0  0  0  0  0  0  2 V2000
  153.5732  139.2977  157.8431 O   0  0  0  0  0  0  0  0  0  0  0  0
  152.7373  139.9141  158.5041 C   0  0  0  0  0  0  0  0  0  0  0  0
  151.5581  140.3152  158.0048 N   0  0  0  0  0  0  0  0  0  0  0  0
  151.1014  140.0932  156.6355 C   0  0  0  0  0  0  0  0  0  0  0  0
  150.7153  141.3886  155.8891 C   0  0  0  0  0  0  0  0  0  0  0  0
  149.4586  141.2662  155.0441 C   0  0  0  0  0  0  0  0  0  0  0  0
  149.0810  140.0507  154.4333 C   0  0  0  0  0  0  0  0  0  0  0  0
  147.9080  140.0082  153.6508 C   0  0  0  0  0  0  0  0  0  0  0  0
  147.1392  141.1804  153.4939 C   0  0  0  0  0  0  0  0  0  0  0  0
  147.5629  142.3675  154.1254 C   0  0  0  0  0  0  0  0  0  0  0  0
  148.6914  142.3672  154.8678 N   0  3  0  0  0  0  0  0  0  0  0  0
  153.0019  140.2430  159.9789 C   0  0  0  0  0  0  0  0  0  0  0  0
  153.0111  141.7627  160.2260 C   0  0  0  0  0  0  0  0  0  0  0  0
  153.3776  142.0689  161.6874 C   0  0  0  0  0  0  0  0  0  0  0  0
  154.6385  141.4882  162.0046 O   0  0  0  0  0  0  0  0  0  0  0  0
  154.6415  140.0689  161.8955 C   0  0  0  0  0  0  0  0  0  0  0  0
  154.3448  139.6532  160.4455 C   0  0  0  0  0  0  0  0  0  0  0  0
  150.9330  140.8198  158.6169 H   0  0  0  0  0  0  0  0  0  0  0  0
  151.9163  139.6029  156.1022 H   0  0  0  0  0  0  0  0  0  0  0  0
  150.2664  139.3908  156.6311 H   0  0  0  0  0  0  0  0  0  0  0  0
  150.5800  142.1961  156.6095 H   0  0  0  0  0  0  0  0  0  0  0  0
  151.5380  141.7024  155.2453 H   0  0  0  0  0  0  0  0  0  0  0  0
  149.6825  139.1622  154.5597 H   0  0  0  0  0  0  0  0  0  0  0  0
  147.6023  139.0877  153.1752 H   0  0  0  0  0  0  0  0  0  0  0  0
  146.2382  141.1685  152.8979 H   0  0  0  0  0  0  0  0  0  0  0  0
  147.0385  143.3097  154.0599 H   0  0  0  0  0  0  0  0  0  0  0  0
  152.2060  139.8035  160.5834 H   0  0  0  0  0  0  0  0  0  0  0  0
  153.7325  142.2522  159.5695 H   0  0  0  0  0  0  0  0  0  0  0  0
  152.0356  142.1913  159.9921 H   0  0  0  0  0  0  0  0  0  0  0  0
  153.4390  143.1466  161.8394 H   0  0  0  0  0  0  0  0  0  0  0  0
  152.6112  141.6946  162.3681 H   0  0  0  0  0  0  0  0  0  0  0  0
  155.6193  139.6948  162.1996 H   0  0  0  0  0  0  0  0  0  0  0  0
  153.9098  139.6392  162.5816 H   0  0  0  0  0  0  0  0  0  0  0  0
  154.3274  138.5652  160.3707 H   0  0  0  0  0  0  0  0  0  0  0  0
  155.1565  139.9980  159.8025 H   0  0  0  0  0  0  0  0  0  0  0  0
  148.9810  143.2378  155.3148 H   0  0  0  0  0  0  0  0  0  0  0  0
  1  2  2  0  0  0  0
  2  3  1  0  0  0  0
  2 12  1  0  0  0  0
  3  4  1  0  0  0  0
  3 18  1  0  0  0  0
  4  5  1  0  0  0  0
  4 19  1  0  0  0  0
  4 20  1  0  0  0  0
  5  6  1  0  0  0  0
  5 21  1  0  0  0  0
  5 22  1  0  0  0  0
  6 11  1  0  0  0  0
  6  7  2  0  0  0  0
  7  8  1  0  0  0  0
  7 23  1  0  0  0  0
  8  9  2  0  0  0  0
  8 24  1  0  0  0  0
  9 10  1  0  0  0  0
  9 25  1  0  0  0  0
 10 11  2  0  0  0  0
 10 26  1  0  0  0  0
 11 36  1  0  0  0  0
 12 17  1  0  0  0  0
 12 13  1  0  0  0  0
 12 27  1  0  0  0  0
 13 14  1  0  0  0  0
 13 28  1  0  0  0  0
 13 29  1  0  0  0  0
 14 15  1  0  0  0  0
 14 30  1  0  0  0  0
 14 31  1  0  0  0  0
 15 16  1  0  0  0  0
 16 17  1  0  0  0  0
 16 32  1  0  0  0  0
 16 33  1  0  0  0  0
 17 34  1  0  0  0  0
 17 35  1  0  0  0  0
M  CHG  1  11   1
M  END
> <s_m_source_file>
AV-unprocessed.smi

> <i_m_source_file_index>
1606

> <i_lp_mmshare_version>
43012

> <i_f3d_flags>
0

> <s_epik_input>
W0NIMl0xW0NIMl1PW0NIMl1bQ0gyXVtDSF0xQyg9TylbTkhdW0NIMl1bQ0gyXWMyW2NIXVtjSF1bY0hdW2NIXW4y

> <s_epik_cmdline>
J2VwaWtfcHl0aG9uJywgJy1waCcsICc3LjAnLCAnLXRuJywgJzgnLCAnLW1hJywgJzIwMCcsICctbWV0YWxfYmluZGluZycsICctaW1hZScsICc8aW5maWxlLm1hZT4nLCAnLW9tYWUnLCAnPG91dGZpbGUubWFlPic=

> <r_epik_Ionization_Penalty>
1.82741

> <r_epik_Ionization_Penalty_Charging>
1.82741

> <r_epik_Ionization_Penalty_Neutral>
1.59153e-08

> <r_epik_State_Penalty>
1.94311

> <r_epik_Charging_Adjusted_Penalty>
3.77052

> <i_epik_Tot_Q>
1

> <i_epik_Tot_abs_Q>
1

> <r_epik_Metal_State_Penalty>
1.96982

> <b_epik_Metal_Only>
0

> <s_lp_Force_Field>
OPLS_2005

> <r_lp_Energy>
14.6238

> <b_lp_Chiralities_Consistent>
1

> <s_lp_Variant>
AV-unprocessed.smi:1606-2

> <Gold.Version>
5.8.1

> <Gold.Id.Protein>
6NUR|6NUR_protein|mol2

> <Gold.PLP.Fitness>
43.6689

> <Gold.PLP.PLP>
-36.0282

> <Gold.PLP.part.hbond>
-2.8514

> <Gold.PLP.part.metal>
0.0000

> <Gold.PLP.part.buried>
-1.7033

> <Gold.PLP.part.nonpolar>
-31.0673

> <Gold.PLP.part.repulsive>
0.2973

> <Gold.PLP.ligand.clash>
0.0000

> <Gold.PLP.ligand.torsion>
0.6871

> <Gold.PLP.Chemscore.Hbond>
3.0000

> <Gold.PLP.Chemscore.CHOScore>
0.0000

> <Gold.PLP.Chemscore.Metal>
0.0000

> <Gold.Chemscore.Hbonds>
donor molecule, donor type, donor heavy atom, donor atom, acceptor molecule, acceptor atom, score
      L1  H    11    36       P1  8028  1.92
      P1  H  7997  8008       L1     1  1.00

> <Gold.PLP.Chemscore.Internal.Correction>
0.0149

> <Gold.Rescore>
     Score         DG    S(hbond)    S(metal)    S(lipo)     H(rot)  DE(clash)    DE(int)     intcor
     16.73     -17.92       1.84        0.00      87.90       1.56       0.46       0.73       ----

> <Gold.Chemscore.Fitness>
16.7276

> <Gold.Chemscore.DG>
-17.9206

> <Gold.Chemscore.ZeroCoef>
-5.4800

> <Gold.Chemscore.Hbond>
1.8388

> <Gold.Chemscore.Metal>
0.0000

> <Gold.Chemscore.Lipo>
87.9020

> <Gold.Chemscore.Internal_Hbond>
0.0000

> <Gold.Chemscore.DEClash>
0.4615

> <Gold.Chemscore.DEInternal>
0.7315

> <Gold.Chemscore.Rot>
1.5569

> <Gold.Chemscore.Internal.Correction>
   9.000000E+99

> <Gold.Chemscore.Hbonds>
donor molecule, donor type, donor heavy atom, donor atom, acceptor molecule, acceptor atom, score
      L1  H    11    36       P1  8028  0.89
      P1  H  7997  8008       L1     1  0.93

> <Gold.Chemscore.Hbond.Weighted>
-6.1417

> <Gold.Chemscore.Metal.Weighted>
-0.0000

> <Gold.Chemscore.Lipo.Weighted>
-10.2845

> <Gold.Chemscore.Internal_Hbond.Weighted>
0.0000

> <Gold.Chemscore.DEClash.Weighted>
0.4615

> <Gold.Chemscore.DEInternal.Weighted>
0.7315

> <Gold.Chemscore.Rot.Weighted>
3.9857

> <Gold.Chemscore.Internal.Correction.Weighted>
   9.000000E+99

> <Gold.Protein.RotatedTorsions>
[ 6907 6896 6895 6894 ] final -114.18 input  -60.11 | X-H torsion
[ 7974 7965 7964 7962 ] final  145.99 input  175.53 | X-H torsion
[ 8008 7997 7996 7995 ] final -102.49 input   59.86 | X-H torsion
[ 10167 10162 10161 10158 ] final -139.39 input  -65.29 | X-H torsion
[ 10718 10713 10712 10709 ] final   23.49 input   66.30 | X-H torsion
[ 10763 10752 10751 10750 ] final -176.91 input  -60.55 | X-H torsion
[ 11005 11000 10999 10996 ] final  -72.62 input  -57.11 | X-H torsion

> <Gold.Protein.ActiveResidues>
 VAL166  LYS551  ARG553  GLY616  TRP617  ASP618  TYR619  PRO620  LYS621  CYS622 
 ASP623  PHE694  ASN695  SER759  ASP760  ASP761  ALA762  ILE779  LEU786  VAL792 
 PHE793  MET794  SER795  GLU796  ALA797  LYS798  CYS799  TRP800  GLU811  SER814 

> <Gold.Protein.RotatedAtoms>
  150.7883  133.8838  159.3293 H   0  0  0  0  0  0  0  0  0  0  0  0  # atno 6907 bound_to 6896
  151.6683  135.0978  160.0202 H   0  0  0  0  0  0  0  0  0  0  0  0  # atno 6908 bound_to 6896
  152.3952  133.6697  159.6305 H   0  0  0  0  0  0  0  0  0  0  0  0  # atno 6909 bound_to 6896
  144.8707  139.5850  143.5888 H   0  0  0  0  0  0  0  0  0  0  0  0  # atno 7974 bound_to 7965
  154.8574  140.0428  157.1643 H   0  0  0  0  0  0  0  0  0  0  0  0  # atno 8008 bound_to 7997
  154.8877  140.2982  155.5368 H   0  0  0  0  0  0  0  0  0  0  0  0  # atno 8009 bound_to 7997
  156.2997  140.2399  156.3889 H   0  0  0  0  0  0  0  0  0  0  0  0  # atno 8010 bound_to 7997
  139.8384  143.7354  152.2664 H   0  0  0  0  0  0  0  0  0  0  0  0  # atno 10167 bound_to 10162
  157.1668  130.6742  149.6063 H   0  0  0  0  0  0  0  0  0  0  0  0  # atno 10718 bound_to 10713
  154.5666  135.2824  155.0868 H   0  0  0  0  0  0  0  0  0  0  0  0  # atno 10763 bound_to 10752
  154.2256  135.6383  153.5162 H   0  0  0  0  0  0  0  0  0  0  0  0  # atno 10764 bound_to 10752
  153.0045  135.5525  154.6276 H   0  0  0  0  0  0  0  0  0  0  0  0  # atno 10765 bound_to 10752
  141.1611  133.6852  156.7087 H   0  0  0  0  0  0  0  0  0  0  0  0  # atno 11005 bound_to 11000
  146.2928  139.7190  142.9148 LP  0  0  0  0  0  0  0  0  0  0  0  0  # atno 17320 bound_to 7965
  145.4135  141.0399  143.3004 LP  0  0  0  0  0  0  0  0  0  0  0  0  # atno 17321 bound_to 7965
  139.7584  144.7514  151.0401 LP  0  0  0  0  0  0  0  0  0  0  0  0  # atno 17342 bound_to 10162
  140.7800  143.4779  151.0057 LP  0  0  0  0  0  0  0  0  0  0  0  0  # atno 17343 bound_to 10162
  155.9744  130.4692  150.6388 LP  0  0  0  0  0  0  0  0  0  0  0  0  # atno 17370 bound_to 10713
  157.4080  131.0819  151.1247 LP  0  0  0  0  0  0  0  0  0  0  0  0  # atno 17371 bound_to 10713
  140.2904  134.8245  157.4011 LP  0  0  0  0  0  0  0  0  0  0  0  0  # atno 17394 bound_to 11000
  140.1352  134.5043  155.8074 LP  0  0  0  0  0  0  0  0  0  0  0  0  # atno 17395 bound_to 11000

$$$$
