AV-unprocessed.smi:374|AV-procd|sdf|2452|dock9
  -GOLD-   2262022393D 1   1.00000     0.00000
 Structure written by MMmdl.
 37 38  0  0  0  0  0  0  0  0  1 V2000
  152.8330  136.2658  158.1426 C   0  0  0  0  0  0  0  0  0  0  0  0
  152.2062  137.6679  157.9992 C   0  0  1  0  0  0  0  0  0  0  0  0
  153.1368  138.7783  158.5093 C   0  0  0  0  0  0  0  0  0  0  0  0
  154.2675  138.9113  158.0398 O   0  0  0  0  0  0  0  0  0  0  0  0
  152.6442  139.5704  159.4755 N   0  0  0  0  0  0  0  0  0  0  0  0
  153.3440  140.6951  160.0900 C   0  0  0  0  0  0  0  0  0  0  0  0
  152.4841  141.9761  160.1367 C   0  0  0  0  0  0  0  0  0  0  0  0
  152.5239  142.7007  158.7751 C   0  0  0  0  0  0  0  0  0  0  0  0
  151.6721  143.9803  158.7780 C   0  0  0  0  0  0  0  0  0  0  0  0
  152.1026  144.9316  159.9037 C   0  0  0  0  0  0  0  0  0  0  0  0
  152.0540  144.2264  161.2668 C   0  0  0  0  0  0  0  0  0  0  0  0
  152.9042  142.9455  161.2651 C   0  0  0  0  0  0  0  0  0  0  0  0
  151.7890  137.9543  156.6320 N   0  0  0  0  0  0  0  0  0  0  0  0
  151.3127  139.0829  156.1017 C   0  0  0  0  0  0  0  0  0  0  0  0
  151.0783  139.0102  154.7989 N   0  0  0  0  0  0  0  0  0  0  0  0
  151.4734  137.7230  154.5682 C   0  0  0  0  0  0  0  0  0  0  0  0
  151.9175  137.0496  155.6292 N   0  0  0  0  0  0  0  0  0  0  0  0
  153.0809  136.0525  159.1830 H   0  0  0  0  0  0  0  0  0  0  0  0
  153.7487  136.1624  157.5589 H   0  0  0  0  0  0  0  0  0  0  0  0
  152.1394  135.4938  157.8081 H   0  0  0  0  0  0  0  0  0  0  0  0
  151.3053  137.6804  158.6154 H   0  0  0  0  0  0  0  0  0  0  0  0
  151.7078  139.3862  159.8050 H   0  0  0  0  0  0  0  0  0  0  0  0
  153.6973  140.4380  161.0901 H   0  0  0  0  0  0  0  0  0  0  0  0
  154.2392  140.8792  159.4952 H   0  0  0  0  0  0  0  0  0  0  0  0
  151.4513  141.6759  160.3214 H   0  0  0  0  0  0  0  0  0  0  0  0
  153.5549  142.9542  158.5243 H   0  0  0  0  0  0  0  0  0  0  0  0
  152.1715  142.0337  157.9875 H   0  0  0  0  0  0  0  0  0  0  0  0
  151.7564  144.4842  157.8146 H   0  0  0  0  0  0  0  0  0  0  0  0
  150.6200  143.7199  158.9001 H   0  0  0  0  0  0  0  0  0  0  0  0
  153.1146  145.2913  159.7135 H   0  0  0  0  0  0  0  0  0  0  0  0
  151.4581  145.8111  159.9156 H   0  0  0  0  0  0  0  0  0  0  0  0
  152.4033  144.9025  162.0477 H   0  0  0  0  0  0  0  0  0  0  0  0
  151.0208  143.9778  161.5124 H   0  0  0  0  0  0  0  0  0  0  0  0
  152.8100  142.4630  162.2378 H   0  0  0  0  0  0  0  0  0  0  0  0
  153.9572  143.2067  161.1514 H   0  0  0  0  0  0  0  0  0  0  0  0
  151.1381  139.9784  156.6799 H   0  0  0  0  0  0  0  0  0  0  0  0
  151.4386  137.2711  153.5877 H   0  0  0  0  0  0  0  0  0  0  0  0
  1  2  1  0  0  0  0
  1 18  1  0  0  0  0
  1 19  1  0  0  0  0
  1 20  1  0  0  0  0
  2  3  1  0  0  0  0
  2 13  1  0  0  0  0
  2 21  1  0  0  0  0
  3  4  2  0  0  0  0
  3  5  1  0  0  0  0
  5  6  1  0  0  0  0
  5 22  1  0  0  0  0
  6  7  1  0  0  0  0
  6 23  1  0  0  0  0
  6 24  1  0  0  0  0
  7 12  1  0  0  0  0
  7  8  1  0  0  0  0
  7 25  1  0  0  0  0
  8  9  1  0  0  0  0
  8 26  1  0  0  0  0
  8 27  1  0  0  0  0
  9 10  1  0  0  0  0
  9 28  1  0  0  0  0
  9 29  1  0  0  0  0
 10 11  1  0  0  0  0
 10 30  1  0  0  0  0
 10 31  1  0  0  0  0
 11 12  1  0  0  0  0
 11 32  1  0  0  0  0
 11 33  1  0  0  0  0
 12 34  1  0  0  0  0
 12 35  1  0  0  0  0
 13 17  1  0  0  0  0
 13 14  1  0  0  0  0
 14 15  2  0  0  0  0
 14 36  1  0  0  0  0
 15 16  1  0  0  0  0
 16 17  2  0  0  0  0
 16 37  1  0  0  0  0
M  END
> <s_m_source_file>
AV-unprocessed.smi

> <i_m_source_file_index>
374

> <i_lp_mmshare_version>
43012

> <i_f3d_flags>
0

> <s_epik_input>
bjFbY0hdbltjSF1uMVtDQEhdKFtDSDNdKUMoPU8pW05IXVtDSDJdW0NIXTJbQ0gyXVtDSDJdW0NIMl1bQ0gyXVtDSDJdMg==

> <s_epik_cmdline>
J2VwaWtfcHl0aG9uJywgJy1waCcsICc3LjAnLCAnLXRuJywgJzgnLCAnLW1hJywgJzIwMCcsICctbWV0YWxfYmluZGluZycsICctaW1hZScsICc8aW5maWxlLm1hZT4nLCAnLW9tYWUnLCAnPG91dGZpbGUubWFlPic=

> <r_lp_tautomer_probability>
1

> <r_epik_Ionization_Penalty>
1.24899e-05

> <r_epik_Ionization_Penalty_Charging>
0

> <r_epik_Ionization_Penalty_Neutral>
1.24899e-05

> <r_epik_State_Penalty>
-0

> <r_epik_Charging_Adjusted_Penalty>
0

> <i_epik_Tot_Q>
0

> <i_epik_Tot_abs_Q>
0

> <r_epik_Metal_State_Penalty>
-0

> <b_epik_Metal_Only>
0

> <s_lp_Force_Field>
OPLS_2005

> <r_lp_Energy>
16.3067

> <b_lp_Chiralities_Consistent>
1

> <s_lp_Variant>
AV-unprocessed.smi:374-2

> <Gold.Version>
5.8.1

> <Gold.Id.Protein>
6NUR|6NUR_protein|mol2

> <Gold.PLP.Fitness>
46.5932

> <Gold.PLP.PLP>
-36.0373

> <Gold.PLP.part.hbond>
-2.7048

> <Gold.PLP.part.metal>
0.0000

> <Gold.PLP.part.buried>
-4.8213

> <Gold.PLP.part.nonpolar>
-29.9019

> <Gold.PLP.part.repulsive>
0.2758

> <Gold.PLP.ligand.clash>
0.0000

> <Gold.PLP.ligand.torsion>
0.4945

> <Gold.PLP.Chemscore.Hbond>
2.8155

> <Gold.PLP.Chemscore.CHOScore>
1.0000

> <Gold.PLP.Chemscore.Metal>
0.0000

> <Gold.Chemscore.Hbonds>
donor molecule, donor type, donor heavy atom, donor atom, acceptor molecule, acceptor atom, score
      P1  H  7989  7998       L1    15  0.24
      P1  H  7997  8008       L1     4  0.96
      P1  H 10752 10765       L1    17  0.86
      L1  C    16    37       P1  7949  1.00

> <Gold.PLP.Chemscore.Internal.Correction>
0.0986

> <Gold.Rescore>
     Score         DG    S(hbond)    S(metal)    S(lipo)     H(rot)  DE(clash)    DE(int)     intcor
     18.29     -18.60       2.62        0.00      84.02       2.14       0.01       0.29       ----

> <Gold.Chemscore.Fitness>
18.2917

> <Gold.Chemscore.DG>
-18.5985

> <Gold.Chemscore.ZeroCoef>
-5.4800

> <Gold.Chemscore.Hbond>
2.6236

> <Gold.Chemscore.Metal>
0.0000

> <Gold.Chemscore.Lipo>
84.0161

> <Gold.Chemscore.Internal_Hbond>
0.0000

> <Gold.Chemscore.DEClash>
0.0149

> <Gold.Chemscore.DEInternal>
0.2919

> <Gold.Chemscore.Rot>
2.1383

> <Gold.Chemscore.Internal.Correction>
   9.000000E+99

> <Gold.Chemscore.Hbonds>
donor molecule, donor type, donor heavy atom, donor atom, acceptor molecule, acceptor atom, score
      P1  H  7989  7998       L1    15  0.24
      P1  H  7997  8008       L1     4  0.87
      P1  H 10752 10765       L1    17  0.15

> <Gold.Chemscore.Hbond.Weighted>
-8.7627

> <Gold.Chemscore.Metal.Weighted>
-0.0000

> <Gold.Chemscore.Lipo.Weighted>
-9.8299

> <Gold.Chemscore.Internal_Hbond.Weighted>
0.0000

> <Gold.Chemscore.DEClash.Weighted>
0.0149

> <Gold.Chemscore.DEInternal.Weighted>
0.2919

> <Gold.Chemscore.Rot.Weighted>
5.4741

> <Gold.Chemscore.Internal.Correction.Weighted>
   9.000000E+99

> <Gold.Protein.RotatedTorsions>
[ 6907 6896 6895 6894 ] final -105.49 input  -60.11 | X-H torsion
[ 7974 7965 7964 7962 ] final -113.79 input  175.53 | X-H torsion
[ 8008 7997 7996 7995 ] final -120.30 input   59.86 | X-H torsion
[ 10167 10162 10161 10158 ] final  -34.78 input  -65.29 | X-H torsion
[ 10718 10713 10712 10709 ] final  -99.87 input   66.30 | X-H torsion
[ 10763 10752 10751 10750 ] final -178.31 input  -60.55 | X-H torsion
[ 11005 11000 10999 10996 ] final  -68.85 input  -57.11 | X-H torsion

> <Gold.Protein.ActiveResidues>
 VAL166  LYS551  ARG553  GLY616  TRP617  ASP618  TYR619  PRO620  LYS621  CYS622 
 ASP623  PHE694  ASN695  SER759  ASP760  ASP761  ALA762  ILE779  LEU786  VAL792 
 PHE793  MET794  SER795  GLU796  ALA797  LYS798  CYS799  TRP800  GLU811  SER814 

> <Gold.Protein.RotatedAtoms>
  150.7339  134.0119  159.3672 H   0  0  0  0  0  0  0  0  0  0  0  0  # atno 6907 bound_to 6896
  151.8079  135.0687  160.0418 H   0  0  0  0  0  0  0  0  0  0  0  0  # atno 6908 bound_to 6896
  152.3094  133.5700  159.5707 H   0  0  0  0  0  0  0  0  0  0  0  0  # atno 6909 bound_to 6896
  145.1278  140.8707  143.3776 H   0  0  0  0  0  0  0  0  0  0  0  0  # atno 7974 bound_to 7965
  155.1296  140.0400  157.2771 H   0  0  0  0  0  0  0  0  0  0  0  0  # atno 8008 bound_to 7997
  154.6552  140.2578  155.7143 H   0  0  0  0  0  0  0  0  0  0  0  0  # atno 8009 bound_to 7997
  156.2595  140.2828  156.1003 H   0  0  0  0  0  0  0  0  0  0  0  0  # atno 8010 bound_to 7997
  140.7178  143.3523  151.2130 H   0  0  0  0  0  0  0  0  0  0  0  0  # atno 10167 bound_to 10162
  156.0146  130.5302  150.6734 H   0  0  0  0  0  0  0  0  0  0  0  0  # atno 10718 bound_to 10713
  154.5493  135.2811  155.1023 H   0  0  0  0  0  0  0  0  0  0  0  0  # atno 10763 bound_to 10752
  154.2475  135.6345  153.5232 H   0  0  0  0  0  0  0  0  0  0  0  0  # atno 10764 bound_to 10752
  152.9999  135.5575  154.6054 H   0  0  0  0  0  0  0  0  0  0  0  0  # atno 10765 bound_to 10752
  141.1541  133.6750  156.6508 H   0  0  0  0  0  0  0  0  0  0  0  0  # atno 11005 bound_to 11000
  145.0669  139.3062  143.5852 LP  0  0  0  0  0  0  0  0  0  0  0  0  # atno 17320 bound_to 7965
  146.3516  140.0130  142.8665 LP  0  0  0  0  0  0  0  0  0  0  0  0  # atno 17321 bound_to 7965
  139.7057  143.9459  152.2925 LP  0  0  0  0  0  0  0  0  0  0  0  0  # atno 17342 bound_to 10162
  139.9167  144.6824  150.8504 LP  0  0  0  0  0  0  0  0  0  0  0  0  # atno 17343 bound_to 10162
  157.4452  131.0866  151.0903 LP  0  0  0  0  0  0  0  0  0  0  0  0  # atno 17370 bound_to 10713
  157.1435  130.6153  149.5562 LP  0  0  0  0  0  0  0  0  0  0  0  0  # atno 17371 bound_to 10713
  140.3321  134.7920  157.4334 LP  0  0  0  0  0  0  0  0  0  0  0  0  # atno 17394 bound_to 11000
  140.1008  134.5475  155.8355 LP  0  0  0  0  0  0  0  0  0  0  0  0  # atno 17395 bound_to 11000

$$$$
