AV-unprocessed.smi:249|AV-procd|sdf|1913|dock9
  -GOLD-   2262021 03D 1   1.00000     0.00000
 Structure written by MMmdl.
 64 67  0  0  0  0  0  0  0  0  2 V2000
  146.8628  128.3997  151.9887 C   0  0  0  0  0  0  0  0  0  0  0  0
  146.3207  129.8351  152.0611 C   0  0  0  0  0  0  0  0  0  0  0  0
  147.2623  130.7893  152.7068 N   0  3  1  0  0  0  0  0  0  0  0  0
  146.8455  132.2045  152.5138 C   0  0  0  0  0  0  0  0  0  0  0  0
  147.9407  133.1806  152.9711 C   0  0  0  0  0  0  0  0  0  0  0  0
  148.3326  132.9169  154.4379 C   0  0  2  0  0  0  0  0  0  0  0  0
  149.3256  133.8602  154.9676 N   0  0  0  0  0  0  0  0  0  0  0  0
  150.6102  133.3407  155.4175 C   0  0  0  0  0  0  0  0  0  0  0  0
  148.9507  134.9900  155.6155 C   0  0  0  0  0  0  0  0  0  0  0  0
  147.6354  135.2579  155.8229 N   0  0  0  0  0  0  0  0  0  0  0  0
  147.2705  136.3672  156.4727 C   0  0  0  0  0  0  0  0  0  0  0  0
  148.0436  137.3271  156.9840 N   0  0  0  0  0  0  0  0  0  0  0  0
  149.3653  137.0619  156.7771 C   0  0  0  0  0  0  0  0  0  0  0  0
  149.9002  135.9203  156.1174 C   0  0  0  0  0  0  0  0  0  0  0  0
  151.2877  135.9848  156.1024 N   0  0  0  0  0  0  0  0  0  0  0  0
  151.5592  137.1038  156.7168 C   0  0  0  0  0  0  0  0  0  0  0  0
  150.4631  137.8268  157.1331 N   0  0  0  0  0  0  0  0  0  0  0  0
  150.4830  139.0995  157.8326 C   0  0  0  0  0  0  0  0  0  0  0  0
  151.0453  140.2900  157.0102 C   0  0  1  0  0  0  0  0  0  0  0  0
  150.4683  140.2316  155.5765 C   0  0  0  0  0  0  0  0  0  0  0  0
  151.2390  139.3954  154.7368 O   0  0  0  0  0  0  0  0  0  0  0  0
  150.8576  141.6888  157.6698 C   0  0  1  0  0  0  0  0  0  0  0  0
  151.6484  141.9393  158.9461 C   0  0  0  0  0  0  0  0  0  0  0  0
  151.6667  143.4611  159.0472 C   0  0  0  0  0  0  0  0  0  0  0  0
  151.5778  143.9450  157.7134 O   0  0  0  0  0  0  0  0  0  0  0  0
  151.3699  142.8584  156.8202 C   0  0  0  0  0  0  0  0  0  0  0  0
  148.7302  131.4358  154.6174 C   0  0  0  0  0  0  0  0  0  0  0  0
  147.6284  130.4757  154.1238 C   0  0  1  0  0  0  0  0  0  0  0  0
  146.4196  130.4286  155.0834 C   0  0  0  0  0  0  0  0  0  0  0  0
  146.2024  127.7723  151.3896 H   0  0  0  0  0  0  0  0  0  0  0  0
  146.9321  127.9386  152.9737 H   0  0  0  0  0  0  0  0  0  0  0  0
  147.8509  128.3720  151.5285 H   0  0  0  0  0  0  0  0  0  0  0  0
  146.1409  130.1701  151.0389 H   0  0  0  0  0  0  0  0  0  0  0  0
  145.3501  129.8547  152.5570 H   0  0  0  0  0  0  0  0  0  0  0  0
  146.6376  132.3837  151.4583 H   0  0  0  0  0  0  0  0  0  0  0  0
  145.9147  132.3983  153.0479 H   0  0  0  0  0  0  0  0  0  0  0  0
  148.8015  133.0746  152.3118 H   0  0  0  0  0  0  0  0  0  0  0  0
  147.5859  134.2046  152.8515 H   0  0  0  0  0  0  0  0  0  0  0  0
  147.4405  133.0816  155.0427 H   0  0  0  0  0  0  0  0  0  0  0  0
  151.4147  134.0387  155.1852 H   0  0  0  0  0  0  0  0  0  0  0  0
  150.8410  132.3939  154.9287 H   0  0  0  0  0  0  0  0  0  0  0  0
  150.6020  133.1715  156.4951 H   0  0  0  0  0  0  0  0  0  0  0  0
  146.2072  136.5068  156.5999 H   0  0  0  0  0  0  0  0  0  0  0  0
  152.5736  137.4430  156.8693 H   0  0  0  0  0  0  0  0  0  0  0  0
  149.4585  139.3121  158.1398 H   0  0  0  0  0  0  0  0  0  0  0  0
  151.0579  138.9771  158.7514 H   0  0  0  0  0  0  0  0  0  0  0  0
  152.1181  140.1322  156.8977 H   0  0  0  0  0  0  0  0  0  0  0  0
  149.4387  139.8742  155.5793 H   0  0  0  0  0  0  0  0  0  0  0  0
  150.4389  141.2300  155.1389 H   0  0  0  0  0  0  0  0  0  0  0  0
  150.9440  138.5042  154.8475 H   0  0  0  0  0  0  0  0  0  0  0  0
  149.7994  141.8535  157.8794 H   0  0  0  0  0  0  0  0  0  0  0  0
  151.2031  141.4923  159.8332 H   0  0  0  0  0  0  0  0  0  0  0  0
  152.6667  141.5601  158.8461 H   0  0  0  0  0  0  0  0  0  0  0  0
  150.7980  143.8170  159.6021 H   0  0  0  0  0  0  0  0  0  0  0  0
  152.5623  143.8312  159.5463 H   0  0  0  0  0  0  0  0  0  0  0  0
  152.3270  142.6096  156.3592 H   0  0  0  0  0  0  0  0  0  0  0  0
  150.6757  143.1377  156.0273 H   0  0  0  0  0  0  0  0  0  0  0  0
  149.6421  131.2178  154.0615 H   0  0  0  0  0  0  0  0  0  0  0  0
  148.9604  131.2344  155.6644 H   0  0  0  0  0  0  0  0  0  0  0  0
  148.0784  129.4835  154.1368 H   0  0  0  0  0  0  0  0  0  0  0  0
  146.7467  130.2129  156.1009 H   0  0  0  0  0  0  0  0  0  0  0  0
  145.7152  129.6437  154.8092 H   0  0  0  0  0  0  0  0  0  0  0  0
  145.8733  131.3706  155.1137 H   0  0  0  0  0  0  0  0  0  0  0  0
  148.1234  130.6999  152.1864 H   0  0  0  0  0  0  0  0  0  0  0  0
  1  2  1  0  0  0  0
  1 30  1  0  0  0  0
  1 31  1  0  0  0  0
  1 32  1  0  0  0  0
  2  3  1  0  0  0  0
  2 33  1  0  0  0  0
  2 34  1  0  0  0  0
  3 28  1  0  0  0  0
  3  4  1  0  0  0  0
  3 64  1  0  0  0  0
  4  5  1  0  0  0  0
  4 35  1  0  0  0  0
  4 36  1  0  0  0  0
  5  6  1  0  0  0  0
  5 37  1  0  0  0  0
  5 38  1  0  0  0  0
  6  7  1  0  0  0  0
  6 27  1  0  0  0  0
  6 39  1  0  0  0  0
  7  8  1  0  0  0  0
  7  9  1  0  0  0  0
  8 40  1  0  0  0  0
  8 41  1  0  0  0  0
  8 42  1  0  0  0  0
  9 14  1  0  0  0  0
  9 10  2  0  0  0  0
 10 11  1  0  0  0  0
 11 12  2  0  0  0  0
 11 43  1  0  0  0  0
 12 13  1  0  0  0  0
 13 17  1  0  0  0  0
 13 14  2  0  0  0  0
 14 15  1  0  0  0  0
 15 16  2  0  0  0  0
 16 17  1  0  0  0  0
 16 44  1  0  0  0  0
 17 18  1  0  0  0  0
 18 19  1  0  0  0  0
 18 45  1  0  0  0  0
 18 46  1  0  0  0  0
 19 20  1  0  0  0  0
 19 22  1  0  0  0  0
 19 47  1  0  0  0  0
 20 21  1  0  0  0  0
 20 48  1  0  0  0  0
 20 49  1  0  0  0  0
 21 50  1  0  0  0  0
 22 26  1  0  0  0  0
 22 23  1  0  0  0  0
 22 51  1  0  0  0  0
 23 24  1  0  0  0  0
 23 52  1  0  0  0  0
 23 53  1  0  0  0  0
 24 25  1  0  0  0  0
 24 54  1  0  0  0  0
 24 55  1  0  0  0  0
 25 26  1  0  0  0  0
 26 56  1  0  0  0  0
 26 57  1  0  0  0  0
 27 28  1  0  0  0  0
 27 58  1  0  0  0  0
 27 59  1  0  0  0  0
 28 29  1  0  0  0  0
 28 60  1  0  0  0  0
 29 61  1  0  0  0  0
 29 62  1  0  0  0  0
 29 63  1  0  0  0  0
M  CHG  1   3   1
M  END
> <s_m_source_file>
AV-unprocessed.smi

> <i_m_source_file_index>
249

> <i_lp_mmshare_version>
43012

> <i_f3d_flags>
0

> <s_epik_input>
W0NIM11bQ0gyXU4xW0NIMl1bQ0gyXVtDQEhdKFtDSDJdW0NASF0xW0NIM10pTihbQ0gzXSljKG5bY0hdbjIpYyhjMjMpbltjSF1uM1tDSDJdW0NASF0oW0NIMl1bT0hdKVtDQEBIXTRbQ0gyXVtDSDJdT1tDSDJdNA==

> <s_epik_cmdline>
J2VwaWtfcHl0aG9uJywgJy1waCcsICc3LjAnLCAnLXRuJywgJzgnLCAnLW1hJywgJzIwMCcsICctbWV0YWxfYmluZGluZycsICctaW1hZScsICc8aW5maWxlLm1hZT4nLCAnLW9tYWUnLCAnPG91dGZpbGUubWFlPic=

> <r_lp_tautomer_probability>
1

> <r_epik_Ionization_Penalty>
0.00294688

> <r_epik_Ionization_Penalty_Charging>
0.00169971

> <r_epik_Ionization_Penalty_Neutral>
0.00124717

> <r_epik_State_Penalty>
-0

> <r_epik_Charging_Adjusted_Penalty>
0.00169971

> <i_epik_Tot_Q>
1

> <i_epik_Tot_abs_Q>
1

> <r_epik_Metal_State_Penalty>
-0

> <b_epik_Metal_Only>
0

> <s_lp_Force_Field>
OPLS_2005

> <r_lp_Energy>
54.9966

> <b_lp_Chiralities_Consistent>
1

> <s_lp_Variant>
AV-unprocessed.smi:249-16

> <Gold.Version>
5.8.1

> <Gold.Id.Protein>
6NUR|6NUR_protein|mol2

> <Gold.PLP.Fitness>
47.3410

> <Gold.PLP.PLP>
-39.4655

> <Gold.PLP.part.hbond>
-3.0000

> <Gold.PLP.part.metal>
0.0000

> <Gold.PLP.part.buried>
-6.1941

> <Gold.PLP.part.nonpolar>
-30.2399

> <Gold.PLP.part.repulsive>
0.2097

> <Gold.PLP.ligand.clash>
0.0000

> <Gold.PLP.ligand.torsion>
1.1631

> <Gold.PLP.Chemscore.Hbond>
2.9913

> <Gold.PLP.Chemscore.CHOScore>
0.0000

> <Gold.PLP.Chemscore.Metal>
0.0000

> <Gold.Chemscore.Hbonds>
donor molecule, donor type, donor heavy atom, donor atom, acceptor molecule, acceptor atom, score
      L1  H     3    64       P1 10747  0.79
      P1  H  7989  7998       L1    21  0.65
      P1  H 10752 10763       L1    15  0.65

> <Gold.PLP.Chemscore.Internal.Correction>
1.2280

> <Gold.Rescore>
     Score         DG    S(hbond)    S(metal)    S(lipo)     H(rot)  DE(clash)    DE(int)     intcor
     15.36     -20.12       2.64        0.00     107.84       2.65       1.46       3.30       ----

> <Gold.Chemscore.Fitness>
15.3588

> <Gold.Chemscore.DG>
-20.1175

> <Gold.Chemscore.ZeroCoef>
-5.4800

> <Gold.Chemscore.Hbond>
2.6372

> <Gold.Chemscore.Metal>
0.0000

> <Gold.Chemscore.Lipo>
107.8392

> <Gold.Chemscore.Internal_Hbond>
0.0000

> <Gold.Chemscore.DEClash>
1.4580

> <Gold.Chemscore.DEInternal>
3.3007

> <Gold.Chemscore.Rot>
2.6515

> <Gold.Chemscore.Internal.Correction>
   9.000000E+99

> <Gold.Chemscore.Hbonds>
donor molecule, donor type, donor heavy atom, donor atom, acceptor molecule, acceptor atom, score
      L1  H     3    64       P1 10747  0.73
      P1  H  7989  7998       L1    21  0.06
      P1  H 10752 10763       L1    15  0.36

> <Gold.Chemscore.Hbond.Weighted>
-8.8083

> <Gold.Chemscore.Metal.Weighted>
-0.0000

> <Gold.Chemscore.Lipo.Weighted>
-12.6172

> <Gold.Chemscore.Internal_Hbond.Weighted>
0.0000

> <Gold.Chemscore.DEClash.Weighted>
1.4580

> <Gold.Chemscore.DEInternal.Weighted>
3.3007

> <Gold.Chemscore.Rot.Weighted>
6.7880

> <Gold.Chemscore.Internal.Correction.Weighted>
   9.000000E+99

> <Gold.Protein.RotatedTorsions>
[ 6907 6896 6895 6894 ] final -149.32 input  -60.11 | X-H torsion
[ 7974 7965 7964 7962 ] final -170.24 input  175.53 | X-H torsion
[ 8008 7997 7996 7995 ] final  -78.39 input   59.86 | X-H torsion
[ 10167 10162 10161 10158 ] final   13.89 input  -65.29 | X-H torsion
[ 10718 10713 10712 10709 ] final   -4.60 input   66.30 | X-H torsion
[ 10763 10752 10751 10750 ] final   84.24 input  -60.55 | X-H torsion
[ 11005 11000 10999 10996 ] final   15.84 input  -57.11 | X-H torsion

> <Gold.Protein.ActiveResidues>
 VAL166  LYS551  ARG553  GLY616  TRP617  ASP618  TYR619  PRO620  LYS621  CYS622 
 ASP623  PHE694  ASN695  SER759  ASP760  ASP761  ALA762  ILE779  LEU786  VAL792 
 PHE793  MET794  SER795  GLU796  ALA797  LYS798  CYS799  TRP800  GLU811  SER814 

> <Gold.Protein.RotatedAtoms>
  151.1825  133.4716  159.2593 H   0  0  0  0  0  0  0  0  0  0  0  0  # atno 6907 bound_to 6896
  151.1245  135.0097  159.8564 H   0  0  0  0  0  0  0  0  0  0  0  0  # atno 6908 bound_to 6896
  152.5457  134.1733  159.8659 H   0  0  0  0  0  0  0  0  0  0  0  0  # atno 6909 bound_to 6896
  144.7173  140.2101  143.6328 H   0  0  0  0  0  0  0  0  0  0  0  0  # atno 7974 bound_to 7965
  154.5684  140.0695  156.8928 H   0  0  0  0  0  0  0  0  0  0  0  0  # atno 8008 bound_to 7997
  155.2679  140.3363  155.4249 H   0  0  0  0  0  0  0  0  0  0  0  0  # atno 8009 bound_to 7997
  156.2099  140.1755  156.7703 H   0  0  0  0  0  0  0  0  0  0  0  0  # atno 8010 bound_to 7997
  140.5972  143.8677  150.6930 H   0  0  0  0  0  0  0  0  0  0  0  0  # atno 10167 bound_to 10162
  156.7590  130.5263  149.5789 H   0  0  0  0  0  0  0  0  0  0  0  0  # atno 10718 bound_to 10713
  153.1364  135.4661  154.9428 H   0  0  0  0  0  0  0  0  0  0  0  0  # atno 10763 bound_to 10752
  154.7709  135.3158  154.8194 H   0  0  0  0  0  0  0  0  0  0  0  0  # atno 10764 bound_to 10752
  153.8725  135.6902  153.4827 H   0  0  0  0  0  0  0  0  0  0  0  0  # atno 10765 bound_to 10752
  140.4538  134.1197  155.7706 H   0  0  0  0  0  0  0  0  0  0  0  0  # atno 11005 bound_to 11000
  145.8599  139.2217  143.1723 LP  0  0  0  0  0  0  0  0  0  0  0  0  # atno 17320 bound_to 7965
  146.0183  140.8372  142.9936 LP  0  0  0  0  0  0  0  0  0  0  0  0  # atno 17321 bound_to 7965
  140.2214  143.3806  152.1640 LP  0  0  0  0  0  0  0  0  0  0  0  0  # atno 17342 bound_to 10162
  139.5266  144.7110  151.5206 LP  0  0  0  0  0  0  0  0  0  0  0  0  # atno 17343 bound_to 10162
  156.1352  130.6206  151.0389 LP  0  0  0  0  0  0  0  0  0  0  0  0  # atno 17370 bound_to 10713
  157.6743  131.0854  150.7534 LP  0  0  0  0  0  0  0  0  0  0  0  0  # atno 17371 bound_to 10713
  141.1652  133.8716  157.1734 LP  0  0  0  0  0  0  0  0  0  0  0  0  # atno 17394 bound_to 11000
  139.9990  135.0035  157.0147 LP  0  0  0  0  0  0  0  0  0  0  0  0  # atno 17395 bound_to 11000

$$$$
