AV-unprocessed.smi:1213|AV-procd|sdf|5086|dock7
  -GOLD-   22720 4133D 1   1.00000     0.00000
 Structure written by MMmdl.
 37 38  0  0  0  0  0  0  0  0  2 V2000
  142.2527  141.9692  154.1527 N   0  0  0  0  0  0  0  0  0  0  0  0
  142.8844  142.9052  154.8649 C   0  0  0  0  0  0  0  0  0  0  0  0
  142.4553  143.3077  155.9449 O   0  0  0  0  0  0  0  0  0  0  0  0
  144.1720  143.4790  154.2633 C   0  0  0  0  0  0  0  0  0  0  0  0
  145.2673  142.4796  154.1664 N   0  3  2  0  0  0  0  0  0  0  0  0
  145.6061  141.8810  155.4827 C   0  0  0  0  0  0  0  0  0  0  0  0
  146.6368  140.7467  155.3327 C   0  0  0  0  0  0  0  0  0  0  0  0
  147.9072  141.2099  154.5984 C   0  0  2  0  0  0  0  0  0  0  0  0
  148.7017  142.0920  155.4534 N   0  0  0  0  0  0  0  0  0  0  0  0
  149.5269  141.6848  156.4293 C   0  0  0  0  0  0  0  0  0  0  0  0
  149.7094  140.5003  156.7111 O   0  0  0  0  0  0  0  0  0  0  0  0
  150.1150  142.7292  157.0385 N   0  0  0  0  0  0  0  0  0  0  0  0
  151.0610  142.7075  158.0971 C   0  0  0  0  0  0  0  0  0  0  0  0
  151.2611  141.6627  158.9088 N   0  0  0  0  0  0  0  0  0  0  0  0
  152.2531  141.9189  159.8585 C   0  0  0  0  0  0  0  0  0  0  0  0
  152.8030  143.1723  159.7537 C   0  0  0  0  0  0  0  0  0  0  0  0
  152.0909  144.0868  158.4515 S   0  0  0  0  0  0  0  0  0  0  0  0
  147.5202  141.8919  153.2707 C   0  0  0  0  0  0  0  0  0  0  0  0
  146.4768  143.0033  153.4772 C   0  0  0  0  0  0  0  0  0  0  0  0
  141.3964  141.5648  154.5054 H   0  0  0  0  0  0  0  0  0  0  0  0
  142.6242  141.6694  153.2628 H   0  0  0  0  0  0  0  0  0  0  0  0
  143.9750  143.9157  153.2827 H   0  0  0  0  0  0  0  0  0  0  0  0
  144.4799  144.2982  154.9146 H   0  0  0  0  0  0  0  0  0  0  0  0
  145.9861  142.6565  156.1494 H   0  0  0  0  0  0  0  0  0  0  0  0
  144.7042  141.4801  155.9469 H   0  0  0  0  0  0  0  0  0  0  0  0
  146.8920  140.3386  156.3116 H   0  0  0  0  0  0  0  0  0  0  0  0
  146.1818  139.9276  154.7739 H   0  0  0  0  0  0  0  0  0  0  0  0
  148.5098  140.3268  154.3775 H   0  0  0  0  0  0  0  0  0  0  0  0
  148.6078  143.0850  155.2981 H   0  0  0  0  0  0  0  0  0  0  0  0
  149.8638  143.6471  156.7029 H   0  0  0  0  0  0  0  0  0  0  0  0
  152.5063  141.1502  160.5736 H   0  0  0  0  0  0  0  0  0  0  0  0
  153.5804  143.6108  160.3614 H   0  0  0  0  0  0  0  0  0  0  0  0
  148.4021  142.2949  152.7716 H   0  0  0  0  0  0  0  0  0  0  0  0
  147.1099  141.1428  152.5920 H   0  0  0  0  0  0  0  0  0  0  0  0
  146.2061  143.4200  152.5067 H   0  0  0  0  0  0  0  0  0  0  0  0
  146.9054  143.8209  154.0589 H   0  0  0  0  0  0  0  0  0  0  0  0
  144.9073  141.7268  153.5965 H   0  0  0  0  0  0  0  0  0  0  0  0
  1  2  1  0  0  0  0
  1 20  1  0  0  0  0
  1 21  1  0  0  0  0
  2  3  2  0  0  0  0
  2  4  1  0  0  0  0
  4  5  1  0  0  0  0
  4 22  1  0  0  0  0
  4 23  1  0  0  0  0
  5 19  1  0  0  0  0
  5  6  1  0  0  0  0
  5 37  1  0  0  0  0
  6  7  1  0  0  0  0
  6 24  1  0  0  0  0
  6 25  1  0  0  0  0
  7  8  1  0  0  0  0
  7 26  1  0  0  0  0
  7 27  1  0  0  0  0
  8  9  1  0  0  0  0
  8 18  1  0  0  0  0
  8 28  1  0  0  0  0
  9 10  1  0  0  0  0
  9 29  1  0  0  0  0
 10 11  2  0  0  0  0
 10 12  1  0  0  0  0
 12 13  1  0  0  0  0
 12 30  1  0  0  0  0
 13 17  1  0  0  0  0
 13 14  2  0  0  0  0
 14 15  1  0  0  0  0
 15 16  2  0  0  0  0
 15 31  1  0  0  0  0
 16 17  1  0  0  0  0
 16 32  1  0  0  0  0
 18 19  1  0  0  0  0
 18 33  1  0  0  0  0
 18 34  1  0  0  0  0
 19 35  1  0  0  0  0
 19 36  1  0  0  0  0
M  CHG  1   5   1
M  END
> <s_m_source_file>
AV-unprocessed.smi

> <i_m_source_file_index>
1213

> <i_lp_mmshare_version>
43012

> <i_f3d_flags>
0

> <s_epik_input>
W05IMl1DKD1PKVtDSDJdTjFbQ0gyXVtDSDJdW0NIXShbQ0gyXVtDSDJdMSlbTkhdQyg9TylbTkhdYzJuW2NIXVtjSF1zMg==

> <s_epik_cmdline>
J2VwaWtfcHl0aG9uJywgJy1waCcsICc3LjAnLCAnLXRuJywgJzgnLCAnLW1hJywgJzIwMCcsICctbWV0YWxfYmluZGluZycsICctaW1hZScsICc8aW5maWxlLm1hZT4nLCAnLW9tYWUnLCAnPG91dGZpbGUubWFlPic=

> <r_lp_tautomer_probability>
0.999

> <r_epik_Ionization_Penalty>
0.86253

> <r_epik_Ionization_Penalty_Charging>
0.862349

> <r_epik_Ionization_Penalty_Neutral>
0.000180085

> <r_epik_State_Penalty>
0.898939

> <r_epik_Charging_Adjusted_Penalty>
1.76129

> <i_epik_Tot_Q>
1

> <i_epik_Tot_abs_Q>
1

> <r_epik_Metal_State_Penalty>
0.948529

> <b_epik_Metal_Only>
0

> <s_lp_Force_Field>
OPLS_2005

> <r_lp_Energy>
11.1317

> <b_lp_Chiralities_Consistent>
1

> <s_lp_Variant>
AV-unprocessed.smi:1213-3

> <Gold.Version>
5.8.1

> <Gold.Id.Protein>
6NUR|6NUR_protein|mol2

> <Gold.PLP.Fitness>
44.9594

> <Gold.PLP.PLP>
-30.9218

> <Gold.PLP.part.hbond>
-4.5822

> <Gold.PLP.part.metal>
0.0000

> <Gold.PLP.part.buried>
-3.9193

> <Gold.PLP.part.nonpolar>
-23.2877

> <Gold.PLP.part.repulsive>
0.2304

> <Gold.PLP.ligand.clash>
0.0000

> <Gold.PLP.ligand.torsion>
0.4184

> <Gold.PLP.Chemscore.Hbond>
4.9500

> <Gold.PLP.Chemscore.CHOScore>
0.0000

> <Gold.PLP.Chemscore.Metal>
0.0000

> <Gold.Chemscore.Hbonds>
donor molecule, donor type, donor heavy atom, donor atom, acceptor molecule, acceptor atom, score
      L1  H     5    37       P1 10175  1.05
      L1  H     9    29       P1  8028  1.00
      L1  H    12    30       P1  8028  1.00

> <Gold.PLP.Chemscore.Internal.Correction>
0.0244

> <Gold.Rescore>
     Score         DG    S(hbond)    S(metal)    S(lipo)     H(rot)  DE(clash)    DE(int)     intcor
     17.64     -20.22       3.69        0.00      65.87       2.06       1.21       1.36       ----

> <Gold.Chemscore.Fitness>
17.6440

> <Gold.Chemscore.DG>
-20.2197

> <Gold.Chemscore.ZeroCoef>
-5.4800

> <Gold.Chemscore.Hbond>
3.6871

> <Gold.Chemscore.Metal>
0.0000

> <Gold.Chemscore.Lipo>
65.8680

> <Gold.Chemscore.Internal_Hbond>
0.0000

> <Gold.Chemscore.DEClash>
1.2134

> <Gold.Chemscore.DEInternal>
1.3623

> <Gold.Chemscore.Rot>
2.0631

> <Gold.Chemscore.Internal.Correction>
   9.000000E+99

> <Gold.Chemscore.Hbonds>
donor molecule, donor type, donor heavy atom, donor atom, acceptor molecule, acceptor atom, score
      L1  H     5    37       P1 10175  0.03
      L1  H     9    29       P1  8028  0.98
      L1  H    12    30       P1  8028  0.96

> <Gold.Chemscore.Hbond.Weighted>
-12.3148

> <Gold.Chemscore.Metal.Weighted>
-0.0000

> <Gold.Chemscore.Lipo.Weighted>
-7.7066

> <Gold.Chemscore.Internal_Hbond.Weighted>
0.0000

> <Gold.Chemscore.DEClash.Weighted>
1.2134

> <Gold.Chemscore.DEInternal.Weighted>
1.3623

> <Gold.Chemscore.Rot.Weighted>
5.2816

> <Gold.Chemscore.Internal.Correction.Weighted>
   9.000000E+99

> <Gold.Protein.RotatedTorsions>
[ 6907 6896 6895 6894 ] final  -10.72 input  -60.11 | X-H torsion
[ 7974 7965 7964 7962 ] final  -48.26 input  175.53 | X-H torsion
[ 8008 7997 7996 7995 ] final   59.84 input   59.86 | X-H torsion
[ 10167 10162 10161 10158 ] final  -80.50 input  -65.29 | X-H torsion
[ 10718 10713 10712 10709 ] final   30.82 input   66.30 | X-H torsion
[ 10763 10752 10751 10750 ] final   40.25 input  -60.55 | X-H torsion
[ 11005 11000 10999 10996 ] final   13.08 input  -57.11 | X-H torsion

> <Gold.Protein.ActiveResidues>
 VAL166  LYS551  ARG553  GLY616  TRP617  ASP618  TYR619  PRO620  LYS621  CYS622 
 ASP623  PHE694  ASN695  SER759  ASP760  ASP761  ALA762  ILE779  LEU786  VAL792 
 PHE793  MET794  SER795  GLU796  ALA797  LYS798  CYS799  TRP800  GLU811  SER814 

> <Gold.Protein.RotatedAtoms>
  151.3976  135.0966  159.9545 H   0  0  0  0  0  0  0  0  0  0  0  0  # atno 6907 bound_to 6896
  152.5060  133.8920  159.7409 H   0  0  0  0  0  0  0  0  0  0  0  0  # atno 6908 bound_to 6896
  150.9386  133.6626  159.2824 H   0  0  0  0  0  0  0  0  0  0  0  0  # atno 6909 bound_to 6896
  145.9530  140.7553  142.9495 H   0  0  0  0  0  0  0  0  0  0  0  0  # atno 7974 bound_to 7965
  155.5726  140.3490  155.4519 H   0  0  0  0  0  0  0  0  0  0  0  0  # atno 8008 bound_to 7997
  156.0433  140.1301  157.0157 H   0  0  0  0  0  0  0  0  0  0  0  0  # atno 8009 bound_to 7997
  154.4401  140.1019  156.6254 H   0  0  0  0  0  0  0  0  0  0  0  0  # atno 8010 bound_to 7997
  140.4497  143.2487  151.8507 H   0  0  0  0  0  0  0  0  0  0  0  0  # atno 10167 bound_to 10162
  157.2645  130.7178  149.6471 H   0  0  0  0  0  0  0  0  0  0  0  0  # atno 10718 bound_to 10713
  152.9942  135.6197  154.2595 H   0  0  0  0  0  0  0  0  0  0  0  0  # atno 10763 bound_to 10752
  154.2332  135.2791  155.2884 H   0  0  0  0  0  0  0  0  0  0  0  0  # atno 10764 bound_to 10752
  154.5432  135.5755  153.6915 H   0  0  0  0  0  0  0  0  0  0  0  0  # atno 10765 bound_to 10752
  140.4847  134.0900  155.7758 H   0  0  0  0  0  0  0  0  0  0  0  0  # atno 11005 bound_to 11000
  144.6799  140.2467  143.7337 LP  0  0  0  0  0  0  0  0  0  0  0  0  # atno 17320 bound_to 7965
  145.8144  139.2017  143.1974 LP  0  0  0  0  0  0  0  0  0  0  0  0  # atno 17321 bound_to 7965
  139.4795  144.5134  151.8901 LP  0  0  0  0  0  0  0  0  0  0  0  0  # atno 17342 bound_to 10162
  140.4222  144.2228  150.5887 LP  0  0  0  0  0  0  0  0  0  0  0  0  # atno 17343 bound_to 10162
  155.9663  130.4387  150.5227 LP  0  0  0  0  0  0  0  0  0  0  0  0  # atno 17370 bound_to 10713
  157.3139  131.0669  151.1981 LP  0  0  0  0  0  0  0  0  0  0  0  0  # atno 17371 bound_to 10713
  141.1514  133.8962  157.2089 LP  0  0  0  0  0  0  0  0  0  0  0  0  # atno 17394 bound_to 11000
  139.9805  135.0100  156.9737 LP  0  0  0  0  0  0  0  0  0  0  0  0  # atno 17395 bound_to 11000

$$$$
