AV-unprocessed.smi:39|AV-procd|sdf|358|dock8
  -GOLD-   2262016193D 1   1.00000     0.00000
 Structure written by MMmdl.
 32 33  0  0  0  0  0  0  0  0  3 V2000
  154.3344  139.4557  159.9547 C   0  0  0  0  0  0  0  0  0  0  0  0
  153.6233  140.7975  160.0148 C   0  0  0  0  0  0  0  0  0  0  0  0
  152.8304  141.2468  159.0085 C   0  0  0  0  0  0  0  0  0  0  0  0
  152.1652  142.4653  159.0371 N   0  0  0  0  0  0  0  0  0  0  0  0
  151.2798  142.9053  157.8933 C   0  0  2  0  0  0  0  0  0  0  0  0
  149.8255  143.0375  158.3613 C   0  0  0  0  0  0  0  0  0  0  0  0
  149.1917  141.7880  157.7705 C   0  0  1  0  0  0  0  0  0  0  0  0
  147.7330  141.8760  157.5893 N   0  0  0  0  0  0  0  0  0  0  0  0
  147.0223  142.0298  158.5934 N   0  3  0  0  0  0  0  0  0  0  0  0
  146.3840  142.0481  159.5353 N   0  5  0  0  0  0  0  0  0  0  0  0
  149.9991  141.6045  156.4775 C   0  0  2  0  0  0  0  0  0  0  0  0
  149.9637  140.1700  155.9287 C   0  0  0  0  0  0  0  0  0  0  0  0
  150.6288  140.1122  154.6852 O   0  0  0  0  0  0  0  0  0  0  0  0
  151.3223  141.9339  156.8888 O   0  0  0  0  0  0  0  0  0  0  0  0
  152.2834  143.2903  160.1749 C   0  0  0  0  0  0  0  0  0  0  0  0
  151.6965  144.3658  160.2873 O   0  0  0  0  0  0  0  0  0  0  0  0
  153.1028  142.8327  161.2052 N   0  0  0  0  0  0  0  0  0  0  0  0
  153.8025  141.6236  161.2121 C   0  0  0  0  0  0  0  0  0  0  0  0
  154.4979  141.3299  162.1833 O   0  0  0  0  0  0  0  0  0  0  0  0
  151.6955  143.8341  157.4990 H   0  0  0  0  0  0  0  0  0  0  0  0
  149.4145  140.9536  158.4369 H   0  0  0  0  0  0  0  0  0  0  0  0
  149.6798  142.3244  155.7214 H   0  0  0  0  0  0  0  0  0  0  0  0
  153.1947  143.4235  162.0186 H   0  0  0  0  0  0  0  0  0  0  0  0
  154.1340  138.9329  159.0191 H   0  0  0  0  0  0  0  0  0  0  0  0
  154.0057  138.8138  160.7730 H   0  0  0  0  0  0  0  0  0  0  0  0
  155.4134  139.5912  160.0375 H   0  0  0  0  0  0  0  0  0  0  0  0
  152.7104  140.6137  158.1419 H   0  0  0  0  0  0  0  0  0  0  0  0
  149.7446  143.0964  159.4475 H   0  0  0  0  0  0  0  0  0  0  0  0
  149.4122  143.9503  157.9305 H   0  0  0  0  0  0  0  0  0  0  0  0
  150.4066  139.4640  156.6318 H   0  0  0  0  0  0  0  0  0  0  0  0
  148.9329  139.8571  155.7609 H   0  0  0  0  0  0  0  0  0  0  0  0
  150.2016  139.4649  154.1451 H   0  0  0  0  0  0  0  0  0  0  0  0
  1  2  1  0  0  0  0
  1 24  1  0  0  0  0
  1 25  1  0  0  0  0
  1 26  1  0  0  0  0
  2 18  1  0  0  0  0
  2  3  2  0  0  0  0
  3  4  1  0  0  0  0
  3 27  1  0  0  0  0
  4  5  1  0  0  0  0
  4 15  1  0  0  0  0
  5 20  1  0  0  0  0
  5 14  1  0  0  0  0
  5  6  1  0  0  0  0
  6  7  1  0  0  0  0
  6 28  1  0  0  0  0
  6 29  1  0  0  0  0
  7 21  1  0  0  0  0
  7  8  1  0  0  0  0
  7 11  1  0  0  0  0
  8  9  2  0  0  0  0
  9 10  2  0  0  0  0
 11 22  1  0  0  0  0
 11 12  1  0  0  0  0
 11 14  1  0  0  0  0
 12 13  1  0  0  0  0
 12 30  1  0  0  0  0
 12 31  1  0  0  0  0
 13 32  1  0  0  0  0
 15 16  2  0  0  0  0
 15 17  1  0  0  0  0
 17 23  1  0  0  0  0
 17 18  1  0  0  0  0
 18 19  2  0  0  0  0
M  CHG  1   9   1
M  CHG  1  10  -1
M  END
> <s_m_source_file>
AV-unprocessed.smi

> <i_m_source_file_index>
39

> <i_lp_mmshare_version>
43012

> <i_f3d_flags>
0

> <s_epik_input>
Tz1jMVtuSF1jKD1PKW4oW2NIXWMxW0NIM10pW0NASF0yW0NIMl1bQ0BIXShOPVtOK109W04tXSlbQ0BIXShPMilbQ0gyXVtPSF0=

> <s_epik_cmdline>
J2VwaWtfcHl0aG9uJywgJy1waCcsICc3LjAnLCAnLXRuJywgJzgnLCAnLW1hJywgJzIwMCcsICctbWV0YWxfYmluZGluZycsICctaW1hZScsICc8aW5maWxlLm1hZT4nLCAnLW9tYWUnLCAnPG91dGZpbGUubWFlPic=

> <r_lp_tautomer_probability>
0.999537

> <r_epik_Ionization_Penalty>
0.00127512

> <r_epik_Ionization_Penalty_Charging>
0.00127507

> <r_epik_Ionization_Penalty_Neutral>
5.43433e-08

> <r_epik_State_Penalty>
0.000844892

> <r_epik_Charging_Adjusted_Penalty>
0.00211996

> <i_epik_Tot_Q>
0

> <i_epik_Tot_abs_Q>
2

> <r_epik_Metal_State_Penalty>
0.680636

> <b_epik_Metal_Only>
0

> <s_epik_Chemistry_Notes>
This compound contains an acetal/aminal-like group ( X-CH(R)-Y where X, Y are N, S, or O) that may be acid/base labile, releasing an aldehyde.

> <s_lp_Force_Field>
OPLS_2005

> <r_lp_Energy>
25.9236

> <b_lp_Chiralities_Consistent>
1

> <s_lp_Variant>
AV-unprocessed.smi:39-8

> <Gold.Version>
5.8.1

> <Gold.Id.Protein>
6NUR|6NUR_protein|mol2

> <Gold.PLP.Fitness>
36.9801

> <Gold.PLP.PLP>
-31.0580

> <Gold.PLP.part.hbond>
-3.6890

> <Gold.PLP.part.metal>
0.0000

> <Gold.PLP.part.buried>
-4.9261

> <Gold.PLP.part.nonpolar>
-22.0842

> <Gold.PLP.part.repulsive>
0.3820

> <Gold.PLP.ligand.clash>
0.0000

> <Gold.PLP.ligand.torsion>
0.0490

> <Gold.PLP.Chemscore.Hbond>
2.0000

> <Gold.PLP.Chemscore.CHOScore>
0.0000

> <Gold.PLP.Chemscore.Metal>
0.0000

> <Gold.Chemscore.Hbonds>
donor molecule, donor type, donor heavy atom, donor atom, acceptor molecule, acceptor atom, score
      P1  H  6934  6946       L1    10  1.00
      P1  H  7989  7998       L1    13  1.00

> <Gold.PLP.Chemscore.Internal.Correction>
0.0202

> <Gold.Rescore>
     Score         DG    S(hbond)    S(metal)    S(lipo)     H(rot)  DE(clash)    DE(int)     intcor
      9.29      -9.55       1.89        0.00      41.15       2.75       0.04       0.21       ----

> <Gold.Chemscore.Fitness>
9.2935

> <Gold.Chemscore.DG>
-9.5493

> <Gold.Chemscore.ZeroCoef>
-5.4800

> <Gold.Chemscore.Hbond>
1.8865

> <Gold.Chemscore.Metal>
0.0000

> <Gold.Chemscore.Lipo>
41.1503

> <Gold.Chemscore.Internal_Hbond>
0.0000

> <Gold.Chemscore.DEClash>
0.0430

> <Gold.Chemscore.DEInternal>
0.2129

> <Gold.Chemscore.Rot>
2.7524

> <Gold.Chemscore.Internal.Correction>
   9.000000E+99

> <Gold.Chemscore.Hbonds>
donor molecule, donor type, donor heavy atom, donor atom, acceptor molecule, acceptor atom, score
      P1  H  6934  6946       L1    10  0.81
      P1  H  7989  7998       L1    13  0.26

> <Gold.Chemscore.Hbond.Weighted>
-6.3008

> <Gold.Chemscore.Metal.Weighted>
-0.0000

> <Gold.Chemscore.Lipo.Weighted>
-4.8146

> <Gold.Chemscore.Internal_Hbond.Weighted>
0.0000

> <Gold.Chemscore.DEClash.Weighted>
0.0430

> <Gold.Chemscore.DEInternal.Weighted>
0.2129

> <Gold.Chemscore.Rot.Weighted>
7.0461

> <Gold.Chemscore.Internal.Correction.Weighted>
   9.000000E+99

> <Gold.Protein.RotatedTorsions>
[ 6907 6896 6895 6894 ] final  166.09 input  -60.11 | X-H torsion
[ 7974 7965 7964 7962 ] final -167.01 input  175.53 | X-H torsion
[ 8008 7997 7996 7995 ] final  173.48 input   59.86 | X-H torsion
[ 10167 10162 10161 10158 ] final -126.89 input  -65.29 | X-H torsion
[ 10718 10713 10712 10709 ] final  159.81 input   66.30 | X-H torsion
[ 10763 10752 10751 10750 ] final   79.09 input  -60.55 | X-H torsion
[ 11005 11000 10999 10996 ] final  108.81 input  -57.11 | X-H torsion

> <Gold.Protein.ActiveResidues>
 VAL166  LYS551  ARG553  GLY616  TRP617  ASP618  TYR619  PRO620  LYS621  CYS622 
 ASP623  PHE694  ASN695  SER759  ASP760  ASP761  ALA762  ILE779  LEU786  VAL792 
 PHE793  MET794  SER795  GLU796  ALA797  LYS798  CYS799  TRP800  GLU811  SER814 

> <Gold.Protein.RotatedAtoms>
  151.8843  133.3502  159.3776 H   0  0  0  0  0  0  0  0  0  0  0  0  # atno 6907 bound_to 6896
  150.7119  134.4987  159.5560 H   0  0  0  0  0  0  0  0  0  0  0  0  # atno 6908 bound_to 6896
  152.2545  134.8099  160.0491 H   0  0  0  0  0  0  0  0  0  0  0  0  # atno 6909 bound_to 6896
  144.7232  140.2582  143.6269 H   0  0  0  0  0  0  0  0  0  0  0  0  # atno 7974 bound_to 7965
  156.1071  140.1459  156.9389 H   0  0  0  0  0  0  0  0  0  0  0  0  # atno 8008 bound_to 7997
  154.4741  140.0900  156.7263 H   0  0  0  0  0  0  0  0  0  0  0  0  # atno 8009 bound_to 7997
  155.4660  140.3440  155.4321 H   0  0  0  0  0  0  0  0  0  0  0  0  # atno 8010 bound_to 7997
  139.9666  143.5891  152.2427 H   0  0  0  0  0  0  0  0  0  0  0  0  # atno 10167 bound_to 10162
  157.1590  131.0582  151.2242 H   0  0  0  0  0  0  0  0  0  0  0  0  # atno 10718 bound_to 10713
  153.0925  135.4853  154.8717 H   0  0  0  0  0  0  0  0  0  0  0  0  # atno 10763 bound_to 10752
  154.7286  135.3055  154.8931 H   0  0  0  0  0  0  0  0  0  0  0  0  # atno 10764 bound_to 10752
  153.9574  135.6816  153.4798 H   0  0  0  0  0  0  0  0  0  0  0  0  # atno 10765 bound_to 10752
  139.8850  134.9441  156.6029 H   0  0  0  0  0  0  0  0  0  0  0  0  # atno 11005 bound_to 11000
  145.8162  139.2024  143.1964 LP  0  0  0  0  0  0  0  0  0  0  0  0  # atno 17320 bound_to 7965
  146.0554  140.8026  142.9761 LP  0  0  0  0  0  0  0  0  0  0  0  0  # atno 17321 bound_to 7965
  139.6513  144.7661  151.2143 LP  0  0  0  0  0  0  0  0  0  0  0  0  # atno 17342 bound_to 10162
  140.7536  143.6157  150.8562 LP  0  0  0  0  0  0  0  0  0  0  0  0  # atno 17343 bound_to 10162
  157.4150  130.7406  149.6868 LP  0  0  0  0  0  0  0  0  0  0  0  0  # atno 17370 bound_to 10713
  155.9757  130.4085  150.3831 LP  0  0  0  0  0  0  0  0  0  0  0  0  # atno 17371 bound_to 10713
  140.7870  133.8613  155.8614 LP  0  0  0  0  0  0  0  0  0  0  0  0  # atno 17394 bound_to 11000
  140.9710  134.1530  157.4576 LP  0  0  0  0  0  0  0  0  0  0  0  0  # atno 17395 bound_to 11000

$$$$
