AV-unprocessed.smi:1809|AV-procd|sdf|7319|dock2
  -GOLD-   22720 8573D 1   1.00000     0.00000
 Structure written by MMmdl.
 39 41  0  0  0  0  0  0  0  0  1 V2000
  146.2039  129.9682  152.6169 C   0  0  0  0  0  0  0  0  0  0  0  0
  147.0969  131.0461  153.1295 C   0  0  0  0  0  0  0  0  0  0  0  0
  148.0307  130.8317  154.0645 N   0  0  0  0  0  0  0  0  0  0  0  0
  148.7312  131.9867  154.3831 N   0  0  0  0  0  0  0  0  0  0  0  0
  148.3024  133.0420  153.6773 C   0  0  0  0  0  0  0  0  0  0  0  0
  148.8429  134.3491  153.8042 N   0  0  0  0  0  0  0  0  0  0  0  0
  149.4794  134.8891  154.8585 C   0  0  0  0  0  0  0  0  0  0  0  0
  149.7054  134.3142  155.9234 O   0  0  0  0  0  0  0  0  0  0  0  0
  149.8417  136.1550  154.6069 N   0  0  0  0  0  0  0  0  0  0  0  0
  150.5123  137.0463  155.5480 C   0  0  0  0  0  0  0  0  0  0  0  0
  151.2822  138.1630  154.8121 C   0  0  2  0  0  0  0  0  0  0  0  0
  152.2115  138.9721  155.7486 C   0  0  0  0  0  0  0  0  0  0  0  0
  151.4454  139.8945  156.5651 N   0  0  0  0  0  0  0  0  0  0  0  0
  152.1968  140.7835  157.4209 C   0  0  0  0  0  0  0  0  0  0  0  0
  151.1853  141.8717  157.8192 C   0  0  0  0  0  0  0  0  0  0  0  0
  150.0895  141.7941  156.7334 C   0  0  0  0  0  0  0  0  0  0  0  0
  150.6607  140.7759  155.7444 C   0  0  2  0  0  0  0  0  0  0  0  0
  149.6623  139.9780  154.8963 C   0  0  0  0  0  0  0  0  0  0  0  0
  150.3950  139.0408  154.0999 O   0  0  0  0  0  0  0  0  0  0  0  0
  146.9982  132.7050  152.5517 S   0  0  0  0  0  0  0  0  0  0  0  0
  146.5495  128.9897  152.9521 H   0  0  0  0  0  0  0  0  0  0  0  0
  146.1926  129.9790  151.5270 H   0  0  0  0  0  0  0  0  0  0  0  0
  145.1879  130.1239  152.9799 H   0  0  0  0  0  0  0  0  0  0  0  0
  148.7229  134.9466  153.0000 H   0  0  0  0  0  0  0  0  0  0  0  0
  149.6156  136.5419  153.7024 H   0  0  0  0  0  0  0  0  0  0  0  0
  149.8108  137.4569  156.2754 H   0  0  0  0  0  0  0  0  0  0  0  0
  151.2145  136.4406  156.1211 H   0  0  0  0  0  0  0  0  0  0  0  0
  151.9123  137.6823  154.0628 H   0  0  0  0  0  0  0  0  0  0  0  0
  152.7942  138.3026  156.3822 H   0  0  0  0  0  0  0  0  0  0  0  0
  152.9280  139.5300  155.1439 H   0  0  0  0  0  0  0  0  0  0  0  0
  152.6114  140.2589  158.2821 H   0  0  0  0  0  0  0  0  0  0  0  0
  153.0234  141.2312  156.8663 H   0  0  0  0  0  0  0  0  0  0  0  0
  150.7591  141.6665  158.8019 H   0  0  0  0  0  0  0  0  0  0  0  0
  151.6577  142.8536  157.8569 H   0  0  0  0  0  0  0  0  0  0  0  0
  149.1563  141.4319  157.1670 H   0  0  0  0  0  0  0  0  0  0  0  0
  149.8941  142.7583  156.2632 H   0  0  0  0  0  0  0  0  0  0  0  0
  151.3273  141.3121  155.0654 H   0  0  0  0  0  0  0  0  0  0  0  0
  148.9392  139.4617  155.5276 H   0  0  0  0  0  0  0  0  0  0  0  0
  149.0984  140.6407  154.2399 H   0  0  0  0  0  0  0  0  0  0  0  0
  1  2  1  0  0  0  0
  1 21  1  0  0  0  0
  1 22  1  0  0  0  0
  1 23  1  0  0  0  0
  2 20  1  0  0  0  0
  2  3  2  0  0  0  0
  3  4  1  0  0  0  0
  4  5  2  0  0  0  0
  5  6  1  0  0  0  0
  5 20  1  0  0  0  0
  6  7  1  0  0  0  0
  6 24  1  0  0  0  0
  7  8  2  0  0  0  0
  7  9  1  0  0  0  0
  9 10  1  0  0  0  0
  9 25  1  0  0  0  0
 10 11  1  0  0  0  0
 10 26  1  0  0  0  0
 10 27  1  0  0  0  0
 11 19  1  0  0  0  0
 11 12  1  0  0  0  0
 11 28  1  0  0  0  0
 12 13  1  0  0  0  0
 12 29  1  0  0  0  0
 12 30  1  0  0  0  0
 13 17  1  0  0  0  0
 13 14  1  0  0  0  0
 14 15  1  0  0  0  0
 14 31  1  0  0  0  0
 14 32  1  0  0  0  0
 15 16  1  0  0  0  0
 15 33  1  0  0  0  0
 15 34  1  0  0  0  0
 16 17  1  0  0  0  0
 16 35  1  0  0  0  0
 16 36  1  0  0  0  0
 17 18  1  0  0  0  0
 17 37  1  0  0  0  0
 18 19  1  0  0  0  0
 18 38  1  0  0  0  0
 18 39  1  0  0  0  0
M  END
> <s_m_source_file>
AV-unprocessed.smi

> <i_m_source_file_index>
1809

> <i_lp_mmshare_version>
43012

> <i_f3d_flags>
0

> <s_epik_input>
W0NIM11jMW5uYyhzMSlbTkhdQyg9TylbTkhdW0NIMl1bQ0BIXShbQ0gyXTIpT1tDSDJdW0NAQEhdKE4yMylbQ0gyXVtDSDJdW0NIMl0z

> <s_epik_cmdline>
J2VwaWtfcHl0aG9uJywgJy1waCcsICc3LjAnLCAnLXRuJywgJzgnLCAnLW1hJywgJzIwMCcsICctbWV0YWxfYmluZGluZycsICctaW1hZScsICc8aW5maWxlLm1hZT4nLCAnLW9tYWUnLCAnPG91dGZpbGUubWFlPic=

> <r_lp_tautomer_probability>
1

> <r_epik_Ionization_Penalty>
1.05954

> <r_epik_Ionization_Penalty_Charging>
0

> <r_epik_Ionization_Penalty_Neutral>
1.05954

> <r_epik_State_Penalty>
1.4238

> <r_epik_Charging_Adjusted_Penalty>
1.4238

> <i_epik_Tot_Q>
0

> <i_epik_Tot_abs_Q>
0

> <r_epik_Metal_State_Penalty>
1.7901

> <b_epik_Metal_Only>
0

> <s_lp_Force_Field>
OPLS_2005

> <r_lp_Energy>
48.8115

> <b_lp_Chiralities_Consistent>
1

> <s_lp_Variant>
AV-unprocessed.smi:1809-11

> <Gold.Version>
5.8.1

> <Gold.Id.Protein>
6NUR|6NUR_protein|mol2

> <Gold.PLP.Fitness>
36.9261

> <Gold.PLP.PLP>
-31.3114

> <Gold.PLP.part.hbond>
-2.3178

> <Gold.PLP.part.metal>
0.0000

> <Gold.PLP.part.buried>
-4.8673

> <Gold.PLP.part.nonpolar>
-24.3822

> <Gold.PLP.part.repulsive>
0.3780

> <Gold.PLP.ligand.clash>
0.0000

> <Gold.PLP.ligand.torsion>
0.3296

> <Gold.PLP.Chemscore.Hbond>
2.0881

> <Gold.PLP.Chemscore.CHOScore>
0.0000

> <Gold.PLP.Chemscore.Metal>
0.0000

> <Gold.Chemscore.Hbonds>
donor molecule, donor type, donor heavy atom, donor atom, acceptor molecule, acceptor atom, score
      L1  H     6    24       P1  7948  1.00
      L1  H     9    25       P1  7948  0.96
      P1  H  7989  7998       L1    19  0.10

> <Gold.PLP.Chemscore.Internal.Correction>
0.0095

> <Gold.Rescore>
     Score         DG    S(hbond)    S(metal)    S(lipo)     H(rot)  DE(clash)    DE(int)     intcor
     13.14     -15.31       1.51        0.00      69.86       1.32       0.69       1.48       ----

> <Gold.Chemscore.Fitness>
13.1369

> <Gold.Chemscore.DG>
-15.3111

> <Gold.Chemscore.ZeroCoef>
-5.4800

> <Gold.Chemscore.Hbond>
1.5076

> <Gold.Chemscore.Metal>
0.0000

> <Gold.Chemscore.Lipo>
69.8623

> <Gold.Chemscore.Internal_Hbond>
0.0000

> <Gold.Chemscore.DEClash>
0.6911

> <Gold.Chemscore.DEInternal>
1.4830

> <Gold.Chemscore.Rot>
1.3196

> <Gold.Chemscore.Internal.Correction>
   9.000000E+99

> <Gold.Chemscore.Hbonds>
donor molecule, donor type, donor heavy atom, donor atom, acceptor molecule, acceptor atom, score
      L1  H     6    24       P1  7948  0.35
      L1  H     9    25       P1  7948  0.60

> <Gold.Chemscore.Hbond.Weighted>
-5.0355

> <Gold.Chemscore.Metal.Weighted>
-0.0000

> <Gold.Chemscore.Lipo.Weighted>
-8.1739

> <Gold.Chemscore.Internal_Hbond.Weighted>
0.0000

> <Gold.Chemscore.DEClash.Weighted>
0.6911

> <Gold.Chemscore.DEInternal.Weighted>
1.4830

> <Gold.Chemscore.Rot.Weighted>
3.3783

> <Gold.Chemscore.Internal.Correction.Weighted>
   9.000000E+99

> <Gold.Protein.RotatedTorsions>
[ 6907 6896 6895 6894 ] final -153.60 input  -60.11 | X-H torsion
[ 7974 7965 7964 7962 ] final   17.99 input  175.53 | X-H torsion
[ 8008 7997 7996 7995 ] final  -66.62 input   59.86 | X-H torsion
[ 10167 10162 10161 10158 ] final  -55.73 input  -65.29 | X-H torsion
[ 10718 10713 10712 10709 ] final  -10.06 input   66.30 | X-H torsion
[ 10763 10752 10751 10750 ] final  117.87 input  -60.55 | X-H torsion
[ 11005 11000 10999 10996 ] final   44.84 input  -57.11 | X-H torsion

> <Gold.Protein.ActiveResidues>
 VAL166  LYS551  ARG553  GLY616  TRP617  ASP618  TYR619  PRO620  LYS621  CYS622 
 ASP623  PHE694  ASN695  SER759  ASP760  ASP761  ALA762  ILE779  LEU786  VAL792 
 PHE793  MET794  SER795  GLU796  ALA797  LYS798  CYS799  TRP800  GLU811  SER814 

> <Gold.Protein.RotatedAtoms>
  151.2450  133.4379  159.2608 H   0  0  0  0  0  0  0  0  0  0  0  0  # atno 6907 bound_to 6896
  151.0670  134.9774  159.8299 H   0  0  0  0  0  0  0  0  0  0  0  0  # atno 6908 bound_to 6896
  152.5407  134.2397  159.8910 H   0  0  0  0  0  0  0  0  0  0  0  0  # atno 6909 bound_to 6896
  146.2200  139.8521  142.8620 H   0  0  0  0  0  0  0  0  0  0  0  0  # atno 7974 bound_to 7965
  154.4746  140.0909  156.7231 H   0  0  0  0  0  0  0  0  0  0  0  0  # atno 8008 bound_to 7997
  155.4631  140.3461  155.4297 H   0  0  0  0  0  0  0  0  0  0  0  0  # atno 8009 bound_to 7997
  156.1096  140.1444  156.9345 H   0  0  0  0  0  0  0  0  0  0  0  0  # atno 8010 bound_to 7997
  140.6358  143.2481  151.5122 H   0  0  0  0  0  0  0  0  0  0  0  0  # atno 10167 bound_to 10162
  156.6790  130.5031  149.5977 H   0  0  0  0  0  0  0  0  0  0  0  0  # atno 10718 bound_to 10713
  153.5590  135.3524  155.2791 H   0  0  0  0  0  0  0  0  0  0  0  0  # atno 10763 bound_to 10752
  154.8697  135.4132  154.2852 H   0  0  0  0  0  0  0  0  0  0  0  0  # atno 10764 bound_to 10752
  153.3594  135.7059  153.6793 H   0  0  0  0  0  0  0  0  0  0  0  0  # atno 10765 bound_to 10752
  140.1515  134.4456  155.8379 H   0  0  0  0  0  0  0  0  0  0  0  0  # atno 11005 bound_to 11000
  145.2790  141.0133  143.3728 LP  0  0  0  0  0  0  0  0  0  0  0  0  # atno 17320 bound_to 7965
  144.9164  139.4465  143.6562 LP  0  0  0  0  0  0  0  0  0  0  0  0  # atno 17321 bound_to 7965
  139.5568  144.2255  152.1626 LP  0  0  0  0  0  0  0  0  0  0  0  0  # atno 17342 bound_to 10162
  140.1511  144.5114  150.6687 LP  0  0  0  0  0  0  0  0  0  0  0  0  # atno 17343 bound_to 10162
  156.1882  130.6543  151.1031 LP  0  0  0  0  0  0  0  0  0  0  0  0  # atno 17370 bound_to 10713
  157.7050  131.0760  150.6695 LP  0  0  0  0  0  0  0  0  0  0  0  0  # atno 17371 bound_to 10713
  141.2199  133.6874  156.7430 LP  0  0  0  0  0  0  0  0  0  0  0  0  # atno 17394 bound_to 11000
  140.2599  134.8475  157.3749 LP  0  0  0  0  0  0  0  0  0  0  0  0  # atno 17395 bound_to 11000

$$$$
