AV-unprocessed.smi:3029|AV-procd|sdf|11526|dock3
  -GOLD-   2272016463D 1   1.00000     0.00000
 Structure written by MMmdl.
 42 43  0  0  0  0  0  0  0  0  4 V2000
  147.3447  141.2468  154.3134 O   0  0  0  0  0  0  0  0  0  0  0  0
  148.3779  140.6072  154.5103 C   0  0  0  0  0  0  0  0  0  0  0  0
  149.5217  141.1749  155.2316 C   0  0  0  0  0  0  0  0  0  0  0  0
  150.6400  140.4587  155.4616 C   0  0  0  0  0  0  0  0  0  0  0  0
  150.7442  139.0886  154.9977 C   0  0  0  0  0  0  0  0  0  0  0  0
  151.9329  138.3050  155.2523 N   0  3  0  0  0  0  0  0  0  0  0  0
  151.9359  137.1147  154.9529 O   0  0  0  0  0  0  0  0  0  0  0  0
  152.9029  138.8563  155.7619 O   0  5  0  0  0  0  0  0  0  0  0  0
  149.6954  138.5730  154.3266 C   0  0  0  0  0  0  0  0  0  0  0  0
  148.5293  139.3203  154.0737 N   0  0  0  0  0  0  0  0  0  0  0  0
  147.4549  138.6494  153.3296 C   0  0  0  0  0  0  0  0  0  0  0  0
  146.6748  137.6737  154.2251 C   0  0  0  0  0  0  0  0  0  0  0  0
  147.0315  136.2753  153.9093 N   0  3  0  0  0  0  0  0  0  0  0  0
  145.8959  135.3235  153.8474 C   0  0  1  0  0  0  0  0  0  0  0  0
  144.8143  135.7989  152.8510 C   0  0  0  0  0  0  0  0  0  0  0  0
  145.3025  135.7338  151.3937 C   0  0  0  0  0  0  0  0  0  0  0  0
  145.7910  134.3231  151.0331 C   0  0  0  0  0  0  0  0  0  0  0  0
  146.8667  133.8311  152.0147 C   0  0  0  0  0  0  0  0  0  0  0  0
  146.3726  133.8932  153.4773 C   0  0  1  0  0  0  0  0  0  0  0  0
  147.3916  133.2959  154.4752 C   0  0  0  0  0  0  0  0  0  0  0  0
  148.4815  134.0572  154.5770 F   0  0  0  0  0  0  0  0  0  0  0  0
  146.8341  133.1791  155.6803 F   0  0  0  0  0  0  0  0  0  0  0  0
  147.7599  132.0815  154.0686 F   0  0  0  0  0  0  0  0  0  0  0  0
  149.4653  142.1939  155.5858 H   0  0  0  0  0  0  0  0  0  0  0  0
  151.4570  140.9198  155.9970 H   0  0  0  0  0  0  0  0  0  0  0  0
  149.6727  137.5626  153.9440 H   0  0  0  0  0  0  0  0  0  0  0  0
  146.7755  139.3859  152.8964 H   0  0  0  0  0  0  0  0  0  0  0  0
  147.8699  138.1121  152.4750 H   0  0  0  0  0  0  0  0  0  0  0  0
  146.8977  137.8747  155.2740 H   0  0  0  0  0  0  0  0  0  0  0  0
  145.6034  137.8196  154.0888 H   0  0  0  0  0  0  0  0  0  0  0  0
  147.5283  136.2470  153.0302 H   0  0  0  0  0  0  0  0  0  0  0  0
  145.4485  135.2795  154.8413 H   0  0  0  0  0  0  0  0  0  0  0  0
  143.9336  135.1636  152.9545 H   0  0  0  0  0  0  0  0  0  0  0  0
  144.4753  136.8073  153.0863 H   0  0  0  0  0  0  0  0  0  0  0  0
  144.4969  136.0287  150.7205 H   0  0  0  0  0  0  0  0  0  0  0  0
  146.1081  136.4526  151.2394 H   0  0  0  0  0  0  0  0  0  0  0  0
  144.9467  133.6327  151.0430 H   0  0  0  0  0  0  0  0  0  0  0  0
  146.1834  134.3136  150.0158 H   0  0  0  0  0  0  0  0  0  0  0  0
  147.1444  132.8089  151.7562 H   0  0  0  0  0  0  0  0  0  0  0  0
  147.7708  134.4296  151.8984 H   0  0  0  0  0  0  0  0  0  0  0  0
  145.4908  133.2522  153.5342 H   0  0  0  0  0  0  0  0  0  0  0  0
  147.6553  135.9559  154.6370 H   0  0  0  0  0  0  0  0  0  0  0  0
  1  2  2  0  0  0  0
  2 10  1  0  0  0  0
  2  3  1  0  0  0  0
  3  4  2  0  0  0  0
  3 24  1  0  0  0  0
  4  5  1  0  0  0  0
  4 25  1  0  0  0  0
  5  6  1  0  0  0  0
  5  9  2  0  0  0  0
  6  7  2  0  0  0  0
  6  8  1  0  0  0  0
  9 10  1  0  0  0  0
  9 26  1  0  0  0  0
 10 11  1  0  0  0  0
 11 12  1  0  0  0  0
 11 27  1  0  0  0  0
 11 28  1  0  0  0  0
 12 13  1  0  0  0  0
 12 29  1  0  0  0  0
 12 30  1  0  0  0  0
 13 14  1  0  0  0  0
 13 31  1  0  0  0  0
 13 42  1  0  0  0  0
 14 19  1  0  0  0  0
 14 15  1  0  0  0  0
 14 32  1  0  0  0  0
 15 16  1  0  0  0  0
 15 33  1  0  0  0  0
 15 34  1  0  0  0  0
 16 17  1  0  0  0  0
 16 35  1  0  0  0  0
 16 36  1  0  0  0  0
 17 18  1  0  0  0  0
 17 37  1  0  0  0  0
 17 38  1  0  0  0  0
 18 19  1  0  0  0  0
 18 39  1  0  0  0  0
 18 40  1  0  0  0  0
 19 20  1  0  0  0  0
 19 41  1  0  0  0  0
 20 21  1  0  0  0  0
 20 22  1  0  0  0  0
 20 23  1  0  0  0  0
M  CHG  1   6   1
M  CHG  1   8  -1
M  CHG  1  13   1
M  END
> <s_m_source_file>
AV-unprocessed.smi

> <i_m_source_file_index>
3029

> <i_lp_mmshare_version>
43012

> <i_f3d_flags>
0

> <s_epik_input>
Tz1jMVtjSF1bY0hdYyhbTitdKD1PKVtPLV0pW2NIXW4xW0NIMl1bQ0gyXVtOSF1bQ0BASF0yW0NIMl1bQ0gyXVtDSDJdW0NIMl1bQ0BIXTJDKEYpKEYpRg==

> <s_epik_cmdline>
J2VwaWtfcHl0aG9uJywgJy1waCcsICc3LjAnLCAnLXRuJywgJzgnLCAnLW1hJywgJzIwMCcsICctbWV0YWxfYmluZGluZycsICctaW1hZScsICc8aW5maWxlLm1hZT4nLCAnLW9tYWUnLCAnPG91dGZpbGUubWFlPic=

> <r_lp_tautomer_probability>
1

> <r_epik_Ionization_Penalty>
0.037386

> <r_epik_Ionization_Penalty_Charging>
0.037386

> <r_epik_Ionization_Penalty_Neutral>
0

> <r_epik_State_Penalty>
0.0312892

> <r_epik_Charging_Adjusted_Penalty>
0.0686752

> <i_epik_Tot_Q>
1

> <i_epik_Tot_abs_Q>
3

> <r_epik_Metal_State_Penalty>
0.0312892

> <b_epik_Metal_Only>
0

> <s_lp_Force_Field>
OPLS_2005

> <r_lp_Energy>
34.3569

> <b_lp_Chiralities_Consistent>
1

> <s_lp_Variant>
AV-unprocessed.smi:3029-2

> <Gold.Version>
5.8.1

> <Gold.Id.Protein>
6NUR|6NUR_protein|mol2

> <Gold.PLP.Fitness>
49.8077

> <Gold.PLP.PLP>
-36.9005

> <Gold.PLP.part.hbond>
-3.0000

> <Gold.PLP.part.metal>
0.0000

> <Gold.PLP.part.buried>
0.0126

> <Gold.PLP.part.nonpolar>
-33.2923

> <Gold.PLP.part.repulsive>
0.2595

> <Gold.PLP.ligand.clash>
0.0000

> <Gold.PLP.ligand.torsion>
0.9530

> <Gold.PLP.Chemscore.Hbond>
3.8800

> <Gold.PLP.Chemscore.CHOScore>
1.0000

> <Gold.PLP.Chemscore.Metal>
0.0000

> <Gold.Chemscore.Hbonds>
donor molecule, donor type, donor heavy atom, donor atom, acceptor molecule, acceptor atom, score
      L1  H    13    31       P1  7948  2.00
      P1  H  7997  8010       L1     8  1.00
      P1  H 10752 10765       L1     7  0.86
      L1  C     9    26       P1  7948  0.97

> <Gold.PLP.Chemscore.Internal.Correction>
0.1731

> <Gold.Rescore>
     Score         DG    S(hbond)    S(metal)    S(lipo)     H(rot)  DE(clash)    DE(int)     intcor
     15.20     -17.77       2.79        0.00      67.07       1.90       0.22       2.35       ----

> <Gold.Chemscore.Fitness>
15.1996

> <Gold.Chemscore.DG>
-17.7717

> <Gold.Chemscore.ZeroCoef>
-5.4800

> <Gold.Chemscore.Hbond>
2.7897

> <Gold.Chemscore.Metal>
0.0000

> <Gold.Chemscore.Lipo>
67.0745

> <Gold.Chemscore.Internal_Hbond>
0.0000

> <Gold.Chemscore.DEClash>
0.2214

> <Gold.Chemscore.DEInternal>
2.3507

> <Gold.Chemscore.Rot>
1.9037

> <Gold.Chemscore.Internal.Correction>
   9.000000E+99

> <Gold.Chemscore.Hbonds>
donor molecule, donor type, donor heavy atom, donor atom, acceptor molecule, acceptor atom, score
      L1  H    13    31       P1  7948  0.99
      P1  H  7997  8010       L1     8  0.92
      P1  H 10752 10765       L1     7  0.85

> <Gold.Chemscore.Hbond.Weighted>
-9.3176

> <Gold.Chemscore.Metal.Weighted>
-0.0000

> <Gold.Chemscore.Lipo.Weighted>
-7.8477

> <Gold.Chemscore.Internal_Hbond.Weighted>
0.0000

> <Gold.Chemscore.DEClash.Weighted>
0.2214

> <Gold.Chemscore.DEInternal.Weighted>
2.3507

> <Gold.Chemscore.Rot.Weighted>
4.8736

> <Gold.Chemscore.Internal.Correction.Weighted>
   9.000000E+99

> <Gold.Protein.RotatedTorsions>
[ 6907 6896 6895 6894 ] final  -89.64 input  -60.11 | X-H torsion
[ 7974 7965 7964 7962 ] final -141.54 input  175.53 | X-H torsion
[ 8008 7997 7996 7995 ] final  100.16 input   59.86 | X-H torsion
[ 10167 10162 10161 10158 ] final -122.82 input  -65.29 | X-H torsion
[ 10718 10713 10712 10709 ] final    3.66 input   66.30 | X-H torsion
[ 10763 10752 10751 10750 ] final  160.19 input  -60.55 | X-H torsion
[ 11005 11000 10999 10996 ] final  -81.22 input  -57.11 | X-H torsion

> <Gold.Protein.ActiveResidues>
 VAL166  LYS551  ARG553  GLY616  TRP617  ASP618  TYR619  PRO620  LYS621  CYS622 
 ASP623  PHE694  ASN695  SER759  ASP760  ASP761  ALA762  ILE779  LEU786  VAL792 
 PHE793  MET794  SER795  GLU796  ALA797  LYS798  CYS799  TRP800  GLU811  SER814 

> <Gold.Protein.RotatedAtoms>
  150.6875  134.2555  159.4527 H   0  0  0  0  0  0  0  0  0  0  0  0  # atno 6907 bound_to 6896
  152.0489  134.9663  160.0584 H   0  0  0  0  0  0  0  0  0  0  0  0  # atno 6908 bound_to 6896
  152.1135  133.4279  159.4679 H   0  0  0  0  0  0  0  0  0  0  0  0  # atno 6909 bound_to 6896
  144.8512  140.6067  143.5389 H   0  0  0  0  0  0  0  0  0  0  0  0  # atno 7974 bound_to 7965
  156.1176  140.3217  155.8161 H   0  0  0  0  0  0  0  0  0  0  0  0  # atno 8008 bound_to 7997
  155.4562  140.0536  157.3013 H   0  0  0  0  0  0  0  0  0  0  0  0  # atno 8009 bound_to 7997
  154.4804  140.2050  155.9792 H   0  0  0  0  0  0  0  0  0  0  0  0  # atno 8010 bound_to 7997
  140.0101  143.5450  152.2267 H   0  0  0  0  0  0  0  0  0  0  0  0  # atno 10167 bound_to 10162
  156.8812  130.5654  149.5653 H   0  0  0  0  0  0  0  0  0  0  0  0  # atno 10718 bound_to 10713
  154.2436  135.2774  155.2844 H   0  0  0  0  0  0  0  0  0  0  0  0  # atno 10763 bound_to 10752
  154.5524  135.5671  153.6937 H   0  0  0  0  0  0  0  0  0  0  0  0  # atno 10764 bound_to 10752
  152.9995  135.6278  154.2581 H   0  0  0  0  0  0  0  0  0  0  0  0  # atno 10765 bound_to 10752
  141.1667  133.7186  156.8390 H   0  0  0  0  0  0  0  0  0  0  0  0  # atno 11005 bound_to 11000
  145.4497  139.1525  143.3925 LP  0  0  0  0  0  0  0  0  0  0  0  0  # atno 17320 bound_to 7965
  146.2786  140.4622  142.8785 LP  0  0  0  0  0  0  0  0  0  0  0  0  # atno 17321 bound_to 7965
  139.6211  144.7629  151.2739 LP  0  0  0  0  0  0  0  0  0  0  0  0  # atno 17342 bound_to 10162
  140.7385  143.6647  150.8133 LP  0  0  0  0  0  0  0  0  0  0  0  0  # atno 17343 bound_to 10162
  156.0676  130.5716  150.9320 LP  0  0  0  0  0  0  0  0  0  0  0  0  # atno 17370 bound_to 10713
  157.6139  131.0934  150.8745 LP  0  0  0  0  0  0  0  0  0  0  0  0  # atno 17371 bound_to 10713
  140.1997  134.8906  157.3154 LP  0  0  0  0  0  0  0  0  0  0  0  0  # atno 17394 bound_to 11000
  140.2201  134.4034  155.7570 LP  0  0  0  0  0  0  0  0  0  0  0  0  # atno 17395 bound_to 11000

$$$$
