AV-unprocessed.smi:2167|AV-procd|sdf|8816|dock7
  -GOLD-   2272012 03D 1   1.00000     0.00000
 Structure written by MMmdl.
 41 42  0  0  0  0  0  0  0  0  1 V2000
  144.5540  143.7350  155.7438 C   0  0  0  0  0  0  0  0  0  0  0  0
  145.5276  142.7492  156.4057 C   0  0  0  0  0  0  0  0  0  0  0  0
  146.2623  143.3463  157.6144 C   0  0  0  0  0  0  0  0  0  0  0  0
  146.4730  142.1435  155.4168 C   0  0  0  0  0  0  0  0  0  0  0  0
  147.4433  141.2861  155.7478 N   0  0  0  0  0  0  0  0  0  0  0  0
  148.1865  140.8562  154.6435 C   0  0  0  0  0  0  0  0  0  0  0  0
  149.3142  139.8838  154.8302 C   0  0  0  0  0  0  0  0  0  0  0  0
  150.4150  140.5111  155.6861 C   0  0  0  0  0  0  0  0  0  0  0  0
  151.5591  140.6104  155.2428 O   0  0  0  0  0  0  0  0  0  0  0  0
  150.0553  140.9320  156.9101 N   0  0  0  0  0  0  0  0  0  0  0  0
  150.9427  141.5644  157.8884 C   0  0  2  0  0  0  0  0  0  0  0  0
  151.3478  142.9460  157.3250 C   0  0  0  0  0  0  0  0  0  0  0  0
  151.8086  143.9440  158.4017 C   0  0  0  0  0  0  0  0  0  0  0  0
  153.1009  143.5563  159.1368 C   0  0  0  0  0  0  0  0  0  0  0  0
  152.9920  142.2435  159.9313 C   0  0  0  0  0  0  0  0  0  0  0  0
  153.0785  141.0714  159.0701 N   0  0  0  0  0  0  0  0  0  0  0  0
  152.2148  140.7124  158.1082 C   0  0  0  0  0  0  0  0  0  0  0  0
  152.4377  139.7224  157.4114 O   0  0  0  0  0  0  0  0  0  0  0  0
  147.7672  141.4135  153.4611 C   0  0  0  0  0  0  0  0  0  0  0  0
  146.4169  142.4896  153.6918 S   0  0  0  0  0  0  0  0  0  0  0  0
  143.9850  143.2502  154.9497 H   0  0  0  0  0  0  0  0  0  0  0  0
  145.0833  144.5817  155.3053 H   0  0  0  0  0  0  0  0  0  0  0  0
  143.8405  144.1286  156.4681 H   0  0  0  0  0  0  0  0  0  0  0  0
  144.9198  141.9292  156.7906 H   0  0  0  0  0  0  0  0  0  0  0  0
  146.8787  142.5950  158.1088 H   0  0  0  0  0  0  0  0  0  0  0  0
  145.5577  143.7325  158.3513 H   0  0  0  0  0  0  0  0  0  0  0  0
  146.9142  144.1681  157.3159 H   0  0  0  0  0  0  0  0  0  0  0  0
  148.9586  138.9727  155.3134 H   0  0  0  0  0  0  0  0  0  0  0  0
  149.7311  139.5787  153.8693 H   0  0  0  0  0  0  0  0  0  0  0  0
  149.0914  140.8099  157.1849 H   0  0  0  0  0  0  0  0  0  0  0  0
  150.4042  141.6852  158.8301 H   0  0  0  0  0  0  0  0  0  0  0  0
  152.1119  142.8453  156.5520 H   0  0  0  0  0  0  0  0  0  0  0  0
  150.4864  143.3924  156.8251 H   0  0  0  0  0  0  0  0  0  0  0  0
  151.9582  144.9163  157.9311 H   0  0  0  0  0  0  0  0  0  0  0  0
  151.0077  144.0874  159.1281 H   0  0  0  0  0  0  0  0  0  0  0  0
  153.9336  143.5034  158.4343 H   0  0  0  0  0  0  0  0  0  0  0  0
  153.3478  144.3594  159.8318 H   0  0  0  0  0  0  0  0  0  0  0  0
  153.8204  142.1830  160.6373 H   0  0  0  0  0  0  0  0  0  0  0  0
  152.0788  142.2152  160.5272 H   0  0  0  0  0  0  0  0  0  0  0  0
  153.8918  140.4862  159.1957 H   0  0  0  0  0  0  0  0  0  0  0  0
  148.1672  141.2522  152.4709 H   0  0  0  0  0  0  0  0  0  0  0  0
  1  2  1  0  0  0  0
  1 21  1  0  0  0  0
  1 22  1  0  0  0  0
  1 23  1  0  0  0  0
  2  3  1  0  0  0  0
  2  4  1  0  0  0  0
  2 24  1  0  0  0  0
  3 25  1  0  0  0  0
  3 26  1  0  0  0  0
  3 27  1  0  0  0  0
  4 20  1  0  0  0  0
  4  5  2  0  0  0  0
  5  6  1  0  0  0  0
  6  7  1  0  0  0  0
  6 19  2  0  0  0  0
  7  8  1  0  0  0  0
  7 28  1  0  0  0  0
  7 29  1  0  0  0  0
  8  9  2  0  0  0  0
  8 10  1  0  0  0  0
 10 11  1  0  0  0  0
 10 30  1  0  0  0  0
 11 17  1  0  0  0  0
 11 12  1  0  0  0  0
 11 31  1  0  0  0  0
 12 13  1  0  0  0  0
 12 32  1  0  0  0  0
 12 33  1  0  0  0  0
 13 14  1  0  0  0  0
 13 34  1  0  0  0  0
 13 35  1  0  0  0  0
 14 15  1  0  0  0  0
 14 36  1  0  0  0  0
 14 37  1  0  0  0  0
 15 16  1  0  0  0  0
 15 38  1  0  0  0  0
 15 39  1  0  0  0  0
 16 17  1  0  0  0  0
 16 40  1  0  0  0  0
 17 18  2  0  0  0  0
 19 20  1  0  0  0  0
 19 41  1  0  0  0  0
M  END
> <s_m_source_file>
AV-unprocessed.smi

> <i_m_source_file_index>
2167

> <i_lp_mmshare_version>
43012

> <i_f3d_flags>
0

> <s_epik_input>
W0NIM11bQ0hdKFtDSDNdKWMxbmMoW2NIXXMxKVtDSDJdQyg9TylbTkhdW0NAQEhdMltDSDJdW0NIMl1bQ0gyXVtDSDJdW05IXUMyPU8=

> <s_epik_cmdline>
J2VwaWtfcHl0aG9uJywgJy1waCcsICc3LjAnLCAnLXRuJywgJzgnLCAnLW1hJywgJzIwMCcsICctbWV0YWxfYmluZGluZycsICctaW1hZScsICc8aW5maWxlLm1hZT4nLCAnLW9tYWUnLCAnPG91dGZpbGUubWFlPic=

> <r_lp_tautomer_probability>
1

> <r_epik_Ionization_Penalty>
3.1619e-05

> <r_epik_Ionization_Penalty_Charging>
0

> <r_epik_Ionization_Penalty_Neutral>
3.1619e-05

> <r_epik_State_Penalty>
-0

> <r_epik_Charging_Adjusted_Penalty>
0

> <i_epik_Tot_Q>
0

> <i_epik_Tot_abs_Q>
0

> <r_epik_Metal_State_Penalty>
-0

> <b_epik_Metal_Only>
0

> <s_lp_Force_Field>
OPLS_2005

> <r_lp_Energy>
2.42102

> <b_lp_Chiralities_Consistent>
1

> <s_lp_Variant>
AV-unprocessed.smi:2167-1

> <Gold.Version>
5.8.1

> <Gold.Id.Protein>
6NUR|6NUR_protein|mol2

> <Gold.PLP.Fitness>
45.3319

> <Gold.PLP.PLP>
-37.3944

> <Gold.PLP.part.hbond>
-2.0000

> <Gold.PLP.part.metal>
0.0000

> <Gold.PLP.part.buried>
-3.6590

> <Gold.PLP.part.nonpolar>
-31.0183

> <Gold.PLP.part.repulsive>
0.2021

> <Gold.PLP.ligand.clash>
0.0000

> <Gold.PLP.ligand.torsion>
0.1845

> <Gold.PLP.Chemscore.Hbond>
1.7433

> <Gold.PLP.Chemscore.CHOScore>
1.0000

> <Gold.PLP.Chemscore.Metal>
0.0000

> <Gold.Chemscore.Hbonds>
donor molecule, donor type, donor heavy atom, donor atom, acceptor molecule, acceptor atom, score
      P1  H  7989  7998       L1     9  0.78
      P1  H  7997  8010       L1    18  0.80
      L1  C    19    41       P1  7957  1.00

> <Gold.PLP.Chemscore.Internal.Correction>
0.0769

> <Gold.Rescore>
     Score         DG    S(hbond)    S(metal)    S(lipo)     H(rot)  DE(clash)    DE(int)     intcor
     11.98     -16.60       1.49        0.00      86.95       1.57       0.10       4.52       ----

> <Gold.Chemscore.Fitness>
11.9802

> <Gold.Chemscore.DG>
-16.5982

> <Gold.Chemscore.ZeroCoef>
-5.4800

> <Gold.Chemscore.Hbond>
1.4887

> <Gold.Chemscore.Metal>
0.0000

> <Gold.Chemscore.Lipo>
86.9532

> <Gold.Chemscore.Internal_Hbond>
0.0000

> <Gold.Chemscore.DEClash>
0.1013

> <Gold.Chemscore.DEInternal>
4.5168

> <Gold.Chemscore.Rot>
1.5733

> <Gold.Chemscore.Internal.Correction>
   9.000000E+99

> <Gold.Chemscore.Hbonds>
donor molecule, donor type, donor heavy atom, donor atom, acceptor molecule, acceptor atom, score
      P1  H  7989  7998       L1     9  0.70
      P1  H  7997  8010       L1    18  0.27

> <Gold.Chemscore.Hbond.Weighted>
-4.9722

> <Gold.Chemscore.Metal.Weighted>
-0.0000

> <Gold.Chemscore.Lipo.Weighted>
-10.1735

> <Gold.Chemscore.Internal_Hbond.Weighted>
0.0000

> <Gold.Chemscore.DEClash.Weighted>
0.1013

> <Gold.Chemscore.DEInternal.Weighted>
4.5168

> <Gold.Chemscore.Rot.Weighted>
4.0276

> <Gold.Chemscore.Internal.Correction.Weighted>
   9.000000E+99

> <Gold.Protein.RotatedTorsions>
[ 6907 6896 6895 6894 ] final -157.84 input  -60.11 | X-H torsion
[ 7974 7965 7964 7962 ] final -175.74 input  175.53 | X-H torsion
[ 8008 7997 7996 7995 ] final   52.75 input   59.86 | X-H torsion
[ 10167 10162 10161 10158 ] final   98.67 input  -65.29 | X-H torsion
[ 10718 10713 10712 10709 ] final   28.91 input   66.30 | X-H torsion
[ 10763 10752 10751 10750 ] final   52.27 input  -60.55 | X-H torsion
[ 11005 11000 10999 10996 ] final   -8.22 input  -57.11 | X-H torsion

> <Gold.Protein.ActiveResidues>
 VAL166  LYS551  ARG553  GLY616  TRP617  ASP618  TYR619  PRO620  LYS621  CYS622 
 ASP623  PHE694  ASN695  SER759  ASP760  ASP761  ALA762  ILE779  LEU786  VAL792 
 PHE793  MET794  SER795  GLU796  ALA797  LYS798  CYS799  TRP800  GLU811  SER814 

> <Gold.Protein.RotatedAtoms>
  151.3090  133.4089  159.2645 H   0  0  0  0  0  0  0  0  0  0  0  0  # atno 6907 bound_to 6896
  151.0130  134.9412  159.8028 H   0  0  0  0  0  0  0  0  0  0  0  0  # atno 6908 bound_to 6896
  152.5305  134.3055  159.9146 H   0  0  0  0  0  0  0  0  0  0  0  0  # atno 6909 bound_to 6896
  144.7127  140.1276  143.6401 H   0  0  0  0  0  0  0  0  0  0  0  0  # atno 7974 bound_to 7965
  155.4569  140.3460  155.4308 H   0  0  0  0  0  0  0  0  0  0  0  0  # atno 8008 bound_to 7997
  156.1185  140.1480  156.9268 H   0  0  0  0  0  0  0  0  0  0  0  0  # atno 8009 bound_to 7997
  154.4806  140.0871  156.7348 H   0  0  0  0  0  0  0  0  0  0  0  0  # atno 8010 bound_to 7997
  139.7687  144.6930  151.0187 H   0  0  0  0  0  0  0  0  0  0  0  0  # atno 10167 bound_to 10162
  157.2397  130.7063  149.6352 H   0  0  0  0  0  0  0  0  0  0  0  0  # atno 10718 bound_to 10713
  152.9788  135.5818  154.4552 H   0  0  0  0  0  0  0  0  0  0  0  0  # atno 10763 bound_to 10752
  154.4135  135.2770  155.2023 H   0  0  0  0  0  0  0  0  0  0  0  0  # atno 10764 bound_to 10752
  154.3803  135.6148  153.5841 H   0  0  0  0  0  0  0  0  0  0  0  0  # atno 10765 bound_to 10752
  140.7211  133.8827  155.8822 H   0  0  0  0  0  0  0  0  0  0  0  0  # atno 11005 bound_to 11000
  145.9316  139.2610  143.1322 LP  0  0  0  0  0  0  0  0  0  0  0  0  # atno 17320 bound_to 7965
  145.9517  140.8903  143.0256 LP  0  0  0  0  0  0  0  0  0  0  0  0  # atno 17321 bound_to 7965
  140.7812  143.4613  151.0273 LP  0  0  0  0  0  0  0  0  0  0  0  0  # atno 17342 bound_to 10162
  139.8298  143.7707  152.3179 LP  0  0  0  0  0  0  0  0  0  0  0  0  # atno 17343 bound_to 10162
  155.9671  130.4462  150.5532 LP  0  0  0  0  0  0  0  0  0  0  0  0  # atno 17370 bound_to 10713
  157.3392  131.0713  151.1801 LP  0  0  0  0  0  0  0  0  0  0  0  0  # atno 17371 bound_to 10713
  141.0002  134.1160  157.4324 LP  0  0  0  0  0  0  0  0  0  0  0  0  # atno 17394 bound_to 11000
  139.8848  135.0066  156.6392 LP  0  0  0  0  0  0  0  0  0  0  0  0  # atno 17395 bound_to 11000

$$$$
