AV-unprocessed.smi:837|AV-procd|sdf|3898|dock8
  -GOLD-   22720 1353D 1   1.00000     0.00000
 Structure written by MMmdl.
 50 52  0  0  0  0  0  0  0  0  2 V2000
  146.9038  132.8944  153.4286 C   0  0  0  0  0  0  0  0  0  0  0  0
  145.6984  132.6227  152.5032 C   0  0  2  0  0  0  0  0  0  0  0  0
  146.1734  132.1353  151.1170 C   0  0  0  0  0  0  0  0  0  0  0  0
  144.9907  131.7690  150.2073 C   0  0  0  0  0  0  0  0  0  0  0  0
  144.0137  132.9430  150.0540 C   0  0  0  0  0  0  0  0  0  0  0  0
  143.5256  133.4433  151.4250 C   0  0  0  0  0  0  0  0  0  0  0  0
  144.6843  133.8052  152.3880 C   0  0  1  0  0  0  0  0  0  0  0  0
  144.1444  134.1599  153.6893 N   0  0  0  0  0  0  0  0  0  0  0  0
  144.4015  135.4253  154.0408 C   0  0  0  0  0  0  0  0  0  0  0  0
  144.0593  135.9510  155.0993 O   0  0  0  0  0  0  0  0  0  0  0  0
  145.1008  136.0054  153.0500 N   0  0  0  0  0  0  0  0  0  0  0  0
  145.6099  137.3816  153.1004 C   0  0  0  0  0  0  0  0  0  0  0  0
  146.6257  137.5943  154.2310 C   0  0  0  0  0  0  0  0  0  0  0  0
  146.2620  137.6304  155.4071 O   0  0  0  0  0  0  0  0  0  0  0  0
  147.9054  137.7344  153.8548 N   0  0  0  0  0  0  0  0  0  0  0  0
  149.0262  137.9766  154.7591 C   0  0  0  0  0  0  0  0  0  0  0  0
  150.0381  139.0036  154.2094 C   0  0  0  0  0  0  0  0  0  0  0  0
  150.4269  140.0743  155.2148 C   0  0  0  0  0  0  0  0  0  0  0  0
  151.3566  139.7949  156.2415 C   0  0  0  0  0  0  0  0  0  0  0  0
  151.6885  140.8048  157.1680 C   0  0  0  0  0  0  0  0  0  0  0  0
  151.0864  142.0735  157.0451 C   0  0  0  0  0  0  0  0  0  0  0  0
  150.2039  142.3052  156.0484 N   0  3  0  0  0  0  0  0  0  0  0  0
  149.8582  141.3641  155.1424 C   0  0  0  0  0  0  0  0  0  0  0  0
  145.3233  135.1517  152.0409 C   0  0  0  0  0  0  0  0  0  0  0  0
  145.9470  135.3845  151.0054 O   0  0  0  0  0  0  0  0  0  0  0  0
  147.5438  133.6868  153.0395 H   0  0  0  0  0  0  0  0  0  0  0  0
  147.5210  132.0017  153.5322 H   0  0  0  0  0  0  0  0  0  0  0  0
  146.5872  133.1833  154.4308 H   0  0  0  0  0  0  0  0  0  0  0  0
  145.1560  131.7909  152.9558 H   0  0  0  0  0  0  0  0  0  0  0  0
  146.7857  132.8975  150.6347 H   0  0  0  0  0  0  0  0  0  0  0  0
  146.8173  131.2627  151.2332 H   0  0  0  0  0  0  0  0  0  0  0  0
  145.3574  131.4624  149.2273 H   0  0  0  0  0  0  0  0  0  0  0  0
  144.4643  130.9084  150.6224 H   0  0  0  0  0  0  0  0  0  0  0  0
  144.4946  133.7525  149.5049 H   0  0  0  0  0  0  0  0  0  0  0  0
  143.1597  132.6350  149.4501 H   0  0  0  0  0  0  0  0  0  0  0  0
  142.8665  134.3009  151.2802 H   0  0  0  0  0  0  0  0  0  0  0  0
  142.9081  132.6686  151.8822 H   0  0  0  0  0  0  0  0  0  0  0  0
  143.6340  133.5043  154.2628 H   0  0  0  0  0  0  0  0  0  0  0  0
  146.0831  137.6512  152.1547 H   0  0  0  0  0  0  0  0  0  0  0  0
  144.7744  138.0738  153.2225 H   0  0  0  0  0  0  0  0  0  0  0  0
  148.1173  137.6803  152.8689 H   0  0  0  0  0  0  0  0  0  0  0  0
  148.6588  138.2904  155.7373 H   0  0  0  0  0  0  0  0  0  0  0  0
  149.5288  137.0213  154.9119 H   0  0  0  0  0  0  0  0  0  0  0  0
  150.9399  138.4899  153.8740 H   0  0  0  0  0  0  0  0  0  0  0  0
  149.6246  139.4854  153.3227 H   0  0  0  0  0  0  0  0  0  0  0  0
  151.8048  138.8152  156.3258 H   0  0  0  0  0  0  0  0  0  0  0  0
  152.3924  140.6065  157.9633 H   0  0  0  0  0  0  0  0  0  0  0  0
  151.2818  142.9029  157.7091 H   0  0  0  0  0  0  0  0  0  0  0  0
  149.1397  141.6683  154.3952 H   0  0  0  0  0  0  0  0  0  0  0  0
  149.7795  143.2304  155.9774 H   0  0  0  0  0  0  0  0  0  0  0  0
  1  2  1  0  0  0  0
  1 26  1  0  0  0  0
  1 27  1  0  0  0  0
  1 28  1  0  0  0  0
  2  7  1  0  0  0  0
  2  3  1  0  0  0  0
  2 29  1  0  0  0  0
  3  4  1  0  0  0  0
  3 30  1  0  0  0  0
  3 31  1  0  0  0  0
  4  5  1  0  0  0  0
  4 32  1  0  0  0  0
  4 33  1  0  0  0  0
  5  6  1  0  0  0  0
  5 34  1  0  0  0  0
  5 35  1  0  0  0  0
  6  7  1  0  0  0  0
  6 36  1  0  0  0  0
  6 37  1  0  0  0  0
  7 24  1  0  0  0  0
  7  8  1  0  0  0  0
  8  9  1  0  0  0  0
  8 38  1  0  0  0  0
  9 10  2  0  0  0  0
  9 11  1  0  0  0  0
 11 12  1  0  0  0  0
 11 24  1  0  0  0  0
 12 13  1  0  0  0  0
 12 39  1  0  0  0  0
 12 40  1  0  0  0  0
 13 14  2  0  0  0  0
 13 15  1  0  0  0  0
 15 16  1  0  0  0  0
 15 41  1  0  0  0  0
 16 17  1  0  0  0  0
 16 42  1  0  0  0  0
 16 43  1  0  0  0  0
 17 18  1  0  0  0  0
 17 44  1  0  0  0  0
 17 45  1  0  0  0  0
 18 23  1  0  0  0  0
 18 19  2  0  0  0  0
 19 20  1  0  0  0  0
 19 46  1  0  0  0  0
 20 21  2  0  0  0  0
 20 47  1  0  0  0  0
 21 22  1  0  0  0  0
 21 48  1  0  0  0  0
 22 23  2  0  0  0  0
 22 50  1  0  0  0  0
 23 49  1  0  0  0  0
 24 25  2  0  0  0  0
M  CHG  1  22   1
M  END
> <s_m_source_file>
AV-unprocessed.smi

> <i_m_source_file_index>
837

> <i_lp_mmshare_version>
43012

> <i_f3d_flags>
0

> <s_epik_input>
W0NIMl0xW0NIMl1bQ0gyXVtDSDJdW0NAQEhdKFtDSDNdKVtDQEBdMTJbTkhdQyg9TylOKEMyPU8pW0NIMl1DKD1PKVtOSF1bQ0gyXVtDSDJdYzNbY0hdW2NIXVtjSF1uW2NIXTM=

> <s_epik_cmdline>
J2VwaWtfcHl0aG9uJywgJy1waCcsICc3LjAnLCAnLXRuJywgJzgnLCAnLW1hJywgJzIwMCcsICctbWV0YWxfYmluZGluZycsICctaW1hZScsICc8aW5maWxlLm1hZT4nLCAnLW9tYWUnLCAnPG91dGZpbGUubWFlPic=

> <r_lp_tautomer_probability>
1

> <r_epik_Ionization_Penalty>
2.28139

> <r_epik_Ionization_Penalty_Charging>
2.28135

> <r_epik_Ionization_Penalty_Neutral>
4.65525e-05

> <r_epik_State_Penalty>
2.43066

> <r_epik_Charging_Adjusted_Penalty>
4.71201

> <i_epik_Tot_Q>
1

> <i_epik_Tot_abs_Q>
1

> <r_epik_Metal_State_Penalty>
2.4646

> <b_epik_Metal_Only>
0

> <s_lp_Force_Field>
OPLS_2005

> <r_lp_Energy>
25.0324

> <b_lp_Chiralities_Consistent>
1

> <s_lp_Variant>
AV-unprocessed.smi:837-7

> <Gold.Version>
5.8.1

> <Gold.Id.Protein>
6NUR|6NUR_protein|mol2

> <Gold.PLP.Fitness>
46.3922

> <Gold.PLP.PLP>
-37.3349

> <Gold.PLP.part.hbond>
-3.0000

> <Gold.PLP.part.metal>
0.0000

> <Gold.PLP.part.buried>
-4.0485

> <Gold.PLP.part.nonpolar>
-30.6631

> <Gold.PLP.part.repulsive>
0.4258

> <Gold.PLP.ligand.clash>
0.0000

> <Gold.PLP.ligand.torsion>
0.8759

> <Gold.PLP.Chemscore.Hbond>
3.5920

> <Gold.PLP.Chemscore.CHOScore>
0.0000

> <Gold.PLP.Chemscore.Metal>
0.0000

> <Gold.Chemscore.Hbonds>
donor molecule, donor type, donor heavy atom, donor atom, acceptor molecule, acceptor atom, score
      L1  H     8    38       P1 10957  0.93
      L1  H    15    41       P1  7948  0.61
      L1  H    22    50       P1  8028  2.00

> <Gold.PLP.Chemscore.Internal.Correction>
0.0332

> <Gold.Rescore>
     Score         DG    S(hbond)    S(metal)    S(lipo)     H(rot)  DE(clash)    DE(int)     intcor
     18.07     -20.30       2.48        0.00      98.72       1.96       0.18       2.04       ----

> <Gold.Chemscore.Fitness>
18.0742

> <Gold.Chemscore.DG>
-20.3000

> <Gold.Chemscore.ZeroCoef>
-5.4800

> <Gold.Chemscore.Hbond>
2.4841

> <Gold.Chemscore.Metal>
0.0000

> <Gold.Chemscore.Lipo>
98.7224

> <Gold.Chemscore.Internal_Hbond>
0.0000

> <Gold.Chemscore.DEClash>
0.1840

> <Gold.Chemscore.DEInternal>
2.0419

> <Gold.Chemscore.Rot>
1.9638

> <Gold.Chemscore.Internal.Correction>
   9.000000E+99

> <Gold.Chemscore.Hbonds>
donor molecule, donor type, donor heavy atom, donor atom, acceptor molecule, acceptor atom, score
      L1  H     8    38       P1 10957  0.88
      L1  H    15    41       P1  7948  0.60
      L1  H    22    50       P1  8028  1.00

> <Gold.Chemscore.Hbond.Weighted>
-8.2969

> <Gold.Chemscore.Metal.Weighted>
-0.0000

> <Gold.Chemscore.Lipo.Weighted>
-11.5505

> <Gold.Chemscore.Internal_Hbond.Weighted>
0.0000

> <Gold.Chemscore.DEClash.Weighted>
0.1840

> <Gold.Chemscore.DEInternal.Weighted>
2.0419

> <Gold.Chemscore.Rot.Weighted>
5.0274

> <Gold.Chemscore.Internal.Correction.Weighted>
   9.000000E+99

> <Gold.Protein.RotatedTorsions>
[ 6907 6896 6895 6894 ] final  109.23 input  -60.11 | X-H torsion
[ 7974 7965 7964 7962 ] final -136.54 input  175.53 | X-H torsion
[ 8008 7997 7996 7995 ] final   87.15 input   59.86 | X-H torsion
[ 10167 10162 10161 10158 ] final -133.17 input  -65.29 | X-H torsion
[ 10718 10713 10712 10709 ] final   92.23 input   66.30 | X-H torsion
[ 10763 10752 10751 10750 ] final  -51.02 input  -60.55 | X-H torsion
[ 11005 11000 10999 10996 ] final    2.83 input  -57.11 | X-H torsion

> <Gold.Protein.ActiveResidues>
 VAL166  LYS551  ARG553  GLY616  TRP617  ASP618  TYR619  PRO620  LYS621  CYS622 
 ASP623  PHE694  ASN695  SER759  ASP760  ASP761  ALA762  ILE779  LEU786  VAL792 
 PHE793  MET794  SER795  GLU796  ALA797  LYS798  CYS799  TRP800  GLU811  SER814 

> <Gold.Protein.RotatedAtoms>
  152.5077  133.8974  159.7423 H   0  0  0  0  0  0  0  0  0  0  0  0  # atno 6907 bound_to 6896
  150.9398  133.6661  159.2800 H   0  0  0  0  0  0  0  0  0  0  0  0  # atno 6908 bound_to 6896
  151.3976  135.0971  159.9598 H   0  0  0  0  0  0  0  0  0  0  0  0  # atno 6909 bound_to 6896
  144.8918  140.6652  143.5140 H   0  0  0  0  0  0  0  0  0  0  0  0  # atno 7974 bound_to 7965
  155.9718  140.3385  155.6582 H   0  0  0  0  0  0  0  0  0  0  0  0  # atno 8008 bound_to 7997
  155.6665  140.0722  157.2554 H   0  0  0  0  0  0  0  0  0  0  0  0  # atno 8009 bound_to 7997
  154.4168  140.1699  156.1820 H   0  0  0  0  0  0  0  0  0  0  0  0  # atno 8010 bound_to 7997
  139.9010  143.6608  152.2595 H   0  0  0  0  0  0  0  0  0  0  0  0  # atno 10167 bound_to 10162
  157.6959  131.0435  150.3849 H   0  0  0  0  0  0  0  0  0  0  0  0  # atno 10718 bound_to 10713
  154.1198  135.6536  153.4901 H   0  0  0  0  0  0  0  0  0  0  0  0  # atno 10763 bound_to 10752
  153.0229  135.5267  154.7108 H   0  0  0  0  0  0  0  0  0  0  0  0  # atno 10764 bound_to 10752
  154.6312  135.2976  155.0184 H   0  0  0  0  0  0  0  0  0  0  0  0  # atno 10765 bound_to 10752
  140.6000  133.9845  155.8127 H   0  0  0  0  0  0  0  0  0  0  0  0  # atno 11005 bound_to 11000
  145.3769  139.1645  143.4301 LP  0  0  0  0  0  0  0  0  0  0  0  0  # atno 17320 bound_to 7965
  146.3058  140.3847  142.8688 LP  0  0  0  0  0  0  0  0  0  0  0  0  # atno 17321 bound_to 7965
  139.7025  144.7633  151.1248 LP  0  0  0  0  0  0  0  0  0  0  0  0  # atno 17342 bound_to 10162
  140.7707  143.5438  150.9282 LP  0  0  0  0  0  0  0  0  0  0  0  0  # atno 17343 bound_to 10162
  156.4259  130.3962  149.6793 LP  0  0  0  0  0  0  0  0  0  0  0  0  # atno 17370 bound_to 10713
  156.4027  130.7683  151.2692 LP  0  0  0  0  0  0  0  0  0  0  0  0  # atno 17371 bound_to 10713
  141.0879  133.9963  157.3285 LP  0  0  0  0  0  0  0  0  0  0  0  0  # atno 17394 bound_to 11000
  139.9237  135.0201  156.8156 LP  0  0  0  0  0  0  0  0  0  0  0  0  # atno 17395 bound_to 11000

$$$$
