AV-unprocessed.smi:2597|AV-procd|sdf|10171|dock2
  -GOLD-   2272014183D 1   1.00000     0.00000
 Structure written by MMmdl.
 31 32  0  0  0  0  0  0  0  0  2 V2000
  151.5966  144.4253  156.8888 N   0  3  0  0  0  0  0  0  0  0  0  0
  151.4916  143.8603  158.2474 C   0  0  2  0  0  0  0  0  0  0  0  0
  152.0130  144.8748  159.2830 C   0  0  0  0  0  0  0  0  0  0  0  0
  151.9466  144.3095  160.7105 C   0  0  0  0  0  0  0  0  0  0  0  0
  152.7136  142.9833  160.8174 C   0  0  0  0  0  0  0  0  0  0  0  0
  152.1959  141.9606  159.7949 C   0  0  0  0  0  0  0  0  0  0  0  0
  152.2575  142.5160  158.3567 C   0  0  1  0  0  0  0  0  0  0  0  0
  151.7806  141.5202  157.4049 N   0  0  0  0  0  0  0  0  0  0  0  0
  150.6846  141.5978  156.5705 C   0  0  0  0  0  0  0  0  0  0  0  0
  150.7214  140.4183  155.8819 C   0  0  0  0  0  0  0  0  0  0  0  0
  149.7946  139.9093  154.8207 C   0  0  0  0  0  0  0  0  0  0  0  0
  149.8176  140.8563  153.7748 O   0  0  0  0  0  0  0  0  0  0  0  0
  151.8224  139.6826  156.3167 N   0  0  0  0  0  0  0  0  0  0  0  0
  152.4579  140.3593  157.2195 N   0  0  0  0  0  0  0  0  0  0  0  0
  150.4320  143.6907  158.4440 H   0  0  0  0  0  0  0  0  0  0  0  0
  153.3061  142.7047  158.1192 H   0  0  0  0  0  0  0  0  0  0  0  0
  152.3055  143.9281  156.3688 H   0  0  0  0  0  0  0  0  0  0  0  0
  151.8456  145.4024  156.9477 H   0  0  0  0  0  0  0  0  0  0  0  0
  153.0442  145.1450  159.0511 H   0  0  0  0  0  0  0  0  0  0  0  0
  151.4326  145.7968  159.2295 H   0  0  0  0  0  0  0  0  0  0  0  0
  152.3561  145.0324  161.4167 H   0  0  0  0  0  0  0  0  0  0  0  0
  150.9053  144.1543  160.9960 H   0  0  0  0  0  0  0  0  0  0  0  0
  153.7772  143.1600  160.6527 H   0  0  0  0  0  0  0  0  0  0  0  0
  152.6196  142.5798  161.8261 H   0  0  0  0  0  0  0  0  0  0  0  0
  152.7824  141.0437  159.8663 H   0  0  0  0  0  0  0  0  0  0  0  0
  151.1699  141.6890  160.0473 H   0  0  0  0  0  0  0  0  0  0  0  0
  150.0122  142.4422  156.5331 H   0  0  0  0  0  0  0  0  0  0  0  0
  150.1104  138.9373  154.4405 H   0  0  0  0  0  0  0  0  0  0  0  0
  148.7778  139.8059  155.1994 H   0  0  0  0  0  0  0  0  0  0  0  0
  149.2725  140.5396  153.0709 H   0  0  0  0  0  0  0  0  0  0  0  0
  150.7075  144.3330  156.4177 H   0  0  0  0  0  0  0  0  0  0  0  0
  1  2  1  0  0  0  0
  1 17  1  0  0  0  0
  1 18  1  0  0  0  0
  1 31  1  0  0  0  0
  2 15  1  0  0  0  0
  2  7  1  0  0  0  0
  2  3  1  0  0  0  0
  3  4  1  0  0  0  0
  3 19  1  0  0  0  0
  3 20  1  0  0  0  0
  4  5  1  0  0  0  0
  4 21  1  0  0  0  0
  4 22  1  0  0  0  0
  5  6  1  0  0  0  0
  5 23  1  0  0  0  0
  5 24  1  0  0  0  0
  6  7  1  0  0  0  0
  6 25  1  0  0  0  0
  6 26  1  0  0  0  0
  7 16  1  0  0  0  0
  7  8  1  0  0  0  0
  8 14  1  0  0  0  0
  8  9  1  0  0  0  0
  9 10  2  0  0  0  0
  9 27  1  0  0  0  0
 10 11  1  0  0  0  0
 10 13  1  0  0  0  0
 11 12  1  0  0  0  0
 11 28  1  0  0  0  0
 11 29  1  0  0  0  0
 12 30  1  0  0  0  0
 13 14  2  0  0  0  0
M  CHG  1   1   1
M  END
> <s_m_source_file>
AV-unprocessed.smi

> <i_m_source_file_index>
2597

> <i_lp_mmshare_version>
43012

> <i_f3d_flags>
0

> <s_epik_input>
W05IMl1bQ0BIXTFbQ0gyXVtDSDJdW0NIMl1bQ0gyXVtDQEhdMW4yW2NIXWMobm4yKVtDSDJdW09IXQ==

> <s_epik_cmdline>
J2VwaWtfcHl0aG9uJywgJy1waCcsICc3LjAnLCAnLXRuJywgJzgnLCAnLW1hJywgJzIwMCcsICctbWV0YWxfYmluZGluZycsICctaW1hZScsICc8aW5maWxlLm1hZT4nLCAnLW9tYWUnLCAnPG91dGZpbGUubWFlPic=

> <r_lp_tautomer_probability>
1

> <r_epik_Ionization_Penalty>
0.014346

> <r_epik_Ionization_Penalty_Charging>
0.014316

> <r_epik_Ionization_Penalty_Neutral>
3.00097e-05

> <r_epik_State_Penalty>
0.0111909

> <r_epik_Charging_Adjusted_Penalty>
0.0255069

> <i_epik_Tot_Q>
1

> <i_epik_Tot_abs_Q>
1

> <r_epik_Metal_State_Penalty>
0.011192

> <b_epik_Metal_Only>
0

> <s_lp_Force_Field>
OPLS_2005

> <r_lp_Energy>
13.7949

> <b_lp_Chiralities_Consistent>
1

> <s_lp_Variant>
AV-unprocessed.smi:2597-2

> <Gold.Version>
5.8.1

> <Gold.Id.Protein>
6NUR|6NUR_protein|mol2

> <Gold.PLP.Fitness>
47.0872

> <Gold.PLP.PLP>
-33.6292

> <Gold.PLP.part.hbond>
-4.8190

> <Gold.PLP.part.metal>
0.0000

> <Gold.PLP.part.buried>
-2.1273

> <Gold.PLP.part.nonpolar>
-25.3329

> <Gold.PLP.part.repulsive>
0.0478

> <Gold.PLP.ligand.clash>
0.4014

> <Gold.PLP.ligand.torsion>
0.0929

> <Gold.PLP.Chemscore.Hbond>
4.1035

> <Gold.PLP.Chemscore.CHOScore>
0.5689

> <Gold.PLP.Chemscore.Metal>
0.0000

> <Gold.Chemscore.Hbonds>
donor molecule, donor type, donor heavy atom, donor atom, acceptor molecule, acceptor atom, score
      L1  H     1    31       P1  8028  2.00
      L1  H    12    30       P1  7957  0.69
      P1  H  7989  7998       L1    12  0.41
      P1  H  7997  8009       L1    14  0.96
      L1  C     9    27       P1  8028  0.61

> <Gold.PLP.Chemscore.Internal.Correction>
0.0282

> <Gold.Rescore>
     Score         DG    S(hbond)    S(metal)    S(lipo)     H(rot)  DE(clash)    DE(int)     intcor
     18.49     -20.03       2.69        0.00      88.17       1.86       0.34       1.20       ----

> <Gold.Chemscore.Fitness>
18.4898

> <Gold.Chemscore.DG>
-20.0313

> <Gold.Chemscore.ZeroCoef>
-5.4800

> <Gold.Chemscore.Hbond>
2.6899

> <Gold.Chemscore.Metal>
0.0000

> <Gold.Chemscore.Lipo>
88.1706

> <Gold.Chemscore.Internal_Hbond>
0.0000

> <Gold.Chemscore.DEClash>
0.3396

> <Gold.Chemscore.DEInternal>
1.2020

> <Gold.Chemscore.Rot>
1.8551

> <Gold.Chemscore.Internal.Correction>
   9.000000E+99

> <Gold.Chemscore.Hbonds>
donor molecule, donor type, donor heavy atom, donor atom, acceptor molecule, acceptor atom, score
      L1  H     1    31       P1  8028  0.97
      L1  H    12    30       P1  7957  0.65
      P1  H  7989  7998       L1    12  0.09
      P1  H  7997  8009       L1    14  0.35

> <Gold.Chemscore.Hbond.Weighted>
-8.9843

> <Gold.Chemscore.Metal.Weighted>
-0.0000

> <Gold.Chemscore.Lipo.Weighted>
-10.3160

> <Gold.Chemscore.Internal_Hbond.Weighted>
0.0000

> <Gold.Chemscore.DEClash.Weighted>
0.3396

> <Gold.Chemscore.DEInternal.Weighted>
1.2020

> <Gold.Chemscore.Rot.Weighted>
4.7489

> <Gold.Chemscore.Internal.Correction.Weighted>
   9.000000E+99

> <Gold.Protein.RotatedTorsions>
[ 6907 6896 6895 6894 ] final  -99.62 input  -60.11 | X-H torsion
[ 7974 7965 7964 7962 ] final  -45.04 input  175.53 | X-H torsion
[ 8008 7997 7996 7995 ] final  177.74 input   59.86 | X-H torsion
[ 10167 10162 10161 10158 ] final  -75.12 input  -65.29 | X-H torsion
[ 10718 10713 10712 10709 ] final   82.50 input   66.30 | X-H torsion
[ 10763 10752 10751 10750 ] final  -97.11 input  -60.55 | X-H torsion
[ 11005 11000 10999 10996 ] final  -34.68 input  -57.11 | X-H torsion

> <Gold.Protein.ActiveResidues>
 VAL166  LYS551  ARG553  GLY616  TRP617  ASP618  TYR619  PRO620  LYS621  CYS622 
 ASP623  PHE694  ASN695  SER759  ASP760  ASP761  ALA762  ILE779  LEU786  VAL792 
 PHE793  MET794  SER795  GLU796  ALA797  LYS798  CYS799  TRP800  GLU811  SER814 

> <Gold.Protein.RotatedAtoms>
  150.7086  134.1013  159.3966 H   0  0  0  0  0  0  0  0  0  0  0  0  # atno 6907 bound_to 6896
  151.8999  135.0380  160.0515 H   0  0  0  0  0  0  0  0  0  0  0  0  # atno 6908 bound_to 6896
  152.2422  133.5110  159.5313 H   0  0  0  0  0  0  0  0  0  0  0  0  # atno 6909 bound_to 6896
  145.9861  140.7232  142.9340 H   0  0  0  0  0  0  0  0  0  0  0  0  # atno 7974 bound_to 7965
  156.0624  140.1351  156.9926 H   0  0  0  0  0  0  0  0  0  0  0  0  # atno 8008 bound_to 7997
  154.4488  140.0989  156.6607 H   0  0  0  0  0  0  0  0  0  0  0  0  # atno 8009 bound_to 7997
  155.5357  140.3459  155.4438 H   0  0  0  0  0  0  0  0  0  0  0  0  # atno 8010 bound_to 7997
  140.4970  143.2368  151.7815 H   0  0  0  0  0  0  0  0  0  0  0  0  # atno 10167 bound_to 10162
  157.6858  131.0050  150.2385 H   0  0  0  0  0  0  0  0  0  0  0  0  # atno 10718 bound_to 10713
  154.7299  135.5058  153.8947 H   0  0  0  0  0  0  0  0  0  0  0  0  # atno 10763 bound_to 10752
  153.0940  135.6667  153.9807 H   0  0  0  0  0  0  0  0  0  0  0  0  # atno 10764 bound_to 10752
  153.9611  135.3048  155.3412 H   0  0  0  0  0  0  0  0  0  0  0  0  # atno 10765 bound_to 10752
  140.9735  133.7096  156.1564 H   0  0  0  0  0  0  0  0  0  0  0  0  # atno 11005 bound_to 11000
  144.6875  140.2990  143.7266 LP  0  0  0  0  0  0  0  0  0  0  0  0  # atno 17320 bound_to 7965
  145.7699  139.1853  143.2218 LP  0  0  0  0  0  0  0  0  0  0  0  0  # atno 17321 bound_to 7965
  139.4863  144.4573  151.9582 LP  0  0  0  0  0  0  0  0  0  0  0  0  # atno 17342 bound_to 10162
  140.3661  144.2912  150.5926 LP  0  0  0  0  0  0  0  0  0  0  0  0  # atno 17343 bound_to 10162
  156.3004  130.3757  149.7756 LP  0  0  0  0  0  0  0  0  0  0  0  0  # atno 17370 bound_to 10713
  156.5388  130.8290  151.3262 LP  0  0  0  0  0  0  0  0  0  0  0  0  # atno 17371 bound_to 10713
  140.7293  134.4272  157.5567 LP  0  0  0  0  0  0  0  0  0  0  0  0  # atno 17394 bound_to 11000
  139.8921  134.8762  156.2285 LP  0  0  0  0  0  0  0  0  0  0  0  0  # atno 17395 bound_to 11000

$$$$
