AV-unprocessed.smi:218|AV-procd|sdf|1672|dock10
  -GOLD-   2262020 93D 1   1.00000     0.00000
 Structure written by MMmdl.
 54 57  0  0  0  0  0  0  0  0  1 V2000
  153.9924  141.0656  160.0688 C   0  0  0  0  0  0  0  0  0  0  0  0
  153.7706  142.3026  160.9473 C   0  0  0  0  0  0  0  0  0  0  0  0
  153.9289  141.9618  162.4391 C   0  0  0  0  0  0  0  0  0  0  0  0
  152.4447  142.7657  160.6842 O   0  0  0  0  0  0  0  0  0  0  0  0
  152.1033  143.2142  159.4228 C   0  0  0  0  0  0  0  0  0  0  0  0
  151.5589  142.2881  158.5099 C   0  0  0  0  0  0  0  0  0  0  0  0
  151.2076  142.7303  157.2186 C   0  0  0  0  0  0  0  0  0  0  0  0
  150.6031  141.7711  156.2160 C   0  0  0  0  0  0  0  0  0  0  0  0
  150.5608  140.4017  156.7085 N   0  0  0  0  0  0  0  0  0  0  0  0
  151.0103  139.3902  155.9365 C   0  0  0  0  0  0  0  0  0  0  0  0
  151.9349  139.6080  154.9646 N   0  0  0  0  0  0  0  0  0  0  0  0
  152.3642  138.5905  154.2114 C   0  0  0  0  0  0  0  0  0  0  0  0
  152.0053  137.3055  154.2611 N   0  0  0  0  0  0  0  0  0  0  0  0
  151.0756  137.0846  155.2354 C   0  0  0  0  0  0  0  0  0  0  0  0
  150.5335  138.0654  156.1102 C   0  0  0  0  0  0  0  0  0  0  0  0
  149.6189  137.4727  156.9706 N   0  0  0  0  0  0  0  0  0  0  0  0
  149.6229  136.2147  156.6185 C   0  0  0  0  0  0  0  0  0  0  0  0
  150.4739  135.8936  155.5804 N   0  0  0  0  0  0  0  0  0  0  0  0
  150.7270  134.5669  154.9229 C   0  0  2  0  0  0  0  0  0  0  0  0
  149.6430  134.2867  154.0943 O   0  0  0  0  0  0  0  0  0  0  0  0
  148.7313  133.3683  154.7043 C   0  0  1  0  0  0  0  0  0  0  0  0
  148.6298  132.1622  153.7471 C   0  0  0  0  0  0  0  0  0  0  0  0
  148.2972  132.6088  152.4497 O   0  0  0  0  0  0  0  0  0  0  0  0
  149.3273  133.0679  156.0991 C   0  0  1  0  0  0  0  0  0  0  0  0
  149.1716  131.7230  156.5114 O   0  0  0  0  0  0  0  0  0  0  0  0
  150.7965  133.4262  155.9466 C   0  0  2  0  0  0  0  0  0  0  0  0
  151.3685  133.8007  157.1864 O   0  0  0  0  0  0  0  0  0  0  0  0
  151.4156  144.0838  156.8874 C   0  0  0  0  0  0  0  0  0  0  0  0
  151.9677  144.9338  157.8653 C   0  0  0  0  0  0  0  0  0  0  0  0
  152.3059  144.5169  159.1040 N   0  0  0  0  0  0  0  0  0  0  0  0
  151.6429  134.7101  154.3488 H   0  0  0  0  0  0  0  0  0  0  0  0
  147.7490  133.8282  154.8219 H   0  0  0  0  0  0  0  0  0  0  0  0
  148.8567  133.7212  156.8358 H   0  0  0  0  0  0  0  0  0  0  0  0
  151.3564  132.6045  155.4977 H   0  0  0  0  0  0  0  0  0  0  0  0
  154.9938  140.6578  160.2097 H   0  0  0  0  0  0  0  0  0  0  0  0
  153.8815  141.3135  159.0130 H   0  0  0  0  0  0  0  0  0  0  0  0
  153.2745  140.2792  160.3033 H   0  0  0  0  0  0  0  0  0  0  0  0
  154.5147  143.0443  160.6526 H   0  0  0  0  0  0  0  0  0  0  0  0
  154.9235  141.5664  162.6461 H   0  0  0  0  0  0  0  0  0  0  0  0
  153.2013  141.2113  162.7493 H   0  0  0  0  0  0  0  0  0  0  0  0
  153.7889  142.8381  163.0715 H   0  0  0  0  0  0  0  0  0  0  0  0
  151.4112  141.2576  158.7985 H   0  0  0  0  0  0  0  0  0  0  0  0
  149.5938  142.0993  155.9640 H   0  0  0  0  0  0  0  0  0  0  0  0
  151.1928  141.8104  155.2992 H   0  0  0  0  0  0  0  0  0  0  0  0
  150.1523  140.2678  157.6224 H   0  0  0  0  0  0  0  0  0  0  0  0
  153.0997  138.8422  153.4614 H   0  0  0  0  0  0  0  0  0  0  0  0
  148.9956  135.4882  157.1127 H   0  0  0  0  0  0  0  0  0  0  0  0
  149.5571  131.5888  153.7261 H   0  0  0  0  0  0  0  0  0  0  0  0
  147.8323  131.4837  154.0491 H   0  0  0  0  0  0  0  0  0  0  0  0
  148.6571  132.0023  151.8207 H   0  0  0  0  0  0  0  0  0  0  0  0
  149.2627  131.6828  157.4511 H   0  0  0  0  0  0  0  0  0  0  0  0
  152.2594  134.0769  157.0352 H   0  0  0  0  0  0  0  0  0  0  0  0
  151.1567  144.4652  155.9105 H   0  0  0  0  0  0  0  0  0  0  0  0
  152.1403  145.9773  157.6476 H   0  0  0  0  0  0  0  0  0  0  0  0
  1  2  1  0  0  0  0
  1 35  1  0  0  0  0
  1 36  1  0  0  0  0
  1 37  1  0  0  0  0
  2  3  1  0  0  0  0
  2  4  1  0  0  0  0
  2 38  1  0  0  0  0
  3 39  1  0  0  0  0
  3 40  1  0  0  0  0
  3 41  1  0  0  0  0
  4  5  1  0  0  0  0
  5 30  1  0  0  0  0
  5  6  2  0  0  0  0
  6  7  1  0  0  0  0
  6 42  1  0  0  0  0
  7  8  1  0  0  0  0
  7 28  2  0  0  0  0
  8  9  1  0  0  0  0
  8 43  1  0  0  0  0
  8 44  1  0  0  0  0
  9 10  1  0  0  0  0
  9 45  1  0  0  0  0
 10 15  1  0  0  0  0
 10 11  2  0  0  0  0
 11 12  1  0  0  0  0
 12 13  2  0  0  0  0
 12 46  1  0  0  0  0
 13 14  1  0  0  0  0
 14 18  1  0  0  0  0
 14 15  2  0  0  0  0
 15 16  1  0  0  0  0
 16 17  2  0  0  0  0
 17 18  1  0  0  0  0
 17 47  1  0  0  0  0
 18 19  1  0  0  0  0
 19 31  1  0  0  0  0
 19 26  1  0  0  0  0
 19 20  1  0  0  0  0
 20 21  1  0  0  0  0
 21 32  1  0  0  0  0
 21 22  1  0  0  0  0
 21 24  1  0  0  0  0
 22 23  1  0  0  0  0
 22 48  1  0  0  0  0
 22 49  1  0  0  0  0
 23 50  1  0  0  0  0
 24 33  1  0  0  0  0
 24 25  1  0  0  0  0
 24 26  1  0  0  0  0
 25 51  1  0  0  0  0
 26 34  1  0  0  0  0
 26 27  1  0  0  0  0
 27 52  1  0  0  0  0
 28 29  1  0  0  0  0
 28 53  1  0  0  0  0
 29 30  2  0  0  0  0
 29 54  1  0  0  0  0
M  END
> <s_m_source_file>
AV-unprocessed.smi

> <i_m_source_file_index>
218

> <i_lp_mmshare_version>
43012

> <i_f3d_flags>
0

> <s_epik_input>
W0NIM11bQ0hdKFtDSDNdKU9jMVtjSF1jKFtjSF1bY0hdbjEpW0NIMl1bTkhdYyhuW2NIXW4yKWMoYzIzKW5bY0hdbjNbQ0BASF00T1tDQEhdKFtDSDJdW09IXSlbQ0BASF0oW09IXSlbQ0BIXTRbT0hd

> <s_epik_cmdline>
J2VwaWtfcHl0aG9uJywgJy1waCcsICc3LjAnLCAnLXRuJywgJzgnLCAnLW1hJywgJzIwMCcsICctbWV0YWxfYmluZGluZycsICctaW1hZScsICc8aW5maWxlLm1hZT4nLCAnLW9tYWUnLCAnPG91dGZpbGUubWFlPic=

> <r_lp_tautomer_probability>
1

> <r_epik_Ionization_Penalty>
0.00457014

> <r_epik_Ionization_Penalty_Charging>
0

> <r_epik_Ionization_Penalty_Neutral>
0.00457014

> <r_epik_State_Penalty>
-0

> <r_epik_Charging_Adjusted_Penalty>
0

> <i_epik_Tot_Q>
0

> <i_epik_Tot_abs_Q>
0

> <r_epik_Metal_State_Penalty>
-0

> <b_epik_Metal_Only>
0

> <s_epik_Chemistry_Notes>
This compound contains an acetal/aminal-like group ( X-CH(R)-Y where X, Y are N, S, or O) that may be acid/base labile, releasing an aldehyde.

> <s_lp_Force_Field>
OPLS_2005

> <r_lp_Energy>
43.2146

> <b_lp_Chiralities_Consistent>
1

> <s_lp_Variant>
AV-unprocessed.smi:218-11

> <Gold.Version>
5.8.1

> <Gold.Id.Protein>
6NUR|6NUR_protein|mol2

> <Gold.PLP.Fitness>
56.7241

> <Gold.PLP.PLP>
-48.6820

> <Gold.PLP.part.hbond>
-4.0000

> <Gold.PLP.part.metal>
0.0000

> <Gold.PLP.part.buried>
-9.2391

> <Gold.PLP.part.nonpolar>
-36.4540

> <Gold.PLP.part.repulsive>
1.2493

> <Gold.PLP.ligand.clash>
0.0000

> <Gold.PLP.ligand.torsion>
1.1011

> <Gold.PLP.Chemscore.Hbond>
3.3547

> <Gold.PLP.Chemscore.CHOScore>
0.0000

> <Gold.PLP.Chemscore.Metal>
0.0000

> <Gold.Chemscore.Hbonds>
donor molecule, donor type, donor heavy atom, donor atom, acceptor molecule, acceptor atom, score
      L1  H    23    50       P1 10747  1.00
      P1  H  6896  6907       L1    27  0.44
      P1  H  7989  7998       L1    11  0.77
      P1  H 10752 10765       L1    13  0.96

> <Gold.PLP.Chemscore.Internal.Correction>
0.1803

> <Gold.Rescore>
     Score         DG    S(hbond)    S(metal)    S(lipo)     H(rot)  DE(clash)    DE(int)     intcor
      9.23     -11.50       2.22        0.00      95.37       4.90       0.07       2.21       ----

> <Gold.Chemscore.Fitness>
9.2262

> <Gold.Chemscore.DG>
-11.5018

> <Gold.Chemscore.ZeroCoef>
-5.4800

> <Gold.Chemscore.Hbond>
2.2202

> <Gold.Chemscore.Metal>
0.0000

> <Gold.Chemscore.Lipo>
95.3676

> <Gold.Chemscore.Internal_Hbond>
0.0000

> <Gold.Chemscore.DEClash>
0.0699

> <Gold.Chemscore.DEInternal>
2.2057

> <Gold.Chemscore.Rot>
4.9029

> <Gold.Chemscore.Internal.Correction>
   9.000000E+99

> <Gold.Chemscore.Hbonds>
donor molecule, donor type, donor heavy atom, donor atom, acceptor molecule, acceptor atom, score
      L1  H    23    50       P1 10747  0.99
      P1  H  6896  6907       L1    27  0.29
      P1  H  7989  7998       L1    11  0.11
      P1  H 10752 10765       L1    13  0.32

> <Gold.Chemscore.Hbond.Weighted>
-7.4153

> <Gold.Chemscore.Metal.Weighted>
-0.0000

> <Gold.Chemscore.Lipo.Weighted>
-11.1580

> <Gold.Chemscore.Internal_Hbond.Weighted>
0.0000

> <Gold.Chemscore.DEClash.Weighted>
0.0699

> <Gold.Chemscore.DEInternal.Weighted>
2.2057

> <Gold.Chemscore.Rot.Weighted>
12.5515

> <Gold.Chemscore.Internal.Correction.Weighted>
   9.000000E+99

> <Gold.Protein.RotatedTorsions>
[ 6907 6896 6895 6894 ] final -139.79 input  -60.11 | X-H torsion
[ 7974 7965 7964 7962 ] final -107.56 input  175.53 | X-H torsion
[ 8008 7997 7996 7995 ] final   54.91 input   59.86 | X-H torsion
[ 10167 10162 10161 10158 ] final  142.21 input  -65.29 | X-H torsion
[ 10718 10713 10712 10709 ] final  -22.81 input   66.30 | X-H torsion
[ 10763 10752 10751 10750 ] final  160.08 input  -60.55 | X-H torsion
[ 11005 11000 10999 10996 ] final -160.44 input  -57.11 | X-H torsion

> <Gold.Protein.ActiveResidues>
 VAL166  LYS551  ARG553  GLY616  TRP617  ASP618  TYR619  PRO620  LYS621  CYS622 
 ASP623  PHE694  ASN695  SER759  ASP760  ASP761  ALA762  ILE779  LEU786  VAL792 
 PHE793  MET794  SER795  GLU796  ALA797  LYS798  CYS799  TRP800  GLU811  SER814 

> <Gold.Protein.RotatedAtoms>
  151.0523  133.5613  159.2640 H   0  0  0  0  0  0  0  0  0  0  0  0  # atno 6907 bound_to 6896
  151.2619  135.0656  159.9111 H   0  0  0  0  0  0  0  0  0  0  0  0  # atno 6908 bound_to 6896
  152.5384  134.0268  159.8060 H   0  0  0  0  0  0  0  0  0  0  0  0  # atno 6909 bound_to 6896
  145.2039  140.9068  143.3354 H   0  0  0  0  0  0  0  0  0  0  0  0  # atno 7974 bound_to 7965
  155.4924  140.3472  155.4357 H   0  0  0  0  0  0  0  0  0  0  0  0  # atno 8008 bound_to 7997
  156.0968  140.1425  156.9549 H   0  0  0  0  0  0  0  0  0  0  0  0  # atno 8009 bound_to 7997
  154.4668  140.0914  156.7019 H   0  0  0  0  0  0  0  0  0  0  0  0  # atno 8010 bound_to 7997
  139.5000  144.6122  151.6246 H   0  0  0  0  0  0  0  0  0  0  0  0  # atno 10167 bound_to 10162
  156.4996  130.4585  149.6709 H   0  0  0  0  0  0  0  0  0  0  0  0  # atno 10718 bound_to 10713
  154.2419  135.2774  155.2850 H   0  0  0  0  0  0  0  0  0  0  0  0  # atno 10763 bound_to 10752
  154.5538  135.5667  153.6949 H   0  0  0  0  0  0  0  0  0  0  0  0  # atno 10764 bound_to 10752
  152.9998  135.6281  154.2563 H   0  0  0  0  0  0  0  0  0  0  0  0  # atno 10765 bound_to 10752
  140.6315  134.4646  157.5229 H   0  0  0  0  0  0  0  0  0  0  0  0  # atno 11005 bound_to 11000
  144.9921  139.3679  143.6209 LP  0  0  0  0  0  0  0  0  0  0  0  0  # atno 17320 bound_to 7965
  146.3412  139.9109  142.8780 LP  0  0  0  0  0  0  0  0  0  0  0  0  # atno 17321 bound_to 7965
  140.5799  143.9963  150.6262 LP  0  0  0  0  0  0  0  0  0  0  0  0  # atno 17342 bound_to 10162
  140.3109  143.3199  152.0880 LP  0  0  0  0  0  0  0  0  0  0  0  0  # atno 17343 bound_to 10162
  156.3346  130.7350  151.2285 LP  0  0  0  0  0  0  0  0  0  0  0  0  # atno 17370 bound_to 10713
  157.7464  131.0420  150.4675 LP  0  0  0  0  0  0  0  0  0  0  0  0  # atno 17371 bound_to 10713
  139.9114  134.8336  156.1514 LP  0  0  0  0  0  0  0  0  0  0  0  0  # atno 17394 bound_to 11000
  141.0672  133.6813  156.2068 LP  0  0  0  0  0  0  0  0  0  0  0  0  # atno 17395 bound_to 11000

$$$$
