AV-unprocessed.smi:3269|AV-procd|sdf|12511|dock1
  -GOLD-   2272018423D 1   1.00000     0.00000
 Structure written by MMmdl.
 39 40  0  0  0  0  0  0  0  0  1 V2000
  148.4928  141.6702  154.4068 C   0  0  0  0  0  0  0  0  0  0  0  0
  149.6007  141.0531  155.2117 C   0  0  0  0  0  0  0  0  0  0  0  0
  150.5193  140.3233  154.6010 N   0  0  0  0  0  0  0  0  0  0  0  0
  151.3575  139.9339  155.5822 N   0  0  0  0  0  0  0  0  0  0  0  0
  152.5064  139.1129  155.2526 C   0  0  0  0  0  0  0  0  0  0  0  0
  150.9645  140.4135  156.8164 C   0  0  0  0  0  0  0  0  0  0  0  0
  151.7365  140.1243  158.0635 C   0  0  0  0  0  0  0  0  0  0  0  0
  149.8248  141.1474  156.6166 C   0  0  0  0  0  0  0  0  0  0  0  0
  148.9941  141.9001  157.6254 C   0  0  0  0  0  0  0  0  0  0  0  0
  149.8791  142.9175  158.3441 C   0  0  0  0  0  0  0  0  0  0  0  0
  149.6837  143.1752  159.5319 O   0  0  0  0  0  0  0  0  0  0  0  0
  150.8250  143.5121  157.6018 N   0  0  0  0  0  0  0  0  0  0  0  0
  151.6682  144.6149  158.0437 C   0  0  0  0  0  0  0  0  0  0  0  0
  152.5348  144.1919  159.2409 C   0  0  1  0  0  0  0  0  0  0  0  0
  151.8989  144.4664  160.6018 C   0  0  0  0  0  0  0  0  0  0  0  0
  152.5436  143.4308  161.5121 C   0  0  0  0  0  0  0  0  0  0  0  0
  153.2134  142.4464  160.5483 C   0  0  0  0  0  0  0  0  0  0  0  0
  152.7051  142.7834  159.2663 O   0  0  0  0  0  0  0  0  0  0  0  0
  148.4035  142.7353  154.6210 H   0  0  0  0  0  0  0  0  0  0  0  0
  147.5361  141.2032  154.6403 H   0  0  0  0  0  0  0  0  0  0  0  0
  148.6620  141.5628  153.3346 H   0  0  0  0  0  0  0  0  0  0  0  0
  152.4503  138.1685  155.7946 H   0  0  0  0  0  0  0  0  0  0  0  0
  153.4213  139.6337  155.5358 H   0  0  0  0  0  0  0  0  0  0  0  0
  152.5368  138.9034  154.1823 H   0  0  0  0  0  0  0  0  0  0  0  0
  151.2011  140.4646  158.9494 H   0  0  0  0  0  0  0  0  0  0  0  0
  152.7031  140.6276  158.0432 H   0  0  0  0  0  0  0  0  0  0  0  0
  151.9128  139.0544  158.1739 H   0  0  0  0  0  0  0  0  0  0  0  0
  148.1685  142.4296  157.1488 H   0  0  0  0  0  0  0  0  0  0  0  0
  148.5388  141.2256  158.3517 H   0  0  0  0  0  0  0  0  0  0  0  0
  150.9125  143.2338  156.6353 H   0  0  0  0  0  0  0  0  0  0  0  0
  152.2965  144.9615  157.2215 H   0  0  0  0  0  0  0  0  0  0  0  0
  151.0258  145.4516  158.3194 H   0  0  0  0  0  0  0  0  0  0  0  0
  153.5166  144.6678  159.1932 H   0  0  0  0  0  0  0  0  0  0  0  0
  152.0613  145.4901  160.9408 H   0  0  0  0  0  0  0  0  0  0  0  0
  150.8227  144.2933  160.5583 H   0  0  0  0  0  0  0  0  0  0  0  0
  153.2817  143.8820  162.1761 H   0  0  0  0  0  0  0  0  0  0  0  0
  151.7919  142.9389  162.1301 H   0  0  0  0  0  0  0  0  0  0  0  0
  154.2960  142.5831  160.5502 H   0  0  0  0  0  0  0  0  0  0  0  0
  153.0014  141.4060  160.7951 H   0  0  0  0  0  0  0  0  0  0  0  0
  1  2  1  0  0  0  0
  1 19  1  0  0  0  0
  1 20  1  0  0  0  0
  1 21  1  0  0  0  0
  2  8  1  0  0  0  0
  2  3  2  0  0  0  0
  3  4  1  0  0  0  0
  4  5  1  0  0  0  0
  4  6  1  0  0  0  0
  5 22  1  0  0  0  0
  5 23  1  0  0  0  0
  5 24  1  0  0  0  0
  6  7  1  0  0  0  0
  6  8  2  0  0  0  0
  7 25  1  0  0  0  0
  7 26  1  0  0  0  0
  7 27  1  0  0  0  0
  8  9  1  0  0  0  0
  9 10  1  0  0  0  0
  9 28  1  0  0  0  0
  9 29  1  0  0  0  0
 10 11  2  0  0  0  0
 10 12  1  0  0  0  0
 12 13  1  0  0  0  0
 12 30  1  0  0  0  0
 13 14  1  0  0  0  0
 13 31  1  0  0  0  0
 13 32  1  0  0  0  0
 14 18  1  0  0  0  0
 14 15  1  0  0  0  0
 14 33  1  0  0  0  0
 15 16  1  0  0  0  0
 15 34  1  0  0  0  0
 15 35  1  0  0  0  0
 16 17  1  0  0  0  0
 16 36  1  0  0  0  0
 16 37  1  0  0  0  0
 17 18  1  0  0  0  0
 17 38  1  0  0  0  0
 17 39  1  0  0  0  0
M  END
> <s_m_source_file>
AV-unprocessed.smi

> <i_m_source_file_index>
3269

> <i_lp_mmshare_version>
43012

> <i_f3d_flags>
0

> <s_epik_input>
W0NIM11jMW5uKFtDSDNdKWMoW0NIM10pYzFbQ0gyXUMoPU8pW05IXVtDSDJdW0NAQEhdMltDSDJdW0NIMl1bQ0gyXU8y

> <s_epik_cmdline>
J2VwaWtfcHl0aG9uJywgJy1waCcsICc3LjAnLCAnLXRuJywgJzgnLCAnLW1hJywgJzIwMCcsICctbWV0YWxfYmluZGluZycsICctaW1hZScsICc8aW5maWxlLm1hZT4nLCAnLW9tYWUnLCAnPG91dGZpbGUubWFlPic=

> <r_lp_tautomer_probability>
1

> <r_epik_Ionization_Penalty>
0.00306713

> <r_epik_Ionization_Penalty_Charging>
0

> <r_epik_Ionization_Penalty_Neutral>
0.00306713

> <r_epik_State_Penalty>
0.00215672

> <r_epik_Charging_Adjusted_Penalty>
0.00215672

> <i_epik_Tot_Q>
0

> <i_epik_Tot_abs_Q>
0

> <r_epik_Metal_State_Penalty>
-0

> <b_epik_Metal_Only>
0

> <s_lp_Force_Field>
OPLS_2005

> <r_lp_Energy>
10.8306

> <b_lp_Chiralities_Consistent>
1

> <s_lp_Variant>
AV-unprocessed.smi:3269-2

> <Gold.Version>
5.8.1

> <Gold.Id.Protein>
6NUR|6NUR_protein|mol2

> <Gold.PLP.Fitness>
47.2320

> <Gold.PLP.PLP>
-45.7483

> <Gold.PLP.part.hbond>
-3.0000

> <Gold.PLP.part.metal>
0.0000

> <Gold.PLP.part.buried>
-5.5330

> <Gold.PLP.part.nonpolar>
-37.1539

> <Gold.PLP.part.repulsive>
0.1962

> <Gold.PLP.ligand.clash>
0.0000

> <Gold.PLP.ligand.torsion>
0.8048

> <Gold.PLP.Chemscore.Hbond>
1.0208

> <Gold.PLP.Chemscore.CHOScore>
0.0000

> <Gold.PLP.Chemscore.Metal>
0.0000

> <Gold.Chemscore.Hbonds>
donor molecule, donor type, donor heavy atom, donor atom, acceptor molecule, acceptor atom, score
      P1  H  6933  6944       L1    11  0.02
      P1  H  7989  7998       L1     3  1.00

> <Gold.PLP.Chemscore.Internal.Correction>
0.0309

> <Gold.Rescore>
     Score         DG    S(hbond)    S(metal)    S(lipo)     H(rot)  DE(clash)    DE(int)     intcor
     14.81     -16.92       0.97        0.00     102.99       1.50       0.00       2.11       ----

> <Gold.Chemscore.Fitness>
14.8060

> <Gold.Chemscore.DG>
-16.9186

> <Gold.Chemscore.ZeroCoef>
-5.4800

> <Gold.Chemscore.Hbond>
0.9659

> <Gold.Chemscore.Metal>
0.0000

> <Gold.Chemscore.Lipo>
102.9878

> <Gold.Chemscore.Internal_Hbond>
0.0000

> <Gold.Chemscore.DEClash>
0.0025

> <Gold.Chemscore.DEInternal>
2.1100

> <Gold.Chemscore.Rot>
1.4989

> <Gold.Chemscore.Internal.Correction>
   9.000000E+99

> <Gold.Chemscore.Hbonds>
donor molecule, donor type, donor heavy atom, donor atom, acceptor molecule, acceptor atom, score
      P1  H  6933  6944       L1    11  0.03
      P1  H  7989  7998       L1     3  0.25

> <Gold.Chemscore.Hbond.Weighted>
-3.2261

> <Gold.Chemscore.Metal.Weighted>
-0.0000

> <Gold.Chemscore.Lipo.Weighted>
-12.0496

> <Gold.Chemscore.Internal_Hbond.Weighted>
0.0000

> <Gold.Chemscore.DEClash.Weighted>
0.0025

> <Gold.Chemscore.DEInternal.Weighted>
2.1100

> <Gold.Chemscore.Rot.Weighted>
3.8371

> <Gold.Chemscore.Internal.Correction.Weighted>
   9.000000E+99

> <Gold.Protein.RotatedTorsions>
[ 6907 6896 6895 6894 ] final   33.16 input  -60.11 | X-H torsion
[ 7974 7965 7964 7962 ] final   -7.80 input  175.53 | X-H torsion
[ 8008 7997 7996 7995 ] final  160.97 input   59.86 | X-H torsion
[ 10167 10162 10161 10158 ] final  156.50 input  -65.29 | X-H torsion
[ 10718 10713 10712 10709 ] final -129.92 input   66.30 | X-H torsion
[ 10763 10752 10751 10750 ] final   56.67 input  -60.55 | X-H torsion
[ 11005 11000 10999 10996 ] final   90.21 input  -57.11 | X-H torsion

> <Gold.Protein.ActiveResidues>
 VAL166  LYS551  ARG553  GLY616  TRP617  ASP618  TYR619  PRO620  LYS621  CYS622 
 ASP623  PHE694  ASN695  SER759  ASP760  ASP761  ALA762  ILE779  LEU786  VAL792 
 PHE793  MET794  SER795  GLU796  ALA797  LYS798  CYS799  TRP800  GLU811  SER814 

> <Gold.Protein.RotatedAtoms>
  152.0846  134.9448  160.0572 H   0  0  0  0  0  0  0  0  0  0  0  0  # atno 6907 bound_to 6896
  152.0723  133.4108  159.4473 H   0  0  0  0  0  0  0  0  0  0  0  0  # atno 6908 bound_to 6896
  150.6836  134.2997  159.4744 H   0  0  0  0  0  0  0  0  0  0  0  0  # atno 6909 bound_to 6896
  146.2297  140.2373  142.8342 H   0  0  0  0  0  0  0  0  0  0  0  0  # atno 7974 bound_to 7965
  156.2135  140.1790  156.7641 H   0  0  0  0  0  0  0  0  0  0  0  0  # atno 8008 bound_to 7997
  154.5757  140.0674  156.9060 H   0  0  0  0  0  0  0  0  0  0  0  0  # atno 8009 bound_to 7997
  155.2592  140.3334  155.4277 H   0  0  0  0  0  0  0  0  0  0  0  0  # atno 8010 bound_to 7997
  139.4821  144.5003  151.8178 H   0  0  0  0  0  0  0  0  0  0  0  0  # atno 10167 bound_to 10162
  156.2093  130.6908  151.0631 H   0  0  0  0  0  0  0  0  0  0  0  0  # atno 10718 bound_to 10713
  152.9836  135.5668  154.5266 H   0  0  0  0  0  0  0  0  0  0  0  0  # atno 10763 bound_to 10752
  154.4745  135.2786  155.1620 H   0  0  0  0  0  0  0  0  0  0  0  0  # atno 10764 bound_to 10752
  154.3154  135.6280  153.5537 H   0  0  0  0  0  0  0  0  0  0  0  0  # atno 10765 bound_to 10752
  139.8860  134.8600  156.3253 H   0  0  0  0  0  0  0  0  0  0  0  0  # atno 11005 bound_to 11000
  144.9512  140.8180  143.5571 LP  0  0  0  0  0  0  0  0  0  0  0  0  # atno 17320 bound_to 7965
  145.2333  139.2105  143.5031 LP  0  0  0  0  0  0  0  0  0  0  0  0  # atno 17321 bound_to 7965
  140.4496  144.1874  150.5896 LP  0  0  0  0  0  0  0  0  0  0  0  0  # atno 17342 bound_to 10162
  140.4599  143.2453  151.9234 LP  0  0  0  0  0  0  0  0  0  0  0  0  # atno 17343 bound_to 10162
  157.7030  131.0768  150.6760 LP  0  0  0  0  0  0  0  0  0  0  0  0  # atno 17370 bound_to 10713
  156.6819  130.4569  149.5625 LP  0  0  0  0  0  0  0  0  0  0  0  0  # atno 17371 bound_to 10713
  140.9759  133.7297  156.0602 LP  0  0  0  0  0  0  0  0  0  0  0  0  # atno 17394 bound_to 11000
  140.7811  134.3724  157.5487 LP  0  0  0  0  0  0  0  0  0  0  0  0  # atno 17395 bound_to 11000

$$$$
