AV-unprocessed.smi:2072|AV-procd|sdf|8448|dock3
  -GOLD-   2272011143D 1   1.00000     0.00000
 Structure written by MMmdl.
 40 42  0  0  0  0  0  0  0  0  2 V2000
  145.0221  138.4104  153.2969 O   0  0  0  0  0  0  0  0  0  0  0  0
  145.9932  137.8087  152.8398 C   0  0  0  0  0  0  0  0  0  0  0  0
  147.2786  138.1786  152.9716 N   0  0  0  0  0  0  0  0  0  0  0  0
  147.8215  139.3181  153.6268 C   0  0  0  0  0  0  0  0  0  0  0  0
  147.0862  140.4796  153.9695 C   0  0  0  0  0  0  0  0  0  0  0  0
  147.7537  141.5433  154.6069 C   0  0  0  0  0  0  0  0  0  0  0  0
  149.1303  141.4126  154.8726 C   0  0  0  0  0  0  0  0  0  0  0  0
  149.8458  140.3170  154.5430 N   0  0  0  0  0  0  0  0  0  0  0  0
  149.1992  139.3009  153.9332 C   0  0  0  0  0  0  0  0  0  0  0  0
  145.8858  136.6721  152.1372 N   0  0  0  0  0  0  0  0  0  0  0  0
  144.6241  136.0032  151.8299 C   0  0  2  0  0  0  0  0  0  0  0  0
  143.9471  135.3929  153.0504 C   0  0  0  0  0  0  0  0  0  0  0  0
  142.9638  134.3915  152.4350 C   0  0  0  0  0  0  0  0  0  0  0  0
  143.5238  133.9901  151.1206 N   0  3  2  0  0  0  0  0  0  0  0  0
  143.6963  132.5212  150.9593 C   0  0  0  0  0  0  0  0  0  0  0  0
  144.6259  132.2021  149.7787 C   0  0  0  0  0  0  0  0  0  0  0  0
  146.0363  132.7820  149.9973 C   0  0  0  0  0  0  0  0  0  0  0  0
  146.0391  133.9726  150.9753 C   0  0  0  0  0  0  0  0  0  0  0  0
  144.7416  134.8102  150.8614 C   0  0  2  0  0  0  0  0  0  0  0  0
  147.9617  137.5436  152.5851 H   0  0  0  0  0  0  0  0  0  0  0  0
  146.0357  140.5869  153.7512 H   0  0  0  0  0  0  0  0  0  0  0  0
  147.2218  142.4419  154.8822 H   0  0  0  0  0  0  0  0  0  0  0  0
  149.6720  142.2109  155.3584 H   0  0  0  0  0  0  0  0  0  0  0  0
  149.8045  138.4417  153.6833 H   0  0  0  0  0  0  0  0  0  0  0  0
  146.7318  136.2364  151.7994 H   0  0  0  0  0  0  0  0  0  0  0  0
  143.9348  136.7342  151.4014 H   0  0  0  0  0  0  0  0  0  0  0  0
  144.6770  134.8638  153.6654 H   0  0  0  0  0  0  0  0  0  0  0  0
  143.4537  136.1359  153.6777 H   0  0  0  0  0  0  0  0  0  0  0  0
  142.7825  133.5471  153.1015 H   0  0  0  0  0  0  0  0  0  0  0  0
  142.0022  134.8736  152.2555 H   0  0  0  0  0  0  0  0  0  0  0  0
  144.1149  132.0887  151.8697 H   0  0  0  0  0  0  0  0  0  0  0  0
  142.7176  132.0628  150.8137 H   0  0  0  0  0  0  0  0  0  0  0  0
  144.6874  131.1252  149.6196 H   0  0  0  0  0  0  0  0  0  0  0  0
  144.1967  132.6200  148.8669 H   0  0  0  0  0  0  0  0  0  0  0  0
  146.7053  132.0096  150.3781 H   0  0  0  0  0  0  0  0  0  0  0  0
  146.4460  133.0888  149.0341 H   0  0  0  0  0  0  0  0  0  0  0  0
  146.1403  133.6015  151.9962 H   0  0  0  0  0  0  0  0  0  0  0  0
  146.9227  134.5828  150.7865 H   0  0  0  0  0  0  0  0  0  0  0  0
  144.6828  135.1833  149.8377 H   0  0  0  0  0  0  0  0  0  0  0  0
  142.8486  134.2781  150.4267 H   0  0  0  0  0  0  0  0  0  0  0  0
  1  2  2  0  0  0  0
  2  3  1  0  0  0  0
  2 10  1  0  0  0  0
  3  4  1  0  0  0  0
  3 20  1  0  0  0  0
  4  9  1  0  0  0  0
  4  5  2  0  0  0  0
  5  6  1  0  0  0  0
  5 21  1  0  0  0  0
  6  7  2  0  0  0  0
  6 22  1  0  0  0  0
  7  8  1  0  0  0  0
  7 23  1  0  0  0  0
  8  9  2  0  0  0  0
  9 24  1  0  0  0  0
 10 11  1  0  0  0  0
 10 25  1  0  0  0  0
 11 19  1  0  0  0  0
 11 12  1  0  0  0  0
 11 26  1  0  0  0  0
 12 13  1  0  0  0  0
 12 27  1  0  0  0  0
 12 28  1  0  0  0  0
 13 14  1  0  0  0  0
 13 29  1  0  0  0  0
 13 30  1  0  0  0  0
 14 19  1  0  0  0  0
 14 15  1  0  0  0  0
 14 40  1  0  0  0  0
 15 16  1  0  0  0  0
 15 31  1  0  0  0  0
 15 32  1  0  0  0  0
 16 17  1  0  0  0  0
 16 33  1  0  0  0  0
 16 34  1  0  0  0  0
 17 18  1  0  0  0  0
 17 35  1  0  0  0  0
 17 36  1  0  0  0  0
 18 19  1  0  0  0  0
 18 37  1  0  0  0  0
 18 38  1  0  0  0  0
 19 39  1  0  0  0  0
M  CHG  1  14   1
M  END
> <s_m_source_file>
AV-unprocessed.smi

> <i_m_source_file_index>
2072

> <i_lp_mmshare_version>
43012

> <i_f3d_flags>
0

> <s_epik_input>
W0NIMl0xW0NIMl1bQ0gyXVtDSDJdW0NASF0oTjEyKVtDQEBIXShbQ0gyXVtDSDJdMilbTkhdQyg9TylbTkhdYzNbY0hdW2NIXVtjSF1uW2NIXTM=

> <s_epik_cmdline>
J2VwaWtfcHl0aG9uJywgJy1waCcsICc3LjAnLCAnLXRuJywgJzgnLCAnLW1hJywgJzIwMCcsICctbWV0YWxfYmluZGluZycsICctaW1hZScsICc8aW5maWxlLm1hZT4nLCAnLW9tYWUnLCAnPG91dGZpbGUubWFlPic=

> <r_lp_tautomer_probability>
1

> <r_epik_Ionization_Penalty>
0.00482425

> <r_epik_Ionization_Penalty_Charging>
0.000974069

> <r_epik_Ionization_Penalty_Neutral>
0.00385018

> <r_epik_State_Penalty>
-0

> <r_epik_Charging_Adjusted_Penalty>
0.000974069

> <i_epik_Tot_Q>
1

> <i_epik_Tot_abs_Q>
1

> <r_epik_Metal_State_Penalty>
-0

> <b_epik_Metal_Only>
0

> <s_lp_Force_Field>
OPLS_2005

> <r_lp_Energy>
44.3758

> <b_lp_Chiralities_Consistent>
1

> <s_lp_Variant>
AV-unprocessed.smi:2072-7

> <Gold.Version>
5.8.1

> <Gold.Id.Protein>
6NUR|6NUR_protein|mol2

> <Gold.PLP.Fitness>
49.4905

> <Gold.PLP.PLP>
-33.8687

> <Gold.PLP.part.hbond>
-3.8802

> <Gold.PLP.part.metal>
0.0000

> <Gold.PLP.part.buried>
-2.5631

> <Gold.PLP.part.nonpolar>
-32.7417

> <Gold.PLP.part.repulsive>
4.8135

> <Gold.PLP.ligand.clash>
0.0000

> <Gold.PLP.ligand.torsion>
0.1298

> <Gold.PLP.Chemscore.Hbond>
4.3153

> <Gold.PLP.Chemscore.CHOScore>
0.9780

> <Gold.PLP.Chemscore.Metal>
0.0000

> <Gold.Chemscore.Hbonds>
donor molecule, donor type, donor heavy atom, donor atom, acceptor molecule, acceptor atom, score
      L1  H     3    20       P1  7948  1.00
      L1  H    10    25       P1  7948  0.55
      L1  H    14    40       P1 10186  1.95
      P1  H  7989  7998       L1     8  0.68
      L1  C     7    23       P1  8028  0.67

> <Gold.PLP.Chemscore.Internal.Correction>
0.0016

> <Gold.Rescore>
     Score         DG    S(hbond)    S(metal)    S(lipo)     H(rot)  DE(clash)    DE(int)     intcor
     19.46     -23.68       3.12        0.00      88.29       1.00       3.04       1.18       ----

> <Gold.Chemscore.Fitness>
19.4622

> <Gold.Chemscore.DG>
-23.6792

> <Gold.Chemscore.ZeroCoef>
-5.4800

> <Gold.Chemscore.Hbond>
3.1225

> <Gold.Chemscore.Metal>
0.0000

> <Gold.Chemscore.Lipo>
88.2918

> <Gold.Chemscore.Internal_Hbond>
0.0000

> <Gold.Chemscore.DEClash>
3.0361

> <Gold.Chemscore.DEInternal>
1.1810

> <Gold.Chemscore.Rot>
1.0000

> <Gold.Chemscore.Internal.Correction>
   9.000000E+99

> <Gold.Chemscore.Hbonds>
donor molecule, donor type, donor heavy atom, donor atom, acceptor molecule, acceptor atom, score
      L1  H     3    20       P1  7948  1.00
      L1  H    10    25       P1  7948  0.53
      L1  H    14    40       P1 10186  0.71
      P1  H  7989  7998       L1     8  0.41

> <Gold.Chemscore.Hbond.Weighted>
-10.4291

> <Gold.Chemscore.Metal.Weighted>
-0.0000

> <Gold.Chemscore.Lipo.Weighted>
-10.3301

> <Gold.Chemscore.Internal_Hbond.Weighted>
0.0000

> <Gold.Chemscore.DEClash.Weighted>
3.0361

> <Gold.Chemscore.DEInternal.Weighted>
1.1810

> <Gold.Chemscore.Rot.Weighted>
2.5600

> <Gold.Chemscore.Internal.Correction.Weighted>
   9.000000E+99

> <Gold.Protein.RotatedTorsions>
[ 6907 6896 6895 6894 ] final -178.62 input  -60.11 | X-H torsion
[ 7974 7965 7964 7962 ] final  -70.49 input  175.53 | X-H torsion
[ 8008 7997 7996 7995 ] final  170.27 input   59.86 | X-H torsion
[ 10167 10162 10161 10158 ] final  127.34 input  -65.29 | X-H torsion
[ 10718 10713 10712 10709 ] final  -91.64 input   66.30 | X-H torsion
[ 10763 10752 10751 10750 ] final -161.69 input  -60.55 | X-H torsion
[ 11005 11000 10999 10996 ] final  179.81 input  -57.11 | X-H torsion

> <Gold.Protein.ActiveResidues>
 VAL166  LYS551  ARG553  GLY616  TRP617  ASP618  TYR619  PRO620  LYS621  CYS622 
 ASP623  PHE694  ASN695  SER759  ASP760  ASP761  ALA762  ILE779  LEU786  VAL792 
 PHE793  MET794  SER795  GLU796  ALA797  LYS798  CYS799  TRP800  GLU811  SER814 

> <Gold.Protein.RotatedAtoms>
  151.6401  133.3326  159.3128 H   0  0  0  0  0  0  0  0  0  0  0  0  # atno 6907 bound_to 6896
  150.8012  134.7111  159.6613 H   0  0  0  0  0  0  0  0  0  0  0  0  # atno 6908 bound_to 6896
  152.4104  134.6138  160.0084 H   0  0  0  0  0  0  0  0  0  0  0  0  # atno 6909 bound_to 6896
  145.6903  140.9155  143.0785 H   0  0  0  0  0  0  0  0  0  0  0  0  # atno 7974 bound_to 7965
  156.1381  140.1542  156.8963 H   0  0  0  0  0  0  0  0  0  0  0  0  # atno 8008 bound_to 7997
  154.4964  140.0837  156.7745 H   0  0  0  0  0  0  0  0  0  0  0  0  # atno 8009 bound_to 7997
  155.4130  140.3419  155.4267 H   0  0  0  0  0  0  0  0  0  0  0  0  # atno 8010 bound_to 7997
  139.5584  144.6864  151.4116 H   0  0  0  0  0  0  0  0  0  0  0  0  # atno 10167 bound_to 10162
  155.9995  130.4956  150.5505 H   0  0  0  0  0  0  0  0  0  0  0  0  # atno 10718 bound_to 10713
  154.7281  135.3040  154.8937 H   0  0  0  0  0  0  0  0  0  0  0  0  # atno 10763 bound_to 10752
  153.9789  135.6733  153.4753 H   0  0  0  0  0  0  0  0  0  0  0  0  # atno 10764 bound_to 10752
  153.0893  135.4967  154.8579 H   0  0  0  0  0  0  0  0  0  0  0  0  # atno 10765 bound_to 10752
  140.4103  134.6697  157.4610 H   0  0  0  0  0  0  0  0  0  0  0  0  # atno 11005 bound_to 11000
  144.6998  139.8813  143.7447 LP  0  0  0  0  0  0  0  0  0  0  0  0  # atno 17320 bound_to 7965
  146.0887  139.3876  143.0419 LP  0  0  0  0  0  0  0  0  0  0  0  0  # atno 17321 bound_to 7965
  140.6860  143.7973  150.7187 LP  0  0  0  0  0  0  0  0  0  0  0  0  # atno 17342 bound_to 10162
  140.1441  143.4415  152.2174 LP  0  0  0  0  0  0  0  0  0  0  0  0  # atno 17343 bound_to 10162
  157.3429  131.0720  151.1774 LP  0  0  0  0  0  0  0  0  0  0  0  0  # atno 17370 bound_to 10713
  157.2616  130.6662  149.5977 LP  0  0  0  0  0  0  0  0  0  0  0  0  # atno 17371 bound_to 10713
  140.0272  134.6459  155.9156 LP  0  0  0  0  0  0  0  0  0  0  0  0  # atno 17394 bound_to 11000
  141.1823  133.6549  156.5073 LP  0  0  0  0  0  0  0  0  0  0  0  0  # atno 17395 bound_to 11000

$$$$
