AV-unprocessed.smi:1738|AV-procd|sdf|6997|dock1
  -GOLD-   22720 8213D 1   1.00000     0.00000
 Structure written by MMmdl.
 46 48  0  0  0  0  0  0  0  0  2 V2000
  152.5513  137.4102  160.0469 C   0  0  0  0  0  0  0  0  0  0  0  0
  153.5180  137.6356  158.4990 S   0  0  0  0  0  0  0  0  0  0  0  0
  153.7302  139.0787  158.3054 O   0  0  0  0  0  0  0  0  0  0  0  0
  154.6773  136.7309  158.5427 O   0  0  0  0  0  0  0  0  0  0  0  0
  152.4130  137.0525  157.2179 C   0  0  0  0  0  0  0  0  0  0  0  0
  152.1385  137.8542  156.0920 C   0  0  0  0  0  0  0  0  0  0  0  0
  151.2354  137.3626  155.1301 C   0  0  0  0  0  0  0  0  0  0  0  0
  150.6301  136.0980  155.3405 C   0  0  0  0  0  0  0  0  0  0  0  0
  149.7144  135.4763  154.4470 N   0  0  0  0  0  0  0  0  0  0  0  0
  149.0308  134.3277  154.5913 C   0  0  0  0  0  0  0  0  0  0  0  0
  149.1014  133.5679  155.5561 O   0  0  0  0  0  0  0  0  0  0  0  0
  148.2484  134.0956  153.5277 N   0  0  0  0  0  0  0  0  0  0  0  0
  147.3744  132.9370  153.3628 C   0  0  2  0  0  0  0  0  0  0  0  0
  148.1044  131.6077  153.5142 C   0  0  0  0  0  0  0  0  0  0  0  0
  147.1438  130.6330  152.8303 C   0  0  0  0  0  0  0  0  0  0  0  0
  146.5090  131.3919  151.7278 N   0  3  1  0  0  0  0  0  0  0  0  0
  145.0928  131.0344  151.4685 C   0  0  0  0  0  0  0  0  0  0  0  0
  144.5283  131.8583  150.2963 C   0  0  0  0  0  0  0  0  0  0  0  0
  144.7959  133.3716  150.4354 C   0  0  0  0  0  0  0  0  0  0  0  0
  145.5189  133.7213  151.7454 C   0  0  0  0  0  0  0  0  0  0  0  0
  146.7740  132.8422  151.9497 C   0  0  1  0  0  0  0  0  0  0  0  0
  150.9774  135.3902  156.5117 C   0  0  0  0  0  0  0  0  0  0  0  0
  151.8406  135.8508  157.4408 N   0  0  0  0  0  0  0  0  0  0  0  0
  153.1475  137.7399  160.8973 H   0  0  0  0  0  0  0  0  0  0  0  0
  152.2979  136.3571  160.1681 H   0  0  0  0  0  0  0  0  0  0  0  0
  151.6366  138.0000  159.9933 H   0  0  0  0  0  0  0  0  0  0  0  0
  152.6083  138.8176  155.9604 H   0  0  0  0  0  0  0  0  0  0  0  0
  151.0386  137.9629  154.2567 H   0  0  0  0  0  0  0  0  0  0  0  0
  149.5832  135.9582  153.5697 H   0  0  0  0  0  0  0  0  0  0  0  0
  148.2584  134.7703  152.7765 H   0  0  0  0  0  0  0  0  0  0  0  0
  146.5724  132.9597  154.1043 H   0  0  0  0  0  0  0  0  0  0  0  0
  149.0565  131.6296  152.9816 H   0  0  0  0  0  0  0  0  0  0  0  0
  148.3023  131.3459  154.5542 H   0  0  0  0  0  0  0  0  0  0  0  0
  147.6473  129.7395  152.4605 H   0  0  0  0  0  0  0  0  0  0  0  0
  146.3857  130.3146  153.5481 H   0  0  0  0  0  0  0  0  0  0  0  0
  145.0209  129.9695  151.2446 H   0  0  0  0  0  0  0  0  0  0  0  0
  144.4991  131.2061  152.3678 H   0  0  0  0  0  0  0  0  0  0  0  0
  144.9674  131.5043  149.3627 H   0  0  0  0  0  0  0  0  0  0  0  0
  143.4564  131.6771  150.2098 H   0  0  0  0  0  0  0  0  0  0  0  0
  145.4028  133.7060  149.5931 H   0  0  0  0  0  0  0  0  0  0  0  0
  143.8592  133.9262  150.3703 H   0  0  0  0  0  0  0  0  0  0  0  0
  145.7943  134.7763  151.7445 H   0  0  0  0  0  0  0  0  0  0  0  0
  144.8300  133.5915  152.5813 H   0  0  0  0  0  0  0  0  0  0  0  0
  147.5297  133.1250  151.2148 H   0  0  0  0  0  0  0  0  0  0  0  0
  150.5449  134.4207  156.7131 H   0  0  0  0  0  0  0  0  0  0  0  0
  147.0161  131.1536  150.8875 H   0  0  0  0  0  0  0  0  0  0  0  0
  1  2  1  0  0  0  0
  1 24  1  0  0  0  0
  1 25  1  0  0  0  0
  1 26  1  0  0  0  0
  2  3  2  0  0  0  0
  2  4  2  0  0  0  0
  2  5  1  0  0  0  0
  5 23  1  0  0  0  0
  5  6  2  0  0  0  0
  6  7  1  0  0  0  0
  6 27  1  0  0  0  0
  7  8  2  0  0  0  0
  7 28  1  0  0  0  0
  8  9  1  0  0  0  0
  8 22  1  0  0  0  0
  9 10  1  0  0  0  0
  9 29  1  0  0  0  0
 10 11  2  0  0  0  0
 10 12  1  0  0  0  0
 12 13  1  0  0  0  0
 12 30  1  0  0  0  0
 13 21  1  0  0  0  0
 13 14  1  0  0  0  0
 13 31  1  0  0  0  0
 14 15  1  0  0  0  0
 14 32  1  0  0  0  0
 14 33  1  0  0  0  0
 15 16  1  0  0  0  0
 15 34  1  0  0  0  0
 15 35  1  0  0  0  0
 16 21  1  0  0  0  0
 16 17  1  0  0  0  0
 16 46  1  0  0  0  0
 17 18  1  0  0  0  0
 17 36  1  0  0  0  0
 17 37  1  0  0  0  0
 18 19  1  0  0  0  0
 18 38  1  0  0  0  0
 18 39  1  0  0  0  0
 19 20  1  0  0  0  0
 19 40  1  0  0  0  0
 19 41  1  0  0  0  0
 20 21  1  0  0  0  0
 20 42  1  0  0  0  0
 20 43  1  0  0  0  0
 21 44  1  0  0  0  0
 22 23  2  0  0  0  0
 22 45  1  0  0  0  0
M  CHG  1  16   1
M  END
> <s_m_source_file>
AV-unprocessed.smi

> <i_m_source_file_index>
1738

> <i_lp_mmshare_version>
43012

> <i_f3d_flags>
0

> <s_epik_input>
W0NIM11TKD1PKSg9TyljMVtjSF1bY0hdYyhbY0hdbjEpW05IXUMoPU8pW05IXVtDQEhdKFtDSDJdW0NIMl0yKVtDQEBIXShOMjMpW0NIMl1bQ0gyXVtDSDJdW0NIMl0z

> <s_epik_cmdline>
J2VwaWtfcHl0aG9uJywgJy1waCcsICc3LjAnLCAnLXRuJywgJzgnLCAnLW1hJywgJzIwMCcsICctbWV0YWxfYmluZGluZycsICctaW1hZScsICc8aW5maWxlLm1hZT4nLCAnLW9tYWUnLCAnPG91dGZpbGUubWFlPic=

> <r_epik_Ionization_Penalty>
0.00100042

> <r_epik_Ionization_Penalty_Charging>
0.000974069

> <r_epik_Ionization_Penalty_Neutral>
2.63543e-05

> <r_epik_State_Penalty>
0.000633842

> <r_epik_Charging_Adjusted_Penalty>
0.00160791

> <i_epik_Tot_Q>
1

> <i_epik_Tot_abs_Q>
1

> <r_epik_Metal_State_Penalty>
-0

> <b_epik_Metal_Only>
0

> <s_lp_Force_Field>
OPLS_2005

> <r_lp_Energy>
42.6432

> <b_lp_Chiralities_Consistent>
1

> <s_lp_Variant>
AV-unprocessed.smi:1738-1

> <Gold.Version>
5.8.1

> <Gold.Id.Protein>
6NUR|6NUR_protein|mol2

> <Gold.PLP.Fitness>
46.2640

> <Gold.PLP.PLP>
-35.2630

> <Gold.PLP.part.hbond>
-5.1555

> <Gold.PLP.part.metal>
0.0000

> <Gold.PLP.part.buried>
-4.5864

> <Gold.PLP.part.nonpolar>
-25.6493

> <Gold.PLP.part.repulsive>
0.0709

> <Gold.PLP.ligand.clash>
0.0000

> <Gold.PLP.ligand.torsion>
1.1644

> <Gold.PLP.Chemscore.Hbond>
3.7660

> <Gold.PLP.Chemscore.CHOScore>
0.0000

> <Gold.PLP.Chemscore.Metal>
0.0000

> <Gold.Chemscore.Hbonds>
donor molecule, donor type, donor heavy atom, donor atom, acceptor molecule, acceptor atom, score
      L1  H     9    29       P1  7948  1.00
      L1  H    12    30       P1  7948  1.00
      L1  H    16    46       P1 10747  0.70
      P1  H  7997  8010       L1     3  1.00

> <Gold.PLP.Chemscore.Internal.Correction>
2.0319

> <Gold.Rescore>
     Score         DG    S(hbond)    S(metal)    S(lipo)     H(rot)  DE(clash)    DE(int)     intcor
     20.28     -24.44       3.48        0.00      84.71       1.00       0.17       3.99       ----

> <Gold.Chemscore.Fitness>
20.2804

> <Gold.Chemscore.DG>
-24.4389

> <Gold.Chemscore.ZeroCoef>
-5.4800

> <Gold.Chemscore.Hbond>
3.4755

> <Gold.Chemscore.Metal>
0.0000

> <Gold.Chemscore.Lipo>
84.7078

> <Gold.Chemscore.Internal_Hbond>
0.0000

> <Gold.Chemscore.DEClash>
0.1693

> <Gold.Chemscore.DEInternal>
3.9892

> <Gold.Chemscore.Rot>
1.0000

> <Gold.Chemscore.Internal.Correction>
   9.000000E+99

> <Gold.Chemscore.Hbonds>
donor molecule, donor type, donor heavy atom, donor atom, acceptor molecule, acceptor atom, score
      L1  H     9    29       P1  7948  0.30
      L1  H    12    30       P1  7948  0.59
      L1  H    16    46       P1 10747  0.68
      P1  H  7997  8010       L1     3  1.00

> <Gold.Chemscore.Hbond.Weighted>
-11.6081

> <Gold.Chemscore.Metal.Weighted>
-0.0000

> <Gold.Chemscore.Lipo.Weighted>
-9.9108

> <Gold.Chemscore.Internal_Hbond.Weighted>
0.0000

> <Gold.Chemscore.DEClash.Weighted>
0.1693

> <Gold.Chemscore.DEInternal.Weighted>
3.9892

> <Gold.Chemscore.Rot.Weighted>
2.5600

> <Gold.Chemscore.Internal.Correction.Weighted>
   9.000000E+99

> <Gold.Protein.RotatedTorsions>
[ 6907 6896 6895 6894 ] final   44.35 input  -60.11 | X-H torsion
[ 7974 7965 7964 7962 ] final  112.22 input  175.53 | X-H torsion
[ 8008 7997 7996 7995 ] final   30.18 input   59.86 | X-H torsion
[ 10167 10162 10161 10158 ] final  146.87 input  -65.29 | X-H torsion
[ 10718 10713 10712 10709 ] final -152.24 input   66.30 | X-H torsion
[ 10763 10752 10751 10750 ] final -139.46 input  -60.55 | X-H torsion
[ 11005 11000 10999 10996 ] final -155.26 input  -57.11 | X-H torsion

> <Gold.Protein.ActiveResidues>
 VAL166  LYS551  ARG553  GLY616  TRP617  ASP618  TYR619  PRO620  LYS621  CYS622 
 ASP623  PHE694  ASN695  SER759  ASP760  ASP761  ALA762  ILE779  LEU786  VAL792 
 PHE793  MET794  SER795  GLU796  ALA797  LYS798  CYS799  TRP800  GLU811  SER814 

> <Gold.Protein.RotatedAtoms>
  152.2314  134.8318  160.0472 H   0  0  0  0  0  0  0  0  0  0  0  0  # atno 6907 bound_to 6896
  151.9065  133.3545  159.3857 H   0  0  0  0  0  0  0  0  0  0  0  0  # atno 6908 bound_to 6896
  150.7027  134.4701  159.5465 H   0  0  0  0  0  0  0  0  0  0  0  0  # atno 6909 bound_to 6896
  145.2323  139.2814  143.4162 H   0  0  0  0  0  0  0  0  0  0  0  0  # atno 7974 bound_to 7965
  155.0863  140.3215  155.4587 H   0  0  0  0  0  0  0  0  0  0  0  0  # atno 8008 bound_to 7997
  156.2754  140.2086  156.5936 H   0  0  0  0  0  0  0  0  0  0  0  0  # atno 8009 bound_to 7997
  154.6939  140.0513  157.0378 H   0  0  0  0  0  0  0  0  0  0  0  0  # atno 8010 bound_to 7997
  139.4899  144.5797  151.6895 H   0  0  0  0  0  0  0  0  0  0  0  0  # atno 10167 bound_to 10162
  156.4698  130.8253  151.2483 H   0  0  0  0  0  0  0  0  0  0  0  0  # atno 10718 bound_to 10713
  154.8608  135.3582  154.5550 H   0  0  0  0  0  0  0  0  0  0  0  0  # atno 10763 bound_to 10752
  153.6167  135.7007  153.5331 H   0  0  0  0  0  0  0  0  0  0  0  0  # atno 10764 bound_to 10752
  153.3163  135.4164  155.1339 H   0  0  0  0  0  0  0  0  0  0  0  0  # atno 10765 bound_to 10752
  140.6884  134.4069  157.5221 H   0  0  0  0  0  0  0  0  0  0  0  0  # atno 11005 bound_to 11000
  146.3350  140.2661  142.8604 LP  0  0  0  0  0  0  0  0  0  0  0  0  # atno 17320 bound_to 7965
  144.9665  140.8327  143.5481 LP  0  0  0  0  0  0  0  0  0  0  0  0  # atno 17321 bound_to 7965
  140.5401  144.0593  150.6085 LP  0  0  0  0  0  0  0  0  0  0  0  0  # atno 17342 bound_to 10162
  140.3612  143.2907  152.0381 LP  0  0  0  0  0  0  0  0  0  0  0  0  # atno 17343 bound_to 10162
  157.7492  131.0080  150.3211 LP  0  0  0  0  0  0  0  0  0  0  0  0  # atno 17370 bound_to 10713
  156.3630  130.3850  149.7236 LP  0  0  0  0  0  0  0  0  0  0  0  0  # atno 17371 bound_to 10713
  139.8931  134.8739  156.2240 LP  0  0  0  0  0  0  0  0  0  0  0  0  # atno 17394 bound_to 11000
  141.0261  133.7014  156.1351 LP  0  0  0  0  0  0  0  0  0  0  0  0  # atno 17395 bound_to 11000

$$$$
