AV-unprocessed.smi:1215|AV-procd|sdf|5095|dock3
  -GOLD-   22720 4143D 1   1.00000     0.00000
 Structure written by MMmdl.
 46 47  0  0  0  0  0  0  0  0  2 V2000
  153.2521  142.6195  161.7911 C   0  0  0  0  0  0  0  0  0  0  0  0
  153.5391  141.9128  160.4610 C   0  0  0  0  0  0  0  0  0  0  0  0
  152.8002  142.5112  159.3666 N   0  0  0  0  0  0  0  0  0  0  0  0
  151.8274  141.9323  158.5758 C   0  0  0  0  0  0  0  0  0  0  0  0
  151.4347  142.9061  157.7015 C   0  0  0  0  0  0  0  0  0  0  0  0
  150.4566  142.8544  156.6764 N   0  0  0  0  0  0  0  0  0  0  0  0
  150.0984  141.7868  155.9447 C   0  0  0  0  0  0  0  0  0  0  0  0
  150.5932  140.6632  156.0390 O   0  0  0  0  0  0  0  0  0  0  0  0
  149.1249  142.0941  155.0755 N   0  0  0  0  0  0  0  0  0  0  0  0
  148.5233  141.1560  154.1349 C   0  0  0  0  0  0  0  0  0  0  0  0
  146.9854  141.1618  154.2430 C   0  0  0  0  0  0  0  0  0  0  0  0
  146.3448  139.9470  153.6705 N   0  3  1  0  0  0  0  0  0  0  0  0
  147.0911  139.4328  152.4901 C   0  0  0  0  0  0  0  0  0  0  0  0
  146.3143  138.3162  151.7754 C   0  0  0  0  0  0  0  0  0  0  0  0
  145.9783  137.1761  152.7419 C   0  0  0  0  0  0  0  0  0  0  0  0
  145.2251  137.7309  153.9584 C   0  0  0  0  0  0  0  0  0  0  0  0
  145.9961  138.8729  154.6546 C   0  0  1  0  0  0  0  0  0  0  0  0
  147.2060  138.3535  155.4612 C   0  0  0  0  0  0  0  0  0  0  0  0
  152.2124  144.0495  158.0207 C   0  0  0  0  0  0  0  0  0  0  0  0
  153.0359  143.8030  159.0278 N   0  0  0  0  0  0  0  0  0  0  0  0
  153.8065  142.1529  162.6053 H   0  0  0  0  0  0  0  0  0  0  0  0
  152.1915  142.5729  162.0406 H   0  0  0  0  0  0  0  0  0  0  0  0
  153.5414  143.6701  161.7509 H   0  0  0  0  0  0  0  0  0  0  0  0
  154.6048  141.9527  160.2309 H   0  0  0  0  0  0  0  0  0  0  0  0
  153.2689  140.8583  160.5291 H   0  0  0  0  0  0  0  0  0  0  0  0
  151.5126  140.9081  158.7120 H   0  0  0  0  0  0  0  0  0  0  0  0
  149.9772  143.7216  156.4838 H   0  0  0  0  0  0  0  0  0  0  0  0
  148.7738  143.0409  155.0671 H   0  0  0  0  0  0  0  0  0  0  0  0
  148.8571  141.4112  153.1288 H   0  0  0  0  0  0  0  0  0  0  0  0
  148.9099  140.1597  154.3511 H   0  0  0  0  0  0  0  0  0  0  0  0
  146.7266  141.2193  155.3013 H   0  0  0  0  0  0  0  0  0  0  0  0
  146.5629  142.0570  153.7864 H   0  0  0  0  0  0  0  0  0  0  0  0
  147.2631  140.2457  151.7836 H   0  0  0  0  0  0  0  0  0  0  0  0
  148.0754  139.0762  152.7954 H   0  0  0  0  0  0  0  0  0  0  0  0
  145.3942  138.7223  151.3527 H   0  0  0  0  0  0  0  0  0  0  0  0
  146.8972  137.9339  150.9368 H   0  0  0  0  0  0  0  0  0  0  0  0
  145.3728  136.4224  152.2374 H   0  0  0  0  0  0  0  0  0  0  0  0
  146.8934  136.6759  153.0610 H   0  0  0  0  0  0  0  0  0  0  0  0
  144.2534  138.1043  153.6318 H   0  0  0  0  0  0  0  0  0  0  0  0
  145.0159  136.9277  154.6660 H   0  0  0  0  0  0  0  0  0  0  0  0
  145.2969  139.2964  155.3743 H   0  0  0  0  0  0  0  0  0  0  0  0
  146.9018  137.5552  156.1387 H   0  0  0  0  0  0  0  0  0  0  0  0
  147.6460  139.1351  156.0802 H   0  0  0  0  0  0  0  0  0  0  0  0
  147.9908  137.9522  154.8207 H   0  0  0  0  0  0  0  0  0  0  0  0
  152.2066  145.0295  157.5665 H   0  0  0  0  0  0  0  0  0  0  0  0
  145.4601  140.2642  153.3005 H   0  0  0  0  0  0  0  0  0  0  0  0
  1  2  1  0  0  0  0
  1 21  1  0  0  0  0
  1 22  1  0  0  0  0
  1 23  1  0  0  0  0
  2  3  1  0  0  0  0
  2 24  1  0  0  0  0
  2 25  1  0  0  0  0
  3 20  1  0  0  0  0
  3  4  1  0  0  0  0
  4  5  2  0  0  0  0
  4 26  1  0  0  0  0
  5  6  1  0  0  0  0
  5 19  1  0  0  0  0
  6  7  1  0  0  0  0
  6 27  1  0  0  0  0
  7  8  2  0  0  0  0
  7  9  1  0  0  0  0
  9 10  1  0  0  0  0
  9 28  1  0  0  0  0
 10 11  1  0  0  0  0
 10 29  1  0  0  0  0
 10 30  1  0  0  0  0
 11 12  1  0  0  0  0
 11 31  1  0  0  0  0
 11 32  1  0  0  0  0
 12 17  1  0  0  0  0
 12 13  1  0  0  0  0
 12 46  1  0  0  0  0
 13 14  1  0  0  0  0
 13 33  1  0  0  0  0
 13 34  1  0  0  0  0
 14 15  1  0  0  0  0
 14 35  1  0  0  0  0
 14 36  1  0  0  0  0
 15 16  1  0  0  0  0
 15 37  1  0  0  0  0
 15 38  1  0  0  0  0
 16 17  1  0  0  0  0
 16 39  1  0  0  0  0
 16 40  1  0  0  0  0
 17 18  1  0  0  0  0
 17 41  1  0  0  0  0
 18 42  1  0  0  0  0
 18 43  1  0  0  0  0
 18 44  1  0  0  0  0
 19 20  2  0  0  0  0
 19 45  1  0  0  0  0
M  CHG  1  12   1
M  END
> <s_m_source_file>
AV-unprocessed.smi

> <i_m_source_file_index>
1215

> <i_lp_mmshare_version>
43012

> <i_f3d_flags>
0

> <s_epik_input>
W0NIM11bQ0gyXW4xW2NIXWMoW2NIXW4xKVtOSF1DKD1PKVtOSF1bQ0gyXVtDSDJdTjJbQ0gyXVtDSDJdW0NIMl1bQ0gyXVtDQEhdMltDSDNd

> <s_epik_cmdline>
J2VwaWtfcHl0aG9uJywgJy1waCcsICc3LjAnLCAnLXRuJywgJzgnLCAnLW1hJywgJzIwMCcsICctbWV0YWxfYmluZGluZycsICctaW1hZScsICc8aW5maWxlLm1hZT4nLCAnLW9tYWUnLCAnPG91dGZpbGUubWFlPic=

> <r_lp_tautomer_probability>
1

> <r_epik_Ionization_Penalty>
0.00247187

> <r_epik_Ionization_Penalty_Charging>
0.00232067

> <r_epik_Ionization_Penalty_Neutral>
0.000151201

> <r_epik_State_Penalty>
0.00160128

> <r_epik_Charging_Adjusted_Penalty>
0.00392194

> <i_epik_Tot_Q>
1

> <i_epik_Tot_abs_Q>
1

> <r_epik_Metal_State_Penalty>
-0

> <b_epik_Metal_Only>
0

> <s_lp_Force_Field>
OPLS_2005

> <r_lp_Energy>
23.8911

> <b_lp_Chiralities_Consistent>
1

> <s_lp_Variant>
AV-unprocessed.smi:1215-2

> <Gold.Version>
5.8.1

> <Gold.Id.Protein>
6NUR|6NUR_protein|mol2

> <Gold.PLP.Fitness>
52.0331

> <Gold.PLP.PLP>
-41.4407

> <Gold.PLP.part.hbond>
-3.0000

> <Gold.PLP.part.metal>
0.0000

> <Gold.PLP.part.buried>
-2.4090

> <Gold.PLP.part.nonpolar>
-37.1920

> <Gold.PLP.part.repulsive>
0.2867

> <Gold.PLP.ligand.clash>
0.0000

> <Gold.PLP.ligand.torsion>
0.7270

> <Gold.PLP.Chemscore.Hbond>
4.0000

> <Gold.PLP.Chemscore.CHOScore>
0.0000

> <Gold.PLP.Chemscore.Metal>
0.0000

> <Gold.Chemscore.Hbonds>
donor molecule, donor type, donor heavy atom, donor atom, acceptor molecule, acceptor atom, score
      L1  H     6    27       P1  8028  1.00
      L1  H     9    28       P1  8028  1.00
      L1  H    12    46       P1 10175  2.00

> <Gold.PLP.Chemscore.Internal.Correction>
0.0464

> <Gold.Rescore>
     Score         DG    S(hbond)    S(metal)    S(lipo)     H(rot)  DE(clash)    DE(int)     intcor
     21.10     -21.95       2.92        0.00      92.27       1.59       0.06       0.78       ----

> <Gold.Chemscore.Fitness>
21.1024

> <Gold.Chemscore.DG>
-21.9451

> <Gold.Chemscore.ZeroCoef>
-5.4800

> <Gold.Chemscore.Hbond>
2.9169

> <Gold.Chemscore.Metal>
0.0000

> <Gold.Chemscore.Lipo>
92.2671

> <Gold.Chemscore.Internal_Hbond>
0.0000

> <Gold.Chemscore.DEClash>
0.0617

> <Gold.Chemscore.DEInternal>
0.7809

> <Gold.Chemscore.Rot>
1.5909

> <Gold.Chemscore.Internal.Correction>
   9.000000E+99

> <Gold.Chemscore.Hbonds>
donor molecule, donor type, donor heavy atom, donor atom, acceptor molecule, acceptor atom, score
      L1  H     6    27       P1  8028  0.98
      L1  H     9    28       P1  8028  0.94
      L1  H    12    46       P1 10175  0.98

> <Gold.Chemscore.Hbond.Weighted>
-9.7426

> <Gold.Chemscore.Metal.Weighted>
-0.0000

> <Gold.Chemscore.Lipo.Weighted>
-10.7953

> <Gold.Chemscore.Internal_Hbond.Weighted>
0.0000

> <Gold.Chemscore.DEClash.Weighted>
0.0617

> <Gold.Chemscore.DEInternal.Weighted>
0.7809

> <Gold.Chemscore.Rot.Weighted>
4.0728

> <Gold.Chemscore.Internal.Correction.Weighted>
   9.000000E+99

> <Gold.Protein.RotatedTorsions>
[ 6907 6896 6895 6894 ] final   14.44 input  -60.11 | X-H torsion
[ 7974 7965 7964 7962 ] final  -37.91 input  175.53 | X-H torsion
[ 8008 7997 7996 7995 ] final   -4.91 input   59.86 | X-H torsion
[ 10167 10162 10161 10158 ] final   59.87 input  -65.29 | X-H torsion
[ 10718 10713 10712 10709 ] final -149.19 input   66.30 | X-H torsion
[ 10763 10752 10751 10750 ] final  -92.48 input  -60.55 | X-H torsion
[ 11005 11000 10999 10996 ] final -154.08 input  -57.11 | X-H torsion

> <Gold.Protein.ActiveResidues>
 VAL166  LYS551  ARG553  GLY616  TRP617  ASP618  TYR619  PRO620  LYS621  CYS622 
 ASP623  PHE694  ASN695  SER759  ASP760  ASP761  ALA762  ILE779  LEU786  VAL792 
 PHE793  MET794  SER795  GLU796  ALA797  LYS798  CYS799  TRP800  GLU811  SER814 

> <Gold.Protein.RotatedAtoms>
  151.8022  135.0705  160.0401 H   0  0  0  0  0  0  0  0  0  0  0  0  # atno 6907 bound_to 6896
  152.3080  133.5719  159.5670 H   0  0  0  0  0  0  0  0  0  0  0  0  # atno 6908 bound_to 6896
  150.7306  134.0110  159.3711 H   0  0  0  0  0  0  0  0  0  0  0  0  # atno 6909 bound_to 6896
  146.0533  140.6450  142.9031 H   0  0  0  0  0  0  0  0  0  0  0  0  # atno 7974 bound_to 7965
  154.6094  140.2472  155.7688 H   0  0  0  0  0  0  0  0  0  0  0  0  # atno 8008 bound_to 7997
  156.2361  140.2949  156.0267 H   0  0  0  0  0  0  0  0  0  0  0  0  # atno 8009 bound_to 7997
  155.2077  140.0396  157.2918 H   0  0  0  0  0  0  0  0  0  0  0  0  # atno 8010 bound_to 7997
  140.1717  144.4270  150.6658 H   0  0  0  0  0  0  0  0  0  0  0  0  # atno 10167 bound_to 10162
  156.4299  130.8070  151.2297 H   0  0  0  0  0  0  0  0  0  0  0  0  # atno 10718 bound_to 10713
  154.6865  135.5230  153.8333 H   0  0  0  0  0  0  0  0  0  0  0  0  # atno 10763 bound_to 10752
  153.0601  135.6565  154.0492 H   0  0  0  0  0  0  0  0  0  0  0  0  # atno 10764 bound_to 10752
  154.0373  135.2980  155.3340 H   0  0  0  0  0  0  0  0  0  0  0  0  # atno 10765 bound_to 10752
  140.7012  134.3935  157.5209 H   0  0  0  0  0  0  0  0  0  0  0  0  # atno 11005 bound_to 11000
  144.7134  140.4124  143.7063 LP  0  0  0  0  0  0  0  0  0  0  0  0  # atno 17320 bound_to 7965
  145.6686  139.1595  143.2767 LP  0  0  0  0  0  0  0  0  0  0  0  0  # atno 17321 bound_to 7965
  140.6578  143.2242  151.5928 LP  0  0  0  0  0  0  0  0  0  0  0  0  # atno 17342 bound_to 10162
  139.5335  144.2848  152.1200 LP  0  0  0  0  0  0  0  0  0  0  0  0  # atno 17343 bound_to 10162
  157.7508  131.0201  150.3697 LP  0  0  0  0  0  0  0  0  0  0  0  0  # atno 17370 bound_to 10713
  156.4032  130.3920  149.6945 LP  0  0  0  0  0  0  0  0  0  0  0  0  # atno 17371 bound_to 10713
  139.8896  134.8826  156.2412 LP  0  0  0  0  0  0  0  0  0  0  0  0  # atno 17394 bound_to 11000
  141.0162  133.7067  156.1192 LP  0  0  0  0  0  0  0  0  0  0  0  0  # atno 17395 bound_to 11000

$$$$
