AV-unprocessed.smi:22|AV-procd|sdf|172|dock2
  -GOLD-   2262015423D 1   1.00000     0.00000
 Structure written by MMmdl.
 56 59  0  0  0  0  0  0  0  0  2 V2000
  144.1247  134.3524  152.6205 C   0  0  0  0  0  0  0  0  0  0  0  0
  144.9480  135.0778  151.6174 N   0  3  1  0  0  0  0  0  0  0  0  0
  144.4122  134.9258  150.2312 C   0  0  0  0  0  0  0  0  0  0  0  0
  144.1711  133.4650  149.8037 C   0  0  0  0  0  0  0  0  0  0  0  0
  143.8222  133.4062  148.4363 O   0  0  0  0  0  0  0  0  0  0  0  0
  145.2255  136.4849  152.0568 C   0  0  0  0  0  0  0  0  0  0  0  0
  146.2508  137.2566  151.1867 C   0  0  0  0  0  0  0  0  0  0  0  0
  146.5032  138.6736  151.7273 C   0  0  0  0  0  0  0  0  0  0  0  0
  146.9208  138.6346  153.1265 N   0  0  0  0  0  0  0  0  0  0  0  0
  147.4767  139.7869  153.5828 C   0  0  0  0  0  0  0  0  0  0  0  0
  146.8815  140.9800  153.3130 N   0  0  0  0  0  0  0  0  0  0  0  0
  147.4258  142.1208  153.7461 C   0  0  0  0  0  0  0  0  0  0  0  0
  148.5415  142.2954  154.4560 N   0  0  0  0  0  0  0  0  0  0  0  0
  149.1387  141.1032  154.7408 C   0  0  0  0  0  0  0  0  0  0  0  0
  148.6796  139.8147  154.3450 C   0  0  0  0  0  0  0  0  0  0  0  0
  149.5459  138.8386  154.8233 N   0  0  0  0  0  0  0  0  0  0  0  0
  150.4691  139.5118  155.4543 C   0  0  0  0  0  0  0  0  0  0  0  0
  150.2977  140.8777  155.4632 N   0  0  0  0  0  0  0  0  0  0  0  0
  151.1638  141.8660  156.0893 C   0  0  0  0  0  0  0  0  0  0  0  0
  150.6886  142.3114  157.4940 C   0  0  2  0  0  0  0  0  0  0  0  0
  149.3139  142.6452  157.4323 O   0  0  0  0  0  0  0  0  0  0  0  0
  151.4698  143.5185  158.0190 C   0  0  0  0  0  0  0  0  0  0  0  0
  152.3207  142.9379  159.1420 C   0  0  0  0  0  0  0  0  0  0  0  0
  151.4798  141.9346  159.6822 O   0  0  0  0  0  0  0  0  0  0  0  0
  150.9008  141.2431  158.5852 C   0  0  0  0  0  0  0  0  0  0  0  0
  146.0004  137.9281  154.0167 C   0  0  0  0  0  0  0  0  0  0  0  0
  145.7379  136.4992  153.5162 C   0  0  0  0  0  0  0  0  0  0  0  0
  143.0831  134.6724  152.5713 H   0  0  0  0  0  0  0  0  0  0  0  0
  144.4730  134.5216  153.6379 H   0  0  0  0  0  0  0  0  0  0  0  0
  144.1623  133.2751  152.4644 H   0  0  0  0  0  0  0  0  0  0  0  0
  143.4848  135.4932  150.1406 H   0  0  0  0  0  0  0  0  0  0  0  0
  145.1125  135.3426  149.5082 H   0  0  0  0  0  0  0  0  0  0  0  0
  145.0290  132.8236  150.0020 H   0  0  0  0  0  0  0  0  0  0  0  0
  143.3435  133.0511  150.3804 H   0  0  0  0  0  0  0  0  0  0  0  0
  144.3731  134.0079  147.9578 H   0  0  0  0  0  0  0  0  0  0  0  0
  144.2868  137.0402  152.0066 H   0  0  0  0  0  0  0  0  0  0  0  0
  147.1973  136.7151  151.1524 H   0  0  0  0  0  0  0  0  0  0  0  0
  145.8981  137.3524  150.1597 H   0  0  0  0  0  0  0  0  0  0  0  0
  147.2476  139.1658  151.1026 H   0  0  0  0  0  0  0  0  0  0  0  0
  145.5922  139.2685  151.6509 H   0  0  0  0  0  0  0  0  0  0  0  0
  146.8905  143.0225  153.4876 H   0  0  0  0  0  0  0  0  0  0  0  0
  151.3043  139.0245  155.9361 H   0  0  0  0  0  0  0  0  0  0  0  0
  152.1698  141.4484  156.1481 H   0  0  0  0  0  0  0  0  0  0  0  0
  151.2320  142.7285  155.4250 H   0  0  0  0  0  0  0  0  0  0  0  0
  149.1926  143.2910  156.7530 H   0  0  0  0  0  0  0  0  0  0  0  0
  152.0731  144.0119  157.2562 H   0  0  0  0  0  0  0  0  0  0  0  0
  150.7969  144.2693  158.4371 H   0  0  0  0  0  0  0  0  0  0  0  0
  153.2327  142.4847  158.7497 H   0  0  0  0  0  0  0  0  0  0  0  0
  152.5965  143.6813  159.8902 H   0  0  0  0  0  0  0  0  0  0  0  0
  149.9863  140.7240  158.8755 H   0  0  0  0  0  0  0  0  0  0  0  0
  151.6185  140.4887  158.2616 H   0  0  0  0  0  0  0  0  0  0  0  0
  146.4160  137.8854  155.0246 H   0  0  0  0  0  0  0  0  0  0  0  0
  145.0605  138.4788  154.0777 H   0  0  0  0  0  0  0  0  0  0  0  0
  145.0303  136.0228  154.1932 H   0  0  0  0  0  0  0  0  0  0  0  0
  146.6597  135.9194  153.5846 H   0  0  0  0  0  0  0  0  0  0  0  0
  145.8483  134.6192  151.5998 H   0  0  0  0  0  0  0  0  0  0  0  0
  1  2  1  0  0  0  0
  1 28  1  0  0  0  0
  1 29  1  0  0  0  0
  1 30  1  0  0  0  0
  2  3  1  0  0  0  0
  2  6  1  0  0  0  0
  2 56  1  0  0  0  0
  3  4  1  0  0  0  0
  3 31  1  0  0  0  0
  3 32  1  0  0  0  0
  4  5  1  0  0  0  0
  4 33  1  0  0  0  0
  4 34  1  0  0  0  0
  5 35  1  0  0  0  0
  6 27  1  0  0  0  0
  6  7  1  0  0  0  0
  6 36  1  0  0  0  0
  7  8  1  0  0  0  0
  7 37  1  0  0  0  0
  7 38  1  0  0  0  0
  8  9  1  0  0  0  0
  8 39  1  0  0  0  0
  8 40  1  0  0  0  0
  9 10  1  0  0  0  0
  9 26  1  0  0  0  0
 10 15  1  0  0  0  0
 10 11  2  0  0  0  0
 11 12  1  0  0  0  0
 12 13  2  0  0  0  0
 12 41  1  0  0  0  0
 13 14  1  0  0  0  0
 14 18  1  0  0  0  0
 14 15  2  0  0  0  0
 15 16  1  0  0  0  0
 16 17  2  0  0  0  0
 17 18  1  0  0  0  0
 17 42  1  0  0  0  0
 18 19  1  0  0  0  0
 19 20  1  0  0  0  0
 19 43  1  0  0  0  0
 19 44  1  0  0  0  0
 20 25  1  0  0  0  0
 20 21  1  0  0  0  0
 20 22  1  0  0  0  0
 21 45  1  0  0  0  0
 22 23  1  0  0  0  0
 22 46  1  0  0  0  0
 22 47  1  0  0  0  0
 23 24  1  0  0  0  0
 23 48  1  0  0  0  0
 23 49  1  0  0  0  0
 24 25  1  0  0  0  0
 25 50  1  0  0  0  0
 25 51  1  0  0  0  0
 26 27  1  0  0  0  0
 26 52  1  0  0  0  0
 26 53  1  0  0  0  0
 27 54  1  0  0  0  0
 27 55  1  0  0  0  0
M  CHG  1   2   1
M  END
> <s_m_source_file>
AV-unprocessed.smi

> <i_m_source_file_index>
22

> <i_lp_mmshare_version>
43012

> <i_f3d_flags>
0

> <s_epik_input>
W09IXVtDSDJdW0NIMl1OKFtDSDNdKVtDSF0xW0NIMl1bQ0gyXU4oW0NIMl1bQ0gyXTEpYyhuW2NIXW4yKWMoYzIzKW5bY0hdbjNbQ0gyXVtDQEBdNChbT0hdKVtDSDJdW0NIMl1PW0NIMl00

> <s_epik_cmdline>
J2VwaWtfcHl0aG9uJywgJy1waCcsICc3LjAnLCAnLXRuJywgJzgnLCAnLW1hJywgJzIwMCcsICctbWV0YWxfYmluZGluZycsICctaW1hZScsICc8aW5maWxlLm1hZT4nLCAnLW9tYWUnLCAnPG91dGZpbGUubWFlPic=

> <r_lp_tautomer_probability>
1

> <r_epik_Ionization_Penalty>
0.00317524

> <r_epik_Ionization_Penalty_Charging>
0.00191487

> <r_epik_Ionization_Penalty_Neutral>
0.00126037

> <r_epik_State_Penalty>
-0

> <r_epik_Charging_Adjusted_Penalty>
0.00191487

> <i_epik_Tot_Q>
1

> <i_epik_Tot_abs_Q>
1

> <r_epik_Metal_State_Penalty>
-0

> <b_epik_Metal_Only>
0

> <s_lp_Force_Field>
OPLS_2005

> <r_lp_Energy>
50.3895

> <b_lp_Chiralities_Consistent>
1

> <s_lp_Variant>
AV-unprocessed.smi:22-4

> <Gold.Version>
5.8.1

> <Gold.Id.Protein>
6NUR|6NUR_protein|mol2

> <Gold.PLP.Fitness>
47.9681

> <Gold.PLP.PLP>
-43.4493

> <Gold.PLP.part.hbond>
-4.1918

> <Gold.PLP.part.metal>
0.0000

> <Gold.PLP.part.buried>
-3.5271

> <Gold.PLP.part.nonpolar>
-39.2360

> <Gold.PLP.part.repulsive>
3.3640

> <Gold.PLP.ligand.clash>
0.0000

> <Gold.PLP.ligand.torsion>
1.0395

> <Gold.PLP.Chemscore.Hbond>
2.0000

> <Gold.PLP.Chemscore.CHOScore>
0.0000

> <Gold.PLP.Chemscore.Metal>
0.0000

> <Gold.Chemscore.Hbonds>
donor molecule, donor type, donor heavy atom, donor atom, acceptor molecule, acceptor atom, score
      L1  H     5    35       P1  7921  1.00
      L1  H    21    45       P1  8028  1.00

> <Gold.PLP.Chemscore.Internal.Correction>
0.5979

> <Gold.Rescore>
     Score         DG    S(hbond)    S(metal)    S(lipo)     H(rot)  DE(clash)    DE(int)     intcor
      9.51     -13.69       1.97        0.00      96.12       3.76       3.03       1.14       ----

> <Gold.Chemscore.Fitness>
9.5149

> <Gold.Chemscore.DG>
-13.6867

> <Gold.Chemscore.ZeroCoef>
-5.4800

> <Gold.Chemscore.Hbond>
1.9707

> <Gold.Chemscore.Metal>
0.0000

> <Gold.Chemscore.Lipo>
96.1188

> <Gold.Chemscore.Internal_Hbond>
0.0000

> <Gold.Chemscore.DEClash>
3.0314

> <Gold.Chemscore.DEInternal>
1.1405

> <Gold.Chemscore.Rot>
3.7583

> <Gold.Chemscore.Internal.Correction>
   9.000000E+99

> <Gold.Chemscore.Hbonds>
donor molecule, donor type, donor heavy atom, donor atom, acceptor molecule, acceptor atom, score
      L1  H     5    35       P1  7921  0.95
      L1  H    21    45       P1  8028  0.97

> <Gold.Chemscore.Hbond.Weighted>
-6.5821

> <Gold.Chemscore.Metal.Weighted>
-0.0000

> <Gold.Chemscore.Lipo.Weighted>
-11.2459

> <Gold.Chemscore.Internal_Hbond.Weighted>
0.0000

> <Gold.Chemscore.DEClash.Weighted>
3.0314

> <Gold.Chemscore.DEInternal.Weighted>
1.1405

> <Gold.Chemscore.Rot.Weighted>
9.6213

> <Gold.Chemscore.Internal.Correction.Weighted>
   9.000000E+99

> <Gold.Protein.RotatedTorsions>
[ 6907 6896 6895 6894 ] final   72.72 input  -60.11 | X-H torsion
[ 7974 7965 7964 7962 ] final  -50.08 input  175.53 | X-H torsion
[ 8008 7997 7996 7995 ] final   48.05 input   59.86 | X-H torsion
[ 10167 10162 10161 10158 ] final -140.91 input  -65.29 | X-H torsion
[ 10718 10713 10712 10709 ] final  109.02 input   66.30 | X-H torsion
[ 10763 10752 10751 10750 ] final   82.70 input  -60.55 | X-H torsion
[ 11005 11000 10999 10996 ] final  127.14 input  -57.11 | X-H torsion

> <Gold.Protein.ActiveResidues>
 VAL166  LYS551  ARG553  GLY616  TRP617  ASP618  TYR619  PRO620  LYS621  CYS622 
 ASP623  PHE694  ASN695  SER759  ASP760  ASP761  ALA762  ILE779  LEU786  VAL792 
 PHE793  MET794  SER795  GLU796  ALA797  LYS798  CYS799  TRP800  GLU811  SER814 

> <Gold.Protein.RotatedAtoms>
  152.4884  134.4529  159.9579 H   0  0  0  0  0  0  0  0  0  0  0  0  # atno 6907 bound_to 6896
  151.4520  133.3609  159.2804 H   0  0  0  0  0  0  0  0  0  0  0  0  # atno 6908 bound_to 6896
  150.9015  134.8451  159.7423 H   0  0  0  0  0  0  0  0  0  0  0  0  # atno 6909 bound_to 6896
  145.9337  140.7726  142.9586 H   0  0  0  0  0  0  0  0  0  0  0  0  # atno 7974 bound_to 7965
  155.3793  140.3428  155.4246 H   0  0  0  0  0  0  0  0  0  0  0  0  # atno 8008 bound_to 7997
  156.1619  140.1603  156.8630 H   0  0  0  0  0  0  0  0  0  0  0  0  # atno 8009 bound_to 7997
  154.5148  140.0781  156.8042 H   0  0  0  0  0  0  0  0  0  0  0  0  # atno 8010 bound_to 7997
  139.8236  143.7541  152.2666 H   0  0  0  0  0  0  0  0  0  0  0  0  # atno 10167 bound_to 10162
  157.6560  131.0905  150.6391 H   0  0  0  0  0  0  0  0  0  0  0  0  # atno 10718 bound_to 10713
  153.1226  135.4718  154.9220 H   0  0  0  0  0  0  0  0  0  0  0  0  # atno 10763 bound_to 10752
  154.7590  135.3126  154.8417 H   0  0  0  0  0  0  0  0  0  0  0  0  # atno 10764 bound_to 10752
  153.8978  135.6878  153.4810 H   0  0  0  0  0  0  0  0  0  0  0  0  # atno 10765 bound_to 10752
  139.9492  134.9625  156.8811 H   0  0  0  0  0  0  0  0  0  0  0  0  # atno 11005 bound_to 11000
  144.6768  140.2169  143.7371 LP  0  0  0  0  0  0  0  0  0  0  0  0  # atno 17320 bound_to 7965
  145.8392  139.2121  143.1837 LP  0  0  0  0  0  0  0  0  0  0  0  0  # atno 17321 bound_to 7965
  139.7726  144.7471  151.0202 LP  0  0  0  0  0  0  0  0  0  0  0  0  # atno 17342 bound_to 10162
  140.7811  143.4628  151.0254 LP  0  0  0  0  0  0  0  0  0  0  0  0  # atno 17343 bound_to 10162
  156.6698  130.4536  149.5661 LP  0  0  0  0  0  0  0  0  0  0  0  0  # atno 17370 bound_to 10713
  156.2006  130.6617  151.1163 LP  0  0  0  0  0  0  0  0  0  0  0  0  # atno 17371 bound_to 10713
  140.5760  134.0398  155.7447 LP  0  0  0  0  0  0  0  0  0  0  0  0  # atno 17394 bound_to 11000
  141.1151  133.9554  157.2838 LP  0  0  0  0  0  0  0  0  0  0  0  0  # atno 17395 bound_to 11000

$$$$
