AV-unprocessed.smi:3042|AV-procd|sdf|11600|dock3
  -GOLD-   2272016573D 1   1.00000     0.00000
 Structure written by MMmdl.
 33 34  0  0  0  0  0  0  0  0  2 V2000
  148.3158  142.2511  155.5076 N   0  3  0  0  0  0  0  0  0  0  0  0
  148.8846  141.1953  156.3653 C   0  0  0  0  0  0  0  0  0  0  0  0
  150.4073  141.0130  156.1355 C   0  0  1  0  0  0  0  0  0  0  0  0
  151.1610  141.6998  157.2738 C   0  0  0  0  0  0  0  0  0  0  0  0
  151.9770  140.9665  158.1637 C   0  0  0  0  0  0  0  0  0  0  0  0
  152.6406  141.6506  159.1997 C   0  0  0  0  0  0  0  0  0  0  0  0
  152.4652  143.0446  159.3031 C   0  0  0  0  0  0  0  0  0  0  0  0
  151.6887  143.7575  158.4591 N   0  0  0  0  0  0  0  0  0  0  0  0
  151.0568  143.0948  157.4674 C   0  0  0  0  0  0  0  0  0  0  0  0
  150.8369  139.6082  155.9730 N   0  0  0  0  0  0  0  0  0  0  0  0
  152.2381  139.5094  155.5464 C   0  0  0  0  0  0  0  0  0  0  0  0
  152.7014  138.0530  155.3740 C   0  0  0  0  0  0  0  0  0  0  0  0
  151.8579  137.3945  154.4380 O   0  0  0  0  0  0  0  0  0  0  0  0
  150.4937  137.4091  154.8372 C   0  0  0  0  0  0  0  0  0  0  0  0
  150.0184  138.8622  155.0127 C   0  0  0  0  0  0  0  0  0  0  0  0
  147.3361  142.3699  155.7223 H   0  0  0  0  0  0  0  0  0  0  0  0
  148.4188  141.9906  154.5373 H   0  0  0  0  0  0  0  0  0  0  0  0
  148.6765  141.4383  157.4079 H   0  0  0  0  0  0  0  0  0  0  0  0
  148.3323  140.2865  156.1314 H   0  0  0  0  0  0  0  0  0  0  0  0
  150.6579  141.5459  155.2166 H   0  0  0  0  0  0  0  0  0  0  0  0
  152.0923  139.8979  158.0554 H   0  0  0  0  0  0  0  0  0  0  0  0
  153.2710  141.1202  159.8982 H   0  0  0  0  0  0  0  0  0  0  0  0
  152.9601  143.6010  160.0850 H   0  0  0  0  0  0  0  0  0  0  0  0
  150.4445  143.6967  156.8121 H   0  0  0  0  0  0  0  0  0  0  0  0
  152.3748  140.0421  154.6041 H   0  0  0  0  0  0  0  0  0  0  0  0
  152.8967  139.9883  156.2703 H   0  0  0  0  0  0  0  0  0  0  0  0
  153.7281  138.0236  155.0090 H   0  0  0  0  0  0  0  0  0  0  0  0
  152.6846  137.5249  156.3288 H   0  0  0  0  0  0  0  0  0  0  0  0
  149.8959  136.9043  154.0784 H   0  0  0  0  0  0  0  0  0  0  0  0
  150.3723  136.8480  155.7654 H   0  0  0  0  0  0  0  0  0  0  0  0
  148.9810  138.8246  155.3403 H   0  0  0  0  0  0  0  0  0  0  0  0
  150.0296  139.3666  154.0453 H   0  0  0  0  0  0  0  0  0  0  0  0
  148.8055  143.1184  155.6764 H   0  0  0  0  0  0  0  0  0  0  0  0
  1  2  1  0  0  0  0
  1 16  1  0  0  0  0
  1 17  1  0  0  0  0
  1 33  1  0  0  0  0
  2  3  1  0  0  0  0
  2 18  1  0  0  0  0
  2 19  1  0  0  0  0
  3  4  1  0  0  0  0
  3 10  1  0  0  0  0
  3 20  1  0  0  0  0
  4  9  1  0  0  0  0
  4  5  2  0  0  0  0
  5  6  1  0  0  0  0
  5 21  1  0  0  0  0
  6  7  2  0  0  0  0
  6 22  1  0  0  0  0
  7  8  1  0  0  0  0
  7 23  1  0  0  0  0
  8  9  2  0  0  0  0
  9 24  1  0  0  0  0
 10 15  1  0  0  0  0
 10 11  1  0  0  0  0
 11 12  1  0  0  0  0
 11 25  1  0  0  0  0
 11 26  1  0  0  0  0
 12 13  1  0  0  0  0
 12 27  1  0  0  0  0
 12 28  1  0  0  0  0
 13 14  1  0  0  0  0
 14 15  1  0  0  0  0
 14 29  1  0  0  0  0
 14 30  1  0  0  0  0
 15 31  1  0  0  0  0
 15 32  1  0  0  0  0
M  CHG  1   1   1
M  END
> <s_m_source_file>
AV-unprocessed.smi

> <i_m_source_file_index>
3042

> <i_lp_mmshare_version>
43012

> <i_f3d_flags>
0

> <s_epik_input>
W0NIMl0xW0NIMl1PW0NIMl1bQ0gyXU4xW0NASF0oW0NIMl1bTkgyXSljMltjSF1bY0hdW2NIXW5bY0hdMg==

> <s_epik_cmdline>
J2VwaWtfcHl0aG9uJywgJy1waCcsICc3LjAnLCAnLXRuJywgJzgnLCAnLW1hJywgJzIwMCcsICctbWV0YWxfYmluZGluZycsICctaW1hZScsICc8aW5maWxlLm1hZT4nLCAnLW9tYWUnLCAnPG91dGZpbGUubWFlPic=

> <r_epik_Ionization_Penalty>
0.0112597

> <r_epik_Ionization_Penalty_Charging>
0.00794922

> <r_epik_Ionization_Penalty_Neutral>
0.00331052

> <r_epik_State_Penalty>
0.00596555

> <r_epik_Charging_Adjusted_Penalty>
0.0139148

> <i_epik_Tot_Q>
1

> <i_epik_Tot_abs_Q>
1

> <r_epik_Metal_State_Penalty>
0.00603286

> <b_epik_Metal_Only>
0

> <s_lp_Force_Field>
OPLS_2005

> <r_lp_Energy>
28.2789

> <b_lp_Chiralities_Consistent>
1

> <s_lp_Variant>
AV-unprocessed.smi:3042-2

> <Gold.Version>
5.8.1

> <Gold.Id.Protein>
6NUR|6NUR_protein|mol2

> <Gold.PLP.Fitness>
39.4910

> <Gold.PLP.PLP>
-29.6828

> <Gold.PLP.part.hbond>
-2.0000

> <Gold.PLP.part.metal>
0.0000

> <Gold.PLP.part.buried>
-1.7718

> <Gold.PLP.part.nonpolar>
-26.5360

> <Gold.PLP.part.repulsive>
0.3855

> <Gold.PLP.ligand.clash>
0.0000

> <Gold.PLP.ligand.torsion>
0.8105

> <Gold.PLP.Chemscore.Hbond>
2.7840

> <Gold.PLP.Chemscore.CHOScore>
1.0000

> <Gold.PLP.Chemscore.Metal>
0.0000

> <Gold.Chemscore.Hbonds>
donor molecule, donor type, donor heavy atom, donor atom, acceptor molecule, acceptor atom, score
      L1  H     1    33       P1  8028  2.00
      P1  H 10752 10763       L1    13  0.70
      L1  C     9    24       P1  8028  1.00

> <Gold.PLP.Chemscore.Internal.Correction>
0.0771

> <Gold.Rescore>
     Score         DG    S(hbond)    S(metal)    S(lipo)     H(rot)  DE(clash)    DE(int)     intcor
     15.33     -16.30       1.40        0.00      84.99       1.48       0.03       0.94       ----

> <Gold.Chemscore.Fitness>
15.3272

> <Gold.Chemscore.DG>
-16.2989

> <Gold.Chemscore.ZeroCoef>
-5.4800

> <Gold.Chemscore.Hbond>
1.3998

> <Gold.Chemscore.Metal>
0.0000

> <Gold.Chemscore.Lipo>
84.9911

> <Gold.Chemscore.Internal_Hbond>
0.0000

> <Gold.Chemscore.DEClash>
0.0289

> <Gold.Chemscore.DEInternal>
0.9428

> <Gold.Chemscore.Rot>
1.4846

> <Gold.Chemscore.Internal.Correction>
   9.000000E+99

> <Gold.Chemscore.Hbonds>
donor molecule, donor type, donor heavy atom, donor atom, acceptor molecule, acceptor atom, score
      L1  H     1    33       P1  8028  0.94
      P1  H 10752 10763       L1    13  0.17

> <Gold.Chemscore.Hbond.Weighted>
-4.6754

> <Gold.Chemscore.Metal.Weighted>
-0.0000

> <Gold.Chemscore.Lipo.Weighted>
-9.9440

> <Gold.Chemscore.Internal_Hbond.Weighted>
0.0000

> <Gold.Chemscore.DEClash.Weighted>
0.0289

> <Gold.Chemscore.DEInternal.Weighted>
0.9428

> <Gold.Chemscore.Rot.Weighted>
3.8005

> <Gold.Chemscore.Internal.Correction.Weighted>
   9.000000E+99

> <Gold.Protein.RotatedTorsions>
[ 6907 6896 6895 6894 ] final  111.97 input  -60.11 | X-H torsion
[ 7974 7965 7964 7962 ] final -133.63 input  175.53 | X-H torsion
[ 8008 7997 7996 7995 ] final   -7.48 input   59.86 | X-H torsion
[ 10167 10162 10161 10158 ] final  -50.51 input  -65.29 | X-H torsion
[ 10718 10713 10712 10709 ] final -174.92 input   66.30 | X-H torsion
[ 10763 10752 10751 10750 ] final   24.27 input  -60.55 | X-H torsion
[ 11005 11000 10999 10996 ] final   -4.64 input  -57.11 | X-H torsion

> <Gold.Protein.ActiveResidues>
 VAL166  LYS551  ARG553  GLY616  TRP617  ASP618  TYR619  PRO620  LYS621  CYS622 
 ASP623  PHE694  ASN695  SER759  ASP760  ASP761  ALA762  ILE779  LEU786  VAL792 
 PHE793  MET794  SER795  GLU796  ALA797  LYS798  CYS799  TRP800  GLU811  SER814 

> <Gold.Protein.RotatedAtoms>
  152.4942  133.8583  159.7236 H   0  0  0  0  0  0  0  0  0  0  0  0  # atno 6907 bound_to 6896
  150.9101  133.6999  159.2863 H   0  0  0  0  0  0  0  0  0  0  0  0  # atno 6908 bound_to 6896
  151.4411  135.1024  159.9723 H   0  0  0  0  0  0  0  0  0  0  0  0  # atno 6909 bound_to 6896
  144.9176  140.6973  143.4986 H   0  0  0  0  0  0  0  0  0  0  0  0  # atno 7974 bound_to 7965
  154.5834  140.2406  155.8021 H   0  0  0  0  0  0  0  0  0  0  0  0  # atno 8008 bound_to 7997
  156.2196  140.3002  155.9876 H   0  0  0  0  0  0  0  0  0  0  0  0  # atno 8009 bound_to 7997
  155.2500  140.0410  157.2976 H   0  0  0  0  0  0  0  0  0  0  0  0  # atno 8010 bound_to 7997
  140.6634  143.2655  151.4370 H   0  0  0  0  0  0  0  0  0  0  0  0  # atno 10167 bound_to 10162
  156.7921  130.9522  151.3120 H   0  0  0  0  0  0  0  0  0  0  0  0  # atno 10718 bound_to 10713
  153.0776  135.6609  154.0112 H   0  0  0  0  0  0  0  0  0  0  0  0  # atno 10763 bound_to 10752
  153.9742  135.2961  155.3426 H   0  0  0  0  0  0  0  0  0  0  0  0  # atno 10764 bound_to 10752
  154.7168  135.5181  153.8822 H   0  0  0  0  0  0  0  0  0  0  0  0  # atno 10765 bound_to 10752
  140.6825  133.9141  155.8564 H   0  0  0  0  0  0  0  0  0  0  0  0  # atno 11005 bound_to 11000
  145.3350  139.1748  143.4516 LP  0  0  0  0  0  0  0  0  0  0  0  0  # atno 17320 bound_to 7965
  146.3189  140.3384  142.8646 LP  0  0  0  0  0  0  0  0  0  0  0  0  # atno 17321 bound_to 7965
  139.5875  144.1573  152.2047 LP  0  0  0  0  0  0  0  0  0  0  0  0  # atno 17342 bound_to 10162
  140.0917  144.5615  150.7050 LP  0  0  0  0  0  0  0  0  0  0  0  0  # atno 17343 bound_to 10162
  157.6595  130.8954  149.9800 LP  0  0  0  0  0  0  0  0  0  0  0  0  # atno 17370 bound_to 10713
  156.1152  130.3648  149.9980 LP  0  0  0  0  0  0  0  0  0  0  0  0  # atno 17371 bound_to 10713
  141.0306  134.0761  157.4018 LP  0  0  0  0  0  0  0  0  0  0  0  0  # atno 17394 bound_to 11000
  139.8947  135.0137  156.6966 LP  0  0  0  0  0  0  0  0  0  0  0  0  # atno 17395 bound_to 11000

$$$$
