AV-unprocessed.smi:1965|AV-procd|sdf|7938|dock4
  -GOLD-   2272010103D 1   1.00000     0.00000
 Structure written by MMmdl.
 37 39  0  0  0  0  0  0  0  0  2 V2000
  145.2579  138.4386  153.1200 O   0  0  0  0  0  0  0  0  0  0  0  0
  146.1921  137.7488  152.7157 C   0  0  0  0  0  0  0  0  0  0  0  0
  147.4739  138.1360  152.8858 N   0  0  0  0  0  0  0  0  0  0  0  0
  148.0299  139.2963  153.4984 C   0  0  0  0  0  0  0  0  0  0  0  0
  149.2305  139.3549  154.0894 N   0  0  0  0  0  0  0  0  0  0  0  0
  149.5164  140.6321  154.5783 C   0  0  0  0  0  0  0  0  0  0  0  0
  148.5197  141.5451  154.3421 C   0  0  0  0  0  0  0  0  0  0  0  0
  147.1760  140.8331  153.4899 S   0  0  0  0  0  0  0  0  0  0  0  0
  146.0066  136.5774  152.0855 N   0  0  0  0  0  0  0  0  0  0  0  0
  144.7093  135.9973  151.7543 C   0  0  2  0  0  0  0  0  0  0  0  0
  143.9464  135.4929  152.9721 C   0  0  0  0  0  0  0  0  0  0  0  0
  142.9206  134.5318  152.3629 C   0  0  0  0  0  0  0  0  0  0  0  0
  143.5033  134.0284  151.0944 N   0  3  2  0  0  0  0  0  0  0  0  0
  143.5845  132.5452  151.0130 C   0  0  0  0  0  0  0  0  0  0  0  0
  144.5353  132.1070  149.8891 C   0  0  0  0  0  0  0  0  0  0  0  0
  145.9721  132.6030  150.1391 C   0  0  0  0  0  0  0  0  0  0  0  0
  146.0172  133.8421  151.0535 C   0  0  0  0  0  0  0  0  0  0  0  0
  144.7820  134.7541  150.8475 C   0  0  2  0  0  0  0  0  0  0  0  0
  148.1593  137.4597  152.5814 H   0  0  0  0  0  0  0  0  0  0  0  0
  150.4566  140.8041  155.0811 H   0  0  0  0  0  0  0  0  0  0  0  0
  148.4955  142.5900  154.6139 H   0  0  0  0  0  0  0  0  0  0  0  0
  146.8274  136.0687  151.7883 H   0  0  0  0  0  0  0  0  0  0  0  0
  144.0919  136.7546  151.2665 H   0  0  0  0  0  0  0  0  0  0  0  0
  144.6151  134.9458  153.6386 H   0  0  0  0  0  0  0  0  0  0  0  0
  143.4828  136.2959  153.5462 H   0  0  0  0  0  0  0  0  0  0  0  0
  142.6537  133.7364  153.0600 H   0  0  0  0  0  0  0  0  0  0  0  0
  142.0038  135.0696  152.1188 H   0  0  0  0  0  0  0  0  0  0  0  0
  143.9378  132.1345  151.9606 H   0  0  0  0  0  0  0  0  0  0  0  0
  142.5840  132.1438  150.8485 H   0  0  0  0  0  0  0  0  0  0  0  0
  144.5293  131.0215  149.7837 H   0  0  0  0  0  0  0  0  0  0  0  0
  144.1709  132.5068  148.9415 H   0  0  0  0  0  0  0  0  0  0  0  0
  146.5706  131.8103  150.5894 H   0  0  0  0  0  0  0  0  0  0  0  0
  146.4410  132.8285  149.1805 H   0  0  0  0  0  0  0  0  0  0  0  0
  146.0581  133.5210  152.0953 H   0  0  0  0  0  0  0  0  0  0  0  0
  146.9448  134.3840  150.8682 H   0  0  0  0  0  0  0  0  0  0  0  0
  144.7868  135.0812  149.8065 H   0  0  0  0  0  0  0  0  0  0  0  0
  142.8762  134.3232  150.3594 H   0  0  0  0  0  0  0  0  0  0  0  0
  1  2  2  0  0  0  0
  2  3  1  0  0  0  0
  2  9  1  0  0  0  0
  3  4  1  0  0  0  0
  3 19  1  0  0  0  0
  4  8  1  0  0  0  0
  4  5  2  0  0  0  0
  5  6  1  0  0  0  0
  6  7  2  0  0  0  0
  6 20  1  0  0  0  0
  7  8  1  0  0  0  0
  7 21  1  0  0  0  0
  9 10  1  0  0  0  0
  9 22  1  0  0  0  0
 10 18  1  0  0  0  0
 10 11  1  0  0  0  0
 10 23  1  0  0  0  0
 11 12  1  0  0  0  0
 11 24  1  0  0  0  0
 11 25  1  0  0  0  0
 12 13  1  0  0  0  0
 12 26  1  0  0  0  0
 12 27  1  0  0  0  0
 13 18  1  0  0  0  0
 13 14  1  0  0  0  0
 13 37  1  0  0  0  0
 14 15  1  0  0  0  0
 14 28  1  0  0  0  0
 14 29  1  0  0  0  0
 15 16  1  0  0  0  0
 15 30  1  0  0  0  0
 15 31  1  0  0  0  0
 16 17  1  0  0  0  0
 16 32  1  0  0  0  0
 16 33  1  0  0  0  0
 17 18  1  0  0  0  0
 17 34  1  0  0  0  0
 17 35  1  0  0  0  0
 18 36  1  0  0  0  0
M  CHG  1  13   1
M  END
> <s_m_source_file>
AV-unprocessed.smi

> <i_m_source_file_index>
1965

> <i_lp_mmshare_version>
43012

> <i_f3d_flags>
0

> <s_epik_input>
czFbY0hdW2NIXW5jMVtOSF1DKD1PKVtOSF1bQ0BIXShbQ0gyXVtDSDJdMilbQ0BASF0oTjIzKVtDSDJdW0NIMl1bQ0gyXVtDSDJdMw==

> <s_epik_cmdline>
J2VwaWtfcHl0aG9uJywgJy1waCcsICc3LjAnLCAnLXRuJywgJzgnLCAnLW1hJywgJzIwMCcsICctbWV0YWxfYmluZGluZycsICctaW1hZScsICc8aW5maWxlLm1hZT4nLCAnLW9tYWUnLCAnPG91dGZpbGUubWFlPic=

> <r_lp_tautomer_probability>
1

> <r_epik_Ionization_Penalty>
0.00125962

> <r_epik_Ionization_Penalty_Charging>
0.00107044

> <r_epik_Ionization_Penalty_Neutral>
0.000189176

> <r_epik_State_Penalty>
-0

> <r_epik_Charging_Adjusted_Penalty>
0.00107044

> <i_epik_Tot_Q>
1

> <i_epik_Tot_abs_Q>
1

> <r_epik_Metal_State_Penalty>
0.0179285

> <b_epik_Metal_Only>
0

> <s_lp_Force_Field>
OPLS_2005

> <r_lp_Energy>
41.6274

> <b_lp_Chiralities_Consistent>
1

> <s_lp_Variant>
AV-unprocessed.smi:1965-7

> <Gold.Version>
5.8.1

> <Gold.Id.Protein>
6NUR|6NUR_protein|mol2

> <Gold.PLP.Fitness>
46.8987

> <Gold.PLP.PLP>
-33.4574

> <Gold.PLP.part.hbond>
-3.0000

> <Gold.PLP.part.metal>
0.0000

> <Gold.PLP.part.buried>
-4.5427

> <Gold.PLP.part.nonpolar>
-29.9663

> <Gold.PLP.part.repulsive>
3.8684

> <Gold.PLP.ligand.clash>
0.0000

> <Gold.PLP.ligand.torsion>
0.2753

> <Gold.PLP.Chemscore.Hbond>
3.6630

> <Gold.PLP.Chemscore.CHOScore>
1.0000

> <Gold.PLP.Chemscore.Metal>
0.0000

> <Gold.Chemscore.Hbonds>
donor molecule, donor type, donor heavy atom, donor atom, acceptor molecule, acceptor atom, score
      L1  H     3    19       P1  7948  1.00
      L1  H     9    22       P1  7948  0.66
      L1  H    13    37       P1 10186  1.98
      L1  C     7    21       P1  8028  1.00

> <Gold.PLP.Chemscore.Internal.Correction>
0.0030

> <Gold.Rescore>
     Score         DG    S(hbond)    S(metal)    S(lipo)     H(rot)  DE(clash)    DE(int)     intcor
     18.00     -19.70       2.37        0.00      75.91       1.00       1.42       0.29       ----

> <Gold.Chemscore.Fitness>
17.9985

> <Gold.Chemscore.DG>
-19.7047

> <Gold.Chemscore.ZeroCoef>
-5.4800

> <Gold.Chemscore.Hbond>
2.3662

> <Gold.Chemscore.Metal>
0.0000

> <Gold.Chemscore.Lipo>
75.9100

> <Gold.Chemscore.Internal_Hbond>
0.0000

> <Gold.Chemscore.DEClash>
1.4197

> <Gold.Chemscore.DEInternal>
0.2866

> <Gold.Chemscore.Rot>
1.0000

> <Gold.Chemscore.Internal.Correction>
   9.000000E+99

> <Gold.Chemscore.Hbonds>
donor molecule, donor type, donor heavy atom, donor atom, acceptor molecule, acceptor atom, score
      L1  H     3    19       P1  7948  0.99
      L1  H     9    22       P1  7948  0.65
      L1  H    13    37       P1 10186  0.69

> <Gold.Chemscore.Hbond.Weighted>
-7.9033

> <Gold.Chemscore.Metal.Weighted>
-0.0000

> <Gold.Chemscore.Lipo.Weighted>
-8.8815

> <Gold.Chemscore.Internal_Hbond.Weighted>
0.0000

> <Gold.Chemscore.DEClash.Weighted>
1.4197

> <Gold.Chemscore.DEInternal.Weighted>
0.2866

> <Gold.Chemscore.Rot.Weighted>
2.5600

> <Gold.Chemscore.Internal.Correction.Weighted>
   9.000000E+99

> <Gold.Protein.RotatedTorsions>
[ 6907 6896 6895 6894 ] final  -45.03 input  -60.11 | X-H torsion
[ 7974 7965 7964 7962 ] final  -66.19 input  175.53 | X-H torsion
[ 8008 7997 7996 7995 ] final    7.95 input   59.86 | X-H torsion
[ 10167 10162 10161 10158 ] final  -99.84 input  -65.29 | X-H torsion
[ 10718 10713 10712 10709 ] final  -28.13 input   66.30 | X-H torsion
[ 10763 10752 10751 10750 ] final  -71.77 input  -60.55 | X-H torsion
[ 11005 11000 10999 10996 ] final    4.86 input  -57.11 | X-H torsion

> <Gold.Protein.ActiveResidues>
 VAL166  LYS551  ARG553  GLY616  TRP617  ASP618  TYR619  PRO620  LYS621  CYS622 
 ASP623  PHE694  ASN695  SER759  ASP760  ASP761  ALA762  ILE779  LEU786  VAL792 
 PHE793  MET794  SER795  GLU796  ALA797  LYS798  CYS799  TRP800  GLU811  SER814 

> <Gold.Protein.RotatedAtoms>
  150.9264  134.8680  159.7522 H   0  0  0  0  0  0  0  0  0  0  0  0  # atno 6907 bound_to 6896
  152.5017  134.4143  159.9469 H   0  0  0  0  0  0  0  0  0  0  0  0  # atno 6908 bound_to 6896
  151.4173  133.3669  159.2786 H   0  0  0  0  0  0  0  0  0  0  0  0  # atno 6909 bound_to 6896
  145.7449  140.8936  143.0510 H   0  0  0  0  0  0  0  0  0  0  0  0  # atno 7974 bound_to 7965
  154.7605  140.2783  155.6218 H   0  0  0  0  0  0  0  0  0  0  0  0  # atno 8008 bound_to 7997
  156.2914  140.2661  156.2309 H   0  0  0  0  0  0  0  0  0  0  0  0  # atno 8009 bound_to 7997
  155.0024  140.0372  157.2355 H   0  0  0  0  0  0  0  0  0  0  0  0  # atno 8010 bound_to 7997
  140.2582  143.3425  152.0650 H   0  0  0  0  0  0  0  0  0  0  0  0  # atno 10167 bound_to 10162
  156.4291  130.4441  149.7129 H   0  0  0  0  0  0  0  0  0  0  0  0  # atno 10718 bound_to 10713
  154.4363  135.5951  153.6101 H   0  0  0  0  0  0  0  0  0  0  0  0  # atno 10763 bound_to 10752
  152.9802  135.5987  154.3777 H   0  0  0  0  0  0  0  0  0  0  0  0  # atno 10764 bound_to 10752
  154.3621  135.2841  155.2292 H   0  0  0  0  0  0  0  0  0  0  0  0  # atno 10765 bound_to 10752
  140.5772  134.0047  155.8032 H   0  0  0  0  0  0  0  0  0  0  0  0  # atno 11005 bound_to 11000
  144.6862  139.9512  143.7478 LP  0  0  0  0  0  0  0  0  0  0  0  0  # atno 17320 bound_to 7965
  146.0412  139.3423  143.0696 LP  0  0  0  0  0  0  0  0  0  0  0  0  # atno 17321 bound_to 7965
  139.5025  144.6736  151.6184 LP  0  0  0  0  0  0  0  0  0  0  0  0  # atno 17342 bound_to 10162
  140.5987  143.9650  150.6371 LP  0  0  0  0  0  0  0  0  0  0  0  0  # atno 17343 bound_to 10162
  156.4039  130.7688  151.2698 LP  0  0  0  0  0  0  0  0  0  0  0  0  # atno 17370 bound_to 10713
  157.7508  131.0231  150.3821 LP  0  0  0  0  0  0  0  0  0  0  0  0  # atno 17371 bound_to 10713
  141.1019  133.9755  157.3064 LP  0  0  0  0  0  0  0  0  0  0  0  0  # atno 17394 bound_to 11000
  139.9334  135.0198  156.8476 LP  0  0  0  0  0  0  0  0  0  0  0  0  # atno 17395 bound_to 11000

$$$$
