AV-unprocessed.smi:72|AV-procd|sdf|751|dock8
  -GOLD-   2262017 83D 1   1.00000     0.00000
 Structure written by MMmdl.
 29 30  0  0  0  0  0  0  0  0  1 V2000
  149.6211  138.4320  153.2383 N   0  0  0  0  0  0  0  0  0  0  0  0
  149.8861  138.9951  154.4693 C   0  0  0  0  0  0  0  0  0  0  0  0
  150.0634  140.3856  154.4938 N   0  0  0  0  0  0  0  0  0  0  0  0
  150.3053  140.9188  155.6494 C   0  0  0  0  0  0  0  0  0  0  0  0
  150.3780  140.1091  156.8526 N   0  0  0  0  0  0  0  0  0  0  0  0
  150.6624  140.7344  158.2028 C   0  0  2  0  0  0  0  0  0  0  0  0
  150.3579  142.0922  158.1412 O   0  0  0  0  0  0  0  0  0  0  0  0
  151.2105  142.7890  159.0361 C   0  0  2  0  0  0  0  0  0  0  0  0
  151.2680  144.2765  158.6553 C   0  0  0  0  0  0  0  0  0  0  0  0
  151.2963  144.4186  157.2511 O   0  0  0  0  0  0  0  0  0  0  0  0
  152.5474  142.0601  158.8614 C   0  0  1  0  0  0  0  0  0  0  0  0
  153.3350  142.1970  160.0278 O   0  0  0  0  0  0  0  0  0  0  0  0
  152.1363  140.6050  158.6518 C   0  0  2  0  0  0  0  0  0  0  0  0
  152.9867  139.9763  157.7094 O   0  0  0  0  0  0  0  0  0  0  0  0
  150.2098  138.7013  156.7523 C   0  0  0  0  0  0  0  0  0  0  0  0
  150.3056  137.9918  157.7538 O   0  0  0  0  0  0  0  0  0  0  0  0
  149.9460  138.1770  155.4810 N   0  0  0  0  0  0  0  0  0  0  0  0
  149.9693  140.2801  158.9126 H   0  0  0  0  0  0  0  0  0  0  0  0
  150.8428  142.6535  160.0559 H   0  0  0  0  0  0  0  0  0  0  0  0
  153.0777  142.4468  157.9892 H   0  0  0  0  0  0  0  0  0  0  0  0
  152.1498  140.0420  159.5863 H   0  0  0  0  0  0  0  0  0  0  0  0
  149.4771  137.4423  153.0995 H   0  0  0  0  0  0  0  0  0  0  0  0
  149.5529  138.9667  152.3845 H   0  0  0  0  0  0  0  0  0  0  0  0
  150.4727  141.9873  155.7929 H   0  0  0  0  0  0  0  0  0  0  0  0
  150.3768  144.7906  159.0163 H   0  0  0  0  0  0  0  0  0  0  0  0
  152.1303  144.7683  159.1063 H   0  0  0  0  0  0  0  0  0  0  0  0
  150.4434  144.7036  156.9608 H   0  0  0  0  0  0  0  0  0  0  0  0
  154.2400  142.0543  159.7969 H   0  0  0  0  0  0  0  0  0  0  0  0
  152.7162  139.0756  157.6156 H   0  0  0  0  0  0  0  0  0  0  0  0
  1  2  1  0  0  0  0
  1 22  1  0  0  0  0
  1 23  1  0  0  0  0
  2 17  2  0  0  0  0
  2  3  1  0  0  0  0
  3  4  2  0  0  0  0
  4  5  1  0  0  0  0
  4 24  1  0  0  0  0
  5  6  1  0  0  0  0
  5 15  1  0  0  0  0
  6 18  1  0  0  0  0
  6 13  1  0  0  0  0
  6  7  1  0  0  0  0
  7  8  1  0  0  0  0
  8 19  1  0  0  0  0
  8  9  1  0  0  0  0
  8 11  1  0  0  0  0
  9 10  1  0  0  0  0
  9 25  1  0  0  0  0
  9 26  1  0  0  0  0
 10 27  1  0  0  0  0
 11 20  1  0  0  0  0
 11 12  1  0  0  0  0
 11 13  1  0  0  0  0
 12 28  1  0  0  0  0
 13 21  1  0  0  0  0
 13 14  1  0  0  0  0
 14 29  1  0  0  0  0
 15 16  2  0  0  0  0
 15 17  1  0  0  0  0
M  END
> <s_m_source_file>
AV-unprocessed.smi

> <i_m_source_file_index>
72

> <i_lp_mmshare_version>
43012

> <i_f3d_flags>
0

> <s_epik_input>
W05IMl1jMW5bY0hdbihjKD1PKW4xKVtDQEBIXTJPW0NASF0oW0NIMl1bT0hdKVtDQEBIXShbT0hdKVtDQEhdMltPSF0=

> <s_epik_cmdline>
J2VwaWtfcHl0aG9uJywgJy1waCcsICc3LjAnLCAnLXRuJywgJzgnLCAnLW1hJywgJzIwMCcsICctbWV0YWxfYmluZGluZycsICctaW1hZScsICc8aW5maWxlLm1hZT4nLCAnLW9tYWUnLCAnPG91dGZpbGUubWFlPic=

> <r_lp_tautomer_probability>
4.77166e-05

> <r_epik_Ionization_Penalty>
1.3546

> <r_epik_Ionization_Penalty_Charging>
1.46833e-10

> <r_epik_Ionization_Penalty_Neutral>
1.3546

> <r_epik_State_Penalty>
3.51908

> <r_epik_Charging_Adjusted_Penalty>
3.51908

> <i_epik_Tot_Q>
0

> <i_epik_Tot_abs_Q>
0

> <r_epik_Metal_State_Penalty>
3.44088

> <b_epik_Metal_Only>
1

> <s_epik_Chemistry_Notes>
This compound contains an acetal/aminal-like group ( X-CH(R)-Y where X, Y are N, S, or O) that may be acid/base labile, releasing an aldehyde.

> <s_lp_Force_Field>
OPLS_2005

> <r_lp_Energy>
32.6436

> <b_lp_Chiralities_Consistent>
1

> <s_lp_Variant>
AV-unprocessed.smi:72-89

> <Gold.Version>
5.8.1

> <Gold.Id.Protein>
6NUR|6NUR_protein|mol2

> <Gold.PLP.Fitness>
39.0366

> <Gold.PLP.PLP>
-25.7667

> <Gold.PLP.part.hbond>
-5.1888

> <Gold.PLP.part.metal>
0.0000

> <Gold.PLP.part.buried>
-3.6812

> <Gold.PLP.part.nonpolar>
-16.2121

> <Gold.PLP.part.repulsive>
0.3476

> <Gold.PLP.ligand.clash>
0.0000

> <Gold.PLP.ligand.torsion>
0.7170

> <Gold.PLP.Chemscore.Hbond>
4.8080

> <Gold.PLP.Chemscore.CHOScore>
0.0000

> <Gold.PLP.Chemscore.Metal>
0.0000

> <Gold.Chemscore.Hbonds>
donor molecule, donor type, donor heavy atom, donor atom, acceptor molecule, acceptor atom, score
      L1  H     1    22       P1  7948  0.83
      L1  H     1    23       P1  7957  1.00
      L1  H    10    27       P1  8028  1.00
      P1  H  7989  7998       L1     3  0.93
      P1  H  7997  8008       L1    14  1.00

> <Gold.PLP.Chemscore.Internal.Correction>
0.2798

> <Gold.Rescore>
     Score         DG    S(hbond)    S(metal)    S(lipo)     H(rot)  DE(clash)    DE(int)     intcor
     10.29     -10.93       3.41        0.00      38.00       4.06       0.09       0.55       ----

> <Gold.Chemscore.Fitness>
10.2926

> <Gold.Chemscore.DG>
-10.9313

> <Gold.Chemscore.ZeroCoef>
-5.4800

> <Gold.Chemscore.Hbond>
3.4128

> <Gold.Chemscore.Metal>
0.0000

> <Gold.Chemscore.Lipo>
38.0017

> <Gold.Chemscore.Internal_Hbond>
0.0000

> <Gold.Chemscore.DEClash>
0.0908

> <Gold.Chemscore.DEInternal>
0.5479

> <Gold.Chemscore.Rot>
4.0600

> <Gold.Chemscore.Internal.Correction>
   9.000000E+99

> <Gold.Chemscore.Hbonds>
donor molecule, donor type, donor heavy atom, donor atom, acceptor molecule, acceptor atom, score
      L1  H     1    22       P1  7948  0.73
      L1  H     1    23       P1  7957  0.78
      L1  H    10    27       P1  8028  0.66
      P1  H  7989  7998       L1     3  0.25
      P1  H  7997  8008       L1    14  0.49

> <Gold.Chemscore.Hbond.Weighted>
-11.3987

> <Gold.Chemscore.Metal.Weighted>
-0.0000

> <Gold.Chemscore.Lipo.Weighted>
-4.4462

> <Gold.Chemscore.Internal_Hbond.Weighted>
0.0000

> <Gold.Chemscore.DEClash.Weighted>
0.0908

> <Gold.Chemscore.DEInternal.Weighted>
0.5479

> <Gold.Chemscore.Rot.Weighted>
10.3936

> <Gold.Chemscore.Internal.Correction.Weighted>
   9.000000E+99

> <Gold.Protein.RotatedTorsions>
[ 6907 6896 6895 6894 ] final -141.70 input  -60.11 | X-H torsion
[ 7974 7965 7964 7962 ] final -113.96 input  175.53 | X-H torsion
[ 8008 7997 7996 7995 ] final  -77.43 input   59.86 | X-H torsion
[ 10167 10162 10161 10158 ] final  -67.19 input  -65.29 | X-H torsion
[ 10718 10713 10712 10709 ] final -174.32 input   66.30 | X-H torsion
[ 10763 10752 10751 10750 ] final  -36.16 input  -60.55 | X-H torsion
[ 11005 11000 10999 10996 ] final  -42.31 input  -57.11 | X-H torsion

> <Gold.Protein.ActiveResidues>
 VAL166  LYS551  ARG553  GLY616  TRP617  ASP618  TYR619  PRO620  LYS621  CYS622 
 ASP623  PHE694  ASN695  SER759  ASP760  ASP761  ALA762  ILE779  LEU786  VAL792 
 PHE793  MET794  SER795  GLU796  ALA797  LYS798  CYS799  TRP800  GLU811  SER814 

> <Gold.Protein.RotatedAtoms>
  151.0773  133.5418  159.2622 H   0  0  0  0  0  0  0  0  0  0  0  0  # atno 6907 bound_to 6896
  151.2335  135.0562  159.9007 H   0  0  0  0  0  0  0  0  0  0  0  0  # atno 6908 bound_to 6896
  152.5419  134.0558  159.8184 H   0  0  0  0  0  0  0  0  0  0  0  0  # atno 6909 bound_to 6896
  145.1258  140.8696  143.3787 H   0  0  0  0  0  0  0  0  0  0  0  0  # atno 7974 bound_to 7965
  154.5596  140.0710  156.8797 H   0  0  0  0  0  0  0  0  0  0  0  0  # atno 8008 bound_to 7997
  155.2837  140.3373  155.4238 H   0  0  0  0  0  0  0  0  0  0  0  0  # atno 8009 bound_to 7997
  156.2031  140.1729  156.7844 H   0  0  0  0  0  0  0  0  0  0  0  0  # atno 8010 bound_to 7997
  140.5601  143.2312  151.6744 H   0  0  0  0  0  0  0  0  0  0  0  0  # atno 10167 bound_to 10162
  156.7834  130.9491  151.3120 H   0  0  0  0  0  0  0  0  0  0  0  0  # atno 10718 bound_to 10713
  153.8752  135.6827  153.4771 H   0  0  0  0  0  0  0  0  0  0  0  0  # atno 10763 bound_to 10752
  153.1264  135.4717  154.9277 H   0  0  0  0  0  0  0  0  0  0  0  0  # atno 10764 bound_to 10752
  154.7695  135.3234  154.8170 H   0  0  0  0  0  0  0  0  0  0  0  0  # atno 10765 bound_to 10752
  141.0307  133.6821  156.2577 H   0  0  0  0  0  0  0  0  0  0  0  0  # atno 11005 bound_to 11000
  145.0690  139.3046  143.5842 LP  0  0  0  0  0  0  0  0  0  0  0  0  # atno 17320 bound_to 7965
  146.3518  140.0158  142.8663 LP  0  0  0  0  0  0  0  0  0  0  0  0  # atno 17321 bound_to 7965
  139.5066  144.3676  152.0502 LP  0  0  0  0  0  0  0  0  0  0  0  0  # atno 17342 bound_to 10162
  140.2801  144.3869  150.6122 LP  0  0  0  0  0  0  0  0  0  0  0  0  # atno 17343 bound_to 10162
  157.6635  130.8987  149.9882 LP  0  0  0  0  0  0  0  0  0  0  0  0  # atno 17370 bound_to 10713
  156.1204  130.3646  149.9897 LP  0  0  0  0  0  0  0  0  0  0  0  0  # atno 17371 bound_to 10713
  140.6412  134.5164  157.5569 LP  0  0  0  0  0  0  0  0  0  0  0  0  # atno 17394 bound_to 11000
  139.9206  134.8157  156.1225 LP  0  0  0  0  0  0  0  0  0  0  0  0  # atno 17395 bound_to 11000

$$$$
