AV-unprocessed.smi:212|AV-procd|sdf|1631|dock1
  -GOLD-   2262019583D 1   1.00000     0.00000
 Structure written by MMmdl.
 65 68  0  0  0  0  0  0  0  0  2 V2000
  143.6014  137.2019  152.5723 C   0  0  0  0  0  0  0  0  0  0  0  0
  145.0561  137.0214  153.0386 C   0  0  2  0  0  0  0  0  0  0  0  0
  145.7826  135.9039  152.2614 C   0  0  0  0  0  0  0  0  0  0  0  0
  145.2954  134.5561  152.6579 N   0  3  1  0  0  0  0  0  0  0  0  0
  145.8749  133.4571  151.8416 C   0  0  0  0  0  0  0  0  0  0  0  0
  145.0474  133.1643  150.5678 C   0  0  0  0  0  0  0  0  0  0  0  0
  145.7687  132.1235  149.6950 C   0  0  0  0  0  0  0  0  0  0  0  0
  143.6208  132.6869  150.8963 C   0  0  0  0  0  0  0  0  0  0  0  0
  144.9533  134.3436  149.7938 O   0  0  0  0  0  0  0  0  0  0  0  0
  145.4140  134.3269  154.1197 C   0  0  0  0  0  0  0  0  0  0  0  0
  144.6992  135.4371  154.9121 C   0  0  0  0  0  0  0  0  0  0  0  0
  145.1352  136.7662  154.4795 N   0  0  0  0  0  0  0  0  0  0  0  0
  146.1684  137.3606  155.1334 C   0  0  0  0  0  0  0  0  0  0  0  0
  146.5484  136.9067  156.3577 N   0  0  0  0  0  0  0  0  0  0  0  0
  147.5709  137.4755  157.0031 C   0  0  0  0  0  0  0  0  0  0  0  0
  148.3388  138.4948  156.6150 N   0  0  0  0  0  0  0  0  0  0  0  0
  147.9583  138.9613  155.3916 C   0  0  0  0  0  0  0  0  0  0  0  0
  146.8941  138.4589  154.5905 C   0  0  0  0  0  0  0  0  0  0  0  0
  146.7984  139.1961  153.4156 N   0  0  0  0  0  0  0  0  0  0  0  0
  147.7538  140.0800  153.5143 C   0  0  0  0  0  0  0  0  0  0  0  0
  148.4976  140.0115  154.6701 N   0  0  0  0  0  0  0  0  0  0  0  0
  149.6094  140.8701  155.0369 C   0  0  0  0  0  0  0  0  0  0  0  0
  150.3284  140.4361  156.3444 C   0  0  1  0  0  0  0  0  0  0  0  0
  151.7623  139.8980  156.1138 C   0  0  0  0  0  0  0  0  0  0  0  0
  151.8831  139.2189  154.8806 O   0  0  0  0  0  0  0  0  0  0  0  0
  150.3459  141.5433  157.4321 C   0  0  1  0  0  0  0  0  0  0  0  0
  150.9191  141.1613  158.7957 C   0  0  0  0  0  0  0  0  0  0  0  0
  151.6003  142.4442  159.2851 C   0  0  0  0  0  0  0  0  0  0  0  0
  151.2200  143.4523  158.3581 O   0  0  0  0  0  0  0  0  0  0  0  0
  151.0962  142.8316  157.0901 C   0  0  0  0  0  0  0  0  0  0  0  0
  143.5619  137.4537  151.5123 H   0  0  0  0  0  0  0  0  0  0  0  0
  143.1164  138.0112  153.1188 H   0  0  0  0  0  0  0  0  0  0  0  0
  143.0077  136.2992  152.7168 H   0  0  0  0  0  0  0  0  0  0  0  0
  145.5718  137.9508  152.7995 H   0  0  0  0  0  0  0  0  0  0  0  0
  145.6559  136.0555  151.1895 H   0  0  0  0  0  0  0  0  0  0  0  0
  146.8545  135.9621  152.4581 H   0  0  0  0  0  0  0  0  0  0  0  0
  146.9114  133.6847  151.5857 H   0  0  0  0  0  0  0  0  0  0  0  0
  145.9193  132.5427  152.4359 H   0  0  0  0  0  0  0  0  0  0  0  0
  145.8793  131.1748  150.2216 H   0  0  0  0  0  0  0  0  0  0  0  0
  146.7675  132.4610  149.4148 H   0  0  0  0  0  0  0  0  0  0  0  0
  145.2193  131.9244  148.7739 H   0  0  0  0  0  0  0  0  0  0  0  0
  143.6399  131.7819  151.5041 H   0  0  0  0  0  0  0  0  0  0  0  0
  143.0597  132.4601  149.9888 H   0  0  0  0  0  0  0  0  0  0  0  0
  143.0555  133.4409  151.4452 H   0  0  0  0  0  0  0  0  0  0  0  0
  145.5231  134.2589  149.0442 H   0  0  0  0  0  0  0  0  0  0  0  0
  144.9777  133.3614  154.3787 H   0  0  0  0  0  0  0  0  0  0  0  0
  146.4693  134.2826  154.3922 H   0  0  0  0  0  0  0  0  0  0  0  0
  143.6228  135.3619  154.7574 H   0  0  0  0  0  0  0  0  0  0  0  0
  144.8521  135.3026  155.9837 H   0  0  0  0  0  0  0  0  0  0  0  0
  147.8082  137.0532  157.9686 H   0  0  0  0  0  0  0  0  0  0  0  0
  147.9402  140.8162  152.7457 H   0  0  0  0  0  0  0  0  0  0  0  0
  150.3053  140.8953  154.1992 H   0  0  0  0  0  0  0  0  0  0  0  0
  149.2117  141.8793  155.1329 H   0  0  0  0  0  0  0  0  0  0  0  0
  149.7465  139.6171  156.7708 H   0  0  0  0  0  0  0  0  0  0  0  0
  152.4936  140.7054  156.1617 H   0  0  0  0  0  0  0  0  0  0  0  0
  152.0329  139.1828  156.8912 H   0  0  0  0  0  0  0  0  0  0  0  0
  151.1659  138.6083  154.8026 H   0  0  0  0  0  0  0  0  0  0  0  0
  149.3114  141.8464  157.6040 H   0  0  0  0  0  0  0  0  0  0  0  0
  150.1239  140.8469  159.4725 H   0  0  0  0  0  0  0  0  0  0  0  0
  151.6426  140.3489  158.7449 H   0  0  0  0  0  0  0  0  0  0  0  0
  151.3061  142.7138  160.2995 H   0  0  0  0  0  0  0  0  0  0  0  0
  152.6852  142.3311  159.2647 H   0  0  0  0  0  0  0  0  0  0  0  0
  152.0944  142.6488  156.6932 H   0  0  0  0  0  0  0  0  0  0  0  0
  150.5530  143.4617  156.3855 H   0  0  0  0  0  0  0  0  0  0  0  0
  144.3049  134.5479  152.4607 H   0  0  0  0  0  0  0  0  0  0  0  0
  1  2  1  0  0  0  0
  1 31  1  0  0  0  0
  1 32  1  0  0  0  0
  1 33  1  0  0  0  0
  2 12  1  0  0  0  0
  2  3  1  0  0  0  0
  2 34  1  0  0  0  0
  3  4  1  0  0  0  0
  3 35  1  0  0  0  0
  3 36  1  0  0  0  0
  4  5  1  0  0  0  0
  4 10  1  0  0  0  0
  4 65  1  0  0  0  0
  5  6  1  0  0  0  0
  5 37  1  0  0  0  0
  5 38  1  0  0  0  0
  6  7  1  0  0  0  0
  6  8  1  0  0  0  0
  6  9  1  0  0  0  0
  7 39  1  0  0  0  0
  7 40  1  0  0  0  0
  7 41  1  0  0  0  0
  8 42  1  0  0  0  0
  8 43  1  0  0  0  0
  8 44  1  0  0  0  0
  9 45  1  0  0  0  0
 10 11  1  0  0  0  0
 10 46  1  0  0  0  0
 10 47  1  0  0  0  0
 11 12  1  0  0  0  0
 11 48  1  0  0  0  0
 11 49  1  0  0  0  0
 12 13  1  0  0  0  0
 13 18  1  0  0  0  0
 13 14  2  0  0  0  0
 14 15  1  0  0  0  0
 15 16  2  0  0  0  0
 15 50  1  0  0  0  0
 16 17  1  0  0  0  0
 17 21  1  0  0  0  0
 17 18  2  0  0  0  0
 18 19  1  0  0  0  0
 19 20  2  0  0  0  0
 20 21  1  0  0  0  0
 20 51  1  0  0  0  0
 21 22  1  0  0  0  0
 22 23  1  0  0  0  0
 22 52  1  0  0  0  0
 22 53  1  0  0  0  0
 23 24  1  0  0  0  0
 23 26  1  0  0  0  0
 23 54  1  0  0  0  0
 24 25  1  0  0  0  0
 24 55  1  0  0  0  0
 24 56  1  0  0  0  0
 25 57  1  0  0  0  0
 26 30  1  0  0  0  0
 26 27  1  0  0  0  0
 26 58  1  0  0  0  0
 27 28  1  0  0  0  0
 27 59  1  0  0  0  0
 27 60  1  0  0  0  0
 28 29  1  0  0  0  0
 28 61  1  0  0  0  0
 28 62  1  0  0  0  0
 29 30  1  0  0  0  0
 30 63  1  0  0  0  0
 30 64  1  0  0  0  0
M  CHG  1   4   1
M  END
> <s_m_source_file>
AV-unprocessed.smi

> <i_m_source_file_index>
212

> <i_lp_mmshare_version>
43012

> <i_f3d_flags>
0

> <s_epik_input>
W0NIM11bQ0BASF0xW0NIMl1OKFtDSDJdQyhbQ0gzXSkoW0NIM10pW09IXSlbQ0gyXVtDSDJdTjFjKG5bY0hdbjIpYyhjMjMpbltjSF1uM1tDSDJdW0NASF0oW0NIMl1bT0hdKVtDQEBIXTRbQ0gyXVtDSDJdT1tDSDJdNA==

> <s_epik_cmdline>
J2VwaWtfcHl0aG9uJywgJy1waCcsICc3LjAnLCAnLXRuJywgJzgnLCAnLW1hJywgJzIwMCcsICctbWV0YWxfYmluZGluZycsICctaW1hZScsICc8aW5maWxlLm1hZT4nLCAnLW9tYWUnLCAnPG91dGZpbGUubWFlPic=

> <r_lp_tautomer_probability>
1

> <r_epik_Ionization_Penalty>
0.00182193

> <r_epik_Ionization_Penalty_Charging>
0.00173996

> <r_epik_Ionization_Penalty_Neutral>
8.19718e-05

> <r_epik_State_Penalty>
-0

> <r_epik_Charging_Adjusted_Penalty>
0.00173996

> <i_epik_Tot_Q>
1

> <i_epik_Tot_abs_Q>
1

> <r_epik_Metal_State_Penalty>
-0

> <b_epik_Metal_Only>
0

> <s_lp_Force_Field>
OPLS_2005

> <r_lp_Energy>
59.1595

> <b_lp_Chiralities_Consistent>
1

> <s_lp_Variant>
AV-unprocessed.smi:212-15

> <Gold.Version>
5.8.1

> <Gold.Id.Protein>
6NUR|6NUR_protein|mol2

> <Gold.PLP.Fitness>
44.2942

> <Gold.PLP.PLP>
-38.4957

> <Gold.PLP.part.hbond>
-2.0000

> <Gold.PLP.part.metal>
0.0000

> <Gold.PLP.part.buried>
-4.4516

> <Gold.PLP.part.nonpolar>
-32.2616

> <Gold.PLP.part.repulsive>
0.3143

> <Gold.PLP.ligand.clash>
0.0000

> <Gold.PLP.ligand.torsion>
1.6022

> <Gold.PLP.Chemscore.Hbond>
1.9600

> <Gold.PLP.Chemscore.CHOScore>
0.5810

> <Gold.PLP.Chemscore.Metal>
0.0000

> <Gold.Chemscore.Hbonds>
donor molecule, donor type, donor heavy atom, donor atom, acceptor molecule, acceptor atom, score
      L1  H     9    45       P1  7921  1.00
      P1  H  7989  7998       L1    25  0.70
      L1  C    20    51       P1  7957  0.64

> <Gold.PLP.Chemscore.Internal.Correction>
1.3799

> <Gold.Rescore>
     Score         DG    S(hbond)    S(metal)    S(lipo)     H(rot)  DE(clash)    DE(int)     intcor
      8.31     -12.99       1.40        0.00      98.44       3.40       0.13       4.55       ----

> <Gold.Chemscore.Fitness>
8.3126

> <Gold.Chemscore.DG>
-12.9900

> <Gold.Chemscore.ZeroCoef>
-5.4800

> <Gold.Chemscore.Hbond>
1.4050

> <Gold.Chemscore.Metal>
0.0000

> <Gold.Chemscore.Lipo>
98.4440

> <Gold.Chemscore.Internal_Hbond>
0.0000

> <Gold.Chemscore.DEClash>
0.1270

> <Gold.Chemscore.DEInternal>
4.5505

> <Gold.Chemscore.Rot>
3.3986

> <Gold.Chemscore.Internal.Correction>
   9.000000E+99

> <Gold.Chemscore.Hbonds>
donor molecule, donor type, donor heavy atom, donor atom, acceptor molecule, acceptor atom, score
      L1  H     9    45       P1  7921  0.87
      P1  H  7989  7998       L1    25  0.15

> <Gold.Chemscore.Hbond.Weighted>
-4.6926

> <Gold.Chemscore.Metal.Weighted>
-0.0000

> <Gold.Chemscore.Lipo.Weighted>
-11.5179

> <Gold.Chemscore.Internal_Hbond.Weighted>
0.0000

> <Gold.Chemscore.DEClash.Weighted>
0.1270

> <Gold.Chemscore.DEInternal.Weighted>
4.5505

> <Gold.Chemscore.Rot.Weighted>
8.7005

> <Gold.Chemscore.Internal.Correction.Weighted>
   9.000000E+99

> <Gold.Protein.RotatedTorsions>
[ 6907 6896 6895 6894 ] final  130.47 input  -60.11 | X-H torsion
[ 7974 7965 7964 7962 ] final   -5.65 input  175.53 | X-H torsion
[ 8008 7997 7996 7995 ] final  165.88 input   59.86 | X-H torsion
[ 10167 10162 10161 10158 ] final  154.48 input  -65.29 | X-H torsion
[ 10718 10713 10712 10709 ] final  -79.91 input   66.30 | X-H torsion
[ 10763 10752 10751 10750 ] final  115.19 input  -60.55 | X-H torsion
[ 11005 11000 10999 10996 ] final  102.53 input  -57.11 | X-H torsion

> <Gold.Protein.ActiveResidues>
 VAL166  LYS551  ARG553  GLY616  TRP617  ASP618  TYR619  PRO620  LYS621  CYS622 
 ASP623  PHE694  ASN695  SER759  ASP760  ASP761  ALA762  ILE779  LEU786  VAL792 
 PHE793  MET794  SER795  GLU796  ALA797  LYS798  CYS799  TRP800  GLU811  SER814 

> <Gold.Protein.RotatedAtoms>
  152.3523  133.6195  159.5953 H   0  0  0  0  0  0  0  0  0  0  0  0  # atno 6907 bound_to 6896
  150.7546  133.9555  159.3508 H   0  0  0  0  0  0  0  0  0  0  0  0  # atno 6908 bound_to 6896
  151.7404  135.0856  160.0366 H   0  0  0  0  0  0  0  0  0  0  0  0  # atno 6909 bound_to 6896
  146.2348  140.2053  142.8334 H   0  0  0  0  0  0  0  0  0  0  0  0  # atno 7974 bound_to 7965
  156.1764  140.1658  156.8354 H   0  0  0  0  0  0  0  0  0  0  0  0  # atno 8008 bound_to 7997
  154.5312  140.0756  156.8382 H   0  0  0  0  0  0  0  0  0  0  0  0  # atno 8009 bound_to 7997
  155.3403  140.3384  155.4241 H   0  0  0  0  0  0  0  0  0  0  0  0  # atno 8010 bound_to 7997
  139.4823  144.5183  151.7916 H   0  0  0  0  0  0  0  0  0  0  0  0  # atno 10167 bound_to 10162
  156.0082  130.4559  150.3719 H   0  0  0  0  0  0  0  0  0  0  0  0  # atno 10718 bound_to 10713
  153.5185  135.3603  155.2621 H   0  0  0  0  0  0  0  0  0  0  0  0  # atno 10763 bound_to 10752
  154.8737  135.4040  154.3287 H   0  0  0  0  0  0  0  0  0  0  0  0  # atno 10764 bound_to 10752
  153.3953  135.7073  153.6532 H   0  0  0  0  0  0  0  0  0  0  0  0  # atno 10765 bound_to 10752
  139.8778  134.9227  156.5072 H   0  0  0  0  0  0  0  0  0  0  0  0  # atno 11005 bound_to 11000
  144.9749  140.8404  143.5432 LP  0  0  0  0  0  0  0  0  0  0  0  0  # atno 17320 bound_to 7965
  145.2039  139.2238  143.5178 LP  0  0  0  0  0  0  0  0  0  0  0  0  # atno 17321 bound_to 7965
  140.4694  144.1608  150.5916 LP  0  0  0  0  0  0  0  0  0  0  0  0  # atno 17342 bound_to 10162
  140.4398  143.2531  151.9487 LP  0  0  0  0  0  0  0  0  0  0  0  0  # atno 17343 bound_to 10162
  157.1803  131.0390  151.2751 LP  0  0  0  0  0  0  0  0  0  0  0  0  # atno 17370 bound_to 10713
  157.4151  130.7406  149.6869 LP  0  0  0  0  0  0  0  0  0  0  0  0  # atno 17371 bound_to 10713
  140.8547  133.8105  155.9204 LP  0  0  0  0  0  0  0  0  0  0  0  0  # atno 17394 bound_to 11000
  140.9110  134.2261  157.4986 LP  0  0  0  0  0  0  0  0  0  0  0  0  # atno 17395 bound_to 11000

$$$$
