AV-unprocessed.smi:2999|AV-procd|sdf|11419|dock1
  -GOLD-   2272016343D 1   1.00000     0.00000
 Structure written by MMmdl.
 38 40  0  0  0  0  0  0  0  0  2 V2000
  144.4446  136.5113  152.3269 O   0  0  0  0  0  0  0  0  0  0  0  0
  145.6569  136.3926  152.1477 C   0  0  0  0  0  0  0  0  0  0  0  0
  146.5577  137.2651  152.6174 N   0  0  0  0  0  0  0  0  0  0  0  0
  146.2215  138.4610  153.3788 C   0  0  0  0  0  0  0  0  0  0  0  0
  147.3910  139.4555  153.3758 C   0  0  2  0  0  0  0  0  0  0  0  0
  148.6393  138.8803  154.0738 C   0  0  0  0  0  0  0  0  0  0  0  0
  149.7214  139.8904  154.1093 N   0  3  2  0  0  0  0  0  0  0  0  0
  150.9597  139.3731  154.7304 C   0  0  0  0  0  0  0  0  0  0  0  0
  151.2001  137.9051  154.4680 C   0  0  0  0  0  0  0  0  0  0  0  0
  150.7143  138.3622  155.8257 C   0  0  0  0  0  0  0  0  0  0  0  0
  149.2479  141.1390  154.7482 C   0  0  0  0  0  0  0  0  0  0  0  0
  147.9799  141.6486  154.0448 C   0  0  0  0  0  0  0  0  0  0  0  0
  146.9840  140.6333  154.0677 O   0  0  0  0  0  0  0  0  0  0  0  0
  146.2516  135.3956  151.4696 N   0  0  0  0  0  0  0  0  0  0  0  0
  145.6428  134.2884  150.8226 C   0  0  0  0  0  0  0  0  0  0  0  0
  144.3749  134.2666  150.3956 N   0  0  0  0  0  0  0  0  0  0  0  0
  144.0451  133.0490  149.7949 C   0  0  0  0  0  0  0  0  0  0  0  0
  145.0811  132.1489  149.7733 C   0  0  0  0  0  0  0  0  0  0  0  0
  146.5208  132.7979  150.5116 S   0  0  0  0  0  0  0  0  0  0  0  0
  147.5348  137.1003  152.4247 H   0  0  0  0  0  0  0  0  0  0  0  0
  145.3281  138.9249  152.9576 H   0  0  0  0  0  0  0  0  0  0  0  0
  145.9817  138.1732  154.4037 H   0  0  0  0  0  0  0  0  0  0  0  0
  147.6375  139.7085  152.3426 H   0  0  0  0  0  0  0  0  0  0  0  0
  148.3957  138.5710  155.0919 H   0  0  0  0  0  0  0  0  0  0  0  0
  148.9867  137.9924  153.5442 H   0  0  0  0  0  0  0  0  0  0  0  0
  151.7961  140.0669  154.7963 H   0  0  0  0  0  0  0  0  0  0  0  0
  150.4930  137.3707  153.8357 H   0  0  0  0  0  0  0  0  0  0  0  0
  152.2334  137.5717  154.3943 H   0  0  0  0  0  0  0  0  0  0  0  0
  151.4273  138.3292  156.6471 H   0  0  0  0  0  0  0  0  0  0  0  0
  149.6848  138.1319  156.0944 H   0  0  0  0  0  0  0  0  0  0  0  0
  149.0411  140.9550  155.8038 H   0  0  0  0  0  0  0  0  0  0  0  0
  150.0296  141.8979  154.7021 H   0  0  0  0  0  0  0  0  0  0  0  0
  147.5962  142.5320  154.5552 H   0  0  0  0  0  0  0  0  0  0  0  0
  148.1943  141.9424  153.0159 H   0  0  0  0  0  0  0  0  0  0  0  0
  147.2581  135.4336  151.4048 H   0  0  0  0  0  0  0  0  0  0  0  0
  143.0468  132.9073  149.4080 H   0  0  0  0  0  0  0  0  0  0  0  0
  145.0841  131.1472  149.3698 H   0  0  0  0  0  0  0  0  0  0  0  0
  149.9456  140.1159  153.1505 H   0  0  0  0  0  0  0  0  0  0  0  0
  1  2  2  0  0  0  0
  2  3  1  0  0  0  0
  2 14  1  0  0  0  0
  3  4  1  0  0  0  0
  3 20  1  0  0  0  0
  4  5  1  0  0  0  0
  4 21  1  0  0  0  0
  4 22  1  0  0  0  0
  5 13  1  0  0  0  0
  5  6  1  0  0  0  0
  5 23  1  0  0  0  0
  6  7  1  0  0  0  0
  6 24  1  0  0  0  0
  6 25  1  0  0  0  0
  7  8  1  0  0  0  0
  7 11  1  0  0  0  0
  7 38  1  0  0  0  0
  8 10  1  0  0  0  0
  8  9  1  0  0  0  0
  8 26  1  0  0  0  0
  9 10  1  0  0  0  0
  9 27  1  0  0  0  0
  9 28  1  0  0  0  0
 10 29  1  0  0  0  0
 10 30  1  0  0  0  0
 11 12  1  0  0  0  0
 11 31  1  0  0  0  0
 11 32  1  0  0  0  0
 12 13  1  0  0  0  0
 12 33  1  0  0  0  0
 12 34  1  0  0  0  0
 14 15  1  0  0  0  0
 14 35  1  0  0  0  0
 15 19  1  0  0  0  0
 15 16  2  0  0  0  0
 16 17  1  0  0  0  0
 17 18  2  0  0  0  0
 17 36  1  0  0  0  0
 18 19  1  0  0  0  0
 18 37  1  0  0  0  0
M  CHG  1   7   1
M  END
> <s_m_source_file>
AV-unprocessed.smi

> <i_m_source_file_index>
2999

> <i_lp_mmshare_version>
43012

> <i_f3d_flags>
0

> <s_epik_input>
czFbY0hdW2NIXW5jMVtOSF1DKD1PKVtOSF1bQ0gyXVtDQEBIXTJbQ0gyXU4oW0NIMl1bQ0gyXU8yKVtDSF0zW0NIMl1bQ0gyXTM=

> <s_epik_cmdline>
J2VwaWtfcHl0aG9uJywgJy1waCcsICc3LjAnLCAnLXRuJywgJzgnLCAnLW1hJywgJzIwMCcsICctbWV0YWxfYmluZGluZycsICctaW1hZScsICc8aW5maWxlLm1hZT4nLCAnLW9tYWUnLCAnPG91dGZpbGUubWFlPic=

> <r_lp_tautomer_probability>
0.999

> <r_epik_Ionization_Penalty>
1.55235

> <r_epik_Ionization_Penalty_Charging>
1.55221

> <r_epik_Ionization_Penalty_Neutral>
0.000139685

> <r_epik_State_Penalty>
1.64652

> <r_epik_Charging_Adjusted_Penalty>
3.19873

> <i_epik_Tot_Q>
1

> <i_epik_Tot_abs_Q>
1

> <r_epik_Metal_State_Penalty>
1.68612

> <b_epik_Metal_Only>
0

> <s_lp_Force_Field>
OPLS_2005

> <r_lp_Energy>
22.0843

> <b_lp_Chiralities_Consistent>
1

> <s_lp_Variant>
AV-unprocessed.smi:2999-3

> <Gold.Version>
5.8.1

> <Gold.Id.Protein>
6NUR|6NUR_protein|mol2

> <Gold.PLP.Fitness>
46.5598

> <Gold.PLP.PLP>
-35.0315

> <Gold.PLP.part.hbond>
-3.0000

> <Gold.PLP.part.metal>
0.0000

> <Gold.PLP.part.buried>
-4.2470

> <Gold.PLP.part.nonpolar>
-29.6133

> <Gold.PLP.part.repulsive>
0.8743

> <Gold.PLP.ligand.clash>
0.0000

> <Gold.PLP.ligand.torsion>
0.8778

> <Gold.PLP.Chemscore.Hbond>
3.0000

> <Gold.PLP.Chemscore.CHOScore>
1.0000

> <Gold.PLP.Chemscore.Metal>
0.0000

> <Gold.Chemscore.Hbonds>
donor molecule, donor type, donor heavy atom, donor atom, acceptor molecule, acceptor atom, score
      L1  H     3    20       P1  7948  1.00
      L1  H     7    38       P1  7957  1.00
      L1  H    14    35       P1  7948  1.00
      L1  C    17    36       P1 10186  0.97

> <Gold.PLP.Chemscore.Internal.Correction>
1.2839

> <Gold.Rescore>
     Score         DG    S(hbond)    S(metal)    S(lipo)     H(rot)  DE(clash)    DE(int)     intcor
     18.08     -20.17       2.84        0.00      79.10       1.58       0.08       2.01       ----

> <Gold.Chemscore.Fitness>
18.0770

> <Gold.Chemscore.DG>
-20.1666

> <Gold.Chemscore.ZeroCoef>
-5.4800

> <Gold.Chemscore.Hbond>
2.8368

> <Gold.Chemscore.Metal>
0.0000

> <Gold.Chemscore.Lipo>
79.1048

> <Gold.Chemscore.Internal_Hbond>
0.0000

> <Gold.Chemscore.DEClash>
0.0754

> <Gold.Chemscore.DEInternal>
2.0142

> <Gold.Chemscore.Rot>
1.5795

> <Gold.Chemscore.Internal.Correction>
   9.000000E+99

> <Gold.Chemscore.Hbonds>
donor molecule, donor type, donor heavy atom, donor atom, acceptor molecule, acceptor atom, score
      L1  H     3    20       P1  7948  0.99
      L1  H     7    38       P1  7957  0.92
      L1  H    14    35       P1  7948  0.90

> <Gold.Chemscore.Hbond.Weighted>
-9.4748

> <Gold.Chemscore.Metal.Weighted>
-0.0000

> <Gold.Chemscore.Lipo.Weighted>
-9.2553

> <Gold.Chemscore.Internal_Hbond.Weighted>
0.0000

> <Gold.Chemscore.DEClash.Weighted>
0.0754

> <Gold.Chemscore.DEInternal.Weighted>
2.0142

> <Gold.Chemscore.Rot.Weighted>
4.0434

> <Gold.Chemscore.Internal.Correction.Weighted>
   9.000000E+99

> <Gold.Protein.RotatedTorsions>
[ 6907 6896 6895 6894 ] final -140.60 input  -60.11 | X-H torsion
[ 7974 7965 7964 7962 ] final  -38.88 input  175.53 | X-H torsion
[ 8008 7997 7996 7995 ] final   65.74 input   59.86 | X-H torsion
[ 10167 10162 10161 10158 ] final   63.11 input  -65.29 | X-H torsion
[ 10718 10713 10712 10709 ] final   -9.21 input   66.30 | X-H torsion
[ 10763 10752 10751 10750 ] final  -35.85 input  -60.55 | X-H torsion
[ 11005 11000 10999 10996 ] final  -20.72 input  -57.11 | X-H torsion

> <Gold.Protein.ActiveResidues>
 VAL166  LYS551  ARG553  GLY616  TRP617  ASP618  TYR619  PRO620  LYS621  CYS622 
 ASP623  PHE694  ASN695  SER759  ASP760  ASP761  ALA762  ILE779  LEU786  VAL792 
 PHE793  MET794  SER795  GLU796  ALA797  LYS798  CYS799  TRP800  GLU811  SER814 

> <Gold.Protein.RotatedAtoms>
  151.0628  133.5530  159.2632 H   0  0  0  0  0  0  0  0  0  0  0  0  # atno 6907 bound_to 6896
  151.2498  135.0617  159.9067 H   0  0  0  0  0  0  0  0  0  0  0  0  # atno 6908 bound_to 6896
  152.5400  134.0390  159.8113 H   0  0  0  0  0  0  0  0  0  0  0  0  # atno 6909 bound_to 6896
  146.0447  140.6562  142.9070 H   0  0  0  0  0  0  0  0  0  0  0  0  # atno 7974 bound_to 7965
  155.6665  140.3497  155.4802 H   0  0  0  0  0  0  0  0  0  0  0  0  # atno 8008 bound_to 7997
  155.9724  140.1158  157.0823 H   0  0  0  0  0  0  0  0  0  0  0  0  # atno 8009 bound_to 7997
  154.4170  140.1154  156.5311 H   0  0  0  0  0  0  0  0  0  0  0  0  # atno 8010 bound_to 7997
  140.1366  144.4593  150.6834 H   0  0  0  0  0  0  0  0  0  0  0  0  # atno 10167 bound_to 10162
  156.6913  130.5066  149.5943 H   0  0  0  0  0  0  0  0  0  0  0  0  # atno 10718 bound_to 10713
  153.8700  135.6832  153.4775 H   0  0  0  0  0  0  0  0  0  0  0  0  # atno 10763 bound_to 10752
  153.1292  135.4705  154.9320 H   0  0  0  0  0  0  0  0  0  0  0  0  # atno 10764 bound_to 10752
  154.7718  135.3241  154.8124 H   0  0  0  0  0  0  0  0  0  0  0  0  # atno 10765 bound_to 10752
  140.8491  133.7869  155.9946 H   0  0  0  0  0  0  0  0  0  0  0  0  # atno 11005 bound_to 11000
  144.7092  140.3971  143.7094 LP  0  0  0  0  0  0  0  0  0  0  0  0  # atno 17320 bound_to 7965
  145.6826  139.1621  143.2692 LP  0  0  0  0  0  0  0  0  0  0  0  0  # atno 17321 bound_to 7965
  140.6785  143.2316  151.5444 LP  0  0  0  0  0  0  0  0  0  0  0  0  # atno 17342 bound_to 10162
  139.5493  144.2438  152.1500 LP  0  0  0  0  0  0  0  0  0  0  0  0  # atno 17343 bound_to 10162
  156.1795  130.6490  151.0935 LP  0  0  0  0  0  0  0  0  0  0  0  0  # atno 17370 bound_to 10713
  157.7008  131.0777  150.6827 LP  0  0  0  0  0  0  0  0  0  0  0  0  # atno 17371 bound_to 10713
  140.8810  134.2612  157.5144 LP  0  0  0  0  0  0  0  0  0  0  0  0  # atno 17394 bound_to 11000
  139.8704  134.9615  156.4397 LP  0  0  0  0  0  0  0  0  0  0  0  0  # atno 17395 bound_to 11000

$$$$
