AV-unprocessed.smi:1489|AV-procd|sdf|6026|dock6
  -GOLD-   22720 6123D 1   1.00000     0.00000
 Structure written by MMmdl.
 46 48  0  0  0  0  0  0  0  0  1 V2000
  146.1424  138.9213  154.0302 O   0  0  0  0  0  0  0  0  0  0  0  0
  147.0269  138.2962  153.4467 C   0  0  0  0  0  0  0  0  0  0  0  0
  148.3500  138.4778  153.6015 N   0  0  0  0  0  0  0  0  0  0  0  0
  149.0491  139.4002  154.4289 C   0  0  0  0  0  0  0  0  0  0  0  0
  148.6687  140.7447  154.6527 C   0  0  0  0  0  0  0  0  0  0  0  0
  149.4621  141.5477  155.4944 C   0  0  0  0  0  0  0  0  0  0  0  0
  150.6197  140.9935  156.0896 C   0  0  0  0  0  0  0  0  0  0  0  0
  151.4373  141.7628  156.9413 N   0  0  0  0  0  0  0  0  0  0  0  0
  151.1583  143.1650  157.2109 C   0  0  0  0  0  0  0  0  0  0  0  0
  152.1793  143.5644  158.2748 C   0  0  0  0  0  0  0  0  0  0  0  0
  152.3703  142.2747  159.0728 C   0  0  0  0  0  0  0  0  0  0  0  0
  152.1879  141.1611  158.0351 C   0  0  0  0  0  0  0  0  0  0  0  0
  150.9802  139.7059  155.8770 N   0  0  0  0  0  0  0  0  0  0  0  0
  150.2171  138.9408  155.0696 C   0  0  0  0  0  0  0  0  0  0  0  0
  146.7778  137.3233  152.5583 N   0  0  0  0  0  0  0  0  0  0  0  0
  145.4510  136.8676  152.1537 C   0  0  2  0  0  0  0  0  0  0  0  0
  144.6387  136.4743  153.4010 C   0  0  0  0  0  0  0  0  0  0  0  0
  143.2461  135.9390  153.0232 C   0  0  0  0  0  0  0  0  0  0  0  0
  143.3220  134.7719  152.0210 C   0  0  2  0  0  0  0  0  0  0  0  0
  143.8535  133.6245  152.6536 O   0  0  0  0  0  0  0  0  0  0  0  0
  144.1718  135.1378  150.7894 C   0  0  0  0  0  0  0  0  0  0  0  0
  145.5591  135.6797  151.1763 C   0  0  0  0  0  0  0  0  0  0  0  0
  148.9398  137.8640  153.0588 H   0  0  0  0  0  0  0  0  0  0  0  0
  147.7942  141.1856  154.2028 H   0  0  0  0  0  0  0  0  0  0  0  0
  149.1689  142.5711  155.6746 H   0  0  0  0  0  0  0  0  0  0  0  0
  151.2522  143.7755  156.3123 H   0  0  0  0  0  0  0  0  0  0  0  0
  150.1424  143.2671  157.5947 H   0  0  0  0  0  0  0  0  0  0  0  0
  153.1196  143.8452  157.7984 H   0  0  0  0  0  0  0  0  0  0  0  0
  151.8473  144.4024  158.8882 H   0  0  0  0  0  0  0  0  0  0  0  0
  153.3343  142.2267  159.5799 H   0  0  0  0  0  0  0  0  0  0  0  0
  151.5893  142.1982  159.8304 H   0  0  0  0  0  0  0  0  0  0  0  0
  151.6711  140.3052  158.4703 H   0  0  0  0  0  0  0  0  0  0  0  0
  153.1530  140.8238  157.6558 H   0  0  0  0  0  0  0  0  0  0  0  0
  150.5532  137.9233  154.9322 H   0  0  0  0  0  0  0  0  0  0  0  0
  147.5652  136.8611  152.1276 H   0  0  0  0  0  0  0  0  0  0  0  0
  144.9298  137.6879  151.6561 H   0  0  0  0  0  0  0  0  0  0  0  0
  145.1774  135.7153  153.9703 H   0  0  0  0  0  0  0  0  0  0  0  0
  144.5307  137.3348  154.0625 H   0  0  0  0  0  0  0  0  0  0  0  0
  142.7055  135.6329  153.9198 H   0  0  0  0  0  0  0  0  0  0  0  0
  142.6651  136.7492  152.5810 H   0  0  0  0  0  0  0  0  0  0  0  0
  142.3133  134.5163  151.6949 H   0  0  0  0  0  0  0  0  0  0  0  0
  143.2040  133.2812  153.2482 H   0  0  0  0  0  0  0  0  0  0  0  0
  144.2768  134.2744  150.1311 H   0  0  0  0  0  0  0  0  0  0  0  0
  143.6468  135.8981  150.2098 H   0  0  0  0  0  0  0  0  0  0  0  0
  146.0939  135.9816  150.2749 H   0  0  0  0  0  0  0  0  0  0  0  0
  146.1491  134.8813  151.6289 H   0  0  0  0  0  0  0  0  0  0  0  0
  1  2  2  0  0  0  0
  2  3  1  0  0  0  0
  2 15  1  0  0  0  0
  3  4  1  0  0  0  0
  3 23  1  0  0  0  0
  4 14  1  0  0  0  0
  4  5  2  0  0  0  0
  5  6  1  0  0  0  0
  5 24  1  0  0  0  0
  6  7  2  0  0  0  0
  6 25  1  0  0  0  0
  7  8  1  0  0  0  0
  7 13  1  0  0  0  0
  8 12  1  0  0  0  0
  8  9  1  0  0  0  0
  9 10  1  0  0  0  0
  9 26  1  0  0  0  0
  9 27  1  0  0  0  0
 10 11  1  0  0  0  0
 10 28  1  0  0  0  0
 10 29  1  0  0  0  0
 11 12  1  0  0  0  0
 11 30  1  0  0  0  0
 11 31  1  0  0  0  0
 12 32  1  0  0  0  0
 12 33  1  0  0  0  0
 13 14  2  0  0  0  0
 14 34  1  0  0  0  0
 15 16  1  0  0  0  0
 15 35  1  0  0  0  0
 16 22  1  0  0  0  0
 16 17  1  0  0  0  0
 16 36  1  0  0  0  0
 17 18  1  0  0  0  0
 17 37  1  0  0  0  0
 17 38  1  0  0  0  0
 18 19  1  0  0  0  0
 18 39  1  0  0  0  0
 18 40  1  0  0  0  0
 19 20  1  0  0  0  0
 19 21  1  0  0  0  0
 19 41  1  0  0  0  0
 20 42  1  0  0  0  0
 21 22  1  0  0  0  0
 21 43  1  0  0  0  0
 21 44  1  0  0  0  0
 22 45  1  0  0  0  0
 22 46  1  0  0  0  0
M  END
> <s_m_source_file>
AV-unprocessed.smi

> <i_m_source_file_index>
1489

> <i_lp_mmshare_version>
43012

> <i_f3d_flags>
0

> <s_epik_input>
W0NIMl0xW0NIMl1bQ0BIXShbT0hdKVtDSDJdW0NIMl1bQ0BIXTFbTkhdQyg9TylbTkhdYzJbY0hdW2NIXWMobltjSF0yKU4zW0NIMl1bQ0gyXVtDSDJdW0NIMl0z

> <s_epik_cmdline>
J2VwaWtfcHl0aG9uJywgJy1waCcsICc3LjAnLCAnLXRuJywgJzgnLCAnLW1hJywgJzIwMCcsICctbWV0YWxfYmluZGluZycsICctaW1hZScsICc8aW5maWxlLm1hZT4nLCAnLW9tYWUnLCAnPG91dGZpbGUubWFlPic=

> <r_lp_tautomer_probability>
1

> <r_epik_Ionization_Penalty>
0.104121

> <r_epik_Ionization_Penalty_Charging>
0

> <r_epik_Ionization_Penalty_Neutral>
0.104121

> <r_epik_State_Penalty>
0.0934704

> <r_epik_Charging_Adjusted_Penalty>
0.0934704

> <i_epik_Tot_Q>
0

> <i_epik_Tot_abs_Q>
0

> <r_epik_Metal_State_Penalty>
0.0794432

> <b_epik_Metal_Only>
0

> <s_lp_Force_Field>
OPLS_2005

> <r_lp_Energy>
35.391

> <b_lp_Chiralities_Consistent>
1

> <s_lp_Variant>
AV-unprocessed.smi:1489-2

> <Gold.Version>
5.8.1

> <Gold.Id.Protein>
6NUR|6NUR_protein|mol2

> <Gold.PLP.Fitness>
45.4545

> <Gold.PLP.PLP>
-38.8217

> <Gold.PLP.part.hbond>
-3.4887

> <Gold.PLP.part.metal>
0.0000

> <Gold.PLP.part.buried>
-6.0820

> <Gold.PLP.part.nonpolar>
-31.4863

> <Gold.PLP.part.repulsive>
0.2156

> <Gold.PLP.ligand.clash>
0.0000

> <Gold.PLP.ligand.torsion>
0.5141

> <Gold.PLP.Chemscore.Hbond>
2.4923

> <Gold.PLP.Chemscore.CHOScore>
0.0000

> <Gold.PLP.Chemscore.Metal>
0.0000

> <Gold.Chemscore.Hbonds>
donor molecule, donor type, donor heavy atom, donor atom, acceptor molecule, acceptor atom, score
      L1  H     3    23       P1  7948  0.91
      L1  H    15    35       P1  7948  1.00
      L1  H    20    42       P1 10957  0.51

> <Gold.PLP.Chemscore.Internal.Correction>
0.1840

> <Gold.Rescore>
     Score         DG    S(hbond)    S(metal)    S(lipo)     H(rot)  DE(clash)    DE(int)     intcor
     20.00     -21.89       2.74        0.00      92.94       1.41       0.20       1.69       ----

> <Gold.Chemscore.Fitness>
19.9988

> <Gold.Chemscore.DG>
-21.8872

> <Gold.Chemscore.ZeroCoef>
-5.4800

> <Gold.Chemscore.Hbond>
2.7369

> <Gold.Chemscore.Metal>
0.0000

> <Gold.Chemscore.Lipo>
92.9386

> <Gold.Chemscore.Internal_Hbond>
0.0000

> <Gold.Chemscore.DEClash>
0.1997

> <Gold.Chemscore.DEInternal>
1.6886

> <Gold.Chemscore.Rot>
1.4093

> <Gold.Chemscore.Internal.Correction>
   9.000000E+99

> <Gold.Chemscore.Hbonds>
donor molecule, donor type, donor heavy atom, donor atom, acceptor molecule, acceptor atom, score
      L1  H     3    23       P1  7948  0.86
      L1  H    15    35       P1  7948  0.93
      L1  H    20    42       P1 10957  0.45

> <Gold.Chemscore.Hbond.Weighted>
-9.1411

> <Gold.Chemscore.Metal.Weighted>
-0.0000

> <Gold.Chemscore.Lipo.Weighted>
-10.8738

> <Gold.Chemscore.Internal_Hbond.Weighted>
0.0000

> <Gold.Chemscore.DEClash.Weighted>
0.1997

> <Gold.Chemscore.DEInternal.Weighted>
1.6886

> <Gold.Chemscore.Rot.Weighted>
3.6077

> <Gold.Chemscore.Internal.Correction.Weighted>
   9.000000E+99

> <Gold.Protein.RotatedTorsions>
[ 6907 6896 6895 6894 ] final   53.03 input  -60.11 | X-H torsion
[ 7974 7965 7964 7962 ] final  -24.19 input  175.53 | X-H torsion
[ 8008 7997 7996 7995 ] final -142.76 input   59.86 | X-H torsion
[ 10167 10162 10161 10158 ] final   -2.21 input  -65.29 | X-H torsion
[ 10718 10713 10712 10709 ] final  -84.45 input   66.30 | X-H torsion
[ 10763 10752 10751 10750 ] final  158.20 input  -60.55 | X-H torsion
[ 11005 11000 10999 10996 ] final -106.79 input  -57.11 | X-H torsion

> <Gold.Protein.ActiveResidues>
 VAL166  LYS551  ARG553  GLY616  TRP617  ASP618  TYR619  PRO620  LYS621  CYS622 
 ASP623  PHE694  ASN695  SER759  ASP760  ASP761  ALA762  ILE779  LEU786  VAL792 
 PHE793  MET794  SER795  GLU796  ALA797  LYS798  CYS799  TRP800  GLU811  SER814 

> <Gold.Protein.RotatedAtoms>
  152.3295  134.7277  160.0292 H   0  0  0  0  0  0  0  0  0  0  0  0  # atno 6907 bound_to 6896
  151.7699  133.3335  159.3449 H   0  0  0  0  0  0  0  0  0  0  0  0  # atno 6908 bound_to 6896
  150.7415  134.5960  159.6056 H   0  0  0  0  0  0  0  0  0  0  0  0  # atno 6909 bound_to 6896
  146.1570  140.4719  142.8587 H   0  0  0  0  0  0  0  0  0  0  0  0  # atno 7974 bound_to 7965
  155.4996  140.0574  157.2941 H   0  0  0  0  0  0  0  0  0  0  0  0  # atno 8008 bound_to 7997
  154.4592  140.1988  156.0242 H   0  0  0  0  0  0  0  0  0  0  0  0  # atno 8009 bound_to 7997
  156.0858  140.3240  155.7756 H   0  0  0  0  0  0  0  0  0  0  0  0  # atno 8010 bound_to 7997
  140.6842  143.6683  150.8206 H   0  0  0  0  0  0  0  0  0  0  0  0  # atno 10167 bound_to 10162
  156.0006  130.4698  150.4411 H   0  0  0  0  0  0  0  0  0  0  0  0  # atno 10718 bound_to 10713
  154.2123  135.2785  155.2954 H   0  0  0  0  0  0  0  0  0  0  0  0  # atno 10763 bound_to 10752
  154.5768  135.5601  153.7151 H   0  0  0  0  0  0  0  0  0  0  0  0  # atno 10764 bound_to 10752
  153.0061  135.6335  154.2262 H   0  0  0  0  0  0  0  0  0  0  0  0  # atno 10765 bound_to 10752
  141.0987  133.8924  157.1898 H   0  0  0  0  0  0  0  0  0  0  0  0  # atno 11005 bound_to 11000
  144.7976  140.6152  143.6500 LP  0  0  0  0  0  0  0  0  0  0  0  0  # atno 17320 bound_to 7965
  145.4684  139.1506  143.3827 LP  0  0  0  0  0  0  0  0  0  0  0  0  # atno 17321 bound_to 7965
  140.0388  143.5367  152.2727 LP  0  0  0  0  0  0  0  0  0  0  0  0  # atno 17342 bound_to 10162
  139.6187  144.7625  151.2789 LP  0  0  0  0  0  0  0  0  0  0  0  0  # atno 17343 bound_to 10162
  157.2452  131.0534  151.2412 LP  0  0  0  0  0  0  0  0  0  0  0  0  # atno 17370 bound_to 10713
  157.3581  130.7117  149.6484 LP  0  0  0  0  0  0  0  0  0  0  0  0  # atno 17371 bound_to 10713
  139.9831  135.0091  156.9798 LP  0  0  0  0  0  0  0  0  0  0  0  0  # atno 17394 bound_to 11000
  140.5076  134.1034  155.7263 LP  0  0  0  0  0  0  0  0  0  0  0  0  # atno 17395 bound_to 11000

$$$$
