AV-unprocessed.smi:3169|AV-procd|sdf|12106|dock10
  -GOLD-   2272017543D 1   1.00000     0.00000
 Structure written by MMmdl.
 35 36  0  0  0  0  0  0  0  0  1 V2000
  148.4201  133.7730  155.5248 O   0  0  0  0  0  0  0  0  0  0  0  0
  148.5311  134.4823  154.5248 C   0  0  0  0  0  0  0  0  0  0  0  0
  147.7946  134.3375  153.4153 N   0  0  0  0  0  0  0  0  0  0  0  0
  146.7162  133.3689  153.2436 C   0  0  0  0  0  0  0  0  0  0  0  0
  146.9489  132.4338  152.0406 C   0  0  0  0  0  0  0  0  0  0  0  0
  145.7878  132.3478  151.1748 N   0  0  0  0  0  0  0  0  0  0  0  0
  144.5251  132.8745  151.4107 C   0  0  0  0  0  0  0  0  0  0  0  0
  143.7514  132.5421  150.3215 C   0  0  0  0  0  0  0  0  0  0  0  0
  144.5127  131.8150  149.4093 N   0  0  0  0  0  0  0  0  0  0  0  0
  145.7071  131.7415  149.9820 C   0  0  0  0  0  0  0  0  0  0  0  0
  149.3833  135.5108  154.4237 N   0  0  0  0  0  0  0  0  0  0  0  0
  150.2553  135.9799  155.4938 C   0  0  0  0  0  0  0  0  0  0  0  0
  150.8882  137.3381  155.1467 C   0  0  1  0  0  0  0  0  0  0  0  0
  151.3884  138.1202  156.3593 C   0  0  0  0  0  0  0  0  0  0  0  0
  152.4919  138.9989  155.7879 C   0  0  0  0  0  0  0  0  0  0  0  0
  152.7618  138.4086  154.4005 C   0  0  0  0  0  0  0  0  0  0  0  0
  152.0753  137.1656  154.3893 O   0  0  0  0  0  0  0  0  0  0  0  0
  147.9620  134.9716  152.6477 H   0  0  0  0  0  0  0  0  0  0  0  0
  146.6348  132.7832  154.1596 H   0  0  0  0  0  0  0  0  0  0  0  0
  145.7675  133.8954  153.1296 H   0  0  0  0  0  0  0  0  0  0  0  0
  147.7897  132.7957  151.4478 H   0  0  0  0  0  0  0  0  0  0  0  0
  147.2150  131.4294  152.3727 H   0  0  0  0  0  0  0  0  0  0  0  0
  144.2884  133.4257  152.3088 H   0  0  0  0  0  0  0  0  0  0  0  0
  142.7135  132.7679  150.1262 H   0  0  0  0  0  0  0  0  0  0  0  0
  146.5420  131.2289  149.5264 H   0  0  0  0  0  0  0  0  0  0  0  0
  149.3978  136.0369  153.5622 H   0  0  0  0  0  0  0  0  0  0  0  0
  149.6910  136.0522  156.4250 H   0  0  0  0  0  0  0  0  0  0  0  0
  151.0324  135.2327  155.6573 H   0  0  0  0  0  0  0  0  0  0  0  0
  150.1908  137.9560  154.5774 H   0  0  0  0  0  0  0  0  0  0  0  0
  150.5960  138.6926  156.8426 H   0  0  0  0  0  0  0  0  0  0  0  0
  151.8118  137.4407  157.1003 H   0  0  0  0  0  0  0  0  0  0  0  0
  152.1779  140.0403  155.7094 H   0  0  0  0  0  0  0  0  0  0  0  0
  153.3803  138.9629  156.4192 H   0  0  0  0  0  0  0  0  0  0  0  0
  152.3476  139.0521  153.6230 H   0  0  0  0  0  0  0  0  0  0  0  0
  153.8250  138.2742  154.2005 H   0  0  0  0  0  0  0  0  0  0  0  0
  1  2  2  0  0  0  0
  2  3  1  0  0  0  0
  2 11  1  0  0  0  0
  3  4  1  0  0  0  0
  3 18  1  0  0  0  0
  4  5  1  0  0  0  0
  4 19  1  0  0  0  0
  4 20  1  0  0  0  0
  5  6  1  0  0  0  0
  5 21  1  0  0  0  0
  5 22  1  0  0  0  0
  6 10  1  0  0  0  0
  6  7  1  0  0  0  0
  7  8  2  0  0  0  0
  7 23  1  0  0  0  0
  8  9  1  0  0  0  0
  8 24  1  0  0  0  0
  9 10  2  0  0  0  0
 10 25  1  0  0  0  0
 11 12  1  0  0  0  0
 11 26  1  0  0  0  0
 12 13  1  0  0  0  0
 12 27  1  0  0  0  0
 12 28  1  0  0  0  0
 13 17  1  0  0  0  0
 13 14  1  0  0  0  0
 13 29  1  0  0  0  0
 14 15  1  0  0  0  0
 14 30  1  0  0  0  0
 14 31  1  0  0  0  0
 15 16  1  0  0  0  0
 15 32  1  0  0  0  0
 15 33  1  0  0  0  0
 16 17  1  0  0  0  0
 16 34  1  0  0  0  0
 16 35  1  0  0  0  0
M  END
> <s_m_source_file>
AV-unprocessed.smi

> <i_m_source_file_index>
3169

> <i_lp_mmshare_version>
43012

> <i_f3d_flags>
0

> <s_epik_input>
TzFbQ0gyXVtDSDJdW0NIMl1bQ0BIXTFbQ0gyXVtOSF1DKD1PKVtOSF1bQ0gyXVtDSDJdbjJbY0hdW2NIXW5bY0hdMg==

> <s_epik_cmdline>
J2VwaWtfcHl0aG9uJywgJy1waCcsICc3LjAnLCAnLXRuJywgJzgnLCAnLW1hJywgJzIwMCcsICctbWV0YWxfYmluZGluZycsICctaW1hZScsICc8aW5maWxlLm1hZT4nLCAnLW9tYWUnLCAnPG91dGZpbGUubWFlPic=

> <r_lp_tautomer_probability>
1

> <r_epik_Ionization_Penalty>
0.620462

> <r_epik_Ionization_Penalty_Charging>
0.620414

> <r_epik_Ionization_Penalty_Neutral>
4.72016e-05

> <r_epik_State_Penalty>
0.636391

> <r_epik_Charging_Adjusted_Penalty>
1.25681

> <i_epik_Tot_Q>
0

> <i_epik_Tot_abs_Q>
0

> <r_epik_Metal_State_Penalty>
0.306539

> <b_epik_Metal_Only>
0

> <s_lp_Force_Field>
OPLS_2005

> <r_lp_Energy>
15.8228

> <b_lp_Chiralities_Consistent>
1

> <s_lp_Variant>
AV-unprocessed.smi:3169-4

> <Gold.Version>
5.8.1

> <Gold.Id.Protein>
6NUR|6NUR_protein|mol2

> <Gold.PLP.Fitness>
43.3805

> <Gold.PLP.PLP>
-29.2837

> <Gold.PLP.part.hbond>
-4.0000

> <Gold.PLP.part.metal>
0.0000

> <Gold.PLP.part.buried>
-2.8535

> <Gold.PLP.part.nonpolar>
-22.7332

> <Gold.PLP.part.repulsive>
0.3583

> <Gold.PLP.ligand.clash>
0.0000

> <Gold.PLP.ligand.torsion>
0.7196

> <Gold.PLP.Chemscore.Hbond>
3.1936

> <Gold.PLP.Chemscore.CHOScore>
1.9780

> <Gold.PLP.Chemscore.Metal>
0.0000

> <Gold.Chemscore.Hbonds>
donor molecule, donor type, donor heavy atom, donor atom, acceptor molecule, acceptor atom, score
      L1  H     3    18       P1  7948  1.00
      L1  H    11    26       P1  7948  1.00
      P1  H 10752 10765       L1    17  0.94
      P1  H 10785 10796       L1     9  0.26
      L1  C     8    24       P1 10186  1.00
      L1  C    10    25       P1 10747  0.95

> <Gold.PLP.Chemscore.Internal.Correction>
0.0213

> <Gold.Rescore>
     Score         DG    S(hbond)    S(metal)    S(lipo)     H(rot)  DE(clash)    DE(int)     intcor
     16.43     -17.12       3.22        0.00      56.62       2.25       0.05       0.64       ----

> <Gold.Chemscore.Fitness>
16.4321

> <Gold.Chemscore.DG>
-17.1222

> <Gold.Chemscore.ZeroCoef>
-5.4800

> <Gold.Chemscore.Hbond>
3.2247

> <Gold.Chemscore.Metal>
0.0000

> <Gold.Chemscore.Lipo>
56.6224

> <Gold.Chemscore.Internal_Hbond>
0.0000

> <Gold.Chemscore.DEClash>
0.0545

> <Gold.Chemscore.DEInternal>
0.6357

> <Gold.Chemscore.Rot>
2.2474

> <Gold.Chemscore.Internal.Correction>
   9.000000E+99

> <Gold.Chemscore.Hbonds>
donor molecule, donor type, donor heavy atom, donor atom, acceptor molecule, acceptor atom, score
      L1  H     3    18       P1  7948  0.86
      L1  H    11    26       P1  7948  0.58
      P1  H 10752 10765       L1    17  0.89
      P1  H 10785 10796       L1     9  0.14

> <Gold.Chemscore.Hbond.Weighted>
-10.7706

> <Gold.Chemscore.Metal.Weighted>
-0.0000

> <Gold.Chemscore.Lipo.Weighted>
-6.6248

> <Gold.Chemscore.Internal_Hbond.Weighted>
0.0000

> <Gold.Chemscore.DEClash.Weighted>
0.0545

> <Gold.Chemscore.DEInternal.Weighted>
0.6357

> <Gold.Chemscore.Rot.Weighted>
5.7532

> <Gold.Chemscore.Internal.Correction.Weighted>
   9.000000E+99

> <Gold.Protein.RotatedTorsions>
[ 6907 6896 6895 6894 ] final -136.52 input  -60.11 | X-H torsion
[ 7974 7965 7964 7962 ] final  115.44 input  175.53 | X-H torsion
[ 8008 7997 7996 7995 ] final  -71.89 input   59.86 | X-H torsion
[ 10167 10162 10161 10158 ] final    6.47 input  -65.29 | X-H torsion
[ 10718 10713 10712 10709 ] final   -3.02 input   66.30 | X-H torsion
[ 10763 10752 10751 10750 ] final  164.31 input  -60.55 | X-H torsion
[ 11005 11000 10999 10996 ] final   -3.25 input  -57.11 | X-H torsion

> <Gold.Protein.ActiveResidues>
 VAL166  LYS551  ARG553  GLY616  TRP617  ASP618  TYR619  PRO620  LYS621  CYS622 
 ASP623  PHE694  ASN695  SER759  ASP760  ASP761  ALA762  ILE779  LEU786  VAL792 
 PHE793  MET794  SER795  GLU796  ALA797  LYS798  CYS799  TRP800  GLU811  SER814 

> <Gold.Protein.RotatedAtoms>
  151.0111  133.5964  159.2682 H   0  0  0  0  0  0  0  0  0  0  0  0  # atno 6907 bound_to 6896
  151.3115  135.0794  159.9284 H   0  0  0  0  0  0  0  0  0  0  0  0  # atno 6908 bound_to 6896
  152.5300  133.9775  159.7845 H   0  0  0  0  0  0  0  0  0  0  0  0  # atno 6909 bound_to 6896
  145.1920  139.2995  143.4363 H   0  0  0  0  0  0  0  0  0  0  0  0  # atno 7974 bound_to 7965
  154.5123  140.0807  156.8014 H   0  0  0  0  0  0  0  0  0  0  0  0  # atno 8008 bound_to 7997
  155.3758  140.3425  155.4226 H   0  0  0  0  0  0  0  0  0  0  0  0  # atno 8009 bound_to 7997
  156.1587  140.1581  156.8636 H   0  0  0  0  0  0  0  0  0  0  0  0  # atno 8010 bound_to 7997
  140.6426  143.7739  150.7450 H   0  0  0  0  0  0  0  0  0  0  0  0  # atno 10167 bound_to 10162
  156.7822  130.5334  149.5749 H   0  0  0  0  0  0  0  0  0  0  0  0  # atno 10718 bound_to 10713
  154.3069  135.2758  155.2584 H   0  0  0  0  0  0  0  0  0  0  0  0  # atno 10763 bound_to 10752
  154.4997  135.5811  153.6525 H   0  0  0  0  0  0  0  0  0  0  0  0  # atno 10764 bound_to 10752
  152.9893  135.6154  154.3244 H   0  0  0  0  0  0  0  0  0  0  0  0  # atno 10765 bound_to 10752
  140.6673  133.9268  155.8472 H   0  0  0  0  0  0  0  0  0  0  0  0  # atno 11005 bound_to 11000
  146.3434  140.2136  142.8590 LP  0  0  0  0  0  0  0  0  0  0  0  0  # atno 17320 bound_to 7965
  145.0032  140.8650  143.5269 LP  0  0  0  0  0  0  0  0  0  0  0  0  # atno 17321 bound_to 7965
  140.1373  143.4472  152.2216 LP  0  0  0  0  0  0  0  0  0  0  0  0  # atno 17342 bound_to 10162
  139.5635  144.7421  151.4088 LP  0  0  0  0  0  0  0  0  0  0  0  0  # atno 17343 bound_to 10162
  156.1211  130.6110  151.0194 LP  0  0  0  0  0  0  0  0  0  0  0  0  # atno 17370 bound_to 10713
  157.6641  131.0875  150.7770 LP  0  0  0  0  0  0  0  0  0  0  0  0  # atno 17371 bound_to 10713
  141.0419  134.0608  157.3891 LP  0  0  0  0  0  0  0  0  0  0  0  0  # atno 17394 bound_to 11000
  139.8993  135.0158  156.7189 LP  0  0  0  0  0  0  0  0  0  0  0  0  # atno 17395 bound_to 11000

$$$$
