AV-unprocessed.smi:1809|AV-procd|sdf|7318|dock5
  -GOLD-   22720 8573D 1   1.00000     0.00000
 Structure written by MMmdl.
 39 41  0  0  0  0  0  0  0  0  1 V2000
  146.7360  129.6108  153.3908 C   0  0  0  0  0  0  0  0  0  0  0  0
  147.3910  130.8709  153.8436 C   0  0  0  0  0  0  0  0  0  0  0  0
  147.9536  131.0033  155.0512 N   0  0  0  0  0  0  0  0  0  0  0  0
  148.5034  132.2635  155.2402 N   0  0  0  0  0  0  0  0  0  0  0  0
  148.3398  133.0466  154.1651 C   0  0  0  0  0  0  0  0  0  0  0  0
  148.8064  134.3855  154.0851 N   0  0  0  0  0  0  0  0  0  0  0  0
  149.5116  135.0782  154.9967 C   0  0  0  0  0  0  0  0  0  0  0  0
  149.8790  134.6464  156.0894 O   0  0  0  0  0  0  0  0  0  0  0  0
  149.7752  136.3187  154.5620 N   0  0  0  0  0  0  0  0  0  0  0  0
  150.5555  137.3198  155.2822 C   0  0  0  0  0  0  0  0  0  0  0  0
  150.7654  138.5882  154.4288 C   0  0  1  0  0  0  0  0  0  0  0  0
  149.5771  139.5760  154.5151 C   0  0  0  0  0  0  0  0  0  0  0  0
  149.5936  140.2945  155.7752 N   0  0  0  0  0  0  0  0  0  0  0  0
  148.5923  141.3209  155.9515 C   0  0  0  0  0  0  0  0  0  0  0  0
  149.1041  142.1500  157.1417 C   0  0  0  0  0  0  0  0  0  0  0  0
  150.6157  141.8391  157.2052 C   0  0  0  0  0  0  0  0  0  0  0  0
  150.8411  140.9852  155.9557 C   0  0  1  0  0  0  0  0  0  0  0  0
  152.0096  139.9919  155.9801 C   0  0  0  0  0  0  0  0  0  0  0  0
  151.9978  139.2513  154.7551 O   0  0  0  0  0  0  0  0  0  0  0  0
  147.4879  132.3011  152.8234 S   0  0  0  0  0  0  0  0  0  0  0  0
  146.6101  128.9206  154.2257 H   0  0  0  0  0  0  0  0  0  0  0  0
  147.3464  129.1287  152.6271 H   0  0  0  0  0  0  0  0  0  0  0  0
  145.7550  129.8301  152.9692 H   0  0  0  0  0  0  0  0  0  0  0  0
  148.5842  134.8703  153.2285 H   0  0  0  0  0  0  0  0  0  0  0  0
  149.4302  136.5852  153.6516 H   0  0  0  0  0  0  0  0  0  0  0  0
  149.9967  137.5780  156.1819 H   0  0  0  0  0  0  0  0  0  0  0  0
  151.5050  136.9097  155.6290 H   0  0  0  0  0  0  0  0  0  0  0  0
  150.8495  138.2689  153.3893 H   0  0  0  0  0  0  0  0  0  0  0  0
  149.6443  140.2866  153.6900 H   0  0  0  0  0  0  0  0  0  0  0  0
  148.6305  139.0483  154.3946 H   0  0  0  0  0  0  0  0  0  0  0  0
  148.5349  141.9485  155.0603 H   0  0  0  0  0  0  0  0  0  0  0  0
  147.6048  140.8944  156.1296 H   0  0  0  0  0  0  0  0  0  0  0  0
  148.9090  143.2126  156.9944 H   0  0  0  0  0  0  0  0  0  0  0  0
  148.6160  141.8445  158.0679 H   0  0  0  0  0  0  0  0  0  0  0  0
  151.2309  142.7394  157.2037 H   0  0  0  0  0  0  0  0  0  0  0  0
  150.8448  141.2721  158.1086 H   0  0  0  0  0  0  0  0  0  0  0  0
  150.9931  141.6643  155.1138 H   0  0  0  0  0  0  0  0  0  0  0  0
  152.9602  140.5175  156.0707 H   0  0  0  0  0  0  0  0  0  0  0  0
  151.9329  139.3200  156.8349 H   0  0  0  0  0  0  0  0  0  0  0  0
  1  2  1  0  0  0  0
  1 21  1  0  0  0  0
  1 22  1  0  0  0  0
  1 23  1  0  0  0  0
  2 20  1  0  0  0  0
  2  3  2  0  0  0  0
  3  4  1  0  0  0  0
  4  5  2  0  0  0  0
  5  6  1  0  0  0  0
  5 20  1  0  0  0  0
  6  7  1  0  0  0  0
  6 24  1  0  0  0  0
  7  8  2  0  0  0  0
  7  9  1  0  0  0  0
  9 10  1  0  0  0  0
  9 25  1  0  0  0  0
 10 11  1  0  0  0  0
 10 26  1  0  0  0  0
 10 27  1  0  0  0  0
 11 19  1  0  0  0  0
 11 12  1  0  0  0  0
 11 28  1  0  0  0  0
 12 13  1  0  0  0  0
 12 29  1  0  0  0  0
 12 30  1  0  0  0  0
 13 17  1  0  0  0  0
 13 14  1  0  0  0  0
 14 15  1  0  0  0  0
 14 31  1  0  0  0  0
 14 32  1  0  0  0  0
 15 16  1  0  0  0  0
 15 33  1  0  0  0  0
 15 34  1  0  0  0  0
 16 17  1  0  0  0  0
 16 35  1  0  0  0  0
 16 36  1  0  0  0  0
 17 18  1  0  0  0  0
 17 37  1  0  0  0  0
 18 19  1  0  0  0  0
 18 38  1  0  0  0  0
 18 39  1  0  0  0  0
M  END
> <s_m_source_file>
AV-unprocessed.smi

> <i_m_source_file_index>
1809

> <i_lp_mmshare_version>
43012

> <i_f3d_flags>
0

> <s_epik_input>
W0NIM11jMW5uYyhzMSlbTkhdQyg9TylbTkhdW0NIMl1bQ0BIXShbQ0gyXTIpT1tDSDJdW0NAQEhdKE4yMylbQ0gyXVtDSDJdW0NIMl0z

> <s_epik_cmdline>
J2VwaWtfcHl0aG9uJywgJy1waCcsICc3LjAnLCAnLXRuJywgJzgnLCAnLW1hJywgJzIwMCcsICctbWV0YWxfYmluZGluZycsICctaW1hZScsICc8aW5maWxlLm1hZT4nLCAnLW9tYWUnLCAnPG91dGZpbGUubWFlPic=

> <r_lp_tautomer_probability>
1

> <r_epik_Ionization_Penalty>
1.05954

> <r_epik_Ionization_Penalty_Charging>
0

> <r_epik_Ionization_Penalty_Neutral>
1.05954

> <r_epik_State_Penalty>
1.4238

> <r_epik_Charging_Adjusted_Penalty>
1.4238

> <i_epik_Tot_Q>
0

> <i_epik_Tot_abs_Q>
0

> <r_epik_Metal_State_Penalty>
1.7901

> <b_epik_Metal_Only>
0

> <s_lp_Force_Field>
OPLS_2005

> <r_lp_Energy>
48.8115

> <b_lp_Chiralities_Consistent>
1

> <s_lp_Variant>
AV-unprocessed.smi:1809-10

> <Gold.Version>
5.8.1

> <Gold.Id.Protein>
6NUR|6NUR_protein|mol2

> <Gold.PLP.Fitness>
38.0189

> <Gold.PLP.PLP>
-29.9858

> <Gold.PLP.part.hbond>
-3.0023

> <Gold.PLP.part.metal>
0.0000

> <Gold.PLP.part.buried>
-4.5783

> <Gold.PLP.part.nonpolar>
-24.0779

> <Gold.PLP.part.repulsive>
0.1825

> <Gold.PLP.ligand.clash>
0.0000

> <Gold.PLP.ligand.torsion>
0.3315

> <Gold.PLP.Chemscore.Hbond>
2.8960

> <Gold.PLP.Chemscore.CHOScore>
0.0000

> <Gold.PLP.Chemscore.Metal>
0.0000

> <Gold.Chemscore.Hbonds>
donor molecule, donor type, donor heavy atom, donor atom, acceptor molecule, acceptor atom, score
      L1  H     6    24       P1  7948  1.00
      L1  H     9    25       P1  7948  1.00
      P1  H  7989  7998       L1    19  0.54

> <Gold.PLP.Chemscore.Internal.Correction>
0.0079

> <Gold.Rescore>
     Score         DG    S(hbond)    S(metal)    S(lipo)     H(rot)  DE(clash)    DE(int)     intcor
     13.41     -15.20       1.82        0.00      59.90       1.32       0.23       1.55       ----

> <Gold.Chemscore.Fitness>
13.4113

> <Gold.Chemscore.DG>
-15.1965

> <Gold.Chemscore.ZeroCoef>
-5.4800

> <Gold.Chemscore.Hbond>
1.8222

> <Gold.Chemscore.Metal>
0.0000

> <Gold.Chemscore.Lipo>
59.9015

> <Gold.Chemscore.Internal_Hbond>
0.0000

> <Gold.Chemscore.DEClash>
0.2323

> <Gold.Chemscore.DEInternal>
1.5529

> <Gold.Chemscore.Rot>
1.3196

> <Gold.Chemscore.Internal.Correction>
   9.000000E+99

> <Gold.Chemscore.Hbonds>
donor molecule, donor type, donor heavy atom, donor atom, acceptor molecule, acceptor atom, score
      L1  H     6    24       P1  7948  0.53
      L1  H     9    25       P1  7948  0.83
      P1  H  7989  7998       L1    19  0.01

> <Gold.Chemscore.Hbond.Weighted>
-6.0863

> <Gold.Chemscore.Metal.Weighted>
-0.0000

> <Gold.Chemscore.Lipo.Weighted>
-7.0085

> <Gold.Chemscore.Internal_Hbond.Weighted>
0.0000

> <Gold.Chemscore.DEClash.Weighted>
0.2323

> <Gold.Chemscore.DEInternal.Weighted>
1.5529

> <Gold.Chemscore.Rot.Weighted>
3.3783

> <Gold.Chemscore.Internal.Correction.Weighted>
   9.000000E+99

> <Gold.Protein.RotatedTorsions>
[ 6907 6896 6895 6894 ] final   71.94 input  -60.11 | X-H torsion
[ 7974 7965 7964 7962 ] final -134.12 input  175.53 | X-H torsion
[ 8008 7997 7996 7995 ] final -104.06 input   59.86 | X-H torsion
[ 10167 10162 10161 10158 ] final  -11.62 input  -65.29 | X-H torsion
[ 10718 10713 10712 10709 ] final   26.27 input   66.30 | X-H torsion
[ 10763 10752 10751 10750 ] final   37.52 input  -60.55 | X-H torsion
[ 11005 11000 10999 10996 ] final -150.99 input  -57.11 | X-H torsion

> <Gold.Protein.ActiveResidues>
 VAL166  LYS551  ARG553  GLY616  TRP617  ASP618  TYR619  PRO620  LYS621  CYS622 
 ASP623  PHE694  ASN695  SER759  ASP760  ASP761  ALA762  ILE779  LEU786  VAL792 
 PHE793  MET794  SER795  GLU796  ALA797  LYS798  CYS799  TRP800  GLU811  SER814 

> <Gold.Protein.RotatedAtoms>
  152.4839  134.4645  159.9615 H   0  0  0  0  0  0  0  0  0  0  0  0  # atno 6907 bound_to 6896
  151.4645  133.3578  159.2822 H   0  0  0  0  0  0  0  0  0  0  0  0  # atno 6908 bound_to 6896
  150.8934  134.8365  159.7370 H   0  0  0  0  0  0  0  0  0  0  0  0  # atno 6909 bound_to 6896
  144.9132  140.6921  143.5012 H   0  0  0  0  0  0  0  0  0  0  0  0  # atno 7974 bound_to 7965
  154.8799  140.0419  157.1776 H   0  0  0  0  0  0  0  0  0  0  0  0  # atno 8008 bound_to 7997
  154.8650  140.2950  155.5495 H   0  0  0  0  0  0  0  0  0  0  0  0  # atno 8009 bound_to 7997
  156.2999  140.2440  156.3630 H   0  0  0  0  0  0  0  0  0  0  0  0  # atno 8010 bound_to 7997
  140.7142  143.5620  150.9185 H   0  0  0  0  0  0  0  0  0  0  0  0  # atno 10167 bound_to 10162
  157.2045  130.6905  149.6202 H   0  0  0  0  0  0  0  0  0  0  0  0  # atno 10718 bound_to 10713
  153.0034  135.6275  154.2158 H   0  0  0  0  0  0  0  0  0  0  0  0  # atno 10763 bound_to 10752
  154.1902  135.2809  155.3026 H   0  0  0  0  0  0  0  0  0  0  0  0  # atno 10764 bound_to 10752
  154.5766  135.5660  153.7204 H   0  0  0  0  0  0  0  0  0  0  0  0  # atno 10765 bound_to 10752
  140.7344  134.3585  157.5160 H   0  0  0  0  0  0  0  0  0  0  0  0  # atno 11005 bound_to 11000
  145.3420  139.1729  143.4481 LP  0  0  0  0  0  0  0  0  0  0  0  0  # atno 17320 bound_to 7965
  146.3169  140.3462  142.8652 LP  0  0  0  0  0  0  0  0  0  0  0  0  # atno 17321 bound_to 7965
  139.9346  143.6453  152.3068 LP  0  0  0  0  0  0  0  0  0  0  0  0  # atno 17342 bound_to 10162
  139.6916  144.7646  151.1428 LP  0  0  0  0  0  0  0  0  0  0  0  0  # atno 17343 bound_to 10162
  155.9697  130.4571  150.5952 LP  0  0  0  0  0  0  0  0  0  0  0  0  # atno 17370 bound_to 10713
  157.3734  131.0769  151.1538 LP  0  0  0  0  0  0  0  0  0  0  0  0  # atno 17371 bound_to 10713
  139.8819  134.9039  156.2866 LP  0  0  0  0  0  0  0  0  0  0  0  0  # atno 17394 bound_to 11000
  140.9893  133.7219  156.0789 LP  0  0  0  0  0  0  0  0  0  0  0  0  # atno 17395 bound_to 11000

$$$$
