AV-unprocessed.smi:1601|AV-procd|sdf|6436|dock5
  -GOLD-   22720 7 83D 1   1.00000     0.00000
 Structure written by MMmdl.
 42 43  0  0  0  0  0  0  0  0  2 V2000
  149.7646  140.8522  156.5404 C   0  0  0  0  0  0  0  0  0  0  0  0
  150.1852  140.7788  158.0300 C   0  0  1  0  0  0  0  0  0  0  0  0
  150.6026  139.3295  158.3974 C   0  0  0  0  0  0  0  0  0  0  0  0
  149.4620  138.4249  158.4771 N   0  0  0  0  0  0  0  0  0  0  0  0
  149.5441  137.1153  158.7555 C   0  0  0  0  0  0  0  0  0  0  0  0
  150.6093  136.5480  159.0015 O   0  0  0  0  0  0  0  0  0  0  0  0
  148.2177  136.3386  158.7466 C   0  0  2  0  0  0  0  0  0  0  0  0
  147.0708  137.1104  158.0669 C   0  0  0  0  0  0  0  0  0  0  0  0
  147.8558  135.9462  160.1029 N   0  0  0  0  0  0  0  0  0  0  0  0
  147.7979  134.6799  160.6525 C   0  0  0  0  0  0  0  0  0  0  0  0
  147.3933  134.8147  161.9494 C   0  0  0  0  0  0  0  0  0  0  0  0
  147.2212  136.2182  162.1050 C   0  0  0  0  0  0  0  0  0  0  0  0
  147.4938  136.8912  160.9988 N   0  0  0  0  0  0  0  0  0  0  0  0
  151.2603  141.7775  158.3513 N   0  3  0  0  0  0  0  0  0  0  0  0
  150.8388  143.1929  158.1501 C   0  0  0  0  0  0  0  0  0  0  0  0
  151.9768  144.1745  158.4759 C   0  0  0  0  0  0  0  0  0  0  0  0
  152.4153  143.9723  159.8094 O   0  0  0  0  0  0  0  0  0  0  0  0
  152.9429  142.6673  159.9819 C   0  0  0  0  0  0  0  0  0  0  0  0
  151.8477  141.6214  159.7125 C   0  0  0  0  0  0  0  0  0  0  0  0
  149.0355  140.0863  156.2770 H   0  0  0  0  0  0  0  0  0  0  0  0
  150.6231  140.7236  155.8806 H   0  0  0  0  0  0  0  0  0  0  0  0
  149.2829  141.7965  156.2912 H   0  0  0  0  0  0  0  0  0  0  0  0
  149.3123  141.0327  158.6339 H   0  0  0  0  0  0  0  0  0  0  0  0
  151.3235  138.9569  157.6672 H   0  0  0  0  0  0  0  0  0  0  0  0
  151.0779  139.2868  159.3765 H   0  0  0  0  0  0  0  0  0  0  0  0
  148.5493  138.8133  158.2857 H   0  0  0  0  0  0  0  0  0  0  0  0
  148.3855  135.4304  158.1641 H   0  0  0  0  0  0  0  0  0  0  0  0
  147.3284  137.3798  157.0421 H   0  0  0  0  0  0  0  0  0  0  0  0
  146.8261  138.0293  158.6013 H   0  0  0  0  0  0  0  0  0  0  0  0
  146.1664  136.5026  158.0255 H   0  0  0  0  0  0  0  0  0  0  0  0
  148.0464  133.7981  160.0801 H   0  0  0  0  0  0  0  0  0  0  0  0
  147.2422  134.0304  162.6760 H   0  0  0  0  0  0  0  0  0  0  0  0
  146.9055  136.7638  162.9820 H   0  0  0  0  0  0  0  0  0  0  0  0
  150.5457  143.3738  157.1177 H   0  0  0  0  0  0  0  0  0  0  0  0
  149.9715  143.4077  158.7762 H   0  0  0  0  0  0  0  0  0  0  0  0
  152.8091  144.0539  157.7802 H   0  0  0  0  0  0  0  0  0  0  0  0
  151.6259  145.2014  158.3743 H   0  0  0  0  0  0  0  0  0  0  0  0
  153.7989  142.5152  159.3225 H   0  0  0  0  0  0  0  0  0  0  0  0
  153.3099  142.5694  161.0039 H   0  0  0  0  0  0  0  0  0  0  0  0
  151.0597  141.7033  160.4629 H   0  0  0  0  0  0  0  0  0  0  0  0
  152.3112  140.6440  159.8313 H   0  0  0  0  0  0  0  0  0  0  0  0
  152.0118  141.6079  157.6977 H   0  0  0  0  0  0  0  0  0  0  0  0
  1  2  1  0  0  0  0
  1 20  1  0  0  0  0
  1 21  1  0  0  0  0
  1 22  1  0  0  0  0
  2  3  1  0  0  0  0
  2 14  1  0  0  0  0
  2 23  1  0  0  0  0
  3  4  1  0  0  0  0
  3 24  1  0  0  0  0
  3 25  1  0  0  0  0
  4  5  1  0  0  0  0
  4 26  1  0  0  0  0
  5  6  2  0  0  0  0
  5  7  1  0  0  0  0
  7  8  1  0  0  0  0
  7  9  1  0  0  0  0
  7 27  1  0  0  0  0
  8 28  1  0  0  0  0
  8 29  1  0  0  0  0
  8 30  1  0  0  0  0
  9 13  1  0  0  0  0
  9 10  1  0  0  0  0
 10 11  2  0  0  0  0
 10 31  1  0  0  0  0
 11 12  1  0  0  0  0
 11 32  1  0  0  0  0
 12 13  2  0  0  0  0
 12 33  1  0  0  0  0
 14 19  1  0  0  0  0
 14 15  1  0  0  0  0
 14 42  1  0  0  0  0
 15 16  1  0  0  0  0
 15 34  1  0  0  0  0
 15 35  1  0  0  0  0
 16 17  1  0  0  0  0
 16 36  1  0  0  0  0
 16 37  1  0  0  0  0
 17 18  1  0  0  0  0
 18 19  1  0  0  0  0
 18 38  1  0  0  0  0
 18 39  1  0  0  0  0
 19 40  1  0  0  0  0
 19 41  1  0  0  0  0
M  CHG  1  14   1
M  END
> <s_m_source_file>
AV-unprocessed.smi

> <i_m_source_file_index>
1601

> <i_lp_mmshare_version>
43012

> <i_f3d_flags>
0

> <s_epik_input>
W0NIMl0xW0NIMl1PW0NIMl1bQ0gyXU4xW0NASF0oW0NIM10pW0NIMl1bTkhdQyg9TylbQ0BIXShbQ0gzXSluMltjSF1bY0hdW2NIXW4y

> <s_epik_cmdline>
J2VwaWtfcHl0aG9uJywgJy1waCcsICc3LjAnLCAnLXRuJywgJzgnLCAnLW1hJywgJzIwMCcsICctbWV0YWxfYmluZGluZycsICctaW1hZScsICc8aW5maWxlLm1hZT4nLCAnLW9tYWUnLCAnPG91dGZpbGUubWFlPic=

> <r_lp_tautomer_probability>
1

> <r_epik_Ionization_Penalty>
0.732551

> <r_epik_Ionization_Penalty_Charging>
0.732531

> <r_epik_Ionization_Penalty_Neutral>
2.04647e-05

> <r_epik_State_Penalty>
0.757939

> <r_epik_Charging_Adjusted_Penalty>
1.49047

> <i_epik_Tot_Q>
1

> <i_epik_Tot_abs_Q>
1

> <r_epik_Metal_State_Penalty>
0.757952

> <b_epik_Metal_Only>
0

> <s_lp_Force_Field>
OPLS_2005

> <r_lp_Energy>
25.0975

> <b_lp_Chiralities_Consistent>
1

> <s_lp_Variant>
AV-unprocessed.smi:1601-6

> <Gold.Version>
5.8.1

> <Gold.Id.Protein>
6NUR|6NUR_protein|mol2

> <Gold.PLP.Fitness>
44.8955

> <Gold.PLP.PLP>
-37.3806

> <Gold.PLP.part.hbond>
-3.0000

> <Gold.PLP.part.metal>
0.0000

> <Gold.PLP.part.buried>
-6.1118

> <Gold.PLP.part.nonpolar>
-28.8479

> <Gold.PLP.part.repulsive>
0.2881

> <Gold.PLP.ligand.clash>
0.0000

> <Gold.PLP.ligand.torsion>
0.5284

> <Gold.PLP.Chemscore.Hbond>
2.8080

> <Gold.PLP.Chemscore.CHOScore>
0.0000

> <Gold.PLP.Chemscore.Metal>
0.0000

> <Gold.Chemscore.Hbonds>
donor molecule, donor type, donor heavy atom, donor atom, acceptor molecule, acceptor atom, score
      P1  H  6896  6907       L1     6  1.00
      P1  H  6931  6943       L1    13  0.39
      P1  H  6934  6947       L1    13  0.70

> <Gold.PLP.Chemscore.Internal.Correction>
0.1477

> <Gold.Rescore>
     Score         DG    S(hbond)    S(metal)    S(lipo)     H(rot)  DE(clash)    DE(int)     intcor
     17.69     -18.52       2.32        0.00      86.01       1.86       0.01       0.82       ----

> <Gold.Chemscore.Fitness>
17.6903

> <Gold.Chemscore.DG>
-18.5205

> <Gold.Chemscore.ZeroCoef>
-5.4800

> <Gold.Chemscore.Hbond>
2.3195

> <Gold.Chemscore.Metal>
0.0000

> <Gold.Chemscore.Lipo>
86.0092

> <Gold.Chemscore.Internal_Hbond>
0.0000

> <Gold.Chemscore.DEClash>
0.0075

> <Gold.Chemscore.DEInternal>
0.8228

> <Gold.Chemscore.Rot>
1.8631

> <Gold.Chemscore.Internal.Correction>
   9.000000E+99

> <Gold.Chemscore.Hbonds>
donor molecule, donor type, donor heavy atom, donor atom, acceptor molecule, acceptor atom, score
      P1  H  6896  6907       L1     6  0.99
      P1  H  6931  6943       L1    13  0.06
      P1  H  6934  6947       L1    13  0.64

> <Gold.Chemscore.Hbond.Weighted>
-7.7471

> <Gold.Chemscore.Metal.Weighted>
-0.0000

> <Gold.Chemscore.Lipo.Weighted>
-10.0631

> <Gold.Chemscore.Internal_Hbond.Weighted>
0.0000

> <Gold.Chemscore.DEClash.Weighted>
0.0075

> <Gold.Chemscore.DEInternal.Weighted>
0.8228

> <Gold.Chemscore.Rot.Weighted>
4.7697

> <Gold.Chemscore.Internal.Correction.Weighted>
   9.000000E+99

> <Gold.Protein.RotatedTorsions>
[ 6907 6896 6895 6894 ] final  -29.38 input  -60.11 | X-H torsion
[ 7974 7965 7964 7962 ] final -157.62 input  175.53 | X-H torsion
[ 8008 7997 7996 7995 ] final -169.01 input   59.86 | X-H torsion
[ 10167 10162 10161 10158 ] final -122.42 input  -65.29 | X-H torsion
[ 10718 10713 10712 10709 ] final  -23.00 input   66.30 | X-H torsion
[ 10763 10752 10751 10750 ] final   81.42 input  -60.55 | X-H torsion
[ 11005 11000 10999 10996 ] final   -7.85 input  -57.11 | X-H torsion

> <Gold.Protein.ActiveResidues>
 VAL166  LYS551  ARG553  GLY616  TRP617  ASP618  TYR619  PRO620  LYS621  CYS622 
 ASP623  PHE694  ASN695  SER759  ASP760  ASP761  ALA762  ILE779  LEU786  VAL792 
 PHE793  MET794  SER795  GLU796  ALA797  LYS798  CYS799  TRP800  GLU811  SER814 

> <Gold.Protein.RotatedAtoms>
  151.1200  135.0074  159.8533 H   0  0  0  0  0  0  0  0  0  0  0  0  # atno 6907 bound_to 6896
  152.5447  134.1734  159.8616 H   0  0  0  0  0  0  0  0  0  0  0  0  # atno 6908 bound_to 6896
  151.1792  133.4691  159.2627 H   0  0  0  0  0  0  0  0  0  0  0  0  # atno 6909 bound_to 6896
  144.7540  140.3943  143.6026 H   0  0  0  0  0  0  0  0  0  0  0  0  # atno 7974 bound_to 7965
  155.8992  140.1038  157.1362 H   0  0  0  0  0  0  0  0  0  0  0  0  # atno 8008 bound_to 7997
  154.4024  140.1296  156.4479 H   0  0  0  0  0  0  0  0  0  0  0  0  # atno 8009 bound_to 7997
  155.7442  140.3466  155.5121 H   0  0  0  0  0  0  0  0  0  0  0  0  # atno 8010 bound_to 7997
  140.0144  143.5408  152.2248 H   0  0  0  0  0  0  0  0  0  0  0  0  # atno 10167 bound_to 10162
  156.4969  130.4579  149.6723 H   0  0  0  0  0  0  0  0  0  0  0  0  # atno 10718 bound_to 10713
  153.1115  135.4766  154.9043 H   0  0  0  0  0  0  0  0  0  0  0  0  # atno 10763 bound_to 10752
  154.7485  135.3100  154.8602 H   0  0  0  0  0  0  0  0  0  0  0  0  # atno 10764 bound_to 10752
  153.9190  135.6857  153.4802 H   0  0  0  0  0  0  0  0  0  0  0  0  # atno 10765 bound_to 10752
  140.7172  133.8859  155.8794 H   0  0  0  0  0  0  0  0  0  0  0  0  # atno 11005 bound_to 11000
  145.6843  139.1625  143.2683 LP  0  0  0  0  0  0  0  0  0  0  0  0  # atno 17320 bound_to 7965
  146.1528  140.6901  142.9314 LP  0  0  0  0  0  0  0  0  0  0  0  0  # atno 17321 bound_to 7965
  139.6182  144.7624  151.2798 LP  0  0  0  0  0  0  0  0  0  0  0  0  # atno 17342 bound_to 10162
  140.7368  143.6697  150.8093 LP  0  0  0  0  0  0  0  0  0  0  0  0  # atno 17343 bound_to 10162
  156.3371  130.7362  151.2301 LP  0  0  0  0  0  0  0  0  0  0  0  0  # atno 17370 bound_to 10713
  157.7467  131.0414  150.4644 LP  0  0  0  0  0  0  0  0  0  0  0  0  # atno 17371 bound_to 10713
  141.0034  134.1119  157.4294 LP  0  0  0  0  0  0  0  0  0  0  0  0  # atno 17394 bound_to 11000
  139.8857  135.0074  156.6451 LP  0  0  0  0  0  0  0  0  0  0  0  0  # atno 17395 bound_to 11000

$$$$
