AV-unprocessed.smi:876|AV-procd|sdf|4019|dock9
  -GOLD-   22720 1503D 1   1.00000     0.00000
 Structure written by MMmdl.
 41 42  0  0  0  0  0  0  0  0  2 V2000
  144.8987  137.4913  153.2534 C   0  0  0  0  0  0  0  0  0  0  0  0
  146.0353  138.1210  152.5943 N   0  0  0  0  0  0  0  0  0  0  0  0
  146.3299  137.8297  151.1955 C   0  0  0  0  0  0  0  0  0  0  0  0
  146.8733  138.9947  153.3207 C   0  0  0  0  0  0  0  0  0  0  0  0
  148.2292  138.7062  153.6114 C   0  0  0  0  0  0  0  0  0  0  0  0
  149.0054  139.6291  154.3425 C   0  0  0  0  0  0  0  0  0  0  0  0
  148.4229  140.8459  154.7740 C   0  0  0  0  0  0  0  0  0  0  0  0
  149.1082  141.8362  155.5287 N   0  0  0  0  0  0  0  0  0  0  0  0
  150.3078  141.7510  156.1296 C   0  0  0  0  0  0  0  0  0  0  0  0
  151.0496  140.7693  156.1016 O   0  0  0  0  0  0  0  0  0  0  0  0
  150.6176  142.8926  156.7599 N   0  0  0  0  0  0  0  0  0  0  0  0
  151.8548  143.1273  157.4963 C   0  0  2  0  0  0  0  0  0  0  0  0
  151.8928  142.2909  158.7459 C   0  0  0  0  0  0  0  0  0  0  0  0
  152.0953  143.0162  159.8435 C   0  0  0  0  0  0  0  0  0  0  0  0
  152.2271  144.4899  159.5548 C   0  0  2  0  0  0  0  0  0  0  0  0
  151.2593  145.3532  160.3825 C   0  0  0  0  0  0  0  0  0  0  0  0
  149.9357  144.8767  160.2565 O   0  0  0  0  0  0  0  0  0  0  0  0
  151.9733  144.5801  158.0283 C   0  0  0  0  0  0  0  0  0  0  0  0
  147.0662  141.0778  154.4712 C   0  0  0  0  0  0  0  0  0  0  0  0
  146.3598  140.1666  153.7685 N   0  3  0  0  0  0  0  0  0  0  0  0
  152.7180  142.8645  156.8825 H   0  0  0  0  0  0  0  0  0  0  0  0
  153.2560  144.7822  159.7696 H   0  0  0  0  0  0  0  0  0  0  0  0
  144.1999  138.2453  153.6169 H   0  0  0  0  0  0  0  0  0  0  0  0
  145.2313  136.8873  154.0980 H   0  0  0  0  0  0  0  0  0  0  0  0
  144.3566  136.8375  152.5703 H   0  0  0  0  0  0  0  0  0  0  0  0
  147.3156  137.3729  151.0984 H   0  0  0  0  0  0  0  0  0  0  0  0
  146.3100  138.7437  150.6008 H   0  0  0  0  0  0  0  0  0  0  0  0
  145.5995  137.1405  150.7714 H   0  0  0  0  0  0  0  0  0  0  0  0
  148.6906  137.7847  153.2895 H   0  0  0  0  0  0  0  0  0  0  0  0
  150.0297  139.3753  154.5672 H   0  0  0  0  0  0  0  0  0  0  0  0
  148.6550  142.7371  155.5740 H   0  0  0  0  0  0  0  0  0  0  0  0
  149.9551  143.6538  156.7293 H   0  0  0  0  0  0  0  0  0  0  0  0
  151.7830  141.2166  158.7239 H   0  0  0  0  0  0  0  0  0  0  0  0
  152.1727  142.6172  160.8442 H   0  0  0  0  0  0  0  0  0  0  0  0
  151.5366  145.3260  161.4367 H   0  0  0  0  0  0  0  0  0  0  0  0
  151.2981  146.3958  160.0642 H   0  0  0  0  0  0  0  0  0  0  0  0
  149.5986  145.1442  159.4149 H   0  0  0  0  0  0  0  0  0  0  0  0
  152.7826  145.1131  157.5282 H   0  0  0  0  0  0  0  0  0  0  0  0
  151.0603  145.1430  157.8269 H   0  0  0  0  0  0  0  0  0  0  0  0
  146.5244  141.9658  154.7632 H   0  0  0  0  0  0  0  0  0  0  0  0
  145.3821  140.3730  153.5634 H   0  0  0  0  0  0  0  0  0  0  0  0
  1  2  1  0  0  0  0
  1 23  1  0  0  0  0
  1 24  1  0  0  0  0
  1 25  1  0  0  0  0
  2  3  1  0  0  0  0
  2  4  1  0  0  0  0
  3 26  1  0  0  0  0
  3 27  1  0  0  0  0
  3 28  1  0  0  0  0
  4 20  1  0  0  0  0
  4  5  2  0  0  0  0
  5  6  1  0  0  0  0
  5 29  1  0  0  0  0
  6  7  2  0  0  0  0
  6 30  1  0  0  0  0
  7  8  1  0  0  0  0
  7 19  1  0  0  0  0
  8  9  1  0  0  0  0
  8 31  1  0  0  0  0
  9 10  2  0  0  0  0
  9 11  1  0  0  0  0
 11 12  1  0  0  0  0
 11 32  1  0  0  0  0
 12 21  1  0  0  0  0
 12 18  1  0  0  0  0
 12 13  1  0  0  0  0
 13 14  2  0  0  0  0
 13 33  1  0  0  0  0
 14 15  1  0  0  0  0
 14 34  1  0  0  0  0
 15 22  1  0  0  0  0
 15 16  1  0  0  0  0
 15 18  1  0  0  0  0
 16 17  1  0  0  0  0
 16 35  1  0  0  0  0
 16 36  1  0  0  0  0
 17 37  1  0  0  0  0
 18 38  1  0  0  0  0
 18 39  1  0  0  0  0
 19 20  2  0  0  0  0
 19 40  1  0  0  0  0
 20 41  1  0  0  0  0
M  CHG  1  20   1
M  END
> <s_m_source_file>
AV-unprocessed.smi

> <i_m_source_file_index>
876

> <i_lp_mmshare_version>
43012

> <i_f3d_flags>
0

> <s_epik_input>
W0NIM11OKFtDSDNdKWMxW2NIXVtjSF1jKFtjSF1uMSlbTkhdQyg9TylbTkhdW0NAQEhdMltDSF09W0NIXVtDQEBIXShbQ0gyXTIpW0NIMl1bT0hd

> <s_epik_cmdline>
J2VwaWtfcHl0aG9uJywgJy1waCcsICc3LjAnLCAnLXRuJywgJzgnLCAnLW1hJywgJzIwMCcsICctbWV0YWxfYmluZGluZycsICctaW1hZScsICc8aW5maWxlLm1hZT4nLCAnLW9tYWUnLCAnPG91dGZpbGUubWFlPic=

> <r_lp_tautomer_probability>
0.999994

> <r_epik_Ionization_Penalty>
0.257994

> <r_epik_Ionization_Penalty_Charging>
0.257974

> <r_epik_Ionization_Penalty_Neutral>
1.95938e-05

> <r_epik_State_Penalty>
0.249586

> <r_epik_Charging_Adjusted_Penalty>
0.50756

> <i_epik_Tot_Q>
1

> <i_epik_Tot_abs_Q>
1

> <r_epik_Metal_State_Penalty>
0.538508

> <b_epik_Metal_Only>
0

> <s_lp_Force_Field>
OPLS_2005

> <r_lp_Energy>
26.1458

> <b_lp_Chiralities_Consistent>
1

> <s_lp_Variant>
AV-unprocessed.smi:876-1

> <Gold.Version>
5.8.1

> <Gold.Id.Protein>
6NUR|6NUR_protein|mol2

> <Gold.PLP.Fitness>
48.3003

> <Gold.PLP.PLP>
-38.9605

> <Gold.PLP.part.hbond>
-3.3807

> <Gold.PLP.part.metal>
0.0000

> <Gold.PLP.part.buried>
-0.5757

> <Gold.PLP.part.nonpolar>
-36.6383

> <Gold.PLP.part.repulsive>
0.2327

> <Gold.PLP.ligand.clash>
0.0000

> <Gold.PLP.ligand.torsion>
1.3393

> <Gold.PLP.Chemscore.Hbond>
4.0000

> <Gold.PLP.Chemscore.CHOScore>
0.0000

> <Gold.PLP.Chemscore.Metal>
0.0000

> <Gold.Chemscore.Hbonds>
donor molecule, donor type, donor heavy atom, donor atom, acceptor molecule, acceptor atom, score
      L1  H     8    31       P1  8028  0.94
      L1  H    11    32       P1  8028  0.94
      L1  H    20    41       P1 10175  2.00

> <Gold.PLP.Chemscore.Internal.Correction>
0.0184

> <Gold.Rescore>
     Score         DG    S(hbond)    S(metal)    S(lipo)     H(rot)  DE(clash)    DE(int)     intcor
     17.99     -22.48       2.84        0.00     104.13       1.82       1.74       2.76       ----

> <Gold.Chemscore.Fitness>
17.9852

> <Gold.Chemscore.DG>
-22.4809

> <Gold.Chemscore.ZeroCoef>
-5.4800

> <Gold.Chemscore.Hbond>
2.8373

> <Gold.Chemscore.Metal>
0.0000

> <Gold.Chemscore.Lipo>
104.1258

> <Gold.Chemscore.Internal_Hbond>
0.0000

> <Gold.Chemscore.DEClash>
1.7357

> <Gold.Chemscore.DEInternal>
2.7600

> <Gold.Chemscore.Rot>
1.8197

> <Gold.Chemscore.Internal.Correction>
   9.000000E+99

> <Gold.Chemscore.Hbonds>
donor molecule, donor type, donor heavy atom, donor atom, acceptor molecule, acceptor atom, score
      L1  H     8    31       P1  8028  0.89
      L1  H    11    32       P1  8028  0.91
      L1  H    20    41       P1 10175  0.93

> <Gold.Chemscore.Hbond.Weighted>
-9.4767

> <Gold.Chemscore.Metal.Weighted>
-0.0000

> <Gold.Chemscore.Lipo.Weighted>
-12.1827

> <Gold.Chemscore.Internal_Hbond.Weighted>
0.0000

> <Gold.Chemscore.DEClash.Weighted>
1.7357

> <Gold.Chemscore.DEInternal.Weighted>
2.7600

> <Gold.Chemscore.Rot.Weighted>
4.6585

> <Gold.Chemscore.Internal.Correction.Weighted>
   9.000000E+99

> <Gold.Protein.RotatedTorsions>
[ 6907 6896 6895 6894 ] final -154.12 input  -60.11 | X-H torsion
[ 7974 7965 7964 7962 ] final  -43.29 input  175.53 | X-H torsion
[ 8008 7997 7996 7995 ] final   74.13 input   59.86 | X-H torsion
[ 10167 10162 10161 10158 ] final  105.14 input  -65.29 | X-H torsion
[ 10718 10713 10712 10709 ] final   75.74 input   66.30 | X-H torsion
[ 10763 10752 10751 10750 ] final   86.02 input  -60.55 | X-H torsion
[ 11005 11000 10999 10996 ] final   83.48 input  -57.11 | X-H torsion

> <Gold.Protein.ActiveResidues>
 VAL166  LYS551  ARG553  GLY616  TRP617  ASP618  TYR619  PRO620  LYS621  CYS622 
 ASP623  PHE694  ASN695  SER759  ASP760  ASP761  ALA762  ILE779  LEU786  VAL792 
 PHE793  MET794  SER795  GLU796  ALA797  LYS798  CYS799  TRP800  GLU811  SER814 

> <Gold.Protein.RotatedAtoms>
  151.2527  133.4342  159.2612 H   0  0  0  0  0  0  0  0  0  0  0  0  # atno 6907 bound_to 6896
  151.0602  134.9732  159.8267 H   0  0  0  0  0  0  0  0  0  0  0  0  # atno 6908 bound_to 6896
  152.5397  134.2478  159.8939 H   0  0  0  0  0  0  0  0  0  0  0  0  # atno 6909 bound_to 6896
  146.0033  140.7049  142.9260 H   0  0  0  0  0  0  0  0  0  0  0  0  # atno 7974 bound_to 7965
  155.7938  140.3478  155.5364 H   0  0  0  0  0  0  0  0  0  0  0  0  # atno 8008 bound_to 7997
  155.8607  140.0971  157.1635 H   0  0  0  0  0  0  0  0  0  0  0  0  # atno 8009 bound_to 7997
  154.4012  140.1359  156.3944 H   0  0  0  0  0  0  0  0  0  0  0  0  # atno 8010 bound_to 7997
  139.7118  144.7076  151.1015 H   0  0  0  0  0  0  0  0  0  0  0  0  # atno 10167 bound_to 10162
  157.6646  130.9741  150.1396 H   0  0  0  0  0  0  0  0  0  0  0  0  # atno 10718 bound_to 10713
  153.1530  135.4596  154.9664 H   0  0  0  0  0  0  0  0  0  0  0  0  # atno 10763 bound_to 10752
  154.7839  135.3197  154.7931 H   0  0  0  0  0  0  0  0  0  0  0  0  # atno 10764 bound_to 10752
  153.8433  135.6928  153.4855 H   0  0  0  0  0  0  0  0  0  0  0  0  # atno 10765 bound_to 10752
  139.9029  134.8148  156.2316 H   0  0  0  0  0  0  0  0  0  0  0  0  # atno 11005 bound_to 11000
  144.6927  140.3272  143.7222 LP  0  0  0  0  0  0  0  0  0  0  0  0  # atno 17320 bound_to 7965
  145.7454  139.1777  143.2352 LP  0  0  0  0  0  0  0  0  0  0  0  0  # atno 17321 bound_to 7965
  140.7735  143.5283  150.9453 LP  0  0  0  0  0  0  0  0  0  0  0  0  # atno 17342 bound_to 10162
  139.8968  143.6885  152.3137 LP  0  0  0  0  0  0  0  0  0  0  0  0  # atno 17343 bound_to 10162
  156.2222  130.3675  149.8542 LP  0  0  0  0  0  0  0  0  0  0  0  0  # atno 17370 bound_to 10713
  156.6392  130.8698  151.3510 LP  0  0  0  0  0  0  0  0  0  0  0  0  # atno 17371 bound_to 10713
  141.0342  133.6972  156.1483 LP  0  0  0  0  0  0  0  0  0  0  0  0  # atno 17394 bound_to 11000
  140.7052  134.4521  157.5584 LP  0  0  0  0  0  0  0  0  0  0  0  0  # atno 17395 bound_to 11000

$$$$
