AV-unprocessed.smi:1199|AV-procd|sdf|5014|dock5
  -GOLD-   22720 4 33D 1   1.00000     0.00000
 Structure written by MMmdl.
 40 41  0  0  0  0  0  0  0  0  2 V2000
  149.6564  141.9721  158.2789 C   0  0  0  0  0  0  0  0  0  0  0  0
  150.0631  140.7276  157.4728 C   0  0  2  0  0  0  0  0  0  0  0  0
  150.2004  141.0525  155.9691 C   0  0  0  0  0  0  0  0  0  0  0  0
  151.0074  140.1129  155.1874 N   0  0  0  0  0  0  0  0  0  0  0  0
  152.2416  139.7238  155.8670 C   0  0  0  0  0  0  0  0  0  0  0  0
  153.0547  138.7007  155.0559 C   0  0  0  0  0  0  0  0  0  0  0  0
  152.2482  137.5637  154.7674 O   0  0  0  0  0  0  0  0  0  0  0  0
  151.0635  137.9009  154.0540 C   0  0  0  0  0  0  0  0  0  0  0  0
  150.2423  138.9106  154.8737 C   0  0  0  0  0  0  0  0  0  0  0  0
  149.0579  139.6856  157.6537 N   0  0  0  0  0  0  0  0  0  0  0  0
  149.2110  138.5446  158.3458 C   0  0  0  0  0  0  0  0  0  0  0  0
  150.2335  138.2747  158.9755 O   0  0  0  0  0  0  0  0  0  0  0  0
  148.0518  137.5332  158.3144 C   0  0  0  0  0  0  0  0  0  0  0  0
  147.8504  136.8036  159.5775 N   0  0  0  0  0  0  0  0  0  0  0  0
  147.1129  137.5577  160.5873 N   0  5  0  0  0  0  0  0  0  0  0  0
  146.8080  136.9591  161.7692 C   0  0  0  0  0  0  0  0  0  0  0  0
  146.1709  137.5222  162.6563 O   0  0  0  0  0  0  0  0  0  0  0  0
  147.2618  135.5949  161.9825 C   0  0  0  0  0  0  0  0  0  0  0  0
  147.9584  134.9297  161.0402 C   0  0  0  0  0  0  0  0  0  0  0  0
  148.2929  135.5256  159.7528 C   0  0  0  0  0  0  0  0  0  0  0  0
  148.9130  134.9168  158.8811 O   0  0  0  0  0  0  0  0  0  0  0  0
  150.3970  142.7655  158.1762 H   0  0  0  0  0  0  0  0  0  0  0  0
  149.5695  141.7451  159.3418 H   0  0  0  0  0  0  0  0  0  0  0  0
  148.6967  142.3662  157.9428 H   0  0  0  0  0  0  0  0  0  0  0  0
  151.0275  140.3809  157.8489 H   0  0  0  0  0  0  0  0  0  0  0  0
  149.2141  141.1716  155.5172 H   0  0  0  0  0  0  0  0  0  0  0  0
  150.6722  142.0328  155.8901 H   0  0  0  0  0  0  0  0  0  0  0  0
  152.8690  140.5977  156.0371 H   0  0  0  0  0  0  0  0  0  0  0  0
  152.0091  139.3059  156.8477 H   0  0  0  0  0  0  0  0  0  0  0  0
  153.4147  139.1446  154.1267 H   0  0  0  0  0  0  0  0  0  0  0  0
  153.9319  138.3835  155.6203 H   0  0  0  0  0  0  0  0  0  0  0  0
  151.3212  138.3136  153.0778 H   0  0  0  0  0  0  0  0  0  0  0  0
  150.4839  136.9949  153.8768 H   0  0  0  0  0  0  0  0  0  0  0  0
  149.9064  138.4344  155.7963 H   0  0  0  0  0  0  0  0  0  0  0  0
  149.3437  139.1782  154.3167 H   0  0  0  0  0  0  0  0  0  0  0  0
  148.1746  139.8196  157.1814 H   0  0  0  0  0  0  0  0  0  0  0  0
  147.1350  138.0542  158.0336 H   0  0  0  0  0  0  0  0  0  0  0  0
  148.2438  136.8293  157.5027 H   0  0  0  0  0  0  0  0  0  0  0  0
  147.0378  135.1048  162.9184 H   0  0  0  0  0  0  0  0  0  0  0  0
  148.2764  133.9177  161.2422 H   0  0  0  0  0  0  0  0  0  0  0  0
  1  2  1  0  0  0  0
  1 22  1  0  0  0  0
  1 23  1  0  0  0  0
  1 24  1  0  0  0  0
  2  3  1  0  0  0  0
  2 10  1  0  0  0  0
  2 25  1  0  0  0  0
  3  4  1  0  0  0  0
  3 26  1  0  0  0  0
  3 27  1  0  0  0  0
  4  9  1  0  0  0  0
  4  5  1  0  0  0  0
  5  6  1  0  0  0  0
  5 28  1  0  0  0  0
  5 29  1  0  0  0  0
  6  7  1  0  0  0  0
  6 30  1  0  0  0  0
  6 31  1  0  0  0  0
  7  8  1  0  0  0  0
  8  9  1  0  0  0  0
  8 32  1  0  0  0  0
  8 33  1  0  0  0  0
  9 34  1  0  0  0  0
  9 35  1  0  0  0  0
 10 11  1  0  0  0  0
 10 36  1  0  0  0  0
 11 12  2  0  0  0  0
 11 13  1  0  0  0  0
 13 37  1  0  0  0  0
 13 38  1  0  0  0  0
 13 14  1  0  0  0  0
 14 15  1  0  0  0  0
 14 20  1  0  0  0  0
 15 16  1  0  0  0  0
 16 17  2  0  0  0  0
 16 18  1  0  0  0  0
 18 39  1  0  0  0  0
 18 19  2  0  0  0  0
 19 40  1  0  0  0  0
 19 20  1  0  0  0  0
 20 21  2  0  0  0  0
M  CHG  1  15  -1
M  END
> <s_m_source_file>
AV-unprocessed.smi

> <i_m_source_file_index>
1199

> <i_lp_mmshare_version>
43012

> <i_f3d_flags>
0

> <s_epik_input>
W0NIMl0xW0NIMl1PW0NIMl1bQ0gyXU4xW0NIMl1bQ0BASF0oW0NIM10pW05IXUMoPU8pW0NIMl1uMltuSF1jKD1PKVtjSF1bY0hdYzI9Tw==

> <s_epik_cmdline>
J2VwaWtfcHl0aG9uJywgJy1waCcsICc3LjAnLCAnLXRuJywgJzgnLCAnLW1hJywgJzIwMCcsICctbWV0YWxfYmluZGluZycsICctaW1hZScsICc8aW5maWxlLm1hZT4nLCAnLW9tYWUnLCAnPG91dGZpbGUubWFlPic=

> <r_lp_tautomer_probability>
1

> <r_epik_Ionization_Penalty>
0.334996

> <r_epik_Ionization_Penalty_Charging>
0.0976136

> <r_epik_Ionization_Penalty_Neutral>
0.237382

> <r_epik_State_Penalty>
0.26804

> <r_epik_Charging_Adjusted_Penalty>
0.365653

> <i_epik_Tot_Q>
-1

> <i_epik_Tot_abs_Q>
1

> <r_epik_Metal_State_Penalty>
0.26804

> <b_epik_Metal_Only>
0

> <s_lp_Force_Field>
OPLS_2005

> <r_lp_Energy>
38.5668

> <b_lp_Chiralities_Consistent>
1

> <s_lp_Variant>
AV-unprocessed.smi:1199-1

> <Gold.Version>
5.8.1

> <Gold.Id.Protein>
6NUR|6NUR_protein|mol2

> <Gold.PLP.Fitness>
44.5942

> <Gold.PLP.PLP>
-32.3583

> <Gold.PLP.part.hbond>
-5.1648

> <Gold.PLP.part.metal>
0.0000

> <Gold.PLP.part.buried>
-3.8398

> <Gold.PLP.part.nonpolar>
-24.5134

> <Gold.PLP.part.repulsive>
0.2647

> <Gold.PLP.ligand.clash>
0.0000

> <Gold.PLP.ligand.torsion>
1.0300

> <Gold.PLP.Chemscore.Hbond>
4.7578

> <Gold.PLP.Chemscore.CHOScore>
0.0000

> <Gold.PLP.Chemscore.Metal>
0.0000

> <Gold.Chemscore.Hbonds>
donor molecule, donor type, donor heavy atom, donor atom, acceptor molecule, acceptor atom, score
      P1  H  6896  6908       L1    21  1.00
      P1  H  6934  6947       L1    15  1.85
      P1  H  7989  7998       L1     4  1.00
      P1  H 10752 10764       L1     7  0.64

> <Gold.PLP.Chemscore.Internal.Correction>
0.0226

> <Gold.Rescore>
     Score         DG    S(hbond)    S(metal)    S(lipo)     H(rot)  DE(clash)    DE(int)     intcor
     14.22     -15.29       2.63        0.00      59.01       2.30       0.03       1.03       ----

> <Gold.Chemscore.Fitness>
14.2215

> <Gold.Chemscore.DG>
-15.2884

> <Gold.Chemscore.ZeroCoef>
-5.4800

> <Gold.Chemscore.Hbond>
2.6290

> <Gold.Chemscore.Metal>
0.0000

> <Gold.Chemscore.Lipo>
59.0084

> <Gold.Chemscore.Internal_Hbond>
0.0000

> <Gold.Chemscore.DEClash>
0.0329

> <Gold.Chemscore.DEInternal>
1.0340

> <Gold.Chemscore.Rot>
2.2955

> <Gold.Chemscore.Internal.Correction>
   9.000000E+99

> <Gold.Chemscore.Hbonds>
donor molecule, donor type, donor heavy atom, donor atom, acceptor molecule, acceptor atom, score
      P1  H  6896  6908       L1    21  0.91
      P1  H  6934  6947       L1    15  0.40
      P1  H  7989  7998       L1     4  0.22
      P1  H 10752 10764       L1     7  0.56

> <Gold.Chemscore.Hbond.Weighted>
-8.7810

> <Gold.Chemscore.Metal.Weighted>
-0.0000

> <Gold.Chemscore.Lipo.Weighted>
-6.9040

> <Gold.Chemscore.Internal_Hbond.Weighted>
0.0000

> <Gold.Chemscore.DEClash.Weighted>
0.0329

> <Gold.Chemscore.DEInternal.Weighted>
1.0340

> <Gold.Chemscore.Rot.Weighted>
5.8766

> <Gold.Chemscore.Internal.Correction.Weighted>
   9.000000E+99

> <Gold.Protein.RotatedTorsions>
[ 6907 6896 6895 6894 ] final  145.92 input  -60.11 | X-H torsion
[ 7974 7965 7964 7962 ] final -137.94 input  175.53 | X-H torsion
[ 8008 7997 7996 7995 ] final  -11.65 input   59.86 | X-H torsion
[ 10167 10162 10161 10158 ] final -149.21 input  -65.29 | X-H torsion
[ 10718 10713 10712 10709 ] final  149.80 input   66.30 | X-H torsion
[ 10763 10752 10751 10750 ] final  -66.13 input  -60.55 | X-H torsion
[ 11005 11000 10999 10996 ] final  136.27 input  -57.11 | X-H torsion

> <Gold.Protein.ActiveResidues>
 VAL166  LYS551  ARG553  GLY616  TRP617  ASP618  TYR619  PRO620  LYS621  CYS622 
 ASP623  PHE694  ASN695  SER759  ASP760  ASP761  ALA762  ILE779  LEU786  VAL792 
 PHE793  MET794  SER795  GLU796  ALA797  LYS798  CYS799  TRP800  GLU811  SER814 

> <Gold.Protein.RotatedAtoms>
  152.1746  133.4666  159.4926 H   0  0  0  0  0  0  0  0  0  0  0  0  # atno 6907 bound_to 6896
  150.6925  134.1910  159.4294 H   0  0  0  0  0  0  0  0  0  0  0  0  # atno 6908 bound_to 6896
  151.9818  135.0024  160.0608 H   0  0  0  0  0  0  0  0  0  0  0  0  # atno 6909 bound_to 6896
  144.8799  140.6492  143.5212 H   0  0  0  0  0  0  0  0  0  0  0  0  # atno 7974 bound_to 7965
  154.5446  140.2297  155.8584 H   0  0  0  0  0  0  0  0  0  0  0  0  # atno 8008 bound_to 7997
  156.1891  140.3081  155.9258 H   0  0  0  0  0  0  0  0  0  0  0  0  # atno 8009 bound_to 7997
  155.3189  140.0439  157.3029 H   0  0  0  0  0  0  0  0  0  0  0  0  # atno 8010 bound_to 7997
  139.7462  143.8587  152.2575 H   0  0  0  0  0  0  0  0  0  0  0  0  # atno 10167 bound_to 10162
  157.2915  131.0854  151.1458 H   0  0  0  0  0  0  0  0  0  0  0  0  # atno 10718 bound_to 10713
  154.3552  135.6128  153.5663 H   0  0  0  0  0  0  0  0  0  0  0  0  # atno 10763 bound_to 10752
  152.9796  135.5802  154.4697 H   0  0  0  0  0  0  0  0  0  0  0  0  # atno 10764 bound_to 10752
  154.4425  135.2850  155.1815 H   0  0  0  0  0  0  0  0  0  0  0  0  # atno 10765 bound_to 10752
  140.0035  134.9469  157.0124 H   0  0  0  0  0  0  0  0  0  0  0  0  # atno 11005 bound_to 11000
  145.3973  139.1604  143.4197 LP  0  0  0  0  0  0  0  0  0  0  0  0  # atno 17320 bound_to 7965
  146.2988  140.4067  142.8712 LP  0  0  0  0  0  0  0  0  0  0  0  0  # atno 17321 bound_to 7965
  139.8552  144.7145  150.9166 LP  0  0  0  0  0  0  0  0  0  0  0  0  # atno 17342 bound_to 10162
  140.7792  143.3865  151.1385 LP  0  0  0  0  0  0  0  0  0  0  0  0  # atno 17343 bound_to 10162
  157.2852  130.6769  149.6086 LP  0  0  0  0  0  0  0  0  0  0  0  0  # atno 17370 bound_to 10713
  155.9667  130.4437  150.5434 LP  0  0  0  0  0  0  0  0  0  0  0  0  # atno 17371 bound_to 10713
  140.4684  134.1411  155.7200 LP  0  0  0  0  0  0  0  0  0  0  0  0  # atno 17394 bound_to 11000
  141.1659  133.8703  157.1714 LP  0  0  0  0  0  0  0  0  0  0  0  0  # atno 17395 bound_to 11000

$$$$
