AV-unprocessed.smi:3044|AV-procd|sdf|11605|dock6
  -GOLD-   2272016583D 1   1.00000     0.00000
 Structure written by MMmdl.
 41 42  0  0  0  0  0  0  0  0  1 V2000
  154.1621  140.6328  160.3662 C   0  0  0  0  0  0  0  0  0  0  0  0
  153.7047  141.7200  161.3241 C   0  0  0  0  0  0  0  0  0  0  0  0
  154.2252  141.6529  162.5698 N   0  0  0  0  0  0  0  0  0  0  0  0
  153.8592  142.5931  163.4659 C   0  0  0  0  0  0  0  0  0  0  0  0
  152.9701  143.6417  163.1641 C   0  0  0  0  0  0  0  0  0  0  0  0
  152.4283  143.7100  161.8669 C   0  0  0  0  0  0  0  0  0  0  0  0
  152.7886  142.7218  160.9190 C   0  0  0  0  0  0  0  0  0  0  0  0
  152.3119  142.7131  159.5795 N   0  0  0  0  0  0  0  0  0  0  0  0
  151.5974  143.6499  158.9281 C   0  0  0  0  0  0  0  0  0  0  0  0
  151.2596  144.7312  159.4076 O   0  0  0  0  0  0  0  0  0  0  0  0
  151.1899  143.3097  157.4928 C   0  0  0  0  0  0  0  0  0  0  0  0
  151.5258  141.9556  157.2162 O   0  0  0  0  0  0  0  0  0  0  0  0
  150.4718  141.0213  157.4065 C   0  0  2  0  0  0  0  0  0  0  0  0
  150.9388  139.5847  157.0940 C   0  0  0  0  0  0  0  0  0  0  0  0
  151.3141  139.4204  155.6124 C   0  0  0  0  0  0  0  0  0  0  0  0
  150.1543  139.8349  154.6931 C   0  0  0  0  0  0  0  0  0  0  0  0
  149.6886  141.2743  154.9832 C   0  0  1  0  0  0  0  0  0  0  0  0
  148.5244  141.6836  154.0699 C   0  0  0  0  0  0  0  0  0  0  0  0
  149.3186  141.4325  156.4728 C   0  0  0  0  0  0  0  0  0  0  0  0
  153.3070  140.0623  160.0021 H   0  0  0  0  0  0  0  0  0  0  0  0
  154.8500  139.9367  160.8477 H   0  0  0  0  0  0  0  0  0  0  0  0
  154.6727  141.0721  159.5088 H   0  0  0  0  0  0  0  0  0  0  0  0
  154.2935  142.5114  164.4511 H   0  0  0  0  0  0  0  0  0  0  0  0
  152.7140  144.3798  163.9095 H   0  0  0  0  0  0  0  0  0  0  0  0
  151.7626  144.5225  161.6207 H   0  0  0  0  0  0  0  0  0  0  0  0
  152.4458  141.8464  159.0786 H   0  0  0  0  0  0  0  0  0  0  0  0
  150.1194  143.4796  157.3766 H   0  0  0  0  0  0  0  0  0  0  0  0
  151.7129  143.9786  156.8079 H   0  0  0  0  0  0  0  0  0  0  0  0
  150.1155  141.0788  158.4366 H   0  0  0  0  0  0  0  0  0  0  0  0
  151.7797  139.2999  157.7257 H   0  0  0  0  0  0  0  0  0  0  0  0
  150.1347  138.8889  157.3368 H   0  0  0  0  0  0  0  0  0  0  0  0
  152.1940  140.0245  155.3874 H   0  0  0  0  0  0  0  0  0  0  0  0
  151.5922  138.3850  155.4138 H   0  0  0  0  0  0  0  0  0  0  0  0
  150.4647  139.7457  153.6515 H   0  0  0  0  0  0  0  0  0  0  0  0
  149.3209  139.1437  154.8266 H   0  0  0  0  0  0  0  0  0  0  0  0
  150.5210  141.9460  154.7670 H   0  0  0  0  0  0  0  0  0  0  0  0
  147.6508  141.0522  154.2342 H   0  0  0  0  0  0  0  0  0  0  0  0
  148.8025  141.6012  153.0188 H   0  0  0  0  0  0  0  0  0  0  0  0
  148.2278  142.7167  154.2519 H   0  0  0  0  0  0  0  0  0  0  0  0
  148.4430  140.8215  156.6960 H   0  0  0  0  0  0  0  0  0  0  0  0
  149.0313  142.4641  156.6794 H   0  0  0  0  0  0  0  0  0  0  0  0
  1  2  1  0  0  0  0
  1 20  1  0  0  0  0
  1 21  1  0  0  0  0
  1 22  1  0  0  0  0
  2  7  1  0  0  0  0
  2  3  2  0  0  0  0
  3  4  1  0  0  0  0
  4  5  2  0  0  0  0
  4 23  1  0  0  0  0
  5  6  1  0  0  0  0
  5 24  1  0  0  0  0
  6  7  2  0  0  0  0
  6 25  1  0  0  0  0
  7  8  1  0  0  0  0
  8  9  1  0  0  0  0
  8 26  1  0  0  0  0
  9 10  2  0  0  0  0
  9 11  1  0  0  0  0
 11 12  1  0  0  0  0
 11 27  1  0  0  0  0
 11 28  1  0  0  0  0
 12 13  1  0  0  0  0
 13 19  1  0  0  0  0
 13 14  1  0  0  0  0
 13 29  1  0  0  0  0
 14 15  1  0  0  0  0
 14 30  1  0  0  0  0
 14 31  1  0  0  0  0
 15 16  1  0  0  0  0
 15 32  1  0  0  0  0
 15 33  1  0  0  0  0
 16 17  1  0  0  0  0
 16 34  1  0  0  0  0
 16 35  1  0  0  0  0
 17 18  1  0  0  0  0
 17 19  1  0  0  0  0
 17 36  1  0  0  0  0
 18 37  1  0  0  0  0
 18 38  1  0  0  0  0
 18 39  1  0  0  0  0
 19 40  1  0  0  0  0
 19 41  1  0  0  0  0
M  END
> <s_m_source_file>
AV-unprocessed.smi

> <i_m_source_file_index>
3044

> <i_lp_mmshare_version>
43012

> <i_f3d_flags>
0

> <s_epik_input>
W0NIM11jMW5bY0hdW2NIXVtjSF1jMVtOSF1DKD1PKVtDSDJdT1tDQEBIXTJbQ0gyXVtDSDJdW0NIMl1bQ0BASF0oW0NIM10pW0NIMl0y

> <s_epik_cmdline>
J2VwaWtfcHl0aG9uJywgJy1waCcsICc3LjAnLCAnLXRuJywgJzgnLCAnLW1hJywgJzIwMCcsICctbWV0YWxfYmluZGluZycsICctaW1hZScsICc8aW5maWxlLm1hZT4nLCAnLW9tYWUnLCAnPG91dGZpbGUubWFlPic=

> <r_epik_Ionization_Penalty>
0.0077122

> <r_epik_Ionization_Penalty_Charging>
0

> <r_epik_Ionization_Penalty_Neutral>
0.0077122

> <r_epik_State_Penalty>
0.00577497

> <r_epik_Charging_Adjusted_Penalty>
0.00577497

> <i_epik_Tot_Q>
0

> <i_epik_Tot_abs_Q>
0

> <r_epik_Metal_State_Penalty>
-0

> <b_epik_Metal_Only>
0

> <s_lp_Force_Field>
OPLS_2005

> <r_lp_Energy>
17.2241

> <b_lp_Chiralities_Consistent>
1

> <s_lp_Variant>
AV-unprocessed.smi:3044-1

> <Gold.Version>
5.8.1

> <Gold.Id.Protein>
6NUR|6NUR_protein|mol2

> <Gold.PLP.Fitness>
43.8144

> <Gold.PLP.PLP>
-44.4317

> <Gold.PLP.part.hbond>
-1.0000

> <Gold.PLP.part.metal>
0.0000

> <Gold.PLP.part.buried>
-2.1348

> <Gold.PLP.part.nonpolar>
-39.3898

> <Gold.PLP.part.repulsive>
0.2126

> <Gold.PLP.ligand.clash>
0.0000

> <Gold.PLP.ligand.torsion>
0.3151

> <Gold.PLP.Chemscore.Hbond>
0.0000

> <Gold.PLP.Chemscore.CHOScore>
0.0000

> <Gold.PLP.Chemscore.Metal>
0.0000

> <Gold.PLP.Chemscore.Internal.Correction>
0.0129

> <Gold.Rescore>
     Score         DG    S(hbond)    S(metal)    S(lipo)     H(rot)  DE(clash)    DE(int)     intcor
     14.50     -16.25       0.00        0.00     120.59       1.31       0.23       1.52       ----

> <Gold.Chemscore.Fitness>
14.4993

> <Gold.Chemscore.DG>
-16.2451

> <Gold.Chemscore.ZeroCoef>
-5.4800

> <Gold.Chemscore.Hbond>
0.0000

> <Gold.Chemscore.Metal>
0.0000

> <Gold.Chemscore.Lipo>
120.5932

> <Gold.Chemscore.Internal_Hbond>
0.0000

> <Gold.Chemscore.DEClash>
0.2279

> <Gold.Chemscore.DEInternal>
1.5179

> <Gold.Chemscore.Rot>
1.3064

> <Gold.Chemscore.Internal.Correction>
   9.000000E+99

> <Gold.Chemscore.Hbond.Weighted>
-0.0000

> <Gold.Chemscore.Metal.Weighted>
-0.0000

> <Gold.Chemscore.Lipo.Weighted>
-14.1094

> <Gold.Chemscore.Internal_Hbond.Weighted>
0.0000

> <Gold.Chemscore.DEClash.Weighted>
0.2279

> <Gold.Chemscore.DEInternal.Weighted>
1.5179

> <Gold.Chemscore.Rot.Weighted>
3.3443

> <Gold.Chemscore.Internal.Correction.Weighted>
   9.000000E+99

> <Gold.Protein.RotatedTorsions>
[ 6907 6896 6895 6894 ] final -112.80 input  -60.11 | X-H torsion
[ 7974 7965 7964 7962 ] final  -10.82 input  175.53 | X-H torsion
[ 8008 7997 7996 7995 ] final   41.81 input   59.86 | X-H torsion
[ 10167 10162 10161 10158 ] final   96.97 input  -65.29 | X-H torsion
[ 10718 10713 10712 10709 ] final   29.71 input   66.30 | X-H torsion
[ 10763 10752 10751 10750 ] final   74.51 input  -60.55 | X-H torsion
[ 11005 11000 10999 10996 ] final   94.69 input  -57.11 | X-H torsion

> <Gold.Protein.ActiveResidues>
 VAL166  LYS551  ARG553  GLY616  TRP617  ASP618  TYR619  PRO620  LYS621  CYS622 
 ASP623  PHE694  ASN695  SER759  ASP760  ASP761  ALA762  ILE779  LEU786  VAL792 
 PHE793  MET794  SER795  GLU796  ALA797  LYS798  CYS799  TRP800  GLU811  SER814 

> <Gold.Protein.RotatedAtoms>
  150.7784  133.9037  159.3348 H   0  0  0  0  0  0  0  0  0  0  0  0  # atno 6907 bound_to 6896
  151.6906  135.0945  160.0242 H   0  0  0  0  0  0  0  0  0  0  0  0  # atno 6908 bound_to 6896
  152.3827  133.6530  159.6210 H   0  0  0  0  0  0  0  0  0  0  0  0  # atno 6909 bound_to 6896
  146.2208  140.2821  142.8363 H   0  0  0  0  0  0  0  0  0  0  0  0  # atno 7974 bound_to 7965
  155.2758  140.3369  155.4262 H   0  0  0  0  0  0  0  0  0  0  0  0  # atno 8008 bound_to 7997
  156.2112  140.1770  156.7732 H   0  0  0  0  0  0  0  0  0  0  0  0  # atno 8009 bound_to 7997
  154.5689  140.0673  156.8918 H   0  0  0  0  0  0  0  0  0  0  0  0  # atno 8010 bound_to 7997
  139.7845  144.6876  150.9977 H   0  0  0  0  0  0  0  0  0  0  0  0  # atno 10167 bound_to 10162
  157.2501  130.7111  149.6401 H   0  0  0  0  0  0  0  0  0  0  0  0  # atno 10718 bound_to 10713
  153.0591  135.5023  154.8052 H   0  0  0  0  0  0  0  0  0  0  0  0  # atno 10763 bound_to 10752
  154.6855  135.2975  154.9556 H   0  0  0  0  0  0  0  0  0  0  0  0  # atno 10764 bound_to 10752
  154.0328  135.6727  153.4835 H   0  0  0  0  0  0  0  0  0  0  0  0  # atno 10765 bound_to 10752
  139.8796  134.8859  156.3900 H   0  0  0  0  0  0  0  0  0  0  0  0  # atno 11005 bound_to 11000
  144.9189  140.7845  143.5760 LP  0  0  0  0  0  0  0  0  0  0  0  0  # atno 17320 bound_to 7965
  145.2756  139.1938  143.4818 LP  0  0  0  0  0  0  0  0  0  0  0  0  # atno 17321 bound_to 7965
  140.7819  143.4447  151.0500 LP  0  0  0  0  0  0  0  0  0  0  0  0  # atno 17342 bound_to 10162
  139.8126  143.7929  152.3172 LP  0  0  0  0  0  0  0  0  0  0  0  0  # atno 17343 bound_to 10162
  155.9666  130.4430  150.5405 LP  0  0  0  0  0  0  0  0  0  0  0  0  # atno 17370 bound_to 10713
  157.3287  131.0695  151.1877 LP  0  0  0  0  0  0  0  0  0  0  0  0  # atno 17371 bound_to 10713
  140.9339  133.7560  156.0060 LP  0  0  0  0  0  0  0  0  0  0  0  0  # atno 17394 bound_to 11000
  140.8298  134.3191  157.5353 LP  0  0  0  0  0  0  0  0  0  0  0  0  # atno 17395 bound_to 11000

$$$$
