AV-unprocessed.smi:2774|AV-procd|sdf|10687|dock7
  -GOLD-   2272015133D 1   1.00000     0.00000
 Structure written by MMmdl.
 34 35  0  0  0  0  0  0  0  0  1 V2000
  149.5581  141.3965  153.4889 O   0  0  0  0  0  0  0  0  0  0  0  0
  148.9908  140.8289  154.6536 C   0  0  1  0  0  0  0  0  0  0  0  0
  150.0343  140.8407  155.7877 C   0  0  0  0  0  0  0  0  0  0  0  0
  149.9616  142.0641  156.5905 N   0  0  0  0  0  0  0  0  0  0  0  0
  151.1586  142.3914  157.3696 C   0  0  1  0  0  0  0  0  0  0  0  0
  151.0958  143.8258  157.9458 C   0  0  0  0  0  0  0  0  0  0  0  0
  152.3574  144.2087  158.7371 C   0  0  0  0  0  0  0  0  0  0  0  0
  152.5999  143.2917  159.9428 C   0  0  0  0  0  0  0  0  0  0  0  0
  152.8636  141.5802  159.4123 S   0  0  0  0  0  0  0  0  0  0  0  0
  151.3176  141.3503  158.4934 C   0  0  0  0  0  0  0  0  0  0  0  0
  147.6535  141.4440  155.0498 C   0  0  0  0  0  0  0  0  0  0  0  0
  146.9504  142.3107  154.1835 C   0  0  0  0  0  0  0  0  0  0  0  0
  145.7233  142.8496  154.6182 C   0  0  0  0  0  0  0  0  0  0  0  0
  145.1792  142.5783  155.8237 N   0  0  0  0  0  0  0  0  0  0  0  0
  145.8556  141.7508  156.6484 C   0  0  0  0  0  0  0  0  0  0  0  0
  147.0901  141.1607  156.3118 C   0  0  0  0  0  0  0  0  0  0  0  0
  149.4799  140.7710  152.7849 H   0  0  0  0  0  0  0  0  0  0  0  0
  148.7973  139.7863  154.3981 H   0  0  0  0  0  0  0  0  0  0  0  0
  149.8623  139.9790  156.4337 H   0  0  0  0  0  0  0  0  0  0  0  0
  151.0262  140.7107  155.3565 H   0  0  0  0  0  0  0  0  0  0  0  0
  149.7192  142.8455  155.9894 H   0  0  0  0  0  0  0  0  0  0  0  0
  152.0304  142.3165  156.7179 H   0  0  0  0  0  0  0  0  0  0  0  0
  150.9781  144.5543  157.1448 H   0  0  0  0  0  0  0  0  0  0  0  0
  150.2178  143.9307  158.5850 H   0  0  0  0  0  0  0  0  0  0  0  0
  153.2260  144.1868  158.0780 H   0  0  0  0  0  0  0  0  0  0  0  0
  152.2639  145.2382  159.0840 H   0  0  0  0  0  0  0  0  0  0  0  0
  153.4755  143.6239  160.5005 H   0  0  0  0  0  0  0  0  0  0  0  0
  151.7510  143.3273  160.6264 H   0  0  0  0  0  0  0  0  0  0  0  0
  150.4808  141.4047  159.1910 H   0  0  0  0  0  0  0  0  0  0  0  0
  151.3204  140.3416  158.0781 H   0  0  0  0  0  0  0  0  0  0  0  0
  147.3415  142.5678  153.2103 H   0  0  0  0  0  0  0  0  0  0  0  0
  145.1644  143.5179  153.9800 H   0  0  0  0  0  0  0  0  0  0  0  0
  145.3996  141.5526  157.6072 H   0  0  0  0  0  0  0  0  0  0  0  0
  147.5923  140.5074  157.0103 H   0  0  0  0  0  0  0  0  0  0  0  0
  1  2  1  0  0  0  0
  1 17  1  0  0  0  0
  2  3  1  0  0  0  0
  2 11  1  0  0  0  0
  2 18  1  0  0  0  0
  3  4  1  0  0  0  0
  3 19  1  0  0  0  0
  3 20  1  0  0  0  0
  4  5  1  0  0  0  0
  4 21  1  0  0  0  0
  5 10  1  0  0  0  0
  5  6  1  0  0  0  0
  5 22  1  0  0  0  0
  6  7  1  0  0  0  0
  6 23  1  0  0  0  0
  6 24  1  0  0  0  0
  7  8  1  0  0  0  0
  7 25  1  0  0  0  0
  7 26  1  0  0  0  0
  8  9  1  0  0  0  0
  8 27  1  0  0  0  0
  8 28  1  0  0  0  0
  9 10  1  0  0  0  0
 10 29  1  0  0  0  0
 10 30  1  0  0  0  0
 11 16  1  0  0  0  0
 11 12  2  0  0  0  0
 12 13  1  0  0  0  0
 12 31  1  0  0  0  0
 13 14  2  0  0  0  0
 13 32  1  0  0  0  0
 14 15  1  0  0  0  0
 15 16  2  0  0  0  0
 15 33  1  0  0  0  0
 16 34  1  0  0  0  0
M  END
> <s_m_source_file>
AV-unprocessed.smi

> <i_m_source_file_index>
2774

> <i_lp_mmshare_version>
43012

> <i_f3d_flags>
0

> <s_epik_input>
W2NIXTFbY0hdbltjSF1bY0hdYzFbQ0BIXShbT0hdKVtDSDJdW05IXVtDQEBIXTJbQ0gyXVtDSDJdW0NIMl1TW0NIMl0y

> <s_epik_cmdline>
J2VwaWtfcHl0aG9uJywgJy1waCcsICc3LjAnLCAnLXRuJywgJzgnLCAnLW1hJywgJzIwMCcsICctbWV0YWxfYmluZGluZycsICctaW1hZScsICc8aW5maWxlLm1hZT4nLCAnLW9tYWUnLCAnPG91dGZpbGUubWFlPic=

> <r_epik_Ionization_Penalty>
2.08116

> <r_epik_Ionization_Penalty_Charging>
0

> <r_epik_Ionization_Penalty_Neutral>
2.08116

> <r_epik_State_Penalty>
2.1944

> <r_epik_Charging_Adjusted_Penalty>
2.1944

> <i_epik_Tot_Q>
0

> <i_epik_Tot_abs_Q>
0

> <r_epik_Metal_State_Penalty>
2.1769

> <b_epik_Metal_Only>
0

> <s_lp_Force_Field>
OPLS_2005

> <r_lp_Energy>
17.4731

> <b_lp_Chiralities_Consistent>
1

> <s_lp_Variant>
AV-unprocessed.smi:2774-8

> <Gold.Version>
5.8.1

> <Gold.Id.Protein>
6NUR|6NUR_protein|mol2

> <Gold.PLP.Fitness>
45.8788

> <Gold.PLP.PLP>
-39.8049

> <Gold.PLP.part.hbond>
-4.0000

> <Gold.PLP.part.metal>
0.0000

> <Gold.PLP.part.buried>
-3.6967

> <Gold.PLP.part.nonpolar>
-33.0440

> <Gold.PLP.part.repulsive>
0.1639

> <Gold.PLP.ligand.clash>
0.0000

> <Gold.PLP.ligand.torsion>
0.8129

> <Gold.PLP.Chemscore.Hbond>
2.5456

> <Gold.PLP.Chemscore.CHOScore>
0.0000

> <Gold.PLP.Chemscore.Metal>
0.0000

> <Gold.Chemscore.Hbonds>
donor molecule, donor type, donor heavy atom, donor atom, acceptor molecule, acceptor atom, score
      L1  H     1    17       P1  7957  1.00
      L1  H     4    21       P1  8028  0.88
      P1  H  7989  7998       L1     1  0.02
      P1  H  8011  8017       L1     1  0.18

> <Gold.PLP.Chemscore.Internal.Correction>
0.0630

> <Gold.Rescore>
     Score         DG    S(hbond)    S(metal)    S(lipo)     H(rot)  DE(clash)    DE(int)     intcor
     17.29     -18.32       1.84        0.00      98.54       1.89       0.44       0.59       ----

> <Gold.Chemscore.Fitness>
17.2884

> <Gold.Chemscore.DG>
-18.3195

> <Gold.Chemscore.ZeroCoef>
-5.4800

> <Gold.Chemscore.Hbond>
1.8429

> <Gold.Chemscore.Metal>
0.0000

> <Gold.Chemscore.Lipo>
98.5437

> <Gold.Chemscore.Internal_Hbond>
0.0000

> <Gold.Chemscore.DEClash>
0.4415

> <Gold.Chemscore.DEInternal>
0.5897

> <Gold.Chemscore.Rot>
1.8928

> <Gold.Chemscore.Internal.Correction>
   9.000000E+99

> <Gold.Chemscore.Hbonds>
donor molecule, donor type, donor heavy atom, donor atom, acceptor molecule, acceptor atom, score
      L1  H     1    17       P1  7957  1.00
      L1  H     4    21       P1  8028  0.82

> <Gold.Chemscore.Hbond.Weighted>
-6.1554

> <Gold.Chemscore.Metal.Weighted>
-0.0000

> <Gold.Chemscore.Lipo.Weighted>
-11.5296

> <Gold.Chemscore.Internal_Hbond.Weighted>
0.0000

> <Gold.Chemscore.DEClash.Weighted>
0.4415

> <Gold.Chemscore.DEInternal.Weighted>
0.5897

> <Gold.Chemscore.Rot.Weighted>
4.8455

> <Gold.Chemscore.Internal.Correction.Weighted>
   9.000000E+99

> <Gold.Protein.RotatedTorsions>
[ 6907 6896 6895 6894 ] final  147.56 input  -60.11 | X-H torsion
[ 7974 7965 7964 7962 ] final -177.56 input  175.53 | X-H torsion
[ 8008 7997 7996 7995 ] final  134.33 input   59.86 | X-H torsion
[ 10167 10162 10161 10158 ] final -138.49 input  -65.29 | X-H torsion
[ 10718 10713 10712 10709 ] final  -73.77 input   66.30 | X-H torsion
[ 10763 10752 10751 10750 ] final  118.93 input  -60.55 | X-H torsion
[ 11005 11000 10999 10996 ] final   84.29 input  -57.11 | X-H torsion

> <Gold.Protein.ActiveResidues>
 VAL166  LYS551  ARG553  GLY616  TRP617  ASP618  TYR619  PRO620  LYS621  CYS622 
 ASP623  PHE694  ASN695  SER759  ASP760  ASP761  ALA762  ILE779  LEU786  VAL792 
 PHE793  MET794  SER795  GLU796  ALA797  LYS798  CYS799  TRP800  GLU811  SER814 

> <Gold.Protein.RotatedAtoms>
  152.1531  133.4534  159.4823 H   0  0  0  0  0  0  0  0  0  0  0  0  # atno 6907 bound_to 6896
  150.6898  134.2165  159.4389 H   0  0  0  0  0  0  0  0  0  0  0  0  # atno 6908 bound_to 6896
  152.0062  134.9901  160.0617 H   0  0  0  0  0  0  0  0  0  0  0  0  # atno 6909 bound_to 6896
  144.7128  140.1000  143.6417 H   0  0  0  0  0  0  0  0  0  0  0  0  # atno 7974 bound_to 7965
  156.2998  140.2499  156.3399 H   0  0  0  0  0  0  0  0  0  0  0  0  # atno 8008 bound_to 7997
  154.9065  140.0404  157.1941 H   0  0  0  0  0  0  0  0  0  0  0  0  # atno 8009 bound_to 7997
  154.8448  140.2896  155.5640 H   0  0  0  0  0  0  0  0  0  0  0  0  # atno 8010 bound_to 7997
  139.8473  143.7245  152.2660 H   0  0  0  0  0  0  0  0  0  0  0  0  # atno 10167 bound_to 10162
  156.0267  130.4402  150.2793 H   0  0  0  0  0  0  0  0  0  0  0  0  # atno 10718 bound_to 10713
  153.5751  135.3494  155.2853 H   0  0  0  0  0  0  0  0  0  0  0  0  # atno 10763 bound_to 10752
  154.8676  135.4169  154.2682 H   0  0  0  0  0  0  0  0  0  0  0  0  # atno 10764 bound_to 10752
  153.3456  135.7052  153.6901 H   0  0  0  0  0  0  0  0  0  0  0  0  # atno 10765 bound_to 10752
  139.9005  134.8206  156.2425 H   0  0  0  0  0  0  0  0  0  0  0  0  # atno 11005 bound_to 11000
  145.9546  139.2757  143.1192 LP  0  0  0  0  0  0  0  0  0  0  0  0  # atno 17320 bound_to 7965
  145.9287  140.9064  143.0368 LP  0  0  0  0  0  0  0  0  0  0  0  0  # atno 17321 bound_to 7965
  139.7500  144.7537  151.0521 LP  0  0  0  0  0  0  0  0  0  0  0  0  # atno 17342 bound_to 10162
  140.7791  143.4871  150.9942 LP  0  0  0  0  0  0  0  0  0  0  0  0  # atno 17343 bound_to 10162
  157.0896  131.0166  151.3126 LP  0  0  0  0  0  0  0  0  0  0  0  0  # atno 17370 bound_to 10713
  157.4864  130.7796  149.7464 LP  0  0  0  0  0  0  0  0  0  0  0  0  # atno 17371 bound_to 10713
  141.0276  133.7006  156.1374 LP  0  0  0  0  0  0  0  0  0  0  0  0  # atno 17394 bound_to 11000
  140.7144  134.4427  157.5579 LP  0  0  0  0  0  0  0  0  0  0  0  0  # atno 17395 bound_to 11000

$$$$
