AV-unprocessed.smi:2953|AV-procd|sdf|11295|dock7
  -GOLD-   2272016193D 1   1.00000     0.00000
 Structure written by MMmdl.
 46 48  0  0  0  0  0  0  0  0  2 V2000
  147.3205  131.8305  160.3999 C   0  0  0  0  0  0  0  0  0  0  0  0
  147.1698  133.2227  160.9840 C   0  0  0  0  0  0  0  0  0  0  0  0
  146.5125  133.3903  162.2210 C   0  0  0  0  0  0  0  0  0  0  0  0
  146.3618  134.6737  162.7760 C   0  0  0  0  0  0  0  0  0  0  0  0
  146.8685  135.7943  162.0944 C   0  0  0  0  0  0  0  0  0  0  0  0
  147.5250  135.6328  160.8596 C   0  0  0  0  0  0  0  0  0  0  0  0
  147.6824  134.3434  160.2892 C   0  0  0  0  0  0  0  0  0  0  0  0
  148.3109  134.1116  159.0827 O   0  0  0  0  0  0  0  0  0  0  0  0
  148.2577  135.1223  158.0871 C   0  0  0  0  0  0  0  0  0  0  0  0
  149.6929  135.5180  157.7206 C   0  0  0  0  0  0  0  0  0  0  0  0
  149.7587  136.1816  156.4119 N   0  0  0  0  0  0  0  0  0  0  0  0
  149.6154  135.6723  155.1539 C   0  0  0  0  0  0  0  0  0  0  0  0
  149.3100  134.2435  154.7999 C   0  0  2  0  0  0  0  0  0  0  0  0
  150.4239  133.2745  155.2403 C   0  0  0  0  0  0  0  0  0  0  0  0
  148.9868  134.0776  153.3846 N   0  0  0  0  0  0  0  0  0  0  0  0
  148.7306  132.9115  152.7758 C   0  0  0  0  0  0  0  0  0  0  0  0
  148.7426  131.8319  153.3606 O   0  0  0  0  0  0  0  0  0  0  0  0
  149.7528  136.7155  154.2842 N   0  3  0  0  0  0  0  0  0  0  0  0
  150.0055  137.8924  154.9894 C   0  0  0  0  0  0  0  0  0  0  0  0
  150.2217  139.1933  154.5456 C   0  0  0  0  0  0  0  0  0  0  0  0
  150.4526  140.1697  155.5370 C   0  0  0  0  0  0  0  0  0  0  0  0
  150.4629  139.8369  156.9072 C   0  0  0  0  0  0  0  0  0  0  0  0
  150.2409  138.5143  157.3450 C   0  0  0  0  0  0  0  0  0  0  0  0
  150.0125  137.5561  156.3580 C   0  0  0  0  0  0  0  0  0  0  0  0
  146.9876  131.0652  161.1013 H   0  0  0  0  0  0  0  0  0  0  0  0
  148.3637  131.6304  160.1542 H   0  0  0  0  0  0  0  0  0  0  0  0
  146.7283  131.7379  159.4893 H   0  0  0  0  0  0  0  0  0  0  0  0
  146.1201  132.5340  162.7498 H   0  0  0  0  0  0  0  0  0  0  0  0
  145.8575  134.7983  163.7228 H   0  0  0  0  0  0  0  0  0  0  0  0
  146.7530  136.7805  162.5192 H   0  0  0  0  0  0  0  0  0  0  0  0
  147.8985  136.5184  160.3689 H   0  0  0  0  0  0  0  0  0  0  0  0
  147.7370  134.7533  157.2020 H   0  0  0  0  0  0  0  0  0  0  0  0
  147.7200  135.9945  158.4628 H   0  0  0  0  0  0  0  0  0  0  0  0
  150.0969  136.2023  158.4670 H   0  0  0  0  0  0  0  0  0  0  0  0
  150.3517  134.6490  157.7111 H   0  0  0  0  0  0  0  0  0  0  0  0
  148.4089  133.9643  155.3472 H   0  0  0  0  0  0  0  0  0  0  0  0
  150.5913  133.3356  156.3161 H   0  0  0  0  0  0  0  0  0  0  0  0
  151.3716  133.4874  154.7445 H   0  0  0  0  0  0  0  0  0  0  0  0
  150.1567  132.2425  155.0100 H   0  0  0  0  0  0  0  0  0  0  0  0
  148.9712  134.9151  152.8203 H   0  0  0  0  0  0  0  0  0  0  0  0
  148.5136  133.0444  151.7044 H   0  0  0  0  0  0  0  0  0  0  0  0
  150.2147  139.4508  153.4966 H   0  0  0  0  0  0  0  0  0  0  0  0
  150.6253  141.1942  155.2405 H   0  0  0  0  0  0  0  0  0  0  0  0
  150.6441  140.6116  157.6383 H   0  0  0  0  0  0  0  0  0  0  0  0
  150.2514  138.2694  158.3969 H   0  0  0  0  0  0  0  0  0  0  0  0
  149.6788  136.6238  153.2791 H   0  0  0  0  0  0  0  0  0  0  0  0
  1  2  1  0  0  0  0
  1 25  1  0  0  0  0
  1 26  1  0  0  0  0
  1 27  1  0  0  0  0
  2  7  1  0  0  0  0
  2  3  2  0  0  0  0
  3  4  1  0  0  0  0
  3 28  1  0  0  0  0
  4  5  2  0  0  0  0
  4 29  1  0  0  0  0
  5  6  1  0  0  0  0
  5 30  1  0  0  0  0
  6  7  2  0  0  0  0
  6 31  1  0  0  0  0
  7  8  1  0  0  0  0
  8  9  1  0  0  0  0
  9 10  1  0  0  0  0
  9 32  1  0  0  0  0
  9 33  1  0  0  0  0
 10 11  1  0  0  0  0
 10 34  1  0  0  0  0
 10 35  1  0  0  0  0
 11 24  1  0  0  0  0
 11 12  1  0  0  0  0
 12 13  1  0  0  0  0
 12 18  2  0  0  0  0
 13 14  1  0  0  0  0
 13 15  1  0  0  0  0
 13 36  1  0  0  0  0
 14 37  1  0  0  0  0
 14 38  1  0  0  0  0
 14 39  1  0  0  0  0
 15 16  1  0  0  0  0
 15 40  1  0  0  0  0
 16 17  2  0  0  0  0
 16 41  1  0  0  0  0
 18 19  1  0  0  0  0
 18 46  1  0  0  0  0
 19 24  2  0  0  0  0
 19 20  1  0  0  0  0
 20 21  2  0  0  0  0
 20 42  1  0  0  0  0
 21 22  1  0  0  0  0
 21 43  1  0  0  0  0
 22 23  2  0  0  0  0
 22 44  1  0  0  0  0
 23 24  1  0  0  0  0
 23 45  1  0  0  0  0
M  CHG  1  18   1
M  END
> <s_m_source_file>
AV-unprocessed.smi

> <i_m_source_file_index>
2953

> <i_lp_mmshare_version>
43012

> <i_f3d_flags>
0

> <s_epik_input>
W0NIM11jMVtjSF1bY0hdW2NIXVtjSF1jMU9bQ0gyXVtDSDJdbihjKG4yKVtDQEhdKFtDSDNdKVtOSF1bQ0hdPU8pYyhjMjMpW2NIXVtjSF1bY0hdW2NIXTM=

> <s_epik_cmdline>
J2VwaWtfcHl0aG9uJywgJy1waCcsICc3LjAnLCAnLXRuJywgJzgnLCAnLW1hJywgJzIwMCcsICctbWV0YWxfYmluZGluZycsICctaW1hZScsICc8aW5maWxlLm1hZT4nLCAnLW9tYWUnLCAnPG91dGZpbGUubWFlPic=

> <r_lp_tautomer_probability>
1

> <r_epik_Ionization_Penalty>
1.14644

> <r_epik_Ionization_Penalty_Charging>
1.14644

> <r_epik_Ionization_Penalty_Neutral>
5.5802e-08

> <r_epik_State_Penalty>
1.20743

> <r_epik_Charging_Adjusted_Penalty>
2.35387

> <i_epik_Tot_Q>
1

> <i_epik_Tot_abs_Q>
1

> <r_epik_Metal_State_Penalty>
1.28856

> <b_epik_Metal_Only>
0

> <s_lp_Force_Field>
OPLS_2005

> <r_lp_Energy>
18.7543

> <b_lp_Chiralities_Consistent>
1

> <s_lp_Variant>
AV-unprocessed.smi:2953-3

> <Gold.Version>
5.8.1

> <Gold.Id.Protein>
6NUR|6NUR_protein|mol2

> <Gold.PLP.Fitness>
49.5363

> <Gold.PLP.PLP>
-39.6958

> <Gold.PLP.part.hbond>
-3.1302

> <Gold.PLP.part.metal>
0.0000

> <Gold.PLP.part.buried>
-1.7164

> <Gold.PLP.part.nonpolar>
-35.9298

> <Gold.PLP.part.repulsive>
0.1124

> <Gold.PLP.ligand.clash>
0.0000

> <Gold.PLP.ligand.torsion>
1.1157

> <Gold.PLP.Chemscore.Hbond>
3.9913

> <Gold.PLP.Chemscore.CHOScore>
0.0000

> <Gold.PLP.Chemscore.Metal>
0.0000

> <Gold.Chemscore.Hbonds>
donor molecule, donor type, donor heavy atom, donor atom, acceptor molecule, acceptor atom, score
      L1  H    15    40       P1  7948  0.60
      L1  H    18    46       P1  7948  2.00
      P1  H  6896  6907       L1     8  0.16

> <Gold.PLP.Chemscore.Internal.Correction>
0.0981

> <Gold.Rescore>
     Score         DG    S(hbond)    S(metal)    S(lipo)     H(rot)  DE(clash)    DE(int)     intcor
     18.17     -19.94       2.45        0.00     104.51       2.32       0.17       1.60       ----

> <Gold.Chemscore.Fitness>
18.1726

> <Gold.Chemscore.DG>
-19.9432

> <Gold.Chemscore.ZeroCoef>
-5.4800

> <Gold.Chemscore.Hbond>
2.4494

> <Gold.Chemscore.Metal>
0.0000

> <Gold.Chemscore.Lipo>
104.5075

> <Gold.Chemscore.Internal_Hbond>
0.0000

> <Gold.Chemscore.DEClash>
0.1675

> <Gold.Chemscore.DEInternal>
1.6031

> <Gold.Chemscore.Rot>
2.3223

> <Gold.Chemscore.Internal.Correction>
   9.000000E+99

> <Gold.Chemscore.Hbonds>
donor molecule, donor type, donor heavy atom, donor atom, acceptor molecule, acceptor atom, score
      L1  H    15    40       P1  7948  0.04
      L1  H    18    46       P1  7948  0.39
      P1  H  6896  6907       L1     8  0.01

> <Gold.Chemscore.Hbond.Weighted>
-8.1808

> <Gold.Chemscore.Metal.Weighted>
-0.0000

> <Gold.Chemscore.Lipo.Weighted>
-12.2274

> <Gold.Chemscore.Internal_Hbond.Weighted>
0.0000

> <Gold.Chemscore.DEClash.Weighted>
0.1675

> <Gold.Chemscore.DEInternal.Weighted>
1.6031

> <Gold.Chemscore.Rot.Weighted>
5.9450

> <Gold.Chemscore.Internal.Correction.Weighted>
   9.000000E+99

> <Gold.Protein.RotatedTorsions>
[ 6907 6896 6895 6894 ] final  -86.94 input  -60.11 | X-H torsion
[ 7974 7965 7964 7962 ] final   52.14 input  175.53 | X-H torsion
[ 8008 7997 7996 7995 ] final   94.49 input   59.86 | X-H torsion
[ 10167 10162 10161 10158 ] final  131.01 input  -65.29 | X-H torsion
[ 10718 10713 10712 10709 ] final  150.98 input   66.30 | X-H torsion
[ 10763 10752 10751 10750 ] final   52.58 input  -60.55 | X-H torsion
[ 11005 11000 10999 10996 ] final   98.21 input  -57.11 | X-H torsion

> <Gold.Protein.ActiveResidues>
 VAL166  LYS551  ARG553  GLY616  TRP617  ASP618  TYR619  PRO620  LYS621  CYS622 
 ASP623  PHE694  ASN695  SER759  ASP760  ASP761  ALA762  ILE779  LEU786  VAL792 
 PHE793  MET794  SER795  GLU796  ALA797  LYS798  CYS799  TRP800  GLU811  SER814 

> <Gold.Protein.RotatedAtoms>
  150.6866  134.2974  159.4691 H   0  0  0  0  0  0  0  0  0  0  0  0  # atno 6907 bound_to 6896
  152.0873  134.9428  160.0582 H   0  0  0  0  0  0  0  0  0  0  0  0  # atno 6908 bound_to 6896
  152.0758  133.4094  159.4516 H   0  0  0  0  0  0  0  0  0  0  0  0  # atno 6909 bound_to 6896
  145.9843  139.4274  143.0113 H   0  0  0  0  0  0  0  0  0  0  0  0  # atno 7974 bound_to 7965
  156.0584  140.3299  155.7433 H   0  0  0  0  0  0  0  0  0  0  0  0  # atno 8008 bound_to 7997
  155.5492  140.0609  157.2871 H   0  0  0  0  0  0  0  0  0  0  0  0  # atno 8009 bound_to 7997
  154.4469  140.1897  156.0658 H   0  0  0  0  0  0  0  0  0  0  0  0  # atno 8010 bound_to 7997
  139.5403  144.6724  151.4646 H   0  0  0  0  0  0  0  0  0  0  0  0  # atno 10167 bound_to 10162
  157.2765  131.0827  151.1562 H   0  0  0  0  0  0  0  0  0  0  0  0  # atno 10718 bound_to 10713
  152.9789  135.5808  154.4601 H   0  0  0  0  0  0  0  0  0  0  0  0  # atno 10763 bound_to 10752
  154.4178  135.2771  155.1997 H   0  0  0  0  0  0  0  0  0  0  0  0  # atno 10764 bound_to 10752
  154.3759  135.6157  153.5819 H   0  0  0  0  0  0  0  0  0  0  0  0  # atno 10765 bound_to 10752
  139.8773  134.9038  156.4423 H   0  0  0  0  0  0  0  0  0  0  0  0  # atno 11005 bound_to 11000
  145.7724  140.9891  143.1142 LP  0  0  0  0  0  0  0  0  0  0  0  0  # atno 17320 bound_to 7965
  144.6870  139.9463  143.7476 LP  0  0  0  0  0  0  0  0  0  0  0  0  # atno 17321 bound_to 7965
  140.6630  143.8458  150.6909 LP  0  0  0  0  0  0  0  0  0  0  0  0  # atno 17342 bound_to 10162
  140.1858  143.4077  152.1899 LP  0  0  0  0  0  0  0  0  0  0  0  0  # atno 17343 bound_to 10162
  157.3013  130.6844  149.6165 LP  0  0  0  0  0  0  0  0  0  0  0  0  # atno 17370 bound_to 10713
  155.9664  130.4391  150.5245 LP  0  0  0  0  0  0  0  0  0  0  0  0  # atno 17371 bound_to 10713
  140.8991  133.7792  155.9659 LP  0  0  0  0  0  0  0  0  0  0  0  0  # atno 17394 bound_to 11000
  140.8671  134.2771  157.5208 LP  0  0  0  0  0  0  0  0  0  0  0  0  # atno 17395 bound_to 11000

$$$$
