AV-unprocessed.smi:1188|AV-procd|sdf|4977|dock9
  -GOLD-   22720 3573D 1   1.00000     0.00000
 Structure written by MMmdl.
 48 49  0  0  0  0  0  0  0  0  1 V2000
  148.5773  132.7868  153.1310 C   0  0  0  0  0  0  0  0  0  0  0  0
  147.6010  133.4298  152.7779 C   0  0  0  0  0  0  0  0  0  0  0  0
  146.4208  134.2056  152.3689 C   0  0  0  0  0  0  0  0  0  0  0  0
  146.4637  135.5644  152.8877 N   0  0  0  0  0  0  0  0  0  0  0  0
  145.5008  136.1304  153.6357 C   0  0  0  0  0  0  0  0  0  0  0  0
  144.4775  135.5169  153.9417 O   0  0  0  0  0  0  0  0  0  0  0  0
  145.7861  137.5102  154.0400 C   0  0  0  0  0  0  0  0  0  0  0  0
  144.8439  138.2054  154.8953 C   0  0  0  0  0  0  0  0  0  0  0  0
  145.0799  139.4692  155.2980 C   0  0  0  0  0  0  0  0  0  0  0  0
  146.2862  140.1946  154.8904 C   0  0  0  0  0  0  0  0  0  0  0  0
  146.5116  141.3476  155.2598 O   0  0  0  0  0  0  0  0  0  0  0  0
  147.1434  139.5102  154.0735 N   0  0  0  0  0  0  0  0  0  0  0  0
  148.3862  140.1389  153.5950 C   0  0  0  0  0  0  0  0  0  0  0  0
  149.4495  140.2870  154.6925 C   0  0  0  0  0  0  0  0  0  0  0  0
  150.5979  139.8777  154.5167 O   0  0  0  0  0  0  0  0  0  0  0  0
  149.0511  140.8968  155.8190 N   0  0  0  0  0  0  0  0  0  0  0  0
  149.8942  141.1430  156.9830 C   0  0  0  0  0  0  0  0  0  0  0  0
  150.9956  142.1739  156.6771 C   0  0  0  0  0  0  0  0  0  0  0  0
  151.5636  142.8176  157.9313 C   0  0  0  0  0  0  0  0  0  0  0  0
  152.1946  142.0975  158.8795 C   0  0  0  0  0  0  0  0  0  0  0  0
  152.7666  142.6848  160.1581 C   0  0  0  0  0  0  0  0  0  0  0  0
  152.2571  144.1109  160.4266 C   0  0  0  0  0  0  0  0  0  0  0  0
  152.2675  144.9524  159.1444 C   0  0  0  0  0  0  0  0  0  0  0  0
  151.3778  144.3260  158.0557 C   0  0  0  0  0  0  0  0  0  0  0  0
  146.8943  138.1854  153.6622 C   0  0  0  0  0  0  0  0  0  0  0  0
  149.4281  132.2223  153.4407 H   0  0  0  0  0  0  0  0  0  0  0  0
  146.3802  134.2210  151.2791 H   0  0  0  0  0  0  0  0  0  0  0  0
  145.5315  133.6886  152.7322 H   0  0  0  0  0  0  0  0  0  0  0  0
  147.2823  136.1132  152.6692 H   0  0  0  0  0  0  0  0  0  0  0  0
  143.9388  137.7151  155.2241 H   0  0  0  0  0  0  0  0  0  0  0  0
  144.3623  139.9623  155.9372 H   0  0  0  0  0  0  0  0  0  0  0  0
  148.8204  139.5600  152.7787 H   0  0  0  0  0  0  0  0  0  0  0  0
  148.1686  141.1178  153.1630 H   0  0  0  0  0  0  0  0  0  0  0  0
  148.0924  141.2082  155.8764 H   0  0  0  0  0  0  0  0  0  0  0  0
  149.2774  141.4671  157.8227 H   0  0  0  0  0  0  0  0  0  0  0  0
  150.3462  140.1949  157.2759 H   0  0  0  0  0  0  0  0  0  0  0  0
  151.8020  141.6900  156.1237 H   0  0  0  0  0  0  0  0  0  0  0  0
  150.6099  142.9619  156.0290 H   0  0  0  0  0  0  0  0  0  0  0  0
  152.3257  141.0332  158.7483 H   0  0  0  0  0  0  0  0  0  0  0  0
  152.5134  142.0359  160.9968 H   0  0  0  0  0  0  0  0  0  0  0  0
  153.8536  142.6832  160.0720 H   0  0  0  0  0  0  0  0  0  0  0  0
  151.2396  144.0666  160.8174 H   0  0  0  0  0  0  0  0  0  0  0  0
  152.8638  144.5850  161.1986 H   0  0  0  0  0  0  0  0  0  0  0  0
  151.9364  145.9698  159.3553 H   0  0  0  0  0  0  0  0  0  0  0  0
  153.2914  145.0316  158.7767 H   0  0  0  0  0  0  0  0  0  0  0  0
  151.5882  144.8005  157.0963 H   0  0  0  0  0  0  0  0  0  0  0  0
  150.3296  144.5228  158.2824 H   0  0  0  0  0  0  0  0  0  0  0  0
  147.6703  137.7727  153.0334 H   0  0  0  0  0  0  0  0  0  0  0  0
  1  2  3  0  0  0  0
  1 26  1  0  0  0  0
  2  3  1  0  0  0  0
  3  4  1  0  0  0  0
  3 27  1  0  0  0  0
  3 28  1  0  0  0  0
  4  5  1  0  0  0  0
  4 29  1  0  0  0  0
  5  6  2  0  0  0  0
  5  7  1  0  0  0  0
  7 25  2  0  0  0  0
  7  8  1  0  0  0  0
  8  9  2  0  0  0  0
  8 30  1  0  0  0  0
  9 10  1  0  0  0  0
  9 31  1  0  0  0  0
 10 11  2  0  0  0  0
 10 12  1  0  0  0  0
 12 13  1  0  0  0  0
 12 25  1  0  0  0  0
 13 14  1  0  0  0  0
 13 32  1  0  0  0  0
 13 33  1  0  0  0  0
 14 15  2  0  0  0  0
 14 16  1  0  0  0  0
 16 17  1  0  0  0  0
 16 34  1  0  0  0  0
 17 18  1  0  0  0  0
 17 35  1  0  0  0  0
 17 36  1  0  0  0  0
 18 19  1  0  0  0  0
 18 37  1  0  0  0  0
 18 38  1  0  0  0  0
 19 24  1  0  0  0  0
 19 20  2  0  0  0  0
 20 21  1  0  0  0  0
 20 39  1  0  0  0  0
 21 22  1  0  0  0  0
 21 40  1  0  0  0  0
 21 41  1  0  0  0  0
 22 23  1  0  0  0  0
 22 42  1  0  0  0  0
 22 43  1  0  0  0  0
 23 24  1  0  0  0  0
 23 44  1  0  0  0  0
 23 45  1  0  0  0  0
 24 46  1  0  0  0  0
 24 47  1  0  0  0  0
 25 48  1  0  0  0  0
M  END
> <s_m_source_file>
AV-unprocessed.smi

> <i_m_source_file_index>
1188

> <i_lp_mmshare_version>
43012

> <i_f3d_flags>
0

> <s_epik_input>
W0NIXSNDW0NIMl1bTkhdQyg9TyljMVtjSF1bY0hdYyg9TyluKFtjSF0xKVtDSDJdQyg9TylbTkhdW0NIMl1bQ0gyXUMyPVtDSF1bQ0gyXVtDSDJdW0NIMl1bQ0gyXTI=

> <s_epik_cmdline>
J2VwaWtfcHl0aG9uJywgJy1waCcsICc3LjAnLCAnLXRuJywgJzgnLCAnLW1hJywgJzIwMCcsICctbWV0YWxfYmluZGluZycsICctaW1hZScsICc8aW5maWxlLm1hZT4nLCAnLW9tYWUnLCAnPG91dGZpbGUubWFlPic=

> <r_lp_tautomer_probability>
1

> <r_epik_Ionization_Penalty>
3.04448e-06

> <r_epik_Ionization_Penalty_Charging>
4.20752e-08

> <r_epik_Ionization_Penalty_Neutral>
3.00241e-06

> <r_epik_State_Penalty>
-0

> <r_epik_Charging_Adjusted_Penalty>
4.20752e-08

> <i_epik_Tot_Q>
0

> <i_epik_Tot_abs_Q>
0

> <r_epik_Metal_State_Penalty>
-0

> <b_epik_Metal_Only>
0

> <s_lp_Force_Field>
OPLS_2005

> <r_lp_Energy>
18.5418

> <b_lp_Chiralities_Consistent>
1

> <s_lp_Variant>
AV-unprocessed.smi:1188-1

> <Gold.Version>
5.8.1

> <Gold.Id.Protein>
6NUR|6NUR_protein|mol2

> <Gold.PLP.Fitness>
50.4619

> <Gold.PLP.PLP>
-42.0533

> <Gold.PLP.part.hbond>
-2.0000

> <Gold.PLP.part.metal>
0.0000

> <Gold.PLP.part.buried>
-2.9562

> <Gold.PLP.part.nonpolar>
-38.1299

> <Gold.PLP.part.repulsive>
0.2887

> <Gold.PLP.ligand.clash>
0.0000

> <Gold.PLP.ligand.torsion>
0.3419

> <Gold.PLP.Chemscore.Hbond>
1.9760

> <Gold.PLP.Chemscore.CHOScore>
1.0000

> <Gold.PLP.Chemscore.Metal>
0.0000

> <Gold.Chemscore.Hbonds>
donor molecule, donor type, donor heavy atom, donor atom, acceptor molecule, acceptor atom, score
      L1  H     4    29       P1  7948  0.96
      P1  H  7989  7998       L1    15  1.00
      L1  C    25    48       P1  7948  1.00

> <Gold.PLP.Chemscore.Internal.Correction>
0.1644

> <Gold.Rescore>
     Score         DG    S(hbond)    S(metal)    S(lipo)     H(rot)  DE(clash)    DE(int)     intcor
     17.62     -20.40       1.88        0.00     117.05       1.97       1.48       1.31       ----

> <Gold.Chemscore.Fitness>
17.6196

> <Gold.Chemscore.DG>
-20.4039

> <Gold.Chemscore.ZeroCoef>
-5.4800

> <Gold.Chemscore.Hbond>
1.8775

> <Gold.Chemscore.Metal>
0.0000

> <Gold.Chemscore.Lipo>
117.0491

> <Gold.Chemscore.Internal_Hbond>
0.0000

> <Gold.Chemscore.DEClash>
1.4757

> <Gold.Chemscore.DEInternal>
1.3086

> <Gold.Chemscore.Rot>
1.9694

> <Gold.Chemscore.Internal.Correction>
   9.000000E+99

> <Gold.Chemscore.Hbonds>
donor molecule, donor type, donor heavy atom, donor atom, acceptor molecule, acceptor atom, score
      L1  H     4    29       P1  7948  0.92
      P1  H  7989  7998       L1    15  0.93

> <Gold.Chemscore.Hbond.Weighted>
-6.2708

> <Gold.Chemscore.Metal.Weighted>
-0.0000

> <Gold.Chemscore.Lipo.Weighted>
-13.6947

> <Gold.Chemscore.Internal_Hbond.Weighted>
0.0000

> <Gold.Chemscore.DEClash.Weighted>
1.4757

> <Gold.Chemscore.DEInternal.Weighted>
1.3086

> <Gold.Chemscore.Rot.Weighted>
5.0416

> <Gold.Chemscore.Internal.Correction.Weighted>
   9.000000E+99

> <Gold.Protein.RotatedTorsions>
[ 6907 6896 6895 6894 ] final  147.67 input  -60.11 | X-H torsion
[ 7974 7965 7964 7962 ] final  155.78 input  175.53 | X-H torsion
[ 8008 7997 7996 7995 ] final  137.95 input   59.86 | X-H torsion
[ 10167 10162 10161 10158 ] final -177.66 input  -65.29 | X-H torsion
[ 10718 10713 10712 10709 ] final   35.94 input   66.30 | X-H torsion
[ 10763 10752 10751 10750 ] final  -43.56 input  -60.55 | X-H torsion
[ 11005 11000 10999 10996 ] final    4.00 input  -57.11 | X-H torsion

> <Gold.Protein.ActiveResidues>
 VAL166  LYS551  ARG553  GLY616  TRP617  ASP618  TYR619  PRO620  LYS621  CYS622 
 ASP623  PHE694  ASN695  SER759  ASP760  ASP761  ALA762  ILE779  LEU786  VAL792 
 PHE793  MET794  SER795  GLU796  ALA797  LYS798  CYS799  TRP800  GLU811  SER814 

> <Gold.Protein.RotatedAtoms>
  152.1517  133.4526  159.4816 H   0  0  0  0  0  0  0  0  0  0  0  0  # atno 6907 bound_to 6896
  150.6896  134.2181  159.4395 H   0  0  0  0  0  0  0  0  0  0  0  0  # atno 6908 bound_to 6896
  152.0078  134.9892  160.0618 H   0  0  0  0  0  0  0  0  0  0  0  0  # atno 6909 bound_to 6896
  144.8003  139.7115  143.6184 H   0  0  0  0  0  0  0  0  0  0  0  0  # atno 7974 bound_to 7965
  156.3000  140.2406  156.3994 H   0  0  0  0  0  0  0  0  0  0  0  0  # atno 8008 bound_to 7997
  154.8541  140.0423  157.1643 H   0  0  0  0  0  0  0  0  0  0  0  0  # atno 8009 bound_to 7997
  154.8967  140.2971  155.5344 H   0  0  0  0  0  0  0  0  0  0  0  0  # atno 8010 bound_to 7997
  139.5469  144.2211  152.1005 H   0  0  0  0  0  0  0  0  0  0  0  0  # atno 10167 bound_to 10162
  157.3288  130.7487  149.6833 H   0  0  0  0  0  0  0  0  0  0  0  0  # atno 10718 bound_to 10713
  153.9976  135.6697  153.4757 H   0  0  0  0  0  0  0  0  0  0  0  0  # atno 10763 bound_to 10752
  153.0677  135.4992  154.8232 H   0  0  0  0  0  0  0  0  0  0  0  0  # atno 10764 bound_to 10752
  154.7072  135.3090  154.9215 H   0  0  0  0  0  0  0  0  0  0  0  0  # atno 10765 bound_to 10752
  140.5868  133.9961  155.8071 H   0  0  0  0  0  0  0  0  0  0  0  0  # atno 11005 bound_to 11000
  146.2283  139.5764  142.9572 LP  0  0  0  0  0  0  0  0  0  0  0  0  # atno 17320 bound_to 7965
  145.5569  141.0408  143.2247 LP  0  0  0  0  0  0  0  0  0  0  0  0  # atno 17321 bound_to 7965
  140.1699  144.4945  150.6585 LP  0  0  0  0  0  0  0  0  0  0  0  0  # atno 17342 bound_to 10162
  140.6720  143.2290  151.5601 LP  0  0  0  0  0  0  0  0  0  0  0  0  # atno 17343 bound_to 10162
  155.9693  130.4201  150.4408 LP  0  0  0  0  0  0  0  0  0  0  0  0  # atno 17370 bound_to 10713
  157.2436  131.0531  151.2421 LP  0  0  0  0  0  0  0  0  0  0  0  0  # atno 17371 bound_to 10713
  141.0961  133.9842  157.3158 LP  0  0  0  0  0  0  0  0  0  0  0  0  # atno 17394 bound_to 11000
  139.9292  135.0200  156.8341 LP  0  0  0  0  0  0  0  0  0  0  0  0  # atno 17395 bound_to 11000

$$$$
