AV-unprocessed.smi:1123|AV-procd|sdf|4831|dock6
  -GOLD-   22720 3393D 1   1.00000     0.00000
 Structure written by MMmdl.
 38 39  0  0  0  0  0  0  0  0  2 V2000
  147.3048  131.1392  152.8375 C   0  0  0  0  0  0  0  0  0  0  0  0
  146.7648  132.4957  152.3404 C   0  0  2  0  0  0  0  0  0  0  0  0
  146.4882  133.4901  153.4824 C   0  0  0  0  0  0  0  0  0  0  0  0
  145.6862  133.2182  154.3769 O   0  0  0  0  0  0  0  0  0  0  0  0
  147.1768  134.6429  153.4514 N   0  0  0  0  0  0  0  0  0  0  0  0
  147.0695  135.7074  154.4420 C   0  0  0  0  0  0  0  0  0  0  0  0
  148.4119  135.9375  155.1622 C   0  0  0  0  0  0  0  0  0  0  0  0
  149.2401  136.9850  154.5136 N   0  3  0  0  0  0  0  0  0  0  0  0
  148.6631  138.3401  154.6856 C   0  0  0  0  0  0  0  0  0  0  0  0
  149.5199  139.3902  153.9587 C   0  0  0  0  0  0  0  0  0  0  0  0
  150.8529  139.3368  154.4502 O   0  0  0  0  0  0  0  0  0  0  0  0
  151.4552  138.0710  154.2120 C   0  0  0  0  0  0  0  0  0  0  0  0
  150.6620  136.9713  154.9396 C   0  0  0  0  0  0  0  0  0  0  0  0
  145.5861  132.3283  151.4983 N   0  0  0  0  0  0  0  0  0  0  0  0
  144.9499  131.2168  151.1224 C   0  0  0  0  0  0  0  0  0  0  0  0
  143.9175  131.4326  150.3197 N   0  0  0  0  0  0  0  0  0  0  0  0
  143.9789  132.7943  150.2297 C   0  0  0  0  0  0  0  0  0  0  0  0
  144.9643  133.3804  150.9095 N   0  0  0  0  0  0  0  0  0  0  0  0
  148.2265  131.2654  153.4064 H   0  0  0  0  0  0  0  0  0  0  0  0
  147.5291  130.4799  151.9984 H   0  0  0  0  0  0  0  0  0  0  0  0
  146.5878  130.6244  153.4783 H   0  0  0  0  0  0  0  0  0  0  0  0
  147.5412  132.9438  151.7181 H   0  0  0  0  0  0  0  0  0  0  0  0
  147.8150  134.7945  152.6835 H   0  0  0  0  0  0  0  0  0  0  0  0
  146.7519  136.6058  153.9143 H   0  0  0  0  0  0  0  0  0  0  0  0
  146.2822  135.4738  155.1611 H   0  0  0  0  0  0  0  0  0  0  0  0
  148.2041  136.2457  156.1881 H   0  0  0  0  0  0  0  0  0  0  0  0
  148.9777  135.0069  155.2284 H   0  0  0  0  0  0  0  0  0  0  0  0
  147.6460  138.3640  154.2927 H   0  0  0  0  0  0  0  0  0  0  0  0
  148.6022  138.5797  155.7485 H   0  0  0  0  0  0  0  0  0  0  0  0
  149.5085  139.2260  152.8800 H   0  0  0  0  0  0  0  0  0  0  0  0
  149.1187  140.3887  154.1331 H   0  0  0  0  0  0  0  0  0  0  0  0
  151.5018  137.8728  153.1399 H   0  0  0  0  0  0  0  0  0  0  0  0
  152.4824  138.0955  154.5761 H   0  0  0  0  0  0  0  0  0  0  0  0
  150.7230  137.1215  156.0187 H   0  0  0  0  0  0  0  0  0  0  0  0
  151.1168  136.0053  154.7246 H   0  0  0  0  0  0  0  0  0  0  0  0
  145.2491  130.2290  151.4410 H   0  0  0  0  0  0  0  0  0  0  0  0
  143.2794  133.3704  149.6419 H   0  0  0  0  0  0  0  0  0  0  0  0
  149.2245  136.7946  153.5217 H   0  0  0  0  0  0  0  0  0  0  0  0
  1  2  1  0  0  0  0
  1 19  1  0  0  0  0
  1 20  1  0  0  0  0
  1 21  1  0  0  0  0
  2  3  1  0  0  0  0
  2 14  1  0  0  0  0
  2 22  1  0  0  0  0
  3  4  2  0  0  0  0
  3  5  1  0  0  0  0
  5  6  1  0  0  0  0
  5 23  1  0  0  0  0
  6  7  1  0  0  0  0
  6 24  1  0  0  0  0
  6 25  1  0  0  0  0
  7  8  1  0  0  0  0
  7 26  1  0  0  0  0
  7 27  1  0  0  0  0
  8 13  1  0  0  0  0
  8  9  1  0  0  0  0
  8 38  1  0  0  0  0
  9 10  1  0  0  0  0
  9 28  1  0  0  0  0
  9 29  1  0  0  0  0
 10 11  1  0  0  0  0
 10 30  1  0  0  0  0
 10 31  1  0  0  0  0
 11 12  1  0  0  0  0
 12 13  1  0  0  0  0
 12 32  1  0  0  0  0
 12 33  1  0  0  0  0
 13 34  1  0  0  0  0
 13 35  1  0  0  0  0
 14 18  1  0  0  0  0
 14 15  1  0  0  0  0
 15 16  2  0  0  0  0
 15 36  1  0  0  0  0
 16 17  1  0  0  0  0
 17 18  2  0  0  0  0
 17 37  1  0  0  0  0
M  CHG  1   8   1
M  END
> <s_m_source_file>
AV-unprocessed.smi

> <i_m_source_file_index>
1123

> <i_lp_mmshare_version>
43012

> <i_f3d_flags>
0

> <s_epik_input>
bjFbY0hdbltjSF1uMVtDQEhdKFtDSDNdKUMoPU8pW05IXVtDSDJdW0NIMl1OMltDSDJdW0NIMl1PW0NIMl1bQ0gyXTI=

> <s_epik_cmdline>
J2VwaWtfcHl0aG9uJywgJy1waCcsICc3LjAnLCAnLXRuJywgJzgnLCAnLW1hJywgJzIwMCcsICctbWV0YWxfYmluZGluZycsICctaW1hZScsICc8aW5maWxlLm1hZT4nLCAnLW9tYWUnLCAnPG91dGZpbGUubWFlPic=

> <r_lp_tautomer_probability>
1

> <r_epik_Ionization_Penalty>
0.71326

> <r_epik_Ionization_Penalty_Charging>
0.713252

> <r_epik_Ionization_Penalty_Neutral>
7.98515e-06

> <r_epik_State_Penalty>
0.737017

> <r_epik_Charging_Adjusted_Penalty>
1.45027

> <i_epik_Tot_Q>
1

> <i_epik_Tot_abs_Q>
1

> <r_epik_Metal_State_Penalty>
0.73702

> <b_epik_Metal_Only>
0

> <s_lp_Force_Field>
OPLS_2005

> <r_lp_Energy>
21.5068

> <b_lp_Chiralities_Consistent>
1

> <s_lp_Variant>
AV-unprocessed.smi:1123-3

> <Gold.Version>
5.8.1

> <Gold.Id.Protein>
6NUR|6NUR_protein|mol2

> <Gold.PLP.Fitness>
41.0466

> <Gold.PLP.PLP>
-25.3103

> <Gold.PLP.part.hbond>
-4.0000

> <Gold.PLP.part.metal>
0.0000

> <Gold.PLP.part.buried>
-2.0289

> <Gold.PLP.part.nonpolar>
-20.0597

> <Gold.PLP.part.repulsive>
0.5140

> <Gold.PLP.ligand.clash>
0.0000

> <Gold.PLP.ligand.torsion>
0.3788

> <Gold.PLP.Chemscore.Hbond>
4.4541

> <Gold.PLP.Chemscore.CHOScore>
1.0000

> <Gold.PLP.Chemscore.Metal>
0.0000

> <Gold.Chemscore.Hbonds>
donor molecule, donor type, donor heavy atom, donor atom, acceptor molecule, acceptor atom, score
      L1  H     5    23       P1  7948  0.85
      L1  H     8    38       P1  7948  2.00
      P1  H  7989  7998       L1    11  1.00
      P1  H 10785 10796       L1    16  0.49
      L1  C    17    37       P1 10186  1.00

> <Gold.PLP.Chemscore.Internal.Correction>
0.1317

> <Gold.Rescore>
     Score         DG    S(hbond)    S(metal)    S(lipo)     H(rot)  DE(clash)    DE(int)     intcor
     11.38     -13.63       3.05        0.00      41.44       2.69       1.65       0.60       ----

> <Gold.Chemscore.Fitness>
11.3829

> <Gold.Chemscore.DG>
-13.6301

> <Gold.Chemscore.ZeroCoef>
-5.4800

> <Gold.Chemscore.Hbond>
3.0517

> <Gold.Chemscore.Metal>
0.0000

> <Gold.Chemscore.Lipo>
41.4361

> <Gold.Chemscore.Internal_Hbond>
0.0000

> <Gold.Chemscore.DEClash>
1.6469

> <Gold.Chemscore.DEInternal>
0.6003

> <Gold.Chemscore.Rot>
2.6916

> <Gold.Chemscore.Internal.Correction>
   9.000000E+99

> <Gold.Chemscore.Hbonds>
donor molecule, donor type, donor heavy atom, donor atom, acceptor molecule, acceptor atom, score
      L1  H     5    23       P1  7948  0.75
      L1  H     8    38       P1  7948  0.98
      P1  H  7989  7998       L1    11  0.23
      P1  H 10785 10796       L1    16  0.48

> <Gold.Chemscore.Hbond.Weighted>
-10.1926

> <Gold.Chemscore.Metal.Weighted>
-0.0000

> <Gold.Chemscore.Lipo.Weighted>
-4.8480

> <Gold.Chemscore.Internal_Hbond.Weighted>
0.0000

> <Gold.Chemscore.DEClash.Weighted>
1.6469

> <Gold.Chemscore.DEInternal.Weighted>
0.6003

> <Gold.Chemscore.Rot.Weighted>
6.8906

> <Gold.Chemscore.Internal.Correction.Weighted>
   9.000000E+99

> <Gold.Protein.RotatedTorsions>
[ 6907 6896 6895 6894 ] final  -70.46 input  -60.11 | X-H torsion
[ 7974 7965 7964 7962 ] final   17.68 input  175.53 | X-H torsion
[ 8008 7997 7996 7995 ] final  -15.97 input   59.86 | X-H torsion
[ 10167 10162 10161 10158 ] final -173.53 input  -65.29 | X-H torsion
[ 10718 10713 10712 10709 ] final  118.60 input   66.30 | X-H torsion
[ 10763 10752 10751 10750 ] final -124.51 input  -60.55 | X-H torsion
[ 11005 11000 10999 10996 ] final   42.36 input  -57.11 | X-H torsion

> <Gold.Protein.ActiveResidues>
 VAL166  LYS551  ARG553  GLY616  TRP617  ASP618  TYR619  PRO620  LYS621  CYS622 
 ASP623  PHE694  ASN695  SER759  ASP760  ASP761  ALA762  ILE779  LEU786  VAL792 
 PHE793  MET794  SER795  GLU796  ALA797  LYS798  CYS799  TRP800  GLU811  SER814 

> <Gold.Protein.RotatedAtoms>
  150.7257  134.5450  159.5765 H   0  0  0  0  0  0  0  0  0  0  0  0  # atno 6907 bound_to 6896
  152.2951  134.7673  160.0379 H   0  0  0  0  0  0  0  0  0  0  0  0  # atno 6908 bound_to 6896
  151.8273  133.3368  159.3639 H   0  0  0  0  0  0  0  0  0  0  0  0  # atno 6909 bound_to 6896
  146.2210  139.8567  142.8612 H   0  0  0  0  0  0  0  0  0  0  0  0  # atno 7974 bound_to 7965
  154.5089  140.2182  155.9196 H   0  0  0  0  0  0  0  0  0  0  0  0  # atno 8008 bound_to 7997
  156.1528  140.3158  155.8642 H   0  0  0  0  0  0  0  0  0  0  0  0  # atno 8009 bound_to 7997
  155.3906  140.0478  157.3031 H   0  0  0  0  0  0  0  0  0  0  0  0  # atno 8010 bound_to 7997
  139.5683  144.1701  152.1346 H   0  0  0  0  0  0  0  0  0  0  0  0  # atno 10167 bound_to 10162
  157.6019  131.1049  150.7779 H   0  0  0  0  0  0  0  0  0  0  0  0  # atno 10718 bound_to 10713
  154.8724  135.4061  154.3118 H   0  0  0  0  0  0  0  0  0  0  0  0  # atno 10763 bound_to 10752
  153.3960  135.7016  153.6466 H   0  0  0  0  0  0  0  0  0  0  0  0  # atno 10764 bound_to 10752
  153.5228  135.3683  155.2611 H   0  0  0  0  0  0  0  0  0  0  0  0  # atno 10765 bound_to 10752
  140.1747  134.4179  155.8236 H   0  0  0  0  0  0  0  0  0  0  0  0  # atno 11005 bound_to 11000
  145.2746  141.0119  143.3752 LP  0  0  0  0  0  0  0  0  0  0  0  0  # atno 17320 bound_to 7965
  144.9197  139.4427  143.6547 LP  0  0  0  0  0  0  0  0  0  0  0  0  # atno 17321 bound_to 7965
  140.1229  144.5357  150.6851 LP  0  0  0  0  0  0  0  0  0  0  0  0  # atno 17342 bound_to 10162
  140.6967  143.2408  151.4979 LP  0  0  0  0  0  0  0  0  0  0  0  0  # atno 17343 bound_to 10162
  156.8177  130.4973  149.5347 LP  0  0  0  0  0  0  0  0  0  0  0  0  # atno 17370 bound_to 10713
  156.1094  130.6029  151.0023 LP  0  0  0  0  0  0  0  0  0  0  0  0  # atno 17371 bound_to 10713
  141.2219  133.6972  156.7825 LP  0  0  0  0  0  0  0  0  0  0  0  0  # atno 17394 bound_to 11000
  140.2337  134.8666  157.3503 LP  0  0  0  0  0  0  0  0  0  0  0  0  # atno 17395 bound_to 11000

$$$$
