AV-unprocessed.smi:72|AV-procd|sdf|733|dock4
  -GOLD-   2262017 63D 1   1.00000     0.00000
 Structure written by MMmdl.
 28 29  0  0  0  0  0  0  0  0  2 V2000
  154.3856  138.0336  154.6954 N   0  0  0  0  0  0  0  0  0  0  0  0
  153.1665  138.3330  154.8136 C   0  0  0  0  0  0  0  0  0  0  0  0
  152.1549  137.5056  154.1941 N   0  0  0  0  0  0  0  0  0  0  0  0
  150.9164  137.8754  154.3083 C   0  0  0  0  0  0  0  0  0  0  0  0
  150.5369  139.0956  155.0133 N   0  0  0  0  0  0  0  0  0  0  0  0
  149.0888  139.5402  155.1638 C   0  0  2  0  0  0  0  0  0  0  0  0
  148.2464  138.7350  154.3926 O   0  0  0  0  0  0  0  0  0  0  0  0
  148.0127  139.3538  153.1334 C   0  0  1  0  0  0  0  0  0  0  0  0
  146.7453  138.7708  152.4908 C   0  0  0  0  0  0  0  0  0  0  0  0
  147.0862  137.7152  151.6174 O   0  0  0  0  0  0  0  0  0  0  0  0
  147.8814  140.8267  153.5233 C   0  0  2  0  0  0  0  0  0  0  0  0
  148.2189  141.6579  152.4310 O   0  0  0  0  0  0  0  0  0  0  0  0
  148.8926  140.9865  154.6559 C   0  0  1  0  0  0  0  0  0  0  0  0
  148.3664  141.8255  155.6637 O   0  0  0  0  0  0  0  0  0  0  0  0
  151.5498  139.8526  155.6634 C   0  0  0  0  0  0  0  0  0  0  0  0
  151.2076  140.8410  156.3134 O   0  0  0  0  0  0  0  0  0  0  0  0
  152.8471  139.4553  155.5446 N   0  5  0  0  0  0  0  0  0  0  0  0
  148.8634  139.3957  156.2220 H   0  0  0  0  0  0  0  0  0  0  0  0
  148.8798  139.2205  152.4833 H   0  0  0  0  0  0  0  0  0  0  0  0
  146.8674  141.0375  153.8682 H   0  0  0  0  0  0  0  0  0  0  0  0
  149.8392  141.3884  154.2902 H   0  0  0  0  0  0  0  0  0  0  0  0
  154.9948  138.6825  155.1718 H   0  0  0  0  0  0  0  0  0  0  0  0
  150.0964  137.2947  153.8863 H   0  0  0  0  0  0  0  0  0  0  0  0
  146.0388  138.4272  153.2469 H   0  0  0  0  0  0  0  0  0  0  0  0
  146.2407  139.5345  151.8986 H   0  0  0  0  0  0  0  0  0  0  0  0
  147.5987  137.0825  152.0966 H   0  0  0  0  0  0  0  0  0  0  0  0
  148.5122  141.1085  151.7202 H   0  0  0  0  0  0  0  0  0  0  0  0
  148.6891  142.7019  155.5145 H   0  0  0  0  0  0  0  0  0  0  0  0
  1  2  2  0  0  0  0
  1 22  1  0  0  0  0
  2 17  1  0  0  0  0
  2  3  1  0  0  0  0
  3  4  2  0  0  0  0
  4  5  1  0  0  0  0
  4 23  1  0  0  0  0
  5  6  1  0  0  0  0
  5 15  1  0  0  0  0
  6 18  1  0  0  0  0
  6 13  1  0  0  0  0
  6  7  1  0  0  0  0
  7  8  1  0  0  0  0
  8 19  1  0  0  0  0
  8  9  1  0  0  0  0
  8 11  1  0  0  0  0
  9 10  1  0  0  0  0
  9 24  1  0  0  0  0
  9 25  1  0  0  0  0
 10 26  1  0  0  0  0
 11 20  1  0  0  0  0
 11 12  1  0  0  0  0
 11 13  1  0  0  0  0
 12 27  1  0  0  0  0
 13 21  1  0  0  0  0
 13 14  1  0  0  0  0
 14 28  1  0  0  0  0
 15 16  2  0  0  0  0
 15 17  1  0  0  0  0
M  CHG  1  17  -1
M  END
> <s_m_source_file>
AV-unprocessed.smi

> <i_m_source_file_index>
72

> <i_lp_mmshare_version>
43012

> <i_f3d_flags>
0

> <s_epik_input>
W05IMl1jMW5bY0hdbihjKD1PKW4xKVtDQEBIXTJPW0NASF0oW0NIMl1bT0hdKVtDQEBIXShbT0hdKVtDQEhdMltPSF0=

> <s_epik_cmdline>
J2VwaWtfcHl0aG9uJywgJy1waCcsICc3LjAnLCAnLXRuJywgJzgnLCAnLW1hJywgJzIwMCcsICctbWV0YWxfYmluZGluZycsICctaW1hZScsICc8aW5maWxlLm1hZT4nLCAnLW9tYWUnLCAnPG91dGZpbGUubWFlPic=

> <r_lp_tautomer_probability>
7.17554e-07

> <r_epik_Ionization_Penalty>
12.8705

> <r_epik_Ionization_Penalty_Charging>
5.64144

> <r_epik_Ionization_Penalty_Neutral>
7.22905

> <r_epik_State_Penalty>
3.30104

> <r_epik_Charging_Adjusted_Penalty>
8.94249

> <i_epik_Tot_Q>
-1

> <i_epik_Tot_abs_Q>
1

> <r_epik_Metal_State_Penalty>
0.529074

> <b_epik_Metal_Only>
1

> <s_epik_Chemistry_Notes>
This compound contains an acetal/aminal-like group ( X-CH(R)-Y where X, Y are N, S, or O) that may be acid/base labile, releasing an aldehyde.

> <s_lp_Force_Field>
OPLS_2005

> <r_lp_Energy>
30.1413

> <b_lp_Chiralities_Consistent>
1

> <s_lp_Variant>
AV-unprocessed.smi:72-71

> <Gold.Version>
5.8.1

> <Gold.Id.Protein>
6NUR|6NUR_protein|mol2

> <Gold.PLP.Fitness>
45.7616

> <Gold.PLP.PLP>
-23.4912

> <Gold.PLP.part.hbond>
-7.9865

> <Gold.PLP.part.metal>
0.0000

> <Gold.PLP.part.buried>
8.8346

> <Gold.PLP.part.nonpolar>
-24.9045

> <Gold.PLP.part.repulsive>
0.3292

> <Gold.PLP.ligand.clash>
0.0000

> <Gold.PLP.ligand.torsion>
0.4528

> <Gold.PLP.Chemscore.Hbond>
6.6918

> <Gold.PLP.Chemscore.CHOScore>
1.0220

> <Gold.PLP.Chemscore.Metal>
0.0000

> <Gold.Chemscore.Hbonds>
donor molecule, donor type, donor heavy atom, donor atom, acceptor molecule, acceptor atom, score
      L1  H    10    26       P1  7948  0.70
      L1  H    12    27       P1  7957  0.99
      L1  H    14    28       P1  8028  1.00
      P1  H  7954  7966       L1    10  0.99
      P1  H  7997  8010       L1    17  2.00
      P1  H  8011  8017       L1    12  0.18
      P1  H 10752 10765       L1     3  0.82
      L1  C     4    23       P1  7948  1.00

> <Gold.PLP.Chemscore.Internal.Correction>
0.0347

> <Gold.Rescore>
     Score         DG    S(hbond)    S(metal)    S(lipo)     H(rot)  DE(clash)    DE(int)     intcor
      4.35     -11.57       3.84        0.00      30.83       4.04       4.51       2.70       ----

> <Gold.Chemscore.Fitness>
4.3546

> <Gold.Chemscore.DG>
-11.5657

> <Gold.Chemscore.ZeroCoef>
-5.4800

> <Gold.Chemscore.Hbond>
3.8389

> <Gold.Chemscore.Metal>
0.0000

> <Gold.Chemscore.Lipo>
30.8272

> <Gold.Chemscore.Internal_Hbond>
0.0000

> <Gold.Chemscore.DEClash>
4.5102

> <Gold.Chemscore.DEInternal>
2.7009

> <Gold.Chemscore.Rot>
4.0403

> <Gold.Chemscore.Internal.Correction>
   9.000000E+99

> <Gold.Chemscore.Hbonds>
donor molecule, donor type, donor heavy atom, donor atom, acceptor molecule, acceptor atom, score
      L1  H    10    26       P1  7948  0.71
      L1  H    12    27       P1  7957  0.93
      L1  H    14    28       P1  8028  0.93
      P1  H  7954  7966       L1    10  0.28
      P1  H  7997  8010       L1    17  0.34
      P1  H 10752 10765       L1     3  0.31

> <Gold.Chemscore.Hbond.Weighted>
-12.8220

> <Gold.Chemscore.Metal.Weighted>
-0.0000

> <Gold.Chemscore.Lipo.Weighted>
-3.6068

> <Gold.Chemscore.Internal_Hbond.Weighted>
0.0000

> <Gold.Chemscore.DEClash.Weighted>
4.5102

> <Gold.Chemscore.DEInternal.Weighted>
2.7009

> <Gold.Chemscore.Rot.Weighted>
10.3431

> <Gold.Chemscore.Internal.Correction.Weighted>
   9.000000E+99

> <Gold.Protein.RotatedTorsions>
[ 6907 6896 6895 6894 ] final -173.46 input  -60.11 | X-H torsion
[ 7974 7965 7964 7962 ] final   -1.44 input  175.53 | X-H torsion
[ 8008 7997 7996 7995 ] final  108.73 input   59.86 | X-H torsion
[ 10167 10162 10161 10158 ] final   57.79 input  -65.29 | X-H torsion
[ 10718 10713 10712 10709 ] final   47.14 input   66.30 | X-H torsion
[ 10763 10752 10751 10750 ] final  143.36 input  -60.55 | X-H torsion
[ 11005 11000 10999 10996 ] final   16.74 input  -57.11 | X-H torsion

> <Gold.Protein.ActiveResidues>
 VAL166  LYS551  ARG553  GLY616  TRP617  ASP618  TYR619  PRO620  LYS621  CYS622 
 ASP623  PHE694  ASN695  SER759  ASP760  ASP761  ALA762  ILE779  LEU786  VAL792 
 PHE793  MET794  SER795  GLU796  ALA797  LYS798  CYS799  TRP800  GLU811  SER814 

> <Gold.Protein.RotatedAtoms>
  151.5565  133.3409  159.2962 H   0  0  0  0  0  0  0  0  0  0  0  0  # atno 6907 bound_to 6896
  150.8448  134.7755  159.6972 H   0  0  0  0  0  0  0  0  0  0  0  0  # atno 6908 bound_to 6896
  152.4508  134.5406  159.9889 H   0  0  0  0  0  0  0  0  0  0  0  0  # atno 6909 bound_to 6896
  146.2417  140.1421  142.8335 H   0  0  0  0  0  0  0  0  0  0  0  0  # atno 7974 bound_to 7965
  156.1925  140.3071  155.9361 H   0  0  0  0  0  0  0  0  0  0  0  0  # atno 8008 bound_to 7997
  155.3141  140.0452  157.3053 H   0  0  0  0  0  0  0  0  0  0  0  0  # atno 8009 bound_to 7997
  154.5469  140.2279  155.8557 H   0  0  0  0  0  0  0  0  0  0  0  0  # atno 8010 bound_to 7997
  140.1942  144.4054  150.6557 H   0  0  0  0  0  0  0  0  0  0  0  0  # atno 10167 bound_to 10162
  157.4554  130.8164  149.7831 H   0  0  0  0  0  0  0  0  0  0  0  0  # atno 10718 bound_to 10713
  153.9711  135.2950  155.3427 H   0  0  0  0  0  0  0  0  0  0  0  0  # atno 10763 bound_to 10752
  154.7322  135.5063  153.8985 H   0  0  0  0  0  0  0  0  0  0  0  0  # atno 10764 bound_to 10752
  153.0899  135.6704  153.9986 H   0  0  0  0  0  0  0  0  0  0  0  0  # atno 10765 bound_to 10752
  140.4437  134.1295  155.7693 H   0  0  0  0  0  0  0  0  0  0  0  0  # atno 11005 bound_to 11000
  145.0238  140.8815  143.5151 LP  0  0  0  0  0  0  0  0  0  0  0  0  # atno 17320 bound_to 7965
  145.1474  139.2535  143.5459 LP  0  0  0  0  0  0  0  0  0  0  0  0  # atno 17321 bound_to 7965
  140.6435  143.2208  151.6238 LP  0  0  0  0  0  0  0  0  0  0  0  0  # atno 17342 bound_to 10162
  139.5243  144.3107  152.0996 LP  0  0  0  0  0  0  0  0  0  0  0  0  # atno 17343 bound_to 10162
  156.0005  130.3883  150.2625 LP  0  0  0  0  0  0  0  0  0  0  0  0  # atno 17370 bound_to 10713
  157.0799  131.0140  151.3160 LP  0  0  0  0  0  0  0  0  0  0  0  0  # atno 17371 bound_to 10713
  141.1694  133.8638  157.1616 LP  0  0  0  0  0  0  0  0  0  0  0  0  # atno 17394 bound_to 11000
  140.0052  135.0011  157.0278 LP  0  0  0  0  0  0  0  0  0  0  0  0  # atno 17395 bound_to 11000

$$$$
