AV-unprocessed.smi:141|AV-procd|sdf|1188|dock6
  -GOLD-   2262018343D 1   1.00000     0.00000
 Structure written by MMmdl.
 56 59  0  0  0  0  0  0  0  0  1 V2000
  150.8338  136.0872  154.6735 O   0  0  0  0  0  0  0  0  0  0  0  0
  150.2937  136.5153  155.6957 C   0  0  0  0  0  0  0  0  0  0  0  0
  148.8738  136.0261  156.0527 C   0  0  0  0  0  0  0  0  0  0  0  0
  148.3152  135.0610  155.0788 N   0  0  0  0  0  0  0  0  0  0  0  0
  148.9828  133.8256  154.8861 C   0  0  0  0  0  0  0  0  0  0  0  0
  149.9986  133.5426  155.5234 O   0  0  0  0  0  0  0  0  0  0  0  0
  148.3941  132.9397  153.8880 C   0  0  0  0  0  0  0  0  0  0  0  0
  148.9659  131.7504  153.6339 F   0  0  0  0  0  0  0  0  0  0  0  0
  147.2854  133.2981  153.2086 C   0  0  0  0  0  0  0  0  0  0  0  0
  146.6416  134.5052  153.4100 N   0  0  0  0  0  0  0  0  0  0  0  0
  145.4120  134.8841  152.6150 C   0  0  1  0  0  0  0  0  0  0  0  0
  145.7260  134.8656  151.1144 C   0  0  0  0  0  0  0  0  0  0  0  0
  145.2782  133.4751  150.7198 C   0  0  0  0  0  0  0  0  0  0  0  0
  144.0736  133.2733  151.6314 C   0  0  0  0  0  0  0  0  0  0  0  0
  144.4073  133.9385  152.8470 O   0  0  0  0  0  0  0  0  0  0  0  0
  147.1586  135.4248  154.3482 C   0  0  0  0  0  0  0  0  0  0  0  0
  146.6213  136.5219  154.5155 O   0  0  0  0  0  0  0  0  0  0  0  0
  150.9102  137.4004  156.5169 N   0  0  0  0  0  0  0  0  0  0  0  0
  152.2310  138.0032  156.2921 C   0  0  0  0  0  0  0  0  0  0  0  0
  152.0470  139.4989  155.9777 C   0  0  0  0  0  0  0  0  0  0  0  0
  151.2791  140.2197  157.1086 C   0  0  0  0  0  0  0  0  0  0  0  0
  151.0111  141.7044  156.7750 C   0  0  0  0  0  0  0  0  0  0  0  0
  151.5081  142.6440  157.8582 C   0  0  0  0  0  0  0  0  0  0  0  0
  151.5379  144.0357  157.6294 C   0  0  0  0  0  0  0  0  0  0  0  0
  151.9913  144.9086  158.6376 C   0  0  0  0  0  0  0  0  0  0  0  0
  152.4146  144.3929  159.8780 C   0  0  0  0  0  0  0  0  0  0  0  0
  152.3834  143.0040  160.1104 C   0  0  0  0  0  0  0  0  0  0  0  0
  151.9310  142.1305  159.1021 C   0  0  0  0  0  0  0  0  0  0  0  0
  149.9787  139.4595  157.4508 C   0  0  0  0  0  0  0  0  0  0  0  0
  150.2566  137.9668  157.7035 C   0  0  0  0  0  0  0  0  0  0  0  0
  148.8932  135.5875  157.0516 H   0  0  0  0  0  0  0  0  0  0  0  0
  148.2173  136.8922  156.1466 H   0  0  0  0  0  0  0  0  0  0  0  0
  146.8998  132.6060  152.4748 H   0  0  0  0  0  0  0  0  0  0  0  0
  145.0928  135.8578  152.9902 H   0  0  0  0  0  0  0  0  0  0  0  0
  145.1111  135.6193  150.6210 H   0  0  0  0  0  0  0  0  0  0  0  0
  146.7761  135.0728  150.9044 H   0  0  0  0  0  0  0  0  0  0  0  0
  145.0325  133.3874  149.6614 H   0  0  0  0  0  0  0  0  0  0  0  0
  146.0568  132.7477  150.9521 H   0  0  0  0  0  0  0  0  0  0  0  0
  143.1907  133.7498  151.2030 H   0  0  0  0  0  0  0  0  0  0  0  0
  143.8446  132.2207  151.7999 H   0  0  0  0  0  0  0  0  0  0  0  0
  152.8353  137.8842  157.1926 H   0  0  0  0  0  0  0  0  0  0  0  0
  152.8042  137.5283  155.4977 H   0  0  0  0  0  0  0  0  0  0  0  0
  153.0210  139.9677  155.8325 H   0  0  0  0  0  0  0  0  0  0  0  0
  151.5080  139.6044  155.0349 H   0  0  0  0  0  0  0  0  0  0  0  0
  151.9077  140.1726  157.9998 H   0  0  0  0  0  0  0  0  0  0  0  0
  151.4795  141.9813  155.8295 H   0  0  0  0  0  0  0  0  0  0  0  0
  149.9444  141.8804  156.6288 H   0  0  0  0  0  0  0  0  0  0  0  0
  151.2109  144.4376  156.6813 H   0  0  0  0  0  0  0  0  0  0  0  0
  152.0133  145.9736  158.4596 H   0  0  0  0  0  0  0  0  0  0  0  0
  152.7615  145.0625  160.6512 H   0  0  0  0  0  0  0  0  0  0  0  0
  152.7057  142.6087  161.0623 H   0  0  0  0  0  0  0  0  0  0  0  0
  151.9066  141.0662  159.2864 H   0  0  0  0  0  0  0  0  0  0  0  0
  149.5096  139.9014  158.3305 H   0  0  0  0  0  0  0  0  0  0  0  0
  149.2628  139.5600  156.6335 H   0  0  0  0  0  0  0  0  0  0  0  0
  149.3281  137.4572  157.9630 H   0  0  0  0  0  0  0  0  0  0  0  0
  150.9104  137.8472  158.5687 H   0  0  0  0  0  0  0  0  0  0  0  0
  1  2  2  0  0  0  0
  2  3  1  0  0  0  0
  2 18  1  0  0  0  0
  3  4  1  0  0  0  0
  3 31  1  0  0  0  0
  3 32  1  0  0  0  0
  4 16  1  0  0  0  0
  4  5  1  0  0  0  0
  5  6  2  0  0  0  0
  5  7  1  0  0  0  0
  7  8  1  0  0  0  0
  7  9  2  0  0  0  0
  9 10  1  0  0  0  0
  9 33  1  0  0  0  0
 10 11  1  0  0  0  0
 10 16  1  0  0  0  0
 11 15  1  0  0  0  0
 11 12  1  0  0  0  0
 11 34  1  0  0  0  0
 12 13  1  0  0  0  0
 12 35  1  0  0  0  0
 12 36  1  0  0  0  0
 13 14  1  0  0  0  0
 13 37  1  0  0  0  0
 13 38  1  0  0  0  0
 14 15  1  0  0  0  0
 14 39  1  0  0  0  0
 14 40  1  0  0  0  0
 16 17  2  0  0  0  0
 18 30  1  0  0  0  0
 18 19  1  0  0  0  0
 19 20  1  0  0  0  0
 19 41  1  0  0  0  0
 19 42  1  0  0  0  0
 20 21  1  0  0  0  0
 20 43  1  0  0  0  0
 20 44  1  0  0  0  0
 21 22  1  0  0  0  0
 21 29  1  0  0  0  0
 21 45  1  0  0  0  0
 22 23  1  0  0  0  0
 22 46  1  0  0  0  0
 22 47  1  0  0  0  0
 23 28  1  0  0  0  0
 23 24  2  0  0  0  0
 24 25  1  0  0  0  0
 24 48  1  0  0  0  0
 25 26  2  0  0  0  0
 25 49  1  0  0  0  0
 26 27  1  0  0  0  0
 26 50  1  0  0  0  0
 27 28  2  0  0  0  0
 27 51  1  0  0  0  0
 28 52  1  0  0  0  0
 29 30  1  0  0  0  0
 29 53  1  0  0  0  0
 29 54  1  0  0  0  0
 30 55  1  0  0  0  0
 30 56  1  0  0  0  0
M  END
> <s_m_source_file>
AV-unprocessed.smi

> <i_m_source_file_index>
141

> <i_lp_mmshare_version>
43012

> <i_f3d_flags>
0

> <s_epik_input>
W2NIXTFbY0hdW2NIXVtjSF1bY0hdYzFbQ0gyXVtDSF0oW0NIMl1bQ0gyXTIpW0NIMl1bQ0gyXU4yQyg9TylbQ0gyXW4zYyg9TyljKEYpW2NIXW4oYzM9TylbQ0BASF00W0NIMl1bQ0gyXVtDSDJdTzQ=

> <s_epik_cmdline>
J2VwaWtfcHl0aG9uJywgJy1waCcsICc3LjAnLCAnLXRuJywgJzgnLCAnLW1hJywgJzIwMCcsICctbWV0YWxfYmluZGluZycsICctaW1hZScsICc8aW5maWxlLm1hZT4nLCAnLW9tYWUnLCAnPG91dGZpbGUubWFlPic=

> <r_lp_tautomer_probability>
1

> <r_epik_Ionization_Penalty>
3.78313e-08

> <r_epik_Ionization_Penalty_Charging>
4.95074e-09

> <r_epik_Ionization_Penalty_Neutral>
3.28806e-08

> <r_epik_State_Penalty>
-0

> <r_epik_Charging_Adjusted_Penalty>
4.95074e-09

> <i_epik_Tot_Q>
0

> <i_epik_Tot_abs_Q>
0

> <r_epik_Metal_State_Penalty>
-0

> <b_epik_Metal_Only>
0

> <s_epik_Chemistry_Notes>
This compound contains an acetal/aminal-like group ( X-CH(R)-Y where X, Y are N, S, or O) that may be acid/base labile, releasing an aldehyde.

> <s_lp_Force_Field>
OPLS_2005

> <r_lp_Energy>
51.0645

> <b_lp_Chiralities_Consistent>
1

> <s_lp_Variant>
AV-unprocessed.smi:141-2

> <Gold.Version>
5.8.1

> <Gold.Id.Protein>
6NUR|6NUR_protein|mol2

> <Gold.PLP.Fitness>
53.3000

> <Gold.PLP.PLP>
-51.8849

> <Gold.PLP.part.hbond>
-1.0000

> <Gold.PLP.part.metal>
0.0000

> <Gold.PLP.part.buried>
-6.2601

> <Gold.PLP.part.nonpolar>
-44.0452

> <Gold.PLP.part.repulsive>
0.3860

> <Gold.PLP.ligand.clash>
0.0000

> <Gold.PLP.ligand.torsion>
0.8239

> <Gold.PLP.Chemscore.Hbond>
1.0000

> <Gold.PLP.Chemscore.CHOScore>
0.0000

> <Gold.PLP.Chemscore.Metal>
0.0000

> <Gold.Chemscore.Hbonds>
donor molecule, donor type, donor heavy atom, donor atom, acceptor molecule, acceptor atom, score
      P1  H 10752 10764       L1     1  0.70

> <Gold.PLP.Chemscore.Internal.Correction>
0.0630

> <Gold.Rescore>
     Score         DG    S(hbond)    S(metal)    S(lipo)     H(rot)  DE(clash)    DE(int)     intcor
     18.73     -19.84       0.98        0.00     135.09       1.85       0.17       0.94       ----

> <Gold.Chemscore.Fitness>
18.7340

> <Gold.Chemscore.DG>
-19.8397

> <Gold.Chemscore.ZeroCoef>
-5.4800

> <Gold.Chemscore.Hbond>
0.9822

> <Gold.Chemscore.Metal>
0.0000

> <Gold.Chemscore.Lipo>
135.0872

> <Gold.Chemscore.Internal_Hbond>
0.0000

> <Gold.Chemscore.DEClash>
0.1688

> <Gold.Chemscore.DEInternal>
0.9369

> <Gold.Chemscore.Rot>
1.8461

> <Gold.Chemscore.Internal.Correction>
   9.000000E+99

> <Gold.Chemscore.Hbonds>
donor molecule, donor type, donor heavy atom, donor atom, acceptor molecule, acceptor atom, score
      P1  H 10752 10764       L1     1  0.69

> <Gold.Chemscore.Hbond.Weighted>
-3.2805

> <Gold.Chemscore.Metal.Weighted>
-0.0000

> <Gold.Chemscore.Lipo.Weighted>
-15.8052

> <Gold.Chemscore.Internal_Hbond.Weighted>
0.0000

> <Gold.Chemscore.DEClash.Weighted>
0.1688

> <Gold.Chemscore.DEInternal.Weighted>
0.9369

> <Gold.Chemscore.Rot.Weighted>
4.7260

> <Gold.Chemscore.Internal.Correction.Weighted>
   9.000000E+99

> <Gold.Protein.RotatedTorsions>
[ 6907 6896 6895 6894 ] final  -17.53 input  -60.11 | X-H torsion
[ 7974 7965 7964 7962 ] final  -30.61 input  175.53 | X-H torsion
[ 8008 7997 7996 7995 ] final -117.46 input   59.86 | X-H torsion
[ 10167 10162 10161 10158 ] final   -2.48 input  -65.29 | X-H torsion
[ 10718 10713 10712 10709 ] final -115.03 input   66.30 | X-H torsion
[ 10763 10752 10751 10750 ] final  -71.70 input  -60.55 | X-H torsion
[ 11005 11000 10999 10996 ] final   63.84 input  -57.11 | X-H torsion

> <Gold.Protein.ActiveResidues>
 VAL166  LYS551  ARG553  GLY616  TRP617  ASP618  TYR619  PRO620  LYS621  CYS622 
 ASP623  PHE694  ASN695  SER759  ASP760  ASP761  ALA762  ILE779  LEU786  VAL792 
 PHE793  MET794  SER795  GLU796  ALA797  LYS798  CYS799  TRP800  GLU811  SER814 

> <Gold.Protein.RotatedAtoms>
  151.2920  135.0744  159.9207 H   0  0  0  0  0  0  0  0  0  0  0  0  # atno 6907 bound_to 6896
  152.5314  133.9922  159.7866 H   0  0  0  0  0  0  0  0  0  0  0  0  # atno 6908 bound_to 6896
  151.0194  133.5840  159.2703 H   0  0  0  0  0  0  0  0  0  0  0  0  # atno 6909 bound_to 6896
  146.1129  140.5563  142.8769 H   0  0  0  0  0  0  0  0  0  0  0  0  # atno 7974 bound_to 7965
  155.0840  140.0394  157.2648 H   0  0  0  0  0  0  0  0  0  0  0  0  # atno 8008 bound_to 7997
  154.6884  140.2648  155.6812 H   0  0  0  0  0  0  0  0  0  0  0  0  # atno 8009 bound_to 7997
  156.2720  140.2764  156.1453 H   0  0  0  0  0  0  0  0  0  0  0  0  # atno 8010 bound_to 7997
  140.6852  143.6652  150.8232 H   0  0  0  0  0  0  0  0  0  0  0  0  # atno 10167 bound_to 10162
  156.0869  130.6059  150.8853 H   0  0  0  0  0  0  0  0  0  0  0  0  # atno 10718 bound_to 10713
  154.4354  135.5953  153.6095 H   0  0  0  0  0  0  0  0  0  0  0  0  # atno 10763 bound_to 10752
  152.9801  135.5985  154.3787 H   0  0  0  0  0  0  0  0  0  0  0  0  # atno 10764 bound_to 10752
  154.3631  135.2841  155.2287 H   0  0  0  0  0  0  0  0  0  0  0  0  # atno 10765 bound_to 10752
  139.9998  134.6460  155.9950 H   0  0  0  0  0  0  0  0  0  0  0  0  # atno 11005 bound_to 11000
  144.7528  140.5232  143.6790 LP  0  0  0  0  0  0  0  0  0  0  0  0  # atno 17320 bound_to 7965
  145.5625  139.1480  143.3333 LP  0  0  0  0  0  0  0  0  0  0  0  0  # atno 17321 bound_to 7965
  140.0358  143.5396  152.2740 LP  0  0  0  0  0  0  0  0  0  0  0  0  # atno 17342 bound_to 10162
  139.6206  144.7628  151.2749 LP  0  0  0  0  0  0  0  0  0  0  0  0  # atno 17343 bound_to 10162
  157.6006  131.0941  150.8967 LP  0  0  0  0  0  0  0  0  0  0  0  0  # atno 17370 bound_to 10713
  156.9125  130.5286  149.5280 LP  0  0  0  0  0  0  0  0  0  0  0  0  # atno 17371 bound_to 10713
  141.1633  133.6538  156.4392 LP  0  0  0  0  0  0  0  0  0  0  0  0  # atno 17394 bound_to 11000
  140.4750  134.6718  157.5146 LP  0  0  0  0  0  0  0  0  0  0  0  0  # atno 17395 bound_to 11000

$$$$
