AV-unprocessed.smi:2939|AV-procd|sdf|11261|dock7
  -GOLD-   2272016153D 1   1.00000     0.00000
 Structure written by MMmdl.
 30 31  0  0  0  0  0  0  0  0  2 V2000
  151.3794  136.0509  155.5571 O   0  0  0  0  0  0  0  0  0  0  0  0
  150.9076  137.1298  155.1366 C   0  0  0  0  0  0  0  0  0  0  0  0
  149.7195  137.3213  154.7975 O   0  5  0  0  0  0  0  0  0  0  0  0
  151.8667  138.3192  155.0295 C   0  0  0  0  0  0  0  0  0  0  0  0
  151.4145  139.4771  155.7884 N   0  0  0  0  0  0  0  0  0  0  0  0
  150.3480  140.2425  155.2501 C   0  0  0  0  0  0  0  0  0  0  0  0
  149.7194  139.8864  154.2525 O   0  0  0  0  0  0  0  0  0  0  0  0
  150.0535  141.4764  155.9691 C   0  0  0  0  0  0  0  0  0  0  0  0
  150.7742  141.8387  157.0514 C   0  0  0  0  0  0  0  0  0  0  0  0
  151.8225  141.0850  157.5415 N   0  0  0  0  0  0  0  0  0  0  0  0
  152.5872  141.4956  158.6924 C   0  0  0  0  0  0  0  0  0  0  0  0
  152.3070  142.9029  159.2063 C   0  0  0  0  0  0  0  0  0  0  0  0
  152.4257  143.9965  158.3230 C   0  0  0  0  0  0  0  0  0  0  0  0
  152.1769  145.3070  158.7753 C   0  0  0  0  0  0  0  0  0  0  0  0
  151.8129  145.5323  160.1167 C   0  0  0  0  0  0  0  0  0  0  0  0
  151.6995  144.4464  161.0054 C   0  0  0  0  0  0  0  0  0  0  0  0
  151.9478  143.1357  160.5533 C   0  0  0  0  0  0  0  0  0  0  0  0
  152.1850  139.8728  156.9097 C   0  0  0  0  0  0  0  0  0  0  0  0
  153.1287  139.1947  157.3261 O   0  0  0  0  0  0  0  0  0  0  0  0
  152.8663  138.0482  155.3731 H   0  0  0  0  0  0  0  0  0  0  0  0
  152.0025  138.6188  153.9891 H   0  0  0  0  0  0  0  0  0  0  0  0
  149.2489  142.1101  155.6264 H   0  0  0  0  0  0  0  0  0  0  0  0
  150.5208  142.7636  157.5489 H   0  0  0  0  0  0  0  0  0  0  0  0
  152.3608  140.7746  159.4789 H   0  0  0  0  0  0  0  0  0  0  0  0
  153.6391  141.3576  158.4337 H   0  0  0  0  0  0  0  0  0  0  0  0
  152.7045  143.8324  157.2923 H   0  0  0  0  0  0  0  0  0  0  0  0
  152.2658  146.1395  158.0929 H   0  0  0  0  0  0  0  0  0  0  0  0
  151.6222  146.5370  160.4637 H   0  0  0  0  0  0  0  0  0  0  0  0
  151.4224  144.6181  162.0350 H   0  0  0  0  0  0  0  0  0  0  0  0
  151.8596  142.3132  161.2476 H   0  0  0  0  0  0  0  0  0  0  0  0
  1  2  2  0  0  0  0
  2  3  1  0  0  0  0
  2  4  1  0  0  0  0
  4  5  1  0  0  0  0
  4 20  1  0  0  0  0
  4 21  1  0  0  0  0
  5 18  1  0  0  0  0
  5  6  1  0  0  0  0
  6  7  2  0  0  0  0
  6  8  1  0  0  0  0
  8  9  2  0  0  0  0
  8 22  1  0  0  0  0
  9 10  1  0  0  0  0
  9 23  1  0  0  0  0
 10 11  1  0  0  0  0
 10 18  1  0  0  0  0
 11 12  1  0  0  0  0
 11 24  1  0  0  0  0
 11 25  1  0  0  0  0
 12 17  1  0  0  0  0
 12 13  2  0  0  0  0
 13 14  1  0  0  0  0
 13 26  1  0  0  0  0
 14 15  2  0  0  0  0
 14 27  1  0  0  0  0
 15 16  1  0  0  0  0
 15 28  1  0  0  0  0
 16 17  2  0  0  0  0
 16 29  1  0  0  0  0
 17 30  1  0  0  0  0
 18 19  2  0  0  0  0
M  CHG  1   3  -1
M  END
> <s_m_source_file>
AV-unprocessed.smi

> <i_m_source_file_index>
2939

> <i_lp_mmshare_version>
43012

> <i_f3d_flags>
0

> <s_epik_input>
Tz1DKFtPSF0pW0NIMl1uMWMoPU8pW2NIXVtjSF1uKGMxPU8pW0NIMl1jMltjSF1bY0hdW2NIXVtjSF1bY0hdMg==

> <s_epik_cmdline>
J2VwaWtfcHl0aG9uJywgJy1waCcsICc3LjAnLCAnLXRuJywgJzgnLCAnLW1hJywgJzIwMCcsICctbWV0YWxfYmluZGluZycsICctaW1hZScsICc8aW5maWxlLm1hZT4nLCAnLW9tYWUnLCAnPG91dGZpbGUubWFlPic=

> <r_lp_tautomer_probability>
1

> <r_epik_Ionization_Penalty>
0.00125818

> <r_epik_Ionization_Penalty_Charging>
0.00125818

> <r_epik_Ionization_Penalty_Neutral>
0

> <r_epik_State_Penalty>
0.000832915

> <r_epik_Charging_Adjusted_Penalty>
0.00209109

> <i_epik_Tot_Q>
-1

> <i_epik_Tot_abs_Q>
1

> <r_epik_Metal_State_Penalty>
-0

> <b_epik_Metal_Only>
0

> <s_lp_Force_Field>
OPLS_2005

> <r_lp_Energy>
10.7616

> <b_lp_Chiralities_Consistent>
1

> <s_lp_Variant>
AV-unprocessed.smi:2939-1

> <Gold.Version>
5.8.1

> <Gold.Id.Protein>
6NUR|6NUR_protein|mol2

> <Gold.PLP.Fitness>
54.6099

> <Gold.PLP.PLP>
-46.0352

> <Gold.PLP.part.hbond>
-2.6129

> <Gold.PLP.part.metal>
0.0000

> <Gold.PLP.part.buried>
-4.8557

> <Gold.PLP.part.nonpolar>
-39.3324

> <Gold.PLP.part.repulsive>
1.0062

> <Gold.PLP.ligand.clash>
0.0000

> <Gold.PLP.ligand.torsion>
0.2346

> <Gold.PLP.Chemscore.Hbond>
3.0000

> <Gold.PLP.Chemscore.CHOScore>
0.0000

> <Gold.PLP.Chemscore.Metal>
0.0000

> <Gold.Chemscore.Hbonds>
donor molecule, donor type, donor heavy atom, donor atom, acceptor molecule, acceptor atom, score
      P1  H  7997  8010       L1    19  0.95
      P1  H 10752 10765       L1     1  2.00

> <Gold.PLP.Chemscore.Internal.Correction>
0.0439

> <Gold.Rescore>
     Score         DG    S(hbond)    S(metal)    S(lipo)     H(rot)  DE(clash)    DE(int)     intcor
     18.17     -18.62       1.96        0.00     102.86       2.13       0.00       0.45       ----

> <Gold.Chemscore.Fitness>
18.1720

> <Gold.Chemscore.DG>
-18.6186

> <Gold.Chemscore.ZeroCoef>
-5.4800

> <Gold.Chemscore.Hbond>
1.9618

> <Gold.Chemscore.Metal>
0.0000

> <Gold.Chemscore.Lipo>
102.8580

> <Gold.Chemscore.Internal_Hbond>
0.0000

> <Gold.Chemscore.DEClash>
0.0000

> <Gold.Chemscore.DEInternal>
0.4466

> <Gold.Chemscore.Rot>
2.1282

> <Gold.Chemscore.Internal.Correction>
   9.000000E+99

> <Gold.Chemscore.Hbonds>
donor molecule, donor type, donor heavy atom, donor atom, acceptor molecule, acceptor atom, score
      P1  H  7997  8010       L1    19  0.22
      P1  H 10752 10765       L1     1  0.82

> <Gold.Chemscore.Hbond.Weighted>
-6.5523

> <Gold.Chemscore.Metal.Weighted>
-0.0000

> <Gold.Chemscore.Lipo.Weighted>
-12.0344

> <Gold.Chemscore.Internal_Hbond.Weighted>
0.0000

> <Gold.Chemscore.DEClash.Weighted>
0.0000

> <Gold.Chemscore.DEInternal.Weighted>
0.4466

> <Gold.Chemscore.Rot.Weighted>
5.4481

> <Gold.Chemscore.Internal.Correction.Weighted>
   9.000000E+99

> <Gold.Protein.RotatedTorsions>
[ 6907 6896 6895 6894 ] final  -40.01 input  -60.11 | X-H torsion
[ 7974 7965 7964 7962 ] final  157.51 input  175.53 | X-H torsion
[ 8008 7997 7996 7995 ] final   58.51 input   59.86 | X-H torsion
[ 10167 10162 10161 10158 ] final    2.68 input  -65.29 | X-H torsion
[ 10718 10713 10712 10709 ] final -179.88 input   66.30 | X-H torsion
[ 10763 10752 10751 10750 ] final -177.87 input  -60.55 | X-H torsion
[ 11005 11000 10999 10996 ] final   62.85 input  -57.11 | X-H torsion

> <Gold.Protein.ActiveResidues>
 VAL166  LYS551  ARG553  GLY616  TRP617  ASP618  TYR619  PRO620  LYS621  CYS622 
 ASP623  PHE694  ASN695  SER759  ASP760  ASP761  ALA762  ILE779  LEU786  VAL792 
 PHE793  MET794  SER795  GLU796  ALA797  LYS798  CYS799  TRP800  GLU811  SER814 

> <Gold.Protein.RotatedAtoms>
  150.9835  134.9185  159.7857 H   0  0  0  0  0  0  0  0  0  0  0  0  # atno 6907 bound_to 6896
  152.5229  134.3379  159.9216 H   0  0  0  0  0  0  0  0  0  0  0  0  # atno 6908 bound_to 6896
  151.3385  133.3930  159.2703 H   0  0  0  0  0  0  0  0  0  0  0  0  # atno 6909 bound_to 6896
  144.7899  139.7351  143.6225 H   0  0  0  0  0  0  0  0  0  0  0  0  # atno 7974 bound_to 7965
  155.5512  140.3486  155.4469 H   0  0  0  0  0  0  0  0  0  0  0  0  # atno 8008 bound_to 7997
  156.0582  140.1334  156.9998 H   0  0  0  0  0  0  0  0  0  0  0  0  # atno 8009 bound_to 7997
  154.4466  140.0991  156.6462 H   0  0  0  0  0  0  0  0  0  0  0  0  # atno 8010 bound_to 7997
  140.6623  143.7271  150.7762 H   0  0  0  0  0  0  0  0  0  0  0  0  # atno 10167 bound_to 10162
  156.8656  130.9766  151.3079 H   0  0  0  0  0  0  0  0  0  0  0  0  # atno 10718 bound_to 10713
  154.5547  135.2815  155.0975 H   0  0  0  0  0  0  0  0  0  0  0  0  # atno 10763 bound_to 10752
  154.2407  135.6357  153.5210 H   0  0  0  0  0  0  0  0  0  0  0  0  # atno 10764 bound_to 10752
  153.0012  135.5559  154.6124 H   0  0  0  0  0  0  0  0  0  0  0  0  # atno 10765 bound_to 10752
  140.0064  134.6363  155.9848 H   0  0  0  0  0  0  0  0  0  0  0  0  # atno 11005 bound_to 11000
  146.2147  139.5528  142.9658 LP  0  0  0  0  0  0  0  0  0  0  0  0  # atno 17320 bound_to 7965
  145.5822  141.0381  143.2116 LP  0  0  0  0  0  0  0  0  0  0  0  0  # atno 17321 bound_to 7965
  140.0942  143.4849  152.2461 LP  0  0  0  0  0  0  0  0  0  0  0  0  # atno 17342 bound_to 10162
  139.5861  144.7531  151.3518 LP  0  0  0  0  0  0  0  0  0  0  0  0  # atno 17343 bound_to 10162
  157.6225  130.8666  149.9133 LP  0  0  0  0  0  0  0  0  0  0  0  0  # atno 17370 bound_to 10713
  156.0753  130.3679  150.0690 LP  0  0  0  0  0  0  0  0  0  0  0  0  # atno 17371 bound_to 10713
  141.1680  133.6537  156.4548 LP  0  0  0  0  0  0  0  0  0  0  0  0  # atno 17394 bound_to 11000
  140.4633  134.6821  157.5095 LP  0  0  0  0  0  0  0  0  0  0  0  0  # atno 17395 bound_to 11000

$$$$
