AV-unprocessed.smi:3095|AV-procd|sdf|11795|dock2
  -GOLD-   2272017173D 1   1.00000     0.00000
 Structure written by MMmdl.
 24 25  0  0  0  0  0  0  0  0  1 V2000
  153.3795  142.0066  160.6732 C   0  0  0  0  0  0  0  0  0  0  0  0
  152.5882  142.6113  159.5563 C   0  0  0  0  0  0  0  0  0  0  0  0
  152.1673  143.9136  159.4532 C   0  0  0  0  0  0  0  0  0  0  0  0
  151.2759  144.1929  157.9828 S   0  0  0  0  0  0  0  0  0  0  0  0
  151.4956  142.4982  157.5608 C   0  0  0  0  0  0  0  0  0  0  0  0
  150.9910  141.9112  156.2810 C   0  0  1  0  0  0  0  0  0  0  0  0
  151.5501  140.4982  156.0258 C   0  0  0  0  0  0  0  0  0  0  0  0
  150.9712  139.9378  154.8060 N   0  0  0  0  0  0  0  0  0  0  0  0
  149.5101  139.9489  154.8619 C   0  0  0  0  0  0  0  0  0  0  0  0
  148.9956  141.3703  155.1532 C   0  0  0  0  0  0  0  0  0  0  0  0
  149.5691  141.8483  156.3658 O   0  0  0  0  0  0  0  0  0  0  0  0
  152.2070  141.8208  158.4683 N   0  0  0  0  0  0  0  0  0  0  0  0
  153.6605  142.7558  161.4140 H   0  0  0  0  0  0  0  0  0  0  0  0
  154.2974  141.5495  160.3031 H   0  0  0  0  0  0  0  0  0  0  0  0
  152.8077  141.2333  161.1867 H   0  0  0  0  0  0  0  0  0  0  0  0
  152.3291  144.7239  160.1485 H   0  0  0  0  0  0  0  0  0  0  0  0
  151.2762  142.5815  155.4680 H   0  0  0  0  0  0  0  0  0  0  0  0
  152.6366  140.5327  155.9431 H   0  0  0  0  0  0  0  0  0  0  0  0
  151.3198  139.8520  156.8741 H   0  0  0  0  0  0  0  0  0  0  0  0
  151.2995  138.9855  154.6803 H   0  0  0  0  0  0  0  0  0  0  0  0
  149.0967  139.5856  153.9209 H   0  0  0  0  0  0  0  0  0  0  0  0
  149.1634  139.2680  155.6402 H   0  0  0  0  0  0  0  0  0  0  0  0
  149.2314  142.0478  154.3308 H   0  0  0  0  0  0  0  0  0  0  0  0
  147.9105  141.3619  155.2564 H   0  0  0  0  0  0  0  0  0  0  0  0
  1  2  1  0  0  0  0
  1 13  1  0  0  0  0
  1 14  1  0  0  0  0
  1 15  1  0  0  0  0
  2 12  1  0  0  0  0
  2  3  2  0  0  0  0
  3  4  1  0  0  0  0
  3 16  1  0  0  0  0
  4  5  1  0  0  0  0
  5  6  1  0  0  0  0
  5 12  2  0  0  0  0
  6 11  1  0  0  0  0
  6  7  1  0  0  0  0
  6 17  1  0  0  0  0
  7  8  1  0  0  0  0
  7 18  1  0  0  0  0
  7 19  1  0  0  0  0
  8  9  1  0  0  0  0
  8 20  1  0  0  0  0
  9 10  1  0  0  0  0
  9 21  1  0  0  0  0
  9 22  1  0  0  0  0
 10 11  1  0  0  0  0
 10 23  1  0  0  0  0
 10 24  1  0  0  0  0
M  END
> <s_m_source_file>
AV-unprocessed.smi

> <i_m_source_file_index>
3095

> <i_lp_mmshare_version>
43012

> <i_f3d_flags>
0

> <s_epik_input>
W0NIM11jMVtjSF1zYyhuMSlbQ0BASF0yW0NIMl1bTkhdW0NIMl1bQ0gyXU8y

> <s_epik_cmdline>
J2VwaWtfcHl0aG9uJywgJy1waCcsICc3LjAnLCAnLXRuJywgJzgnLCAnLW1hJywgJzIwMCcsICctbWV0YWxfYmluZGluZycsICctaW1hZScsICc8aW5maWxlLm1hZT4nLCAnLW9tYWUnLCAnPG91dGZpbGUubWFlPic=

> <r_epik_Ionization_Penalty>
0.982843

> <r_epik_Ionization_Penalty_Charging>
0

> <r_epik_Ionization_Penalty_Neutral>
0.982843

> <r_epik_State_Penalty>
2.16535

> <r_epik_Charging_Adjusted_Penalty>
2.16535

> <i_epik_Tot_Q>
0

> <i_epik_Tot_abs_Q>
0

> <r_epik_Metal_State_Penalty>
2.16288

> <b_epik_Metal_Only>
0

> <s_lp_Force_Field>
OPLS_2005

> <r_lp_Energy>
7.28811

> <b_lp_Chiralities_Consistent>
1

> <s_lp_Variant>
AV-unprocessed.smi:3095-4

> <Gold.Version>
5.8.1

> <Gold.Id.Protein>
6NUR|6NUR_protein|mol2

> <Gold.PLP.Fitness>
31.9866

> <Gold.PLP.PLP>
-29.3273

> <Gold.PLP.part.hbond>
-1.0000

> <Gold.PLP.part.metal>
0.0000

> <Gold.PLP.part.buried>
-4.8029

> <Gold.PLP.part.nonpolar>
-24.4596

> <Gold.PLP.part.repulsive>
0.8608

> <Gold.PLP.ligand.clash>
0.0000

> <Gold.PLP.ligand.torsion>
0.1759

> <Gold.PLP.Chemscore.Hbond>
1.0000

> <Gold.PLP.Chemscore.CHOScore>
0.0000

> <Gold.PLP.Chemscore.Metal>
0.0000

> <Gold.Chemscore.Hbonds>
donor molecule, donor type, donor heavy atom, donor atom, acceptor molecule, acceptor atom, score
      P1  H  7989  7998       L1     8  1.00

> <Gold.PLP.Chemscore.Internal.Correction>
0.0110

> <Gold.Rescore>
     Score         DG    S(hbond)    S(metal)    S(lipo)     H(rot)  DE(clash)    DE(int)     intcor
     13.74     -13.95       0.34        0.00      84.55       1.00       0.18       0.03       ----

> <Gold.Chemscore.Fitness>
13.7357

> <Gold.Chemscore.DG>
-13.9478

> <Gold.Chemscore.ZeroCoef>
-5.4800

> <Gold.Chemscore.Hbond>
0.3401

> <Gold.Chemscore.Metal>
0.0000

> <Gold.Chemscore.Lipo>
84.5459

> <Gold.Chemscore.Internal_Hbond>
0.0000

> <Gold.Chemscore.DEClash>
0.1783

> <Gold.Chemscore.DEInternal>
0.0338

> <Gold.Chemscore.Rot>
1.0000

> <Gold.Chemscore.Internal.Correction>
   9.000000E+99

> <Gold.Chemscore.Hbonds>
donor molecule, donor type, donor heavy atom, donor atom, acceptor molecule, acceptor atom, score
      P1  H  7989  7998       L1     8  0.29

> <Gold.Chemscore.Hbond.Weighted>
-1.1359

> <Gold.Chemscore.Metal.Weighted>
-0.0000

> <Gold.Chemscore.Lipo.Weighted>
-9.8919

> <Gold.Chemscore.Internal_Hbond.Weighted>
0.0000

> <Gold.Chemscore.DEClash.Weighted>
0.1783

> <Gold.Chemscore.DEInternal.Weighted>
0.0338

> <Gold.Chemscore.Rot.Weighted>
2.5600

> <Gold.Chemscore.Internal.Correction.Weighted>
   9.000000E+99

> <Gold.Protein.RotatedTorsions>
[ 6907 6896 6895 6894 ] final  129.06 input  -60.11 | X-H torsion
[ 7974 7965 7964 7962 ] final -168.30 input  175.53 | X-H torsion
[ 8008 7997 7996 7995 ] final  -72.19 input   59.86 | X-H torsion
[ 10167 10162 10161 10158 ] final -106.89 input  -65.29 | X-H torsion
[ 10718 10713 10712 10709 ] final  -73.72 input   66.30 | X-H torsion
[ 10763 10752 10751 10750 ] final   17.53 input  -60.55 | X-H torsion
[ 11005 11000 10999 10996 ] final  -43.15 input  -57.11 | X-H torsion

> <Gold.Protein.ActiveResidues>
 VAL166  LYS551  ARG553  GLY616  TRP617  ASP618  TYR619  PRO620  LYS621  CYS622 
 ASP623  PHE694  ASN695  SER759  ASP760  ASP761  ALA762  ILE779  LEU786  VAL792 
 PHE793  MET794  SER795  GLU796  ALA797  LYS798  CYS799  TRP800  GLU811  SER814 

> <Gold.Protein.RotatedAtoms>
  152.3660  133.6357  159.6050 H   0  0  0  0  0  0  0  0  0  0  0  0  # atno 6907 bound_to 6896
  150.7634  133.9348  159.3447 H   0  0  0  0  0  0  0  0  0  0  0  0  # atno 6908 bound_to 6896
  151.7178  135.0901  160.0330 H   0  0  0  0  0  0  0  0  0  0  0  0  # atno 6909 bound_to 6896
  144.7206  140.2390  143.6294 H   0  0  0  0  0  0  0  0  0  0  0  0  # atno 7974 bound_to 7965
  154.5146  140.0802  156.8057 H   0  0  0  0  0  0  0  0  0  0  0  0  # atno 8008 bound_to 7997
  155.3708  140.3423  155.4225 H   0  0  0  0  0  0  0  0  0  0  0  0  # atno 8009 bound_to 7997
  156.1613  140.1589  156.8594 H   0  0  0  0  0  0  0  0  0  0  0  0  # atno 8010 bound_to 7997
  140.1829  143.3952  152.1267 H   0  0  0  0  0  0  0  0  0  0  0  0  # atno 10167 bound_to 10162
  156.0269  130.4400  150.2785 H   0  0  0  0  0  0  0  0  0  0  0  0  # atno 10718 bound_to 10713
  153.1330  135.6744  153.9147 H   0  0  0  0  0  0  0  0  0  0  0  0  # atno 10763 bound_to 10752
  153.8628  135.3079  155.3440 H   0  0  0  0  0  0  0  0  0  0  0  0  # atno 10764 bound_to 10752
  154.7724  135.4932  153.9757 H   0  0  0  0  0  0  0  0  0  0  0  0  # atno 10765 bound_to 10752
  141.0364  133.6798  156.2693 H   0  0  0  0  0  0  0  0  0  0  0  0  # atno 11005 bound_to 11000
  145.8338  139.2098  143.1867 LP  0  0  0  0  0  0  0  0  0  0  0  0  # atno 17320 bound_to 7965
  146.0407  140.8167  142.9830 LP  0  0  0  0  0  0  0  0  0  0  0  0  # atno 17321 bound_to 7965
  139.5288  144.7135  151.5130 LP  0  0  0  0  0  0  0  0  0  0  0  0  # atno 17342 bound_to 10162
  140.6508  143.8701  150.6783 LP  0  0  0  0  0  0  0  0  0  0  0  0  # atno 17343 bound_to 10162
  157.0888  131.0164  151.3129 LP  0  0  0  0  0  0  0  0  0  0  0  0  # atno 17370 bound_to 10713
  157.4870  130.7799  149.7470 LP  0  0  0  0  0  0  0  0  0  0  0  0  # atno 17371 bound_to 10713
  140.6314  134.5260  157.5560 LP  0  0  0  0  0  0  0  0  0  0  0  0  # atno 17394 bound_to 11000
  139.9244  134.8085  156.1113 LP  0  0  0  0  0  0  0  0  0  0  0  0  # atno 17395 bound_to 11000

$$$$
