AV-unprocessed.smi:1709|AV-procd|sdf|6893|dock3
  -GOLD-   22720 8 93D 1   1.00000     0.00000
 Structure written by MMmdl.
 43 45  0  0  0  0  0  0  0  0  2 V2000
  149.7984  138.7780  154.1090 C   0  0  0  0  0  0  0  0  0  0  0  0
  150.8358  138.2214  155.0718 C   0  0  0  0  0  0  0  0  0  0  0  0
  151.6974  139.1145  155.7435 C   0  0  0  0  0  0  0  0  0  0  0  0
  152.6576  138.6033  156.6327 C   0  0  0  0  0  0  0  0  0  0  0  0
  152.7156  137.2114  156.8134 C   0  0  0  0  0  0  0  0  0  0  0  0
  151.8967  136.3512  156.1744 N   0  0  0  0  0  0  0  0  0  0  0  0
  150.9608  136.8260  155.3119 C   0  0  0  0  0  0  0  0  0  0  0  0
  150.0565  135.9882  154.5875 N   0  0  0  0  0  0  0  0  0  0  0  0
  149.4918  134.7991  154.8882 C   0  0  0  0  0  0  0  0  0  0  0  0
  149.7234  134.2401  155.9590 O   0  0  0  0  0  0  0  0  0  0  0  0
  148.6715  134.2770  153.9622 N   0  0  0  0  0  0  0  0  0  0  0  0
  147.9248  133.0306  154.0927 C   0  0  2  0  0  0  0  0  0  0  0  0
  148.8332  131.8083  154.3134 C   0  0  0  0  0  0  0  0  0  0  0  0
  148.1834  130.6651  153.5087 C   0  0  0  0  0  0  0  0  0  0  0  0
  146.9329  131.2300  152.9664 N   0  3  2  0  0  0  0  0  0  0  0  0
  146.3826  130.6014  151.7458 C   0  0  0  0  0  0  0  0  0  0  0  0
  145.0419  131.2740  151.3880 C   0  0  0  0  0  0  0  0  0  0  0  0
  145.1796  132.8069  151.2846 C   0  0  0  0  0  0  0  0  0  0  0  0
  145.8439  133.3925  152.5458 C   0  0  0  0  0  0  0  0  0  0  0  0
  147.1768  132.6714  152.8071 C   0  0  1  0  0  0  0  0  0  0  0  0
  149.8669  139.8637  154.0348 H   0  0  0  0  0  0  0  0  0  0  0  0
  148.7920  138.5282  154.4462 H   0  0  0  0  0  0  0  0  0  0  0  0
  149.9426  138.3654  153.1099 H   0  0  0  0  0  0  0  0  0  0  0  0
  151.6260  140.1800  155.5807 H   0  0  0  0  0  0  0  0  0  0  0  0
  153.3316  139.2609  157.1616 H   0  0  0  0  0  0  0  0  0  0  0  0
  153.4385  136.7757  157.4874 H   0  0  0  0  0  0  0  0  0  0  0  0
  149.8340  136.3280  153.6632 H   0  0  0  0  0  0  0  0  0  0  0  0
  148.5403  134.8021  153.1086 H   0  0  0  0  0  0  0  0  0  0  0  0
  147.2179  133.0878  154.9233 H   0  0  0  0  0  0  0  0  0  0  0  0
  149.8433  131.9904  153.9429 H   0  0  0  0  0  0  0  0  0  0  0  0
  148.9131  131.5645  155.3733 H   0  0  0  0  0  0  0  0  0  0  0  0
  148.8426  130.3600  152.6946 H   0  0  0  0  0  0  0  0  0  0  0  0
  147.9766  129.7888  154.1238 H   0  0  0  0  0  0  0  0  0  0  0  0
  147.0920  130.7021  150.9229 H   0  0  0  0  0  0  0  0  0  0  0  0
  146.2350  129.5348  151.9174 H   0  0  0  0  0  0  0  0  0  0  0  0
  144.6589  130.8690  150.4507 H   0  0  0  0  0  0  0  0  0  0  0  0
  144.3022  131.0315  152.1521 H   0  0  0  0  0  0  0  0  0  0  0  0
  145.7803  133.0583  150.4094 H   0  0  0  0  0  0  0  0  0  0  0  0
  144.2014  133.2628  151.1289 H   0  0  0  0  0  0  0  0  0  0  0  0
  146.0091  134.4622  152.4157 H   0  0  0  0  0  0  0  0  0  0  0  0
  145.1795  133.2795  153.4037 H   0  0  0  0  0  0  0  0  0  0  0  0
  147.8426  132.8187  151.9531 H   0  0  0  0  0  0  0  0  0  0  0  0
  146.2373  131.1386  153.6929 H   0  0  0  0  0  0  0  0  0  0  0  0
  1  2  1  0  0  0  0
  1 21  1  0  0  0  0
  1 22  1  0  0  0  0
  1 23  1  0  0  0  0
  2  7  1  0  0  0  0
  2  3  2  0  0  0  0
  3  4  1  0  0  0  0
  3 24  1  0  0  0  0
  4  5  2  0  0  0  0
  4 25  1  0  0  0  0
  5  6  1  0  0  0  0
  5 26  1  0  0  0  0
  6  7  2  0  0  0  0
  7  8  1  0  0  0  0
  8  9  1  0  0  0  0
  8 27  1  0  0  0  0
  9 10  2  0  0  0  0
  9 11  1  0  0  0  0
 11 12  1  0  0  0  0
 11 28  1  0  0  0  0
 12 20  1  0  0  0  0
 12 13  1  0  0  0  0
 12 29  1  0  0  0  0
 13 14  1  0  0  0  0
 13 30  1  0  0  0  0
 13 31  1  0  0  0  0
 14 15  1  0  0  0  0
 14 32  1  0  0  0  0
 14 33  1  0  0  0  0
 15 20  1  0  0  0  0
 15 16  1  0  0  0  0
 15 43  1  0  0  0  0
 16 17  1  0  0  0  0
 16 34  1  0  0  0  0
 16 35  1  0  0  0  0
 17 18  1  0  0  0  0
 17 36  1  0  0  0  0
 17 37  1  0  0  0  0
 18 19  1  0  0  0  0
 18 38  1  0  0  0  0
 18 39  1  0  0  0  0
 19 20  1  0  0  0  0
 19 40  1  0  0  0  0
 19 41  1  0  0  0  0
 20 42  1  0  0  0  0
M  CHG  1  15   1
M  END
> <s_m_source_file>
AV-unprocessed.smi

> <i_m_source_file_index>
1709

> <i_lp_mmshare_version>
43012

> <i_f3d_flags>
0

> <s_epik_input>
W0NIM11jMVtjSF1bY0hdW2NIXW5jMVtOSF1DKD1PKVtOSF1bQ0BIXShbQ0gyXVtDSDJdMilbQ0BASF0oTjIzKVtDSDJdW0NIMl1bQ0gyXVtDSDJdMw==

> <s_epik_cmdline>
J2VwaWtfcHl0aG9uJywgJy1waCcsICc3LjAnLCAnLXRuJywgJzgnLCAnLW1hJywgJzIwMCcsICctbWV0YWxfYmluZGluZycsICctaW1hZScsICc8aW5maWxlLm1hZT4nLCAnLW9tYWUnLCAnPG91dGZpbGUubWFlPic=

> <r_epik_Ionization_Penalty>
0.00101524

> <r_epik_Ionization_Penalty_Charging>
0.000974069

> <r_epik_Ionization_Penalty_Neutral>
4.11757e-05

> <r_epik_State_Penalty>
0.000633842

> <r_epik_Charging_Adjusted_Penalty>
0.00160791

> <i_epik_Tot_Q>
1

> <i_epik_Tot_abs_Q>
1

> <r_epik_Metal_State_Penalty>
-0

> <b_epik_Metal_Only>
0

> <s_lp_Force_Field>
OPLS_2005

> <r_lp_Energy>
38.5282

> <b_lp_Chiralities_Consistent>
1

> <s_lp_Variant>
AV-unprocessed.smi:1709-3

> <Gold.Version>
5.8.1

> <Gold.Id.Protein>
6NUR|6NUR_protein|mol2

> <Gold.PLP.Fitness>
39.5166

> <Gold.PLP.PLP>
-30.9312

> <Gold.PLP.part.hbond>
-3.2148

> <Gold.PLP.part.metal>
0.0000

> <Gold.PLP.part.buried>
-2.5152

> <Gold.PLP.part.nonpolar>
-25.8838

> <Gold.PLP.part.repulsive>
0.0903

> <Gold.PLP.ligand.clash>
0.0000

> <Gold.PLP.ligand.torsion>
0.2124

> <Gold.PLP.Chemscore.Hbond>
3.0000

> <Gold.PLP.Chemscore.CHOScore>
0.0000

> <Gold.PLP.Chemscore.Metal>
0.0000

> <Gold.Chemscore.Hbonds>
donor molecule, donor type, donor heavy atom, donor atom, acceptor molecule, acceptor atom, score
      L1  H     8    27       P1  7948  1.00
      L1  H    11    28       P1  7948  1.00
      P1  H 10752 10764       L1     6  1.00

> <Gold.PLP.Chemscore.Internal.Correction>
0.0103

> <Gold.Rescore>
     Score         DG    S(hbond)    S(metal)    S(lipo)     H(rot)  DE(clash)    DE(int)     intcor
     17.53     -18.71       2.04        0.00      76.68       1.00       0.22       0.96       ----

> <Gold.Chemscore.Fitness>
17.5293

> <Gold.Chemscore.DG>
-18.7054

> <Gold.Chemscore.ZeroCoef>
-5.4800

> <Gold.Chemscore.Hbond>
2.0399

> <Gold.Chemscore.Metal>
0.0000

> <Gold.Chemscore.Lipo>
76.6842

> <Gold.Chemscore.Internal_Hbond>
0.0000

> <Gold.Chemscore.DEClash>
0.2168

> <Gold.Chemscore.DEInternal>
0.9594

> <Gold.Chemscore.Rot>
1.0000

> <Gold.Chemscore.Internal.Correction>
   9.000000E+99

> <Gold.Chemscore.Hbonds>
donor molecule, donor type, donor heavy atom, donor atom, acceptor molecule, acceptor atom, score
      L1  H     8    27       P1  7948  0.25
      L1  H    11    28       P1  7948  0.49
      P1  H 10752 10764       L1     6  0.11

> <Gold.Chemscore.Hbond.Weighted>
-6.8134

> <Gold.Chemscore.Metal.Weighted>
-0.0000

> <Gold.Chemscore.Lipo.Weighted>
-8.9721

> <Gold.Chemscore.Internal_Hbond.Weighted>
0.0000

> <Gold.Chemscore.DEClash.Weighted>
0.2168

> <Gold.Chemscore.DEInternal.Weighted>
0.9594

> <Gold.Chemscore.Rot.Weighted>
2.5600

> <Gold.Chemscore.Internal.Correction.Weighted>
   9.000000E+99

> <Gold.Protein.RotatedTorsions>
[ 6907 6896 6895 6894 ] final  147.94 input  -60.11 | X-H torsion
[ 7974 7965 7964 7962 ] final  -32.70 input  175.53 | X-H torsion
[ 8008 7997 7996 7995 ] final -177.50 input   59.86 | X-H torsion
[ 10167 10162 10161 10158 ] final -122.46 input  -65.29 | X-H torsion
[ 10718 10713 10712 10709 ] final -169.93 input   66.30 | X-H torsion
[ 10763 10752 10751 10750 ] final  -28.49 input  -60.55 | X-H torsion
[ 11005 11000 10999 10996 ] final -117.41 input  -57.11 | X-H torsion

> <Gold.Protein.ActiveResidues>
 VAL166  LYS551  ARG553  GLY616  TRP617  ASP618  TYR619  PRO620  LYS621  CYS622 
 ASP623  PHE694  ASN695  SER759  ASP760  ASP761  ALA762  ILE779  LEU786  VAL792 
 PHE793  MET794  SER795  GLU796  ALA797  LYS798  CYS799  TRP800  GLU811  SER814 

> <Gold.Protein.RotatedAtoms>
  152.1481  133.4505  159.4799 H   0  0  0  0  0  0  0  0  0  0  0  0  # atno 6907 bound_to 6896
  150.6892  134.2223  159.4410 H   0  0  0  0  0  0  0  0  0  0  0  0  # atno 6908 bound_to 6896
  152.0118  134.9872  160.0619 H   0  0  0  0  0  0  0  0  0  0  0  0  # atno 6909 bound_to 6896
  146.0969  140.5824  142.8838 H   0  0  0  0  0  0  0  0  0  0  0  0  # atno 7974 bound_to 7965
  156.0076  140.1234  157.0486 H   0  0  0  0  0  0  0  0  0  0  0  0  # atno 8008 bound_to 7997
  154.4264  140.1094  156.5854 H   0  0  0  0  0  0  0  0  0  0  0  0  # atno 8009 bound_to 7997
  155.6125  140.3471  155.4629 H   0  0  0  0  0  0  0  0  0  0  0  0  # atno 8010 bound_to 7997
  140.0140  143.5412  152.2250 H   0  0  0  0  0  0  0  0  0  0  0  0  # atno 10167 bound_to 10162
  156.7187  130.9262  151.3095 H   0  0  0  0  0  0  0  0  0  0  0  0  # atno 10718 bound_to 10713
  153.7493  135.6927  153.4949 H   0  0  0  0  0  0  0  0  0  0  0  0  # atno 10763 bound_to 10752
  153.2014  135.4435  155.0270 H   0  0  0  0  0  0  0  0  0  0  0  0  # atno 10764 bound_to 10752
  154.8193  135.3414  154.7014 H   0  0  0  0  0  0  0  0  0  0  0  0  # atno 10765 bound_to 10752
  141.0356  133.9914  157.3075 H   0  0  0  0  0  0  0  0  0  0  0  0  # atno 11005 bound_to 11000
  144.7402  140.4922  143.6874 LP  0  0  0  0  0  0  0  0  0  0  0  0  # atno 17320 bound_to 7965
  145.5930  139.1497  143.3172 LP  0  0  0  0  0  0  0  0  0  0  0  0  # atno 17321 bound_to 7965
  139.6185  144.7624  151.2792 LP  0  0  0  0  0  0  0  0  0  0  0  0  # atno 17342 bound_to 10162
  140.7370  143.6692  150.8097 LP  0  0  0  0  0  0  0  0  0  0  0  0  # atno 17343 bound_to 10162
  157.6907  130.9230  150.0505 LP  0  0  0  0  0  0  0  0  0  0  0  0  # atno 17370 bound_to 10713
  156.1609  130.3644  149.9300 LP  0  0  0  0  0  0  0  0  0  0  0  0  # atno 17371 bound_to 10713
  139.9239  135.0201  156.8163 LP  0  0  0  0  0  0  0  0  0  0  0  0  # atno 17394 bound_to 11000
  140.6327  133.9891  155.7670 LP  0  0  0  0  0  0  0  0  0  0  0  0  # atno 17395 bound_to 11000

$$$$
