AV-unprocessed.smi:261|AV-procd|sdf|1986|dock4
  -GOLD-   2262021163D 1   1.00000     0.00000
 Structure written by MMmdl.
 51 54  0  0  0  0  0  0  0  0  1 V2000
  143.7798  133.8384  161.7931 C   0  0  0  0  0  0  0  0  0  0  0  0
  144.9921  134.4292  162.2340 O   0  0  0  0  0  0  0  0  0  0  0  0
  146.1251  133.5769  162.1182 C   0  0  2  0  0  0  0  0  0  0  0  0
  147.4346  134.3082  162.4433 C   0  0  0  0  0  0  0  0  0  0  0  0
  147.8290  135.0182  161.1383 C   0  0  2  0  0  0  0  0  0  0  0  0
  147.2654  136.4546  161.0767 C   0  0  0  0  0  0  0  0  0  0  0  0
  146.4101  136.7735  160.0991 N   0  0  0  0  0  0  0  0  0  0  0  0
  147.6163  137.2812  161.9158 O   0  0  0  0  0  0  0  0  0  0  0  0
  147.3042  134.1187  160.1100 N   0  0  0  0  0  0  0  0  0  0  0  0
  147.7204  134.0716  158.8137 C   0  0  0  0  0  0  0  0  0  0  0  0
  148.8931  134.6863  158.5037 N   0  0  0  0  0  0  0  0  0  0  0  0
  149.3648  134.6724  157.2547 C   0  0  0  0  0  0  0  0  0  0  0  0
  148.8342  134.1074  156.1711 N   0  0  0  0  0  0  0  0  0  0  0  0
  147.6571  133.4867  156.4665 C   0  0  0  0  0  0  0  0  0  0  0  0
  147.0302  133.4204  157.7455 C   0  0  0  0  0  0  0  0  0  0  0  0
  145.8452  132.6991  157.6372 N   0  0  0  0  0  0  0  0  0  0  0  0
  145.7833  132.3513  156.3820 C   0  0  0  0  0  0  0  0  0  0  0  0
  146.8364  132.7768  155.6078 N   0  0  0  0  0  0  0  0  0  0  0  0
  147.0367  132.5230  154.1910 C   0  0  0  0  0  0  0  0  0  0  0  0
  145.8938  131.7200  153.5294 C   0  0  2  0  0  0  0  0  0  0  0  0
  146.0249  130.3392  153.8082 O   0  0  0  0  0  0  0  0  0  0  0  0
  145.7205  131.9521  152.0101 C   0  0  2  0  0  0  0  0  0  0  0  0
  145.6544  133.4097  151.5553 C   0  0  0  0  0  0  0  0  0  0  0  0
  144.9814  133.3134  150.1940 C   0  0  0  0  0  0  0  0  0  0  0  0
  144.3425  131.9194  150.1808 C   0  0  0  0  0  0  0  0  0  0  0  0
  144.5157  131.4080  151.4946 O   0  0  0  0  0  0  0  0  0  0  0  0
  146.2950  133.2069  160.6408 C   0  0  0  0  0  0  0  0  0  0  0  0
  145.9881  132.6818  162.7274 H   0  0  0  0  0  0  0  0  0  0  0  0
  148.9165  135.0684  161.0928 H   0  0  0  0  0  0  0  0  0  0  0  0
  142.9676  134.5574  161.8986 H   0  0  0  0  0  0  0  0  0  0  0  0
  143.5197  132.9567  162.3785 H   0  0  0  0  0  0  0  0  0  0  0  0
  143.8397  133.5549  160.7415 H   0  0  0  0  0  0  0  0  0  0  0  0
  147.3633  134.9759  163.3021 H   0  0  0  0  0  0  0  0  0  0  0  0
  148.1995  133.5692  162.6865 H   0  0  0  0  0  0  0  0  0  0  0  0
  146.0365  137.7101  160.0433 H   0  0  0  0  0  0  0  0  0  0  0  0
  146.1449  136.0768  159.4181 H   0  0  0  0  0  0  0  0  0  0  0  0
  150.3025  135.1863  157.1032 H   0  0  0  0  0  0  0  0  0  0  0  0
  144.9677  131.7639  155.9865 H   0  0  0  0  0  0  0  0  0  0  0  0
  147.1671  133.4811  153.6862 H   0  0  0  0  0  0  0  0  0  0  0  0
  147.9781  131.9862  154.0689 H   0  0  0  0  0  0  0  0  0  0  0  0
  144.9668  132.0320  154.0114 H   0  0  0  0  0  0  0  0  0  0  0  0
  145.1610  129.9609  153.8653 H   0  0  0  0  0  0  0  0  0  0  0  0
  146.5482  131.4645  151.4907 H   0  0  0  0  0  0  0  0  0  0  0  0
  145.0285  133.9997  152.2255 H   0  0  0  0  0  0  0  0  0  0  0  0
  146.6365  133.8811  151.5111 H   0  0  0  0  0  0  0  0  0  0  0  0
  144.2387  134.1018  150.0673 H   0  0  0  0  0  0  0  0  0  0  0  0
  145.7088  133.4055  149.3868 H   0  0  0  0  0  0  0  0  0  0  0  0
  143.2865  131.9455  149.9117 H   0  0  0  0  0  0  0  0  0  0  0  0
  144.8571  131.2674  149.4736 H   0  0  0  0  0  0  0  0  0  0  0  0
  146.6644  132.1841  160.5518 H   0  0  0  0  0  0  0  0  0  0  0  0
  145.3533  133.2754  160.0940 H   0  0  0  0  0  0  0  0  0  0  0  0
  1  2  1  0  0  0  0
  1 30  1  0  0  0  0
  1 31  1  0  0  0  0
  1 32  1  0  0  0  0
  2  3  1  0  0  0  0
  3 28  1  0  0  0  0
  3 27  1  0  0  0  0
  3  4  1  0  0  0  0
  4  5  1  0  0  0  0
  4 33  1  0  0  0  0
  4 34  1  0  0  0  0
  5 29  1  0  0  0  0
  5  6  1  0  0  0  0
  5  9  1  0  0  0  0
  6  7  1  0  0  0  0
  6  8  2  0  0  0  0
  7 35  1  0  0  0  0
  7 36  1  0  0  0  0
  9 10  1  0  0  0  0
  9 27  1  0  0  0  0
 10 15  1  0  0  0  0
 10 11  2  0  0  0  0
 11 12  1  0  0  0  0
 12 13  2  0  0  0  0
 12 37  1  0  0  0  0
 13 14  1  0  0  0  0
 14 18  1  0  0  0  0
 14 15  2  0  0  0  0
 15 16  1  0  0  0  0
 16 17  2  0  0  0  0
 17 18  1  0  0  0  0
 17 38  1  0  0  0  0
 18 19  1  0  0  0  0
 19 20  1  0  0  0  0
 19 39  1  0  0  0  0
 19 40  1  0  0  0  0
 20 21  1  0  0  0  0
 20 22  1  0  0  0  0
 20 41  1  0  0  0  0
 21 42  1  0  0  0  0
 22 26  1  0  0  0  0
 22 23  1  0  0  0  0
 22 43  1  0  0  0  0
 23 24  1  0  0  0  0
 23 44  1  0  0  0  0
 23 45  1  0  0  0  0
 24 25  1  0  0  0  0
 24 46  1  0  0  0  0
 24 47  1  0  0  0  0
 25 26  1  0  0  0  0
 25 48  1  0  0  0  0
 25 49  1  0  0  0  0
 27 50  1  0  0  0  0
 27 51  1  0  0  0  0
M  END
> <s_m_source_file>
AV-unprocessed.smi

> <i_m_source_file_index>
261

> <i_lp_mmshare_version>
43012

> <i_f3d_flags>
0

> <s_epik_input>
W0NIM11PW0NASF0xW0NIMl1bQ0BASF0oQyg9TylbTkgyXSlOKFtDSDJdMSljKG5bY0hdbjIpYyhjMjMpbltjSF1uM1tDSDJdW0NASF0oW09IXSlbQ0BASF00W0NIMl1bQ0gyXVtDSDJdTzQ=

> <s_epik_cmdline>
J2VwaWtfcHl0aG9uJywgJy1waCcsICc3LjAnLCAnLXRuJywgJzgnLCAnLW1hJywgJzIwMCcsICctbWV0YWxfYmluZGluZycsICctaW1hZScsICc8aW5maWxlLm1hZT4nLCAnLW9tYWUnLCAnPG91dGZpbGUubWFlPic=

> <r_lp_tautomer_probability>
1

> <r_epik_Ionization_Penalty>
0.000713824

> <r_epik_Ionization_Penalty_Charging>
0

> <r_epik_Ionization_Penalty_Neutral>
0.000713824

> <r_epik_State_Penalty>
0.000402132

> <r_epik_Charging_Adjusted_Penalty>
0.000402132

> <i_epik_Tot_Q>
0

> <i_epik_Tot_abs_Q>
0

> <r_epik_Metal_State_Penalty>
-0

> <b_epik_Metal_Only>
0

> <s_lp_Force_Field>
OPLS_2005

> <r_lp_Energy>
46.7805

> <b_lp_Chiralities_Consistent>
1

> <s_lp_Variant>
AV-unprocessed.smi:261-4

> <Gold.Version>
5.8.1

> <Gold.Id.Protein>
6NUR|6NUR_protein|mol2

> <Gold.PLP.Fitness>
43.1499

> <Gold.PLP.PLP>
-32.0034

> <Gold.PLP.part.hbond>
-4.0000

> <Gold.PLP.part.metal>
0.0000

> <Gold.PLP.part.buried>
-4.6061

> <Gold.PLP.part.nonpolar>
-23.6601

> <Gold.PLP.part.repulsive>
0.3533

> <Gold.PLP.ligand.clash>
0.0000

> <Gold.PLP.ligand.torsion>
0.4485

> <Gold.PLP.Chemscore.Hbond>
2.9859

> <Gold.PLP.Chemscore.CHOScore>
1.0000

> <Gold.PLP.Chemscore.Metal>
0.0000

> <Gold.Chemscore.Hbonds>
donor molecule, donor type, donor heavy atom, donor atom, acceptor molecule, acceptor atom, score
      L1  H    21    42       P1 10956  0.76
      P1  H  6896  6908       L1    11  0.80
      P1  H  6931  6943       L1     8  0.94
      P1  H  6934  6947       L1     8  0.65
      L1  C    17    38       P1 10957  0.96

> <Gold.PLP.Chemscore.Internal.Correction>
0.0858

> <Gold.Rescore>
     Score         DG    S(hbond)    S(metal)    S(lipo)     H(rot)  DE(clash)    DE(int)     intcor
     12.12     -13.48       2.24        0.00      74.16       3.18       0.27       1.09       ----

> <Gold.Chemscore.Fitness>
12.1188

> <Gold.Chemscore.DG>
-13.4796

> <Gold.Chemscore.ZeroCoef>
-5.4800

> <Gold.Chemscore.Hbond>
2.2370

> <Gold.Chemscore.Metal>
0.0000

> <Gold.Chemscore.Lipo>
74.1606

> <Gold.Chemscore.Internal_Hbond>
0.0000

> <Gold.Chemscore.DEClash>
0.2717

> <Gold.Chemscore.DEInternal>
1.0891

> <Gold.Chemscore.Rot>
3.1831

> <Gold.Chemscore.Internal.Correction>
   9.000000E+99

> <Gold.Chemscore.Hbonds>
donor molecule, donor type, donor heavy atom, donor atom, acceptor molecule, acceptor atom, score
      L1  H    21    42       P1 10956  0.23
      P1  H  6896  6908       L1    11  0.11
      P1  H  6931  6943       L1     8  0.91
      P1  H  6934  6947       L1     8  0.21

> <Gold.Chemscore.Hbond.Weighted>
-7.4715

> <Gold.Chemscore.Metal.Weighted>
-0.0000

> <Gold.Chemscore.Lipo.Weighted>
-8.6768

> <Gold.Chemscore.Internal_Hbond.Weighted>
0.0000

> <Gold.Chemscore.DEClash.Weighted>
0.2717

> <Gold.Chemscore.DEInternal.Weighted>
1.0891

> <Gold.Chemscore.Rot.Weighted>
8.1486

> <Gold.Chemscore.Internal.Correction.Weighted>
   9.000000E+99

> <Gold.Protein.RotatedTorsions>
[ 6907 6896 6895 6894 ] final  143.48 input  -60.11 | X-H torsion
[ 7974 7965 7964 7962 ] final  157.90 input  175.53 | X-H torsion
[ 8008 7997 7996 7995 ] final   42.25 input   59.86 | X-H torsion
[ 10167 10162 10161 10158 ] final  -19.70 input  -65.29 | X-H torsion
[ 10718 10713 10712 10709 ] final  132.80 input   66.30 | X-H torsion
[ 10763 10752 10751 10750 ] final  131.51 input  -60.55 | X-H torsion
[ 11005 11000 10999 10996 ] final    6.74 input  -57.11 | X-H torsion

> <Gold.Protein.ActiveResidues>
 VAL166  LYS551  ARG553  GLY616  TRP617  ASP618  TYR619  PRO620  LYS621  CYS622 
 ASP623  PHE694  ASN695  SER759  ASP760  ASP761  ALA762  ILE779  LEU786  VAL792 
 PHE793  MET794  SER795  GLU796  ALA797  LYS798  CYS799  TRP800  GLU811  SER814 

> <Gold.Protein.RotatedAtoms>
  152.2057  133.4874  159.5082 H   0  0  0  0  0  0  0  0  0  0  0  0  # atno 6907 bound_to 6896
  150.6979  134.1532  159.4157 H   0  0  0  0  0  0  0  0  0  0  0  0  # atno 6908 bound_to 6896
  151.9450  135.0195  160.0589 H   0  0  0  0  0  0  0  0  0  0  0  0  # atno 6909 bound_to 6896
  144.7876  139.7404  143.6234 H   0  0  0  0  0  0  0  0  0  0  0  0  # atno 7974 bound_to 7965
  155.2830  140.3374  155.4257 H   0  0  0  0  0  0  0  0  0  0  0  0  # atno 8008 bound_to 7997
  156.2081  140.1759  156.7796 H   0  0  0  0  0  0  0  0  0  0  0  0  # atno 8009 bound_to 7997
  154.5648  140.0680  156.8859 H   0  0  0  0  0  0  0  0  0  0  0  0  # atno 8010 bound_to 7997
  140.7270  143.4793  151.0139 H   0  0  0  0  0  0  0  0  0  0  0  0  # atno 10167 bound_to 10162
  157.4836  131.1087  150.9650 H   0  0  0  0  0  0  0  0  0  0  0  0  # atno 10718 bound_to 10713
  153.7756  135.3176  155.3358 H   0  0  0  0  0  0  0  0  0  0  0  0  # atno 10763 bound_to 10752
  154.8180  135.4623  154.0701 H   0  0  0  0  0  0  0  0  0  0  0  0  # atno 10764 bound_to 10752
  153.1974  135.6917  153.8359 H   0  0  0  0  0  0  0  0  0  0  0  0  # atno 10765 bound_to 10752
  140.5561  134.0237  155.7954 H   0  0  0  0  0  0  0  0  0  0  0  0  # atno 11005 bound_to 11000
  146.2115  139.5474  142.9678 LP  0  0  0  0  0  0  0  0  0  0  0  0  # atno 17320 bound_to 7965
  145.5879  141.0373  143.2086 LP  0  0  0  0  0  0  0  0  0  0  0  0  # atno 17321 bound_to 7965
  139.8490  143.7463  152.3178 LP  0  0  0  0  0  0  0  0  0  0  0  0  # atno 17342 bound_to 10162
  139.7638  144.7498  151.0324 LP  0  0  0  0  0  0  0  0  0  0  0  0  # atno 17343 bound_to 10162
  157.0375  130.5736  149.5351 LP  0  0  0  0  0  0  0  0  0  0  0  0  # atno 17370 bound_to 10713
  156.0134  130.5227  150.8061 LP  0  0  0  0  0  0  0  0  0  0  0  0  # atno 17371 bound_to 10713
  141.1143  133.9566  157.2853 LP  0  0  0  0  0  0  0  0  0  0  0  0  # atno 17394 bound_to 11000
  139.9431  135.0188  156.8769 LP  0  0  0  0  0  0  0  0  0  0  0  0  # atno 17395 bound_to 11000

$$$$
