AV-unprocessed.smi:1248|AV-procd|sdf|5251|dock5
  -GOLD-   22720 4363D 1   1.00000     0.00000
 Structure written by MMmdl.
 44 46  0  0  0  0  0  0  0  0  2 V2000
  150.9118  141.3396  157.6343 C   0  0  0  0  0  0  0  0  0  0  0  0
  151.3134  141.0032  156.1934 C   0  0  0  0  0  0  0  0  0  0  0  0
  150.1710  140.5945  155.3996 N   0  0  0  0  0  0  0  0  0  0  0  0
  149.9846  139.4080  154.7182 C   0  0  0  0  0  0  0  0  0  0  0  0
  148.7590  139.5051  154.1310 C   0  0  0  0  0  0  0  0  0  0  0  0
  148.1666  138.5019  153.3240 N   0  0  0  0  0  0  0  0  0  0  0  0
  146.8562  138.2949  153.1177 C   0  0  0  0  0  0  0  0  0  0  0  0
  145.9463  138.9483  153.6281 O   0  0  0  0  0  0  0  0  0  0  0  0
  146.6501  137.2750  152.2718 N   0  0  0  0  0  0  0  0  0  0  0  0
  145.3411  136.7962  151.8365 C   0  0  2  0  0  0  0  0  0  0  0  0
  144.7178  135.9139  152.9317 C   0  0  0  0  0  0  0  0  0  0  0  0
  143.3771  135.3105  152.4697 C   0  0  0  0  0  0  0  0  0  0  0  0
  143.5107  134.5603  151.1945 N   0  3  2  0  0  0  0  0  0  0  0  0
  144.1805  133.2479  151.3531 C   0  0  0  0  0  0  0  0  0  0  0  0
  144.7664  132.7062  150.0701 C   0  0  0  0  0  0  0  0  0  0  0  0
  143.4858  132.1220  150.6234 C   0  0  0  0  0  0  0  0  0  0  0  0
  144.0988  135.3948  150.1158 C   0  0  0  0  0  0  0  0  0  0  0  0
  145.4560  135.9971  150.5240 C   0  0  0  0  0  0  0  0  0  0  0  0
  148.2510  140.7825  154.5014 C   0  0  0  0  0  0  0  0  0  0  0  0
  149.1129  141.4320  155.2694 N   0  0  0  0  0  0  0  0  0  0  0  0
  151.7803  141.6457  158.2174 H   0  0  0  0  0  0  0  0  0  0  0  0
  150.4659  140.4767  158.1294 H   0  0  0  0  0  0  0  0  0  0  0  0
  150.1879  142.1548  157.6626 H   0  0  0  0  0  0  0  0  0  0  0  0
  151.7820  141.8664  155.7186 H   0  0  0  0  0  0  0  0  0  0  0  0
  152.0497  140.1986  156.1852 H   0  0  0  0  0  0  0  0  0  0  0  0
  150.7230  138.6199  154.7116 H   0  0  0  0  0  0  0  0  0  0  0  0
  148.8079  137.8867  152.8452 H   0  0  0  0  0  0  0  0  0  0  0  0
  147.4580  136.7943  151.9035 H   0  0  0  0  0  0  0  0  0  0  0  0
  144.6852  137.6540  151.6745 H   0  0  0  0  0  0  0  0  0  0  0  0
  145.4074  135.1141  153.2049 H   0  0  0  0  0  0  0  0  0  0  0  0
  144.5602  136.5010  153.8372 H   0  0  0  0  0  0  0  0  0  0  0  0
  142.9657  134.6600  153.2423 H   0  0  0  0  0  0  0  0  0  0  0  0
  142.6500  136.1103  152.3232 H   0  0  0  0  0  0  0  0  0  0  0  0
  144.6796  133.0615  152.3022 H   0  0  0  0  0  0  0  0  0  0  0  0
  144.6929  133.3152  149.1710 H   0  0  0  0  0  0  0  0  0  0  0  0
  145.6656  132.0983  150.1474 H   0  0  0  0  0  0  0  0  0  0  0  0
  143.5413  131.1284  151.0635 H   0  0  0  0  0  0  0  0  0  0  0  0
  142.5629  132.3433  150.0903 H   0  0  0  0  0  0  0  0  0  0  0  0
  144.2027  134.8066  149.2034 H   0  0  0  0  0  0  0  0  0  0  0  0
  143.3996  136.1991  149.8836 H   0  0  0  0  0  0  0  0  0  0  0  0
  145.8200  136.6408  149.7223 H   0  0  0  0  0  0  0  0  0  0  0  0
  146.1953  135.2029  150.6341 H   0  0  0  0  0  0  0  0  0  0  0  0
  147.3142  141.2571  154.2509 H   0  0  0  0  0  0  0  0  0  0  0  0
  142.5698  134.3433  150.8982 H   0  0  0  0  0  0  0  0  0  0  0  0
  1  2  1  0  0  0  0
  1 21  1  0  0  0  0
  1 22  1  0  0  0  0
  1 23  1  0  0  0  0
  2  3  1  0  0  0  0
  2 24  1  0  0  0  0
  2 25  1  0  0  0  0
  3 20  1  0  0  0  0
  3  4  1  0  0  0  0
  4  5  2  0  0  0  0
  4 26  1  0  0  0  0
  5  6  1  0  0  0  0
  5 19  1  0  0  0  0
  6  7  1  0  0  0  0
  6 27  1  0  0  0  0
  7  8  2  0  0  0  0
  7  9  1  0  0  0  0
  9 10  1  0  0  0  0
  9 28  1  0  0  0  0
 10 18  1  0  0  0  0
 10 11  1  0  0  0  0
 10 29  1  0  0  0  0
 11 12  1  0  0  0  0
 11 30  1  0  0  0  0
 11 31  1  0  0  0  0
 12 13  1  0  0  0  0
 12 32  1  0  0  0  0
 12 33  1  0  0  0  0
 13 14  1  0  0  0  0
 13 17  1  0  0  0  0
 13 44  1  0  0  0  0
 14 16  1  0  0  0  0
 14 15  1  0  0  0  0
 14 34  1  0  0  0  0
 15 16  1  0  0  0  0
 15 35  1  0  0  0  0
 15 36  1  0  0  0  0
 16 37  1  0  0  0  0
 16 38  1  0  0  0  0
 17 18  1  0  0  0  0
 17 39  1  0  0  0  0
 17 40  1  0  0  0  0
 18 41  1  0  0  0  0
 18 42  1  0  0  0  0
 19 20  2  0  0  0  0
 19 43  1  0  0  0  0
M  CHG  1  13   1
M  END
> <s_m_source_file>
AV-unprocessed.smi

> <i_m_source_file_index>
1248

> <i_lp_mmshare_version>
43012

> <i_f3d_flags>
0

> <s_epik_input>
W0NIM11bQ0gyXW4xW2NIXWMoW2NIXW4xKVtOSF1DKD1PKVtOSF1bQ0hdMltDSDJdW0NIMl1OKFtDSDJdW0NIMl0yKVtDSF0zW0NIMl1bQ0gyXTM=

> <s_epik_cmdline>
J2VwaWtfcHl0aG9uJywgJy1waCcsICc3LjAnLCAnLXRuJywgJzgnLCAnLW1hJywgJzIwMCcsICctbWV0YWxfYmluZGluZycsICctaW1hZScsICc8aW5maWxlLm1hZT4nLCAnLW9tYWUnLCAnPG91dGZpbGUubWFlPic=

> <r_lp_tautomer_probability>
1

> <r_epik_Ionization_Penalty>
0.115699

> <r_epik_Ionization_Penalty_Charging>
0.115549

> <r_epik_Ionization_Penalty_Neutral>
0.00014958

> <r_epik_State_Penalty>
0.105184

> <r_epik_Charging_Adjusted_Penalty>
0.220733

> <i_epik_Tot_Q>
1

> <i_epik_Tot_abs_Q>
1

> <r_epik_Metal_State_Penalty>
0.105189

> <b_epik_Metal_Only>
0

> <s_lp_Force_Field>
OPLS_2005

> <r_lp_Energy>
31.7182

> <b_lp_Chiralities_Consistent>
1

> <s_lp_Variant>
AV-unprocessed.smi:1248-2

> <Gold.Version>
5.8.1

> <Gold.Id.Protein>
6NUR|6NUR_protein|mol2

> <Gold.PLP.Fitness>
44.4963

> <Gold.PLP.PLP>
-34.1593

> <Gold.PLP.part.hbond>
-3.9382

> <Gold.PLP.part.metal>
0.0000

> <Gold.PLP.part.buried>
-0.5606

> <Gold.PLP.part.nonpolar>
-31.6480

> <Gold.PLP.part.repulsive>
1.7601

> <Gold.PLP.ligand.clash>
0.0000

> <Gold.PLP.ligand.torsion>
1.2861

> <Gold.PLP.Chemscore.Hbond>
3.8785

> <Gold.PLP.Chemscore.CHOScore>
0.0000

> <Gold.PLP.Chemscore.Metal>
0.0000

> <Gold.Chemscore.Hbonds>
donor molecule, donor type, donor heavy atom, donor atom, acceptor molecule, acceptor atom, score
      L1  H     6    27       P1  7948  0.91
      L1  H     9    28       P1  7948  1.00
      L1  H    13    44       P1 10186  1.79

> <Gold.PLP.Chemscore.Internal.Correction>
1.2738

> <Gold.Rescore>
     Score         DG    S(hbond)    S(metal)    S(lipo)     H(rot)  DE(clash)    DE(int)     intcor
     17.17     -19.27       2.15        0.00      85.73       1.34       0.89       1.21       ----

> <Gold.Chemscore.Fitness>
17.1718

> <Gold.Chemscore.DG>
-19.2668

> <Gold.Chemscore.ZeroCoef>
-5.4800

> <Gold.Chemscore.Hbond>
2.1545

> <Gold.Chemscore.Metal>
0.0000

> <Gold.Chemscore.Lipo>
85.7326

> <Gold.Chemscore.Internal_Hbond>
0.0000

> <Gold.Chemscore.DEClash>
0.8891

> <Gold.Chemscore.DEInternal>
1.2058

> <Gold.Chemscore.Rot>
1.3438

> <Gold.Chemscore.Internal.Correction>
   9.000000E+99

> <Gold.Chemscore.Hbonds>
donor molecule, donor type, donor heavy atom, donor atom, acceptor molecule, acceptor atom, score
      L1  H     6    27       P1  7948  0.89
      L1  H     9    28       P1  7948  0.97
      L1  H    13    44       P1 10186  0.19

> <Gold.Chemscore.Hbond.Weighted>
-7.1962

> <Gold.Chemscore.Metal.Weighted>
-0.0000

> <Gold.Chemscore.Lipo.Weighted>
-10.0307

> <Gold.Chemscore.Internal_Hbond.Weighted>
0.0000

> <Gold.Chemscore.DEClash.Weighted>
0.8891

> <Gold.Chemscore.DEInternal.Weighted>
1.2058

> <Gold.Chemscore.Rot.Weighted>
3.4401

> <Gold.Chemscore.Internal.Correction.Weighted>
   9.000000E+99

> <Gold.Protein.RotatedTorsions>
[ 6907 6896 6895 6894 ] final  141.41 input  -60.11 | X-H torsion
[ 7974 7965 7964 7962 ] final  111.63 input  175.53 | X-H torsion
[ 8008 7997 7996 7995 ] final    7.33 input   59.86 | X-H torsion
[ 10167 10162 10161 10158 ] final  -17.61 input  -65.29 | X-H torsion
[ 10718 10713 10712 10709 ] final   -3.55 input   66.30 | X-H torsion
[ 10763 10752 10751 10750 ] final   42.26 input  -60.55 | X-H torsion
[ 11005 11000 10999 10996 ] final   11.06 input  -57.11 | X-H torsion

> <Gold.Protein.ActiveResidues>
 VAL166  LYS551  ARG553  GLY616  TRP617  ASP618  TYR619  PRO620  LYS621  CYS622 
 ASP623  PHE694  ASN695  SER759  ASP760  ASP761  ALA762  ILE779  LEU786  VAL792 
 PHE793  MET794  SER795  GLU796  ALA797  LYS798  CYS799  TRP800  GLU811  SER814 

> <Gold.Protein.RotatedAtoms>
  152.2313  133.5060  159.5216 H   0  0  0  0  0  0  0  0  0  0  0  0  # atno 6907 bound_to 6896
  150.7038  134.1213  159.4045 H   0  0  0  0  0  0  0  0  0  0  0  0  # atno 6908 bound_to 6896
  151.9134  135.0329  160.0567 H   0  0  0  0  0  0  0  0  0  0  0  0  # atno 6909 bound_to 6896
  145.2398  139.2783  143.4124 H   0  0  0  0  0  0  0  0  0  0  0  0  # atno 7974 bound_to 7965
  154.7525  140.2769  155.6281 H   0  0  0  0  0  0  0  0  0  0  0  0  # atno 8008 bound_to 7997
  156.2898  140.2675  156.2209 H   0  0  0  0  0  0  0  0  0  0  0  0  # atno 8009 bound_to 7997
  155.0119  140.0372  157.2392 H   0  0  0  0  0  0  0  0  0  0  0  0  # atno 8010 bound_to 7997
  140.7249  143.4999  150.9883 H   0  0  0  0  0  0  0  0  0  0  0  0  # atno 10167 bound_to 10162
  156.7744  130.5310  149.5762 H   0  0  0  0  0  0  0  0  0  0  0  0  # atno 10718 bound_to 10713
  152.9887  135.6137  154.2921 H   0  0  0  0  0  0  0  0  0  0  0  0  # atno 10763 bound_to 10752
  154.2646  135.2781  155.2765 H   0  0  0  0  0  0  0  0  0  0  0  0  # atno 10764 bound_to 10752
  154.5176  135.5824  153.6712 H   0  0  0  0  0  0  0  0  0  0  0  0  # atno 10765 bound_to 10752
  140.5075  134.0685  155.7809 H   0  0  0  0  0  0  0  0  0  0  0  0  # atno 11005 bound_to 11000
  146.3331  140.2758  142.8608 LP  0  0  0  0  0  0  0  0  0  0  0  0  # atno 17320 bound_to 7965
  144.9599  140.8265  143.5520 LP  0  0  0  0  0  0  0  0  0  0  0  0  # atno 17321 bound_to 7965
  139.8707  143.7196  152.3166 LP  0  0  0  0  0  0  0  0  0  0  0  0  # atno 17342 bound_to 10162
  139.7443  144.7551  151.0603 LP  0  0  0  0  0  0  0  0  0  0  0  0  # atno 17343 bound_to 10162
  156.1257  130.6142  151.0260 LP  0  0  0  0  0  0  0  0  0  0  0  0  # atno 17370 bound_to 10713
  157.6676  131.0868  150.7691 LP  0  0  0  0  0  0  0  0  0  0  0  0  # atno 17371 bound_to 10713
  141.1403  133.9150  157.2341 LP  0  0  0  0  0  0  0  0  0  0  0  0  # atno 17394 bound_to 11000
  139.9678  135.0137  156.9432 LP  0  0  0  0  0  0  0  0  0  0  0  0  # atno 17395 bound_to 11000

$$$$
