AV-unprocessed.smi:35|AV-procd|sdf|249|dock5
  -GOLD-   2262016 13D 1   1.00000     0.00000
 Structure written by MMmdl.
 29 30  0  0  0  0  0  0  0  0  1 V2000
  152.8222  140.0864  157.6966 O   0  0  0  0  0  0  0  0  0  0  0  0
  151.9502  140.2093  156.8392 C   0  0  0  0  0  0  0  0  0  0  0  0
  151.7005  139.1750  155.9324 N   0  0  0  0  0  0  0  0  0  0  0  0
  150.7401  139.1974  154.9184 C   0  0  0  0  0  0  0  0  0  0  0  0
  150.5997  138.2181  154.1874 O   0  0  0  0  0  0  0  0  0  0  0  0
  149.9613  140.3706  154.7954 N   0  0  0  0  0  0  0  0  0  0  0  0
  148.9040  140.4659  153.7199 C   0  0  2  0  0  0  0  0  0  0  0  0
  148.2070  141.6626  153.8983 O   0  0  0  0  0  0  0  0  0  0  0  0
  146.8066  141.4234  153.8279 C   0  0  2  0  0  0  0  0  0  0  0  0
  146.0724  142.5071  154.6328 C   0  0  0  0  0  0  0  0  0  0  0  0
  144.6821  142.2633  154.6426 O   0  0  0  0  0  0  0  0  0  0  0  0
  146.6609  140.0010  154.3752 C   0  0  1  0  0  0  0  0  0  0  0  0
  145.4532  139.3759  153.9822 O   0  0  0  0  0  0  0  0  0  0  0  0
  147.9059  139.3007  153.8359 C   0  0  1  0  0  0  0  0  0  0  0  0
  147.6867  138.6929  152.5752 O   0  0  0  0  0  0  0  0  0  0  0  0
  150.1682  141.4207  155.6792 C   0  0  0  0  0  0  0  0  0  0  0  0
  151.1007  141.3812  156.6592 C   0  0  0  0  0  0  0  0  0  0  0  0
  151.2367  142.9834  157.8162 Br  0  0  0  0  0  0  0  0  0  0  0  0
  152.2600  138.3390  156.0200 H   0  0  0  0  0  0  0  0  0  0  0  0
  149.4150  140.5122  152.7568 H   0  0  0  0  0  0  0  0  0  0  0  0
  146.5167  141.4584  152.7759 H   0  0  0  0  0  0  0  0  0  0  0  0
  146.4450  142.5557  155.6565 H   0  0  0  0  0  0  0  0  0  0  0  0
  146.2430  143.4850  154.1820 H   0  0  0  0  0  0  0  0  0  0  0  0
  144.5089  141.4896  154.1278 H   0  0  0  0  0  0  0  0  0  0  0  0
  146.7059  140.0208  155.4647 H   0  0  0  0  0  0  0  0  0  0  0  0
  144.8930  140.0286  153.5898 H   0  0  0  0  0  0  0  0  0  0  0  0
  148.2711  138.5380  154.5252 H   0  0  0  0  0  0  0  0  0  0  0  0
  148.3570  138.0416  152.4363 H   0  0  0  0  0  0  0  0  0  0  0  0
  149.5639  142.3113  155.5903 H   0  0  0  0  0  0  0  0  0  0  0  0
  1  2  2  0  0  0  0
  2 17  1  0  0  0  0
  2  3  1  0  0  0  0
  3 19  1  0  0  0  0
  3  4  1  0  0  0  0
  4  5  2  0  0  0  0
  4  6  1  0  0  0  0
  6  7  1  0  0  0  0
  6 16  1  0  0  0  0
  7 14  1  0  0  0  0
  7  8  1  0  0  0  0
  7 20  1  0  0  0  0
  8  9  1  0  0  0  0
  9 10  1  0  0  0  0
  9 12  1  0  0  0  0
  9 21  1  0  0  0  0
 10 11  1  0  0  0  0
 10 22  1  0  0  0  0
 10 23  1  0  0  0  0
 11 24  1  0  0  0  0
 12 13  1  0  0  0  0
 12 14  1  0  0  0  0
 12 25  1  0  0  0  0
 13 26  1  0  0  0  0
 14 15  1  0  0  0  0
 14 27  1  0  0  0  0
 15 28  1  0  0  0  0
 16 17  2  0  0  0  0
 16 29  1  0  0  0  0
 17 18  1  0  0  0  0
M  END
> <s_m_source_file>
AV-unprocessed.smi

> <i_m_source_file_index>
35

> <i_lp_mmshare_version>
43012

> <i_f3d_flags>
0

> <s_epik_input>
Tz1jMVtuSF1jKD1PKW4oW2NIXWMxQnIpW0NAQEhdMk9bQ0BASF0oW0NIMl1bT0hdKVtDQEBIXShbT0hdKVtDQEhdMltPSF0=

> <s_epik_cmdline>
J2VwaWtfcHl0aG9uJywgJy1waCcsICc3LjAnLCAnLXRuJywgJzgnLCAnLW1hJywgJzIwMCcsICctbWV0YWxfYmluZGluZycsICctaW1hZScsICc8aW5maWxlLm1hZT4nLCAnLW9tYWUnLCAnPG91dGZpbGUubWFlPic=

> <r_lp_tautomer_probability>
0.999537

> <r_epik_Ionization_Penalty>
0.10812

> <r_epik_Ionization_Penalty_Charging>
0.108119

> <r_epik_Ionization_Penalty_Neutral>
4.93006e-07

> <r_epik_State_Penalty>
0.0979238

> <r_epik_Charging_Adjusted_Penalty>
0.206043

> <i_epik_Tot_Q>
0

> <i_epik_Tot_abs_Q>
0

> <r_epik_Metal_State_Penalty>
3.07911

> <b_epik_Metal_Only>
0

> <s_epik_Chemistry_Notes>
This compound contains an acetal/aminal-like group ( X-CH(R)-Y where X, Y are N, S, or O) that may be acid/base labile, releasing an aldehyde.

> <s_lp_Force_Field>
OPLS_2005

> <r_lp_Energy>
30.5202

> <b_lp_Chiralities_Consistent>
1

> <s_lp_Variant>
AV-unprocessed.smi:35-3

> <Gold.Version>
5.8.1

> <Gold.Id.Protein>
6NUR|6NUR_protein|mol2

> <Gold.PLP.Fitness>
45.8073

> <Gold.PLP.PLP>
-30.7639

> <Gold.PLP.part.hbond>
-6.6029

> <Gold.PLP.part.metal>
0.0000

> <Gold.PLP.part.buried>
0.5974

> <Gold.PLP.part.nonpolar>
-25.3386

> <Gold.PLP.part.repulsive>
0.5167

> <Gold.PLP.ligand.clash>
0.0000

> <Gold.PLP.ligand.torsion>
0.0413

> <Gold.PLP.Chemscore.Hbond>
4.0393

> <Gold.PLP.Chemscore.CHOScore>
1.0000

> <Gold.PLP.Chemscore.Metal>
0.0000

> <Gold.Chemscore.Hbonds>
donor molecule, donor type, donor heavy atom, donor atom, acceptor molecule, acceptor atom, score
      L1  H    11    24       P1 10175  0.89
      L1  H    13    26       P1 10175  1.00
      L1  H    15    28       P1  7948  1.00
      P1  H  7997  8010       L1     1  1.00
      P1  H  8011  8017       L1     8  0.01
      L1  C    16    29       P1  8028  1.00

> <Gold.PLP.Chemscore.Internal.Correction>
0.0080

> <Gold.Rescore>
     Score         DG    S(hbond)    S(metal)    S(lipo)     H(rot)  DE(clash)    DE(int)     intcor
     10.15     -12.68       3.48        0.00      42.37       3.67       1.32       1.20       ----

> <Gold.Chemscore.Fitness>
10.1528

> <Gold.Chemscore.DG>
-12.6766

> <Gold.Chemscore.ZeroCoef>
-5.4800

> <Gold.Chemscore.Hbond>
3.4835

> <Gold.Chemscore.Metal>
0.0000

> <Gold.Chemscore.Lipo>
42.3689

> <Gold.Chemscore.Internal_Hbond>
0.0000

> <Gold.Chemscore.DEClash>
1.3192

> <Gold.Chemscore.DEInternal>
1.2046

> <Gold.Chemscore.Rot>
3.6701

> <Gold.Chemscore.Internal.Correction>
   9.000000E+99

> <Gold.Chemscore.Hbonds>
donor molecule, donor type, donor heavy atom, donor atom, acceptor molecule, acceptor atom, score
      L1  H    11    24       P1 10175  0.25
      L1  H    13    26       P1 10175  0.95
      L1  H    15    28       P1  7948  0.95
      P1  H  7997  8010       L1     1  0.68

> <Gold.Chemscore.Hbond.Weighted>
-11.6349

> <Gold.Chemscore.Metal.Weighted>
-0.0000

> <Gold.Chemscore.Lipo.Weighted>
-4.9572

> <Gold.Chemscore.Internal_Hbond.Weighted>
0.0000

> <Gold.Chemscore.DEClash.Weighted>
1.3192

> <Gold.Chemscore.DEInternal.Weighted>
1.2046

> <Gold.Chemscore.Rot.Weighted>
9.3955

> <Gold.Chemscore.Internal.Correction.Weighted>
   9.000000E+99

> <Gold.Protein.RotatedTorsions>
[ 6907 6896 6895 6894 ] final  -17.83 input  -60.11 | X-H torsion
[ 7974 7965 7964 7962 ] final -157.68 input  175.53 | X-H torsion
[ 8008 7997 7996 7995 ] final   45.50 input   59.86 | X-H torsion
[ 10167 10162 10161 10158 ] final  146.42 input  -65.29 | X-H torsion
[ 10718 10713 10712 10709 ] final   28.39 input   66.30 | X-H torsion
[ 10763 10752 10751 10750 ] final  111.22 input  -60.55 | X-H torsion
[ 11005 11000 10999 10996 ] final   24.23 input  -57.11 | X-H torsion

> <Gold.Protein.ActiveResidues>
 VAL166  LYS551  ARG553  GLY616  TRP617  ASP618  TYR619  PRO620  LYS621  CYS622 
 ASP623  PHE694  ASN695  SER759  ASP760  ASP761  ALA762  ILE779  LEU786  VAL792 
 PHE793  MET794  SER795  GLU796  ALA797  LYS798  CYS799  TRP800  GLU811  SER814 

> <Gold.Protein.RotatedAtoms>
  151.2874  135.0732  159.9191 H   0  0  0  0  0  0  0  0  0  0  0  0  # atno 6907 bound_to 6896
  152.5323  133.9968  159.7886 H   0  0  0  0  0  0  0  0  0  0  0  0  # atno 6908 bound_to 6896
  151.0232  133.5807  159.2699 H   0  0  0  0  0  0  0  0  0  0  0  0  # atno 6909 bound_to 6896
  144.7538  140.3935  143.6028 H   0  0  0  0  0  0  0  0  0  0  0  0  # atno 7974 bound_to 7965
  155.3368  140.3406  155.4239 H   0  0  0  0  0  0  0  0  0  0  0  0  # atno 8008 bound_to 7997
  156.1833  140.1672  156.8269 H   0  0  0  0  0  0  0  0  0  0  0  0  # atno 8009 bound_to 7997
  154.5358  140.0735  156.8408 H   0  0  0  0  0  0  0  0  0  0  0  0  # atno 8010 bound_to 7997
  139.4907  144.5830  151.6834 H   0  0  0  0  0  0  0  0  0  0  0  0  # atno 10167 bound_to 10162
  157.2329  130.7032  149.6322 H   0  0  0  0  0  0  0  0  0  0  0  0  # atno 10718 bound_to 10713
  153.4602  135.3724  155.2334 H   0  0  0  0  0  0  0  0  0  0  0  0  # atno 10763 bound_to 10752
  154.8757  135.3907  154.3933 H   0  0  0  0  0  0  0  0  0  0  0  0  # atno 10764 bound_to 10752
  153.4506  135.7085  153.6176 H   0  0  0  0  0  0  0  0  0  0  0  0  # atno 10765 bound_to 10752
  140.3610  134.2126  155.7672 H   0  0  0  0  0  0  0  0  0  0  0  0  # atno 11005 bound_to 11000
  145.6851  139.1627  143.2678 LP  0  0  0  0  0  0  0  0  0  0  0  0  # atno 17320 bound_to 7965
  146.1522  140.6909  142.9317 LP  0  0  0  0  0  0  0  0  0  0  0  0  # atno 17321 bound_to 7965
  140.5440  144.0533  150.6100 LP  0  0  0  0  0  0  0  0  0  0  0  0  # atno 17342 bound_to 10162
  140.3564  143.2933  152.0431 LP  0  0  0  0  0  0  0  0  0  0  0  0  # atno 17343 bound_to 10162
  155.9674  130.4483  150.5614 LP  0  0  0  0  0  0  0  0  0  0  0  0  # atno 17370 bound_to 10713
  157.3460  131.0725  151.1751 LP  0  0  0  0  0  0  0  0  0  0  0  0  # atno 17371 bound_to 10713
  141.1984  133.8036  157.0584 LP  0  0  0  0  0  0  0  0  0  0  0  0  # atno 17394 bound_to 11000
  140.0627  134.9746  157.1332 LP  0  0  0  0  0  0  0  0  0  0  0  0  # atno 17395 bound_to 11000

$$$$
