AV-unprocessed.smi:209|AV-procd|sdf|1608|dock9
  -GOLD-   2262019523D 1   1.00000     0.00000
 Structure written by MMmdl.
 48 52  0  0  0  0  0  0  0  0  1 V2000
  143.6725  131.8953  149.4723 O   0  0  0  0  0  0  0  0  0  0  0  0
  144.2766  132.7103  150.1659 C   0  0  0  0  0  0  0  0  0  0  0  0
  145.5037  133.1969  149.9446 N   0  0  0  0  0  0  0  0  0  0  0  0
  145.8847  134.2171  150.9167 C   0  0  0  0  0  0  0  0  0  0  0  0
  144.5203  134.6199  151.4973 C   0  0  1  0  0  0  0  0  0  0  0  0
  143.7414  133.3135  151.4516 C   0  0  1  0  0  0  0  0  0  0  0  0
  142.2501  133.6060  151.6246 C   0  0  0  0  0  0  0  0  0  0  0  0
  142.0939  134.2912  153.0031 C   0  0  0  0  0  0  0  0  0  0  0  0
  143.0518  135.4998  153.1892 C   0  0  0  0  0  0  0  0  0  0  0  0
  144.4448  135.1768  152.8435 N   0  0  0  0  0  0  0  0  0  0  0  0
  145.3094  136.1921  153.0618 C   0  0  0  0  0  0  0  0  0  0  0  0
  145.3932  137.2238  152.1808 N   0  0  0  0  0  0  0  0  0  0  0  0
  146.2616  138.2165  152.3983 C   0  0  0  0  0  0  0  0  0  0  0  0
  147.1222  138.3675  153.4082 N   0  0  0  0  0  0  0  0  0  0  0  0
  147.0407  137.3289  154.2893 C   0  0  0  0  0  0  0  0  0  0  0  0
  146.1689  136.2095  154.1904 C   0  0  0  0  0  0  0  0  0  0  0  0
  146.3669  135.3522  155.2642 N   0  0  0  0  0  0  0  0  0  0  0  0
  147.3018  135.9352  155.9642 C   0  0  0  0  0  0  0  0  0  0  0  0
  147.7707  137.1231  155.4477 N   0  0  0  0  0  0  0  0  0  0  0  0
  148.8010  137.9770  156.0191 C   0  0  0  0  0  0  0  0  0  0  0  0
  150.0587  138.1104  155.1402 C   0  0  0  0  0  0  0  0  0  0  0  0
  150.5614  136.6967  154.7829 C   0  0  0  0  0  0  0  0  0  0  0  0
  151.6815  136.7224  153.9205 O   0  0  0  0  0  0  0  0  0  0  0  0
  149.9292  139.1012  153.9742 C   0  0  0  0  0  0  0  0  0  0  0  0
  151.1140  139.8231  154.3768 O   0  0  0  0  0  0  0  0  0  0  0  0
  151.1250  139.1017  155.6285 C   0  0  0  0  0  0  0  0  0  0  0  0
  144.0593  135.3335  150.8099 H   0  0  0  0  0  0  0  0  0  0  0  0
  144.0703  132.6526  152.2564 H   0  0  0  0  0  0  0  0  0  0  0  0
  146.0798  132.9510  149.1526 H   0  0  0  0  0  0  0  0  0  0  0  0
  146.5347  133.7735  151.6725 H   0  0  0  0  0  0  0  0  0  0  0  0
  146.4036  135.0553  150.4506 H   0  0  0  0  0  0  0  0  0  0  0  0
  141.8873  134.2566  150.8277 H   0  0  0  0  0  0  0  0  0  0  0  0
  141.6649  132.6868  151.5848 H   0  0  0  0  0  0  0  0  0  0  0  0
  141.0613  134.6092  153.1478 H   0  0  0  0  0  0  0  0  0  0  0  0
  142.2984  133.5592  153.7855 H   0  0  0  0  0  0  0  0  0  0  0  0
  142.7044  136.3237  152.5643 H   0  0  0  0  0  0  0  0  0  0  0  0
  143.0051  135.8490  154.2215 H   0  0  0  0  0  0  0  0  0  0  0  0
  146.2682  139.0016  151.6565 H   0  0  0  0  0  0  0  0  0  0  0  0
  147.6758  135.5096  156.8836 H   0  0  0  0  0  0  0  0  0  0  0  0
  148.3674  138.9583  156.2161 H   0  0  0  0  0  0  0  0  0  0  0  0
  149.0596  137.5692  156.9973 H   0  0  0  0  0  0  0  0  0  0  0  0
  150.8566  136.1462  155.6763 H   0  0  0  0  0  0  0  0  0  0  0  0
  149.7755  136.1163  154.2986 H   0  0  0  0  0  0  0  0  0  0  0  0
  151.3747  136.8082  153.0309 H   0  0  0  0  0  0  0  0  0  0  0  0
  150.0270  138.6514  152.9857 H   0  0  0  0  0  0  0  0  0  0  0  0
  149.0391  139.7301  154.0232 H   0  0  0  0  0  0  0  0  0  0  0  0
  150.8017  139.7349  156.4555 H   0  0  0  0  0  0  0  0  0  0  0  0
  152.0933  138.6484  155.8435 H   0  0  0  0  0  0  0  0  0  0  0  0
  1  2  2  0  0  0  0
  2  6  1  0  0  0  0
  2  3  1  0  0  0  0
  3  4  1  0  0  0  0
  3 29  1  0  0  0  0
  4  5  1  0  0  0  0
  4 30  1  0  0  0  0
  4 31  1  0  0  0  0
  5 27  1  0  0  0  0
  5 10  1  0  0  0  0
  5  6  1  0  0  0  0
  6 28  1  0  0  0  0
  6  7  1  0  0  0  0
  7  8  1  0  0  0  0
  7 32  1  0  0  0  0
  7 33  1  0  0  0  0
  8  9  1  0  0  0  0
  8 34  1  0  0  0  0
  8 35  1  0  0  0  0
  9 10  1  0  0  0  0
  9 36  1  0  0  0  0
  9 37  1  0  0  0  0
 10 11  1  0  0  0  0
 11 16  1  0  0  0  0
 11 12  2  0  0  0  0
 12 13  1  0  0  0  0
 13 14  2  0  0  0  0
 13 38  1  0  0  0  0
 14 15  1  0  0  0  0
 15 19  1  0  0  0  0
 15 16  2  0  0  0  0
 16 17  1  0  0  0  0
 17 18  2  0  0  0  0
 18 19  1  0  0  0  0
 18 39  1  0  0  0  0
 19 20  1  0  0  0  0
 20 21  1  0  0  0  0
 20 40  1  0  0  0  0
 20 41  1  0  0  0  0
 21 26  1  0  0  0  0
 21 22  1  0  0  0  0
 21 24  1  0  0  0  0
 22 23  1  0  0  0  0
 22 42  1  0  0  0  0
 22 43  1  0  0  0  0
 23 44  1  0  0  0  0
 24 25  1  0  0  0  0
 24 45  1  0  0  0  0
 24 46  1  0  0  0  0
 25 26  1  0  0  0  0
 26 47  1  0  0  0  0
 26 48  1  0  0  0  0
M  END
> <s_m_source_file>
AV-unprocessed.smi

> <i_m_source_file_index>
209

> <i_lp_mmshare_version>
43012

> <i_f3d_flags>
0

> <s_epik_input>
W0NIMl0xW05IXUMoPU8pW0NAQEhdKFtDQEBIXTEyKVtDSDJdW0NIMl1bQ0gyXU4yYyhuW2NIXW4zKWMoYzM0KW5bY0hdbjRbQ0gyXUM1KFtDSDJdW09IXSlbQ0gyXU9bQ0gyXTU=

> <s_epik_cmdline>
J2VwaWtfcHl0aG9uJywgJy1waCcsICc3LjAnLCAnLXRuJywgJzgnLCAnLW1hJywgJzIwMCcsICctbWV0YWxfYmluZGluZycsICctaW1hZScsICc8aW5maWxlLm1hZT4nLCAnLW9tYWUnLCAnPG91dGZpbGUubWFlPic=

> <r_lp_tautomer_probability>
1

> <r_epik_Ionization_Penalty>
0.00113306

> <r_epik_Ionization_Penalty_Charging>
0

> <r_epik_Ionization_Penalty_Neutral>
0.00113306

> <r_epik_State_Penalty>
0.000624042

> <r_epik_Charging_Adjusted_Penalty>
0.000624042

> <i_epik_Tot_Q>
0

> <i_epik_Tot_abs_Q>
0

> <r_epik_Metal_State_Penalty>
-0

> <b_epik_Metal_Only>
0

> <s_lp_Force_Field>
OPLS_2005

> <r_lp_Energy>
56.9818

> <b_lp_Chiralities_Consistent>
1

> <s_lp_Variant>
AV-unprocessed.smi:209-2

> <Gold.Version>
5.8.1

> <Gold.Id.Protein>
6NUR|6NUR_protein|mol2

> <Gold.PLP.Fitness>
39.7556

> <Gold.PLP.PLP>
-28.9373

> <Gold.PLP.part.hbond>
-5.0000

> <Gold.PLP.part.metal>
0.0000

> <Gold.PLP.part.buried>
-3.1381

> <Gold.PLP.part.nonpolar>
-23.4828

> <Gold.PLP.part.repulsive>
0.9557

> <Gold.PLP.ligand.clash>
0.0000

> <Gold.PLP.ligand.torsion>
0.5435

> <Gold.PLP.Chemscore.Hbond>
3.8400

> <Gold.PLP.Chemscore.CHOScore>
0.0000

> <Gold.PLP.Chemscore.Metal>
0.0000

> <Gold.Chemscore.Hbonds>
donor molecule, donor type, donor heavy atom, donor atom, acceptor molecule, acceptor atom, score
      L1  H    23    44       P1  7949  0.90
      P1  H  7989  7998       L1    25  0.81
      P1  H 10752 10763       L1    23  1.00
      P1  H 10785 10796       L1     1  0.91

> <Gold.PLP.Chemscore.Internal.Correction>
0.3853

> <Gold.Rescore>
     Score         DG    S(hbond)    S(metal)    S(lipo)     H(rot)  DE(clash)    DE(int)     intcor
     13.78     -17.47       3.51        0.00      60.61       2.66       1.97       1.71       ----

> <Gold.Chemscore.Fitness>
13.7850

> <Gold.Chemscore.DG>
-17.4661

> <Gold.Chemscore.ZeroCoef>
-5.4800

> <Gold.Chemscore.Hbond>
3.5059

> <Gold.Chemscore.Metal>
0.0000

> <Gold.Chemscore.Lipo>
60.6099

> <Gold.Chemscore.Internal_Hbond>
0.0000

> <Gold.Chemscore.DEClash>
1.9697

> <Gold.Chemscore.DEInternal>
1.7114

> <Gold.Chemscore.Rot>
2.6620

> <Gold.Chemscore.Internal.Correction>
   9.000000E+99

> <Gold.Chemscore.Hbonds>
donor molecule, donor type, donor heavy atom, donor atom, acceptor molecule, acceptor atom, score
      L1  H    23    44       P1  7949  0.72
      P1  H  7989  7998       L1    25  0.78
      P1  H 10752 10763       L1    23  0.79
      P1  H 10785 10796       L1     1  0.87

> <Gold.Chemscore.Hbond.Weighted>
-11.7095

> <Gold.Chemscore.Metal.Weighted>
-0.0000

> <Gold.Chemscore.Lipo.Weighted>
-7.0914

> <Gold.Chemscore.Internal_Hbond.Weighted>
0.0000

> <Gold.Chemscore.DEClash.Weighted>
1.9697

> <Gold.Chemscore.DEInternal.Weighted>
1.7114

> <Gold.Chemscore.Rot.Weighted>
6.8148

> <Gold.Chemscore.Internal.Correction.Weighted>
   9.000000E+99

> <Gold.Protein.RotatedTorsions>
[ 6907 6896 6895 6894 ] final -164.21 input  -60.11 | X-H torsion
[ 7974 7965 7964 7962 ] final -117.32 input  175.53 | X-H torsion
[ 8008 7997 7996 7995 ] final   -7.14 input   59.86 | X-H torsion
[ 10167 10162 10161 10158 ] final   23.96 input  -65.29 | X-H torsion
[ 10718 10713 10712 10709 ] final    2.71 input   66.30 | X-H torsion
[ 10763 10752 10751 10750 ] final   51.93 input  -60.55 | X-H torsion
[ 11005 11000 10999 10996 ] final   -3.31 input  -57.11 | X-H torsion

> <Gold.Protein.ActiveResidues>
 VAL166  LYS551  ARG553  GLY616  TRP617  ASP618  TYR619  PRO620  LYS621  CYS622 
 ASP623  PHE694  ASN695  SER759  ASP760  ASP761  ALA762  ILE779  LEU786  VAL792 
 PHE793  MET794  SER795  GLU796  ALA797  LYS798  CYS799  TRP800  GLU811  SER814 

> <Gold.Protein.RotatedAtoms>
  151.4083  133.3735  159.2740 H   0  0  0  0  0  0  0  0  0  0  0  0  # atno 6907 bound_to 6896
  150.9382  134.8794  159.7606 H   0  0  0  0  0  0  0  0  0  0  0  0  # atno 6908 bound_to 6896
  152.5059  134.4031  159.9475 H   0  0  0  0  0  0  0  0  0  0  0  0  # atno 6909 bound_to 6896
  145.0866  140.8462  143.4007 H   0  0  0  0  0  0  0  0  0  0  0  0  # atno 7974 bound_to 7965
  154.5868  140.2415  155.7976 H   0  0  0  0  0  0  0  0  0  0  0  0  # atno 8008 bound_to 7997
  156.2219  140.2995  155.9927 H   0  0  0  0  0  0  0  0  0  0  0  0  # atno 8009 bound_to 7997
  155.2444  140.0408  157.2969 H   0  0  0  0  0  0  0  0  0  0  0  0  # atno 8010 bound_to 7997
  140.5227  143.9976  150.6425 H   0  0  0  0  0  0  0  0  0  0  0  0  # atno 10167 bound_to 10162
  156.8670  130.5606  149.5659 H   0  0  0  0  0  0  0  0  0  0  0  0  # atno 10718 bound_to 10713
  152.9787  135.5829  154.4495 H   0  0  0  0  0  0  0  0  0  0  0  0  # atno 10763 bound_to 10752
  154.4086  135.2769  155.2053 H   0  0  0  0  0  0  0  0  0  0  0  0  # atno 10764 bound_to 10752
  154.3853  135.6137  153.5867 H   0  0  0  0  0  0  0  0  0  0  0  0  # atno 10765 bound_to 10752
  140.6680  133.9262  155.8477 H   0  0  0  0  0  0  0  0  0  0  0  0  # atno 11005 bound_to 11000
  145.1115  139.2754  143.5635 LP  0  0  0  0  0  0  0  0  0  0  0  0  # atno 17320 bound_to 7965
  146.3531  140.0712  142.8623 LP  0  0  0  0  0  0  0  0  0  0  0  0  # atno 17321 bound_to 7965
  140.3329  143.3066  152.0669 LP  0  0  0  0  0  0  0  0  0  0  0  0  # atno 17342 bound_to 10162
  139.4928  144.6497  151.6703 LP  0  0  0  0  0  0  0  0  0  0  0  0  # atno 17343 bound_to 10162
  156.0746  130.5771  150.9450 LP  0  0  0  0  0  0  0  0  0  0  0  0  # atno 17370 bound_to 10713
  157.6218  131.0929  150.8609 LP  0  0  0  0  0  0  0  0  0  0  0  0  # atno 17371 bound_to 10713
  141.0414  134.0615  157.3897 LP  0  0  0  0  0  0  0  0  0  0  0  0  # atno 17394 bound_to 11000
  139.8991  135.0157  156.7179 LP  0  0  0  0  0  0  0  0  0  0  0  0  # atno 17395 bound_to 11000

$$$$
