AV-unprocessed.smi:637|AV-procd|sdf|3141|dock6
  -GOLD-   22720 0 63D 1   1.00000     0.00000
 Structure written by MMmdl.
 38 40  0  0  0  0  0  0  0  0  1 V2000
  151.9133  145.0475  159.3784 C   0  0  0  0  0  0  0  0  0  0  0  0
  152.2736  143.6018  159.4333 C   0  0  0  0  0  0  0  0  0  0  0  0
  152.8993  142.9309  160.4559 C   0  0  0  0  0  0  0  0  0  0  0  0
  153.1008  141.5447  160.1851 C   0  0  0  0  0  0  0  0  0  0  0  0
  152.6186  141.1898  158.9477 C   0  0  0  0  0  0  0  0  0  0  0  0
  152.7218  139.8251  158.4568 C   0  0  0  0  0  0  0  0  0  0  0  0
  152.8367  138.6998  159.3687 C   0  0  0  0  0  0  0  0  0  0  0  0
  152.9206  137.4492  158.8658 C   0  0  0  0  0  0  0  0  0  0  0  0
  152.9005  137.1951  157.4269 C   0  0  0  0  0  0  0  0  0  0  0  0
  152.9738  136.0672  156.9394 O   0  0  0  0  0  0  0  0  0  0  0  0
  152.7945  138.3268  156.6703 N   0  0  0  0  0  0  0  0  0  0  0  0
  152.7563  138.2654  155.2043 C   0  0  0  0  0  0  0  0  0  0  0  0
  151.4539  138.8564  154.6222 C   0  0  2  0  0  0  0  0  0  0  0  0
  151.3813  140.2267  154.9661 O   0  0  0  0  0  0  0  0  0  0  0  0
  150.2401  138.0920  155.1287 C   0  0  0  0  0  0  0  0  0  0  0  0
  150.2265  136.6814  155.0811 C   0  0  0  0  0  0  0  0  0  0  0  0
  149.1114  135.9654  155.5589 C   0  0  0  0  0  0  0  0  0  0  0  0
  148.0051  136.6558  156.0898 C   0  0  0  0  0  0  0  0  0  0  0  0
  148.0142  138.0627  156.1435 C   0  0  0  0  0  0  0  0  0  0  0  0
  146.9520  138.7278  156.6561 F   0  0  0  0  0  0  0  0  0  0  0  0
  149.1286  138.7789  155.6659 C   0  0  0  0  0  0  0  0  0  0  0  0
  152.7054  139.6095  157.1801 N   0  0  0  0  0  0  0  0  0  0  0  0
  151.9071  142.5354  158.0992 S   0  0  0  0  0  0  0  0  0  0  0  0
  152.2738  145.5767  160.2608 H   0  0  0  0  0  0  0  0  0  0  0  0
  150.8318  145.1746  159.3276 H   0  0  0  0  0  0  0  0  0  0  0  0
  152.3516  145.5219  158.5002 H   0  0  0  0  0  0  0  0  0  0  0  0
  153.2189  143.3845  161.3826 H   0  0  0  0  0  0  0  0  0  0  0  0
  153.5821  140.8912  160.8987 H   0  0  0  0  0  0  0  0  0  0  0  0
  152.8549  138.8588  160.4364 H   0  0  0  0  0  0  0  0  0  0  0  0
  153.0053  136.6129  159.5442 H   0  0  0  0  0  0  0  0  0  0  0  0
  153.6126  138.8225  154.8190 H   0  0  0  0  0  0  0  0  0  0  0  0
  152.9031  137.2433  154.8488 H   0  0  0  0  0  0  0  0  0  0  0  0
  151.4652  138.7934  153.5332 H   0  0  0  0  0  0  0  0  0  0  0  0
  150.9519  140.3022  155.8045 H   0  0  0  0  0  0  0  0  0  0  0  0
  151.0727  136.1425  154.6805 H   0  0  0  0  0  0  0  0  0  0  0  0
  149.1054  134.8860  155.5193 H   0  0  0  0  0  0  0  0  0  0  0  0
  147.1510  136.1066  156.4577 H   0  0  0  0  0  0  0  0  0  0  0  0
  149.1288  139.8579  155.7163 H   0  0  0  0  0  0  0  0  0  0  0  0
  1  2  1  0  0  0  0
  1 24  1  0  0  0  0
  1 25  1  0  0  0  0
  1 26  1  0  0  0  0
  2 23  1  0  0  0  0
  2  3  2  0  0  0  0
  3  4  1  0  0  0  0
  3 27  1  0  0  0  0
  4  5  2  0  0  0  0
  4 28  1  0  0  0  0
  5  6  1  0  0  0  0
  5 23  1  0  0  0  0
  6 22  2  0  0  0  0
  6  7  1  0  0  0  0
  7  8  2  0  0  0  0
  7 29  1  0  0  0  0
  8  9  1  0  0  0  0
  8 30  1  0  0  0  0
  9 10  2  0  0  0  0
  9 11  1  0  0  0  0
 11 12  1  0  0  0  0
 11 22  1  0  0  0  0
 12 13  1  0  0  0  0
 12 31  1  0  0  0  0
 12 32  1  0  0  0  0
 13 14  1  0  0  0  0
 13 15  1  0  0  0  0
 13 33  1  0  0  0  0
 14 34  1  0  0  0  0
 15 21  1  0  0  0  0
 15 16  2  0  0  0  0
 16 17  1  0  0  0  0
 16 35  1  0  0  0  0
 17 18  2  0  0  0  0
 17 36  1  0  0  0  0
 18 19  1  0  0  0  0
 18 37  1  0  0  0  0
 19 20  1  0  0  0  0
 19 21  2  0  0  0  0
 21 38  1  0  0  0  0
M  END
> <s_m_source_file>
AV-unprocessed.smi

> <i_m_source_file_index>
637

> <i_lp_mmshare_version>
43012

> <i_f3d_flags>
0

> <s_epik_input>
W0NIM11jMVtjSF1bY0hdYyhzMSktYzJbY0hdW2NIXWMoPU8pbihuMilbQ0gyXVtDQEhdKFtPSF0pYzNbY0hdW2NIXVtjSF1jKEYpW2NIXTM=

> <s_epik_cmdline>
J2VwaWtfcHl0aG9uJywgJy1waCcsICc3LjAnLCAnLXRuJywgJzgnLCAnLW1hJywgJzIwMCcsICctbWV0YWxfYmluZGluZycsICctaW1hZScsICc8aW5maWxlLm1hZT4nLCAnLW9tYWUnLCAnPG91dGZpbGUubWFlPic=

> <r_lp_tautomer_probability>
1

> <r_epik_Ionization_Penalty>
2.26963e-07

> <r_epik_Ionization_Penalty_Charging>
5.89185e-08

> <r_epik_Ionization_Penalty_Neutral>
1.68044e-07

> <r_epik_State_Penalty>
-0

> <r_epik_Charging_Adjusted_Penalty>
5.89185e-08

> <i_epik_Tot_Q>
0

> <i_epik_Tot_abs_Q>
0

> <r_epik_Metal_State_Penalty>
-0

> <b_epik_Metal_Only>
0

> <s_lp_Force_Field>
OPLS_2005

> <r_lp_Energy>
28.2523

> <b_lp_Chiralities_Consistent>
1

> <s_lp_Variant>
AV-unprocessed.smi:637-1

> <Gold.Version>
5.8.1

> <Gold.Id.Protein>
6NUR|6NUR_protein|mol2

> <Gold.PLP.Fitness>
46.5951

> <Gold.PLP.PLP>
-39.5525

> <Gold.PLP.part.hbond>
-3.0000

> <Gold.PLP.part.metal>
0.0000

> <Gold.PLP.part.buried>
-5.6671

> <Gold.PLP.part.nonpolar>
-31.2242

> <Gold.PLP.part.repulsive>
0.0000

> <Gold.PLP.ligand.clash>
0.0000

> <Gold.PLP.ligand.torsion>
0.4599

> <Gold.PLP.Chemscore.Hbond>
2.6500

> <Gold.PLP.Chemscore.CHOScore>
0.0000

> <Gold.PLP.Chemscore.Metal>
0.0000

> <Gold.Chemscore.Hbonds>
donor molecule, donor type, donor heavy atom, donor atom, acceptor molecule, acceptor atom, score
      P1  H  7989  7998       L1    14  0.95
      P1  H  7997  8008       L1    22  0.65
      P1  H 10752 10763       L1    10  1.00

> <Gold.PLP.Chemscore.Internal.Correction>
0.0125

> <Gold.Rescore>
     Score         DG    S(hbond)    S(metal)    S(lipo)     H(rot)  DE(clash)    DE(int)     intcor
     18.50     -20.53       1.96        0.00     112.53       1.82       0.11       1.93       ----

> <Gold.Chemscore.Fitness>
18.4982

> <Gold.Chemscore.DG>
-20.5348

> <Gold.Chemscore.ZeroCoef>
-5.4800

> <Gold.Chemscore.Hbond>
1.9621

> <Gold.Chemscore.Metal>
0.0000

> <Gold.Chemscore.Lipo>
112.5323

> <Gold.Chemscore.Internal_Hbond>
0.0000

> <Gold.Chemscore.DEClash>
0.1096

> <Gold.Chemscore.DEInternal>
1.9270

> <Gold.Chemscore.Rot>
1.8222

> <Gold.Chemscore.Internal.Correction>
   9.000000E+99

> <Gold.Chemscore.Hbonds>
donor molecule, donor type, donor heavy atom, donor atom, acceptor molecule, acceptor atom, score
      P1  H  7989  7998       L1    14  0.21
      P1  H  7997  8008       L1    22  0.04
      P1  H 10752 10763       L1    10  1.00

> <Gold.Chemscore.Hbond.Weighted>
-6.5534

> <Gold.Chemscore.Metal.Weighted>
-0.0000

> <Gold.Chemscore.Lipo.Weighted>
-13.1663

> <Gold.Chemscore.Internal_Hbond.Weighted>
0.0000

> <Gold.Chemscore.DEClash.Weighted>
0.1096

> <Gold.Chemscore.DEInternal.Weighted>
1.9270

> <Gold.Chemscore.Rot.Weighted>
4.6649

> <Gold.Chemscore.Internal.Correction.Weighted>
   9.000000E+99

> <Gold.Protein.RotatedTorsions>
[ 6907 6896 6895 6894 ] final  146.65 input  -60.11 | X-H torsion
[ 7974 7965 7964 7962 ] final  139.94 input  175.53 | X-H torsion
[ 8008 7997 7996 7995 ] final  -45.87 input   59.86 | X-H torsion
[ 10167 10162 10161 10158 ] final   60.04 input  -65.29 | X-H torsion
[ 10718 10713 10712 10709 ] final -146.90 input   66.30 | X-H torsion
[ 10763 10752 10751 10750 ] final  115.54 input  -60.55 | X-H torsion
[ 11005 11000 10999 10996 ] final -133.34 input  -57.11 | X-H torsion

> <Gold.Protein.ActiveResidues>
 VAL166  LYS551  ARG553  GLY616  TRP617  ASP618  TYR619  PRO620  LYS621  CYS622 
 ASP623  PHE694  ASN695  SER759  ASP760  ASP761  ALA762  ILE779  LEU786  VAL792 
 PHE793  MET794  SER795  GLU796  ALA797  LYS798  CYS799  TRP800  GLU811  SER814 

> <Gold.Protein.RotatedAtoms>
  152.1652  133.4607  159.4880 H   0  0  0  0  0  0  0  0  0  0  0  0  # atno 6907 bound_to 6896
  150.6912  134.2022  159.4336 H   0  0  0  0  0  0  0  0  0  0  0  0  # atno 6908 bound_to 6896
  151.9927  134.9970  160.0613 H   0  0  0  0  0  0  0  0  0  0  0  0  # atno 6909 bound_to 6896
  144.9232  139.5140  143.5653 H   0  0  0  0  0  0  0  0  0  0  0  0  # atno 7974 bound_to 7965
  154.4003  140.1386  156.3917 H   0  0  0  0  0  0  0  0  0  0  0  0  # atno 8008 bound_to 7997
  155.7907  140.3479  155.5327 H   0  0  0  0  0  0  0  0  0  0  0  0  # atno 8009 bound_to 7997
  155.8581  140.0952  157.1621 H   0  0  0  0  0  0  0  0  0  0  0  0  # atno 8010 bound_to 7997
  140.1699  144.4287  150.6666 H   0  0  0  0  0  0  0  0  0  0  0  0  # atno 10167 bound_to 10162
  156.4008  130.7933  151.2143 H   0  0  0  0  0  0  0  0  0  0  0  0  # atno 10718 bound_to 10713
  153.5237  135.3592  155.2644 H   0  0  0  0  0  0  0  0  0  0  0  0  # atno 10763 bound_to 10752
  154.8733  135.4051  154.3230 H   0  0  0  0  0  0  0  0  0  0  0  0  # atno 10764 bound_to 10752
  153.3906  135.7071  153.6565 H   0  0  0  0  0  0  0  0  0  0  0  0  # atno 10765 bound_to 10752
  140.9090  134.1593  157.4404 H   0  0  0  0  0  0  0  0  0  0  0  0  # atno 11005 bound_to 11000
  146.3214  139.8128  142.8942 LP  0  0  0  0  0  0  0  0  0  0  0  0  # atno 17320 bound_to 7965
  145.3261  141.0255  143.3473 LP  0  0  0  0  0  0  0  0  0  0  0  0  # atno 17321 bound_to 7965
  140.6589  143.2246  151.5903 LP  0  0  0  0  0  0  0  0  0  0  0  0  # atno 17342 bound_to 10162
  139.5343  144.2827  152.1216 LP  0  0  0  0  0  0  0  0  0  0  0  0  # atno 17343 bound_to 10162
  157.7504  131.0287  150.4062 LP  0  0  0  0  0  0  0  0  0  0  0  0  # atno 17370 bound_to 10713
  156.4341  130.3978  149.6741 LP  0  0  0  0  0  0  0  0  0  0  0  0  # atno 17371 bound_to 10713
  139.8754  134.9928  156.5614 LP  0  0  0  0  0  0  0  0  0  0  0  0  # atno 17394 bound_to 11000
  140.8135  133.8410  155.8831 LP  0  0  0  0  0  0  0  0  0  0  0  0  # atno 17395 bound_to 11000

$$$$
