AV-unprocessed.smi:1987|AV-procd|sdf|8057|dock8
  -GOLD-   2272010263D 1   1.00000     0.00000
 Structure written by MMmdl.
 37 39  0  0  0  0  0  0  0  0  2 V2000
  150.3722  136.3459  156.3077 O   0  0  0  0  0  0  0  0  0  0  0  0
  150.1416  136.3828  155.0996 C   0  0  0  0  0  0  0  0  0  0  0  0
  150.7624  137.4763  154.2318 C   0  0  0  0  0  0  0  0  0  0  0  0
  151.3798  138.4852  155.0729 N   0  0  0  0  0  0  0  0  0  0  0  0
  152.3601  138.3950  155.9741 C   0  0  0  0  0  0  0  0  0  0  0  0
  152.6649  139.5786  156.4843 N   0  0  0  0  0  0  0  0  0  0  0  0
  151.7906  140.4356  155.8375 N   0  0  0  0  0  0  0  0  0  0  0  0
  151.0262  139.7931  154.9981 N   0  0  0  0  0  0  0  0  0  0  0  0
  149.3980  135.4687  154.4578 N   0  0  0  0  0  0  0  0  0  0  0  0
  148.8970  134.2311  155.0426 C   0  0  0  0  0  0  0  0  0  0  0  0
  148.8074  133.1061  153.9912 C   0  0  1  0  0  0  0  0  0  0  0  0
  148.8922  131.6944  154.5669 C   0  0  0  0  0  0  0  0  0  0  0  0
  148.2363  130.8092  153.4978 C   0  0  0  0  0  0  0  0  0  0  0  0
  147.4482  131.7070  152.6208 N   0  3  1  0  0  0  0  0  0  0  0  0
  146.0828  131.2266  152.3217 C   0  0  0  0  0  0  0  0  0  0  0  0
  146.0549  129.9576  151.5044 C   0  0  0  0  0  0  0  0  0  0  0  0
  145.7321  131.2858  150.8541 C   0  0  0  0  0  0  0  0  0  0  0  0
  147.4915  133.0578  153.2128 C   0  0  0  0  0  0  0  0  0  0  0  0
  151.5101  137.0517  153.5598 H   0  0  0  0  0  0  0  0  0  0  0  0
  149.9978  137.9493  153.6142 H   0  0  0  0  0  0  0  0  0  0  0  0
  152.8575  137.4740  156.2410 H   0  0  0  0  0  0  0  0  0  0  0  0
  149.2476  135.5961  153.4670 H   0  0  0  0  0  0  0  0  0  0  0  0
  149.5308  133.9264  155.8768 H   0  0  0  0  0  0  0  0  0  0  0  0
  147.9107  134.4360  155.4598 H   0  0  0  0  0  0  0  0  0  0  0  0
  149.6203  133.2239  153.2726 H   0  0  0  0  0  0  0  0  0  0  0  0
  149.9154  131.3929  154.7925 H   0  0  0  0  0  0  0  0  0  0  0  0
  148.3168  131.6326  155.4917 H   0  0  0  0  0  0  0  0  0  0  0  0
  148.9902  130.3085  152.8896 H   0  0  0  0  0  0  0  0  0  0  0  0
  147.6189  130.0368  153.9591 H   0  0  0  0  0  0  0  0  0  0  0  0
  145.3234  131.4167  153.0784 H   0  0  0  0  0  0  0  0  0  0  0  0
  147.0032  129.4890  151.2473 H   0  0  0  0  0  0  0  0  0  0  0  0
  145.2275  129.2709  151.6713 H   0  0  0  0  0  0  0  0  0  0  0  0
  144.6926  131.4739  150.5937 H   0  0  0  0  0  0  0  0  0  0  0  0
  146.4660  131.7001  150.1648 H   0  0  0  0  0  0  0  0  0  0  0  0
  146.6494  133.1902  153.8947 H   0  0  0  0  0  0  0  0  0  0  0  0
  147.4277  133.8285  152.4435 H   0  0  0  0  0  0  0  0  0  0  0  0
  147.9504  131.7609  151.7462 H   0  0  0  0  0  0  0  0  0  0  0  0
  1  2  2  0  0  0  0
  2  3  1  0  0  0  0
  2  9  1  0  0  0  0
  3  4  1  0  0  0  0
  3 19  1  0  0  0  0
  3 20  1  0  0  0  0
  4  8  1  0  0  0  0
  4  5  1  0  0  0  0
  5  6  2  0  0  0  0
  5 21  1  0  0  0  0
  6  7  1  0  0  0  0
  7  8  2  0  0  0  0
  9 10  1  0  0  0  0
  9 22  1  0  0  0  0
 10 11  1  0  0  0  0
 10 23  1  0  0  0  0
 10 24  1  0  0  0  0
 11 18  1  0  0  0  0
 11 12  1  0  0  0  0
 11 25  1  0  0  0  0
 12 13  1  0  0  0  0
 12 26  1  0  0  0  0
 12 27  1  0  0  0  0
 13 14  1  0  0  0  0
 13 28  1  0  0  0  0
 13 29  1  0  0  0  0
 14 15  1  0  0  0  0
 14 18  1  0  0  0  0
 14 37  1  0  0  0  0
 15 17  1  0  0  0  0
 15 16  1  0  0  0  0
 15 30  1  0  0  0  0
 16 17  1  0  0  0  0
 16 31  1  0  0  0  0
 16 32  1  0  0  0  0
 17 33  1  0  0  0  0
 17 34  1  0  0  0  0
 18 35  1  0  0  0  0
 18 36  1  0  0  0  0
M  CHG  1  14   1
M  END
> <s_m_source_file>
AV-unprocessed.smi

> <i_m_source_file_index>
1987

> <i_lp_mmshare_version>
43012

> <i_f3d_flags>
0

> <s_epik_input>
bjFubltjSF1uMVtDSDJdQyg9TylbTkhdW0NIMl1bQ0BASF0yW0NIMl1bQ0gyXU4oW0NIMl0yKVtDSF0zW0NIMl1bQ0gyXTM=

> <s_epik_cmdline>
J2VwaWtfcHl0aG9uJywgJy1waCcsICc3LjAnLCAnLXRuJywgJzgnLCAnLW1hJywgJzIwMCcsICctbWV0YWxfYmluZGluZycsICctaW1hZScsICc8aW5maWxlLm1hZT4nLCAnLW9tYWUnLCAnPG91dGZpbGUubWFlPic=

> <r_lp_tautomer_probability>
1

> <r_epik_Ionization_Penalty>
0.000242849

> <r_epik_Ionization_Penalty_Charging>
0.000241326

> <r_epik_Ionization_Penalty_Neutral>
1.52322e-06

> <r_epik_State_Penalty>
-0

> <r_epik_Charging_Adjusted_Penalty>
0.000241326

> <i_epik_Tot_Q>
1

> <i_epik_Tot_abs_Q>
1

> <r_epik_Metal_State_Penalty>
-0

> <b_epik_Metal_Only>
0

> <s_lp_Force_Field>
OPLS_2005

> <r_lp_Energy>
37.5901

> <b_lp_Chiralities_Consistent>
1

> <s_lp_Variant>
AV-unprocessed.smi:1987-4

> <Gold.Version>
5.8.1

> <Gold.Id.Protein>
6NUR|6NUR_protein|mol2

> <Gold.PLP.Fitness>
41.6811

> <Gold.PLP.PLP>
-32.2358

> <Gold.PLP.part.hbond>
-4.6389

> <Gold.PLP.part.metal>
0.0000

> <Gold.PLP.part.buried>
-0.0619

> <Gold.PLP.part.nonpolar>
-27.1367

> <Gold.PLP.part.repulsive>
0.1069

> <Gold.PLP.ligand.clash>
0.0000

> <Gold.PLP.ligand.torsion>
1.2595

> <Gold.PLP.Chemscore.Hbond>
3.5600

> <Gold.PLP.Chemscore.CHOScore>
0.0000

> <Gold.PLP.Chemscore.Metal>
0.0000

> <Gold.Chemscore.Hbonds>
donor molecule, donor type, donor heavy atom, donor atom, acceptor molecule, acceptor atom, score
      L1  H     9    22       P1  7948  1.00
      L1  H    14    37       P1 10747  0.99
      P1  H  7989  7998       L1     8  0.60
      P1  H  7997  8008       L1     6  1.00

> <Gold.PLP.Chemscore.Internal.Correction>
1.2843

> <Gold.Rescore>
     Score         DG    S(hbond)    S(metal)    S(lipo)     H(rot)  DE(clash)    DE(int)     intcor
     11.41     -13.96       2.41        0.00      61.18       2.62       0.32       2.22       ----

> <Gold.Chemscore.Fitness>
11.4107

> <Gold.Chemscore.DG>
-13.9566

> <Gold.Chemscore.ZeroCoef>
-5.4800

> <Gold.Chemscore.Hbond>
2.4064

> <Gold.Chemscore.Metal>
0.0000

> <Gold.Chemscore.Lipo>
61.1766

> <Gold.Chemscore.Internal_Hbond>
0.0000

> <Gold.Chemscore.DEClash>
0.3239

> <Gold.Chemscore.DEInternal>
2.2220

> <Gold.Chemscore.Rot>
2.6244

> <Gold.Chemscore.Internal.Correction>
   9.000000E+99

> <Gold.Chemscore.Hbonds>
donor molecule, donor type, donor heavy atom, donor atom, acceptor molecule, acceptor atom, score
      L1  H     9    22       P1  7948  0.45
      L1  H    14    37       P1 10747  0.91
      P1  H  7989  7998       L1     8  0.04
      P1  H  7997  8008       L1     6  0.57

> <Gold.Chemscore.Hbond.Weighted>
-8.0375

> <Gold.Chemscore.Metal.Weighted>
-0.0000

> <Gold.Chemscore.Lipo.Weighted>
-7.1577

> <Gold.Chemscore.Internal_Hbond.Weighted>
0.0000

> <Gold.Chemscore.DEClash.Weighted>
0.3239

> <Gold.Chemscore.DEInternal.Weighted>
2.2220

> <Gold.Chemscore.Rot.Weighted>
6.7186

> <Gold.Chemscore.Internal.Correction.Weighted>
   9.000000E+99

> <Gold.Protein.RotatedTorsions>
[ 6907 6896 6895 6894 ] final   36.73 input  -60.11 | X-H torsion
[ 7974 7965 7964 7962 ] final  -63.10 input  175.53 | X-H torsion
[ 8008 7997 7996 7995 ] final  -30.13 input   59.86 | X-H torsion
[ 10167 10162 10161 10158 ] final  112.97 input  -65.29 | X-H torsion
[ 10718 10713 10712 10709 ] final  -33.34 input   66.30 | X-H torsion
[ 10763 10752 10751 10750 ] final  140.28 input  -60.55 | X-H torsion
[ 11005 11000 10999 10996 ] final  -99.06 input  -57.11 | X-H torsion

> <Gold.Protein.ActiveResidues>
 VAL166  LYS551  ARG553  GLY616  TRP617  ASP618  TYR619  PRO620  LYS621  CYS622 
 ASP623  PHE694  ASN695  SER759  ASP760  ASP761  ALA762  ILE779  LEU786  VAL792 
 PHE793  MET794  SER795  GLU796  ALA797  LYS798  CYS799  TRP800  GLU811  SER814 

> <Gold.Protein.RotatedAtoms>
  152.1337  134.9115  160.0557 H   0  0  0  0  0  0  0  0  0  0  0  0  # atno 6907 bound_to 6896
  152.0210  133.3894  159.4266 H   0  0  0  0  0  0  0  0  0  0  0  0  # atno 6908 bound_to 6896
  150.6858  134.3547  159.4968 H   0  0  0  0  0  0  0  0  0  0  0  0  # atno 6909 bound_to 6896
  145.7832  140.8751  143.0319 H   0  0  0  0  0  0  0  0  0  0  0  0  # atno 7974 bound_to 7965
  154.4262  140.1799  156.1358 H   0  0  0  0  0  0  0  0  0  0  0  0  # atno 8008 bound_to 7997
  156.0031  140.3358  155.6840 H   0  0  0  0  0  0  0  0  0  0  0  0  # atno 8009 bound_to 7997
  155.6215  140.0660  157.2667 H   0  0  0  0  0  0  0  0  0  0  0  0  # atno 8010 bound_to 7997
  139.6496  144.7128  151.2075 H   0  0  0  0  0  0  0  0  0  0  0  0  # atno 10167 bound_to 10162
  156.3638  130.4328  149.7601 H   0  0  0  0  0  0  0  0  0  0  0  0  # atno 10718 bound_to 10713
  153.9200  135.3001  155.3448 H   0  0  0  0  0  0  0  0  0  0  0  0  # atno 10763 bound_to 10752
  154.7580  135.4948  153.9414 H   0  0  0  0  0  0  0  0  0  0  0  0  # atno 10764 bound_to 10752
  153.1147  135.6768  153.9542 H   0  0  0  0  0  0  0  0  0  0  0  0  # atno 10765 bound_to 10752
  141.1322  133.8292  157.0921 H   0  0  0  0  0  0  0  0  0  0  0  0  # atno 11005 bound_to 11000
  144.6793  140.0018  143.7484 LP  0  0  0  0  0  0  0  0  0  0  0  0  # atno 17320 bound_to 7965
  146.0053  139.3124  143.0903 LP  0  0  0  0  0  0  0  0  0  0  0  0  # atno 17321 bound_to 7965
  140.7531  143.6173  150.8547 LP  0  0  0  0  0  0  0  0  0  0  0  0  # atno 17342 bound_to 10162
  139.9819  143.5941  152.2940 LP  0  0  0  0  0  0  0  0  0  0  0  0  # atno 17343 bound_to 10162
  156.4755  130.8016  151.3033 LP  0  0  0  0  0  0  0  0  0  0  0  0  # atno 17370 bound_to 10713
  157.7476  131.0022  150.2993 LP  0  0  0  0  0  0  0  0  0  0  0  0  # atno 17371 bound_to 10713
  140.0386  134.9866  157.0918 LP  0  0  0  0  0  0  0  0  0  0  0  0  # atno 17394 bound_to 11000
  140.4172  134.1919  155.7163 LP  0  0  0  0  0  0  0  0  0  0  0  0  # atno 17395 bound_to 11000

$$$$
