AV-unprocessed.smi:2356|AV-procd|sdf|9393|dock5
  -GOLD-   2272013 23D 1   1.00000     0.00000
 Structure written by MMmdl.
 53 56  0  0  0  0  0  0  0  0  1 V2000
  152.8625  138.5775  154.7154 C   0  0  0  0  0  0  0  0  0  0  0  0
  151.8640  139.1506  155.7068 C   0  0  0  0  0  0  0  0  0  0  0  0
  152.2877  140.2347  156.3914 N   0  0  0  0  0  0  0  0  0  0  0  0
  151.4655  140.8050  157.3024 C   0  0  0  0  0  0  0  0  0  0  0  0
  151.9531  141.9328  157.9926 N   0  0  0  0  0  0  0  0  0  0  0  0
  151.3101  143.2335  157.8997 C   0  0  0  0  0  0  0  0  0  0  0  0
  152.0498  144.1071  158.9124 C   0  0  0  0  0  0  0  0  0  0  0  0
  152.4516  143.1128  160.0011 C   0  0  0  0  0  0  0  0  0  0  0  0
  152.7014  141.8077  159.2373 C   0  0  0  0  0  0  0  0  0  0  0  0
  150.1684  140.2983  157.5484 C   0  0  0  0  0  0  0  0  0  0  0  0
  149.7258  139.1674  156.8367 C   0  0  0  0  0  0  0  0  0  0  0  0
  150.5863  138.5698  155.8855 C   0  0  0  0  0  0  0  0  0  0  0  0
  150.2591  137.4133  155.1234 N   0  0  0  0  0  0  0  0  0  0  0  0
  149.5694  136.3087  155.4685 C   0  0  0  0  0  0  0  0  0  0  0  0
  149.0162  136.1306  156.5508 O   0  0  0  0  0  0  0  0  0  0  0  0
  149.5079  135.3805  154.4957 N   0  0  0  0  0  0  0  0  0  0  0  0
  148.8453  134.0737  154.5300 C   0  0  2  0  0  0  0  0  0  0  0  0
  149.4405  133.1893  155.6378 C   0  0  0  0  0  0  0  0  0  0  0  0
  148.8437  131.7753  155.5844 C   0  0  0  0  0  0  0  0  0  0  0  0
  149.0446  131.1984  154.2961 O   0  0  0  0  0  0  0  0  0  0  0  0
  148.4700  131.9245  153.2086 C   0  0  1  0  0  0  0  0  0  0  0  0
  146.9486  131.8469  153.2208 C   0  0  0  0  0  0  0  0  0  0  0  0
  146.2338  130.7167  152.5195 C   0  0  0  0  0  0  0  0  0  0  0  0
  146.1468  132.1210  151.9701 C   0  0  0  0  0  0  0  0  0  0  0  0
  149.0135  133.3673  153.1760 C   0  0  0  0  0  0  0  0  0  0  0  0
  152.4430  138.5794  153.7089 H   0  0  0  0  0  0  0  0  0  0  0  0
  153.1152  137.5507  154.9820 H   0  0  0  0  0  0  0  0  0  0  0  0
  153.7861  139.1575  154.6955 H   0  0  0  0  0  0  0  0  0  0  0  0
  151.3766  143.6456  156.8924 H   0  0  0  0  0  0  0  0  0  0  0  0
  150.2574  143.1385  158.1694 H   0  0  0  0  0  0  0  0  0  0  0  0
  152.9445  144.5295  158.4529 H   0  0  0  0  0  0  0  0  0  0  0  0
  151.4417  144.9304  159.2884 H   0  0  0  0  0  0  0  0  0  0  0  0
  153.3180  143.4382  160.5774 H   0  0  0  0  0  0  0  0  0  0  0  0
  151.6198  142.9774  160.6936 H   0  0  0  0  0  0  0  0  0  0  0  0
  152.3899  140.9453  159.8281 H   0  0  0  0  0  0  0  0  0  0  0  0
  153.7596  141.6952  158.9993 H   0  0  0  0  0  0  0  0  0  0  0  0
  149.5089  140.7530  158.2723 H   0  0  0  0  0  0  0  0  0  0  0  0
  148.7413  138.7839  157.0496 H   0  0  0  0  0  0  0  0  0  0  0  0
  150.5996  137.4249  154.1733 H   0  0  0  0  0  0  0  0  0  0  0  0
  149.9711  135.6120  153.6286 H   0  0  0  0  0  0  0  0  0  0  0  0
  147.7775  134.2066  154.7080 H   0  0  0  0  0  0  0  0  0  0  0  0
  150.5232  133.1256  155.5191 H   0  0  0  0  0  0  0  0  0  0  0  0
  149.2603  133.6291  156.6191 H   0  0  0  0  0  0  0  0  0  0  0  0
  149.3288  131.1405  156.3261 H   0  0  0  0  0  0  0  0  0  0  0  0
  147.7838  131.7915  155.8385 H   0  0  0  0  0  0  0  0  0  0  0  0
  148.8086  131.4238  152.3007 H   0  0  0  0  0  0  0  0  0  0  0  0
  146.4886  132.1779  154.1494 H   0  0  0  0  0  0  0  0  0  0  0  0
  146.8384  129.9986  151.9691 H   0  0  0  0  0  0  0  0  0  0  0  0
  145.3485  130.3080  153.0024 H   0  0  0  0  0  0  0  0  0  0  0  0
  145.2021  132.6483  152.0852 H   0  0  0  0  0  0  0  0  0  0  0  0
  146.6921  132.3357  151.0532 H   0  0  0  0  0  0  0  0  0  0  0  0
  148.5233  133.9366  152.3852 H   0  0  0  0  0  0  0  0  0  0  0  0
  150.0730  133.3339  152.9169 H   0  0  0  0  0  0  0  0  0  0  0  0
  1  2  1  0  0  0  0
  1 26  1  0  0  0  0
  1 27  1  0  0  0  0
  1 28  1  0  0  0  0
  2 12  1  0  0  0  0
  2  3  2  0  0  0  0
  3  4  1  0  0  0  0
  4  5  1  0  0  0  0
  4 10  2  0  0  0  0
  5  9  1  0  0  0  0
  5  6  1  0  0  0  0
  6  7  1  0  0  0  0
  6 29  1  0  0  0  0
  6 30  1  0  0  0  0
  7  8  1  0  0  0  0
  7 31  1  0  0  0  0
  7 32  1  0  0  0  0
  8  9  1  0  0  0  0
  8 33  1  0  0  0  0
  8 34  1  0  0  0  0
  9 35  1  0  0  0  0
  9 36  1  0  0  0  0
 10 11  1  0  0  0  0
 10 37  1  0  0  0  0
 11 12  2  0  0  0  0
 11 38  1  0  0  0  0
 12 13  1  0  0  0  0
 13 14  1  0  0  0  0
 13 39  1  0  0  0  0
 14 15  2  0  0  0  0
 14 16  1  0  0  0  0
 16 17  1  0  0  0  0
 16 40  1  0  0  0  0
 17 25  1  0  0  0  0
 17 18  1  0  0  0  0
 17 41  1  0  0  0  0
 18 19  1  0  0  0  0
 18 42  1  0  0  0  0
 18 43  1  0  0  0  0
 19 20  1  0  0  0  0
 19 44  1  0  0  0  0
 19 45  1  0  0  0  0
 20 21  1  0  0  0  0
 21 22  1  0  0  0  0
 21 25  1  0  0  0  0
 21 46  1  0  0  0  0
 22 24  1  0  0  0  0
 22 23  1  0  0  0  0
 22 47  1  0  0  0  0
 23 24  1  0  0  0  0
 23 48  1  0  0  0  0
 23 49  1  0  0  0  0
 24 50  1  0  0  0  0
 24 51  1  0  0  0  0
 25 52  1  0  0  0  0
 25 53  1  0  0  0  0
M  END
> <s_m_source_file>
AV-unprocessed.smi

> <i_m_source_file_index>
2356

> <i_lp_mmshare_version>
43012

> <i_f3d_flags>
0

> <s_epik_input>
W0NIMl0xW0NIMl1bQ0gyXVtDSDJdTjFjKG5jMltDSDNdKVtjSF1bY0hdYzJbTkhdQyg9TylbTkhdW0NAQEhdM1tDSDJdW0NIMl1PW0NASF0oW0NIMl0zKVtDSF00W0NIMl1bQ0gyXTQ=

> <s_epik_cmdline>
J2VwaWtfcHl0aG9uJywgJy1waCcsICc3LjAnLCAnLXRuJywgJzgnLCAnLW1hJywgJzIwMCcsICctbWV0YWxfYmluZGluZycsICctaW1hZScsICc8aW5maWxlLm1hZT4nLCAnLW9tYWUnLCAnPG91dGZpbGUubWFlPic=

> <r_lp_tautomer_probability>
1

> <r_epik_Ionization_Penalty>
0.308781

> <r_epik_Ionization_Penalty_Charging>
0

> <r_epik_Ionization_Penalty_Neutral>
0.308781

> <r_epik_State_Penalty>
0.302092

> <r_epik_Charging_Adjusted_Penalty>
0.302092

> <i_epik_Tot_Q>
0

> <i_epik_Tot_abs_Q>
0

> <r_epik_Metal_State_Penalty>
0.197467

> <b_epik_Metal_Only>
0

> <s_lp_Force_Field>
OPLS_2005

> <r_lp_Energy>
55.4092

> <b_lp_Chiralities_Consistent>
1

> <s_lp_Variant>
AV-unprocessed.smi:2356-1

> <Gold.Version>
5.8.1

> <Gold.Id.Protein>
6NUR|6NUR_protein|mol2

> <Gold.PLP.Fitness>
43.1035

> <Gold.PLP.PLP>
-42.7358

> <Gold.PLP.part.hbond>
-2.0000

> <Gold.PLP.part.metal>
0.0000

> <Gold.PLP.part.buried>
-3.3066

> <Gold.PLP.part.nonpolar>
-37.1595

> <Gold.PLP.part.repulsive>
0.1420

> <Gold.PLP.ligand.clash>
0.0000

> <Gold.PLP.ligand.torsion>
2.1610

> <Gold.PLP.Chemscore.Hbond>
1.1476

> <Gold.PLP.Chemscore.CHOScore>
0.0000

> <Gold.PLP.Chemscore.Metal>
0.0000

> <Gold.Chemscore.Hbonds>
donor molecule, donor type, donor heavy atom, donor atom, acceptor molecule, acceptor atom, score
      L1  H    16    40       P1  7948  0.20
      P1  H  7997  8010       L1     3  0.96

> <Gold.PLP.Chemscore.Internal.Correction>
1.2471

> <Gold.Rescore>
     Score         DG    S(hbond)    S(metal)    S(lipo)     H(rot)  DE(clash)    DE(int)     intcor
     16.55     -19.10       0.86        0.00     116.87       1.14       0.36       2.18       ----

> <Gold.Chemscore.Fitness>
16.5487

> <Gold.Chemscore.DG>
-19.0952

> <Gold.Chemscore.ZeroCoef>
-5.4800

> <Gold.Chemscore.Hbond>
0.8560

> <Gold.Chemscore.Metal>
0.0000

> <Gold.Chemscore.Lipo>
116.8666

> <Gold.Chemscore.Internal_Hbond>
0.0000

> <Gold.Chemscore.DEClash>
0.3648

> <Gold.Chemscore.DEInternal>
2.1817

> <Gold.Chemscore.Rot>
1.1395

> <Gold.Chemscore.Internal.Correction>
   9.000000E+99

> <Gold.Chemscore.Hbonds>
donor molecule, donor type, donor heavy atom, donor atom, acceptor molecule, acceptor atom, score
      L1  H    16    40       P1  7948  0.01
      P1  H  7997  8010       L1     3  0.49

> <Gold.Chemscore.Hbond.Weighted>
-2.8590

> <Gold.Chemscore.Metal.Weighted>
-0.0000

> <Gold.Chemscore.Lipo.Weighted>
-13.6734

> <Gold.Chemscore.Internal_Hbond.Weighted>
0.0000

> <Gold.Chemscore.DEClash.Weighted>
0.3648

> <Gold.Chemscore.DEInternal.Weighted>
2.1817

> <Gold.Chemscore.Rot.Weighted>
2.9171

> <Gold.Chemscore.Internal.Correction.Weighted>
   9.000000E+99

> <Gold.Protein.RotatedTorsions>
[ 6907 6896 6895 6894 ] final  138.12 input  -60.11 | X-H torsion
[ 7974 7965 7964 7962 ] final -140.74 input  175.53 | X-H torsion
[ 8008 7997 7996 7995 ] final   74.76 input   59.86 | X-H torsion
[ 10167 10162 10161 10158 ] final -148.66 input  -65.29 | X-H torsion
[ 10718 10713 10712 10709 ] final  124.92 input   66.30 | X-H torsion
[ 10763 10752 10751 10750 ] final -106.79 input  -60.55 | X-H torsion
[ 11005 11000 10999 10996 ] final  156.39 input  -57.11 | X-H torsion

> <Gold.Protein.ActiveResidues>
 VAL166  LYS551  ARG553  GLY616  TRP617  ASP618  TYR619  PRO620  LYS621  CYS622 
 ASP623  PHE694  ASN695  SER759  ASP760  ASP761  ALA762  ILE779  LEU786  VAL792 
 PHE793  MET794  SER795  GLU796  ALA797  LYS798  CYS799  TRP800  GLU811  SER814 

> <Gold.Protein.RotatedAtoms>
  152.2702  133.5376  159.5434 H   0  0  0  0  0  0  0  0  0  0  0  0  # atno 6907 bound_to 6896
  150.7156  134.0708  159.3872 H   0  0  0  0  0  0  0  0  0  0  0  0  # atno 6908 bound_to 6896
  151.8623  135.0520  160.0521 H   0  0  0  0  0  0  0  0  0  0  0  0  # atno 6909 bound_to 6896
  144.8573  140.6164  143.5351 H   0  0  0  0  0  0  0  0  0  0  0  0  # atno 7974 bound_to 7965
  155.8030  140.3475  155.5413 H   0  0  0  0  0  0  0  0  0  0  0  0  # atno 8008 bound_to 7997
  155.8519  140.0957  157.1690 H   0  0  0  0  0  0  0  0  0  0  0  0  # atno 8009 bound_to 7997
  154.4008  140.1375  156.3841 H   0  0  0  0  0  0  0  0  0  0  0  0  # atno 8010 bound_to 7997
  139.7512  143.8516  152.2587 H   0  0  0  0  0  0  0  0  0  0  0  0  # atno 10167 bound_to 10162
  157.5546  131.1092  150.8644 H   0  0  0  0  0  0  0  0  0  0  0  0  # atno 10718 bound_to 10713
  154.8034  135.4699  154.0333 H   0  0  0  0  0  0  0  0  0  0  0  0  # atno 10763 bound_to 10752
  153.1820  135.6842  153.8472 H   0  0  0  0  0  0  0  0  0  0  0  0  # atno 10764 bound_to 10752
  153.8019  135.3229  155.3368 H   0  0  0  0  0  0  0  0  0  0  0  0  # atno 10765 bound_to 10752
  140.1671  134.8569  157.2645 H   0  0  0  0  0  0  0  0  0  0  0  0  # atno 11005 bound_to 11000
  145.4380  139.1539  143.3986 LP  0  0  0  0  0  0  0  0  0  0  0  0  # atno 17320 bound_to 7965
  146.2833  140.4500  142.8767 LP  0  0  0  0  0  0  0  0  0  0  0  0  # atno 17321 bound_to 7965
  139.8494  144.7171  150.9232 LP  0  0  0  0  0  0  0  0  0  0  0  0  # atno 17342 bound_to 10162
  140.7798  143.3912  151.1307 LP  0  0  0  0  0  0  0  0  0  0  0  0  # atno 17343 bound_to 10162
  156.9159  130.5297  149.5279 LP  0  0  0  0  0  0  0  0  0  0  0  0  # atno 17370 bound_to 10713
  156.0607  130.5660  150.9186 LP  0  0  0  0  0  0  0  0  0  0  0  0  # atno 17371 bound_to 10713
  140.2421  134.3783  155.7476 LP  0  0  0  0  0  0  0  0  0  0  0  0  # atno 17394 bound_to 11000
  141.2214  133.7271  156.8805 LP  0  0  0  0  0  0  0  0  0  0  0  0  # atno 17395 bound_to 11000

$$$$
