AV-unprocessed.smi:2199|AV-procd|sdf|8924|dock3
  -GOLD-   2272012143D 1   1.00000     0.00000
 Structure written by MMmdl.
 25 26  0  0  0  0  0  0  0  0  2 V2000
  151.8610  141.4454  157.4413 O   0  0  0  0  0  0  0  0  0  0  0  0
  151.0184  142.0942  156.8193 C   0  0  0  0  0  0  0  0  0  0  0  0
  150.0040  141.3872  155.9100 C   0  0  0  0  0  0  0  0  0  0  0  0
  150.3067  139.9595  155.7191 N   0  0  0  0  0  0  0  0  0  0  0  0
  150.4357  139.4883  154.4007 C   0  0  0  0  0  0  0  0  0  0  0  0
  150.7036  138.1963  154.1311 C   0  0  0  0  0  0  0  0  0  0  0  0
  150.8615  137.2760  155.2506 C   0  0  0  0  0  0  0  0  0  0  0  0
  151.1103  136.0936  155.0232 O   0  0  0  0  0  0  0  0  0  0  0  0
  150.7236  137.7809  156.5116 N   0  5  0  0  0  0  0  0  0  0  0  0
  150.4474  139.0968  156.7705 C   0  0  0  0  0  0  0  0  0  0  0  0
  150.3222  139.5308  157.9163 O   0  0  0  0  0  0  0  0  0  0  0  0
  150.9032  143.4275  156.9048 N   0  0  0  0  0  0  0  0  0  0  0  0
  151.7317  144.2826  157.6912 C   0  0  0  0  0  0  0  0  0  0  0  0
  151.9346  143.9217  159.1469 C   0  0  0  0  0  0  0  0  0  0  0  0
  151.0670  145.0946  158.7818 C   0  0  0  0  0  0  0  0  0  0  0  0
  149.0128  141.5107  156.3482 H   0  0  0  0  0  0  0  0  0  0  0  0
  149.9540  141.8927  154.9437 H   0  0  0  0  0  0  0  0  0  0  0  0
  150.2976  140.2327  153.6305 H   0  0  0  0  0  0  0  0  0  0  0  0
  150.7960  137.8489  153.1127 H   0  0  0  0  0  0  0  0  0  0  0  0
  150.1794  143.8720  156.3589 H   0  0  0  0  0  0  0  0  0  0  0  0
  152.5777  144.7552  157.1938 H   0  0  0  0  0  0  0  0  0  0  0  0
  151.4394  143.0291  159.5245 H   0  0  0  0  0  0  0  0  0  0  0  0
  152.9079  144.1341  159.5845 H   0  0  0  0  0  0  0  0  0  0  0  0
  151.4605  146.0902  158.9764 H   0  0  0  0  0  0  0  0  0  0  0  0
  149.9923  144.9850  158.9142 H   0  0  0  0  0  0  0  0  0  0  0  0
  1  2  2  0  0  0  0
  2  3  1  0  0  0  0
  2 12  1  0  0  0  0
  3  4  1  0  0  0  0
  3 16  1  0  0  0  0
  3 17  1  0  0  0  0
  4 10  1  0  0  0  0
  4  5  1  0  0  0  0
  5  6  2  0  0  0  0
  5 18  1  0  0  0  0
  6  7  1  0  0  0  0
  6 19  1  0  0  0  0
  7  8  2  0  0  0  0
  7  9  1  0  0  0  0
  9 10  1  0  0  0  0
 10 11  2  0  0  0  0
 12 13  1  0  0  0  0
 12 20  1  0  0  0  0
 13 15  1  0  0  0  0
 13 14  1  0  0  0  0
 13 21  1  0  0  0  0
 14 15  1  0  0  0  0
 14 22  1  0  0  0  0
 14 23  1  0  0  0  0
 15 24  1  0  0  0  0
 15 25  1  0  0  0  0
M  CHG  1   9  -1
M  END
> <s_m_source_file>
AV-unprocessed.smi

> <i_m_source_file_index>
2199

> <i_lp_mmshare_version>
43012

> <i_f3d_flags>
0

> <s_epik_input>
W0NIMl0xW0NIMl1bQ0hdMVtOSF1DKD1PKVtDSDJdbjJbY0hdW2NIXWMoPU8pW25IXWMyPU8=

> <s_epik_cmdline>
J2VwaWtfcHl0aG9uJywgJy1waCcsICc3LjAnLCAnLXRuJywgJzgnLCAnLW1hJywgJzIwMCcsICctbWV0YWxfYmluZGluZycsICctaW1hZScsICc8aW5maWxlLm1hZT4nLCAnLW9tYWUnLCAnPG91dGZpbGUubWFlPic=

> <r_lp_tautomer_probability>
0.999537

> <r_epik_Ionization_Penalty>
3.07884

> <r_epik_Ionization_Penalty_Charging>
2.69291e-08

> <r_epik_Ionization_Penalty_Neutral>
3.07884

> <r_epik_State_Penalty>
3.07787

> <r_epik_Charging_Adjusted_Penalty>
3.07787

> <i_epik_Tot_Q>
-1

> <i_epik_Tot_abs_Q>
1

> <r_epik_Metal_State_Penalty>
0.459857

> <b_epik_Metal_Only>
1

> <s_lp_Force_Field>
OPLS_2005

> <r_lp_Energy>
24.3409

> <b_lp_Chiralities_Consistent>
1

> <s_lp_Variant>
AV-unprocessed.smi:2199-2

> <Gold.Version>
5.8.1

> <Gold.Id.Protein>
6NUR|6NUR_protein|mol2

> <Gold.PLP.Fitness>
37.2057

> <Gold.PLP.PLP>
-28.7114

> <Gold.PLP.part.hbond>
-2.0000

> <Gold.PLP.part.metal>
0.0000

> <Gold.PLP.part.buried>
-1.9260

> <Gold.PLP.part.nonpolar>
-25.0012

> <Gold.PLP.part.repulsive>
0.1764

> <Gold.PLP.ligand.clash>
0.0000

> <Gold.PLP.ligand.torsion>
0.1368

> <Gold.PLP.Chemscore.Hbond>
1.9760

> <Gold.PLP.Chemscore.CHOScore>
0.9346

> <Gold.PLP.Chemscore.Metal>
0.0000

> <Gold.Chemscore.Hbonds>
donor molecule, donor type, donor heavy atom, donor atom, acceptor molecule, acceptor atom, score
      L1  H    12    20       P1  8028  1.00
      P1  H 10752 10765       L1     8  0.94
      L1  C     5    18       P1  7957  0.92

> <Gold.PLP.Chemscore.Internal.Correction>
0.0360

> <Gold.Rescore>
     Score         DG    S(hbond)    S(metal)    S(lipo)     H(rot)  DE(clash)    DE(int)     intcor
      8.94     -14.65       1.93        0.00      61.60       1.75       0.41       5.30       ----

> <Gold.Chemscore.Fitness>
8.9422

> <Gold.Chemscore.DG>
-14.6532

> <Gold.Chemscore.ZeroCoef>
-5.4800

> <Gold.Chemscore.Hbond>
1.9298

> <Gold.Chemscore.Metal>
0.0000

> <Gold.Chemscore.Lipo>
61.6027

> <Gold.Chemscore.Internal_Hbond>
0.0000

> <Gold.Chemscore.DEClash>
0.4104

> <Gold.Chemscore.DEInternal>
5.3006

> <Gold.Chemscore.Rot>
1.7499

> <Gold.Chemscore.Internal.Correction>
   9.000000E+99

> <Gold.Chemscore.Hbonds>
donor molecule, donor type, donor heavy atom, donor atom, acceptor molecule, acceptor atom, score
      L1  H    12    20       P1  8028  1.00
      P1  H 10752 10765       L1     8  0.82

> <Gold.Chemscore.Hbond.Weighted>
-6.4455

> <Gold.Chemscore.Metal.Weighted>
-0.0000

> <Gold.Chemscore.Lipo.Weighted>
-7.2075

> <Gold.Chemscore.Internal_Hbond.Weighted>
0.0000

> <Gold.Chemscore.DEClash.Weighted>
0.4104

> <Gold.Chemscore.DEInternal.Weighted>
5.3006

> <Gold.Chemscore.Rot.Weighted>
4.4798

> <Gold.Chemscore.Internal.Correction.Weighted>
   9.000000E+99

> <Gold.Protein.RotatedTorsions>
[ 6907 6896 6895 6894 ] final -112.86 input  -60.11 | X-H torsion
[ 7974 7965 7964 7962 ] final  166.26 input  175.53 | X-H torsion
[ 8008 7997 7996 7995 ] final   54.85 input   59.86 | X-H torsion
[ 10167 10162 10161 10158 ] final   33.86 input  -65.29 | X-H torsion
[ 10718 10713 10712 10709 ] final  -92.28 input   66.30 | X-H torsion
[ 10763 10752 10751 10750 ] final  158.09 input  -60.55 | X-H torsion
[ 11005 11000 10999 10996 ] final -152.03 input  -57.11 | X-H torsion

> <Gold.Protein.ActiveResidues>
 VAL166  LYS551  ARG553  GLY616  TRP617  ASP618  TYR619  PRO620  LYS621  CYS622 
 ASP623  PHE694  ASN695  SER759  ASP760  ASP761  ALA762  ILE779  LEU786  VAL792 
 PHE793  MET794  SER795  GLU796  ALA797  LYS798  CYS799  TRP800  GLU811  SER814 

> <Gold.Protein.RotatedAtoms>
  150.7788  133.9029  159.3346 H   0  0  0  0  0  0  0  0  0  0  0  0  # atno 6907 bound_to 6896
  151.6897  135.0946  160.0241 H   0  0  0  0  0  0  0  0  0  0  0  0  # atno 6908 bound_to 6896
  152.3832  133.6537  159.6213 H   0  0  0  0  0  0  0  0  0  0  0  0  # atno 6909 bound_to 6896
  144.7469  139.8590  143.6379 H   0  0  0  0  0  0  0  0  0  0  0  0  # atno 7974 bound_to 7965
  155.4915  140.3471  155.4356 H   0  0  0  0  0  0  0  0  0  0  0  0  # atno 8008 bound_to 7997
  156.0974  140.1426  156.9541 H   0  0  0  0  0  0  0  0  0  0  0  0  # atno 8009 bound_to 7997
  154.4672  140.0913  156.7028 H   0  0  0  0  0  0  0  0  0  0  0  0  # atno 8010 bound_to 7997
  140.4368  144.1245  150.6167 H   0  0  0  0  0  0  0  0  0  0  0  0  # atno 10167 bound_to 10162
  156.0001  130.4981  150.5601 H   0  0  0  0  0  0  0  0  0  0  0  0  # atno 10718 bound_to 10713
  154.2106  135.2786  155.2960 H   0  0  0  0  0  0  0  0  0  0  0  0  # atno 10763 bound_to 10752
  154.5782  135.5597  153.7163 H   0  0  0  0  0  0  0  0  0  0  0  0  # atno 10764 bound_to 10752
  153.0065  135.6338  154.2245 H   0  0  0  0  0  0  0  0  0  0  0  0  # atno 10765 bound_to 10752
  140.7232  134.3704  157.5180 H   0  0  0  0  0  0  0  0  0  0  0  0  # atno 11005 bound_to 11000
  146.1362  139.4408  143.0138 LP  0  0  0  0  0  0  0  0  0  0  0  0  # atno 17320 bound_to 7965
  145.7088  141.0113  143.1464 LP  0  0  0  0  0  0  0  0  0  0  0  0  # atno 17321 bound_to 7965
  140.4364  143.2545  151.9530 LP  0  0  0  0  0  0  0  0  0  0  0  0  # atno 17342 bound_to 10162
  139.4787  144.5696  151.8110 LP  0  0  0  0  0  0  0  0  0  0  0  0  # atno 17343 bound_to 10162
  157.3512  131.0734  151.1712 LP  0  0  0  0  0  0  0  0  0  0  0  0  # atno 17370 bound_to 10713
  157.2528  130.6622  149.5939 LP  0  0  0  0  0  0  0  0  0  0  0  0  # atno 17371 bound_to 10713
  139.8843  134.8969  156.2711 LP  0  0  0  0  0  0  0  0  0  0  0  0  # atno 17394 bound_to 11000
  140.9985  133.7165  156.0924 LP  0  0  0  0  0  0  0  0  0  0  0  0  # atno 17395 bound_to 11000

$$$$
