AV-unprocessed.smi:2124|AV-procd|sdf|8669|dock7
  -GOLD-   2272011423D 1   1.00000     0.00000
 Structure written by MMmdl.
 46 48  0  0  0  0  0  0  0  0  2 V2000
  147.5750  136.4938  160.5636 C   0  0  0  0  0  0  0  0  0  0  0  0
  148.3322  136.9506  159.3353 C   0  0  0  0  0  0  0  0  0  0  0  0
  147.8645  137.9133  158.6361 N   0  0  0  0  0  0  0  0  0  0  0  0
  148.5644  138.3434  157.4961 C   0  0  0  0  0  0  0  0  0  0  0  0
  147.9374  139.4938  156.7277 C   0  0  0  0  0  0  0  0  0  0  0  0
  149.7345  137.7516  157.1212 C   0  0  0  0  0  0  0  0  0  0  0  0
  150.5360  138.1840  155.8934 C   0  0  0  0  0  0  0  0  0  0  0  0
  150.8005  139.6847  155.7454 C   0  0  0  0  0  0  0  0  0  0  0  0
  150.7799  140.2207  154.6373 O   0  0  0  0  0  0  0  0  0  0  0  0
  151.0398  140.3475  156.8896 N   0  0  0  0  0  0  0  0  0  0  0  0
  151.2953  141.7816  157.0553 C   0  0  1  0  0  0  0  0  0  0  0  0
  150.3701  142.6062  156.1382 C   0  0  0  0  0  0  0  0  0  0  0  0
  151.2363  142.2211  158.5444 C   0  0  1  0  0  0  0  0  0  0  0  0
  152.2583  141.4978  159.4580 C   0  0  0  0  0  0  0  0  0  0  0  0
  152.9944  142.6553  160.1545 C   0  0  2  0  0  0  0  0  0  0  0  0
  152.0397  143.3619  161.1338 C   0  0  0  0  0  0  0  0  0  0  0  0
  151.0868  144.1184  160.1900 C   0  0  0  0  0  0  0  0  0  0  0  0
  151.5943  143.7084  158.7940 C   0  0  1  0  0  0  0  0  0  0  0  0
  153.1020  143.6685  159.0236 C   0  0  0  0  0  0  0  0  0  0  0  0
  150.2360  136.6414  157.9504 C   0  0  0  0  0  0  0  0  0  0  0  0
  151.2791  136.0628  157.6480 O   0  0  0  0  0  0  0  0  0  0  0  0
  149.5040  136.2885  159.0455 N   0  5  0  0  0  0  0  0  0  0  0  0
  146.5617  136.8981  160.5722 H   0  0  0  0  0  0  0  0  0  0  0  0
  148.0868  136.8289  161.4659 H   0  0  0  0  0  0  0  0  0  0  0  0
  147.5059  135.4057  160.5882 H   0  0  0  0  0  0  0  0  0  0  0  0
  148.5772  140.3750  156.7723 H   0  0  0  0  0  0  0  0  0  0  0  0
  146.9663  139.7633  157.1441 H   0  0  0  0  0  0  0  0  0  0  0  0
  147.7882  139.2242  155.6822 H   0  0  0  0  0  0  0  0  0  0  0  0
  151.5014  137.6784  155.9185 H   0  0  0  0  0  0  0  0  0  0  0  0
  150.0598  137.8238  154.9808 H   0  0  0  0  0  0  0  0  0  0  0  0
  151.0351  139.8019  157.7390 H   0  0  0  0  0  0  0  0  0  0  0  0
  152.3152  141.9281  156.6992 H   0  0  0  0  0  0  0  0  0  0  0  0
  150.6778  143.6499  156.0903 H   0  0  0  0  0  0  0  0  0  0  0  0
  149.3360  142.5850  156.4825 H   0  0  0  0  0  0  0  0  0  0  0  0
  150.3875  142.2220  155.1178 H   0  0  0  0  0  0  0  0  0  0  0  0
  150.2275  142.0340  158.9149 H   0  0  0  0  0  0  0  0  0  0  0  0
  151.7750  140.8236  160.1660 H   0  0  0  0  0  0  0  0  0  0  0  0
  152.9698  140.9089  158.8781 H   0  0  0  0  0  0  0  0  0  0  0  0
  153.9441  142.3620  160.6030 H   0  0  0  0  0  0  0  0  0  0  0  0
  151.5142  142.6562  161.7782 H   0  0  0  0  0  0  0  0  0  0  0  0
  152.5816  144.0605  161.7723 H   0  0  0  0  0  0  0  0  0  0  0  0
  150.0409  143.8545  160.3514 H   0  0  0  0  0  0  0  0  0  0  0  0
  151.1825  145.1955  160.3341 H   0  0  0  0  0  0  0  0  0  0  0  0
  151.2721  144.3943  158.0117 H   0  0  0  0  0  0  0  0  0  0  0  0
  153.5175  144.6270  159.3400 H   0  0  0  0  0  0  0  0  0  0  0  0
  153.6664  143.3020  158.1648 H   0  0  0  0  0  0  0  0  0  0  0  0
  1  2  1  0  0  0  0
  1 23  1  0  0  0  0
  1 24  1  0  0  0  0
  1 25  1  0  0  0  0
  2 22  1  0  0  0  0
  2  3  2  0  0  0  0
  3  4  1  0  0  0  0
  4  5  1  0  0  0  0
  4  6  2  0  0  0  0
  5 26  1  0  0  0  0
  5 27  1  0  0  0  0
  5 28  1  0  0  0  0
  6  7  1  0  0  0  0
  6 20  1  0  0  0  0
  7  8  1  0  0  0  0
  7 29  1  0  0  0  0
  7 30  1  0  0  0  0
  8  9  2  0  0  0  0
  8 10  1  0  0  0  0
 10 11  1  0  0  0  0
 10 31  1  0  0  0  0
 11 12  1  0  0  0  0
 11 13  1  0  0  0  0
 11 32  1  0  0  0  0
 12 33  1  0  0  0  0
 12 34  1  0  0  0  0
 12 35  1  0  0  0  0
 13 18  1  0  0  0  0
 13 14  1  0  0  0  0
 13 36  1  0  0  0  0
 14 15  1  0  0  0  0
 14 37  1  0  0  0  0
 14 38  1  0  0  0  0
 15 19  1  0  0  0  0
 15 16  1  0  0  0  0
 15 39  1  0  0  0  0
 16 17  1  0  0  0  0
 16 40  1  0  0  0  0
 16 41  1  0  0  0  0
 17 18  1  0  0  0  0
 17 42  1  0  0  0  0
 17 43  1  0  0  0  0
 18 19  1  0  0  0  0
 18 44  1  0  0  0  0
 19 45  1  0  0  0  0
 19 46  1  0  0  0  0
 20 21  2  0  0  0  0
 20 22  1  0  0  0  0
M  CHG  1  22  -1
M  END
> <s_m_source_file>
AV-unprocessed.smi

> <i_m_source_file_index>
2124

> <i_lp_mmshare_version>
43012

> <i_f3d_flags>
0

> <s_epik_input>
W0NIM11jMW5jKFtDSDNdKWMoYyg9TylbbkhdMSlbQ0gyXUMoPU8pW05IXVtDQEhdKFtDSDNdKVtDQEhdKFtDSDJdW0NASF0yMylbQ0BIXShbQ0gyXTMpW0NIMl1bQ0gyXTI=

> <s_epik_cmdline>
J2VwaWtfcHl0aG9uJywgJy1waCcsICc3LjAnLCAnLXRuJywgJzgnLCAnLW1hJywgJzIwMCcsICctbWV0YWxfYmluZGluZycsICctaW1hZScsICc8aW5maWxlLm1hZT4nLCAnLW9tYWUnLCAnPG91dGZpbGUubWFlPic=

> <r_lp_tautomer_probability>
0.839158

> <r_epik_Ionization_Penalty>
6.63797

> <r_epik_Ionization_Penalty_Charging>
7.48558e-08

> <r_epik_Ionization_Penalty_Neutral>
6.63797

> <r_epik_State_Penalty>
4.49496

> <r_epik_Charging_Adjusted_Penalty>
4.49496

> <i_epik_Tot_Q>
-1

> <i_epik_Tot_abs_Q>
1

> <r_epik_Metal_State_Penalty>
0.841241

> <b_epik_Metal_Only>
1

> <s_lp_Force_Field>
OPLS_2005

> <r_lp_Energy>
56.2785

> <b_lp_Chiralities_Consistent>
1

> <s_lp_Variant>
AV-unprocessed.smi:2124-20

> <Gold.Version>
5.8.1

> <Gold.Id.Protein>
6NUR|6NUR_protein|mol2

> <Gold.PLP.Fitness>
44.5341

> <Gold.PLP.PLP>
-36.7767

> <Gold.PLP.part.hbond>
-3.8212

> <Gold.PLP.part.metal>
0.0000

> <Gold.PLP.part.buried>
-2.3601

> <Gold.PLP.part.nonpolar>
-31.3172

> <Gold.PLP.part.repulsive>
0.1504

> <Gold.PLP.ligand.clash>
0.0000

> <Gold.PLP.ligand.torsion>
0.6498

> <Gold.PLP.Chemscore.Hbond>
3.0000

> <Gold.PLP.Chemscore.CHOScore>
0.0000

> <Gold.PLP.Chemscore.Metal>
0.0000

> <Gold.Chemscore.Hbonds>
donor molecule, donor type, donor heavy atom, donor atom, acceptor molecule, acceptor atom, score
      P1  H  6896  6909       L1    22  1.48
      P1  H  7989  7998       L1     9  1.00

> <Gold.PLP.Chemscore.Internal.Correction>
0.0570

> <Gold.Rescore>
     Score         DG    S(hbond)    S(metal)    S(lipo)     H(rot)  DE(clash)    DE(int)     intcor
     17.78     -20.80       1.89        0.00     112.07       1.61       1.60       1.42       ----

> <Gold.Chemscore.Fitness>
17.7773

> <Gold.Chemscore.DG>
-20.7956

> <Gold.Chemscore.ZeroCoef>
-5.4800

> <Gold.Chemscore.Hbond>
1.8899

> <Gold.Chemscore.Metal>
0.0000

> <Gold.Chemscore.Lipo>
112.0705

> <Gold.Chemscore.Internal_Hbond>
0.0000

> <Gold.Chemscore.DEClash>
1.5974

> <Gold.Chemscore.DEInternal>
1.4209

> <Gold.Chemscore.Rot>
1.6051

> <Gold.Chemscore.Internal.Correction>
   9.000000E+99

> <Gold.Chemscore.Hbonds>
donor molecule, donor type, donor heavy atom, donor atom, acceptor molecule, acceptor atom, score
      P1  H  6896  6909       L1    22  0.10
      P1  H  7989  7998       L1     9  0.96

> <Gold.Chemscore.Hbond.Weighted>
-6.3123

> <Gold.Chemscore.Metal.Weighted>
-0.0000

> <Gold.Chemscore.Lipo.Weighted>
-13.1122

> <Gold.Chemscore.Internal_Hbond.Weighted>
0.0000

> <Gold.Chemscore.DEClash.Weighted>
1.5974

> <Gold.Chemscore.DEInternal.Weighted>
1.4209

> <Gold.Chemscore.Rot.Weighted>
4.1090

> <Gold.Chemscore.Internal.Correction.Weighted>
   9.000000E+99

> <Gold.Protein.RotatedTorsions>
[ 6907 6896 6895 6894 ] final   61.90 input  -60.11 | X-H torsion
[ 7974 7965 7964 7962 ] final   20.78 input  175.53 | X-H torsion
[ 8008 7997 7996 7995 ] final  165.83 input   59.86 | X-H torsion
[ 10167 10162 10161 10158 ] final  174.87 input  -65.29 | X-H torsion
[ 10718 10713 10712 10709 ] final -175.07 input   66.30 | X-H torsion
[ 10763 10752 10751 10750 ] final   -2.44 input  -60.55 | X-H torsion
[ 11005 11000 10999 10996 ] final -131.38 input  -57.11 | X-H torsion

> <Gold.Protein.ActiveResidues>
 VAL166  LYS551  ARG553  GLY616  TRP617  ASP618  TYR619  PRO620  LYS621  CYS622 
 ASP623  PHE694  ASN695  SER759  ASP760  ASP761  ALA762  ILE779  LEU786  VAL792 
 PHE793  MET794  SER795  GLU796  ALA797  LYS798  CYS799  TRP800  GLU811  SER814 

> <Gold.Protein.RotatedAtoms>
  152.4127  134.6096  160.0021 H   0  0  0  0  0  0  0  0  0  0  0  0  # atno 6907 bound_to 6896
  151.6268  133.3329  159.3108 H   0  0  0  0  0  0  0  0  0  0  0  0  # atno 6908 bound_to 6896
  150.8017  134.7155  159.6673 H   0  0  0  0  0  0  0  0  0  0  0  0  # atno 6909 bound_to 6896
  146.2098  139.8121  142.8698 H   0  0  0  0  0  0  0  0  0  0  0  0  # atno 7974 bound_to 7965
  156.1768  140.1659  156.8348 H   0  0  0  0  0  0  0  0  0  0  0  0  # atno 8008 bound_to 7997
  154.5316  140.0755  156.8388 H   0  0  0  0  0  0  0  0  0  0  0  0  # atno 8009 bound_to 7997
  155.3396  140.3384  155.4241 H   0  0  0  0  0  0  0  0  0  0  0  0  # atno 8010 bound_to 7997
  139.5157  144.3097  152.0303 H   0  0  0  0  0  0  0  0  0  0  0  0  # atno 10167 bound_to 10162
  156.7944  130.9529  151.3120 H   0  0  0  0  0  0  0  0  0  0  0  0  # atno 10718 bound_to 10713
  153.3580  135.6989  153.6735 H   0  0  0  0  0  0  0  0  0  0  0  0  # atno 10763 bound_to 10752
  153.5435  135.3568  155.2729 H   0  0  0  0  0  0  0  0  0  0  0  0  # atno 10764 bound_to 10752
  154.8664  135.4209  154.2831 H   0  0  0  0  0  0  0  0  0  0  0  0  # atno 10765 bound_to 10752
  140.9263  134.1378  157.4272 H   0  0  0  0  0  0  0  0  0  0  0  0  # atno 11005 bound_to 11000
  145.3185  141.0238  143.3514 LP  0  0  0  0  0  0  0  0  0  0  0  0  # atno 17320 bound_to 7965
  144.8884  139.4808  143.6689 LP  0  0  0  0  0  0  0  0  0  0  0  0  # atno 17321 bound_to 7965
  140.2542  144.4136  150.6210 LP  0  0  0  0  0  0  0  0  0  0  0  0  # atno 17342 bound_to 10162
  140.6203  143.2176  151.6708 LP  0  0  0  0  0  0  0  0  0  0  0  0  # atno 17343 bound_to 10162
  157.6585  130.8945  149.9779 LP  0  0  0  0  0  0  0  0  0  0  0  0  # atno 17370 bound_to 10713
  156.1139  130.3648  150.0001 LP  0  0  0  0  0  0  0  0  0  0  0  0  # atno 17371 bound_to 10713
  139.8786  134.9989  156.5927 LP  0  0  0  0  0  0  0  0  0  0  0  0  # atno 17394 bound_to 11000
  140.7921  133.8574  155.8655 LP  0  0  0  0  0  0  0  0  0  0  0  0  # atno 17395 bound_to 11000

$$$$
