AV-unprocessed.smi:1893|AV-procd|sdf|7677|dock10
  -GOLD-   22720 9413D 1   1.00000     0.00000
 Structure written by MMmdl.
 43 44  0  0  0  0  0  0  0  0  2 V2000
  143.5570  135.4735  152.0924 C   0  0  0  0  0  0  0  0  0  0  0  0
  145.0189  135.5731  151.6040 C   0  0  2  0  0  0  0  0  0  0  0  0
  145.4079  134.4052  150.6731 C   0  0  0  0  0  0  0  0  0  0  0  0
  145.5860  133.0877  151.4422 C   0  0  0  0  0  0  0  0  0  0  0  0
  146.5870  133.2798  152.5876 C   0  0  0  0  0  0  0  0  0  0  0  0
  146.1743  134.4484  153.4976 C   0  0  0  0  0  0  0  0  0  0  0  0
  146.0084  135.7042  152.7155 N   0  3  2  0  0  0  0  0  0  0  0  0
  145.7997  136.9084  153.5599 C   0  0  0  0  0  0  0  0  0  0  0  0
  146.9085  137.0827  154.6155 C   0  0  0  0  0  0  0  0  0  0  0  0
  148.0233  137.8589  154.0873 N   0  0  0  0  0  0  0  0  0  0  0  0
  148.3873  139.0761  154.5220 C   0  0  0  0  0  0  0  0  0  0  0  0
  147.7743  139.6803  155.4031 O   0  0  0  0  0  0  0  0  0  0  0  0
  149.6344  139.6902  153.8638 C   0  0  1  0  0  0  0  0  0  0  0  0
  149.4200  141.1472  153.4062 C   0  0  0  0  0  0  0  0  0  0  0  0
  150.7877  139.5651  154.7472 N   0  0  0  0  0  0  0  0  0  0  0  0
  151.5204  140.5092  155.3417 C   0  0  0  0  0  0  0  0  0  0  0  0
  152.5350  140.0364  156.0516 N   0  0  0  0  0  0  0  0  0  0  0  0
  152.3608  138.6988  155.8358 C   0  0  0  0  0  0  0  0  0  0  0  0
  151.3360  138.3625  155.0527 N   0  0  0  0  0  0  0  0  0  0  0  0
  142.8745  135.3964  151.2457 H   0  0  0  0  0  0  0  0  0  0  0  0
  143.2587  136.3557  152.6589 H   0  0  0  0  0  0  0  0  0  0  0  0
  143.3871  134.6024  152.7242 H   0  0  0  0  0  0  0  0  0  0  0  0
  145.0902  136.4829  151.0060 H   0  0  0  0  0  0  0  0  0  0  0  0
  144.6624  134.2818  149.8869 H   0  0  0  0  0  0  0  0  0  0  0  0
  146.3430  134.6483  150.1665 H   0  0  0  0  0  0  0  0  0  0  0  0
  144.6280  132.7499  151.8382 H   0  0  0  0  0  0  0  0  0  0  0  0
  145.9339  132.3046  150.7679 H   0  0  0  0  0  0  0  0  0  0  0  0
  146.6653  132.3623  153.1715 H   0  0  0  0  0  0  0  0  0  0  0  0
  147.5797  133.4705  152.1774 H   0  0  0  0  0  0  0  0  0  0  0  0
  145.2510  134.2102  154.0265 H   0  0  0  0  0  0  0  0  0  0  0  0
  146.9396  134.5794  154.2614 H   0  0  0  0  0  0  0  0  0  0  0  0
  145.7938  137.7921  152.9201 H   0  0  0  0  0  0  0  0  0  0  0  0
  144.8185  136.8654  154.0354 H   0  0  0  0  0  0  0  0  0  0  0  0
  146.5331  137.6094  155.4921 H   0  0  0  0  0  0  0  0  0  0  0  0
  147.2623  136.1109  154.9643 H   0  0  0  0  0  0  0  0  0  0  0  0
  148.5732  137.4318  153.3558 H   0  0  0  0  0  0  0  0  0  0  0  0
  149.8473  139.0988  152.9719 H   0  0  0  0  0  0  0  0  0  0  0  0
  148.6029  141.2184  152.6875 H   0  0  0  0  0  0  0  0  0  0  0  0
  150.3152  141.5364  152.9203 H   0  0  0  0  0  0  0  0  0  0  0  0
  149.1849  141.8084  154.2414 H   0  0  0  0  0  0  0  0  0  0  0  0
  151.3110  141.5650  155.2486 H   0  0  0  0  0  0  0  0  0  0  0  0
  153.0134  137.9510  156.2623 H   0  0  0  0  0  0  0  0  0  0  0  0
  146.8934  135.8566  152.2528 H   0  0  0  0  0  0  0  0  0  0  0  0
  1  2  1  0  0  0  0
  1 20  1  0  0  0  0
  1 21  1  0  0  0  0
  1 22  1  0  0  0  0
  2  7  1  0  0  0  0
  2  3  1  0  0  0  0
  2 23  1  0  0  0  0
  3  4  1  0  0  0  0
  3 24  1  0  0  0  0
  3 25  1  0  0  0  0
  4  5  1  0  0  0  0
  4 26  1  0  0  0  0
  4 27  1  0  0  0  0
  5  6  1  0  0  0  0
  5 28  1  0  0  0  0
  5 29  1  0  0  0  0
  6  7  1  0  0  0  0
  6 30  1  0  0  0  0
  6 31  1  0  0  0  0
  7  8  1  0  0  0  0
  7 43  1  0  0  0  0
  8  9  1  0  0  0  0
  8 32  1  0  0  0  0
  8 33  1  0  0  0  0
  9 10  1  0  0  0  0
  9 34  1  0  0  0  0
  9 35  1  0  0  0  0
 10 11  1  0  0  0  0
 10 36  1  0  0  0  0
 11 12  2  0  0  0  0
 11 13  1  0  0  0  0
 13 14  1  0  0  0  0
 13 15  1  0  0  0  0
 13 37  1  0  0  0  0
 14 38  1  0  0  0  0
 14 39  1  0  0  0  0
 14 40  1  0  0  0  0
 15 19  1  0  0  0  0
 15 16  1  0  0  0  0
 16 17  2  0  0  0  0
 16 41  1  0  0  0  0
 17 18  1  0  0  0  0
 18 19  2  0  0  0  0
 18 42  1  0  0  0  0
M  CHG  1   7   1
M  END
> <s_m_source_file>
AV-unprocessed.smi

> <i_m_source_file_index>
1893

> <i_lp_mmshare_version>
43012

> <i_f3d_flags>
0

> <s_epik_input>
W0NIM11bQ0BASF0xW0NIMl1bQ0gyXVtDSDJdW0NIMl1OMVtDSDJdW0NIMl1bTkhdQyg9TylbQ0BIXShbQ0gzXSluMltjSF1uW2NIXW4y

> <s_epik_cmdline>
J2VwaWtfcHl0aG9uJywgJy1waCcsICc3LjAnLCAnLXRuJywgJzgnLCAnLW1hJywgJzIwMCcsICctbWV0YWxfYmluZGluZycsICctaW1hZScsICc8aW5maWxlLm1hZT4nLCAnLW9tYWUnLCAnPG91dGZpbGUubWFlPic=

> <r_lp_tautomer_probability>
1

> <r_epik_Ionization_Penalty>
0.00266409

> <r_epik_Ionization_Penalty_Charging>
0.00265606

> <r_epik_Ionization_Penalty_Neutral>
8.02794e-06

> <r_epik_State_Penalty>
0.00184955

> <r_epik_Charging_Adjusted_Penalty>
0.00450561

> <i_epik_Tot_Q>
1

> <i_epik_Tot_abs_Q>
1

> <r_epik_Metal_State_Penalty>
-0

> <b_epik_Metal_Only>
0

> <s_lp_Force_Field>
OPLS_2005

> <r_lp_Energy>
24.5349

> <b_lp_Chiralities_Consistent>
1

> <s_lp_Variant>
AV-unprocessed.smi:1893-7

> <Gold.Version>
5.8.1

> <Gold.Id.Protein>
6NUR|6NUR_protein|mol2

> <Gold.PLP.Fitness>
41.6845

> <Gold.PLP.PLP>
-31.0437

> <Gold.PLP.part.hbond>
-3.0000

> <Gold.PLP.part.metal>
0.0000

> <Gold.PLP.part.buried>
-1.3878

> <Gold.PLP.part.nonpolar>
-26.7321

> <Gold.PLP.part.repulsive>
0.1063

> <Gold.PLP.ligand.clash>
0.0000

> <Gold.PLP.ligand.torsion>
0.7370

> <Gold.PLP.Chemscore.Hbond>
3.9920

> <Gold.PLP.Chemscore.CHOScore>
0.0000

> <Gold.PLP.Chemscore.Metal>
0.0000

> <Gold.Chemscore.Hbonds>
donor molecule, donor type, donor heavy atom, donor atom, acceptor molecule, acceptor atom, score
      L1  H     7    43       P1  7948  1.59
      L1  H    10    36       P1  7948  1.00
      P1  H  7997  8009       L1    17  1.00

> <Gold.PLP.Chemscore.Internal.Correction>
0.1388

> <Gold.Rescore>
     Score         DG    S(hbond)    S(metal)    S(lipo)     H(rot)  DE(clash)    DE(int)     intcor
     13.00     -13.88       2.69        0.00      50.56       2.54       0.53       0.35       ----

> <Gold.Chemscore.Fitness>
13.0018

> <Gold.Chemscore.DG>
-13.8794

> <Gold.Chemscore.ZeroCoef>
-5.4800

> <Gold.Chemscore.Hbond>
2.6887

> <Gold.Chemscore.Metal>
0.0000

> <Gold.Chemscore.Lipo>
50.5608

> <Gold.Chemscore.Internal_Hbond>
0.0000

> <Gold.Chemscore.DEClash>
0.5300

> <Gold.Chemscore.DEInternal>
0.3476

> <Gold.Chemscore.Rot>
2.5377

> <Gold.Chemscore.Internal.Correction>
   9.000000E+99

> <Gold.Chemscore.Hbonds>
donor molecule, donor type, donor heavy atom, donor atom, acceptor molecule, acceptor atom, score
      L1  H     7    43       P1  7948  0.79
      L1  H    10    36       P1  7948  0.98
      P1  H  7997  8009       L1    17  0.35

> <Gold.Chemscore.Hbond.Weighted>
-8.9804

> <Gold.Chemscore.Metal.Weighted>
-0.0000

> <Gold.Chemscore.Lipo.Weighted>
-5.9156

> <Gold.Chemscore.Internal_Hbond.Weighted>
0.0000

> <Gold.Chemscore.DEClash.Weighted>
0.5300

> <Gold.Chemscore.DEInternal.Weighted>
0.3476

> <Gold.Chemscore.Rot.Weighted>
6.4966

> <Gold.Chemscore.Internal.Correction.Weighted>
   9.000000E+99

> <Gold.Protein.RotatedTorsions>
[ 6907 6896 6895 6894 ] final   90.74 input  -60.11 | X-H torsion
[ 7974 7965 7964 7962 ] final   91.00 input  175.53 | X-H torsion
[ 8008 7997 7996 7995 ] final -157.68 input   59.86 | X-H torsion
[ 10167 10162 10161 10158 ] final  -55.10 input  -65.29 | X-H torsion
[ 10718 10713 10712 10709 ] final -151.65 input   66.30 | X-H torsion
[ 10763 10752 10751 10750 ] final -175.37 input  -60.55 | X-H torsion
[ 11005 11000 10999 10996 ] final   64.38 input  -57.11 | X-H torsion

> <Gold.Protein.ActiveResidues>
 VAL166  LYS551  ARG553  GLY616  TRP617  ASP618  TYR619  PRO620  LYS621  CYS622 
 ASP623  PHE694  ASN695  SER759  ASP760  ASP761  ALA762  ILE779  LEU786  VAL792 
 PHE793  MET794  SER795  GLU796  ALA797  LYS798  CYS799  TRP800  GLU811  SER814 

> <Gold.Protein.RotatedAtoms>
  152.5446  134.1764  159.8617 H   0  0  0  0  0  0  0  0  0  0  0  0  # atno 6907 bound_to 6896
  151.1770  133.4741  159.2601 H   0  0  0  0  0  0  0  0  0  0  0  0  # atno 6908 bound_to 6896
  151.1217  135.0094  159.8596 H   0  0  0  0  0  0  0  0  0  0  0  0  # atno 6909 bound_to 6896
  145.5115  139.2277  143.2722 H   0  0  0  0  0  0  0  0  0  0  0  0  # atno 7974 bound_to 7965
  155.7362  140.0808  157.2267 H   0  0  0  0  0  0  0  0  0  0  0  0  # atno 8008 bound_to 7997
  154.4027  140.1586  156.2619 H   0  0  0  0  0  0  0  0  0  0  0  0  # atno 8009 bound_to 7997
  155.9063  140.3406  155.6067 H   0  0  0  0  0  0  0  0  0  0  0  0  # atno 8010 bound_to 7997
  140.6394  143.2499  151.5031 H   0  0  0  0  0  0  0  0  0  0  0  0  # atno 10167 bound_to 10162
  156.4620  130.8218  151.2448 H   0  0  0  0  0  0  0  0  0  0  0  0  # atno 10718 bound_to 10713
  154.5852  135.2840  155.0692 H   0  0  0  0  0  0  0  0  0  0  0  0  # atno 10763 bound_to 10752
  154.2013  135.6424  153.5092 H   0  0  0  0  0  0  0  0  0  0  0  0  # atno 10764 bound_to 10752
  153.0102  135.5470  154.6519 H   0  0  0  0  0  0  0  0  0  0  0  0  # atno 10765 bound_to 10752
  139.9963  134.6513  156.0005 H   0  0  0  0  0  0  0  0  0  0  0  0  # atno 11005 bound_to 11000
  146.2164  140.5922  142.9037 LP  0  0  0  0  0  0  0  0  0  0  0  0  # atno 17320 bound_to 7965
  144.7725  140.5668  143.6660 LP  0  0  0  0  0  0  0  0  0  0  0  0  # atno 17321 bound_to 7965
  139.5603  144.2173  152.1680 LP  0  0  0  0  0  0  0  0  0  0  0  0  # atno 17342 bound_to 10162
  140.1438  144.5177  150.6728 LP  0  0  0  0  0  0  0  0  0  0  0  0  # atno 17343 bound_to 10162
  157.7497  131.0104  150.3305 LP  0  0  0  0  0  0  0  0  0  0  0  0  # atno 17370 bound_to 10713
  156.3707  130.3863  149.7178 LP  0  0  0  0  0  0  0  0  0  0  0  0  # atno 17371 bound_to 10713
  141.1607  133.6539  156.4308 LP  0  0  0  0  0  0  0  0  0  0  0  0  # atno 17394 bound_to 11000
  140.4813  134.6662  157.5172 LP  0  0  0  0  0  0  0  0  0  0  0  0  # atno 17395 bound_to 11000

$$$$
