AV-unprocessed.smi:573|AV-procd|sdf|2973|dock6
  -GOLD-   2262023483D 1   1.00000     0.00000
 Structure written by MMmdl.
 44 46  0  0  0  0  0  0  0  0  1 V2000
  148.2884  141.3611  155.3620 C   0  0  0  0  0  0  0  0  0  0  0  0
  149.5672  141.1517  154.5414 C   0  0  2  0  0  0  0  0  0  0  0  0
  149.1968  141.0976  153.1791 O   0  0  0  0  0  0  0  0  0  0  0  0
  150.2776  139.8392  154.9150 C   0  0  0  0  0  0  0  0  0  0  0  0
  150.8919  139.9004  156.2294 N   0  0  0  0  0  0  0  0  0  0  0  0
  151.2299  140.9693  157.0515 C   0  0  0  0  0  0  0  0  0  0  0  0
  151.0223  142.2458  156.7333 N   0  0  0  0  0  0  0  0  0  0  0  0
  151.5075  142.9079  157.8456 C   0  0  0  0  0  0  0  0  0  0  0  0
  151.5756  144.2899  158.1333 C   0  0  0  0  0  0  0  0  0  0  0  0
  152.1173  144.7393  159.3553 C   0  0  0  0  0  0  0  0  0  0  0  0
  152.5967  143.8156  160.3067 C   0  0  0  0  0  0  0  0  0  0  0  0
  152.5405  142.4340  160.0401 C   0  0  0  0  0  0  0  0  0  0  0  0
  152.0017  141.9898  158.8176 C   0  0  0  0  0  0  0  0  0  0  0  0
  151.8051  140.7321  158.2540 N   0  0  0  0  0  0  0  0  0  0  0  0
  152.1469  139.4498  158.8535 C   0  0  0  0  0  0  0  0  0  0  0  0
  153.3675  139.5541  159.7830 C   0  0  1  0  0  0  0  0  0  0  0  0
  153.7312  138.1950  160.4112 C   0  0  0  0  0  0  0  0  0  0  0  0
  154.9951  138.3175  161.2704 C   0  0  0  0  0  0  0  0  0  0  0  0
  156.1201  138.9552  160.4478 C   0  0  0  0  0  0  0  0  0  0  0  0
  155.6405  140.2724  159.8178 C   0  0  0  0  0  0  0  0  0  0  0  0
  154.4785  140.0372  159.0293 O   0  0  0  0  0  0  0  0  0  0  0  0
  148.5142  141.4204  156.4271 H   0  0  0  0  0  0  0  0  0  0  0  0
  147.5830  140.5421  155.2168 H   0  0  0  0  0  0  0  0  0  0  0  0
  147.7872  142.2879  155.0806 H   0  0  0  0  0  0  0  0  0  0  0  0
  150.2282  142.0049  154.6989 H   0  0  0  0  0  0  0  0  0  0  0  0
  149.6652  140.3850  152.7718 H   0  0  0  0  0  0  0  0  0  0  0  0
  149.5535  139.0241  154.9351 H   0  0  0  0  0  0  0  0  0  0  0  0
  151.0270  139.5723  154.1690 H   0  0  0  0  0  0  0  0  0  0  0  0
  151.1194  138.9932  156.6091 H   0  0  0  0  0  0  0  0  0  0  0  0
  151.2093  145.0054  157.4122 H   0  0  0  0  0  0  0  0  0  0  0  0
  152.1640  145.7980  159.5643 H   0  0  0  0  0  0  0  0  0  0  0  0
  153.0073  144.1683  161.2416 H   0  0  0  0  0  0  0  0  0  0  0  0
  152.9043  141.7237  160.7677 H   0  0  0  0  0  0  0  0  0  0  0  0
  151.2821  139.0667  159.3961 H   0  0  0  0  0  0  0  0  0  0  0  0
  152.3449  138.7365  158.0529 H   0  0  0  0  0  0  0  0  0  0  0  0
  153.1422  140.2697  160.5760 H   0  0  0  0  0  0  0  0  0  0  0  0
  152.9040  137.8235  161.0165 H   0  0  0  0  0  0  0  0  0  0  0  0
  153.8977  137.4591  159.6234 H   0  0  0  0  0  0  0  0  0  0  0  0
  154.7859  138.9331  162.1463 H   0  0  0  0  0  0  0  0  0  0  0  0
  155.3013  137.3384  161.6395 H   0  0  0  0  0  0  0  0  0  0  0  0
  156.9939  139.1320  161.0755 H   0  0  0  0  0  0  0  0  0  0  0  0
  156.4333  138.2686  159.6604 H   0  0  0  0  0  0  0  0  0  0  0  0
  155.4273  141.0178  160.5854 H   0  0  0  0  0  0  0  0  0  0  0  0
  156.4201  140.6879  159.1794 H   0  0  0  0  0  0  0  0  0  0  0  0
  1  2  1  0  0  0  0
  1 22  1  0  0  0  0
  1 23  1  0  0  0  0
  1 24  1  0  0  0  0
  2  3  1  0  0  0  0
  2  4  1  0  0  0  0
  2 25  1  0  0  0  0
  3 26  1  0  0  0  0
  4  5  1  0  0  0  0
  4 27  1  0  0  0  0
  4 28  1  0  0  0  0
  5  6  1  0  0  0  0
  5 29  1  0  0  0  0
  6 14  1  0  0  0  0
  6  7  2  0  0  0  0
  7  8  1  0  0  0  0
  8 13  2  0  0  0  0
  8  9  1  0  0  0  0
  9 10  2  0  0  0  0
  9 30  1  0  0  0  0
 10 11  1  0  0  0  0
 10 31  1  0  0  0  0
 11 12  2  0  0  0  0
 11 32  1  0  0  0  0
 12 13  1  0  0  0  0
 12 33  1  0  0  0  0
 13 14  1  0  0  0  0
 14 15  1  0  0  0  0
 15 16  1  0  0  0  0
 15 34  1  0  0  0  0
 15 35  1  0  0  0  0
 16 21  1  0  0  0  0
 16 17  1  0  0  0  0
 16 36  1  0  0  0  0
 17 18  1  0  0  0  0
 17 37  1  0  0  0  0
 17 38  1  0  0  0  0
 18 19  1  0  0  0  0
 18 39  1  0  0  0  0
 18 40  1  0  0  0  0
 19 20  1  0  0  0  0
 19 41  1  0  0  0  0
 19 42  1  0  0  0  0
 20 21  1  0  0  0  0
 20 43  1  0  0  0  0
 20 44  1  0  0  0  0
M  END
> <s_m_source_file>
AV-unprocessed.smi

> <i_m_source_file_index>
573

> <i_lp_mmshare_version>
43012

> <i_f3d_flags>
0

> <s_epik_input>
W0NIM11bQ0BIXShbT0hdKVtDSDJdW05IXWMobjEpbihjKGMxMilbY0hdW2NIXVtjSF1bY0hdMilbQ0gyXVtDQEBIXTNbQ0gyXVtDSDJdW0NIMl1bQ0gyXU8z

> <s_epik_cmdline>
J2VwaWtfcHl0aG9uJywgJy1waCcsICc3LjAnLCAnLXRuJywgJzgnLCAnLW1hJywgJzIwMCcsICctbWV0YWxfYmluZGluZycsICctaW1hZScsICc8aW5maWxlLm1hZT4nLCAnLW9tYWUnLCAnPG91dGZpbGUubWFlPic=

> <r_epik_Ionization_Penalty>
1.30635

> <r_epik_Ionization_Penalty_Charging>
0

> <r_epik_Ionization_Penalty_Neutral>
1.30635

> <r_epik_State_Penalty>
1.38073

> <r_epik_Charging_Adjusted_Penalty>
1.38073

> <i_epik_Tot_Q>
0

> <i_epik_Tot_abs_Q>
0

> <r_epik_Metal_State_Penalty>
0.00547412

> <b_epik_Metal_Only>
0

> <s_lp_Force_Field>
OPLS_2005

> <r_lp_Energy>
9.89465

> <b_lp_Chiralities_Consistent>
1

> <s_lp_Variant>
AV-unprocessed.smi:573-7

> <Gold.Version>
5.8.1

> <Gold.Id.Protein>
6NUR|6NUR_protein|mol2

> <Gold.PLP.Fitness>
51.3312

> <Gold.PLP.PLP>
-44.8860

> <Gold.PLP.part.hbond>
-3.3981

> <Gold.PLP.part.metal>
0.0000

> <Gold.PLP.part.buried>
-3.8358

> <Gold.PLP.part.nonpolar>
-37.2444

> <Gold.PLP.part.repulsive>
0.1718

> <Gold.PLP.ligand.clash>
0.0000

> <Gold.PLP.ligand.torsion>
0.5489

> <Gold.PLP.Chemscore.Hbond>
2.5120

> <Gold.PLP.Chemscore.CHOScore>
0.0000

> <Gold.PLP.Chemscore.Metal>
0.0000

> <Gold.Chemscore.Hbonds>
donor molecule, donor type, donor heavy atom, donor atom, acceptor molecule, acceptor atom, score
      L1  H     3    26       P1  7957  0.48
      P1  H  7997  8010       L1    21  0.99
      P1  H  8011  8017       L1     3  1.00

> <Gold.PLP.Chemscore.Internal.Correction>
0.0070

> <Gold.Rescore>
     Score         DG    S(hbond)    S(metal)    S(lipo)     H(rot)  DE(clash)    DE(int)     intcor
     17.84     -21.25       1.95        0.00     123.28       2.02       0.45       2.97       ----

> <Gold.Chemscore.Fitness>
17.8394

> <Gold.Chemscore.DG>
-21.2530

> <Gold.Chemscore.ZeroCoef>
-5.4800

> <Gold.Chemscore.Hbond>
1.9542

> <Gold.Chemscore.Metal>
0.0000

> <Gold.Chemscore.Lipo>
123.2776

> <Gold.Chemscore.Internal_Hbond>
0.0000

> <Gold.Chemscore.DEClash>
0.4473

> <Gold.Chemscore.DEInternal>
2.9664

> <Gold.Chemscore.Rot>
2.0224

> <Gold.Chemscore.Internal.Correction>
   9.000000E+99

> <Gold.Chemscore.Hbonds>
donor molecule, donor type, donor heavy atom, donor atom, acceptor molecule, acceptor atom, score
      L1  H     3    26       P1  7957  0.48
      P1  H  7997  8010       L1    21  0.62
      P1  H  8011  8017       L1     3  0.24

> <Gold.Chemscore.Hbond.Weighted>
-6.5269

> <Gold.Chemscore.Metal.Weighted>
-0.0000

> <Gold.Chemscore.Lipo.Weighted>
-14.4235

> <Gold.Chemscore.Internal_Hbond.Weighted>
0.0000

> <Gold.Chemscore.DEClash.Weighted>
0.4473

> <Gold.Chemscore.DEInternal.Weighted>
2.9664

> <Gold.Chemscore.Rot.Weighted>
5.1773

> <Gold.Chemscore.Internal.Correction.Weighted>
   9.000000E+99

> <Gold.Protein.RotatedTorsions>
[ 6907 6896 6895 6894 ] final -125.44 input  -60.11 | X-H torsion
[ 7974 7965 7964 7962 ] final  -79.84 input  175.53 | X-H torsion
[ 8008 7997 7996 7995 ] final    9.71 input   59.86 | X-H torsion
[ 10167 10162 10161 10158 ] final  130.17 input  -65.29 | X-H torsion
[ 10718 10713 10712 10709 ] final -173.63 input   66.30 | X-H torsion
[ 10763 10752 10751 10750 ] final   86.28 input  -60.55 | X-H torsion
[ 11005 11000 10999 10996 ] final   55.34 input  -57.11 | X-H torsion

> <Gold.Protein.ActiveResidues>
 VAL166  LYS551  ARG553  GLY616  TRP617  ASP618  TYR619  PRO620  LYS621  CYS622 
 ASP623  PHE694  ASN695  SER759  ASP760  ASP761  ALA762  ILE779  LEU786  VAL792 
 PHE793  MET794  SER795  GLU796  ALA797  LYS798  CYS799  TRP800  GLU811  SER814 

> <Gold.Protein.RotatedAtoms>
  150.8868  133.7297  159.2915 H   0  0  0  0  0  0  0  0  0  0  0  0  # atno 6907 bound_to 6896
  151.4860  135.1053  159.9800 H   0  0  0  0  0  0  0  0  0  0  0  0  # atno 6908 bound_to 6896
  152.4795  133.8173  159.7090 H   0  0  0  0  0  0  0  0  0  0  0  0  # atno 6909 bound_to 6896
  145.5679  140.9471  143.1412 H   0  0  0  0  0  0  0  0  0  0  0  0  # atno 7974 bound_to 7965
  154.7836  140.2823  155.6045 H   0  0  0  0  0  0  0  0  0  0  0  0  # atno 8008 bound_to 7997
  156.2954  140.2618  156.2596 H   0  0  0  0  0  0  0  0  0  0  0  0  # atno 8009 bound_to 7997
  154.9754  140.0375  157.2243 H   0  0  0  0  0  0  0  0  0  0  0  0  # atno 8010 bound_to 7997
  139.5442  144.6759  151.4525 H   0  0  0  0  0  0  0  0  0  0  0  0  # atno 10167 bound_to 10162
  156.7732  130.9456  151.3120 H   0  0  0  0  0  0  0  0  0  0  0  0  # atno 10718 bound_to 10713
  153.1555  135.4586  154.9698 H   0  0  0  0  0  0  0  0  0  0  0  0  # atno 10763 bound_to 10752
  154.7858  135.3203  154.7892 H   0  0  0  0  0  0  0  0  0  0  0  0  # atno 10764 bound_to 10752
  153.8390  135.6932  153.4859 H   0  0  0  0  0  0  0  0  0  0  0  0  # atno 10765 bound_to 10752
  140.0614  134.5596  155.9147 H   0  0  0  0  0  0  0  0  0  0  0  0  # atno 11005 bound_to 11000
  144.7452  139.7340  143.7295 LP  0  0  0  0  0  0  0  0  0  0  0  0  # atno 17320 bound_to 7965
  146.1805  139.4995  142.9869 LP  0  0  0  0  0  0  0  0  0  0  0  0  # atno 17321 bound_to 7965
  140.6685  143.8346  150.6970 LP  0  0  0  0  0  0  0  0  0  0  0  0  # atno 17342 bound_to 10162
  140.1763  143.4152  152.1965 LP  0  0  0  0  0  0  0  0  0  0  0  0  # atno 17343 bound_to 10162
  157.6681  130.9026  149.9978 LP  0  0  0  0  0  0  0  0  0  0  0  0  # atno 17370 bound_to 10713
  156.1265  130.3644  149.9801 LP  0  0  0  0  0  0  0  0  0  0  0  0  # atno 17371 bound_to 10713
  141.1975  133.6596  156.5743 LP  0  0  0  0  0  0  0  0  0  0  0  0  # atno 17394 bound_to 11000
  140.3764  134.7561  157.4632 LP  0  0  0  0  0  0  0  0  0  0  0  0  # atno 17395 bound_to 11000

$$$$
