AV-unprocessed.smi:788|AV-procd|sdf|3732|dock5
  -GOLD-   22720 1163D 1   1.00000     0.00000
 Structure written by MMmdl.
 35 36  0  0  0  0  0  0  0  0  1 V2000
  146.5807  138.5514  155.8295 C   0  0  0  0  0  0  0  0  0  0  0  0
  146.6021  140.0801  155.6572 C   0  0  1  0  0  0  0  0  0  0  0  0
  147.1461  140.4844  154.2717 C   0  0  0  0  0  0  0  0  0  0  0  0
  147.2180  142.0114  154.1187 C   0  0  0  0  0  0  0  0  0  0  0  0
  145.8551  142.6678  154.3866 C   0  0  0  0  0  0  0  0  0  0  0  0
  145.3039  142.2777  155.7734 C   0  0  1  0  0  0  0  0  0  0  0  0
  143.9659  142.9785  156.0656 C   0  0  0  0  0  0  0  0  0  0  0  0
  145.2264  140.7381  155.9330 C   0  0  1  0  0  0  0  0  0  0  0  0
  144.1966  140.1764  155.0562 N   0  0  0  0  0  0  0  0  0  0  0  0
  143.2650  139.2665  155.3846 C   0  0  0  0  0  0  0  0  0  0  0  0
  143.1758  138.7767  156.5090 O   0  0  0  0  0  0  0  0  0  0  0  0
  142.4148  138.9033  154.4003 N   0  0  0  0  0  0  0  0  0  0  0  0
  141.3233  137.9853  154.3781 C   0  0  0  0  0  0  0  0  0  0  0  0
  141.1906  136.9346  155.2047 N   0  0  0  0  0  0  0  0  0  0  0  0
  140.0336  136.2109  154.9511 N   0  0  0  0  0  0  0  0  0  0  0  0
  139.3375  136.7394  153.9410 C   0  0  0  0  0  0  0  0  0  0  0  0
  140.0290  138.1731  153.2023 S   0  0  0  0  0  0  0  0  0  0  0  0
  145.9493  138.0687  155.0831 H   0  0  0  0  0  0  0  0  0  0  0  0
  146.2049  138.2734  156.8144 H   0  0  0  0  0  0  0  0  0  0  0  0
  147.5828  138.1340  155.7296 H   0  0  0  0  0  0  0  0  0  0  0  0
  147.2979  140.4678  156.4032 H   0  0  0  0  0  0  0  0  0  0  0  0
  148.1387  140.0586  154.1228 H   0  0  0  0  0  0  0  0  0  0  0  0
  146.5143  140.0684  153.4856 H   0  0  0  0  0  0  0  0  0  0  0  0
  147.9581  142.4127  154.8121 H   0  0  0  0  0  0  0  0  0  0  0  0
  147.5632  142.2680  153.1168 H   0  0  0  0  0  0  0  0  0  0  0  0
  145.9546  143.7514  154.3161 H   0  0  0  0  0  0  0  0  0  0  0  0
  145.1497  142.3748  153.6075 H   0  0  0  0  0  0  0  0  0  0  0  0
  146.0144  142.6412  156.5175 H   0  0  0  0  0  0  0  0  0  0  0  0
  143.2102  142.7349  155.3184 H   0  0  0  0  0  0  0  0  0  0  0  0
  144.0857  144.0620  156.0696 H   0  0  0  0  0  0  0  0  0  0  0  0
  143.5759  142.6869  157.0412 H   0  0  0  0  0  0  0  0  0  0  0  0
  144.9688  140.5304  156.9730 H   0  0  0  0  0  0  0  0  0  0  0  0
  144.1902  140.5182  154.1057 H   0  0  0  0  0  0  0  0  0  0  0  0
  142.5868  139.3612  153.5171 H   0  0  0  0  0  0  0  0  0  0  0  0
  138.4106  136.2817  153.6285 H   0  0  0  0  0  0  0  0  0  0  0  0
  1  2  1  0  0  0  0
  1 18  1  0  0  0  0
  1 19  1  0  0  0  0
  1 20  1  0  0  0  0
  2  8  1  0  0  0  0
  2  3  1  0  0  0  0
  2 21  1  0  0  0  0
  3  4  1  0  0  0  0
  3 22  1  0  0  0  0
  3 23  1  0  0  0  0
  4  5  1  0  0  0  0
  4 24  1  0  0  0  0
  4 25  1  0  0  0  0
  5  6  1  0  0  0  0
  5 26  1  0  0  0  0
  5 27  1  0  0  0  0
  6  7  1  0  0  0  0
  6  8  1  0  0  0  0
  6 28  1  0  0  0  0
  7 29  1  0  0  0  0
  7 30  1  0  0  0  0
  7 31  1  0  0  0  0
  8  9  1  0  0  0  0
  8 32  1  0  0  0  0
  9 10  1  0  0  0  0
  9 33  1  0  0  0  0
 10 11  2  0  0  0  0
 10 12  1  0  0  0  0
 12 13  1  0  0  0  0
 12 34  1  0  0  0  0
 13 17  1  0  0  0  0
 13 14  2  0  0  0  0
 14 15  1  0  0  0  0
 15 16  2  0  0  0  0
 16 17  1  0  0  0  0
 16 35  1  0  0  0  0
M  END
> <s_m_source_file>
AV-unprocessed.smi

> <i_m_source_file_index>
788

> <i_lp_mmshare_version>
43012

> <i_f3d_flags>
0

> <s_epik_input>
W0NIM11bQ0BASF0xW0NIMl1bQ0gyXVtDSDJdW0NAQEhdKFtDSDNdKVtDQEhdMVtOSF1DKD1PKVtOSF1jMm5uW2NIXXMy

> <s_epik_cmdline>
J2VwaWtfcHl0aG9uJywgJy1waCcsICc3LjAnLCAnLXRuJywgJzgnLCAnLW1hJywgJzIwMCcsICctbWV0YWxfYmluZGluZycsICctaW1hZScsICc8aW5maWxlLm1hZT4nLCAnLW9tYWUnLCAnPG91dGZpbGUubWFlPic=

> <r_lp_tautomer_probability>
1

> <r_epik_Ionization_Penalty>
0.000304078

> <r_epik_Ionization_Penalty_Charging>
0

> <r_epik_Ionization_Penalty_Neutral>
0.000304078

> <r_epik_State_Penalty>
-0

> <r_epik_Charging_Adjusted_Penalty>
0

> <i_epik_Tot_Q>
0

> <i_epik_Tot_abs_Q>
0

> <r_epik_Metal_State_Penalty>
0.164801

> <b_epik_Metal_Only>
0

> <s_lp_Force_Field>
OPLS_2005

> <r_lp_Energy>
12.7564

> <b_lp_Chiralities_Consistent>
1

> <s_lp_Variant>
AV-unprocessed.smi:788-2

> <Gold.Version>
5.8.1

> <Gold.Id.Protein>
6NUR|6NUR_protein|mol2

> <Gold.PLP.Fitness>
31.3599

> <Gold.PLP.PLP>
-23.0288

> <Gold.PLP.part.hbond>
-3.1620

> <Gold.PLP.part.metal>
0.0000

> <Gold.PLP.part.buried>
-3.7275

> <Gold.PLP.part.nonpolar>
-16.2231

> <Gold.PLP.part.repulsive>
0.0924

> <Gold.PLP.ligand.clash>
0.0000

> <Gold.PLP.ligand.torsion>
0.3382

> <Gold.PLP.Chemscore.Hbond>
3.0000

> <Gold.PLP.Chemscore.CHOScore>
0.0000

> <Gold.PLP.Chemscore.Metal>
0.0000

> <Gold.Chemscore.Hbonds>
donor molecule, donor type, donor heavy atom, donor atom, acceptor molecule, acceptor atom, score
      L1  H     9    33       P1 10175  1.00
      L1  H    12    34       P1 10175  1.00
      P1  H 11000 11005       L1    15  1.00

> <Gold.PLP.Chemscore.Internal.Correction>
0.0076

> <Gold.Rescore>
     Score         DG    S(hbond)    S(metal)    S(lipo)     H(rot)  DE(clash)    DE(int)     intcor
     16.63     -17.15       2.79        0.00      42.13       1.00       0.01       0.51       ----

> <Gold.Chemscore.Fitness>
16.6341

> <Gold.Chemscore.DG>
-17.1534

> <Gold.Chemscore.ZeroCoef>
-5.4800

> <Gold.Chemscore.Hbond>
2.7858

> <Gold.Chemscore.Metal>
0.0000

> <Gold.Chemscore.Lipo>
42.1276

> <Gold.Chemscore.Internal_Hbond>
0.0000

> <Gold.Chemscore.DEClash>
0.0089

> <Gold.Chemscore.DEInternal>
0.5104

> <Gold.Chemscore.Rot>
1.0000

> <Gold.Chemscore.Internal.Correction>
   9.000000E+99

> <Gold.Chemscore.Hbonds>
donor molecule, donor type, donor heavy atom, donor atom, acceptor molecule, acceptor atom, score
      L1  H     9    33       P1 10175  0.97
      L1  H    12    34       P1 10175  0.94
      P1  H 11000 11005       L1    15  0.72

> <Gold.Chemscore.Hbond.Weighted>
-9.3045

> <Gold.Chemscore.Metal.Weighted>
-0.0000

> <Gold.Chemscore.Lipo.Weighted>
-4.9289

> <Gold.Chemscore.Internal_Hbond.Weighted>
0.0000

> <Gold.Chemscore.DEClash.Weighted>
0.0089

> <Gold.Chemscore.DEInternal.Weighted>
0.5104

> <Gold.Chemscore.Rot.Weighted>
2.5600

> <Gold.Chemscore.Internal.Correction.Weighted>
   9.000000E+99

> <Gold.Protein.RotatedTorsions>
[ 6907 6896 6895 6894 ] final -127.68 input  -60.11 | X-H torsion
[ 7974 7965 7964 7962 ] final -130.23 input  175.53 | X-H torsion
[ 8008 7997 7996 7995 ] final  168.36 input   59.86 | X-H torsion
[ 10167 10162 10161 10158 ] final -133.61 input  -65.29 | X-H torsion
[ 10718 10713 10712 10709 ] final    5.16 input   66.30 | X-H torsion
[ 10763 10752 10751 10750 ] final  -55.71 input  -60.55 | X-H torsion
[ 11005 11000 10999 10996 ] final   62.06 input  -57.11 | X-H torsion

> <Gold.Protein.ActiveResidues>
 VAL166  LYS551  ARG553  GLY616  TRP617  ASP618  TYR619  PRO620  LYS621  CYS622 
 ASP623  PHE694  ASN695  SER759  ASP760  ASP761  ALA762  ILE779  LEU786  VAL792 
 PHE793  MET794  SER795  GLU796  ALA797  LYS798  CYS799  TRP800  GLU811  SER814 

> <Gold.Protein.RotatedAtoms>
  150.9098  133.7011  159.2857 H   0  0  0  0  0  0  0  0  0  0  0  0  # atno 6907 bound_to 6896
  151.4502  135.1028  159.9705 H   0  0  0  0  0  0  0  0  0  0  0  0  # atno 6908 bound_to 6896
  152.4924  133.8486  159.7245 H   0  0  0  0  0  0  0  0  0  0  0  0  # atno 6909 bound_to 6896
  144.9495  140.7328  143.4797 H   0  0  0  0  0  0  0  0  0  0  0  0  # atno 7974 bound_to 7965
  156.1554  140.1592  156.8701 H   0  0  0  0  0  0  0  0  0  0  0  0  # atno 8008 bound_to 7997
  154.5110  140.0801  156.8025 H   0  0  0  0  0  0  0  0  0  0  0  0  # atno 8009 bound_to 7997
  155.3814  140.3405  155.4249 H   0  0  0  0  0  0  0  0  0  0  0  0  # atno 8010 bound_to 7997
  139.8965  143.6660  152.2603 H   0  0  0  0  0  0  0  0  0  0  0  0  # atno 10167 bound_to 10162
  156.9033  130.5729  149.5648 H   0  0  0  0  0  0  0  0  0  0  0  0  # atno 10718 bound_to 10713
  154.1952  135.6420  153.5071 H   0  0  0  0  0  0  0  0  0  0  0  0  # atno 10763 bound_to 10752
  153.0025  135.5438  154.6373 H   0  0  0  0  0  0  0  0  0  0  0  0  # atno 10764 bound_to 10752
  154.5772  135.2922  155.0741 H   0  0  0  0  0  0  0  0  0  0  0  0  # atno 10765 bound_to 10752
  140.0118  134.6284  155.9769 H   0  0  0  0  0  0  0  0  0  0  0  0  # atno 11005 bound_to 11000
  145.2866  139.1898  143.4762 LP  0  0  0  0  0  0  0  0  0  0  0  0  # atno 17320 bound_to 7965
  146.3316  140.2837  142.8611 LP  0  0  0  0  0  0  0  0  0  0  0  0  # atno 17321 bound_to 7965
  139.7063  144.7627  151.1187 LP  0  0  0  0  0  0  0  0  0  0  0  0  # atno 17342 bound_to 10162
  140.7716  143.5390  150.9335 LP  0  0  0  0  0  0  0  0  0  0  0  0  # atno 17343 bound_to 10162
  156.0571  130.5630  150.9115 LP  0  0  0  0  0  0  0  0  0  0  0  0  # atno 17370 bound_to 10713
  157.6012  131.0941  150.8956 LP  0  0  0  0  0  0  0  0  0  0  0  0  # atno 17371 bound_to 10713
  141.1716  133.6537  156.4673 LP  0  0  0  0  0  0  0  0  0  0  0  0  # atno 17394 bound_to 11000
  140.4540  134.6902  157.5054 LP  0  0  0  0  0  0  0  0  0  0  0  0  # atno 17395 bound_to 11000

$$$$
