AV-unprocessed.smi:1645|AV-procd|sdf|6621|dock1
  -GOLD-   22720 7323D 1   1.00000     0.00000
 Structure written by MMmdl.
 55 58  0  0  0  0  0  0  0  0  4 V2000
  146.5224  136.5002  155.4277 O   0  0  0  0  0  0  0  0  0  0  0  0
  147.2596  136.1667  154.4930 C   0  0  0  0  0  0  0  0  0  0  0  0
  148.4089  136.8269  154.2653 N   0  0  0  0  0  0  0  0  0  0  0  0
  149.0002  137.8792  155.0147 C   0  0  0  0  0  0  0  0  0  0  0  0
  150.1207  138.5329  154.4640 C   0  0  0  0  0  0  0  0  0  0  0  0
  150.7531  139.5674  155.1835 C   0  0  0  0  0  0  0  0  0  0  0  0
  150.2681  139.9363  156.4640 C   0  0  0  0  0  0  0  0  0  0  0  0
  150.8324  140.9619  157.2560 N   0  0  0  0  0  0  0  0  0  0  0  0
  151.0126  142.2790  156.6420 C   0  0  0  0  0  0  0  0  0  0  0  0
  151.2389  143.3701  157.7029 C   0  0  0  0  0  0  0  0  0  0  0  0
  152.3838  142.9933  158.6524 C   0  0  0  0  0  0  0  0  0  0  0  0
  152.1055  141.6222  159.2839 C   0  0  0  0  0  0  0  0  0  0  0  0
  151.8726  140.5513  158.2047 C   0  0  0  0  0  0  0  0  0  0  0  0
  149.1973  139.2668  156.9557 N   0  3  0  0  0  0  0  0  0  0  0  0
  148.5607  138.2726  156.3001 C   0  0  0  0  0  0  0  0  0  0  0  0
  147.0500  135.1758  153.5853 N   0  5  0  0  0  0  0  0  0  0  0  0
  145.8390  135.0290  152.7744 C   0  0  1  0  0  0  0  0  0  0  0  0
  145.5692  136.2767  151.9302 C   0  0  0  0  0  0  0  0  0  0  0  0
  144.7456  135.7340  150.7627 C   0  0  0  0  0  0  0  0  0  0  0  0
  145.3058  134.3934  150.4908 N   0  3  2  0  0  0  0  0  0  0  0  0
  144.3626  133.4412  149.8522 C   0  0  0  0  0  0  0  0  0  0  0  0
  145.0181  132.0578  149.6999 C   0  0  0  0  0  0  0  0  0  0  0  0
  145.5189  131.4848  151.0424 C   0  0  0  0  0  0  0  0  0  0  0  0
  145.4693  132.5156  152.1849 C   0  0  0  0  0  0  0  0  0  0  0  0
  145.9866  133.9034  151.7245 C   0  0  2  0  0  0  0  0  0  0  0  0
  148.8970  136.5652  153.4212 H   0  0  0  0  0  0  0  0  0  0  0  0
  150.4947  138.2475  153.4913 H   0  0  0  0  0  0  0  0  0  0  0  0
  151.6102  140.0502  154.7392 H   0  0  0  0  0  0  0  0  0  0  0  0
  151.8603  142.2397  155.9566 H   0  0  0  0  0  0  0  0  0  0  0  0
  150.1319  142.5474  156.0580 H   0  0  0  0  0  0  0  0  0  0  0  0
  151.4532  144.3227  157.2181 H   0  0  0  0  0  0  0  0  0  0  0  0
  150.3230  143.5149  158.2775 H   0  0  0  0  0  0  0  0  0  0  0  0
  153.3258  142.9647  158.1034 H   0  0  0  0  0  0  0  0  0  0  0  0
  152.4952  143.7513  159.4284 H   0  0  0  0  0  0  0  0  0  0  0  0
  152.9378  141.3296  159.9245 H   0  0  0  0  0  0  0  0  0  0  0  0
  151.2275  141.6884  159.9282 H   0  0  0  0  0  0  0  0  0  0  0  0
  151.6206  139.6136  158.6998 H   0  0  0  0  0  0  0  0  0  0  0  0
  152.7961  140.3754  157.6514 H   0  0  0  0  0  0  0  0  0  0  0  0
  147.7369  137.8266  156.8370 H   0  0  0  0  0  0  0  0  0  0  0  0
  144.9488  134.8286  153.3733 H   0  0  0  0  0  0  0  0  0  0  0  0
  145.0490  137.0579  152.4852 H   0  0  0  0  0  0  0  0  0  0  0  0
  146.5027  136.6977  151.5525 H   0  0  0  0  0  0  0  0  0  0  0  0
  143.6902  135.6597  151.0380 H   0  0  0  0  0  0  0  0  0  0  0  0
  144.8087  136.3723  149.8808 H   0  0  0  0  0  0  0  0  0  0  0  0
  143.4520  133.3602  150.4478 H   0  0  0  0  0  0  0  0  0  0  0  0
  144.0679  133.8287  148.8767 H   0  0  0  0  0  0  0  0  0  0  0  0
  144.3188  131.3617  149.2355 H   0  0  0  0  0  0  0  0  0  0  0  0
  145.8602  132.1416  149.0117 H   0  0  0  0  0  0  0  0  0  0  0  0
  144.9276  130.6121  151.3212 H   0  0  0  0  0  0  0  0  0  0  0  0
  146.5414  131.1269  150.9173 H   0  0  0  0  0  0  0  0  0  0  0  0
  144.4378  132.5861  152.5374 H   0  0  0  0  0  0  0  0  0  0  0  0
  146.0509  132.1448  153.0309 H   0  0  0  0  0  0  0  0  0  0  0  0
  147.0373  133.7998  151.4468 H   0  0  0  0  0  0  0  0  0  0  0  0
  146.0550  134.5379  149.8293 H   0  0  0  0  0  0  0  0  0  0  0  0
  148.8490  139.5280  157.8780 H   0  0  0  0  0  0  0  0  0  0  0  0
  1  2  2  0  0  0  0
  2  3  1  0  0  0  0
  2 16  1  0  0  0  0
  3  4  1  0  0  0  0
  3 26  1  0  0  0  0
  4 15  1  0  0  0  0
  4  5  2  0  0  0  0
  5  6  1  0  0  0  0
  5 27  1  0  0  0  0
  6  7  2  0  0  0  0
  6 28  1  0  0  0  0
  7  8  1  0  0  0  0
  7 14  1  0  0  0  0
  8 13  1  0  0  0  0
  8  9  1  0  0  0  0
  9 10  1  0  0  0  0
  9 29  1  0  0  0  0
  9 30  1  0  0  0  0
 10 11  1  0  0  0  0
 10 31  1  0  0  0  0
 10 32  1  0  0  0  0
 11 12  1  0  0  0  0
 11 33  1  0  0  0  0
 11 34  1  0  0  0  0
 12 13  1  0  0  0  0
 12 35  1  0  0  0  0
 12 36  1  0  0  0  0
 13 37  1  0  0  0  0
 13 38  1  0  0  0  0
 14 15  2  0  0  0  0
 14 55  1  0  0  0  0
 15 39  1  0  0  0  0
 16 17  1  0  0  0  0
 17 25  1  0  0  0  0
 17 18  1  0  0  0  0
 17 40  1  0  0  0  0
 18 19  1  0  0  0  0
 18 41  1  0  0  0  0
 18 42  1  0  0  0  0
 19 20  1  0  0  0  0
 19 43  1  0  0  0  0
 19 44  1  0  0  0  0
 20 25  1  0  0  0  0
 20 21  1  0  0  0  0
 20 54  1  0  0  0  0
 21 22  1  0  0  0  0
 21 45  1  0  0  0  0
 21 46  1  0  0  0  0
 22 23  1  0  0  0  0
 22 47  1  0  0  0  0
 22 48  1  0  0  0  0
 23 24  1  0  0  0  0
 23 49  1  0  0  0  0
 23 50  1  0  0  0  0
 24 25  1  0  0  0  0
 24 51  1  0  0  0  0
 24 52  1  0  0  0  0
 25 53  1  0  0  0  0
M  CHG  1  14   1
M  CHG  1  16  -1
M  CHG  1  20   1
M  END
> <s_m_source_file>
AV-unprocessed.smi

> <i_m_source_file_index>
1645

> <i_lp_mmshare_version>
43012

> <i_f3d_flags>
0

> <s_epik_input>
W0NIMl0xW0NIMl1bQ0gyXVtDSDJdW0NASF0oTjEyKVtDQEBIXShbQ0gyXVtDSDJdMilbTkhdQyg9TylbTkhdYzNbY0hdW2NIXWMobltjSF0zKU40W0NIMl1bQ0gyXVtDSDJdW0NIMl1bQ0gyXTQ=

> <s_epik_cmdline>
J2VwaWtfcHl0aG9uJywgJy1waCcsICc3LjAnLCAnLXRuJywgJzgnLCAnLW1hJywgJzIwMCcsICctbWV0YWxfYmluZGluZycsICctaW1hZScsICc8aW5maWxlLm1hZT4nLCAnLW9tYWUnLCAnPG91dGZpbGUubWFlPic=

> <r_lp_tautomer_probability>
0.999994

> <r_epik_Ionization_Penalty>
8.55589

> <r_epik_Ionization_Penalty_Charging>
8.55589

> <r_epik_Ionization_Penalty_Neutral>
3.8092e-06

> <r_epik_State_Penalty>
8.15703

> <r_epik_Charging_Adjusted_Penalty>
16.7129

> <i_epik_Tot_Q>
1

> <i_epik_Tot_abs_Q>
3

> <r_epik_Metal_State_Penalty>
4.13781

> <b_epik_Metal_Only>
1

> <s_lp_Force_Field>
OPLS_2005

> <r_lp_Energy>
56.4964

> <b_lp_Chiralities_Consistent>
1

> <s_lp_Variant>
AV-unprocessed.smi:1645-22

> <Gold.Version>
5.8.1

> <Gold.Id.Protein>
6NUR|6NUR_protein|mol2

> <Gold.PLP.Fitness>
40.8976

> <Gold.PLP.PLP>
-37.8086

> <Gold.PLP.part.hbond>
-1.8836

> <Gold.PLP.part.metal>
0.0000

> <Gold.PLP.part.buried>
-3.4922

> <Gold.PLP.part.nonpolar>
-34.3154

> <Gold.PLP.part.repulsive>
2.8989

> <Gold.PLP.ligand.clash>
0.0000

> <Gold.PLP.ligand.torsion>
0.9589

> <Gold.PLP.Chemscore.Hbond>
1.4805

> <Gold.PLP.Chemscore.CHOScore>
0.0000

> <Gold.PLP.Chemscore.Metal>
0.0000

> <Gold.Chemscore.Hbonds>
donor molecule, donor type, donor heavy atom, donor atom, acceptor molecule, acceptor atom, score
      L1  H     3    26       P1  7948  1.00
      L1  H    20    54       P1  7921  0.39

> <Gold.PLP.Chemscore.Internal.Correction>
0.5653

> <Gold.Rescore>
     Score         DG    S(hbond)    S(metal)    S(lipo)     H(rot)  DE(clash)    DE(int)     intcor
     16.46     -20.36       1.21        0.00     118.36       1.17       1.71       2.19       ----

> <Gold.Chemscore.Fitness>
16.4592

> <Gold.Chemscore.DG>
-20.3641

> <Gold.Chemscore.ZeroCoef>
-5.4800

> <Gold.Chemscore.Hbond>
1.2094

> <Gold.Chemscore.Metal>
0.0000

> <Gold.Chemscore.Lipo>
118.3584

> <Gold.Chemscore.Internal_Hbond>
0.0000

> <Gold.Chemscore.DEClash>
1.7125

> <Gold.Chemscore.DEInternal>
2.1925

> <Gold.Chemscore.Rot>
1.1731

> <Gold.Chemscore.Internal.Correction>
   9.000000E+99

> <Gold.Chemscore.Hbonds>
donor molecule, donor type, donor heavy atom, donor atom, acceptor molecule, acceptor atom, score
      L1  H     3    26       P1  7948  0.95
      L1  H    20    54       P1  7921  0.18

> <Gold.Chemscore.Hbond.Weighted>
-4.0394

> <Gold.Chemscore.Metal.Weighted>
-0.0000

> <Gold.Chemscore.Lipo.Weighted>
-13.8479

> <Gold.Chemscore.Internal_Hbond.Weighted>
0.0000

> <Gold.Chemscore.DEClash.Weighted>
1.7125

> <Gold.Chemscore.DEInternal.Weighted>
2.1925

> <Gold.Chemscore.Rot.Weighted>
3.0032

> <Gold.Chemscore.Internal.Correction.Weighted>
   9.000000E+99

> <Gold.Protein.RotatedTorsions>
[ 6907 6896 6895 6894 ] final  -19.70 input  -60.11 | X-H torsion
[ 7974 7965 7964 7962 ] final   18.25 input  175.53 | X-H torsion
[ 8008 7997 7996 7995 ] final  166.03 input   59.86 | X-H torsion
[ 10167 10162 10161 10158 ] final  178.49 input  -65.29 | X-H torsion
[ 10718 10713 10712 10709 ] final   71.63 input   66.30 | X-H torsion
[ 10763 10752 10751 10750 ] final  -63.45 input  -60.55 | X-H torsion
[ 11005 11000 10999 10996 ] final -132.18 input  -57.11 | X-H torsion

> <Gold.Protein.ActiveResidues>
 VAL166  LYS551  ARG553  GLY616  TRP617  ASP618  TYR619  PRO620  LYS621  CYS622 
 ASP623  PHE694  ASN695  SER759  ASP760  ASP761  ALA762  ILE779  LEU786  VAL792 
 PHE793  MET794  SER795  GLU796  ALA797  LYS798  CYS799  TRP800  GLU811  SER814 

> <Gold.Protein.RotatedAtoms>
  151.2592  135.0648  159.9091 H   0  0  0  0  0  0  0  0  0  0  0  0  # atno 6907 bound_to 6896
  152.5368  134.0249  159.8009 H   0  0  0  0  0  0  0  0  0  0  0  0  # atno 6908 bound_to 6896
  151.0470  133.5607  159.2677 H   0  0  0  0  0  0  0  0  0  0  0  0  # atno 6909 bound_to 6896
  146.2191  139.8484  142.8627 H   0  0  0  0  0  0  0  0  0  0  0  0  # atno 7974 bound_to 7965
  156.1752  140.1654  156.8375 H   0  0  0  0  0  0  0  0  0  0  0  0  # atno 8008 bound_to 7997
  154.5299  140.0759  156.8360 H   0  0  0  0  0  0  0  0  0  0  0  0  # atno 8009 bound_to 7997
  155.3428  140.3385  155.4241 H   0  0  0  0  0  0  0  0  0  0  0  0  # atno 8010 bound_to 7997
  139.5296  144.2674  152.0656 H   0  0  0  0  0  0  0  0  0  0  0  0  # atno 10167 bound_to 10162
  157.6461  130.9538  150.0815 H   0  0  0  0  0  0  0  0  0  0  0  0  # atno 10718 bound_to 10713
  154.3152  135.6207  153.5483 H   0  0  0  0  0  0  0  0  0  0  0  0  # atno 10763 bound_to 10752
  152.9825  135.5710  154.5132 H   0  0  0  0  0  0  0  0  0  0  0  0  # atno 10764 bound_to 10752
  154.4790  135.2862  155.1562 H   0  0  0  0  0  0  0  0  0  0  0  0  # atno 10765 bound_to 10752
  140.9193  134.1465  157.4327 H   0  0  0  0  0  0  0  0  0  0  0  0  # atno 11005 bound_to 11000
  145.2827  141.0143  143.3708 LP  0  0  0  0  0  0  0  0  0  0  0  0  # atno 17320 bound_to 7965
  144.9138  139.4496  143.6574 LP  0  0  0  0  0  0  0  0  0  0  0  0  # atno 17321 bound_to 7965
  140.2135  144.4538  150.6374 LP  0  0  0  0  0  0  0  0  0  0  0  0  # atno 17342 bound_to 10162
  140.6465  143.2214  151.6174 LP  0  0  0  0  0  0  0  0  0  0  0  0  # atno 17343 bound_to 10162
  156.1790  130.3649  149.9061 LP  0  0  0  0  0  0  0  0  0  0  0  0  # atno 17370 bound_to 10713
  156.7018  130.8936  151.3600 LP  0  0  0  0  0  0  0  0  0  0  0  0  # atno 17371 bound_to 10713
  139.8772  134.9965  156.5800 LP  0  0  0  0  0  0  0  0  0  0  0  0  # atno 17394 bound_to 11000
  140.8008  133.8506  155.8725 LP  0  0  0  0  0  0  0  0  0  0  0  0  # atno 17395 bound_to 11000

$$$$
