AV-unprocessed.smi:1212|AV-procd|sdf|5083|dock1
  -GOLD-   22720 4133D 1   1.00000     0.00000
 Structure written by MMmdl.
 38 39  0  0  0  0  0  0  0  0  2 V2000
  155.7937  142.3174  169.8050 C   0  0  0  0  0  0  0  0  0  0  0  0
  155.5210  142.7731  168.4127 C   0  0  0  0  0  0  0  0  0  0  0  0
  155.6004  144.0544  168.0454 N   0  0  0  0  0  0  0  0  0  0  0  0
  155.3042  144.2323  166.7018 N   0  0  0  0  0  0  0  0  0  0  0  0
  155.0140  143.0855  166.0710 C   0  0  0  0  0  0  0  0  0  0  0  0
  154.6969  143.0412  164.7663 N   0  5  0  0  0  0  0  0  0  0  0  0
  154.8230  141.8827  164.0795 C   0  0  0  0  0  0  0  0  0  0  0  0
  155.3534  140.8463  164.4869 O   0  0  0  0  0  0  0  0  0  0  0  0
  154.2992  141.9251  162.8457 N   0  0  0  0  0  0  0  0  0  0  0  0
  154.2901  140.8272  161.8856 C   0  0  0  0  0  0  0  0  0  0  0  0
  154.3770  141.3424  160.4372 C   0  0  0  0  0  0  0  0  0  0  0  0
  153.0599  141.7491  159.9348 N   0  0  0  0  0  0  0  0  0  0  0  0
  152.3655  142.7838  160.7171 C   0  0  0  0  0  0  0  0  0  0  0  0
  152.2882  144.1534  160.0046 C   0  0  0  0  0  0  0  0  0  0  0  0
  152.2189  144.1158  158.4648 C   0  0  0  0  0  0  0  0  0  0  0  0
  151.1295  143.1913  157.8813 C   0  0  0  0  0  0  0  0  0  0  0  0
  151.1485  141.7155  158.3487 C   0  0  0  0  0  0  0  0  0  0  0  0
  152.5245  141.2091  158.8127 C   0  0  0  0  0  0  0  0  0  0  0  0
  153.0877  140.3355  158.1525 O   0  0  0  0  0  0  0  0  0  0  0  0
  155.0674  141.6713  167.1233 S   0  0  0  0  0  0  0  0  0  0  0  0
  156.8110  142.5834  170.0929 H   0  0  0  0  0  0  0  0  0  0  0  0
  155.6813  141.2356  169.8798 H   0  0  0  0  0  0  0  0  0  0  0  0
  155.0965  142.7901  170.4970 H   0  0  0  0  0  0  0  0  0  0  0  0
  153.8743  142.7925  162.5517 H   0  0  0  0  0  0  0  0  0  0  0  0
  155.1379  140.1785  162.1066 H   0  0  0  0  0  0  0  0  0  0  0  0
  153.3931  140.2209  162.0241 H   0  0  0  0  0  0  0  0  0  0  0  0
  155.0710  142.1818  160.3759 H   0  0  0  0  0  0  0  0  0  0  0  0
  154.8061  140.5731  159.7930 H   0  0  0  0  0  0  0  0  0  0  0  0
  151.3608  142.4360  160.9576 H   0  0  0  0  0  0  0  0  0  0  0  0
  152.8358  142.9143  161.6929 H   0  0  0  0  0  0  0  0  0  0  0  0
  151.4336  144.7058  160.3966 H   0  0  0  0  0  0  0  0  0  0  0  0
  153.1665  144.7372  160.2822 H   0  0  0  0  0  0  0  0  0  0  0  0
  152.0557  145.1290  158.0964 H   0  0  0  0  0  0  0  0  0  0  0  0
  153.1921  143.8253  158.0663 H   0  0  0  0  0  0  0  0  0  0  0  0
  150.1498  143.6135  158.1073 H   0  0  0  0  0  0  0  0  0  0  0  0
  151.2122  143.2140  156.7942 H   0  0  0  0  0  0  0  0  0  0  0  0
  150.4298  141.5688  159.1548 H   0  0  0  0  0  0  0  0  0  0  0  0
  150.7900  141.0799  157.5378 H   0  0  0  0  0  0  0  0  0  0  0  0
  1  2  1  0  0  0  0
  1 21  1  0  0  0  0
  1 22  1  0  0  0  0
  1 23  1  0  0  0  0
  2 20  1  0  0  0  0
  2  3  2  0  0  0  0
  3  4  1  0  0  0  0
  4  5  2  0  0  0  0
  5  6  1  0  0  0  0
  5 20  1  0  0  0  0
  6  7  1  0  0  0  0
  7  8  2  0  0  0  0
  7  9  1  0  0  0  0
  9 10  1  0  0  0  0
  9 24  1  0  0  0  0
 10 11  1  0  0  0  0
 10 25  1  0  0  0  0
 10 26  1  0  0  0  0
 11 12  1  0  0  0  0
 11 27  1  0  0  0  0
 11 28  1  0  0  0  0
 12 18  1  0  0  0  0
 12 13  1  0  0  0  0
 13 14  1  0  0  0  0
 13 29  1  0  0  0  0
 13 30  1  0  0  0  0
 14 15  1  0  0  0  0
 14 31  1  0  0  0  0
 14 32  1  0  0  0  0
 15 16  1  0  0  0  0
 15 33  1  0  0  0  0
 15 34  1  0  0  0  0
 16 17  1  0  0  0  0
 16 35  1  0  0  0  0
 16 36  1  0  0  0  0
 17 18  1  0  0  0  0
 17 37  1  0  0  0  0
 17 38  1  0  0  0  0
 18 19  2  0  0  0  0
M  CHG  1   6  -1
M  END
> <s_m_source_file>
AV-unprocessed.smi

> <i_m_source_file_index>
1212

> <i_lp_mmshare_version>
43012

> <i_f3d_flags>
0

> <s_epik_input>
W0NIM11jMW5uYyhzMSlbTkhdQyg9TylbTkhdW0NIMl1bQ0gyXU4yW0NIMl1bQ0gyXVtDSDJdW0NIMl1bQ0gyXUMyPU8=

> <s_epik_cmdline>
J2VwaWtfcHl0aG9uJywgJy1waCcsICc3LjAnLCAnLXRuJywgJzgnLCAnLW1hJywgJzIwMCcsICctbWV0YWxfYmluZGluZycsICctaW1hZScsICc8aW5maWxlLm1hZT4nLCAnLW9tYWUnLCAnPG91dGZpbGUubWFlPic=

> <r_lp_tautomer_probability>
1

> <r_epik_Ionization_Penalty>
3.37178

> <r_epik_Ionization_Penalty_Charging>
3.23409

> <r_epik_Ionization_Penalty_Neutral>
0.137695

> <r_epik_State_Penalty>
3.23156

> <r_epik_Charging_Adjusted_Penalty>
6.46564

> <i_epik_Tot_Q>
-1

> <i_epik_Tot_abs_Q>
1

> <r_epik_Metal_State_Penalty>
0.474775

> <b_epik_Metal_Only>
1

> <s_lp_Force_Field>
OPLS_2005

> <r_lp_Energy>
19.6793

> <b_lp_Chiralities_Consistent>
1

> <s_lp_Variant>
AV-unprocessed.smi:1212-2

> <Gold.Version>
5.8.1

> <Gold.Id.Protein>
6NUR|6NUR_protein|mol2

> <Gold.PLP.Fitness>
46.7632

> <Gold.PLP.PLP>
-44.5815

> <Gold.PLP.part.hbond>
-4.2476

> <Gold.PLP.part.metal>
0.0000

> <Gold.PLP.part.buried>
-1.0440

> <Gold.PLP.part.nonpolar>
-37.7325

> <Gold.PLP.part.repulsive>
0.1971

> <Gold.PLP.ligand.clash>
0.0000

> <Gold.PLP.ligand.torsion>
0.4257

> <Gold.PLP.Chemscore.Hbond>
0.9760

> <Gold.PLP.Chemscore.CHOScore>
0.0000

> <Gold.PLP.Chemscore.Metal>
0.0000

> <Gold.Chemscore.Hbonds>
donor molecule, donor type, donor heavy atom, donor atom, acceptor molecule, acceptor atom, score
      P1  H  7997  8010       L1    19  0.90

> <Gold.PLP.Chemscore.Internal.Correction>
0.1050

> <Gold.Rescore>
     Score         DG    S(hbond)    S(metal)    S(lipo)     H(rot)  DE(clash)    DE(int)     intcor
     11.57     -14.91       0.99        0.00      87.90       1.63       0.37       2.98       ----

> <Gold.Chemscore.Fitness>
11.5692

> <Gold.Chemscore.DG>
-14.9116

> <Gold.Chemscore.ZeroCoef>
-5.4800

> <Gold.Chemscore.Hbond>
0.9907

> <Gold.Chemscore.Metal>
0.0000

> <Gold.Chemscore.Lipo>
87.8974

> <Gold.Chemscore.Internal_Hbond>
0.0000

> <Gold.Chemscore.DEClash>
0.3670

> <Gold.Chemscore.DEInternal>
2.9753

> <Gold.Chemscore.Rot>
1.6255

> <Gold.Chemscore.Internal.Correction>
   9.000000E+99

> <Gold.Chemscore.Hbonds>
donor molecule, donor type, donor heavy atom, donor atom, acceptor molecule, acceptor atom, score
      P1  H  7997  8010       L1    19  0.86

> <Gold.Chemscore.Hbond.Weighted>
-3.3089

> <Gold.Chemscore.Metal.Weighted>
-0.0000

> <Gold.Chemscore.Lipo.Weighted>
-10.2840

> <Gold.Chemscore.Internal_Hbond.Weighted>
0.0000

> <Gold.Chemscore.DEClash.Weighted>
0.3670

> <Gold.Chemscore.DEInternal.Weighted>
2.9753

> <Gold.Chemscore.Rot.Weighted>
4.1613

> <Gold.Chemscore.Internal.Correction.Weighted>
   9.000000E+99

> <Gold.Protein.RotatedTorsions>
[ 6907 6896 6895 6894 ] final  -29.76 input  -60.11 | X-H torsion
[ 7974 7965 7964 7962 ] final -163.62 input  175.53 | X-H torsion
[ 8008 7997 7996 7995 ] final   38.01 input   59.86 | X-H torsion
[ 10167 10162 10161 10158 ] final -134.18 input  -65.29 | X-H torsion
[ 10718 10713 10712 10709 ] final  117.82 input   66.30 | X-H torsion
[ 10763 10752 10751 10750 ] final -128.42 input  -60.55 | X-H torsion
[ 11005 11000 10999 10996 ] final  -23.63 input  -57.11 | X-H torsion

> <Gold.Protein.ActiveResidues>
 VAL166  LYS551  ARG553  GLY616  TRP617  ASP618  TYR619  PRO620  LYS621  CYS622 
 ASP623  PHE694  ASN695  SER759  ASP760  ASP761  ALA762  ILE779  LEU786  VAL792 
 PHE793  MET794  SER795  GLU796  ALA797  LYS798  CYS799  TRP800  GLU811  SER814 

> <Gold.Protein.RotatedAtoms>
  151.1148  135.0047  159.8510 H   0  0  0  0  0  0  0  0  0  0  0  0  # atno 6907 bound_to 6896
  152.5445  134.1793  159.8639 H   0  0  0  0  0  0  0  0  0  0  0  0  # atno 6908 bound_to 6896
  151.1846  133.4659  159.2627 H   0  0  0  0  0  0  0  0  0  0  0  0  # atno 6909 bound_to 6896
  144.7321  140.3081  143.6193 H   0  0  0  0  0  0  0  0  0  0  0  0  # atno 7974 bound_to 7965
  155.2132  140.3325  155.4326 H   0  0  0  0  0  0  0  0  0  0  0  0  # atno 8008 bound_to 7997
  156.2362  140.1873  156.7160 H   0  0  0  0  0  0  0  0  0  0  0  0  # atno 8009 bound_to 7997
  154.6064  140.0615  156.9422 H   0  0  0  0  0  0  0  0  0  0  0  0  # atno 8010 bound_to 7997
  139.8907  143.6726  152.2612 H   0  0  0  0  0  0  0  0  0  0  0  0  # atno 10167 bound_to 10162
  157.6071  131.1041  150.7669 H   0  0  0  0  0  0  0  0  0  0  0  0  # atno 10718 bound_to 10713
  154.8756  135.3929  154.3754 H   0  0  0  0  0  0  0  0  0  0  0  0  # atno 10763 bound_to 10752
  153.4508  135.7028  153.6115 H   0  0  0  0  0  0  0  0  0  0  0  0  # atno 10764 bound_to 10752
  153.4656  135.3802  155.2331 H   0  0  0  0  0  0  0  0  0  0  0  0  # atno 10765 bound_to 10752
  140.8770  133.7680  156.0255 H   0  0  0  0  0  0  0  0  0  0  0  0  # atno 11005 bound_to 11000
  145.7693  139.1851  143.2222 LP  0  0  0  0  0  0  0  0  0  0  0  0  # atno 17320 bound_to 7965
  146.0924  140.7640  142.9589 LP  0  0  0  0  0  0  0  0  0  0  0  0  # atno 17321 bound_to 7965
  139.7113  144.7620  151.1108 LP  0  0  0  0  0  0  0  0  0  0  0  0  # atno 17342 bound_to 10162
  140.7727  143.5328  150.9404 LP  0  0  0  0  0  0  0  0  0  0  0  0  # atno 17343 bound_to 10162
  156.8054  130.4935  149.5363 LP  0  0  0  0  0  0  0  0  0  0  0  0  # atno 17370 bound_to 10713
  156.1161  130.6076  151.0123 LP  0  0  0  0  0  0  0  0  0  0  0  0  # atno 17371 bound_to 10713
  140.8506  134.2958  157.5277 LP  0  0  0  0  0  0  0  0  0  0  0  0  # atno 17394 bound_to 11000
  139.8716  134.9466  156.3942 LP  0  0  0  0  0  0  0  0  0  0  0  0  # atno 17395 bound_to 11000

$$$$
