AV-unprocessed.smi:1188|AV-procd|sdf|4977|dock1
  -GOLD-   22720 3573D 1   1.00000     0.00000
 Structure written by MMmdl.
 48 49  0  0  0  0  0  0  0  0  1 V2000
  152.2206  144.6883  160.5779 C   0  0  0  0  0  0  0  0  0  0  0  0
  151.1814  144.6076  159.9418 C   0  0  0  0  0  0  0  0  0  0  0  0
  149.9215  144.5164  159.1892 C   0  0  0  0  0  0  0  0  0  0  0  0
  150.0006  143.5271  158.1252 N   0  0  0  0  0  0  0  0  0  0  0  0
  150.5156  142.2929  158.2623 C   0  0  0  0  0  0  0  0  0  0  0  0
  150.9755  141.9016  159.3358 O   0  0  0  0  0  0  0  0  0  0  0  0
  150.4725  141.4839  157.0407 C   0  0  0  0  0  0  0  0  0  0  0  0
  151.1697  140.2129  157.0095 C   0  0  0  0  0  0  0  0  0  0  0  0
  151.1405  139.4366  155.9088 C   0  0  0  0  0  0  0  0  0  0  0  0
  150.4134  139.8390  154.7019 C   0  0  0  0  0  0  0  0  0  0  0  0
  150.3770  139.1316  153.6944 O   0  0  0  0  0  0  0  0  0  0  0  0
  149.7800  141.0495  154.7657 N   0  0  0  0  0  0  0  0  0  0  0  0
  149.0219  141.5614  153.6116 C   0  0  0  0  0  0  0  0  0  0  0  0
  147.8747  140.6350  153.1838 C   0  0  0  0  0  0  0  0  0  0  0  0
  146.9481  140.3820  153.9548 O   0  0  0  0  0  0  0  0  0  0  0  0
  147.9443  140.1508  151.9347 N   0  0  0  0  0  0  0  0  0  0  0  0
  146.9654  139.2585  151.3250 C   0  0  0  0  0  0  0  0  0  0  0  0
  146.4518  138.2102  152.3283 C   0  0  0  0  0  0  0  0  0  0  0  0
  145.4410  137.2549  151.7152 C   0  0  0  0  0  0  0  0  0  0  0  0
  144.2161  137.0750  152.2470 C   0  0  0  0  0  0  0  0  0  0  0  0
  143.1735  136.1232  151.6867 C   0  0  0  0  0  0  0  0  0  0  0  0
  143.7684  135.1377  150.6666 C   0  0  0  0  0  0  0  0  0  0  0  0
  144.7282  135.8495  149.7050 C   0  0  0  0  0  0  0  0  0  0  0  0
  145.8930  136.5109  150.4634 C   0  0  0  0  0  0  0  0  0  0  0  0
  149.8081  141.8533  155.9231 C   0  0  0  0  0  0  0  0  0  0  0  0
  153.1275  144.7561  161.1361 H   0  0  0  0  0  0  0  0  0  0  0  0
  149.1232  144.2560  159.8854 H   0  0  0  0  0  0  0  0  0  0  0  0
  149.7003  145.5014  158.7759 H   0  0  0  0  0  0  0  0  0  0  0  0
  149.6353  143.7938  157.2227 H   0  0  0  0  0  0  0  0  0  0  0  0
  151.7207  139.8700  157.8735 H   0  0  0  0  0  0  0  0  0  0  0  0
  151.6665  138.4931  155.9141 H   0  0  0  0  0  0  0  0  0  0  0  0
  148.6000  142.5426  153.8332 H   0  0  0  0  0  0  0  0  0  0  0  0
  149.6927  141.7262  152.7660 H   0  0  0  0  0  0  0  0  0  0  0  0
  148.7361  140.4153  151.3667 H   0  0  0  0  0  0  0  0  0  0  0  0
  146.1410  139.8425  150.9130 H   0  0  0  0  0  0  0  0  0  0  0  0
  147.4457  138.7598  150.4825 H   0  0  0  0  0  0  0  0  0  0  0  0
  147.2951  137.6395  152.7203 H   0  0  0  0  0  0  0  0  0  0  0  0
  145.9884  138.6994  153.1860 H   0  0  0  0  0  0  0  0  0  0  0  0
  143.9227  137.6345  153.1234 H   0  0  0  0  0  0  0  0  0  0  0  0
  142.7100  135.5741  152.5066 H   0  0  0  0  0  0  0  0  0  0  0  0
  142.3891  136.7201  151.2204 H   0  0  0  0  0  0  0  0  0  0  0  0
  144.3085  134.3499  151.1934 H   0  0  0  0  0  0  0  0  0  0  0  0
  142.9686  134.6460  150.1122 H   0  0  0  0  0  0  0  0  0  0  0  0
  145.1164  135.1469  148.9668 H   0  0  0  0  0  0  0  0  0  0  0  0
  144.1785  136.6093  149.1480 H   0  0  0  0  0  0  0  0  0  0  0  0
  146.4162  137.1989  149.7981 H   0  0  0  0  0  0  0  0  0  0  0  0
  146.6144  135.7495  150.7611 H   0  0  0  0  0  0  0  0  0  0  0  0
  149.2475  142.7722  155.8274 H   0  0  0  0  0  0  0  0  0  0  0  0
  1  2  3  0  0  0  0
  1 26  1  0  0  0  0
  2  3  1  0  0  0  0
  3  4  1  0  0  0  0
  3 27  1  0  0  0  0
  3 28  1  0  0  0  0
  4  5  1  0  0  0  0
  4 29  1  0  0  0  0
  5  6  2  0  0  0  0
  5  7  1  0  0  0  0
  7 25  2  0  0  0  0
  7  8  1  0  0  0  0
  8  9  2  0  0  0  0
  8 30  1  0  0  0  0
  9 10  1  0  0  0  0
  9 31  1  0  0  0  0
 10 11  2  0  0  0  0
 10 12  1  0  0  0  0
 12 13  1  0  0  0  0
 12 25  1  0  0  0  0
 13 14  1  0  0  0  0
 13 32  1  0  0  0  0
 13 33  1  0  0  0  0
 14 15  2  0  0  0  0
 14 16  1  0  0  0  0
 16 17  1  0  0  0  0
 16 34  1  0  0  0  0
 17 18  1  0  0  0  0
 17 35  1  0  0  0  0
 17 36  1  0  0  0  0
 18 19  1  0  0  0  0
 18 37  1  0  0  0  0
 18 38  1  0  0  0  0
 19 24  1  0  0  0  0
 19 20  2  0  0  0  0
 20 21  1  0  0  0  0
 20 39  1  0  0  0  0
 21 22  1  0  0  0  0
 21 40  1  0  0  0  0
 21 41  1  0  0  0  0
 22 23  1  0  0  0  0
 22 42  1  0  0  0  0
 22 43  1  0  0  0  0
 23 24  1  0  0  0  0
 23 44  1  0  0  0  0
 23 45  1  0  0  0  0
 24 46  1  0  0  0  0
 24 47  1  0  0  0  0
 25 48  1  0  0  0  0
M  END
> <s_m_source_file>
AV-unprocessed.smi

> <i_m_source_file_index>
1188

> <i_lp_mmshare_version>
43012

> <i_f3d_flags>
0

> <s_epik_input>
W0NIXSNDW0NIMl1bTkhdQyg9TyljMVtjSF1bY0hdYyg9TyluKFtjSF0xKVtDSDJdQyg9TylbTkhdW0NIMl1bQ0gyXUMyPVtDSF1bQ0gyXVtDSDJdW0NIMl1bQ0gyXTI=

> <s_epik_cmdline>
J2VwaWtfcHl0aG9uJywgJy1waCcsICc3LjAnLCAnLXRuJywgJzgnLCAnLW1hJywgJzIwMCcsICctbWV0YWxfYmluZGluZycsICctaW1hZScsICc8aW5maWxlLm1hZT4nLCAnLW9tYWUnLCAnPG91dGZpbGUubWFlPic=

> <r_lp_tautomer_probability>
1

> <r_epik_Ionization_Penalty>
3.04448e-06

> <r_epik_Ionization_Penalty_Charging>
4.20752e-08

> <r_epik_Ionization_Penalty_Neutral>
3.00241e-06

> <r_epik_State_Penalty>
-0

> <r_epik_Charging_Adjusted_Penalty>
4.20752e-08

> <i_epik_Tot_Q>
0

> <i_epik_Tot_abs_Q>
0

> <r_epik_Metal_State_Penalty>
-0

> <b_epik_Metal_Only>
0

> <s_lp_Force_Field>
OPLS_2005

> <r_lp_Energy>
18.5418

> <b_lp_Chiralities_Consistent>
1

> <s_lp_Variant>
AV-unprocessed.smi:1188-1

> <Gold.Version>
5.8.1

> <Gold.Id.Protein>
6NUR|6NUR_protein|mol2

> <Gold.PLP.Fitness>
55.5908

> <Gold.PLP.PLP>
-46.9361

> <Gold.PLP.part.hbond>
-2.6646

> <Gold.PLP.part.metal>
0.0000

> <Gold.PLP.part.buried>
-3.3599

> <Gold.PLP.part.nonpolar>
-42.3848

> <Gold.PLP.part.repulsive>
1.8594

> <Gold.PLP.ligand.clash>
0.0000

> <Gold.PLP.ligand.torsion>
0.2983

> <Gold.PLP.Chemscore.Hbond>
1.9913

> <Gold.PLP.Chemscore.CHOScore>
1.0000

> <Gold.PLP.Chemscore.Metal>
0.0000

> <Gold.Chemscore.Hbonds>
donor molecule, donor type, donor heavy atom, donor atom, acceptor molecule, acceptor atom, score
      L1  H     4    29       P1  8028  1.00
      L1  C    25    48       P1  8028  0.89

> <Gold.PLP.Chemscore.Internal.Correction>
0.2776

> <Gold.Rescore>
     Score         DG    S(hbond)    S(metal)    S(lipo)     H(rot)  DE(clash)    DE(int)     intcor
     12.97     -19.08       1.87        0.00     106.01       1.97       1.69       4.42       ----

> <Gold.Chemscore.Fitness>
12.9684

> <Gold.Chemscore.DG>
-19.0840

> <Gold.Chemscore.ZeroCoef>
-5.4800

> <Gold.Chemscore.Hbond>
1.8690

> <Gold.Chemscore.Metal>
0.0000

> <Gold.Chemscore.Lipo>
106.0110

> <Gold.Chemscore.Internal_Hbond>
0.0000

> <Gold.Chemscore.DEClash>
1.6914

> <Gold.Chemscore.DEInternal>
4.4242

> <Gold.Chemscore.Rot>
1.9694

> <Gold.Chemscore.Internal.Correction>
   9.000000E+99

> <Gold.Chemscore.Hbonds>
donor molecule, donor type, donor heavy atom, donor atom, acceptor molecule, acceptor atom, score
      L1  H     4    29       P1  8028  0.74

> <Gold.Chemscore.Hbond.Weighted>
-6.2423

> <Gold.Chemscore.Metal.Weighted>
-0.0000

> <Gold.Chemscore.Lipo.Weighted>
-12.4033

> <Gold.Chemscore.Internal_Hbond.Weighted>
0.0000

> <Gold.Chemscore.DEClash.Weighted>
1.6914

> <Gold.Chemscore.DEInternal.Weighted>
4.4242

> <Gold.Chemscore.Rot.Weighted>
5.0416

> <Gold.Chemscore.Internal.Correction.Weighted>
   9.000000E+99

> <Gold.Protein.RotatedTorsions>
[ 6907 6896 6895 6894 ] final   33.93 input  -60.11 | X-H torsion
[ 7974 7965 7964 7962 ] final  -19.58 input  175.53 | X-H torsion
[ 8008 7997 7996 7995 ] final   82.52 input   59.86 | X-H torsion
[ 10167 10162 10161 10158 ] final  -82.94 input  -65.29 | X-H torsion
[ 10718 10713 10712 10709 ] final   81.98 input   66.30 | X-H torsion
[ 10763 10752 10751 10750 ] final   54.59 input  -60.55 | X-H torsion
[ 11005 11000 10999 10996 ] final  -71.64 input  -57.11 | X-H torsion

> <Gold.Protein.ActiveResidues>
 VAL166  LYS551  ARG553  GLY616  TRP617  ASP618  TYR619  PRO620  LYS621  CYS622 
 ASP623  PHE694  ASN695  SER759  ASP760  ASP761  ALA762  ILE779  LEU786  VAL792 
 PHE793  MET794  SER795  GLU796  ALA797  LYS798  CYS799  TRP800  GLU811  SER814 

> <Gold.Protein.RotatedAtoms>
  152.0954  134.9378  160.0570 H   0  0  0  0  0  0  0  0  0  0  0  0  # atno 6907 bound_to 6896
  152.0613  133.4059  159.4427 H   0  0  0  0  0  0  0  0  0  0  0  0  # atno 6908 bound_to 6896
  150.6838  134.3117  159.4792 H   0  0  0  0  0  0  0  0  0  0  0  0  # atno 6909 bound_to 6896
  146.1834  140.4082  142.8486 H   0  0  0  0  0  0  0  0  0  0  0  0  # atno 7974 bound_to 7965
  155.9117  140.3427  155.6104 H   0  0  0  0  0  0  0  0  0  0  0  0  # atno 8008 bound_to 7997
  155.7379  140.0804  157.2278 H   0  0  0  0  0  0  0  0  0  0  0  0  # atno 8009 bound_to 7997
  154.4057  140.1576  156.2570 H   0  0  0  0  0  0  0  0  0  0  0  0  # atno 8010 bound_to 7997
  140.4273  143.2562  151.8808 H   0  0  0  0  0  0  0  0  0  0  0  0  # atno 10167 bound_to 10162
  157.6846  131.0028  150.2307 H   0  0  0  0  0  0  0  0  0  0  0  0  # atno 10718 bound_to 10713
  152.9806  135.5740  154.4929 H   0  0  0  0  0  0  0  0  0  0  0  0  # atno 10763 bound_to 10752
  154.4460  135.2777  155.1816 H   0  0  0  0  0  0  0  0  0  0  0  0  # atno 10764 bound_to 10752
  154.3464  135.6218  153.5675 H   0  0  0  0  0  0  0  0  0  0  0  0  # atno 10765 bound_to 10752
  141.1595  133.6823  156.6937 H   0  0  0  0  0  0  0  0  0  0  0  0  # atno 11005 bound_to 11000
  144.8354  140.6773  143.6264 LP  0  0  0  0  0  0  0  0  0  0  0  0  # atno 17320 bound_to 7965
  145.4011  139.1597  143.4177 LP  0  0  0  0  0  0  0  0  0  0  0  0  # atno 17321 bound_to 7965
  139.4784  144.5373  151.8579 LP  0  0  0  0  0  0  0  0  0  0  0  0  # atno 17342 bound_to 10162
  140.4467  144.1912  150.5894 LP  0  0  0  0  0  0  0  0  0  0  0  0  # atno 17343 bound_to 10162
  156.2940  130.3749  149.7814 LP  0  0  0  0  0  0  0  0  0  0  0  0  # atno 17370 bound_to 10713
  156.5465  130.8323  151.3286 LP  0  0  0  0  0  0  0  0  0  0  0  0  # atno 17371 bound_to 10713
  140.3011  134.8163  157.4098 LP  0  0  0  0  0  0  0  0  0  0  0  0  # atno 17394 bound_to 11000
  140.1261  134.5156  155.8143 LP  0  0  0  0  0  0  0  0  0  0  0  0  # atno 17395 bound_to 11000

$$$$
