AV-unprocessed.smi:1463|AV-procd|sdf|5934|dock2
  -GOLD-   22720 6 13D 1   1.00000     0.00000
 Structure written by MMmdl.
 46 47  0  0  0  0  0  0  0  0  1 V2000
  153.2893  136.9851  157.6745 C   0  0  0  0  0  0  0  0  0  0  0  0
  152.9371  136.8663  156.3080 O   0  0  0  0  0  0  0  0  0  0  0  0
  151.8442  137.6973  155.9523 C   0  0  0  0  0  0  0  0  0  0  0  0
  152.3695  138.8690  155.1191 C   0  0  0  0  0  0  0  0  0  0  0  0
  151.4155  139.9212  155.1969 O   0  0  0  0  0  0  0  0  0  0  0  0
  151.4211  140.7507  156.3008 C   0  0  0  0  0  0  0  0  0  0  0  0
  152.4668  140.6667  157.1616 N   0  0  0  0  0  0  0  0  0  0  0  0
  152.4882  141.4908  158.2298 C   0  0  0  0  0  0  0  0  0  0  0  0
  151.4824  142.4393  158.4927 C   0  0  0  0  0  0  0  0  0  0  0  0
  150.3964  142.5263  157.6019 C   0  0  0  0  0  0  0  0  0  0  0  0
  150.3471  141.6568  156.4917 C   0  0  0  0  0  0  0  0  0  0  0  0
  149.2071  141.7549  155.5160 C   0  0  0  0  0  0  0  0  0  0  0  0
  149.4695  141.9433  154.3276 O   0  0  0  0  0  0  0  0  0  0  0  0
  147.9389  141.6147  155.9794 N   0  0  0  0  0  0  0  0  0  0  0  0
  147.5158  141.7337  157.3830 C   0  0  0  0  0  0  0  0  0  0  0  0
  146.7274  143.0437  157.5618 C   0  0  0  0  0  0  0  0  0  0  0  0
  145.5216  143.1216  156.6006 C   0  0  0  0  0  0  0  0  0  0  0  0
  144.7917  144.4769  156.7406 C   0  0  0  0  0  0  0  0  0  0  0  0
  144.4926  144.8822  158.1890 C   0  0  0  0  0  0  0  0  0  0  0  0
  145.4733  145.4881  158.8627 N   0  0  0  0  0  0  0  0  0  0  0  0
  143.3977  144.6485  158.6972 O   0  0  0  0  0  0  0  0  0  0  0  0
  145.9724  142.8252  155.1505 C   0  0  0  0  0  0  0  0  0  0  0  0
  146.7859  141.5216  155.0764 C   0  0  0  0  0  0  0  0  0  0  0  0
  154.1304  136.3274  157.8939 H   0  0  0  0  0  0  0  0  0  0  0  0
  152.4595  136.6997  158.3222 H   0  0  0  0  0  0  0  0  0  0  0  0
  153.5889  138.0056  157.9167 H   0  0  0  0  0  0  0  0  0  0  0  0
  151.1269  137.1207  155.3666 H   0  0  0  0  0  0  0  0  0  0  0  0
  151.3265  138.0644  156.8399 H   0  0  0  0  0  0  0  0  0  0  0  0
  153.3455  139.1839  155.4927 H   0  0  0  0  0  0  0  0  0  0  0  0
  152.4872  138.5594  154.0796 H   0  0  0  0  0  0  0  0  0  0  0  0
  153.3360  141.3949  158.8919 H   0  0  0  0  0  0  0  0  0  0  0  0
  151.5433  143.0855  159.3559 H   0  0  0  0  0  0  0  0  0  0  0  0
  149.6104  143.2469  157.7762 H   0  0  0  0  0  0  0  0  0  0  0  0
  146.8922  140.8775  157.6446 H   0  0  0  0  0  0  0  0  0  0  0  0
  148.3401  141.7292  158.0934 H   0  0  0  0  0  0  0  0  0  0  0  0
  146.3869  143.1275  158.5943 H   0  0  0  0  0  0  0  0  0  0  0  0
  147.3935  143.8902  157.3874 H   0  0  0  0  0  0  0  0  0  0  0  0
  144.8314  142.3302  156.8983 H   0  0  0  0  0  0  0  0  0  0  0  0
  145.4029  145.2672  156.3033 H   0  0  0  0  0  0  0  0  0  0  0  0
  143.8642  144.4547  156.1662 H   0  0  0  0  0  0  0  0  0  0  0  0
  145.3267  145.7757  159.8194 H   0  0  0  0  0  0  0  0  0  0  0  0
  146.3602  145.6573  158.4108 H   0  0  0  0  0  0  0  0  0  0  0  0
  145.1092  142.7472  154.4893 H   0  0  0  0  0  0  0  0  0  0  0  0
  146.5768  143.6515  154.7737 H   0  0  0  0  0  0  0  0  0  0  0  0
  147.0765  141.3215  154.0441 H   0  0  0  0  0  0  0  0  0  0  0  0
  146.1650  140.6757  155.3756 H   0  0  0  0  0  0  0  0  0  0  0  0
  1  2  1  0  0  0  0
  1 24  1  0  0  0  0
  1 25  1  0  0  0  0
  1 26  1  0  0  0  0
  2  3  1  0  0  0  0
  3  4  1  0  0  0  0
  3 27  1  0  0  0  0
  3 28  1  0  0  0  0
  4  5  1  0  0  0  0
  4 29  1  0  0  0  0
  4 30  1  0  0  0  0
  5  6  1  0  0  0  0
  6 11  1  0  0  0  0
  6  7  2  0  0  0  0
  7  8  1  0  0  0  0
  8  9  2  0  0  0  0
  8 31  1  0  0  0  0
  9 10  1  0  0  0  0
  9 32  1  0  0  0  0
 10 11  2  0  0  0  0
 10 33  1  0  0  0  0
 11 12  1  0  0  0  0
 12 13  2  0  0  0  0
 12 14  1  0  0  0  0
 14 23  1  0  0  0  0
 14 15  1  0  0  0  0
 15 16  1  0  0  0  0
 15 34  1  0  0  0  0
 15 35  1  0  0  0  0
 16 17  1  0  0  0  0
 16 36  1  0  0  0  0
 16 37  1  0  0  0  0
 17 18  1  0  0  0  0
 17 22  1  0  0  0  0
 17 38  1  0  0  0  0
 18 19  1  0  0  0  0
 18 39  1  0  0  0  0
 18 40  1  0  0  0  0
 19 20  1  0  0  0  0
 19 21  2  0  0  0  0
 20 41  1  0  0  0  0
 20 42  1  0  0  0  0
 22 23  1  0  0  0  0
 22 43  1  0  0  0  0
 22 44  1  0  0  0  0
 23 45  1  0  0  0  0
 23 46  1  0  0  0  0
M  END
> <s_m_source_file>
AV-unprocessed.smi

> <i_m_source_file_index>
1463

> <i_lp_mmshare_version>
43012

> <i_f3d_flags>
0

> <s_epik_input>
W0NIM11PW0NIMl1bQ0gyXU9jMW5bY0hdW2NIXVtjSF1jMUMoPU8pTjJbQ0gyXVtDSDJdW0NIXShbQ0gyXVtDSDJdMilbQ0gyXUMoPU8pW05IMl0=

> <s_epik_cmdline>
J2VwaWtfcHl0aG9uJywgJy1waCcsICc3LjAnLCAnLXRuJywgJzgnLCAnLW1hJywgJzIwMCcsICctbWV0YWxfYmluZGluZycsICctaW1hZScsICc8aW5maWxlLm1hZT4nLCAnLW9tYWUnLCAnPG91dGZpbGUubWFlPic=

> <r_lp_tautomer_probability>
1

> <r_epik_Ionization_Penalty>
2.54873e-06

> <r_epik_Ionization_Penalty_Charging>
0

> <r_epik_Ionization_Penalty_Neutral>
2.54873e-06

> <r_epik_State_Penalty>
-0

> <r_epik_Charging_Adjusted_Penalty>
0

> <i_epik_Tot_Q>
0

> <i_epik_Tot_abs_Q>
0

> <r_epik_Metal_State_Penalty>
-0

> <b_epik_Metal_Only>
0

> <s_lp_Force_Field>
OPLS_2005

> <r_lp_Energy>
26.7295

> <b_lp_Chiralities_Consistent>
1

> <s_lp_Variant>
AV-unprocessed.smi:1463-1

> <Gold.Version>
5.8.1

> <Gold.Id.Protein>
6NUR|6NUR_protein|mol2

> <Gold.PLP.Fitness>
45.5893

> <Gold.PLP.PLP>
-36.0870

> <Gold.PLP.part.hbond>
-5.1115

> <Gold.PLP.part.metal>
0.0000

> <Gold.PLP.part.buried>
-2.8747

> <Gold.PLP.part.nonpolar>
-27.0218

> <Gold.PLP.part.repulsive>
0.3666

> <Gold.PLP.ligand.clash>
0.1438

> <Gold.PLP.ligand.torsion>
2.1282

> <Gold.PLP.Chemscore.Hbond>
4.0625

> <Gold.PLP.Chemscore.CHOScore>
0.0000

> <Gold.PLP.Chemscore.Metal>
0.0000

> <Gold.Chemscore.Hbonds>
donor molecule, donor type, donor heavy atom, donor atom, acceptor molecule, acceptor atom, score
      L1  H    20    42       P1  8029  1.00
      P1  H  7989  7998       L1     5  1.00
      P1  H  7997  8010       L1     7  0.74
      P1  H  8011  8017       L1    13  0.35
      P1  H 10752 10763       L1     2  0.82

> <Gold.PLP.Chemscore.Internal.Correction>
1.7151

> <Gold.Rescore>
     Score         DG    S(hbond)    S(metal)    S(lipo)     H(rot)  DE(clash)    DE(int)     intcor
     11.70     -15.03       2.53        0.00      65.34       2.55       0.29       3.05       ----

> <Gold.Chemscore.Fitness>
11.6953

> <Gold.Chemscore.DG>
-15.0346

> <Gold.Chemscore.ZeroCoef>
-5.4800

> <Gold.Chemscore.Hbond>
2.5291

> <Gold.Chemscore.Metal>
0.0000

> <Gold.Chemscore.Lipo>
65.3398

> <Gold.Chemscore.Internal_Hbond>
0.0000

> <Gold.Chemscore.DEClash>
0.2883

> <Gold.Chemscore.DEInternal>
3.0510

> <Gold.Chemscore.Rot>
2.5536

> <Gold.Chemscore.Internal.Correction>
   9.000000E+99

> <Gold.Chemscore.Hbonds>
donor molecule, donor type, donor heavy atom, donor atom, acceptor molecule, acceptor atom, score
      L1  H    20    42       P1  8029  1.00
      P1  H  7989  7998       L1     5  0.34
      P1  H  7997  8010       L1     7  0.59
      P1  H  8011  8017       L1    13  0.33
      P1  H 10752 10763       L1     2  0.75

> <Gold.Chemscore.Hbond.Weighted>
-8.4471

> <Gold.Chemscore.Metal.Weighted>
-0.0000

> <Gold.Chemscore.Lipo.Weighted>
-7.6448

> <Gold.Chemscore.Internal_Hbond.Weighted>
0.0000

> <Gold.Chemscore.DEClash.Weighted>
0.2883

> <Gold.Chemscore.DEInternal.Weighted>
3.0510

> <Gold.Chemscore.Rot.Weighted>
6.5373

> <Gold.Chemscore.Internal.Correction.Weighted>
   9.000000E+99

> <Gold.Protein.RotatedTorsions>
[ 6907 6896 6895 6894 ] final  143.09 input  -60.11 | X-H torsion
[ 7974 7965 7964 7962 ] final  139.36 input  175.53 | X-H torsion
[ 8008 7997 7996 7995 ] final   67.64 input   59.86 | X-H torsion
[ 10167 10162 10161 10158 ] final  -97.49 input  -65.29 | X-H torsion
[ 10718 10713 10712 10709 ] final  -81.31 input   66.30 | X-H torsion
[ 10763 10752 10751 10750 ] final   99.28 input  -60.55 | X-H torsion
[ 11005 11000 10999 10996 ] final    4.35 input  -57.11 | X-H torsion

> <Gold.Protein.ActiveResidues>
 VAL166  LYS551  ARG553  GLY616  TRP617  ASP618  TYR619  PRO620  LYS621  CYS622 
 ASP623  PHE694  ASN695  SER759  ASP760  ASP761  ALA762  ILE779  LEU786  VAL792 
 PHE793  MET794  SER795  GLU796  ALA797  LYS798  CYS799  TRP800  GLU811  SER814 

> <Gold.Protein.RotatedAtoms>
  152.2106  133.4908  159.5107 H   0  0  0  0  0  0  0  0  0  0  0  0  # atno 6907 bound_to 6896
  150.6989  134.1471  159.4136 H   0  0  0  0  0  0  0  0  0  0  0  0  # atno 6908 bound_to 6896
  151.9391  135.0221  160.0585 H   0  0  0  0  0  0  0  0  0  0  0  0  # atno 6909 bound_to 6896
  144.9286  139.5076  143.5628 H   0  0  0  0  0  0  0  0  0  0  0  0  # atno 7974 bound_to 7965
  155.6961  140.3495  155.4913 H   0  0  0  0  0  0  0  0  0  0  0  0  # atno 8008 bound_to 7997
  155.9482  140.1114  157.1021 H   0  0  0  0  0  0  0  0  0  0  0  0  # atno 8009 bound_to 7997
  154.4116  140.1199  156.5003 H   0  0  0  0  0  0  0  0  0  0  0  0  # atno 8010 bound_to 7997
  140.2829  143.3270  152.0423 H   0  0  0  0  0  0  0  0  0  0  0  0  # atno 10167 bound_to 10162
  156.0053  130.4600  150.3934 H   0  0  0  0  0  0  0  0  0  0  0  0  # atno 10718 bound_to 10713
  153.2994  135.4119  155.1239 H   0  0  0  0  0  0  0  0  0  0  0  0  # atno 10763 bound_to 10752
  154.8545  135.3538  154.5872 H   0  0  0  0  0  0  0  0  0  0  0  0  # atno 10764 bound_to 10752
  153.6297  135.7061  153.5338 H   0  0  0  0  0  0  0  0  0  0  0  0  # atno 10765 bound_to 10752
  140.5829  133.9996  155.8055 H   0  0  0  0  0  0  0  0  0  0  0  0  # atno 11005 bound_to 11000
  146.3237  139.8220  142.8925 LP  0  0  0  0  0  0  0  0  0  0  0  0  # atno 17320 bound_to 7965
  145.3178  141.0236  143.3517 LP  0  0  0  0  0  0  0  0  0  0  0  0  # atno 17321 bound_to 7965
  139.4958  144.6579  151.6531 LP  0  0  0  0  0  0  0  0  0  0  0  0  # atno 17342 bound_to 10162
  140.5797  143.9968  150.6261 LP  0  0  0  0  0  0  0  0  0  0  0  0  # atno 17343 bound_to 10162
  157.2007  131.0437  151.2652 LP  0  0  0  0  0  0  0  0  0  0  0  0  # atno 17370 bound_to 10713
  157.3978  130.7317  149.6744 LP  0  0  0  0  0  0  0  0  0  0  0  0  # atno 17371 bound_to 10713
  141.0984  133.9806  157.3120 LP  0  0  0  0  0  0  0  0  0  0  0  0  # atno 17394 bound_to 11000
  139.9309  135.0200  156.8396 LP  0  0  0  0  0  0  0  0  0  0  0  0  # atno 17395 bound_to 11000

$$$$
