AV-unprocessed.smi:1380|AV-procd|sdf|5601|dock7
  -GOLD-   22720 5203D 1   1.00000     0.00000
 Structure written by MMmdl.
 34 35  0  0  0  0  0  0  0  0  2 V2000
  146.3660  139.8034  154.2818 O   0  0  0  0  0  0  0  0  0  0  0  0
  147.1903  139.7376  153.3701 C   0  0  0  0  0  0  0  0  0  0  0  0
  147.1282  138.8504  152.3674 N   0  0  0  0  0  0  0  0  0  0  0  0
  146.0854  137.8405  152.2076 C   0  0  0  0  0  0  0  0  0  0  0  0
  146.1269  137.1349  150.8366 C   0  0  0  0  0  0  0  0  0  0  0  0
  145.5272  135.7394  150.8514 C   0  0  0  0  0  0  0  0  0  0  0  0
  146.1823  134.6846  151.5240 C   0  0  0  0  0  0  0  0  0  0  0  0
  145.6017  133.3990  151.5255 C   0  0  0  0  0  0  0  0  0  0  0  0
  144.3786  133.1976  150.8534 C   0  0  0  0  0  0  0  0  0  0  0  0
  143.7808  134.2310  150.2204 N   0  3  0  0  0  0  0  0  0  0  0  0
  144.3047  135.4761  150.1952 C   0  0  0  0  0  0  0  0  0  0  0  0
  148.2658  140.5302  153.2699 N   0  0  0  0  0  0  0  0  0  0  0  0
  148.6276  141.5615  154.2335 C   0  0  0  0  0  0  0  0  0  0  0  0
  149.2961  141.0489  155.4951 C   0  0  0  0  0  0  0  0  0  0  0  0
  150.6229  141.6041  155.9591 C   0  0  0  0  0  0  0  0  0  0  0  0
  150.5440  140.2018  155.4073 C   0  0  0  0  0  0  0  0  0  0  0  0
  147.8504  138.8764  151.6623 H   0  0  0  0  0  0  0  0  0  0  0  0
  146.1499  137.1075  153.0132 H   0  0  0  0  0  0  0  0  0  0  0  0
  145.1259  138.3441  152.3272 H   0  0  0  0  0  0  0  0  0  0  0  0
  145.6011  137.7365  150.0940 H   0  0  0  0  0  0  0  0  0  0  0  0
  147.1588  137.0719  150.4894 H   0  0  0  0  0  0  0  0  0  0  0  0
  147.1185  134.8581  152.0346 H   0  0  0  0  0  0  0  0  0  0  0  0
  146.0880  132.5797  152.0347 H   0  0  0  0  0  0  0  0  0  0  0  0
  143.8643  132.2489  150.8036 H   0  0  0  0  0  0  0  0  0  0  0  0
  143.7314  136.2194  149.6598 H   0  0  0  0  0  0  0  0  0  0  0  0
  148.8835  140.4049  152.4813 H   0  0  0  0  0  0  0  0  0  0  0  0
  149.3167  142.2469  153.7397 H   0  0  0  0  0  0  0  0  0  0  0  0
  147.7478  142.1512  154.4969 H   0  0  0  0  0  0  0  0  0  0  0  0
  148.5941  140.7630  156.2764 H   0  0  0  0  0  0  0  0  0  0  0  0
  151.1023  142.3598  155.3402 H   0  0  0  0  0  0  0  0  0  0  0  0
  150.7717  141.7171  157.0309 H   0  0  0  0  0  0  0  0  0  0  0  0
  150.6439  139.3784  156.1115 H   0  0  0  0  0  0  0  0  0  0  0  0
  150.9717  140.0273  154.4219 H   0  0  0  0  0  0  0  0  0  0  0  0
  142.8962  134.0639  149.7401 H   0  0  0  0  0  0  0  0  0  0  0  0
  1  2  2  0  0  0  0
  2  3  1  0  0  0  0
  2 12  1  0  0  0  0
  3  4  1  0  0  0  0
  3 17  1  0  0  0  0
  4  5  1  0  0  0  0
  4 18  1  0  0  0  0
  4 19  1  0  0  0  0
  5  6  1  0  0  0  0
  5 20  1  0  0  0  0
  5 21  1  0  0  0  0
  6 11  1  0  0  0  0
  6  7  2  0  0  0  0
  7  8  1  0  0  0  0
  7 22  1  0  0  0  0
  8  9  2  0  0  0  0
  8 23  1  0  0  0  0
  9 10  1  0  0  0  0
  9 24  1  0  0  0  0
 10 11  2  0  0  0  0
 10 34  1  0  0  0  0
 11 25  1  0  0  0  0
 12 13  1  0  0  0  0
 12 26  1  0  0  0  0
 13 14  1  0  0  0  0
 13 27  1  0  0  0  0
 13 28  1  0  0  0  0
 14 16  1  0  0  0  0
 14 15  1  0  0  0  0
 14 29  1  0  0  0  0
 15 16  1  0  0  0  0
 15 30  1  0  0  0  0
 15 31  1  0  0  0  0
 16 32  1  0  0  0  0
 16 33  1  0  0  0  0
M  CHG  1  10   1
M  END
> <s_m_source_file>
AV-unprocessed.smi

> <i_m_source_file_index>
1380

> <i_lp_mmshare_version>
43012

> <i_f3d_flags>
0

> <s_epik_input>
W0NIMl0xW0NIMl1bQ0hdMVtDSDJdW05IXUMoPU8pW05IXVtDSDJdW0NIMl1jMltjSF1bY0hdW2NIXW5bY0hdMg==

> <s_epik_cmdline>
J2VwaWtfcHl0aG9uJywgJy1waCcsICc3LjAnLCAnLXRuJywgJzgnLCAnLW1hJywgJzIwMCcsICctbWV0YWxfYmluZGluZycsICctaW1hZScsICc8aW5maWxlLm1hZT4nLCAnLW9tYWUnLCAnPG91dGZpbGUubWFlPic=

> <r_epik_Ionization_Penalty>
2.21218

> <r_epik_Ionization_Penalty_Charging>
2.21212

> <r_epik_Ionization_Penalty_Neutral>
5.76468e-05

> <r_epik_State_Penalty>
2.35642

> <r_epik_Charging_Adjusted_Penalty>
4.56854

> <i_epik_Tot_Q>
1

> <i_epik_Tot_abs_Q>
1

> <r_epik_Metal_State_Penalty>
2.37048

> <b_epik_Metal_Only>
0

> <s_lp_Force_Field>
OPLS_2005

> <r_lp_Energy>
16.6962

> <b_lp_Chiralities_Consistent>
1

> <s_lp_Variant>
AV-unprocessed.smi:1380-2

> <Gold.Version>
5.8.1

> <Gold.Id.Protein>
6NUR|6NUR_protein|mol2

> <Gold.PLP.Fitness>
42.0872

> <Gold.PLP.PLP>
-32.3329

> <Gold.PLP.part.hbond>
-3.4464

> <Gold.PLP.part.metal>
0.0000

> <Gold.PLP.part.buried>
1.6911

> <Gold.PLP.part.nonpolar>
-30.0010

> <Gold.PLP.part.repulsive>
0.3323

> <Gold.PLP.ligand.clash>
0.0000

> <Gold.PLP.ligand.torsion>
0.7876

> <Gold.PLP.Chemscore.Hbond>
3.5893

> <Gold.PLP.Chemscore.CHOScore>
0.0000

> <Gold.PLP.Chemscore.Metal>
0.0000

> <Gold.Chemscore.Hbonds>
donor molecule, donor type, donor heavy atom, donor atom, acceptor molecule, acceptor atom, score
      L1  H     3    17       P1  7957  0.62
      L1  H    10    34       P1 10186  1.98
      L1  H    12    26       P1  7957  1.00

> <Gold.PLP.Chemscore.Internal.Correction>
0.5617

> <Gold.Rescore>
     Score         DG    S(hbond)    S(metal)    S(lipo)     H(rot)  DE(clash)    DE(int)     intcor
     15.83     -18.27       2.50        0.00      77.40       1.80       1.65       0.79       ----

> <Gold.Chemscore.Fitness>
15.8283

> <Gold.Chemscore.DG>
-18.2718

> <Gold.Chemscore.ZeroCoef>
-5.4800

> <Gold.Chemscore.Hbond>
2.5019

> <Gold.Chemscore.Metal>
0.0000

> <Gold.Chemscore.Lipo>
77.3953

> <Gold.Chemscore.Internal_Hbond>
0.0000

> <Gold.Chemscore.DEClash>
1.6517

> <Gold.Chemscore.DEInternal>
0.7918

> <Gold.Chemscore.Rot>
1.8047

> <Gold.Chemscore.Internal.Correction>
   9.000000E+99

> <Gold.Chemscore.Hbonds>
donor molecule, donor type, donor heavy atom, donor atom, acceptor molecule, acceptor atom, score
      L1  H     3    17       P1  7957  0.52
      L1  H    10    34       P1 10186  0.94
      L1  H    12    26       P1  7957  0.94

> <Gold.Chemscore.Hbond.Weighted>
-8.3564

> <Gold.Chemscore.Metal.Weighted>
-0.0000

> <Gold.Chemscore.Lipo.Weighted>
-9.0552

> <Gold.Chemscore.Internal_Hbond.Weighted>
0.0000

> <Gold.Chemscore.DEClash.Weighted>
1.6517

> <Gold.Chemscore.DEInternal.Weighted>
0.7918

> <Gold.Chemscore.Rot.Weighted>
4.6199

> <Gold.Chemscore.Internal.Correction.Weighted>
   9.000000E+99

> <Gold.Protein.RotatedTorsions>
[ 6907 6896 6895 6894 ] final   59.06 input  -60.11 | X-H torsion
[ 7974 7965 7964 7962 ] final  -92.03 input  175.53 | X-H torsion
[ 8008 7997 7996 7995 ] final -129.79 input   59.86 | X-H torsion
[ 10167 10162 10161 10158 ] final -102.43 input  -65.29 | X-H torsion
[ 10718 10713 10712 10709 ] final -172.45 input   66.30 | X-H torsion
[ 10763 10752 10751 10750 ] final  147.18 input  -60.55 | X-H torsion
[ 11005 11000 10999 10996 ] final -105.37 input  -57.11 | X-H torsion

> <Gold.Protein.ActiveResidues>
 VAL166  LYS551  ARG553  GLY616  TRP617  ASP618  TYR619  PRO620  LYS621  CYS622 
 ASP623  PHE694  ASN695  SER759  ASP760  ASP761  ALA762  ILE779  LEU786  VAL792 
 PHE793  MET794  SER795  GLU796  ALA797  LYS798  CYS799  TRP800  GLU811  SER814 

> <Gold.Protein.RotatedAtoms>
  152.3881  134.6485  160.0117 H   0  0  0  0  0  0  0  0  0  0  0  0  # atno 6907 bound_to 6896
  151.6728  133.3308  159.3208 H   0  0  0  0  0  0  0  0  0  0  0  0  # atno 6908 bound_to 6896
  150.7802  134.6784  159.6475 H   0  0  0  0  0  0  0  0  0  0  0  0  # atno 6909 bound_to 6896
  145.4052  140.9540  143.2265 H   0  0  0  0  0  0  0  0  0  0  0  0  # atno 7974 bound_to 7965
  155.2851  140.0446  157.3018 H   0  0  0  0  0  0  0  0  0  0  0  0  # atno 8008 bound_to 7997
  154.5574  140.2336  155.8357 H   0  0  0  0  0  0  0  0  0  0  0  0  # atno 8009 bound_to 7997
  156.2019  140.3023  155.9551 H   0  0  0  0  0  0  0  0  0  0  0  0  # atno 8010 bound_to 7997
  140.2307  143.3608  152.0889 H   0  0  0  0  0  0  0  0  0  0  0  0  # atno 10167 bound_to 10162
  156.7557  130.9394  151.3116 H   0  0  0  0  0  0  0  0  0  0  0  0  # atno 10718 bound_to 10713
  154.0341  135.2895  155.3364 H   0  0  0  0  0  0  0  0  0  0  0  0  # atno 10763 bound_to 10752
  154.6970  135.5204  153.8475 H   0  0  0  0  0  0  0  0  0  0  0  0  # atno 10764 bound_to 10752
  153.0627  135.6620  154.0551 H   0  0  0  0  0  0  0  0  0  0  0  0  # atno 10765 bound_to 10752
  141.1056  133.8802  157.1726 H   0  0  0  0  0  0  0  0  0  0  0  0  # atno 11005 bound_to 11000
  144.8347  139.5571  143.6928 LP  0  0  0  0  0  0  0  0  0  0  0  0  # atno 17320 bound_to 7965
  146.2732  139.6687  142.9281 LP  0  0  0  0  0  0  0  0  0  0  0  0  # atno 17321 bound_to 7965
  139.5111  144.6895  151.5798 LP  0  0  0  0  0  0  0  0  0  0  0  0  # atno 17342 bound_to 10162
  140.6187  143.9300  150.6509 LP  0  0  0  0  0  0  0  0  0  0  0  0  # atno 17343 bound_to 10162
  157.6757  130.9092  150.0145 LP  0  0  0  0  0  0  0  0  0  0  0  0  # atno 17370 bound_to 10713
  156.1372  130.3642  149.9639 LP  0  0  0  0  0  0  0  0  0  0  0  0  # atno 17371 bound_to 10713
  139.9925  135.0059  157.0008 LP  0  0  0  0  0  0  0  0  0  0  0  0  # atno 17394 bound_to 11000
  140.4910  134.1193  155.7233 LP  0  0  0  0  0  0  0  0  0  0  0  0  # atno 17395 bound_to 11000

$$$$
