AV-unprocessed.smi:265|AV-procd|sdf|2017|dock5
  -GOLD-   2262021213D 1   1.00000     0.00000
 Structure written by MMmdl.
 52 56  0  0  0  0  0  0  0  0  1 V2000
  148.5764  133.2324  152.3223 C   0  0  0  0  0  0  0  0  0  0  0  0
  148.5551  133.0601  153.8491 C   0  0  2  0  0  0  0  0  0  0  0  0
  147.2977  132.5527  154.2940 O   0  0  0  0  0  0  0  0  0  0  0  0
  146.8254  133.3021  155.4073 C   0  0  0  0  0  0  0  0  0  0  0  0
  148.0540  134.0200  155.9548 C   0  0  0  0  0  0  0  0  0  0  0  0
  148.8490  134.3231  154.6917 C   0  0  2  0  0  0  0  0  0  0  0  0
  148.2892  135.4696  154.0731 O   0  0  0  0  0  0  0  0  0  0  0  0
  150.3505  134.6444  154.9104 C   0  0  0  0  0  0  0  0  0  0  0  0
  150.6166  135.7763  155.7845 N   0  0  0  0  0  0  0  0  0  0  0  0
  150.2391  135.9082  157.1029 C   0  0  0  0  0  0  0  0  0  0  0  0
  150.5982  137.0234  157.6783 N   0  0  0  0  0  0  0  0  0  0  0  0
  151.2929  137.7023  156.6862 C   0  0  0  0  0  0  0  0  0  0  0  0
  151.9492  138.9582  156.6259 C   0  0  0  0  0  0  0  0  0  0  0  0
  151.9868  139.7955  157.6835 N   0  0  0  0  0  0  0  0  0  0  0  0
  153.1258  139.5635  158.5722 C   0  0  0  0  0  0  0  0  0  0  0  0
  153.0041  140.4017  159.8592 C   0  0  0  0  0  0  0  0  0  0  0  0
  152.8090  141.8810  159.4996 C   0  0  2  0  0  0  0  0  0  0  0  0
  152.5838  142.6854  160.6473 O   0  0  0  0  0  0  0  0  0  0  0  0
  152.5627  144.0883  160.3608 C   0  0  0  0  0  0  0  0  0  0  0  0
  151.6935  144.4372  159.1330 C   0  0  0  0  0  0  0  0  0  0  0  0
  151.3927  145.6075  158.9093 O   0  0  0  0  0  0  0  0  0  0  0  0
  151.3234  143.4395  158.3129 N   0  0  0  0  0  0  0  0  0  0  0  0
  151.5669  142.0336  158.6069 C   0  0  1  0  0  0  0  0  0  0  0  0
  151.7342  141.1926  157.3315 C   0  0  0  0  0  0  0  0  0  0  0  0
  152.5498  139.3110  155.4592 N   0  0  0  0  0  0  0  0  0  0  0  0
  152.5082  138.4801  154.4127 C   0  0  0  0  0  0  0  0  0  0  0  0
  151.9293  137.2802  154.3207 N   0  0  0  0  0  0  0  0  0  0  0  0
  151.3250  136.9292  155.4927 C   0  0  0  0  0  0  0  0  0  0  0  0
  153.7022  142.2347  158.9796 H   0  0  0  0  0  0  0  0  0  0  0  0
  150.6922  141.6701  159.1494 H   0  0  0  0  0  0  0  0  0  0  0  0
  149.5362  133.6251  151.9863 H   0  0  0  0  0  0  0  0  0  0  0  0
  147.7945  133.9114  151.9818 H   0  0  0  0  0  0  0  0  0  0  0  0
  148.4171  132.2755  151.8254 H   0  0  0  0  0  0  0  0  0  0  0  0
  149.2689  132.2801  154.1090 H   0  0  0  0  0  0  0  0  0  0  0  0
  146.0844  134.0218  155.0573 H   0  0  0  0  0  0  0  0  0  0  0  0
  146.3495  132.6595  156.1481 H   0  0  0  0  0  0  0  0  0  0  0  0
  147.8088  134.9050  156.5432 H   0  0  0  0  0  0  0  0  0  0  0  0
  148.5935  133.3292  156.6015 H   0  0  0  0  0  0  0  0  0  0  0  0
  148.8299  135.7067  153.3354 H   0  0  0  0  0  0  0  0  0  0  0  0
  150.8589  133.7732  155.3260 H   0  0  0  0  0  0  0  0  0  0  0  0
  150.8315  134.8434  153.9517 H   0  0  0  0  0  0  0  0  0  0  0  0
  149.6763  135.1482  157.6256 H   0  0  0  0  0  0  0  0  0  0  0  0
  153.1868  138.5041  158.8254 H   0  0  0  0  0  0  0  0  0  0  0  0
  154.0496  139.8206  158.0515 H   0  0  0  0  0  0  0  0  0  0  0  0
  152.1592  140.0481  160.4515 H   0  0  0  0  0  0  0  0  0  0  0  0
  153.8943  140.2763  160.4758 H   0  0  0  0  0  0  0  0  0  0  0  0
  152.1962  144.6242  161.2367 H   0  0  0  0  0  0  0  0  0  0  0  0
  153.5816  144.4310  160.1764 H   0  0  0  0  0  0  0  0  0  0  0  0
  150.7824  143.6612  157.4897 H   0  0  0  0  0  0  0  0  0  0  0  0
  152.5623  141.5767  156.7337 H   0  0  0  0  0  0  0  0  0  0  0  0
  150.8343  141.2597  156.7183 H   0  0  0  0  0  0  0  0  0  0  0  0
  153.0100  138.8262  153.5210 H   0  0  0  0  0  0  0  0  0  0  0  0
  1  2  1  0  0  0  0
  1 31  1  0  0  0  0
  1 32  1  0  0  0  0
  1 33  1  0  0  0  0
  2  6  1  0  0  0  0
  2  3  1  0  0  0  0
  2 34  1  0  0  0  0
  3  4  1  0  0  0  0
  4  5  1  0  0  0  0
  4 35  1  0  0  0  0
  4 36  1  0  0  0  0
  5  6  1  0  0  0  0
  5 37  1  0  0  0  0
  5 38  1  0  0  0  0
  6  7  1  0  0  0  0
  6  8  1  0  0  0  0
  7 39  1  0  0  0  0
  8  9  1  0  0  0  0
  8 40  1  0  0  0  0
  8 41  1  0  0  0  0
  9 28  1  0  0  0  0
  9 10  1  0  0  0  0
 10 11  2  0  0  0  0
 10 42  1  0  0  0  0
 11 12  1  0  0  0  0
 12 28  2  0  0  0  0
 12 13  1  0  0  0  0
 13 14  1  0  0  0  0
 13 25  2  0  0  0  0
 14 24  1  0  0  0  0
 14 15  1  0  0  0  0
 15 16  1  0  0  0  0
 15 43  1  0  0  0  0
 15 44  1  0  0  0  0
 16 17  1  0  0  0  0
 16 45  1  0  0  0  0
 16 46  1  0  0  0  0
 17 29  1  0  0  0  0
 17 23  1  0  0  0  0
 17 18  1  0  0  0  0
 18 19  1  0  0  0  0
 19 20  1  0  0  0  0
 19 47  1  0  0  0  0
 19 48  1  0  0  0  0
 20 21  2  0  0  0  0
 20 22  1  0  0  0  0
 22 23  1  0  0  0  0
 22 49  1  0  0  0  0
 23 30  1  0  0  0  0
 23 24  1  0  0  0  0
 24 50  1  0  0  0  0
 24 51  1  0  0  0  0
 25 26  1  0  0  0  0
 26 27  2  0  0  0  0
 26 52  1  0  0  0  0
 27 28  1  0  0  0  0
M  END
> <s_m_source_file>
AV-unprocessed.smi

> <i_m_source_file_index>
265

> <i_lp_mmshare_version>
43012

> <i_f3d_flags>
0

> <s_epik_input>
W0NIMl0xW0NIMl1PW0NAQEhdKFtDSDNdKVtDQEBdMShbT0hdKVtDSDJdbihbY0hdbjIpYyhjMjMpbltjSF1uYzNOKFtDSDJdW0NIMl00KVtDSDJdW0NAQEhdKFtDQEhdNDUpW05IXUMoPU8pW0NIMl1PNQ==

> <s_epik_cmdline>
J2VwaWtfcHl0aG9uJywgJy1waCcsICc3LjAnLCAnLXRuJywgJzgnLCAnLW1hJywgJzIwMCcsICctbWV0YWxfYmluZGluZycsICctaW1hZScsICc8aW5maWxlLm1hZT4nLCAnLW9tYWUnLCAnPG91dGZpbGUubWFlPic=

> <r_lp_tautomer_probability>
1

> <r_epik_Ionization_Penalty>
0.00221504

> <r_epik_Ionization_Penalty_Charging>
0

> <r_epik_Ionization_Penalty_Neutral>
0.00221504

> <r_epik_State_Penalty>
-0

> <r_epik_Charging_Adjusted_Penalty>
0

> <i_epik_Tot_Q>
0

> <i_epik_Tot_abs_Q>
0

> <r_epik_Metal_State_Penalty>
-0

> <b_epik_Metal_Only>
0

> <s_lp_Force_Field>
OPLS_2005

> <r_lp_Energy>
49.4841

> <b_lp_Chiralities_Consistent>
1

> <s_lp_Variant>
AV-unprocessed.smi:265-3

> <Gold.Version>
5.8.1

> <Gold.Id.Protein>
6NUR|6NUR_protein|mol2

> <Gold.PLP.Fitness>
46.8851

> <Gold.PLP.PLP>
-40.8979

> <Gold.PLP.part.hbond>
-3.5293

> <Gold.PLP.part.metal>
0.0000

> <Gold.PLP.part.buried>
-6.1837

> <Gold.PLP.part.nonpolar>
-30.0276

> <Gold.PLP.part.repulsive>
0.3698

> <Gold.PLP.ligand.clash>
0.0000

> <Gold.PLP.ligand.torsion>
0.6009

> <Gold.PLP.Chemscore.Hbond>
2.3228

> <Gold.PLP.Chemscore.CHOScore>
0.0000

> <Gold.PLP.Chemscore.Metal>
0.0000

> <Gold.Chemscore.Hbonds>
donor molecule, donor type, donor heavy atom, donor atom, acceptor molecule, acceptor atom, score
      L1  H     7    39       P1  7948  1.00
      P1  H  7997  8008       L1    25  0.54
      P1  H 10752 10763       L1    27  0.72

> <Gold.PLP.Chemscore.Internal.Correction>
0.2206

> <Gold.Rescore>
     Score         DG    S(hbond)    S(metal)    S(lipo)     H(rot)  DE(clash)    DE(int)     intcor
     12.81     -13.42       1.50        0.00      74.30       2.25       0.04       0.57       ----

> <Gold.Chemscore.Fitness>
12.8106

> <Gold.Chemscore.DG>
-13.4217

> <Gold.Chemscore.ZeroCoef>
-5.4800

> <Gold.Chemscore.Hbond>
1.4958

> <Gold.Chemscore.Metal>
0.0000

> <Gold.Chemscore.Lipo>
74.3042

> <Gold.Chemscore.Internal_Hbond>
0.0000

> <Gold.Chemscore.DEClash>
0.0370

> <Gold.Chemscore.DEInternal>
0.5741

> <Gold.Chemscore.Rot>
2.2453

> <Gold.Chemscore.Internal.Correction>
   9.000000E+99

> <Gold.Chemscore.Hbonds>
donor molecule, donor type, donor heavy atom, donor atom, acceptor molecule, acceptor atom, score
      L1  H     7    39       P1  7948  0.86
      P1  H  7997  8008       L1    25  0.38
      P1  H 10752 10763       L1    27  0.08

> <Gold.Chemscore.Hbond.Weighted>
-4.9960

> <Gold.Chemscore.Metal.Weighted>
-0.0000

> <Gold.Chemscore.Lipo.Weighted>
-8.6936

> <Gold.Chemscore.Internal_Hbond.Weighted>
0.0000

> <Gold.Chemscore.DEClash.Weighted>
0.0370

> <Gold.Chemscore.DEInternal.Weighted>
0.5741

> <Gold.Chemscore.Rot.Weighted>
5.7479

> <Gold.Chemscore.Internal.Correction.Weighted>
   9.000000E+99

> <Gold.Protein.RotatedTorsions>
[ 6907 6896 6895 6894 ] final  140.85 input  -60.11 | X-H torsion
[ 7974 7965 7964 7962 ] final  -79.14 input  175.53 | X-H torsion
[ 8008 7997 7996 7995 ] final   -5.65 input   59.86 | X-H torsion
[ 10167 10162 10161 10158 ] final  -43.29 input  -65.29 | X-H torsion
[ 10718 10713 10712 10709 ] final   17.31 input   66.30 | X-H torsion
[ 10763 10752 10751 10750 ] final   34.55 input  -60.55 | X-H torsion
[ 11005 11000 10999 10996 ] final   42.33 input  -57.11 | X-H torsion

> <Gold.Protein.ActiveResidues>
 VAL166  LYS551  ARG553  GLY616  TRP617  ASP618  TYR619  PRO620  LYS621  CYS622 
 ASP623  PHE694  ASN695  SER759  ASP760  ASP761  ALA762  ILE779  LEU786  VAL792 
 PHE793  MET794  SER795  GLU796  ALA797  LYS798  CYS799  TRP800  GLU811  SER814 

> <Gold.Protein.RotatedAtoms>
  152.2381  133.5113  159.5254 H   0  0  0  0  0  0  0  0  0  0  0  0  # atno 6907 bound_to 6896
  150.7056  134.1126  159.4014 H   0  0  0  0  0  0  0  0  0  0  0  0  # atno 6908 bound_to 6896
  151.9046  135.0364  160.0560 H   0  0  0  0  0  0  0  0  0  0  0  0  # atno 6909 bound_to 6896
  145.5772  140.9455  143.1363 H   0  0  0  0  0  0  0  0  0  0  0  0  # atno 7974 bound_to 7965
  154.6018  140.2453  155.7783 H   0  0  0  0  0  0  0  0  0  0  0  0  # atno 8008 bound_to 7997
  156.2315  140.2965  156.0154 H   0  0  0  0  0  0  0  0  0  0  0  0  # atno 8009 bound_to 7997
  155.2199  140.0400  157.2937 H   0  0  0  0  0  0  0  0  0  0  0  0  # atno 8010 bound_to 7997
  140.6939  143.2991  151.3331 H   0  0  0  0  0  0  0  0  0  0  0  0  # atno 10167 bound_to 10162
  157.0803  130.6385  149.5825 H   0  0  0  0  0  0  0  0  0  0  0  0  # atno 10718 bound_to 10713
  153.0159  135.6357  154.1687 H   0  0  0  0  0  0  0  0  0  0  0  0  # atno 10763 bound_to 10752
  154.1426  135.2834  155.3158 H   0  0  0  0  0  0  0  0  0  0  0  0  # atno 10764 bound_to 10752
  154.6113  135.5555  153.7538 H   0  0  0  0  0  0  0  0  0  0  0  0  # atno 10765 bound_to 10752
  140.1750  134.4175  155.8234 H   0  0  0  0  0  0  0  0  0  0  0  0  # atno 11005 bound_to 11000
  144.7410  139.7448  143.7310 LP  0  0  0  0  0  0  0  0  0  0  0  0  # atno 17320 bound_to 7965
  146.1742  139.4905  142.9908 LP  0  0  0  0  0  0  0  0  0  0  0  0  # atno 17321 bound_to 7965
  139.6372  144.0608  152.2525 LP  0  0  0  0  0  0  0  0  0  0  0  0  # atno 17342 bound_to 10162
  140.0102  144.6229  150.7654 LP  0  0  0  0  0  0  0  0  0  0  0  0  # atno 17343 bound_to 10162
  155.9925  130.4984  150.7344 LP  0  0  0  0  0  0  0  0  0  0  0  0  # atno 17370 bound_to 10713
  157.4805  131.0902  151.0541 LP  0  0  0  0  0  0  0  0  0  0  0  0  # atno 17371 bound_to 10713
  141.2220  133.6973  156.7830 LP  0  0  0  0  0  0  0  0  0  0  0  0  # atno 17394 bound_to 11000
  140.2333  134.8669  157.3499 LP  0  0  0  0  0  0  0  0  0  0  0  0  # atno 17395 bound_to 11000

$$$$
