AV-unprocessed.smi:2702|AV-procd|sdf|10435|dock3
  -GOLD-   2272014473D 1   1.00000     0.00000
 Structure written by MMmdl.
 47 48  0  0  0  0  0  0  0  0  1 V2000
  148.2705  136.2027  163.0596 C   0  0  0  0  0  0  0  0  0  0  0  0
  148.2743  136.9688  161.8679 O   0  0  0  0  0  0  0  0  0  0  0  0
  148.1078  136.1702  160.7079 C   0  0  0  0  0  0  0  0  0  0  0  0
  148.8039  136.7986  159.5166 C   0  0  0  0  0  0  0  0  0  0  0  0
  148.1308  137.5227  158.5921 C   0  0  0  0  0  0  0  0  0  0  0  0
  148.8328  138.1205  157.4562 C   0  0  0  0  0  0  0  0  0  0  0  0
  148.2554  138.7824  156.5933 O   0  0  0  0  0  0  0  0  0  0  0  0
  150.1784  137.8875  157.4242 N   0  0  0  0  0  0  0  0  0  0  0  0
  151.0217  138.4268  156.3415 C   0  0  0  0  0  0  0  0  0  0  0  0
  151.3282  139.9234  156.4994 C   0  0  0  0  0  0  0  0  0  0  0  0
  151.0678  140.7185  155.5955 O   0  0  0  0  0  0  0  0  0  0  0  0
  151.8674  140.2915  157.6715 N   0  0  0  0  0  0  0  0  0  0  0  0
  152.2578  141.6524  158.0361 C   0  0  1  0  0  0  0  0  0  0  0  0
  151.1732  142.6383  157.5616 C   0  0  0  0  0  0  0  0  0  0  0  0
  151.5199  144.0772  157.9540 C   0  0  0  0  0  0  0  0  0  0  0  0
  151.7200  144.1884  159.4689 C   0  0  0  0  0  0  0  0  0  0  0  0
  152.8136  143.2275  159.9780 C   0  0  1  0  0  0  0  0  0  0  0  0
  152.9849  143.4072  161.4978 C   0  0  0  0  0  0  0  0  0  0  0  0
  152.5080  141.7589  159.5654 C   0  0  2  0  0  0  0  0  0  0  0  0
  153.6244  140.7891  160.0120 C   0  0  0  0  0  0  0  0  0  0  0  0
  150.8312  137.1312  158.4178 C   0  0  0  0  0  0  0  0  0  0  0  0
  150.1857  136.6081  159.4112 N   0  0  0  0  0  0  0  0  0  0  0  0
  148.4027  136.8609  163.9182 H   0  0  0  0  0  0  0  0  0  0  0  0
  149.0838  135.4760  163.0640 H   0  0  0  0  0  0  0  0  0  0  0  0
  147.3257  135.6724  163.1845 H   0  0  0  0  0  0  0  0  0  0  0  0
  148.5295  135.1773  160.8718 H   0  0  0  0  0  0  0  0  0  0  0  0
  147.0449  136.0422  160.4955 H   0  0  0  0  0  0  0  0  0  0  0  0
  147.0641  137.6663  158.6858 H   0  0  0  0  0  0  0  0  0  0  0  0
  151.9713  137.8932  156.2680 H   0  0  0  0  0  0  0  0  0  0  0  0
  150.5308  138.2598  155.3805 H   0  0  0  0  0  0  0  0  0  0  0  0
  152.0397  139.5717  158.3583 H   0  0  0  0  0  0  0  0  0  0  0  0
  153.1927  141.9001  157.5290 H   0  0  0  0  0  0  0  0  0  0  0  0
  151.0547  142.5774  156.4791 H   0  0  0  0  0  0  0  0  0  0  0  0
  150.2089  142.3661  157.9934 H   0  0  0  0  0  0  0  0  0  0  0  0
  152.4261  144.3936  157.4362 H   0  0  0  0  0  0  0  0  0  0  0  0
  150.7263  144.7522  157.6326 H   0  0  0  0  0  0  0  0  0  0  0  0
  151.9801  145.2172  159.7208 H   0  0  0  0  0  0  0  0  0  0  0  0
  150.7774  143.9773  159.9760 H   0  0  0  0  0  0  0  0  0  0  0  0
  153.7531  143.5207  159.5066 H   0  0  0  0  0  0  0  0  0  0  0  0
  152.1074  143.0538  162.0401 H   0  0  0  0  0  0  0  0  0  0  0  0
  153.1289  144.4575  161.7528 H   0  0  0  0  0  0  0  0  0  0  0  0
  153.8546  142.8725  161.8784 H   0  0  0  0  0  0  0  0  0  0  0  0
  151.5903  141.4568  160.0729 H   0  0  0  0  0  0  0  0  0  0  0  0
  154.5838  141.0649  159.5734 H   0  0  0  0  0  0  0  0  0  0  0  0
  153.4128  139.7609  159.7189 H   0  0  0  0  0  0  0  0  0  0  0  0
  153.7426  140.7757  161.0945 H   0  0  0  0  0  0  0  0  0  0  0  0
  151.9098  137.0220  158.2926 H   0  0  0  0  0  0  0  0  0  0  0  0
  1  2  1  0  0  0  0
  1 23  1  0  0  0  0
  1 24  1  0  0  0  0
  1 25  1  0  0  0  0
  2  3  1  0  0  0  0
  3  4  1  0  0  0  0
  3 26  1  0  0  0  0
  3 27  1  0  0  0  0
  4 22  1  0  0  0  0
  4  5  2  0  0  0  0
  5  6  1  0  0  0  0
  5 28  1  0  0  0  0
  6  7  2  0  0  0  0
  6  8  1  0  0  0  0
  8  9  1  0  0  0  0
  8 21  1  0  0  0  0
  9 10  1  0  0  0  0
  9 29  1  0  0  0  0
  9 30  1  0  0  0  0
 10 11  2  0  0  0  0
 10 12  1  0  0  0  0
 12 13  1  0  0  0  0
 12 31  1  0  0  0  0
 13 19  1  0  0  0  0
 13 14  1  0  0  0  0
 13 32  1  0  0  0  0
 14 15  1  0  0  0  0
 14 33  1  0  0  0  0
 14 34  1  0  0  0  0
 15 16  1  0  0  0  0
 15 35  1  0  0  0  0
 15 36  1  0  0  0  0
 16 17  1  0  0  0  0
 16 37  1  0  0  0  0
 16 38  1  0  0  0  0
 17 18  1  0  0  0  0
 17 19  1  0  0  0  0
 17 39  1  0  0  0  0
 18 40  1  0  0  0  0
 18 41  1  0  0  0  0
 18 42  1  0  0  0  0
 19 20  1  0  0  0  0
 19 43  1  0  0  0  0
 20 44  1  0  0  0  0
 20 45  1  0  0  0  0
 20 46  1  0  0  0  0
 21 22  2  0  0  0  0
 21 47  1  0  0  0  0
M  END
> <s_m_source_file>
AV-unprocessed.smi

> <i_m_source_file_index>
2702

> <i_lp_mmshare_version>
43012

> <i_f3d_flags>
0

> <s_epik_input>
W0NIM11PW0NIMl1jMVtjSF1jKD1PKW4oW2NIXW4xKVtDSDJdQyg9TylbTkhdW0NAQEhdMltDSDJdW0NIMl1bQ0gyXVtDQEBIXShbQ0gzXSlbQ0BIXTJbQ0gzXQ==

> <s_epik_cmdline>
J2VwaWtfcHl0aG9uJywgJy1waCcsICc3LjAnLCAnLXRuJywgJzgnLCAnLW1hJywgJzIwMCcsICctbWV0YWxfYmluZGluZycsICctaW1hZScsICc8aW5maWxlLm1hZT4nLCAnLW9tYWUnLCAnPG91dGZpbGUubWFlPic=

> <r_lp_tautomer_probability>
1

> <r_epik_Ionization_Penalty>
1.22164e-06

> <r_epik_Ionization_Penalty_Charging>
3.17988e-07

> <r_epik_Ionization_Penalty_Neutral>
9.03656e-07

> <r_epik_State_Penalty>
-0

> <r_epik_Charging_Adjusted_Penalty>
3.17988e-07

> <i_epik_Tot_Q>
0

> <i_epik_Tot_abs_Q>
0

> <r_epik_Metal_State_Penalty>
-0

> <b_epik_Metal_Only>
0

> <s_lp_Force_Field>
OPLS_2005

> <r_lp_Energy>
18.0847

> <b_lp_Chiralities_Consistent>
1

> <s_lp_Variant>
AV-unprocessed.smi:2702-6

> <Gold.Version>
5.8.1

> <Gold.Id.Protein>
6NUR|6NUR_protein|mol2

> <Gold.PLP.Fitness>
51.6068

> <Gold.PLP.PLP>
-43.4065

> <Gold.PLP.part.hbond>
-3.8865

> <Gold.PLP.part.metal>
0.0000

> <Gold.PLP.part.buried>
-5.5318

> <Gold.PLP.part.nonpolar>
-32.0381

> <Gold.PLP.part.repulsive>
0.0986

> <Gold.PLP.ligand.clash>
0.0017

> <Gold.PLP.ligand.torsion>
0.9414

> <Gold.PLP.Chemscore.Hbond>
3.3516

> <Gold.PLP.Chemscore.CHOScore>
0.0000

> <Gold.PLP.Chemscore.Metal>
0.0000

> <Gold.Chemscore.Hbonds>
donor molecule, donor type, donor heavy atom, donor atom, acceptor molecule, acceptor atom, score
      P1  H  6896  6908       L1    22  1.00
      P1  H  6931  6943       L1     2  0.89
      P1  H  7989  7998       L1    11  0.53

> <Gold.PLP.Chemscore.Internal.Correction>
0.0301

> <Gold.Rescore>
     Score         DG    S(hbond)    S(metal)    S(lipo)     H(rot)  DE(clash)    DE(int)     intcor
     19.56     -21.60       2.51        0.00     108.38       1.93       0.06       1.97       ----

> <Gold.Chemscore.Fitness>
19.5630

> <Gold.Chemscore.DG>
-21.5966

> <Gold.Chemscore.ZeroCoef>
-5.4800

> <Gold.Chemscore.Hbond>
2.5068

> <Gold.Chemscore.Metal>
0.0000

> <Gold.Chemscore.Lipo>
108.3816

> <Gold.Chemscore.Internal_Hbond>
0.0000

> <Gold.Chemscore.DEClash>
0.0647

> <Gold.Chemscore.DEInternal>
1.9689

> <Gold.Chemscore.Rot>
1.9284

> <Gold.Chemscore.Internal.Correction>
   9.000000E+99

> <Gold.Chemscore.Hbonds>
donor molecule, donor type, donor heavy atom, donor atom, acceptor molecule, acceptor atom, score
      P1  H  6896  6908       L1    22  0.64
      P1  H  6931  6943       L1     2  0.79
      P1  H  7989  7998       L1    11  0.51

> <Gold.Chemscore.Hbond.Weighted>
-8.3727

> <Gold.Chemscore.Metal.Weighted>
-0.0000

> <Gold.Chemscore.Lipo.Weighted>
-12.6807

> <Gold.Chemscore.Internal_Hbond.Weighted>
0.0000

> <Gold.Chemscore.DEClash.Weighted>
0.0647

> <Gold.Chemscore.DEInternal.Weighted>
1.9689

> <Gold.Chemscore.Rot.Weighted>
4.9368

> <Gold.Chemscore.Internal.Correction.Weighted>
   9.000000E+99

> <Gold.Protein.RotatedTorsions>
[ 6907 6896 6895 6894 ] final -162.11 input  -60.11 | X-H torsion
[ 7974 7965 7964 7962 ] final  137.44 input  175.53 | X-H torsion
[ 8008 7997 7996 7995 ] final -144.93 input   59.86 | X-H torsion
[ 10167 10162 10161 10158 ] final  -56.71 input  -65.29 | X-H torsion
[ 10718 10713 10712 10709 ] final  -42.21 input   66.30 | X-H torsion
[ 10763 10752 10751 10750 ] final -142.93 input  -60.55 | X-H torsion
[ 11005 11000 10999 10996 ] final  -83.09 input  -57.11 | X-H torsion

> <Gold.Protein.ActiveResidues>
 VAL166  LYS551  ARG553  GLY616  TRP617  ASP618  TYR619  PRO620  LYS621  CYS622 
 ASP623  PHE694  ASN695  SER759  ASP760  ASP761  ALA762  ILE779  LEU786  VAL792 
 PHE793  MET794  SER795  GLU796  ALA797  LYS798  CYS799  TRP800  GLU811  SER814 

> <Gold.Protein.RotatedAtoms>
  151.3752  133.3840  159.2703 H   0  0  0  0  0  0  0  0  0  0  0  0  # atno 6907 bound_to 6896
  150.9620  134.9007  159.7747 H   0  0  0  0  0  0  0  0  0  0  0  0  # atno 6908 bound_to 6896
  152.5153  134.3711  159.9371 H   0  0  0  0  0  0  0  0  0  0  0  0  # atno 6909 bound_to 6896
  144.9467  139.4866  143.5545 H   0  0  0  0  0  0  0  0  0  0  0  0  # atno 7974 bound_to 7965
  155.5350  140.0603  157.2881 H   0  0  0  0  0  0  0  0  0  0  0  0  # atno 8008 bound_to 7997
  154.4471  140.1929  156.0577 H   0  0  0  0  0  0  0  0  0  0  0  0  # atno 8009 bound_to 7997
  156.0625  140.3270  155.7483 H   0  0  0  0  0  0  0  0  0  0  0  0  # atno 8010 bound_to 7997
  140.6301  143.2455  151.5263 H   0  0  0  0  0  0  0  0  0  0  0  0  # atno 10167 bound_to 10162
  156.2621  130.4198  149.8531 H   0  0  0  0  0  0  0  0  0  0  0  0  # atno 10718 bound_to 10713
  154.8490  135.3482  154.6106 H   0  0  0  0  0  0  0  0  0  0  0  0  # atno 10763 bound_to 10752
  153.6715  135.6985  153.5150 H   0  0  0  0  0  0  0  0  0  0  0  0  # atno 10764 bound_to 10752
  153.2739  135.4284  155.0971 H   0  0  0  0  0  0  0  0  0  0  0  0  # atno 10765 bound_to 10752
  141.1660  133.7277  156.8669 H   0  0  0  0  0  0  0  0  0  0  0  0  # atno 11005 bound_to 11000
  146.3306  139.8524  142.8870 LP  0  0  0  0  0  0  0  0  0  0  0  0  # atno 17320 bound_to 7965
  145.2906  141.0166  143.3665 LP  0  0  0  0  0  0  0  0  0  0  0  0  # atno 17321 bound_to 7965
  139.5516  144.2380  152.1541 LP  0  0  0  0  0  0  0  0  0  0  0  0  # atno 17342 bound_to 10162
  140.1622  144.5015  150.6626 LP  0  0  0  0  0  0  0  0  0  0  0  0  # atno 17343 bound_to 10162
  156.6042  130.8559  151.3439 LP  0  0  0  0  0  0  0  0  0  0  0  0  # atno 17370 bound_to 10713
  157.7254  130.9615  150.1613 LP  0  0  0  0  0  0  0  0  0  0  0  0  # atno 17371 bound_to 10713
  140.1809  134.9034  157.2947 LP  0  0  0  0  0  0  0  0  0  0  0  0  # atno 17394 bound_to 11000
  140.2396  134.3811  155.7486 LP  0  0  0  0  0  0  0  0  0  0  0  0  # atno 17395 bound_to 11000

$$$$
