AV-unprocessed.smi:1978|AV-procd|sdf|8011|dock10
  -GOLD-   2272010203D 1   1.00000     0.00000
 Structure written by MMmdl.
 44 45  0  0  0  0  0  0  0  0  3 V2000
  148.7323  141.2655  154.4607 C   0  0  0  0  0  0  0  0  0  0  0  0
  149.2380  139.8640  154.4598 C   0  0  0  0  0  0  0  0  0  0  0  0
  148.6111  138.6500  154.4514 C   0  0  0  0  0  0  0  0  0  0  0  0
  149.6930  137.7297  154.4518 C   0  0  0  0  0  0  0  0  0  0  0  0
  149.4521  136.3307  154.4418 N   0  0  0  0  0  0  0  0  0  0  0  0
  150.1868  135.3452  154.9890 C   0  0  0  0  0  0  0  0  0  0  0  0
  151.2279  135.6085  155.6026 O   0  0  0  0  0  0  0  0  0  0  0  0
  149.6467  134.1155  154.7647 N   0  5  0  0  0  0  0  0  0  0  0  0
  149.1288  133.6486  153.4773 C   0  0  0  0  0  0  0  0  0  0  0  0
  148.1833  132.4274  153.6646 C   0  0  1  0  0  0  0  0  0  0  0  0
  147.2929  132.4893  154.9322 C   0  0  0  0  0  0  0  0  0  0  0  0
  147.3910  132.1706  152.4117 N   0  3  2  0  0  0  0  0  0  0  0  0
  146.6713  133.3742  151.8832 C   0  0  0  0  0  0  0  0  0  0  0  0
  146.1220  133.1335  150.4721 C   0  0  0  0  0  0  0  0  0  0  0  0
  145.1640  131.9426  150.4780 C   0  0  0  0  0  0  0  0  0  0  0  0
  145.8831  130.7135  151.0400 C   0  0  0  0  0  0  0  0  0  0  0  0
  146.4903  130.9666  152.4400 C   0  0  1  0  0  0  0  0  0  0  0  0
  147.1926  129.6675  152.8929 C   0  0  0  0  0  0  0  0  0  0  0  0
  150.8744  138.3298  154.4627 N   0  0  0  0  0  0  0  0  0  0  0  0
  150.5886  139.7003  154.4686 O   0  0  0  0  0  0  0  0  0  0  0  0
  147.6613  141.2922  154.2592 H   0  0  0  0  0  0  0  0  0  0  0  0
  149.2343  141.8587  153.6962 H   0  0  0  0  0  0  0  0  0  0  0  0
  148.9078  141.7380  155.4270 H   0  0  0  0  0  0  0  0  0  0  0  0
  147.5496  138.4532  154.4434 H   0  0  0  0  0  0  0  0  0  0  0  0
  148.6211  136.0358  153.9511 H   0  0  0  0  0  0  0  0  0  0  0  0
  148.6083  134.4279  152.9193 H   0  0  0  0  0  0  0  0  0  0  0  0
  149.9533  133.3442  152.8314 H   0  0  0  0  0  0  0  0  0  0  0  0
  148.8625  131.5963  153.8253 H   0  0  0  0  0  0  0  0  0  0  0  0
  147.8888  132.4917  155.8464 H   0  0  0  0  0  0  0  0  0  0  0  0
  146.6434  131.6159  154.9922 H   0  0  0  0  0  0  0  0  0  0  0  0
  146.6568  133.3755  154.9617 H   0  0  0  0  0  0  0  0  0  0  0  0
  145.8458  133.6347  152.5469 H   0  0  0  0  0  0  0  0  0  0  0  0
  147.3298  134.2421  151.8507 H   0  0  0  0  0  0  0  0  0  0  0  0
  145.6050  134.0249  150.1156 H   0  0  0  0  0  0  0  0  0  0  0  0
  146.9440  132.9510  149.7786 H   0  0  0  0  0  0  0  0  0  0  0  0
  144.2868  132.1711  151.0847 H   0  0  0  0  0  0  0  0  0  0  0  0
  144.8052  131.7410  149.4683 H   0  0  0  0  0  0  0  0  0  0  0  0
  145.1806  129.8803  151.0818 H   0  0  0  0  0  0  0  0  0  0  0  0
  146.6718  130.4131  150.3484 H   0  0  0  0  0  0  0  0  0  0  0  0
  145.6751  131.1714  153.1357 H   0  0  0  0  0  0  0  0  0  0  0  0
  146.5732  128.7950  152.6835 H   0  0  0  0  0  0  0  0  0  0  0  0
  147.3777  129.6438  153.9662 H   0  0  0  0  0  0  0  0  0  0  0  0
  148.1418  129.5256  152.3749 H   0  0  0  0  0  0  0  0  0  0  0  0
  148.0937  131.9471  151.7213 H   0  0  0  0  0  0  0  0  0  0  0  0
  1  2  1  0  0  0  0
  1 21  1  0  0  0  0
  1 22  1  0  0  0  0
  1 23  1  0  0  0  0
  2 20  1  0  0  0  0
  2  3  2  0  0  0  0
  3  4  1  0  0  0  0
  3 24  1  0  0  0  0
  4  5  1  0  0  0  0
  4 19  2  0  0  0  0
  5  6  1  0  0  0  0
  5 25  1  0  0  0  0
  6  7  2  0  0  0  0
  6  8  1  0  0  0  0
  8  9  1  0  0  0  0
  9 10  1  0  0  0  0
  9 26  1  0  0  0  0
  9 27  1  0  0  0  0
 10 11  1  0  0  0  0
 10 12  1  0  0  0  0
 10 28  1  0  0  0  0
 11 29  1  0  0  0  0
 11 30  1  0  0  0  0
 11 31  1  0  0  0  0
 12 17  1  0  0  0  0
 12 13  1  0  0  0  0
 12 44  1  0  0  0  0
 13 14  1  0  0  0  0
 13 32  1  0  0  0  0
 13 33  1  0  0  0  0
 14 15  1  0  0  0  0
 14 34  1  0  0  0  0
 14 35  1  0  0  0  0
 15 16  1  0  0  0  0
 15 36  1  0  0  0  0
 15 37  1  0  0  0  0
 16 17  1  0  0  0  0
 16 38  1  0  0  0  0
 16 39  1  0  0  0  0
 17 18  1  0  0  0  0
 17 40  1  0  0  0  0
 18 41  1  0  0  0  0
 18 42  1  0  0  0  0
 18 43  1  0  0  0  0
 19 20  1  0  0  0  0
M  CHG  1   8  -1
M  CHG  1  12   1
M  END
> <s_m_source_file>
AV-unprocessed.smi

> <i_m_source_file_index>
1978

> <i_lp_mmshare_version>
43012

> <i_f3d_flags>
0

> <s_epik_input>
W0NIM11jMVtjSF1jKG5vMSlbTkhdQyg9TylbTkhdW0NIMl1bQ0BIXShbQ0gzXSlOMltDSDJdW0NIMl1bQ0gyXVtDSDJdW0NASF0yW0NIM10=

> <s_epik_cmdline>
J2VwaWtfcHl0aG9uJywgJy1waCcsICc3LjAnLCAnLXRuJywgJzgnLCAnLW1hJywgJzIwMCcsICctbWV0YWxfYmluZGluZycsICctaW1hZScsICc8aW5maWxlLm1hZT4nLCAnLW9tYWUnLCAnPG91dGZpbGUubWFlPic=

> <r_epik_Ionization_Penalty>
6.7666

> <r_epik_Ionization_Penalty_Charging>
6.7666

> <r_epik_Ionization_Penalty_Neutral>
5.77131e-06

> <r_epik_State_Penalty>
6.79217

> <r_epik_Charging_Adjusted_Penalty>
13.5588

> <i_epik_Tot_Q>
0

> <i_epik_Tot_abs_Q>
2

> <r_epik_Metal_State_Penalty>
2.72569

> <b_epik_Metal_Only>
1

> <s_lp_Force_Field>
OPLS_2005

> <r_lp_Energy>
21.6667

> <b_lp_Chiralities_Consistent>
1

> <s_lp_Variant>
AV-unprocessed.smi:1978-20

> <Gold.Version>
5.8.1

> <Gold.Id.Protein>
6NUR|6NUR_protein|mol2

> <Gold.PLP.Fitness>
43.2852

> <Gold.PLP.PLP>
-35.4295

> <Gold.PLP.part.hbond>
-4.0000

> <Gold.PLP.part.metal>
0.0000

> <Gold.PLP.part.buried>
-2.0466

> <Gold.PLP.part.nonpolar>
-28.2854

> <Gold.PLP.part.repulsive>
0.5017

> <Gold.PLP.ligand.clash>
0.0000

> <Gold.PLP.ligand.torsion>
0.9944

> <Gold.PLP.Chemscore.Hbond>
3.2166

> <Gold.PLP.Chemscore.CHOScore>
0.0000

> <Gold.PLP.Chemscore.Metal>
0.0000

> <Gold.Chemscore.Hbonds>
donor molecule, donor type, donor heavy atom, donor atom, acceptor molecule, acceptor atom, score
      L1  H     5    25       P1  7948  0.13
      L1  H    12    44       P1 10747  1.00
      P1  H  7989  7998       L1    20  1.00
      P1  H 10752 10764       L1     7  1.00

> <Gold.PLP.Chemscore.Internal.Correction>
0.1947

> <Gold.Rescore>
     Score         DG    S(hbond)    S(metal)    S(lipo)     H(rot)  DE(clash)    DE(int)     intcor
     18.72     -21.10       3.05        0.00      79.56       1.52       0.19       2.20       ----

> <Gold.Chemscore.Fitness>
18.7163

> <Gold.Chemscore.DG>
-21.0987

> <Gold.Chemscore.ZeroCoef>
-5.4800

> <Gold.Chemscore.Hbond>
3.0534

> <Gold.Chemscore.Metal>
0.0000

> <Gold.Chemscore.Lipo>
79.5641

> <Gold.Chemscore.Internal_Hbond>
0.0000

> <Gold.Chemscore.DEClash>
0.1865

> <Gold.Chemscore.DEInternal>
2.1959

> <Gold.Chemscore.Rot>
1.5190

> <Gold.Chemscore.Internal.Correction>
   9.000000E+99

> <Gold.Chemscore.Hbonds>
donor molecule, donor type, donor heavy atom, donor atom, acceptor molecule, acceptor atom, score
      L1  H     5    25       P1  7948  0.13
      L1  H    12    44       P1 10747  0.94
      P1  H  7989  7998       L1    20  0.95
      P1  H 10752 10764       L1     7  0.98

> <Gold.Chemscore.Hbond.Weighted>
-10.1983

> <Gold.Chemscore.Metal.Weighted>
-0.0000

> <Gold.Chemscore.Lipo.Weighted>
-9.3090

> <Gold.Chemscore.Internal_Hbond.Weighted>
0.0000

> <Gold.Chemscore.DEClash.Weighted>
0.1865

> <Gold.Chemscore.DEInternal.Weighted>
2.1959

> <Gold.Chemscore.Rot.Weighted>
3.8886

> <Gold.Chemscore.Internal.Correction.Weighted>
   9.000000E+99

> <Gold.Protein.RotatedTorsions>
[ 6907 6896 6895 6894 ] final   26.45 input  -60.11 | X-H torsion
[ 7974 7965 7964 7962 ] final  135.12 input  175.53 | X-H torsion
[ 8008 7997 7996 7995 ] final  -57.43 input   59.86 | X-H torsion
[ 10167 10162 10161 10158 ] final -171.74 input  -65.29 | X-H torsion
[ 10718 10713 10712 10709 ] final  110.17 input   66.30 | X-H torsion
[ 10763 10752 10751 10750 ] final  -36.73 input  -60.55 | X-H torsion
[ 11005 11000 10999 10996 ] final  -98.96 input  -57.11 | X-H torsion

> <Gold.Protein.ActiveResidues>
 VAL166  LYS551  ARG553  GLY616  TRP617  ASP618  TYR619  PRO620  LYS621  CYS622 
 ASP623  PHE694  ASN695  SER759  ASP760  ASP761  ALA762  ILE779  LEU786  VAL792 
 PHE793  MET794  SER795  GLU796  ALA797  LYS798  CYS799  TRP800  GLU811  SER814 

> <Gold.Protein.RotatedAtoms>
  151.9876  134.9996  160.0559 H   0  0  0  0  0  0  0  0  0  0  0  0  # atno 6907 bound_to 6896
  152.1638  133.4594  159.4883 H   0  0  0  0  0  0  0  0  0  0  0  0  # atno 6908 bound_to 6896
  150.6891  134.1956  159.4345 H   0  0  0  0  0  0  0  0  0  0  0  0  # atno 6909 bound_to 6896
  144.9695  139.4621  143.5440 H   0  0  0  0  0  0  0  0  0  0  0  0  # atno 7974 bound_to 7965
  154.4268  140.1107  156.5797 H   0  0  0  0  0  0  0  0  0  0  0  0  # atno 8008 bound_to 7997
  155.6125  140.3494  155.4608 H   0  0  0  0  0  0  0  0  0  0  0  0  # atno 8009 bound_to 7997
  156.0088  140.1214  157.0464 H   0  0  0  0  0  0  0  0  0  0  0  0  # atno 8010 bound_to 7997
  139.5785  144.1478  152.1483 H   0  0  0  0  0  0  0  0  0  0  0  0  # atno 10167 bound_to 10162
  157.6507  131.0928  150.6563 H   0  0  0  0  0  0  0  0  0  0  0  0  # atno 10718 bound_to 10713
  153.8845  135.6818  153.4764 H   0  0  0  0  0  0  0  0  0  0  0  0  # atno 10763 bound_to 10752
  153.1215  135.4737  154.9201 H   0  0  0  0  0  0  0  0  0  0  0  0  # atno 10764 bound_to 10752
  154.7652  135.3222  154.8251 H   0  0  0  0  0  0  0  0  0  0  0  0  # atno 10765 bound_to 10752
  141.1326  133.8285  157.0908 H   0  0  0  0  0  0  0  0  0  0  0  0  # atno 11005 bound_to 11000
  146.3378  139.8899  142.8811 LP  0  0  0  0  0  0  0  0  0  0  0  0  # atno 17320 bound_to 7965
  145.2579  141.0067  143.3843 LP  0  0  0  0  0  0  0  0  0  0  0  0  # atno 17321 bound_to 7965
  140.1026  144.5526  150.6978 LP  0  0  0  0  0  0  0  0  0  0  0  0  # atno 17342 bound_to 10162
  140.7065  143.2472  151.4710 LP  0  0  0  0  0  0  0  0  0  0  0  0  # atno 17343 bound_to 10162
  156.6874  130.4585  149.5609 LP  0  0  0  0  0  0  0  0  0  0  0  0  # atno 17370 bound_to 10713
  156.1886  130.6545  151.1035 LP  0  0  0  0  0  0  0  0  0  0  0  0  # atno 17371 bound_to 10713
  140.0393  134.9862  157.0931 LP  0  0  0  0  0  0  0  0  0  0  0  0  # atno 17394 bound_to 11000
  140.4160  134.1931  155.7163 LP  0  0  0  0  0  0  0  0  0  0  0  0  # atno 17395 bound_to 11000

$$$$
