AV-unprocessed.smi:2253|AV-procd|sdf|9119|dock2
  -GOLD-   2272012323D 1   1.00000     0.00000
 Structure written by MMmdl.
 51 53  0  0  0  0  0  0  0  0  2 V2000
  145.5339  135.1414  150.8139 C   0  0  0  0  0  0  0  0  0  0  0  0
  146.1573  136.1507  151.6968 N   0  3  2  0  0  0  0  0  0  0  0  0
  145.7692  135.9810  153.1140 C   0  0  0  0  0  0  0  0  0  0  0  0
  146.5482  136.9478  154.0199 C   0  0  0  0  0  0  0  0  0  0  0  0
  146.3784  138.4362  153.6073 C   0  0  1  0  0  0  0  0  0  0  0  0
  147.2482  139.3256  154.4114 N   0  0  0  0  0  0  0  0  0  0  0  0
  146.8193  140.7320  154.3122 C   0  0  0  0  0  0  0  0  0  0  0  0
  147.6705  141.6610  155.1950 C   0  0  0  0  0  0  0  0  0  0  0  0
  149.1513  141.5834  154.8091 C   0  0  0  0  0  0  0  0  0  0  0  0
  149.9740  142.3758  155.7188 N   0  0  0  0  0  0  0  0  0  0  0  0
  150.3322  142.0020  156.9559 C   0  0  0  0  0  0  0  0  0  0  0  0
  149.9949  140.9315  157.4601 O   0  0  0  0  0  0  0  0  0  0  0  0
  151.0898  142.9438  157.5454 N   0  0  0  0  0  0  0  0  0  0  0  0
  151.6687  142.9653  158.8465 C   0  0  0  0  0  0  0  0  0  0  0  0
  152.2554  141.8480  159.4917 C   0  0  0  0  0  0  0  0  0  0  0  0
  152.7936  142.0186  160.7833 C   0  0  0  0  0  0  0  0  0  0  0  0
  152.7845  143.1945  161.4451 N   0  0  0  0  0  0  0  0  0  0  0  0
  152.2286  144.2577  160.8275 C   0  0  0  0  0  0  0  0  0  0  0  0
  151.6630  144.1957  159.5382 C   0  0  0  0  0  0  0  0  0  0  0  0
  151.1228  145.3047  158.9771 F   0  0  0  0  0  0  0  0  0  0  0  0
  149.5767  140.1144  154.8534 C   0  0  0  0  0  0  0  0  0  0  0  0
  148.6547  139.2468  153.9787 C   0  0  0  0  0  0  0  0  0  0  0  0
  146.6913  138.5478  152.0894 C   0  0  0  0  0  0  0  0  0  0  0  0
  145.9074  137.5351  151.2397 C   0  0  0  0  0  0  0  0  0  0  0  0
  144.4471  135.2366  150.8155 H   0  0  0  0  0  0  0  0  0  0  0  0
  145.7900  134.1332  151.1411 H   0  0  0  0  0  0  0  0  0  0  0  0
  145.8864  135.2566  149.7884 H   0  0  0  0  0  0  0  0  0  0  0  0
  144.6957  136.1442  153.2241 H   0  0  0  0  0  0  0  0  0  0  0  0
  145.9671  134.9546  153.4257 H   0  0  0  0  0  0  0  0  0  0  0  0
  146.1891  136.7715  155.0325 H   0  0  0  0  0  0  0  0  0  0  0  0
  147.6057  136.6797  154.0100 H   0  0  0  0  0  0  0  0  0  0  0  0
  145.3388  138.7260  153.7692 H   0  0  0  0  0  0  0  0  0  0  0  0
  146.8556  141.0608  153.2725 H   0  0  0  0  0  0  0  0  0  0  0  0
  145.7935  140.8545  154.6512 H   0  0  0  0  0  0  0  0  0  0  0  0
  147.3110  142.6860  155.0975 H   0  0  0  0  0  0  0  0  0  0  0  0
  147.5403  141.3864  156.2432 H   0  0  0  0  0  0  0  0  0  0  0  0
  149.2788  141.9497  153.7883 H   0  0  0  0  0  0  0  0  0  0  0  0
  150.2922  143.2719  155.3797 H   0  0  0  0  0  0  0  0  0  0  0  0
  151.2630  143.7717  156.9942 H   0  0  0  0  0  0  0  0  0  0  0  0
  152.3118  140.8725  159.0369 H   0  0  0  0  0  0  0  0  0  0  0  0
  153.2466  141.1845  161.2987 H   0  0  0  0  0  0  0  0  0  0  0  0
  152.2352  145.1873  161.3771 H   0  0  0  0  0  0  0  0  0  0  0  0
  150.6072  140.0151  154.5103 H   0  0  0  0  0  0  0  0  0  0  0  0
  149.5554  139.7461  155.8805 H   0  0  0  0  0  0  0  0  0  0  0  0
  149.0344  138.2311  154.0593 H   0  0  0  0  0  0  0  0  0  0  0  0
  148.7403  139.5405  152.9314 H   0  0  0  0  0  0  0  0  0  0  0  0
  146.4351  139.5325  151.7019 H   0  0  0  0  0  0  0  0  0  0  0  0
  147.7605  138.4108  151.9209 H   0  0  0  0  0  0  0  0  0  0  0  0
  146.2044  137.6333  150.1946 H   0  0  0  0  0  0  0  0  0  0  0  0
  144.8386  137.7512  151.2869 H   0  0  0  0  0  0  0  0  0  0  0  0
  147.1552  136.0016  151.6465 H   0  0  0  0  0  0  0  0  0  0  0  0
  1  2  1  0  0  0  0
  1 25  1  0  0  0  0
  1 26  1  0  0  0  0
  1 27  1  0  0  0  0
  2 24  1  0  0  0  0
  2  3  1  0  0  0  0
  2 51  1  0  0  0  0
  3  4  1  0  0  0  0
  3 28  1  0  0  0  0
  3 29  1  0  0  0  0
  4  5  1  0  0  0  0
  4 30  1  0  0  0  0
  4 31  1  0  0  0  0
  5  6  1  0  0  0  0
  5 23  1  0  0  0  0
  5 32  1  0  0  0  0
  6 22  1  0  0  0  0
  6  7  1  0  0  0  0
  7  8  1  0  0  0  0
  7 33  1  0  0  0  0
  7 34  1  0  0  0  0
  8  9  1  0  0  0  0
  8 35  1  0  0  0  0
  8 36  1  0  0  0  0
  9 10  1  0  0  0  0
  9 21  1  0  0  0  0
  9 37  1  0  0  0  0
 10 11  1  0  0  0  0
 10 38  1  0  0  0  0
 11 12  2  0  0  0  0
 11 13  1  0  0  0  0
 13 14  1  0  0  0  0
 13 39  1  0  0  0  0
 14 19  1  0  0  0  0
 14 15  2  0  0  0  0
 15 16  1  0  0  0  0
 15 40  1  0  0  0  0
 16 17  2  0  0  0  0
 16 41  1  0  0  0  0
 17 18  1  0  0  0  0
 18 19  2  0  0  0  0
 18 42  1  0  0  0  0
 19 20  1  0  0  0  0
 21 22  1  0  0  0  0
 21 43  1  0  0  0  0
 21 44  1  0  0  0  0
 22 45  1  0  0  0  0
 22 46  1  0  0  0  0
 23 24  1  0  0  0  0
 23 47  1  0  0  0  0
 23 48  1  0  0  0  0
 24 49  1  0  0  0  0
 24 50  1  0  0  0  0
M  CHG  1   2   1
M  END
> <s_m_source_file>
AV-unprocessed.smi

> <i_m_source_file_index>
2253

> <i_lp_mmshare_version>
43012

> <i_f3d_flags>
0

> <s_epik_input>
W0NIM11OMVtDSDJdW0NIMl1bQ0hdKFtDSDJdW0NIMl0xKU4yW0NIMl1bQ0gyXVtDSF0oW0NIMl1bQ0gyXTIpW05IXUMoPU8pW05IXWMzW2NIXVtjSF1uW2NIXWMzRg==

> <s_epik_cmdline>
J2VwaWtfcHl0aG9uJywgJy1waCcsICc3LjAnLCAnLXRuJywgJzgnLCAnLW1hJywgJzIwMCcsICctbWV0YWxfYmluZGluZycsICctaW1hZScsICc8aW5maWxlLm1hZT4nLCAnLW9tYWUnLCAnPG91dGZpbGUubWFlPic=

> <r_epik_Ionization_Penalty>
1.01315

> <r_epik_Ionization_Penalty_Charging>
0.000974969

> <r_epik_Ionization_Penalty_Neutral>
1.01217

> <r_epik_State_Penalty>
1.10286

> <r_epik_Charging_Adjusted_Penalty>
1.10383

> <i_epik_Tot_Q>
1

> <i_epik_Tot_abs_Q>
1

> <r_epik_Metal_State_Penalty>
1.10232

> <b_epik_Metal_Only>
0

> <s_lp_Force_Field>
OPLS_2005

> <r_lp_Energy>
37.5712

> <b_lp_Chiralities_Consistent>
1

> <s_lp_Variant>
AV-unprocessed.smi:2253-5

> <Gold.Version>
5.8.1

> <Gold.Id.Protein>
6NUR|6NUR_protein|mol2

> <Gold.PLP.Fitness>
50.1881

> <Gold.PLP.PLP>
-44.9346

> <Gold.PLP.part.hbond>
-2.0000

> <Gold.PLP.part.metal>
0.0000

> <Gold.PLP.part.buried>
-1.1078

> <Gold.PLP.part.nonpolar>
-43.2804

> <Gold.PLP.part.repulsive>
0.4725

> <Gold.PLP.ligand.clash>
0.0000

> <Gold.PLP.ligand.torsion>
0.7818

> <Gold.PLP.Chemscore.Hbond>
2.2720

> <Gold.PLP.Chemscore.CHOScore>
0.0000

> <Gold.PLP.Chemscore.Metal>
0.0000

> <Gold.Chemscore.Hbonds>
donor molecule, donor type, donor heavy atom, donor atom, acceptor molecule, acceptor atom, score
      L1  H     2    51       P1  7948  2.00
      L1  H    10    38       P1  8028  0.26

> <Gold.PLP.Chemscore.Internal.Correction>
0.0012

> <Gold.Rescore>
     Score         DG    S(hbond)    S(metal)    S(lipo)     H(rot)  DE(clash)    DE(int)     intcor
     17.42     -21.29       1.52        0.00     118.96       1.24       1.40       2.47       ----

> <Gold.Chemscore.Fitness>
17.4222

> <Gold.Chemscore.DG>
-21.2853

> <Gold.Chemscore.ZeroCoef>
-5.4800

> <Gold.Chemscore.Hbond>
1.5184

> <Gold.Chemscore.Metal>
0.0000

> <Gold.Chemscore.Lipo>
118.9609

> <Gold.Chemscore.Internal_Hbond>
0.0000

> <Gold.Chemscore.DEClash>
1.3956

> <Gold.Chemscore.DEInternal>
2.4675

> <Gold.Chemscore.Rot>
1.2440

> <Gold.Chemscore.Internal.Correction>
   9.000000E+99

> <Gold.Chemscore.Hbonds>
donor molecule, donor type, donor heavy atom, donor atom, acceptor molecule, acceptor atom, score
      L1  H     2    51       P1  7948  1.00
      L1  H    10    38       P1  8028  0.24

> <Gold.Chemscore.Hbond.Weighted>
-5.0715

> <Gold.Chemscore.Metal.Weighted>
-0.0000

> <Gold.Chemscore.Lipo.Weighted>
-13.9184

> <Gold.Chemscore.Internal_Hbond.Weighted>
0.0000

> <Gold.Chemscore.DEClash.Weighted>
1.3956

> <Gold.Chemscore.DEInternal.Weighted>
2.4675

> <Gold.Chemscore.Rot.Weighted>
3.1847

> <Gold.Chemscore.Internal.Correction.Weighted>
   9.000000E+99

> <Gold.Protein.RotatedTorsions>
[ 6907 6896 6895 6894 ] final   23.76 input  -60.11 | X-H torsion
[ 7974 7965 7964 7962 ] final  -39.13 input  175.53 | X-H torsion
[ 8008 7997 7996 7995 ] final   -3.02 input   59.86 | X-H torsion
[ 10167 10162 10161 10158 ] final -171.83 input  -65.29 | X-H torsion
[ 10718 10713 10712 10709 ] final -151.55 input   66.30 | X-H torsion
[ 10763 10752 10751 10750 ] final  -50.00 input  -60.55 | X-H torsion
[ 11005 11000 10999 10996 ] final  -90.52 input  -57.11 | X-H torsion

> <Gold.Protein.ActiveResidues>
 VAL166  LYS551  ARG553  GLY616  TRP617  ASP618  TYR619  PRO620  LYS621  CYS622 
 ASP623  PHE694  ASN695  SER759  ASP760  ASP761  ALA762  ILE779  LEU786  VAL792 
 PHE793  MET794  SER795  GLU796  ALA797  LYS798  CYS799  TRP800  GLU811  SER814 

> <Gold.Protein.RotatedAtoms>
  151.9472  135.0186  160.0539 H   0  0  0  0  0  0  0  0  0  0  0  0  # atno 6907 bound_to 6896
  152.1985  133.4819  159.5054 H   0  0  0  0  0  0  0  0  0  0  0  0  # atno 6908 bound_to 6896
  150.6949  134.1538  159.4193 H   0  0  0  0  0  0  0  0  0  0  0  0  # atno 6909 bound_to 6896
  146.0424  140.6591  142.9081 H   0  0  0  0  0  0  0  0  0  0  0  0  # atno 7974 bound_to 7965
  154.6294  140.2520  155.7452 H   0  0  0  0  0  0  0  0  0  0  0  0  # atno 8008 bound_to 7997
  156.2471  140.2910  156.0558 H   0  0  0  0  0  0  0  0  0  0  0  0  # atno 8009 bound_to 7997
  155.1769  140.0388  157.2865 H   0  0  0  0  0  0  0  0  0  0  0  0  # atno 8010 bound_to 7997
  139.5779  144.1489  152.1476 H   0  0  0  0  0  0  0  0  0  0  0  0  # atno 10167 bound_to 10162
  156.4607  130.8212  151.2442 H   0  0  0  0  0  0  0  0  0  0  0  0  # atno 10718 bound_to 10713
  154.1032  135.6560  153.4872 H   0  0  0  0  0  0  0  0  0  0  0  0  # atno 10763 bound_to 10752
  153.0281  135.5230  154.7266 H   0  0  0  0  0  0  0  0  0  0  0  0  # atno 10764 bound_to 10752
  154.6424  135.2990  155.0057 H   0  0  0  0  0  0  0  0  0  0  0  0  # atno 10765 bound_to 10752
  141.1564  133.7697  156.9749 H   0  0  0  0  0  0  0  0  0  0  0  0  # atno 11005 bound_to 11000
  144.7081  140.3932  143.7102 LP  0  0  0  0  0  0  0  0  0  0  0  0  # atno 17320 bound_to 7965
  145.6862  139.1629  143.2673 LP  0  0  0  0  0  0  0  0  0  0  0  0  # atno 17321 bound_to 7965
  140.1036  144.5518  150.6972 LP  0  0  0  0  0  0  0  0  0  0  0  0  # atno 17342 bound_to 10162
  140.7060  143.2469  151.4723 LP  0  0  0  0  0  0  0  0  0  0  0  0  # atno 17343 bound_to 10162
  157.7498  131.0108  150.3320 LP  0  0  0  0  0  0  0  0  0  0  0  0  # atno 17370 bound_to 10713
  156.3720  130.3865  149.7168 LP  0  0  0  0  0  0  0  0  0  0  0  0  # atno 17371 bound_to 10713
  140.1104  134.9480  157.2057 LP  0  0  0  0  0  0  0  0  0  0  0  0  # atno 17394 bound_to 11000
  140.3201  134.2926  155.7248 LP  0  0  0  0  0  0  0  0  0  0  0  0  # atno 17395 bound_to 11000

$$$$
