AV-unprocessed.smi:1562|AV-procd|sdf|6288|dock10
  -GOLD-   22720 6483D 1   1.00000     0.00000
 Structure written by MMmdl.
 41 42  0  0  0  0  0  0  0  0  2 V2000
  143.7060  133.5537  147.7799 N   0  0  0  0  0  0  0  0  0  0  0  0
  143.6924  132.6247  148.7389 C   0  0  0  0  0  0  0  0  0  0  0  0
  142.7485  131.8500  148.8840 O   0  0  0  0  0  0  0  0  0  0  0  0
  144.9138  132.5567  149.6653 C   0  0  0  0  0  0  0  0  0  0  0  0
  144.5437  131.9249  151.0289 C   0  0  0  0  0  0  0  0  0  0  0  0
  145.7275  131.9892  152.0110 C   0  0  0  0  0  0  0  0  0  0  0  0
  146.1394  133.3951  152.1596 N   0  0  0  0  0  0  0  0  0  0  0  0
  145.8563  134.2045  153.2116 C   0  0  0  0  0  0  0  0  0  0  0  0
  144.9810  133.9540  154.0415 O   0  0  0  0  0  0  0  0  0  0  0  0
  146.5813  135.3336  153.2633 N   0  0  0  0  0  0  0  0  0  0  0  0
  146.4541  136.3510  154.2975 C   0  0  0  0  0  0  0  0  0  0  0  0
  145.8926  137.6536  153.7113 C   0  0  0  0  0  0  0  0  0  0  0  0
  146.8884  138.7944  153.7938 C   0  0  0  0  0  0  0  0  0  0  0  0
  148.1983  138.6143  154.2889 C   0  0  0  0  0  0  0  0  0  0  0  0
  149.0726  139.7199  154.3431 C   0  0  0  0  0  0  0  0  0  0  0  0
  148.6187  140.9809  153.9036 C   0  0  0  0  0  0  0  0  0  0  0  0
  147.3003  141.1044  153.4198 C   0  0  0  0  0  0  0  0  0  0  0  0
  146.4934  140.0211  153.3822 N   0  3  0  0  0  0  0  0  0  0  0  0
  146.6731  133.9235  150.8988 C   0  0  0  0  0  0  0  0  0  0  0  0
  145.5400  133.9584  149.8570 C   0  0  0  0  0  0  0  0  0  0  0  0
  142.9206  133.6331  147.1503 H   0  0  0  0  0  0  0  0  0  0  0  0
  144.4974  134.1736  147.6882 H   0  0  0  0  0  0  0  0  0  0  0  0
  145.6666  131.9183  149.1990 H   0  0  0  0  0  0  0  0  0  0  0  0
  143.6885  132.4410  151.4688 H   0  0  0  0  0  0  0  0  0  0  0  0
  144.2392  130.8871  150.8891 H   0  0  0  0  0  0  0  0  0  0  0  0
  145.4558  131.5057  152.9492 H   0  0  0  0  0  0  0  0  0  0  0  0
  146.5649  131.4090  151.6211 H   0  0  0  0  0  0  0  0  0  0  0  0
  147.2740  135.4867  152.5448 H   0  0  0  0  0  0  0  0  0  0  0  0
  145.8007  135.9879  155.0927 H   0  0  0  0  0  0  0  0  0  0  0  0
  147.4348  136.5296  154.7410 H   0  0  0  0  0  0  0  0  0  0  0  0
  145.6089  137.5020  152.6688 H   0  0  0  0  0  0  0  0  0  0  0  0
  144.9823  137.9415  154.2393 H   0  0  0  0  0  0  0  0  0  0  0  0
  148.5304  137.6425  154.6247 H   0  0  0  0  0  0  0  0  0  0  0  0
  150.0787  139.6023  154.7184 H   0  0  0  0  0  0  0  0  0  0  0  0
  149.2723  141.8403  153.9378 H   0  0  0  0  0  0  0  0  0  0  0  0
  146.8694  142.0295  153.0653 H   0  0  0  0  0  0  0  0  0  0  0  0
  147.1103  134.9166  151.0114 H   0  0  0  0  0  0  0  0  0  0  0  0
  147.4845  133.2829  150.5508 H   0  0  0  0  0  0  0  0  0  0  0  0
  145.9274  134.3281  148.9068 H   0  0  0  0  0  0  0  0  0  0  0  0
  144.7811  134.6738  150.1793 H   0  0  0  0  0  0  0  0  0  0  0  0
  145.5423  140.1345  153.0302 H   0  0  0  0  0  0  0  0  0  0  0  0
  1  2  1  0  0  0  0
  1 21  1  0  0  0  0
  1 22  1  0  0  0  0
  2  3  2  0  0  0  0
  2  4  1  0  0  0  0
  4 20  1  0  0  0  0
  4  5  1  0  0  0  0
  4 23  1  0  0  0  0
  5  6  1  0  0  0  0
  5 24  1  0  0  0  0
  5 25  1  0  0  0  0
  6  7  1  0  0  0  0
  6 26  1  0  0  0  0
  6 27  1  0  0  0  0
  7  8  1  0  0  0  0
  7 19  1  0  0  0  0
  8  9  2  0  0  0  0
  8 10  1  0  0  0  0
 10 11  1  0  0  0  0
 10 28  1  0  0  0  0
 11 12  1  0  0  0  0
 11 29  1  0  0  0  0
 11 30  1  0  0  0  0
 12 13  1  0  0  0  0
 12 31  1  0  0  0  0
 12 32  1  0  0  0  0
 13 18  1  0  0  0  0
 13 14  2  0  0  0  0
 14 15  1  0  0  0  0
 14 33  1  0  0  0  0
 15 16  2  0  0  0  0
 15 34  1  0  0  0  0
 16 17  1  0  0  0  0
 16 35  1  0  0  0  0
 17 18  2  0  0  0  0
 17 36  1  0  0  0  0
 18 41  1  0  0  0  0
 19 20  1  0  0  0  0
 19 37  1  0  0  0  0
 19 38  1  0  0  0  0
 20 39  1  0  0  0  0
 20 40  1  0  0  0  0
M  CHG  1  18   1
M  END
> <s_m_source_file>
AV-unprocessed.smi

> <i_m_source_file_index>
1562

> <i_lp_mmshare_version>
43012

> <i_f3d_flags>
0

> <s_epik_input>
W05IMl1DKD1PKVtDSF0xW0NIMl1bQ0gyXU4oW0NIMl1bQ0gyXTEpQyg9TylbTkhdW0NIMl1bQ0gyXWMyW2NIXVtjSF1bY0hdW2NIXW4y

> <s_epik_cmdline>
J2VwaWtfcHl0aG9uJywgJy1waCcsICc3LjAnLCAnLXRuJywgJzgnLCAnLW1hJywgJzIwMCcsICctbWV0YWxfYmluZGluZycsICctaW1hZScsICc8aW5maWxlLm1hZT4nLCAnLW9tYWUnLCAnPG91dGZpbGUubWFlPic=

> <r_epik_Ionization_Penalty>
1.55599

> <r_epik_Ionization_Penalty_Charging>
1.55593

> <r_epik_Ionization_Penalty_Neutral>
5.20779e-05

> <r_epik_State_Penalty>
1.65054

> <r_epik_Charging_Adjusted_Penalty>
3.20648

> <i_epik_Tot_Q>
1

> <i_epik_Tot_abs_Q>
1

> <r_epik_Metal_State_Penalty>
1.69236

> <b_epik_Metal_Only>
0

> <s_lp_Force_Field>
OPLS_2005

> <r_lp_Energy>
33.1399

> <b_lp_Chiralities_Consistent>
1

> <s_lp_Variant>
AV-unprocessed.smi:1562-2

> <Gold.Version>
5.8.1

> <Gold.Id.Protein>
6NUR|6NUR_protein|mol2

> <Gold.PLP.Fitness>
41.4821

> <Gold.PLP.PLP>
-26.0872

> <Gold.PLP.part.hbond>
-5.1338

> <Gold.PLP.part.metal>
0.0000

> <Gold.PLP.part.buried>
-1.8432

> <Gold.PLP.part.nonpolar>
-22.3195

> <Gold.PLP.part.repulsive>
4.2782

> <Gold.PLP.ligand.clash>
0.0000

> <Gold.PLP.ligand.torsion>
1.3412

> <Gold.PLP.Chemscore.Hbond>
6.0000

> <Gold.PLP.Chemscore.CHOScore>
0.0000

> <Gold.PLP.Chemscore.Metal>
0.0000

> <Gold.Chemscore.Hbonds>
donor molecule, donor type, donor heavy atom, donor atom, acceptor molecule, acceptor atom, score
      L1  H     1    21       P1 10195  1.00
      L1  H     1    22       P1  7921  1.00
      L1  H    10    28       P1  7948  1.00
      L1  H    18    41       P1 10175  2.00
      P1  H 10785 10796       L1     3  1.00

> <Gold.PLP.Chemscore.Internal.Correction>
0.0774

> <Gold.Rescore>
     Score         DG    S(hbond)    S(metal)    S(lipo)     H(rot)  DE(clash)    DE(int)     intcor
     20.14     -25.00       4.80        0.00      74.32       2.03       3.44       1.41       ----

> <Gold.Chemscore.Fitness>
20.1410

> <Gold.Chemscore.DG>
-24.9979

> <Gold.Chemscore.ZeroCoef>
-5.4800

> <Gold.Chemscore.Hbond>
4.7991

> <Gold.Chemscore.Metal>
0.0000

> <Gold.Chemscore.Lipo>
74.3230

> <Gold.Chemscore.Internal_Hbond>
0.0000

> <Gold.Chemscore.DEClash>
3.4431

> <Gold.Chemscore.DEInternal>
1.4138

> <Gold.Chemscore.Rot>
2.0339

> <Gold.Chemscore.Internal.Correction>
   9.000000E+99

> <Gold.Chemscore.Hbonds>
donor molecule, donor type, donor heavy atom, donor atom, acceptor molecule, acceptor atom, score
      L1  H     1    21       P1 10195  0.94
      L1  H     1    22       P1  7921  1.00
      L1  H    10    28       P1  7948  0.97
      L1  H    18    41       P1 10175  0.97
      P1  H 10785 10796       L1     3  0.87

> <Gold.Chemscore.Hbond.Weighted>
-16.0289

> <Gold.Chemscore.Metal.Weighted>
-0.0000

> <Gold.Chemscore.Lipo.Weighted>
-8.6958

> <Gold.Chemscore.Internal_Hbond.Weighted>
0.0000

> <Gold.Chemscore.DEClash.Weighted>
3.4431

> <Gold.Chemscore.DEInternal.Weighted>
1.4138

> <Gold.Chemscore.Rot.Weighted>
5.2069

> <Gold.Chemscore.Internal.Correction.Weighted>
   9.000000E+99

> <Gold.Protein.RotatedTorsions>
[ 6907 6896 6895 6894 ] final  155.25 input  -60.11 | X-H torsion
[ 7974 7965 7964 7962 ] final  169.28 input  175.53 | X-H torsion
[ 8008 7997 7996 7995 ] final  116.27 input   59.86 | X-H torsion
[ 10167 10162 10161 10158 ] final   75.19 input  -65.29 | X-H torsion
[ 10718 10713 10712 10709 ] final   54.70 input   66.30 | X-H torsion
[ 10763 10752 10751 10750 ] final  -55.72 input  -60.55 | X-H torsion
[ 11005 11000 10999 10996 ] final  175.53 input  -57.11 | X-H torsion

> <Gold.Protein.ActiveResidues>
 VAL166  LYS551  ARG553  GLY616  TRP617  ASP618  TYR619  PRO620  LYS621  CYS622 
 ASP623  PHE694  ASN695  SER759  ASP760  ASP761  ALA762  ILE779  LEU786  VAL792 
 PHE793  MET794  SER795  GLU796  ALA797  LYS798  CYS799  TRP800  GLU811  SER814 

> <Gold.Protein.RotatedAtoms>
  152.0468  133.4001  159.4359 H   0  0  0  0  0  0  0  0  0  0  0  0  # atno 6907 bound_to 6896
  150.6872  134.3352  159.4853 H   0  0  0  0  0  0  0  0  0  0  0  0  # atno 6908 bound_to 6896
  152.1158  134.9241  160.0615 H   0  0  0  0  0  0  0  0  0  0  0  0  # atno 6909 bound_to 6896
  144.7360  139.9032  143.6410 H   0  0  0  0  0  0  0  0  0  0  0  0  # atno 7974 bound_to 7965
  156.2430  140.2921  156.0498 H   0  0  0  0  0  0  0  0  0  0  0  0  # atno 8008 bound_to 7997
  155.1894  140.0406  157.2915 H   0  0  0  0  0  0  0  0  0  0  0  0  # atno 8009 bound_to 7997
  154.6205  140.2474  155.7563 H   0  0  0  0  0  0  0  0  0  0  0  0  # atno 8010 bound_to 7997
  140.0056  144.5653  150.7701 H   0  0  0  0  0  0  0  0  0  0  0  0  # atno 10167 bound_to 10162
  157.5280  130.8611  149.8648 H   0  0  0  0  0  0  0  0  0  0  0  0  # atno 10718 bound_to 10713
  154.1953  135.6420  153.5071 H   0  0  0  0  0  0  0  0  0  0  0  0  # atno 10763 bound_to 10752
  153.0025  135.5438  154.6372 H   0  0  0  0  0  0  0  0  0  0  0  0  # atno 10764 bound_to 10752
  154.5772  135.2922  155.0742 H   0  0  0  0  0  0  0  0  0  0  0  0  # atno 10765 bound_to 10752
  140.3632  134.7094  157.4345 H   0  0  0  0  0  0  0  0  0  0  0  0  # atno 11005 bound_to 11000
  146.1056  139.4056  143.0319 LP  0  0  0  0  0  0  0  0  0  0  0  0  # atno 17320 bound_to 7965
  145.7516  140.9970  143.1247 LP  0  0  0  0  0  0  0  0  0  0  0  0  # atno 17321 bound_to 7965
  140.7402  143.2801  151.3625 LP  0  0  0  0  0  0  0  0  0  0  0  0  # atno 17342 bound_to 10162
  139.6241  144.0849  152.2418 LP  0  0  0  0  0  0  0  0  0  0  0  0  # atno 17343 bound_to 10162
  156.0401  130.3741  150.1457 LP  0  0  0  0  0  0  0  0  0  0  0  0  # atno 17370 bound_to 10713
  156.9643  130.9814  151.3472 LP  0  0  0  0  0  0  0  0  0  0  0  0  # atno 17371 bound_to 10713
  140.0610  134.5996  155.8749 LP  0  0  0  0  0  0  0  0  0  0  0  0  # atno 17394 bound_to 11000
  141.1977  133.6598  156.5757 LP  0  0  0  0  0  0  0  0  0  0  0  0  # atno 17395 bound_to 11000

$$$$
