AV-unprocessed.smi:3324|AV-procd|sdf|12781|dock8
  -GOLD-   2272019123D 1   1.00000     0.00000
 Structure written by MMmdl.
 31 31  0  0  0  0  0  0  0  0  2 V2000
  145.0737  137.8054  153.8404 O   0  0  0  0  0  0  0  0  0  0  0  0
  146.0451  137.6542  153.0987 C   0  0  0  0  0  0  0  0  0  0  0  0
  146.8982  138.8511  152.6732 C   0  0  0  0  0  0  0  0  0  0  0  0
  148.3441  138.6011  152.8476 N   0  3  0  0  0  0  0  0  0  0  0  0
  148.8220  138.7722  154.2327 C   0  0  0  0  0  0  0  0  0  0  0  0
  150.3351  139.0323  154.2651 C   0  0  0  0  0  0  0  0  0  0  0  0
  150.6932  139.9958  155.2879 N   0  0  0  0  0  0  0  0  0  0  0  0
  151.5249  139.8268  156.3749 C   0  0  0  0  0  0  0  0  0  0  0  0
  151.5514  141.0117  157.0532 C   0  0  0  0  0  0  0  0  0  0  0  0
  150.6916  141.8550  156.2953 C   0  0  0  0  0  0  0  0  0  0  0  0
  150.1793  141.2436  155.2391 N   0  0  0  0  0  0  0  0  0  0  0  0
  146.4247  136.4614  152.6169 N   0  0  0  0  0  0  0  0  0  0  0  0
  145.7457  135.1949  152.8749 C   0  0  0  0  0  0  0  0  0  0  0  0
  145.3837  134.4600  151.5729 C   0  0  0  0  0  0  0  0  0  0  0  0
  144.4982  133.5022  151.8435 F   0  0  0  0  0  0  0  0  0  0  0  0
  144.8466  135.2987  150.6868 F   0  0  0  0  0  0  0  0  0  0  0  0
  146.4715  133.9000  151.0433 F   0  0  0  0  0  0  0  0  0  0  0  0
  146.6929  139.0795  151.6264 H   0  0  0  0  0  0  0  0  0  0  0  0
  146.6081  139.7220  153.2627 H   0  0  0  0  0  0  0  0  0  0  0  0
  148.5402  137.6548  152.5530 H   0  0  0  0  0  0  0  0  0  0  0  0
  148.2906  139.6037  154.6977 H   0  0  0  0  0  0  0  0  0  0  0  0
  148.5816  137.8747  154.8043 H   0  0  0  0  0  0  0  0  0  0  0  0
  150.8795  138.1062  154.4570 H   0  0  0  0  0  0  0  0  0  0  0  0
  150.6776  139.4073  153.2995 H   0  0  0  0  0  0  0  0  0  0  0  0
  152.0234  138.8893  156.5739 H   0  0  0  0  0  0  0  0  0  0  0  0
  152.1002  141.2415  157.9546 H   0  0  0  0  0  0  0  0  0  0  0  0
  150.4261  142.8856  156.4797 H   0  0  0  0  0  0  0  0  0  0  0  0
  147.2336  136.4255  152.0132 H   0  0  0  0  0  0  0  0  0  0  0  0
  146.4150  134.5737  153.4709 H   0  0  0  0  0  0  0  0  0  0  0  0
  144.8536  135.3531  153.4833 H   0  0  0  0  0  0  0  0  0  0  0  0
  148.8516  139.2345  152.2463 H   0  0  0  0  0  0  0  0  0  0  0  0
  1  2  2  0  0  0  0
  2  3  1  0  0  0  0
  2 12  1  0  0  0  0
  3  4  1  0  0  0  0
  3 18  1  0  0  0  0
  3 19  1  0  0  0  0
  4  5  1  0  0  0  0
  4 20  1  0  0  0  0
  4 31  1  0  0  0  0
  5  6  1  0  0  0  0
  5 21  1  0  0  0  0
  5 22  1  0  0  0  0
  6  7  1  0  0  0  0
  6 23  1  0  0  0  0
  6 24  1  0  0  0  0
  7 11  1  0  0  0  0
  7  8  1  0  0  0  0
  8  9  2  0  0  0  0
  8 25  1  0  0  0  0
  9 10  1  0  0  0  0
  9 26  1  0  0  0  0
 10 11  2  0  0  0  0
 10 27  1  0  0  0  0
 12 13  1  0  0  0  0
 12 28  1  0  0  0  0
 13 14  1  0  0  0  0
 13 29  1  0  0  0  0
 13 30  1  0  0  0  0
 14 15  1  0  0  0  0
 14 16  1  0  0  0  0
 14 17  1  0  0  0  0
M  CHG  1   4   1
M  END
> <s_m_source_file>
AV-unprocessed.smi

> <i_m_source_file_index>
3324

> <i_lp_mmshare_version>
43012

> <i_f3d_flags>
0

> <s_epik_input>
RkMoRikoRilbQ0gyXVtOSF1DKD1PKVtDSDJdW05IXVtDSDJdW0NIMl1uMVtjSF1bY0hdW2NIXW4x

> <s_epik_cmdline>
J2VwaWtfcHl0aG9uJywgJy1waCcsICc3LjAnLCAnLXRuJywgJzgnLCAnLW1hJywgJzIwMCcsICctbWV0YWxfYmluZGluZycsICctaW1hZScsICc8aW5maWxlLm1hZT4nLCAnLW9tYWUnLCAnPG91dGZpbGUubWFlPic=

> <r_lp_tautomer_probability>
1

> <r_epik_Ionization_Penalty>
0.310414

> <r_epik_Ionization_Penalty_Charging>
0.310394

> <r_epik_Ionization_Penalty_Neutral>
2.02819e-05

> <r_epik_State_Penalty>
0.304907

> <r_epik_Charging_Adjusted_Penalty>
0.6153

> <i_epik_Tot_Q>
1

> <i_epik_Tot_abs_Q>
1

> <r_epik_Metal_State_Penalty>
0.315528

> <b_epik_Metal_Only>
0

> <s_lp_Force_Field>
OPLS_2005

> <r_lp_Energy>
1.82642

> <b_lp_Chiralities_Consistent>
1

> <s_lp_Variant>
AV-unprocessed.smi:3324-1

> <Gold.Version>
5.8.1

> <Gold.Id.Protein>
6NUR|6NUR_protein|mol2

> <Gold.PLP.Fitness>
45.8322

> <Gold.PLP.PLP>
-32.3109

> <Gold.PLP.part.hbond>
-3.9982

> <Gold.PLP.part.metal>
0.0000

> <Gold.PLP.part.buried>
-4.6227

> <Gold.PLP.part.nonpolar>
-25.1160

> <Gold.PLP.part.repulsive>
0.3460

> <Gold.PLP.ligand.clash>
0.0000

> <Gold.PLP.ligand.torsion>
0.7714

> <Gold.PLP.Chemscore.Hbond>
3.9920

> <Gold.PLP.Chemscore.CHOScore>
1.0000

> <Gold.PLP.Chemscore.Metal>
0.0000

> <Gold.Chemscore.Hbonds>
donor molecule, donor type, donor heavy atom, donor atom, acceptor molecule, acceptor atom, score
      L1  H     4    20       P1  7948  2.00
      L1  H     4    31       P1  7957  1.00
      L1  H    12    28       P1  7948  0.99
      L1  C    10    27       P1  8028  1.00

> <Gold.PLP.Chemscore.Internal.Correction>
0.0880

> <Gold.Rescore>
     Score         DG    S(hbond)    S(metal)    S(lipo)     H(rot)  DE(clash)    DE(int)     intcor
     12.68     -13.37       2.98        0.00      46.13       2.91       0.00       0.69       ----

> <Gold.Chemscore.Fitness>
12.6828

> <Gold.Chemscore.DG>
-13.3717

> <Gold.Chemscore.ZeroCoef>
-5.4800

> <Gold.Chemscore.Hbond>
2.9766

> <Gold.Chemscore.Metal>
0.0000

> <Gold.Chemscore.Lipo>
46.1274

> <Gold.Chemscore.Internal_Hbond>
0.0000

> <Gold.Chemscore.DEClash>
0.0029

> <Gold.Chemscore.DEInternal>
0.6860

> <Gold.Chemscore.Rot>
2.9091

> <Gold.Chemscore.Internal.Correction>
   9.000000E+99

> <Gold.Chemscore.Hbonds>
donor molecule, donor type, donor heavy atom, donor atom, acceptor molecule, acceptor atom, score
      L1  H     4    20       P1  7948  0.99
      L1  H     4    31       P1  7957  0.93
      L1  H    12    28       P1  7948  0.94

> <Gold.Chemscore.Hbond.Weighted>
-9.9420

> <Gold.Chemscore.Metal.Weighted>
-0.0000

> <Gold.Chemscore.Lipo.Weighted>
-5.3969

> <Gold.Chemscore.Internal_Hbond.Weighted>
0.0000

> <Gold.Chemscore.DEClash.Weighted>
0.0029

> <Gold.Chemscore.DEInternal.Weighted>
0.6860

> <Gold.Chemscore.Rot.Weighted>
7.4472

> <Gold.Chemscore.Internal.Correction.Weighted>
   9.000000E+99

> <Gold.Protein.RotatedTorsions>
[ 6907 6896 6895 6894 ] final  123.00 input  -60.11 | X-H torsion
[ 7974 7965 7964 7962 ] final  111.91 input  175.53 | X-H torsion
[ 8008 7997 7996 7995 ] final  -40.55 input   59.86 | X-H torsion
[ 10167 10162 10161 10158 ] final -138.33 input  -65.29 | X-H torsion
[ 10718 10713 10712 10709 ] final -144.63 input   66.30 | X-H torsion
[ 10763 10752 10751 10750 ] final  111.95 input  -60.55 | X-H torsion
[ 11005 11000 10999 10996 ] final -156.68 input  -57.11 | X-H torsion

> <Gold.Protein.ActiveResidues>
 VAL166  LYS551  ARG553  GLY616  TRP617  ASP618  TYR619  PRO620  LYS621  CYS622 
 ASP623  PHE694  ASN695  SER759  ASP760  ASP761  ALA762  ILE779  LEU786  VAL792 
 PHE793  MET794  SER795  GLU796  ALA797  LYS798  CYS799  TRP800  GLU811  SER814 

> <Gold.Protein.RotatedAtoms>
  152.4198  133.7097  159.6471 H   0  0  0  0  0  0  0  0  0  0  0  0  # atno 6907 bound_to 6896
  150.8074  133.8474  159.3205 H   0  0  0  0  0  0  0  0  0  0  0  0  # atno 6908 bound_to 6896
  151.6194  135.1035  160.0150 H   0  0  0  0  0  0  0  0  0  0  0  0  # atno 6909 bound_to 6896
  145.2362  139.2798  143.4142 H   0  0  0  0  0  0  0  0  0  0  0  0  # atno 7974 bound_to 7965
  154.4011  140.1522  156.3045 H   0  0  0  0  0  0  0  0  0  0  0  0  # atno 8008 bound_to 7997
  155.8671  140.3450  155.5774 H   0  0  0  0  0  0  0  0  0  0  0  0  # atno 8009 bound_to 7997
  155.7816  140.0844  157.2046 H   0  0  0  0  0  0  0  0  0  0  0  0  # atno 8010 bound_to 7997
  139.8489  143.7225  152.2659 H   0  0  0  0  0  0  0  0  0  0  0  0  # atno 10167 bound_to 10162
  156.3725  130.7795  151.1978 H   0  0  0  0  0  0  0  0  0  0  0  0  # atno 10718 bound_to 10713
  153.4708  135.3701  155.2390 H   0  0  0  0  0  0  0  0  0  0  0  0  # atno 10763 bound_to 10752
  154.8757  135.3931  154.3814 H   0  0  0  0  0  0  0  0  0  0  0  0  # atno 10764 bound_to 10752
  153.4402  135.7084  153.6238 H   0  0  0  0  0  0  0  0  0  0  0  0  # atno 10765 bound_to 10752
  140.6730  134.4227  157.5231 H   0  0  0  0  0  0  0  0  0  0  0  0  # atno 11005 bound_to 11000
  146.3340  140.2712  142.8606 LP  0  0  0  0  0  0  0  0  0  0  0  0  # atno 17320 bound_to 7965
  144.9631  140.8294  143.5501 LP  0  0  0  0  0  0  0  0  0  0  0  0  # atno 17321 bound_to 7965
  139.7485  144.7540  151.0542 LP  0  0  0  0  0  0  0  0  0  0  0  0  # atno 17342 bound_to 10162
  140.7790  143.4887  150.9921 LP  0  0  0  0  0  0  0  0  0  0  0  0  # atno 17343 bound_to 10162
  157.7485  131.0368  150.4426 LP  0  0  0  0  0  0  0  0  0  0  0  0  # atno 17370 bound_to 10713
  156.4655  130.4041  149.6550 LP  0  0  0  0  0  0  0  0  0  0  0  0  # atno 17371 bound_to 10713
  139.8976  134.8634  156.2039 LP  0  0  0  0  0  0  0  0  0  0  0  0  # atno 17394 bound_to 11000
  141.0378  133.6954  156.1543 LP  0  0  0  0  0  0  0  0  0  0  0  0  # atno 17395 bound_to 11000

$$$$
