AV-unprocessed.smi:2902|AV-procd|sdf|11152|dock10
  -GOLD-   2272016 33D 1   1.00000     0.00000
 Structure written by MMmdl.
 47 48  0  0  0  0  0  0  0  0  1 V2000
  149.1594  141.5273  154.3263 C   0  0  0  0  0  0  0  0  0  0  0  0
  149.4095  141.4990  155.8396 C   0  0  0  0  0  0  0  0  0  0  0  0
  150.8982  141.3238  156.1933 C   0  0  1  0  0  0  0  0  0  0  0  0
  151.0165  141.3565  157.6155 O   0  0  0  0  0  0  0  0  0  0  0  0
  151.8912  142.3412  158.1610 C   0  0  0  0  0  0  0  0  0  0  0  0
  151.8973  142.2542  159.6853 C   0  0  0  0  0  0  0  0  0  0  0  0
  152.3982  143.6258  160.1476 C   0  0  0  0  0  0  0  0  0  0  0  0
  152.0436  144.6110  159.0225 C   0  0  0  0  0  0  0  0  0  0  0  0
  151.4236  143.7751  157.8962 C   0  0  0  0  0  0  0  0  0  0  0  0
  151.4527  139.9969  155.6511 C   0  0  0  0  0  0  0  0  0  0  0  0
  152.4181  139.9938  154.8871 O   0  0  0  0  0  0  0  0  0  0  0  0
  150.8142  138.8840  156.0465 N   0  0  0  0  0  0  0  0  0  0  0  0
  151.1263  137.5173  155.6321 C   0  0  2  0  0  0  0  0  0  0  0  0
  151.2824  137.4937  154.1009 C   0  0  0  0  0  0  0  0  0  0  0  0
  150.0460  136.5372  156.1601 C   0  0  2  0  0  0  0  0  0  0  0  0
  149.9272  136.5462  157.6969 C   0  0  0  0  0  0  0  0  0  0  0  0
  150.2592  135.1797  155.6766 N   0  0  0  0  0  0  0  0  0  0  0  0
  150.2230  134.6897  154.4358 C   0  0  0  0  0  0  0  0  0  0  0  0
  150.4758  133.3902  154.3638 N   0  0  0  0  0  0  0  0  0  0  0  0
  150.6716  133.1221  155.6889 C   0  0  0  0  0  0  0  0  0  0  0  0
  150.5532  134.1586  156.5185 N   0  0  0  0  0  0  0  0  0  0  0  0
  148.0972  141.6433  154.1108 H   0  0  0  0  0  0  0  0  0  0  0  0
  149.4959  140.6041  153.8539 H   0  0  0  0  0  0  0  0  0  0  0  0
  149.6861  142.3570  153.8539 H   0  0  0  0  0  0  0  0  0  0  0  0
  149.0246  142.4177  156.2845 H   0  0  0  0  0  0  0  0  0  0  0  0
  148.8296  140.6823  156.2721 H   0  0  0  0  0  0  0  0  0  0  0  0
  151.4531  142.1528  155.7511 H   0  0  0  0  0  0  0  0  0  0  0  0
  152.9157  142.2138  157.8086 H   0  0  0  0  0  0  0  0  0  0  0  0
  150.8809  142.0980  160.0497 H   0  0  0  0  0  0  0  0  0  0  0  0
  152.5121  141.4338  160.0562 H   0  0  0  0  0  0  0  0  0  0  0  0
  151.9564  143.9142  161.1017 H   0  0  0  0  0  0  0  0  0  0  0  0
  153.4800  143.5991  160.2830 H   0  0  0  0  0  0  0  0  0  0  0  0
  151.3533  145.3832  159.3636 H   0  0  0  0  0  0  0  0  0  0  0  0
  152.9458  145.1128  158.6711 H   0  0  0  0  0  0  0  0  0  0  0  0
  151.7072  144.1352  156.9070 H   0  0  0  0  0  0  0  0  0  0  0  0
  150.3358  143.8234  157.9667 H   0  0  0  0  0  0  0  0  0  0  0  0
  150.0305  138.9954  156.6732 H   0  0  0  0  0  0  0  0  0  0  0  0
  152.0860  137.2145  156.0547 H   0  0  0  0  0  0  0  0  0  0  0  0
  151.6106  136.5178  153.7428 H   0  0  0  0  0  0  0  0  0  0  0  0
  152.0261  138.2213  153.7737 H   0  0  0  0  0  0  0  0  0  0  0  0
  150.3421  137.7331  153.6032 H   0  0  0  0  0  0  0  0  0  0  0  0
  149.0827  136.8591  155.7605 H   0  0  0  0  0  0  0  0  0  0  0  0
  149.6231  137.5240  158.0704 H   0  0  0  0  0  0  0  0  0  0  0  0
  150.8754  136.2921  158.1714 H   0  0  0  0  0  0  0  0  0  0  0  0
  149.1822  135.8259  158.0358 H   0  0  0  0  0  0  0  0  0  0  0  0
  150.0105  135.2955  153.5673 H   0  0  0  0  0  0  0  0  0  0  0  0
  150.9089  132.1334  156.0533 H   0  0  0  0  0  0  0  0  0  0  0  0
  1  2  1  0  0  0  0
  1 22  1  0  0  0  0
  1 23  1  0  0  0  0
  1 24  1  0  0  0  0
  2  3  1  0  0  0  0
  2 25  1  0  0  0  0
  2 26  1  0  0  0  0
  3  4  1  0  0  0  0
  3 10  1  0  0  0  0
  3 27  1  0  0  0  0
  4  5  1  0  0  0  0
  5  9  1  0  0  0  0
  5  6  1  0  0  0  0
  5 28  1  0  0  0  0
  6  7  1  0  0  0  0
  6 29  1  0  0  0  0
  6 30  1  0  0  0  0
  7  8  1  0  0  0  0
  7 31  1  0  0  0  0
  7 32  1  0  0  0  0
  8  9  1  0  0  0  0
  8 33  1  0  0  0  0
  8 34  1  0  0  0  0
  9 35  1  0  0  0  0
  9 36  1  0  0  0  0
 10 11  2  0  0  0  0
 10 12  1  0  0  0  0
 12 13  1  0  0  0  0
 12 37  1  0  0  0  0
 13 14  1  0  0  0  0
 13 15  1  0  0  0  0
 13 38  1  0  0  0  0
 14 39  1  0  0  0  0
 14 40  1  0  0  0  0
 14 41  1  0  0  0  0
 15 16  1  0  0  0  0
 15 17  1  0  0  0  0
 15 42  1  0  0  0  0
 16 43  1  0  0  0  0
 16 44  1  0  0  0  0
 16 45  1  0  0  0  0
 17 21  1  0  0  0  0
 17 18  1  0  0  0  0
 18 19  2  0  0  0  0
 18 46  1  0  0  0  0
 19 20  1  0  0  0  0
 20 21  2  0  0  0  0
 20 47  1  0  0  0  0
M  END
> <s_m_source_file>
AV-unprocessed.smi

> <i_m_source_file_index>
2902

> <i_lp_mmshare_version>
43012

> <i_f3d_flags>
0

> <s_epik_input>
W0NIMl0xW0NIMl1bQ0gyXVtDSDJdW0NIXTFPW0NAQEhdKFtDSDJdW0NIM10pQyg9TylbTkhdW0NASF0oW0NIM10pW0NASF0oW0NIM10pbjJbY0hdbltjSF1uMg==

> <s_epik_cmdline>
J2VwaWtfcHl0aG9uJywgJy1waCcsICc3LjAnLCAnLXRuJywgJzgnLCAnLW1hJywgJzIwMCcsICctbWV0YWxfYmluZGluZycsICctaW1hZScsICc8aW5maWxlLm1hZT4nLCAnLW9tYWUnLCAnPG91dGZpbGUubWFlPic=

> <r_lp_tautomer_probability>
1

> <r_epik_Ionization_Penalty>
6.95617e-05

> <r_epik_Ionization_Penalty_Charging>
0

> <r_epik_Ionization_Penalty_Neutral>
6.95617e-05

> <r_epik_State_Penalty>
-0

> <r_epik_Charging_Adjusted_Penalty>
0

> <i_epik_Tot_Q>
0

> <i_epik_Tot_abs_Q>
0

> <r_epik_Metal_State_Penalty>
-0

> <b_epik_Metal_Only>
0

> <s_lp_Force_Field>
OPLS_2005

> <r_lp_Energy>
28.6706

> <b_lp_Chiralities_Consistent>
1

> <s_lp_Variant>
AV-unprocessed.smi:2902-2

> <Gold.Version>
5.8.1

> <Gold.Id.Protein>
6NUR|6NUR_protein|mol2

> <Gold.PLP.Fitness>
44.2894

> <Gold.PLP.PLP>
-40.3159

> <Gold.PLP.part.hbond>
-1.9814

> <Gold.PLP.part.metal>
0.0000

> <Gold.PLP.part.buried>
-4.5388

> <Gold.PLP.part.nonpolar>
-34.5816

> <Gold.PLP.part.repulsive>
0.1534

> <Gold.PLP.ligand.clash>
0.0000

> <Gold.PLP.ligand.torsion>
1.0072

> <Gold.PLP.Chemscore.Hbond>
1.0827

> <Gold.PLP.Chemscore.CHOScore>
0.8435

> <Gold.PLP.Chemscore.Metal>
0.0000

> <Gold.Chemscore.Hbonds>
donor molecule, donor type, donor heavy atom, donor atom, acceptor molecule, acceptor atom, score
      P1  H  7989  7998       L1    11  0.58
      L1  C    18    46       P1  7948  0.23

> <Gold.PLP.Chemscore.Internal.Correction>
0.2092

> <Gold.Rescore>
     Score         DG    S(hbond)    S(metal)    S(lipo)     H(rot)  DE(clash)    DE(int)     intcor
     12.32     -14.86       1.68        0.00      91.15       2.69       0.13       2.41       ----

> <Gold.Chemscore.Fitness>
12.3181

> <Gold.Chemscore.DG>
-14.8579

> <Gold.Chemscore.ZeroCoef>
-5.4800

> <Gold.Chemscore.Hbond>
1.6791

> <Gold.Chemscore.Metal>
0.0000

> <Gold.Chemscore.Lipo>
91.1538

> <Gold.Chemscore.Internal_Hbond>
0.0000

> <Gold.Chemscore.DEClash>
0.1346

> <Gold.Chemscore.DEInternal>
2.4052

> <Gold.Chemscore.Rot>
2.6935

> <Gold.Chemscore.Internal.Correction>
   9.000000E+99

> <Gold.Chemscore.Hbonds>
donor molecule, donor type, donor heavy atom, donor atom, acceptor molecule, acceptor atom, score
      P1  H  7989  7998       L1    11  0.13
      P1  H  7997  8009       L1    11  0.03

> <Gold.Chemscore.Hbond.Weighted>
-5.6082

> <Gold.Chemscore.Metal.Weighted>
-0.0000

> <Gold.Chemscore.Lipo.Weighted>
-10.6650

> <Gold.Chemscore.Internal_Hbond.Weighted>
0.0000

> <Gold.Chemscore.DEClash.Weighted>
0.1346

> <Gold.Chemscore.DEInternal.Weighted>
2.4052

> <Gold.Chemscore.Rot.Weighted>
6.8954

> <Gold.Chemscore.Internal.Correction.Weighted>
   9.000000E+99

> <Gold.Protein.RotatedTorsions>
[ 6907 6896 6895 6894 ] final -119.00 input  -60.11 | X-H torsion
[ 7974 7965 7964 7962 ] final -148.29 input  175.53 | X-H torsion
[ 8008 7997 7996 7995 ] final -105.93 input   59.86 | X-H torsion
[ 10167 10162 10161 10158 ] final -130.09 input  -65.29 | X-H torsion
[ 10718 10713 10712 10709 ] final   42.89 input   66.30 | X-H torsion
[ 10763 10752 10751 10750 ] final  -51.15 input  -60.55 | X-H torsion
[ 11005 11000 10999 10996 ] final  131.29 input  -57.11 | X-H torsion

> <Gold.Protein.ActiveResidues>
 VAL166  LYS551  ARG553  GLY616  TRP617  ASP618  TYR619  PRO620  LYS621  CYS622 
 ASP623  PHE694  ASN695  SER759  ASP760  ASP761  ALA762  ILE779  LEU786  VAL792 
 PHE793  MET794  SER795  GLU796  ALA797  LYS798  CYS799  TRP800  GLU811  SER814 

> <Gold.Protein.RotatedAtoms>
  150.8268  133.8158  159.3115 H   0  0  0  0  0  0  0  0  0  0  0  0  # atno 6907 bound_to 6896
  151.5900  135.1052  160.0046 H   0  0  0  0  0  0  0  0  0  0  0  0  # atno 6908 bound_to 6896
  152.4352  133.7307  159.6642 H   0  0  0  0  0  0  0  0  0  0  0  0  # atno 6909 bound_to 6896
  144.8039  140.5216  143.5688 H   0  0  0  0  0  0  0  0  0  0  0  0  # atno 7974 bound_to 7965
  154.9070  140.0411  157.1925 H   0  0  0  0  0  0  0  0  0  0  0  0  # atno 8008 bound_to 7997
  154.8386  140.2910  155.5653 H   0  0  0  0  0  0  0  0  0  0  0  0  # atno 8009 bound_to 7997
  156.2991  140.2487  156.3324 H   0  0  0  0  0  0  0  0  0  0  0  0  # atno 8010 bound_to 7997
  139.9330  143.6250  152.2524 H   0  0  0  0  0  0  0  0  0  0  0  0  # atno 10167 bound_to 10162
  157.4098  130.7908  149.7421 H   0  0  0  0  0  0  0  0  0  0  0  0  # atno 10718 bound_to 10713
  154.1219  135.6533  153.4904 H   0  0  0  0  0  0  0  0  0  0  0  0  # atno 10763 bound_to 10752
  153.0223  135.5272  154.7088 H   0  0  0  0  0  0  0  0  0  0  0  0  # atno 10764 bound_to 10752
  154.6298  135.2975  155.0199 H   0  0  0  0  0  0  0  0  0  0  0  0  # atno 10765 bound_to 10752
  139.9722  134.9574  156.9417 H   0  0  0  0  0  0  0  0  0  0  0  0  # atno 11005 bound_to 11000
  145.5486  139.1476  143.3407 LP  0  0  0  0  0  0  0  0  0  0  0  0  # atno 17320 bound_to 7965
  146.2326  140.5624  142.8968 LP  0  0  0  0  0  0  0  0  0  0  0  0  # atno 17321 bound_to 7965
  139.6767  144.7658  151.1683 LP  0  0  0  0  0  0  0  0  0  0  0  0  # atno 17342 bound_to 10162
  140.7632  143.5785  150.8920 LP  0  0  0  0  0  0  0  0  0  0  0  0  # atno 17343 bound_to 10162
  155.9847  130.3989  150.3297 LP  0  0  0  0  0  0  0  0  0  0  0  0  # atno 17370 bound_to 10713
  157.1434  131.0302  151.2917 LP  0  0  0  0  0  0  0  0  0  0  0  0  # atno 17371 bound_to 10713
  140.5270  134.0851  155.7306 LP  0  0  0  0  0  0  0  0  0  0  0  0  # atno 17394 bound_to 11000
  141.1401  133.9154  157.2346 LP  0  0  0  0  0  0  0  0  0  0  0  0  # atno 17395 bound_to 11000

$$$$
