AV-unprocessed.smi:2496|AV-procd|sdf|9827|dock7
  -GOLD-   2272013453D 1   1.00000     0.00000
 Structure written by MMmdl.
 40 40  0  0  0  0  0  0  0  0  1 V2000
  151.9537  137.4768  155.9782 C   0  0  0  0  0  0  0  0  0  0  0  0
  151.0874  138.4402  155.2182 C   0  0  0  0  0  0  0  0  0  0  0  0
  150.9994  138.3302  153.9019 N   0  0  0  0  0  0  0  0  0  0  0  0
  150.1700  139.3268  153.5504 N   0  0  0  0  0  0  0  0  0  0  0  0
  149.7315  140.0701  154.6209 C   0  0  0  0  0  0  0  0  0  0  0  0
  148.8092  141.2305  154.4400 C   0  0  0  0  0  0  0  0  0  0  0  0
  150.3086  139.5201  155.7375 C   0  0  0  0  0  0  0  0  0  0  0  0
  150.1911  139.9347  157.1914 C   0  0  2  0  0  0  0  0  0  0  0  0
  148.8997  140.7320  157.4542 C   0  0  0  0  0  0  0  0  0  0  0  0
  151.4630  140.6851  157.6218 C   0  0  0  0  0  0  0  0  0  0  0  0
  152.5789  140.1998  157.4318 O   0  0  0  0  0  0  0  0  0  0  0  0
  151.2717  141.8772  158.2104 N   0  0  0  0  0  0  0  0  0  0  0  0
  152.3109  142.7322  158.7796 C   0  0  1  0  0  0  0  0  0  0  0  0
  152.2447  144.1080  158.0927 C   0  0  0  0  0  0  0  0  0  0  0  0
  152.1522  142.8022  160.3217 C   0  0  0  0  0  0  0  0  0  0  0  0
  152.0107  144.2480  160.8304 C   0  0  0  0  0  0  0  0  0  0  0  0
  153.3137  142.1085  161.0616 C   0  0  0  0  0  0  0  0  0  0  0  0
  149.9156  139.4882  152.5862 H   0  0  0  0  0  0  0  0  0  0  0  0
  152.7335  138.0058  156.5263 H   0  0  0  0  0  0  0  0  0  0  0  0
  152.4418  136.7597  155.3172 H   0  0  0  0  0  0  0  0  0  0  0  0
  151.3644  136.9117  156.7004 H   0  0  0  0  0  0  0  0  0  0  0  0
  149.0895  142.0589  155.0903 H   0  0  0  0  0  0  0  0  0  0  0  0
  147.7836  140.9472  154.6750 H   0  0  0  0  0  0  0  0  0  0  0  0
  148.8306  141.5942  153.4124 H   0  0  0  0  0  0  0  0  0  0  0  0
  150.1424  139.0487  157.8254 H   0  0  0  0  0  0  0  0  0  0  0  0
  148.8698  141.6611  156.8849 H   0  0  0  0  0  0  0  0  0  0  0  0
  148.7999  140.9874  158.5097 H   0  0  0  0  0  0  0  0  0  0  0  0
  148.0217  140.1476  157.1780 H   0  0  0  0  0  0  0  0  0  0  0  0
  150.3191  142.1946  158.3189 H   0  0  0  0  0  0  0  0  0  0  0  0
  153.2884  142.2952  158.5671 H   0  0  0  0  0  0  0  0  0  0  0  0
  153.0721  144.7504  158.3922 H   0  0  0  0  0  0  0  0  0  0  0  0
  151.3145  144.6253  158.3296 H   0  0  0  0  0  0  0  0  0  0  0  0
  152.3009  144.0073  157.0083 H   0  0  0  0  0  0  0  0  0  0  0  0
  151.2375  142.2722  160.5915 H   0  0  0  0  0  0  0  0  0  0  0  0
  152.8726  144.8532  160.5473 H   0  0  0  0  0  0  0  0  0  0  0  0
  151.9306  144.2746  161.9175 H   0  0  0  0  0  0  0  0  0  0  0  0
  151.1168  144.7319  160.4381 H   0  0  0  0  0  0  0  0  0  0  0  0
  154.2736  142.5489  160.7898 H   0  0  0  0  0  0  0  0  0  0  0  0
  153.3617  141.0422  160.8389 H   0  0  0  0  0  0  0  0  0  0  0  0
  153.2016  142.1996  162.1422 H   0  0  0  0  0  0  0  0  0  0  0  0
  1  2  1  0  0  0  0
  1 19  1  0  0  0  0
  1 20  1  0  0  0  0
  1 21  1  0  0  0  0
  2  7  1  0  0  0  0
  2  3  2  0  0  0  0
  3  4  1  0  0  0  0
  4 18  1  0  0  0  0
  4  5  1  0  0  0  0
  5  6  1  0  0  0  0
  5  7  2  0  0  0  0
  6 22  1  0  0  0  0
  6 23  1  0  0  0  0
  6 24  1  0  0  0  0
  7  8  1  0  0  0  0
  8  9  1  0  0  0  0
  8 10  1  0  0  0  0
  8 25  1  0  0  0  0
  9 26  1  0  0  0  0
  9 27  1  0  0  0  0
  9 28  1  0  0  0  0
 10 11  2  0  0  0  0
 10 12  1  0  0  0  0
 12 13  1  0  0  0  0
 12 29  1  0  0  0  0
 13 14  1  0  0  0  0
 13 15  1  0  0  0  0
 13 30  1  0  0  0  0
 14 31  1  0  0  0  0
 14 32  1  0  0  0  0
 14 33  1  0  0  0  0
 15 16  1  0  0  0  0
 15 17  1  0  0  0  0
 15 34  1  0  0  0  0
 16 35  1  0  0  0  0
 16 36  1  0  0  0  0
 16 37  1  0  0  0  0
 17 38  1  0  0  0  0
 17 39  1  0  0  0  0
 17 40  1  0  0  0  0
M  END
> <s_m_source_file>
AV-unprocessed.smi

> <i_m_source_file_index>
2496

> <i_lp_mmshare_version>
43012

> <i_f3d_flags>
0

> <s_epik_input>
W0NIM11jMW5bbkhdYyhbQ0gzXSljMVtDQEhdKFtDSDNdKUMoPU8pW05IXVtDQEhdKFtDSDNdKVtDSF0oW0NIM10pW0NIM10=

> <s_epik_cmdline>
J2VwaWtfcHl0aG9uJywgJy1waCcsICc3LjAnLCAnLXRuJywgJzgnLCAnLW1hJywgJzIwMCcsICctbWV0YWxfYmluZGluZycsICctaW1hZScsICc8aW5maWxlLm1hZT4nLCAnLW9tYWUnLCAnPG91dGZpbGUubWFlPic=

> <r_lp_tautomer_probability>
1

> <r_epik_Ionization_Penalty>
0.000456212

> <r_epik_Ionization_Penalty_Charging>
0

> <r_epik_Ionization_Penalty_Neutral>
0.000456212

> <r_epik_State_Penalty>
-0

> <r_epik_Charging_Adjusted_Penalty>
0

> <i_epik_Tot_Q>
0

> <i_epik_Tot_abs_Q>
0

> <r_epik_Metal_State_Penalty>
-0

> <b_epik_Metal_Only>
0

> <s_lp_Force_Field>
OPLS_2005

> <r_lp_Energy>
1.42294

> <b_lp_Chiralities_Consistent>
1

> <s_lp_Variant>
AV-unprocessed.smi:2496-3

> <Gold.Version>
5.8.1

> <Gold.Id.Protein>
6NUR|6NUR_protein|mol2

> <Gold.PLP.Fitness>
36.1830

> <Gold.PLP.PLP>
-34.6628

> <Gold.PLP.part.hbond>
-1.8366

> <Gold.PLP.part.metal>
0.0000

> <Gold.PLP.part.buried>
-4.0642

> <Gold.PLP.part.nonpolar>
-29.4557

> <Gold.PLP.part.repulsive>
0.9070

> <Gold.PLP.ligand.clash>
0.3508

> <Gold.PLP.ligand.torsion>
2.1198

> <Gold.PLP.Chemscore.Hbond>
2.0000

> <Gold.PLP.Chemscore.CHOScore>
0.0000

> <Gold.PLP.Chemscore.Metal>
0.0000

> <Gold.Chemscore.Hbonds>
donor molecule, donor type, donor heavy atom, donor atom, acceptor molecule, acceptor atom, score
      L1  H     4    18       P1  7957  1.00
      P1  H  7997  8010       L1    11  1.00

> <Gold.PLP.Chemscore.Internal.Correction>
0.1107

> <Gold.Rescore>
     Score         DG    S(hbond)    S(metal)    S(lipo)     H(rot)  DE(clash)    DE(int)     intcor
     16.90     -19.35       1.95        0.00      95.00       1.47       0.07       2.38       ----

> <Gold.Chemscore.Fitness>
16.9005

> <Gold.Chemscore.DG>
-19.3530

> <Gold.Chemscore.ZeroCoef>
-5.4800

> <Gold.Chemscore.Hbond>
1.9496

> <Gold.Chemscore.Metal>
0.0000

> <Gold.Chemscore.Lipo>
94.9970

> <Gold.Chemscore.Internal_Hbond>
0.0000

> <Gold.Chemscore.DEClash>
0.0709

> <Gold.Chemscore.DEInternal>
2.3817

> <Gold.Chemscore.Rot>
1.4662

> <Gold.Chemscore.Internal.Correction>
   9.000000E+99

> <Gold.Chemscore.Hbonds>
donor molecule, donor type, donor heavy atom, donor atom, acceptor molecule, acceptor atom, score
      L1  H     4    18       P1  7957  0.92
      P1  H  7997  8010       L1    11  0.94

> <Gold.Chemscore.Hbond.Weighted>
-6.5118

> <Gold.Chemscore.Metal.Weighted>
-0.0000

> <Gold.Chemscore.Lipo.Weighted>
-11.1146

> <Gold.Chemscore.Internal_Hbond.Weighted>
0.0000

> <Gold.Chemscore.DEClash.Weighted>
0.0709

> <Gold.Chemscore.DEInternal.Weighted>
2.3817

> <Gold.Chemscore.Rot.Weighted>
3.7534

> <Gold.Chemscore.Internal.Correction.Weighted>
   9.000000E+99

> <Gold.Protein.RotatedTorsions>
[ 6907 6896 6895 6894 ] final   22.94 input  -60.11 | X-H torsion
[ 7974 7965 7964 7962 ] final   -8.48 input  175.53 | X-H torsion
[ 8008 7997 7996 7995 ] final   56.14 input   59.86 | X-H torsion
[ 10167 10162 10161 10158 ] final  118.15 input  -65.29 | X-H torsion
[ 10718 10713 10712 10709 ] final  -32.67 input   66.30 | X-H torsion
[ 10763 10752 10751 10750 ] final  148.14 input  -60.55 | X-H torsion
[ 11005 11000 10999 10996 ] final -142.05 input  -57.11 | X-H torsion

> <Gold.Protein.ActiveResidues>
 VAL166  LYS551  ARG553  GLY616  TRP617  ASP618  TYR619  PRO620  LYS621  CYS622 
 ASP623  PHE694  ASN695  SER759  ASP760  ASP761  ALA762  ILE779  LEU786  VAL792 
 PHE793  MET794  SER795  GLU796  ALA797  LYS798  CYS799  TRP800  GLU811  SER814 

> <Gold.Protein.RotatedAtoms>
  151.9348  135.0240  160.0531 H   0  0  0  0  0  0  0  0  0  0  0  0  # atno 6907 bound_to 6896
  152.2087  133.4890  159.5106 H   0  0  0  0  0  0  0  0  0  0  0  0  # atno 6908 bound_to 6896
  150.6971  134.1412  159.4148 H   0  0  0  0  0  0  0  0  0  0  0  0  # atno 6909 bound_to 6896
  146.2279  140.2475  142.8346 H   0  0  0  0  0  0  0  0  0  0  0  0  # atno 7974 bound_to 7965
  155.5126  140.3477  155.4391 H   0  0  0  0  0  0  0  0  0  0  0  0  # atno 8008 bound_to 7997
  156.0839  140.1393  156.9705 H   0  0  0  0  0  0  0  0  0  0  0  0  # atno 8009 bound_to 7997
  154.4595  140.0940  156.6830 H   0  0  0  0  0  0  0  0  0  0  0  0  # atno 8010 bound_to 7997
  139.6131  144.7086  151.2800 H   0  0  0  0  0  0  0  0  0  0  0  0  # atno 10167 bound_to 10162
  156.3720  130.4341  149.7537 H   0  0  0  0  0  0  0  0  0  0  0  0  # atno 10718 bound_to 10713
  154.0499  135.2882  155.3342 H   0  0  0  0  0  0  0  0  0  0  0  0  # atno 10763 bound_to 10752
  154.6876  135.5239  153.8350 H   0  0  0  0  0  0  0  0  0  0  0  0  # atno 10764 bound_to 10752
  153.0565  135.6597  154.0696 H   0  0  0  0  0  0  0  0  0  0  0  0  # atno 10765 bound_to 10752
  140.8263  134.2570  157.4877 H   0  0  0  0  0  0  0  0  0  0  0  0  # atno 11005 bound_to 11000
  144.9437  140.8106  143.5614 LP  0  0  0  0  0  0  0  0  0  0  0  0  # atno 17320 bound_to 7965
  145.2429  139.2065  143.4983 LP  0  0  0  0  0  0  0  0  0  0  0  0  # atno 17321 bound_to 7965
  140.7332  143.6800  150.8009 LP  0  0  0  0  0  0  0  0  0  0  0  0  # atno 17342 bound_to 10162
  140.0398  143.5357  152.2723 LP  0  0  0  0  0  0  0  0  0  0  0  0  # atno 17343 bound_to 10162
  156.4661  130.7974  151.2994 LP  0  0  0  0  0  0  0  0  0  0  0  0  # atno 17370 bound_to 10713
  157.7485  131.0050  150.3099 LP  0  0  0  0  0  0  0  0  0  0  0  0  # atno 17371 bound_to 10713
  139.8706  134.9562  156.4231 LP  0  0  0  0  0  0  0  0  0  0  0  0  # atno 17394 bound_to 11000
  140.9045  133.7755  155.9719 LP  0  0  0  0  0  0  0  0  0  0  0  0  # atno 17395 bound_to 11000

$$$$
