AV-unprocessed.smi:3158|AV-procd|sdf|12042|dock1
  -GOLD-   2272017463D 1   1.00000     0.00000
 Structure written by MMmdl.
 40 40  0  0  0  0  0  0  0  0  2 V2000
  152.1615  139.5562  155.1704 C   0  0  0  0  0  0  0  0  0  0  0  0
  151.5206  138.2421  154.7002 C   0  0  0  0  0  0  0  0  0  0  0  0
  149.9864  138.2235  154.8310 C   0  0  1  0  0  0  0  0  0  0  0  0
  149.3191  139.2230  153.8748 C   0  0  0  0  0  0  0  0  0  0  0  0
  149.4762  136.8789  154.5720 N   0  0  0  0  0  0  0  0  0  0  0  0
  148.8308  136.1035  155.4568 C   0  0  0  0  0  0  0  0  0  0  0  0
  148.5710  136.4560  156.6079 O   0  0  0  0  0  0  0  0  0  0  0  0
  148.4050  134.7146  154.9632 C   0  0  2  0  0  0  0  0  0  0  0  0
  149.6372  133.8096  154.8147 C   0  0  0  0  0  0  0  0  0  0  0  0
  147.6889  134.8027  153.6716 N   0  3  0  0  0  0  0  0  0  0  0  0
  147.4224  133.5038  153.0150 C   0  0  0  0  0  0  0  0  0  0  0  0
  147.0487  133.6911  151.5345 C   0  0  0  0  0  0  0  0  0  0  0  0
  145.8158  133.0109  151.1718 N   0  0  0  0  0  0  0  0  0  0  0  0
  145.5821  131.6542  151.0858 C   0  0  0  0  0  0  0  0  0  0  0  0
  144.2735  131.4879  150.7328 C   0  0  0  0  0  0  0  0  0  0  0  0
  143.7767  132.8176  150.6375 C   0  0  0  0  0  0  0  0  0  0  0  0
  144.6995  133.7259  150.9094 N   0  0  0  0  0  0  0  0  0  0  0  0
  153.2401  139.5376  155.0134 H   0  0  0  0  0  0  0  0  0  0  0  0
  151.9874  139.7324  156.2323 H   0  0  0  0  0  0  0  0  0  0  0  0
  151.7608  140.4076  154.6194 H   0  0  0  0  0  0  0  0  0  0  0  0
  151.7925  138.0778  153.6568 H   0  0  0  0  0  0  0  0  0  0  0  0
  151.9511  137.4100  155.2589 H   0  0  0  0  0  0  0  0  0  0  0  0
  149.7404  138.5211  155.8522 H   0  0  0  0  0  0  0  0  0  0  0  0
  149.6686  140.2384  154.0626 H   0  0  0  0  0  0  0  0  0  0  0  0
  148.2354  139.2222  153.9979 H   0  0  0  0  0  0  0  0  0  0  0  0
  149.5368  138.9833  152.8334 H   0  0  0  0  0  0  0  0  0  0  0  0
  149.6383  136.5076  153.6468 H   0  0  0  0  0  0  0  0  0  0  0  0
  147.7358  134.2589  155.6954 H   0  0  0  0  0  0  0  0  0  0  0  0
  150.1730  133.7111  155.7597 H   0  0  0  0  0  0  0  0  0  0  0  0
  150.3372  134.2018  154.0754 H   0  0  0  0  0  0  0  0  0  0  0  0
  149.3497  132.8066  154.4978 H   0  0  0  0  0  0  0  0  0  0  0  0
  146.8083  135.2702  153.8363 H   0  0  0  0  0  0  0  0  0  0  0  0
  148.3133  132.8802  153.0948 H   0  0  0  0  0  0  0  0  0  0  0  0
  146.6242  132.9726  153.5352 H   0  0  0  0  0  0  0  0  0  0  0  0
  146.9444  134.7522  151.3036 H   0  0  0  0  0  0  0  0  0  0  0  0
  147.8461  133.3078  150.8972 H   0  0  0  0  0  0  0  0  0  0  0  0
  146.3571  130.9269  151.2787 H   0  0  0  0  0  0  0  0  0  0  0  0
  143.7488  130.5578  150.5721 H   0  0  0  0  0  0  0  0  0  0  0  0
  142.7795  133.1470  150.3846 H   0  0  0  0  0  0  0  0  0  0  0  0
  148.2394  135.3628  153.0370 H   0  0  0  0  0  0  0  0  0  0  0  0
  1  2  1  0  0  0  0
  1 18  1  0  0  0  0
  1 19  1  0  0  0  0
  1 20  1  0  0  0  0
  2  3  1  0  0  0  0
  2 21  1  0  0  0  0
  2 22  1  0  0  0  0
  3  4  1  0  0  0  0
  3  5  1  0  0  0  0
  3 23  1  0  0  0  0
  4 24  1  0  0  0  0
  4 25  1  0  0  0  0
  4 26  1  0  0  0  0
  5  6  1  0  0  0  0
  5 27  1  0  0  0  0
  6  7  2  0  0  0  0
  6  8  1  0  0  0  0
  8  9  1  0  0  0  0
  8 10  1  0  0  0  0
  8 28  1  0  0  0  0
  9 29  1  0  0  0  0
  9 30  1  0  0  0  0
  9 31  1  0  0  0  0
 10 11  1  0  0  0  0
 10 32  1  0  0  0  0
 10 40  1  0  0  0  0
 11 12  1  0  0  0  0
 11 33  1  0  0  0  0
 11 34  1  0  0  0  0
 12 13  1  0  0  0  0
 12 35  1  0  0  0  0
 12 36  1  0  0  0  0
 13 17  1  0  0  0  0
 13 14  1  0  0  0  0
 14 15  2  0  0  0  0
 14 37  1  0  0  0  0
 15 16  1  0  0  0  0
 15 38  1  0  0  0  0
 16 17  2  0  0  0  0
 16 39  1  0  0  0  0
M  CHG  1  10   1
M  END
> <s_m_source_file>
AV-unprocessed.smi

> <i_m_source_file_index>
3158

> <i_lp_mmshare_version>
43012

> <i_f3d_flags>
0

> <s_epik_input>
W0NIM11bQ0gyXVtDQEhdKFtDSDNdKVtOSF1DKD1PKVtDQEhdKFtDSDNdKVtOSF1bQ0gyXVtDSDJdbjFbY0hdW2NIXVtjSF1uMQ==

> <s_epik_cmdline>
J2VwaWtfcHl0aG9uJywgJy1waCcsICc3LjAnLCAnLXRuJywgJzgnLCAnLW1hJywgJzIwMCcsICctbWV0YWxfYmluZGluZycsICctaW1hZScsICc8aW5maWxlLm1hZT4nLCAnLW9tYWUnLCAnPG91dGZpbGUubWFlPic=

> <r_lp_tautomer_probability>
1

> <r_epik_Ionization_Penalty>
0.20724

> <r_epik_Ionization_Penalty_Charging>
0.207237

> <r_epik_Ionization_Penalty_Neutral>
3.33806e-06

> <r_epik_State_Penalty>
0.197234

> <r_epik_Charging_Adjusted_Penalty>
0.404471

> <i_epik_Tot_Q>
1

> <i_epik_Tot_abs_Q>
1

> <r_epik_Metal_State_Penalty>
0.197524

> <b_epik_Metal_Only>
0

> <s_lp_Force_Field>
OPLS_2005

> <r_lp_Energy>
6.13047

> <b_lp_Chiralities_Consistent>
1

> <s_lp_Variant>
AV-unprocessed.smi:3158-2

> <Gold.Version>
5.8.1

> <Gold.Id.Protein>
6NUR|6NUR_protein|mol2

> <Gold.PLP.Fitness>
45.4535

> <Gold.PLP.PLP>
-32.0490

> <Gold.PLP.part.hbond>
-2.0000

> <Gold.PLP.part.metal>
0.0000

> <Gold.PLP.part.buried>
-3.6697

> <Gold.PLP.part.nonpolar>
-25.3456

> <Gold.PLP.part.repulsive>
0.1639

> <Gold.PLP.ligand.clash>
0.0000

> <Gold.PLP.ligand.torsion>
0.8239

> <Gold.PLP.Chemscore.Hbond>
3.0000

> <Gold.PLP.Chemscore.CHOScore>
1.9863

> <Gold.PLP.Chemscore.Metal>
0.0000

> <Gold.Chemscore.Hbonds>
donor molecule, donor type, donor heavy atom, donor atom, acceptor molecule, acceptor atom, score
      L1  H     5    27       P1  7948  0.98
      L1  H    10    40       P1  7948  2.00
      L1  C    14    37       P1 10747  0.31
      L1  C    16    39       P1 10186  1.00

> <Gold.PLP.Chemscore.Internal.Correction>
0.0934

> <Gold.Rescore>
     Score         DG    S(hbond)    S(metal)    S(lipo)     H(rot)  DE(clash)    DE(int)     intcor
     13.64     -14.55       1.70        0.00      77.48       2.21       0.24       0.67       ----

> <Gold.Chemscore.Fitness>
13.6392

> <Gold.Chemscore.DG>
-14.5487

> <Gold.Chemscore.ZeroCoef>
-5.4800

> <Gold.Chemscore.Hbond>
1.6973

> <Gold.Chemscore.Metal>
0.0000

> <Gold.Chemscore.Lipo>
77.4829

> <Gold.Chemscore.Internal_Hbond>
0.0000

> <Gold.Chemscore.DEClash>
0.2389

> <Gold.Chemscore.DEInternal>
0.6705

> <Gold.Chemscore.Rot>
2.2132

> <Gold.Chemscore.Internal.Correction>
   9.000000E+99

> <Gold.Chemscore.Hbonds>
donor molecule, donor type, donor heavy atom, donor atom, acceptor molecule, acceptor atom, score
      L1  H     5    27       P1  7948  0.56
      L1  H    10    40       P1  7948  0.98

> <Gold.Chemscore.Hbond.Weighted>
-5.6690

> <Gold.Chemscore.Metal.Weighted>
-0.0000

> <Gold.Chemscore.Lipo.Weighted>
-9.0655

> <Gold.Chemscore.Internal_Hbond.Weighted>
0.0000

> <Gold.Chemscore.DEClash.Weighted>
0.2389

> <Gold.Chemscore.DEInternal.Weighted>
0.6705

> <Gold.Chemscore.Rot.Weighted>
5.6658

> <Gold.Chemscore.Internal.Correction.Weighted>
   9.000000E+99

> <Gold.Protein.RotatedTorsions>
[ 6907 6896 6895 6894 ] final   42.81 input  -60.11 | X-H torsion
[ 7974 7965 7964 7962 ] final  137.16 input  175.53 | X-H torsion
[ 8008 7997 7996 7995 ] final -118.42 input   59.86 | X-H torsion
[ 10167 10162 10161 10158 ] final  103.89 input  -65.29 | X-H torsion
[ 10718 10713 10712 10709 ] final -162.02 input   66.30 | X-H torsion
[ 10763 10752 10751 10750 ] final  172.78 input  -60.55 | X-H torsion
[ 11005 11000 10999 10996 ] final  150.56 input  -57.11 | X-H torsion

> <Gold.Protein.ActiveResidues>
 VAL166  LYS551  ARG553  GLY616  TRP617  ASP618  TYR619  PRO620  LYS621  CYS622 
 ASP623  PHE694  ASN695  SER759  ASP760  ASP761  ALA762  ILE779  LEU786  VAL792 
 PHE793  MET794  SER795  GLU796  ALA797  LYS798  CYS799  TRP800  GLU811  SER814 

> <Gold.Protein.RotatedAtoms>
  152.2125  134.8488  160.0495 H   0  0  0  0  0  0  0  0  0  0  0  0  # atno 6907 bound_to 6896
  151.9301  133.3604  159.3936 H   0  0  0  0  0  0  0  0  0  0  0  0  # atno 6908 bound_to 6896
  150.6980  134.4471  159.5363 H   0  0  0  0  0  0  0  0  0  0  0  0  # atno 6909 bound_to 6896
  144.9494  139.4836  143.5533 H   0  0  0  0  0  0  0  0  0  0  0  0  # atno 7974 bound_to 7965
  155.0993  140.0396  157.2692 H   0  0  0  0  0  0  0  0  0  0  0  0  # atno 8008 bound_to 7997
  154.6770  140.2625  155.6922 H   0  0  0  0  0  0  0  0  0  0  0  0  # atno 8009 bound_to 7997
  156.2680  140.2786  156.1301 H   0  0  0  0  0  0  0  0  0  0  0  0  # atno 8010 bound_to 7997
  139.7224  144.7055  151.0852 H   0  0  0  0  0  0  0  0  0  0  0  0  # atno 10167 bound_to 10162
  156.6045  130.8824  151.2922 H   0  0  0  0  0  0  0  0  0  0  0  0  # atno 10718 bound_to 10713
  154.4309  135.2760  155.1913 H   0  0  0  0  0  0  0  0  0  0  0  0  # atno 10763 bound_to 10752
  154.3819  135.6085  153.5799 H   0  0  0  0  0  0  0  0  0  0  0  0  # atno 10764 bound_to 10752
  152.9836  135.5882  154.4621 H   0  0  0  0  0  0  0  0  0  0  0  0  # atno 10765 bound_to 10752
  140.1142  134.8905  157.1979 H   0  0  0  0  0  0  0  0  0  0  0  0  # atno 11005 bound_to 11000
  146.3315  139.8569  142.8863 LP  0  0  0  0  0  0  0  0  0  0  0  0  # atno 17320 bound_to 7965
  145.2867  141.0155  143.3686 LP  0  0  0  0  0  0  0  0  0  0  0  0  # atno 17321 bound_to 7965
  140.7756  143.5149  150.9607 LP  0  0  0  0  0  0  0  0  0  0  0  0  # atno 17342 bound_to 10162
  139.8836  143.7040  152.3154 LP  0  0  0  0  0  0  0  0  0  0  0  0  # atno 17343 bound_to 10162
  157.7271  130.9638  150.1683 LP  0  0  0  0  0  0  0  0  0  0  0  0  # atno 17370 bound_to 10713
  156.2441  130.3694  149.8304 LP  0  0  0  0  0  0  0  0  0  0  0  0  # atno 17371 bound_to 10713
  140.3051  134.3087  155.7280 LP  0  0  0  0  0  0  0  0  0  0  0  0  # atno 17394 bound_to 11000
  141.2137  133.7616  156.9696 LP  0  0  0  0  0  0  0  0  0  0  0  0  # atno 17395 bound_to 11000

$$$$
