AV-unprocessed.smi:2040|AV-procd|sdf|8289|dock1
  -GOLD-   2272010553D 1   1.00000     0.00000
 Structure written by MMmdl.
 38 39  0  0  0  0  0  0  0  0  1 V2000
  149.8456  142.6260  154.6707 C   0  0  0  0  0  0  0  0  0  0  0  0
  149.6580  141.1932  154.2679 C   0  0  0  0  0  0  0  0  0  0  0  0
  148.4878  140.5768  153.7363 C   0  0  0  0  0  0  0  0  0  0  0  0
  148.8852  139.2799  153.5585 C   0  0  0  0  0  0  0  0  0  0  0  0
  148.1732  138.2247  153.0810 N   0  0  0  0  0  0  0  0  0  0  0  0
  146.8586  137.9728  153.2044 C   0  0  0  0  0  0  0  0  0  0  0  0
  146.0425  138.7012  153.7690 O   0  0  0  0  0  0  0  0  0  0  0  0
  146.5369  136.8084  152.6223 N   0  0  0  0  0  0  0  0  0  0  0  0
  145.2007  136.2177  152.5730 C   0  0  1  0  0  0  0  0  0  0  0  0
  144.1668  137.3208  152.3003 C   0  0  0  0  0  0  0  0  0  0  0  0
  145.1592  135.1073  151.5054 C   0  0  1  0  0  0  0  0  0  0  0  0
  146.1048  133.9330  151.7724 C   0  0  0  0  0  0  0  0  0  0  0  0
  145.4251  132.8125  151.0204 C   0  0  0  0  0  0  0  0  0  0  0  0
  143.9549  133.1065  151.2970 C   0  0  0  0  0  0  0  0  0  0  0  0
  143.8599  134.5214  151.4403 O   0  0  0  0  0  0  0  0  0  0  0  0
  150.1955  139.1563  153.9632 N   0  0  0  0  0  0  0  0  0  0  0  0
  151.0508  137.9856  153.9686 C   0  0  0  0  0  0  0  0  0  0  0  0
  150.6703  140.3431  154.3991 N   0  0  0  0  0  0  0  0  0  0  0  0
  148.9136  143.1850  154.5837 H   0  0  0  0  0  0  0  0  0  0  0  0
  150.5867  143.1168  154.0398 H   0  0  0  0  0  0  0  0  0  0  0  0
  150.1825  142.7032  155.7048 H   0  0  0  0  0  0  0  0  0  0  0  0
  147.5291  141.0285  153.5307 H   0  0  0  0  0  0  0  0  0  0  0  0
  148.7101  137.5409  152.5686 H   0  0  0  0  0  0  0  0  0  0  0  0
  147.2763  136.2814  152.1814 H   0  0  0  0  0  0  0  0  0  0  0  0
  144.9625  135.7603  153.5349 H   0  0  0  0  0  0  0  0  0  0  0  0
  143.1544  136.9165  152.2842 H   0  0  0  0  0  0  0  0  0  0  0  0
  144.3462  137.8060  151.3405 H   0  0  0  0  0  0  0  0  0  0  0  0
  144.1993  138.0889  153.0738 H   0  0  0  0  0  0  0  0  0  0  0  0
  145.3825  135.5223  150.5208 H   0  0  0  0  0  0  0  0  0  0  0  0
  147.1238  134.1192  151.4319 H   0  0  0  0  0  0  0  0  0  0  0  0
  146.1379  133.6996  152.8379 H   0  0  0  0  0  0  0  0  0  0  0  0
  145.6331  132.8972  149.9529 H   0  0  0  0  0  0  0  0  0  0  0  0
  145.7326  131.8209  151.3533 H   0  0  0  0  0  0  0  0  0  0  0  0
  143.3010  132.7405  150.5053 H   0  0  0  0  0  0  0  0  0  0  0  0
  143.6442  132.6435  152.2343 H   0  0  0  0  0  0  0  0  0  0  0  0
  151.2154  137.6492  152.9448 H   0  0  0  0  0  0  0  0  0  0  0  0
  150.5736  137.1853  154.5349 H   0  0  0  0  0  0  0  0  0  0  0  0
  152.0144  138.2150  154.4256 H   0  0  0  0  0  0  0  0  0  0  0  0
  1  2  1  0  0  0  0
  1 19  1  0  0  0  0
  1 20  1  0  0  0  0
  1 21  1  0  0  0  0
  2 18  2  0  0  0  0
  2  3  1  0  0  0  0
  3  4  2  0  0  0  0
  3 22  1  0  0  0  0
  4  5  1  0  0  0  0
  4 16  1  0  0  0  0
  5  6  1  0  0  0  0
  5 23  1  0  0  0  0
  6  7  2  0  0  0  0
  6  8  1  0  0  0  0
  8  9  1  0  0  0  0
  8 24  1  0  0  0  0
  9 10  1  0  0  0  0
  9 11  1  0  0  0  0
  9 25  1  0  0  0  0
 10 26  1  0  0  0  0
 10 27  1  0  0  0  0
 10 28  1  0  0  0  0
 11 15  1  0  0  0  0
 11 12  1  0  0  0  0
 11 29  1  0  0  0  0
 12 13  1  0  0  0  0
 12 30  1  0  0  0  0
 12 31  1  0  0  0  0
 13 14  1  0  0  0  0
 13 32  1  0  0  0  0
 13 33  1  0  0  0  0
 14 15  1  0  0  0  0
 14 34  1  0  0  0  0
 14 35  1  0  0  0  0
 16 17  1  0  0  0  0
 16 18  1  0  0  0  0
 17 36  1  0  0  0  0
 17 37  1  0  0  0  0
 17 38  1  0  0  0  0
M  END
> <s_m_source_file>
AV-unprocessed.smi

> <i_m_source_file_index>
2040

> <i_lp_mmshare_version>
43012

> <i_f3d_flags>
0

> <s_epik_input>
W0NIM11jMVtjSF1jKG4objEpW0NIM10pW05IXUMoPU8pW05IXVtDQEhdKFtDSDNdKVtDQEBIXTJbQ0gyXVtDSDJdW0NIMl1PMg==

> <s_epik_cmdline>
J2VwaWtfcHl0aG9uJywgJy1waCcsICc3LjAnLCAnLXRuJywgJzgnLCAnLW1hJywgJzIwMCcsICctbWV0YWxfYmluZGluZycsICctaW1hZScsICc8aW5maWxlLm1hZT4nLCAnLW9tYWUnLCAnPG91dGZpbGUubWFlPic=

> <r_lp_tautomer_probability>
1

> <r_epik_Ionization_Penalty>
9.09088e-05

> <r_epik_Ionization_Penalty_Charging>
0

> <r_epik_Ionization_Penalty_Neutral>
9.09088e-05

> <r_epik_State_Penalty>
-0

> <r_epik_Charging_Adjusted_Penalty>
0

> <i_epik_Tot_Q>
0

> <i_epik_Tot_abs_Q>
0

> <r_epik_Metal_State_Penalty>
-0

> <b_epik_Metal_Only>
0

> <s_lp_Force_Field>
OPLS_2005

> <r_lp_Energy>
18.8774

> <b_lp_Chiralities_Consistent>
1

> <s_lp_Variant>
AV-unprocessed.smi:2040-4

> <Gold.Version>
5.8.1

> <Gold.Id.Protein>
6NUR|6NUR_protein|mol2

> <Gold.PLP.Fitness>
36.0556

> <Gold.PLP.PLP>
-28.1074

> <Gold.PLP.part.hbond>
-3.3269

> <Gold.PLP.part.metal>
0.0000

> <Gold.PLP.part.buried>
2.0628

> <Gold.PLP.part.nonpolar>
-27.1227

> <Gold.PLP.part.repulsive>
0.4021

> <Gold.PLP.ligand.clash>
0.0000

> <Gold.PLP.ligand.torsion>
0.4578

> <Gold.PLP.Chemscore.Hbond>
2.9500

> <Gold.PLP.Chemscore.CHOScore>
0.0000

> <Gold.PLP.Chemscore.Metal>
0.0000

> <Gold.Chemscore.Hbonds>
donor molecule, donor type, donor heavy atom, donor atom, acceptor molecule, acceptor atom, score
      L1  H     5    23       P1  7948  0.88
      L1  H     8    24       P1  7948  0.91
      P1  H  7989  7998       L1    18  0.71

> <Gold.PLP.Chemscore.Internal.Correction>
0.0138

> <Gold.Rescore>
     Score         DG    S(hbond)    S(metal)    S(lipo)     H(rot)  DE(clash)    DE(int)     intcor
     13.55     -15.54       1.92        0.00      58.07       1.23       0.38       1.62       ----

> <Gold.Chemscore.Fitness>
13.5477

> <Gold.Chemscore.DG>
-15.5403

> <Gold.Chemscore.ZeroCoef>
-5.4800

> <Gold.Chemscore.Hbond>
1.9236

> <Gold.Chemscore.Metal>
0.0000

> <Gold.Chemscore.Lipo>
58.0661

> <Gold.Chemscore.Internal_Hbond>
0.0000

> <Gold.Chemscore.DEClash>
0.3750

> <Gold.Chemscore.DEInternal>
1.6176

> <Gold.Chemscore.Rot>
1.2338

> <Gold.Chemscore.Internal.Correction>
   9.000000E+99

> <Gold.Chemscore.Hbonds>
donor molecule, donor type, donor heavy atom, donor atom, acceptor molecule, acceptor atom, score
      L1  H     5    23       P1  7948  0.85
      L1  H     8    24       P1  7948  0.90
      P1  H  7989  7998       L1    18  0.19

> <Gold.Chemscore.Hbond.Weighted>
-6.4250

> <Gold.Chemscore.Metal.Weighted>
-0.0000

> <Gold.Chemscore.Lipo.Weighted>
-6.7937

> <Gold.Chemscore.Internal_Hbond.Weighted>
0.0000

> <Gold.Chemscore.DEClash.Weighted>
0.3750

> <Gold.Chemscore.DEInternal.Weighted>
1.6176

> <Gold.Chemscore.Rot.Weighted>
3.1584

> <Gold.Chemscore.Internal.Correction.Weighted>
   9.000000E+99

> <Gold.Protein.RotatedTorsions>
[ 6907 6896 6895 6894 ] final   74.41 input  -60.11 | X-H torsion
[ 7974 7965 7964 7962 ] final  170.39 input  175.53 | X-H torsion
[ 8008 7997 7996 7995 ] final   70.62 input   59.86 | X-H torsion
[ 10167 10162 10161 10158 ] final    1.64 input  -65.29 | X-H torsion
[ 10718 10713 10712 10709 ] final   47.16 input   66.30 | X-H torsion
[ 10763 10752 10751 10750 ] final  -56.67 input  -60.55 | X-H torsion
[ 11005 11000 10999 10996 ] final   68.14 input  -57.11 | X-H torsion

> <Gold.Protein.ActiveResidues>
 VAL166  LYS551  ARG553  GLY616  TRP617  ASP618  TYR619  PRO620  LYS621  CYS622 
 ASP623  PHE694  ASN695  SER759  ASP760  ASP761  ALA762  ILE779  LEU786  VAL792 
 PHE793  MET794  SER795  GLU796  ALA797  LYS798  CYS799  TRP800  GLU811  SER814 

> <Gold.Protein.RotatedAtoms>
  152.4974  134.4275  159.9500 H   0  0  0  0  0  0  0  0  0  0  0  0  # atno 6907 bound_to 6896
  151.4251  133.3680  159.2769 H   0  0  0  0  0  0  0  0  0  0  0  0  # atno 6908 bound_to 6896
  150.9195  134.8635  159.7539 H   0  0  0  0  0  0  0  0  0  0  0  0  # atno 6909 bound_to 6896
  144.7325  139.9195  143.6419 H   0  0  0  0  0  0  0  0  0  0  0  0  # atno 7974 bound_to 7965
  155.7416  140.3490  155.5107 H   0  0  0  0  0  0  0  0  0  0  0  0  # atno 8008 bound_to 7997
  155.9089  140.1047  157.1316 H   0  0  0  0  0  0  0  0  0  0  0  0  # atno 8009 bound_to 7997
  154.4053  140.1271  156.4518 H   0  0  0  0  0  0  0  0  0  0  0  0  # atno 8010 bound_to 7997
  140.6673  143.7144  150.7852 H   0  0  0  0  0  0  0  0  0  0  0  0  # atno 10167 bound_to 10162
  157.4556  130.8165  149.7833 H   0  0  0  0  0  0  0  0  0  0  0  0  # atno 10718 bound_to 10713
  154.2102  135.6396  153.5113 H   0  0  0  0  0  0  0  0  0  0  0  0  # atno 10763 bound_to 10752
  152.9991  135.5472  154.6223 H   0  0  0  0  0  0  0  0  0  0  0  0  # atno 10764 bound_to 10752
  154.5657  135.2912  155.0849 H   0  0  0  0  0  0  0  0  0  0  0  0  # atno 10765 bound_to 10752
  139.9729  134.6871  156.0412 H   0  0  0  0  0  0  0  0  0  0  0  0  # atno 11005 bound_to 11000
  146.0940  139.3931  143.0388 LP  0  0  0  0  0  0  0  0  0  0  0  0  # atno 17320 bound_to 7965
  145.7671  140.9912  143.1169 LP  0  0  0  0  0  0  0  0  0  0  0  0  # atno 17321 bound_to 7965
  140.0824  143.4956  152.2523 LP  0  0  0  0  0  0  0  0  0  0  0  0  # atno 17342 bound_to 10162
  139.5927  144.7556  151.3362 LP  0  0  0  0  0  0  0  0  0  0  0  0  # atno 17343 bound_to 10162
  156.0006  130.3882  150.2622 LP  0  0  0  0  0  0  0  0  0  0  0  0  # atno 17370 bound_to 10713
  157.0797  131.0140  151.3161 LP  0  0  0  0  0  0  0  0  0  0  0  0  # atno 17371 bound_to 10713
  141.1407  133.6565  156.3723 LP  0  0  0  0  0  0  0  0  0  0  0  0  # atno 17394 bound_to 11000
  140.5256  134.6262  157.5333 LP  0  0  0  0  0  0  0  0  0  0  0  0  # atno 17395 bound_to 11000

$$$$
