AV-unprocessed.smi:1634|AV-procd|sdf|6538|dock7
  -GOLD-   22720 7223D 1   1.00000     0.00000
 Structure written by MMmdl.
 37 37  0  0  0  0  0  0  0  0  2 V2000
  144.7806  143.0192  156.7683 C   0  0  0  0  0  0  0  0  0  0  0  0
  145.1494  143.7140  155.4492 C   0  0  0  0  0  0  0  0  0  0  0  0
  143.9710  144.5494  154.9243 C   0  0  0  0  0  0  0  0  0  0  0  0
  145.6256  142.6928  154.4038 C   0  0  0  0  0  0  0  0  0  0  0  0
  146.7848  142.0261  154.8929 O   0  0  0  0  0  0  0  0  0  0  0  0
  147.6855  141.5500  153.8961 C   0  0  2  0  0  0  0  0  0  0  0  0
  147.1514  140.1995  153.3963 C   0  0  0  0  0  0  0  0  0  0  0  0
  149.1013  141.4108  154.4790 C   0  0  0  0  0  0  0  0  0  0  0  0
  150.0181  141.0294  153.7517 O   0  0  0  0  0  0  0  0  0  0  0  0
  149.2117  141.6999  155.7906 N   0  0  0  0  0  0  0  0  0  0  0  0
  150.3364  141.6657  156.6330 C   0  0  0  0  0  0  0  0  0  0  0  0
  150.6427  142.6054  157.5705 C   0  0  0  0  0  0  0  0  0  0  0  0
  151.8264  142.5045  158.4158 C   0  0  0  0  0  0  0  0  0  0  0  0
  152.2285  143.5363  159.4536 C   0  0  0  0  0  0  0  0  0  0  0  0
  153.3226  143.1354  160.1000 F   0  0  0  0  0  0  0  0  0  0  0  0
  152.5008  144.7011  158.8658 F   0  0  0  0  0  0  0  0  0  0  0  0
  151.2595  143.7322  160.3481 F   0  0  0  0  0  0  0  0  0  0  0  0
  152.5641  141.3673  158.1548 C   0  0  0  0  0  0  0  0  0  0  0  0
  152.3250  140.3852  157.2588 N   0  5  0  0  0  0  0  0  0  0  0  0
  151.2187  140.4910  156.4698 C   0  0  0  0  0  0  0  0  0  0  0  0
  150.9424  139.6327  155.6310 O   0  0  0  0  0  0  0  0  0  0  0  0
  143.9555  142.3196  156.6297 H   0  0  0  0  0  0  0  0  0  0  0  0
  144.4791  143.7444  157.5248 H   0  0  0  0  0  0  0  0  0  0  0  0
  145.6267  142.4601  157.1690 H   0  0  0  0  0  0  0  0  0  0  0  0
  145.9775  144.3930  155.6563 H   0  0  0  0  0  0  0  0  0  0  0  0
  143.1113  143.9197  154.6932 H   0  0  0  0  0  0  0  0  0  0  0  0
  144.2403  145.0887  154.0156 H   0  0  0  0  0  0  0  0  0  0  0  0
  143.6540  145.2886  155.6604 H   0  0  0  0  0  0  0  0  0  0  0  0
  144.8417  141.9570  154.2191 H   0  0  0  0  0  0  0  0  0  0  0  0
  145.8245  143.1993  153.4584 H   0  0  0  0  0  0  0  0  0  0  0  0
  147.6947  142.2454  153.0542 H   0  0  0  0  0  0  0  0  0  0  0  0
  147.8111  139.7666  152.6435 H   0  0  0  0  0  0  0  0  0  0  0  0
  146.1677  140.3187  152.9417 H   0  0  0  0  0  0  0  0  0  0  0  0
  147.0524  139.4801  154.2103 H   0  0  0  0  0  0  0  0  0  0  0  0
  148.3539  141.9489  156.2619 H   0  0  0  0  0  0  0  0  0  0  0  0
  150.0058  143.4588  157.7289 H   0  0  0  0  0  0  0  0  0  0  0  0
  153.4872  141.2291  158.7577 H   0  0  0  0  0  0  0  0  0  0  0  0
  1  2  1  0  0  0  0
  1 22  1  0  0  0  0
  1 23  1  0  0  0  0
  1 24  1  0  0  0  0
  2  3  1  0  0  0  0
  2  4  1  0  0  0  0
  2 25  1  0  0  0  0
  3 26  1  0  0  0  0
  3 27  1  0  0  0  0
  3 28  1  0  0  0  0
  4  5  1  0  0  0  0
  4 29  1  0  0  0  0
  4 30  1  0  0  0  0
  5  6  1  0  0  0  0
  6  7  1  0  0  0  0
  6  8  1  0  0  0  0
  6 31  1  0  0  0  0
  7 32  1  0  0  0  0
  7 33  1  0  0  0  0
  7 34  1  0  0  0  0
  8  9  2  0  0  0  0
  8 10  1  0  0  0  0
 10 11  1  0  0  0  0
 10 35  1  0  0  0  0
 11 20  1  0  0  0  0
 11 12  2  0  0  0  0
 12 13  1  0  0  0  0
 12 36  1  0  0  0  0
 13 14  1  0  0  0  0
 13 18  2  0  0  0  0
 14 15  1  0  0  0  0
 14 16  1  0  0  0  0
 14 17  1  0  0  0  0
 18 19  1  0  0  0  0
 18 37  1  0  0  0  0
 19 20  1  0  0  0  0
 20 21  2  0  0  0  0
M  CHG  1  19  -1
M  END
> <s_m_source_file>
AV-unprocessed.smi

> <i_m_source_file_index>
1634

> <i_lp_mmshare_version>
43012

> <i_f3d_flags>
0

> <s_epik_input>
W0NIM11bQ0hdKFtDSDNdKVtDSDJdT1tDQEhdKFtDSDNdKUMoPU8pW05IXWMxW2NIXWMoQyhGKShGKUYpW2NIXVtuSF1jMT1P

> <s_epik_cmdline>
J2VwaWtfcHl0aG9uJywgJy1waCcsICc3LjAnLCAnLXRuJywgJzgnLCAnLW1hJywgJzIwMCcsICctbWV0YWxfYmluZGluZycsICctaW1hZScsICc8aW5maWxlLm1hZT4nLCAnLW9tYWUnLCAnPG91dGZpbGUubWFlPic=

> <r_epik_Ionization_Penalty>
2.55349

> <r_epik_Ionization_Penalty_Charging>
0.0582825

> <r_epik_Ionization_Penalty_Neutral>
2.49521

> <r_epik_State_Penalty>
2.65983

> <r_epik_Charging_Adjusted_Penalty>
2.71812

> <i_epik_Tot_Q>
-1

> <i_epik_Tot_abs_Q>
1

> <r_epik_Metal_State_Penalty>
0.516727

> <b_epik_Metal_Only>
0

> <s_lp_Force_Field>
OPLS_2005

> <r_lp_Energy>
22.0513

> <b_lp_Chiralities_Consistent>
1

> <s_lp_Variant>
AV-unprocessed.smi:1634-3

> <Gold.Version>
5.8.1

> <Gold.Id.Protein>
6NUR|6NUR_protein|mol2

> <Gold.PLP.Fitness>
43.4641

> <Gold.PLP.PLP>
-38.5756

> <Gold.PLP.part.hbond>
-2.8850

> <Gold.PLP.part.metal>
0.0000

> <Gold.PLP.part.buried>
-3.3129

> <Gold.PLP.part.nonpolar>
-33.0464

> <Gold.PLP.part.repulsive>
2.0072

> <Gold.PLP.ligand.clash>
0.5117

> <Gold.PLP.ligand.torsion>
0.8124

> <Gold.PLP.Chemscore.Hbond>
2.3148

> <Gold.PLP.Chemscore.CHOScore>
0.0000

> <Gold.PLP.Chemscore.Metal>
0.0000

> <Gold.Chemscore.Hbonds>
donor molecule, donor type, donor heavy atom, donor atom, acceptor molecule, acceptor atom, score
      P1  H  7989  7998       L1     9  0.35
      P1  H  7997  8009       L1    19  1.14
      P1  H  8011  8017       L1     9  0.78

> <Gold.PLP.Chemscore.Internal.Correction>
0.0807

> <Gold.Rescore>
     Score         DG    S(hbond)    S(metal)    S(lipo)     H(rot)  DE(clash)    DE(int)     intcor
      9.87     -13.61       0.93        0.00      81.28       1.75       0.05       3.69       ----

> <Gold.Chemscore.Fitness>
9.8671

> <Gold.Chemscore.DG>
-13.6094

> <Gold.Chemscore.ZeroCoef>
-5.4800

> <Gold.Chemscore.Hbond>
0.9308

> <Gold.Chemscore.Metal>
0.0000

> <Gold.Chemscore.Lipo>
81.2850

> <Gold.Chemscore.Internal_Hbond>
0.0000

> <Gold.Chemscore.DEClash>
0.0520

> <Gold.Chemscore.DEInternal>
3.6903

> <Gold.Chemscore.Rot>
1.7538

> <Gold.Chemscore.Internal.Correction>
   9.000000E+99

> <Gold.Chemscore.Hbonds>
donor molecule, donor type, donor heavy atom, donor atom, acceptor molecule, acceptor atom, score
      P1  H  7989  7998       L1     9  0.36
      P1  H  7997  8009       L1    19  0.09
      P1  H  8011  8017       L1     9  0.15

> <Gold.Chemscore.Hbond.Weighted>
-3.1089

> <Gold.Chemscore.Metal.Weighted>
-0.0000

> <Gold.Chemscore.Lipo.Weighted>
-9.5103

> <Gold.Chemscore.Internal_Hbond.Weighted>
0.0000

> <Gold.Chemscore.DEClash.Weighted>
0.0520

> <Gold.Chemscore.DEInternal.Weighted>
3.6903

> <Gold.Chemscore.Rot.Weighted>
4.4898

> <Gold.Chemscore.Internal.Correction.Weighted>
   9.000000E+99

> <Gold.Protein.RotatedTorsions>
[ 6907 6896 6895 6894 ] final  -17.81 input  -60.11 | X-H torsion
[ 7974 7965 7964 7962 ] final   18.83 input  175.53 | X-H torsion
[ 8008 7997 7996 7995 ] final -179.47 input   59.86 | X-H torsion
[ 10167 10162 10161 10158 ] final -122.60 input  -65.29 | X-H torsion
[ 10718 10713 10712 10709 ] final  -10.39 input   66.30 | X-H torsion
[ 10763 10752 10751 10750 ] final  -66.49 input  -60.55 | X-H torsion
[ 11005 11000 10999 10996 ] final   39.53 input  -57.11 | X-H torsion

> <Gold.Protein.ActiveResidues>
 VAL166  LYS551  ARG553  GLY616  TRP617  ASP618  TYR619  PRO620  LYS621  CYS622 
 ASP623  PHE694  ASN695  SER759  ASP760  ASP761  ALA762  ILE779  LEU786  VAL792 
 PHE793  MET794  SER795  GLU796  ALA797  LYS798  CYS799  TRP800  GLU811  SER814 

> <Gold.Protein.RotatedAtoms>
  151.2877  135.0732  159.9192 H   0  0  0  0  0  0  0  0  0  0  0  0  # atno 6907 bound_to 6896
  152.5322  133.9965  159.7885 H   0  0  0  0  0  0  0  0  0  0  0  0  # atno 6908 bound_to 6896
  151.0229  133.5809  159.2700 H   0  0  0  0  0  0  0  0  0  0  0  0  # atno 6909 bound_to 6896
  146.2171  139.8401  142.8643 H   0  0  0  0  0  0  0  0  0  0  0  0  # atno 7974 bound_to 7965
  156.0308  140.1281  157.0259 H   0  0  0  0  0  0  0  0  0  0  0  0  # atno 8008 bound_to 7997
  154.4349  140.1050  156.6168 H   0  0  0  0  0  0  0  0  0  0  0  0  # atno 8009 bound_to 7997
  155.5809  140.3468  155.4542 H   0  0  0  0  0  0  0  0  0  0  0  0  # atno 8010 bound_to 7997
  140.0125  143.5427  152.2257 H   0  0  0  0  0  0  0  0  0  0  0  0  # atno 10167 bound_to 10162
  156.6742  130.5018  149.5991 H   0  0  0  0  0  0  0  0  0  0  0  0  # atno 10718 bound_to 10713
  154.3606  135.6117  153.5689 H   0  0  0  0  0  0  0  0  0  0  0  0  # atno 10763 bound_to 10752
  152.9794  135.5814  154.4637 H   0  0  0  0  0  0  0  0  0  0  0  0  # atno 10764 bound_to 10752
  154.4374  135.2849  155.1848 H   0  0  0  0  0  0  0  0  0  0  0  0  # atno 10765 bound_to 10752
  140.2019  134.3860  155.8092 H   0  0  0  0  0  0  0  0  0  0  0  0  # atno 11005 bound_to 11000
  145.2908  141.0166  143.3664 LP  0  0  0  0  0  0  0  0  0  0  0  0  # atno 17320 bound_to 7965
  144.9079  139.4566  143.6601 LP  0  0  0  0  0  0  0  0  0  0  0  0  # atno 17321 bound_to 7965
  139.6195  144.7626  151.2771 LP  0  0  0  0  0  0  0  0  0  0  0  0  # atno 17342 bound_to 10162
  140.7376  143.6674  150.8111 LP  0  0  0  0  0  0  0  0  0  0  0  0  # atno 17343 bound_to 10162
  156.1916  130.6563  151.1067 LP  0  0  0  0  0  0  0  0  0  0  0  0  # atno 17370 bound_to 10713
  157.7066  131.0753  150.6644 LP  0  0  0  0  0  0  0  0  0  0  0  0  # atno 17371 bound_to 10713
  141.2227  133.7098  156.8273 LP  0  0  0  0  0  0  0  0  0  0  0  0  # atno 17394 bound_to 11000
  140.2044  134.8873  157.3205 LP  0  0  0  0  0  0  0  0  0  0  0  0  # atno 17395 bound_to 11000

$$$$
