AV-unprocessed.smi:1830|AV-procd|sdf|7436|dock10
  -GOLD-   22720 9123D 1   1.00000     0.00000
 Structure written by MMmdl.
 53 56  0  0  0  0  0  0  0  0  2 V2000
  146.3495  137.2558  154.6702 O   0  0  0  0  0  0  0  0  0  0  0  0
  145.7081  138.1303  154.0879 C   0  0  0  0  0  0  0  0  0  0  0  0
  144.4821  137.9372  153.5819 N   0  0  0  0  0  0  0  0  0  0  0  0
  143.7455  136.6785  153.6259 C   0  0  0  0  0  0  0  0  0  0  0  0
  143.6264  136.0405  152.2304 C   0  0  2  0  0  0  0  0  0  0  0  0
  143.1117  134.5935  152.3062 C   0  0  0  0  0  0  0  0  0  0  0  0
  143.0391  133.9685  150.9608 N   0  3  2  0  0  0  0  0  0  0  0  0
  142.8363  132.5049  151.0331 C   0  0  0  0  0  0  0  0  0  0  0  0
  144.2288  131.8607  150.9027 C   0  0  0  0  0  0  0  0  0  0  0  0
  145.1941  133.0139  150.6044 C   0  0  0  0  0  0  0  0  0  0  0  0
  144.2735  134.1538  150.1673 C   0  0  2  0  0  0  0  0  0  0  0  0
  144.8603  135.5753  150.2776 C   0  0  0  0  0  0  0  0  0  0  0  0
  144.9152  135.9995  151.6309 O   0  0  0  0  0  0  0  0  0  0  0  0
  146.1384  139.3806  153.8521 N   0  0  0  0  0  0  0  0  0  0  0  0
  147.4044  139.9490  154.1698 C   0  0  0  0  0  0  0  0  0  0  0  0
  148.5961  139.1851  154.1184 C   0  0  0  0  0  0  0  0  0  0  0  0
  149.8230  139.7995  154.4226 C   0  0  0  0  0  0  0  0  0  0  0  0
  149.8161  141.1599  154.7722 C   0  0  0  0  0  0  0  0  0  0  0  0
  148.6890  141.8954  154.8454 N   0  0  0  0  0  0  0  0  0  0  0  0
  147.4959  141.3130  154.5702 C   0  0  0  0  0  0  0  0  0  0  0  0
  146.3456  142.1268  154.6847 N   0  0  0  0  0  0  0  0  0  0  0  0
  146.1888  143.3096  153.8448 C   0  0  0  0  0  0  0  0  0  0  0  0
  145.0828  144.1232  154.5108 C   0  0  0  0  0  0  0  0  0  0  0  0
  145.3374  143.8646  155.9923 C   0  0  0  0  0  0  0  0  0  0  0  0
  145.8459  142.4197  156.0247 C   0  0  0  0  0  0  0  0  0  0  0  0
  144.0304  138.7140  153.1217 H   0  0  0  0  0  0  0  0  0  0  0  0
  144.2037  135.9838  154.3320 H   0  0  0  0  0  0  0  0  0  0  0  0
  142.7506  136.8981  154.0143 H   0  0  0  0  0  0  0  0  0  0  0  0
  142.9482  136.6431  151.6226 H   0  0  0  0  0  0  0  0  0  0  0  0
  143.7719  134.0092  152.9499 H   0  0  0  0  0  0  0  0  0  0  0  0
  142.1215  134.5664  152.7625 H   0  0  0  0  0  0  0  0  0  0  0  0
  142.3147  132.1974  151.9409 H   0  0  0  0  0  0  0  0  0  0  0  0
  142.2155  132.2052  150.1880 H   0  0  0  0  0  0  0  0  0  0  0  0
  144.5180  131.3409  151.8165 H   0  0  0  0  0  0  0  0  0  0  0  0
  144.2328  131.1294  150.0937 H   0  0  0  0  0  0  0  0  0  0  0  0
  145.7319  133.2896  151.5127 H   0  0  0  0  0  0  0  0  0  0  0  0
  145.9337  132.7582  149.8452 H   0  0  0  0  0  0  0  0  0  0  0  0
  144.0117  133.9766  149.1228 H   0  0  0  0  0  0  0  0  0  0  0  0
  145.8632  135.6055  149.8511 H   0  0  0  0  0  0  0  0  0  0  0  0
  144.2574  136.2805  149.7033 H   0  0  0  0  0  0  0  0  0  0  0  0
  145.5396  139.9563  153.2789 H   0  0  0  0  0  0  0  0  0  0  0  0
  148.5879  138.1377  153.8580 H   0  0  0  0  0  0  0  0  0  0  0  0
  150.7466  139.2410  154.3870 H   0  0  0  0  0  0  0  0  0  0  0  0
  150.7383  141.6701  155.0070 H   0  0  0  0  0  0  0  0  0  0  0  0
  147.1075  143.8974  153.8250 H   0  0  0  0  0  0  0  0  0  0  0  0
  145.9323  143.0385  152.8202 H   0  0  0  0  0  0  0  0  0  0  0  0
  145.1155  145.1808  154.2488 H   0  0  0  0  0  0  0  0  0  0  0  0
  144.1057  143.7306  154.2257 H   0  0  0  0  0  0  0  0  0  0  0  0
  146.1182  144.5367  156.3509 H   0  0  0  0  0  0  0  0  0  0  0  0
  144.4525  144.0167  156.6107 H   0  0  0  0  0  0  0  0  0  0  0  0
  145.0207  141.7425  156.2461 H   0  0  0  0  0  0  0  0  0  0  0  0
  146.6117  142.2840  156.7895 H   0  0  0  0  0  0  0  0  0  0  0  0
  142.2661  134.3942  150.4695 H   0  0  0  0  0  0  0  0  0  0  0  0
  1  2  2  0  0  0  0
  2  3  1  0  0  0  0
  2 14  1  0  0  0  0
  3  4  1  0  0  0  0
  3 26  1  0  0  0  0
  4  5  1  0  0  0  0
  4 27  1  0  0  0  0
  4 28  1  0  0  0  0
  5 13  1  0  0  0  0
  5  6  1  0  0  0  0
  5 29  1  0  0  0  0
  6  7  1  0  0  0  0
  6 30  1  0  0  0  0
  6 31  1  0  0  0  0
  7 11  1  0  0  0  0
  7  8  1  0  0  0  0
  7 53  1  0  0  0  0
  8  9  1  0  0  0  0
  8 32  1  0  0  0  0
  8 33  1  0  0  0  0
  9 10  1  0  0  0  0
  9 34  1  0  0  0  0
  9 35  1  0  0  0  0
 10 11  1  0  0  0  0
 10 36  1  0  0  0  0
 10 37  1  0  0  0  0
 11 12  1  0  0  0  0
 11 38  1  0  0  0  0
 12 13  1  0  0  0  0
 12 39  1  0  0  0  0
 12 40  1  0  0  0  0
 14 15  1  0  0  0  0
 14 41  1  0  0  0  0
 15 20  1  0  0  0  0
 15 16  2  0  0  0  0
 16 17  1  0  0  0  0
 16 42  1  0  0  0  0
 17 18  2  0  0  0  0
 17 43  1  0  0  0  0
 18 19  1  0  0  0  0
 18 44  1  0  0  0  0
 19 20  2  0  0  0  0
 20 21  1  0  0  0  0
 21 25  1  0  0  0  0
 21 22  1  0  0  0  0
 22 23  1  0  0  0  0
 22 45  1  0  0  0  0
 22 46  1  0  0  0  0
 23 24  1  0  0  0  0
 23 47  1  0  0  0  0
 23 48  1  0  0  0  0
 24 25  1  0  0  0  0
 24 49  1  0  0  0  0
 24 50  1  0  0  0  0
 25 51  1  0  0  0  0
 25 52  1  0  0  0  0
M  CHG  1   7   1
M  END
> <s_m_source_file>
AV-unprocessed.smi

> <i_m_source_file_index>
1830

> <i_lp_mmshare_version>
43012

> <i_f3d_flags>
0

> <s_epik_input>
W0NIMl0xW0NIMl1bQ0gyXVtDQEhdKE4xMilbQ0gyXU9bQ0BASF0oW0NIMl0yKVtDSDJdW05IXUMoPU8pW05IXWMzW2NIXVtjSF1bY0hdbmMzTjRbQ0gyXVtDSDJdW0NIMl1bQ0gyXTQ=

> <s_epik_cmdline>
J2VwaWtfcHl0aG9uJywgJy1waCcsICc3LjAnLCAnLXRuJywgJzgnLCAnLW1hJywgJzIwMCcsICctbWV0YWxfYmluZGluZycsICctaW1hZScsICc8aW5maWxlLm1hZT4nLCAnLW9tYWUnLCAnPG91dGZpbGUubWFlPic=

> <r_lp_tautomer_probability>
1

> <r_epik_Ionization_Penalty>
0.193547

> <r_epik_Ionization_Penalty_Charging>
0.10673

> <r_epik_Ionization_Penalty_Neutral>
0.0868166

> <r_epik_State_Penalty>
0.173595

> <r_epik_Charging_Adjusted_Penalty>
0.280326

> <i_epik_Tot_Q>
1

> <i_epik_Tot_abs_Q>
1

> <r_epik_Metal_State_Penalty>
0.164683

> <b_epik_Metal_Only>
0

> <s_lp_Force_Field>
OPLS_2005

> <r_lp_Energy>
65.0875

> <b_lp_Chiralities_Consistent>
1

> <s_lp_Variant>
AV-unprocessed.smi:1830-5

> <Gold.Version>
5.8.1

> <Gold.Id.Protein>
6NUR|6NUR_protein|mol2

> <Gold.PLP.Fitness>
51.2322

> <Gold.PLP.PLP>
-39.9585

> <Gold.PLP.part.hbond>
-3.0000

> <Gold.PLP.part.metal>
0.0000

> <Gold.PLP.part.buried>
-2.7346

> <Gold.PLP.part.nonpolar>
-36.1574

> <Gold.PLP.part.repulsive>
3.7471

> <Gold.PLP.ligand.clash>
0.0000

> <Gold.PLP.ligand.torsion>
0.5705

> <Gold.PLP.Chemscore.Hbond>
4.0000

> <Gold.PLP.Chemscore.CHOScore>
0.0289

> <Gold.PLP.Chemscore.Metal>
0.0000

> <Gold.Chemscore.Hbonds>
donor molecule, donor type, donor heavy atom, donor atom, acceptor molecule, acceptor atom, score
      L1  H     3    26       P1 10175  1.00
      L1  H     7    53       P1 10186  2.00
      L1  H    14    41       P1 10175  0.84

> <Gold.PLP.Chemscore.Internal.Correction>
0.3281

> <Gold.Rescore>
     Score         DG    S(hbond)    S(metal)    S(lipo)     H(rot)  DE(clash)    DE(int)     intcor
     19.15     -22.04       2.72        0.00      94.61       1.41       1.48       1.41       ----

> <Gold.Chemscore.Fitness>
19.1519

> <Gold.Chemscore.DG>
-22.0416

> <Gold.Chemscore.ZeroCoef>
-5.4800

> <Gold.Chemscore.Hbond>
2.7226

> <Gold.Chemscore.Metal>
0.0000

> <Gold.Chemscore.Lipo>
94.6095

> <Gold.Chemscore.Internal_Hbond>
0.0000

> <Gold.Chemscore.DEClash>
1.4791

> <Gold.Chemscore.DEInternal>
1.4106

> <Gold.Chemscore.Rot>
1.4067

> <Gold.Chemscore.Internal.Correction>
   9.000000E+99

> <Gold.Chemscore.Hbonds>
donor molecule, donor type, donor heavy atom, donor atom, acceptor molecule, acceptor atom, score
      L1  H     3    26       P1 10175  1.00
      L1  H     7    53       P1 10186  0.33
      L1  H    14    41       P1 10175  0.81

> <Gold.Chemscore.Hbond.Weighted>
-9.0933

> <Gold.Chemscore.Metal.Weighted>
-0.0000

> <Gold.Chemscore.Lipo.Weighted>
-11.0693

> <Gold.Chemscore.Internal_Hbond.Weighted>
0.0000

> <Gold.Chemscore.DEClash.Weighted>
1.4791

> <Gold.Chemscore.DEInternal.Weighted>
1.4106

> <Gold.Chemscore.Rot.Weighted>
3.6011

> <Gold.Chemscore.Internal.Correction.Weighted>
   9.000000E+99

> <Gold.Protein.RotatedTorsions>
[ 6907 6896 6895 6894 ] final  138.29 input  -60.11 | X-H torsion
[ 7974 7965 7964 7962 ] final   56.71 input  175.53 | X-H torsion
[ 8008 7997 7996 7995 ] final  120.20 input   59.86 | X-H torsion
[ 10167 10162 10161 10158 ] final -131.26 input  -65.29 | X-H torsion
[ 10718 10713 10712 10709 ] final   50.60 input   66.30 | X-H torsion
[ 10763 10752 10751 10750 ] final   90.92 input  -60.55 | X-H torsion
[ 11005 11000 10999 10996 ] final  115.70 input  -57.11 | X-H torsion

> <Gold.Protein.ActiveResidues>
 VAL166  LYS551  ARG553  GLY616  TRP617  ASP618  TYR619  PRO620  LYS621  CYS622 
 ASP623  PHE694  ASN695  SER759  ASP760  ASP761  ALA762  ILE779  LEU786  VAL792 
 PHE793  MET794  SER795  GLU796  ALA797  LYS798  CYS799  TRP800  GLU811  SER814 

> <Gold.Protein.RotatedAtoms>
  152.2683  133.5359  159.5423 H   0  0  0  0  0  0  0  0  0  0  0  0  # atno 6907 bound_to 6896
  150.7150  134.0734  159.3881 H   0  0  0  0  0  0  0  0  0  0  0  0  # atno 6908 bound_to 6896
  151.8649  135.0511  160.0524 H   0  0  0  0  0  0  0  0  0  0  0  0  # atno 6909 bound_to 6896
  145.9369  139.3855  143.0387 H   0  0  0  0  0  0  0  0  0  0  0  0  # atno 7974 bound_to 7965
  156.2631  140.2836  156.1112 H   0  0  0  0  0  0  0  0  0  0  0  0  # atno 8008 bound_to 7997
  155.1255  140.0393  157.2779 H   0  0  0  0  0  0  0  0  0  0  0  0  # atno 8009 bound_to 7997
  154.6638  140.2572  155.7086 H   0  0  0  0  0  0  0  0  0  0  0  0  # atno 8010 bound_to 7997
  139.9208  143.6385  152.2554 H   0  0  0  0  0  0  0  0  0  0  0  0  # atno 10167 bound_to 10162
  157.4900  130.8370  149.8191 H   0  0  0  0  0  0  0  0  0  0  0  0  # atno 10718 bound_to 10713
  153.2027  135.4416  155.0286 H   0  0  0  0  0  0  0  0  0  0  0  0  # atno 10763 bound_to 10752
  154.8156  135.3314  154.7187 H   0  0  0  0  0  0  0  0  0  0  0  0  # atno 10764 bound_to 10752
  153.7631  135.6990  153.4977 H   0  0  0  0  0  0  0  0  0  0  0  0  # atno 10765 bound_to 10752
  139.9018  134.9587  156.7085 H   0  0  0  0  0  0  0  0  0  0  0  0  # atno 11005 bound_to 11000
  145.8351  140.9610  143.0828 LP  0  0  0  0  0  0  0  0  0  0  0  0  # atno 17320 bound_to 7965
  144.6773  140.0213  143.7483 LP  0  0  0  0  0  0  0  0  0  0  0  0  # atno 17321 bound_to 7965
  139.6863  144.7651  151.1517 LP  0  0  0  0  0  0  0  0  0  0  0  0  # atno 17342 bound_to 10162
  140.7663  143.5652  150.9055 LP  0  0  0  0  0  0  0  0  0  0  0  0  # atno 17343 bound_to 10162
  156.0168  130.3810  150.2086 LP  0  0  0  0  0  0  0  0  0  0  0  0  # atno 17370 bound_to 10713
  157.0274  130.9997  151.3322 LP  0  0  0  0  0  0  0  0  0  0  0  0  # atno 17371 bound_to 10713
  140.7095  133.9236  155.8075 LP  0  0  0  0  0  0  0  0  0  0  0  0  # atno 17394 bound_to 11000
  141.0311  134.0754  157.4013 LP  0  0  0  0  0  0  0  0  0  0  0  0  # atno 17395 bound_to 11000

$$$$
