AV-unprocessed.smi:1071|AV-procd|sdf|4677|dock10
  -GOLD-   22720 3193D 1   1.00000     0.00000
 Structure written by MMmdl.
 47 48  0  0  0  0  0  0  0  0  2 V2000
  146.7191  136.4848  162.2870 C   0  0  0  0  0  0  0  0  0  0  0  0
  147.4566  135.2750  162.2981 O   0  0  0  0  0  0  0  0  0  0  0  0
  146.6218  134.1327  162.3905 C   0  0  0  0  0  0  0  0  0  0  0  0
  146.1313  133.7560  160.9899 C   0  0  0  0  0  0  0  0  0  0  0  0
  147.2418  133.7739  160.0980 O   0  0  0  0  0  0  0  0  0  0  0  0
  147.5506  134.9544  159.4539 C   0  0  0  0  0  0  0  0  0  0  0  0
  146.5514  135.9408  159.3405 C   0  0  0  0  0  0  0  0  0  0  0  0
  146.8618  137.1477  158.6866 C   0  0  0  0  0  0  0  0  0  0  0  0
  148.1603  137.3401  158.1733 C   0  0  0  0  0  0  0  0  0  0  0  0
  148.4322  138.5692  157.5126 N   0  0  0  0  0  0  0  0  0  0  0  0
  149.5996  139.2333  157.3990 C   0  0  0  0  0  0  0  0  0  0  0  0
  150.6913  138.7716  157.7266 O   0  0  0  0  0  0  0  0  0  0  0  0
  149.4598  140.4231  156.7641 N   0  0  0  0  0  0  0  0  0  0  0  0
  148.3544  141.3243  157.1238 C   0  0  0  0  0  0  0  0  0  0  0  0
  148.8288  142.2890  158.2296 C   0  0  0  0  0  0  0  0  0  0  0  0
  150.0486  143.0323  157.8183 N   0  3  1  0  0  0  0  0  0  0  0  0
  150.5363  143.9456  158.8736 C   0  0  0  0  0  0  0  0  0  0  0  0
  151.1239  142.1557  157.2841 C   0  0  0  0  0  0  0  0  0  0  0  0
  150.5772  141.2056  156.1983 C   0  0  1  0  0  0  0  0  0  0  0  0
  151.6872  140.3716  155.5244 C   0  0  0  0  0  0  0  0  0  0  0  0
  149.0908  136.2826  158.3260 C   0  0  0  0  0  0  0  0  0  0  0  0
  148.7987  135.1225  158.9513 N   0  0  0  0  0  0  0  0  0  0  0  0
  147.4034  137.3305  162.2180 H   0  0  0  0  0  0  0  0  0  0  0  0
  146.1347  136.5987  163.2009 H   0  0  0  0  0  0  0  0  0  0  0  0
  146.0435  136.5274  161.4315 H   0  0  0  0  0  0  0  0  0  0  0  0
  147.1742  133.2992  162.8279 H   0  0  0  0  0  0  0  0  0  0  0  0
  145.7705  134.3424  163.0399 H   0  0  0  0  0  0  0  0  0  0  0  0
  145.6800  132.7627  161.0129 H   0  0  0  0  0  0  0  0  0  0  0  0
  145.3702  134.4672  160.6643 H   0  0  0  0  0  0  0  0  0  0  0  0
  145.5651  135.7745  159.7480 H   0  0  0  0  0  0  0  0  0  0  0  0
  146.1103  137.9173  158.5868 H   0  0  0  0  0  0  0  0  0  0  0  0
  147.6181  139.0624  157.1759 H   0  0  0  0  0  0  0  0  0  0  0  0
  148.0396  141.8864  156.2434 H   0  0  0  0  0  0  0  0  0  0  0  0
  147.4635  140.7936  157.4625 H   0  0  0  0  0  0  0  0  0  0  0  0
  148.0351  142.9976  158.4685 H   0  0  0  0  0  0  0  0  0  0  0  0
  149.0392  141.7295  159.1426 H   0  0  0  0  0  0  0  0  0  0  0  0
  150.8707  143.3882  159.7495 H   0  0  0  0  0  0  0  0  0  0  0  0
  149.7470  144.6304  159.1844 H   0  0  0  0  0  0  0  0  0  0  0  0
  151.3719  144.5437  158.5085 H   0  0  0  0  0  0  0  0  0  0  0  0
  151.9185  142.7774  156.8696 H   0  0  0  0  0  0  0  0  0  0  0  0
  151.5648  141.5805  158.1002 H   0  0  0  0  0  0  0  0  0  0  0  0
  150.1583  141.8205  155.3995 H   0  0  0  0  0  0  0  0  0  0  0  0
  152.3567  141.0182  154.9563 H   0  0  0  0  0  0  0  0  0  0  0  0
  151.2690  139.6455  154.8266 H   0  0  0  0  0  0  0  0  0  0  0  0
  152.3054  139.8357  156.2439 H   0  0  0  0  0  0  0  0  0  0  0  0
  150.0936  136.3346  157.9332 H   0  0  0  0  0  0  0  0  0  0  0  0
  149.7644  143.6178  157.0458 H   0  0  0  0  0  0  0  0  0  0  0  0
  1  2  1  0  0  0  0
  1 23  1  0  0  0  0
  1 24  1  0  0  0  0
  1 25  1  0  0  0  0
  2  3  1  0  0  0  0
  3  4  1  0  0  0  0
  3 26  1  0  0  0  0
  3 27  1  0  0  0  0
  4  5  1  0  0  0  0
  4 28  1  0  0  0  0
  4 29  1  0  0  0  0
  5  6  1  0  0  0  0
  6 22  1  0  0  0  0
  6  7  2  0  0  0  0
  7  8  1  0  0  0  0
  7 30  1  0  0  0  0
  8  9  2  0  0  0  0
  8 31  1  0  0  0  0
  9 10  1  0  0  0  0
  9 21  1  0  0  0  0
 10 11  1  0  0  0  0
 10 32  1  0  0  0  0
 11 12  2  0  0  0  0
 11 13  1  0  0  0  0
 13 19  1  0  0  0  0
 13 14  1  0  0  0  0
 14 15  1  0  0  0  0
 14 33  1  0  0  0  0
 14 34  1  0  0  0  0
 15 16  1  0  0  0  0
 15 35  1  0  0  0  0
 15 36  1  0  0  0  0
 16 17  1  0  0  0  0
 16 18  1  0  0  0  0
 16 47  1  0  0  0  0
 17 37  1  0  0  0  0
 17 38  1  0  0  0  0
 17 39  1  0  0  0  0
 18 19  1  0  0  0  0
 18 40  1  0  0  0  0
 18 41  1  0  0  0  0
 19 20  1  0  0  0  0
 19 42  1  0  0  0  0
 20 43  1  0  0  0  0
 20 44  1  0  0  0  0
 20 45  1  0  0  0  0
 21 22  2  0  0  0  0
 21 46  1  0  0  0  0
M  CHG  1  16   1
M  END
> <s_m_source_file>
AV-unprocessed.smi

> <i_m_source_file_index>
1071

> <i_lp_mmshare_version>
43012

> <i_f3d_flags>
0

> <s_epik_input>
W0NIM11PW0NIMl1bQ0gyXU9jMVtjSF1bY0hdYyhbY0hdbjEpW05IXUMoPU8pTjJbQ0gyXVtDSDJdTihbQ0gzXSlbQ0gyXVtDQEhdMltDSDNd

> <s_epik_cmdline>
J2VwaWtfcHl0aG9uJywgJy1waCcsICc3LjAnLCAnLXRuJywgJzgnLCAnLW1hJywgJzIwMCcsICctbWV0YWxfYmluZGluZycsICctaW1hZScsICc8aW5maWxlLm1hZT4nLCAnLW9tYWUnLCAnPG91dGZpbGUubWFlPic=

> <r_lp_tautomer_probability>
1

> <r_epik_Ionization_Penalty>
0.25455

> <r_epik_Ionization_Penalty_Charging>
0.254506

> <r_epik_Ionization_Penalty_Neutral>
4.43365e-05

> <r_epik_State_Penalty>
0.245983

> <r_epik_Charging_Adjusted_Penalty>
0.500488

> <i_epik_Tot_Q>
1

> <i_epik_Tot_abs_Q>
1

> <r_epik_Metal_State_Penalty>
0.245987

> <b_epik_Metal_Only>
0

> <s_lp_Force_Field>
OPLS_2005

> <r_lp_Energy>
54.998

> <b_lp_Chiralities_Consistent>
1

> <s_lp_Variant>
AV-unprocessed.smi:1071-1

> <Gold.Version>
5.8.1

> <Gold.Id.Protein>
6NUR|6NUR_protein|mol2

> <Gold.PLP.Fitness>
36.9975

> <Gold.PLP.PLP>
-29.7986

> <Gold.PLP.part.hbond>
-2.0000

> <Gold.PLP.part.metal>
0.0000

> <Gold.PLP.part.buried>
-4.5607

> <Gold.PLP.part.nonpolar>
-23.9954

> <Gold.PLP.part.repulsive>
0.1365

> <Gold.PLP.ligand.clash>
0.0000

> <Gold.PLP.ligand.torsion>
1.2100

> <Gold.PLP.Chemscore.Hbond>
3.0000

> <Gold.PLP.Chemscore.CHOScore>
0.0000

> <Gold.PLP.Chemscore.Metal>
0.0000

> <Gold.Chemscore.Hbonds>
donor molecule, donor type, donor heavy atom, donor atom, acceptor molecule, acceptor atom, score
      L1  H    16    47       P1  8028  2.00
      P1  H  6896  6907       L1    22  0.99

> <Gold.PLP.Chemscore.Internal.Correction>
0.6189

> <Gold.Rescore>
     Score         DG    S(hbond)    S(metal)    S(lipo)     H(rot)  DE(clash)    DE(int)     intcor
     10.41     -16.50       1.89        0.00      75.35       1.60       1.33       4.76       ----

> <Gold.Chemscore.Fitness>
10.4141

> <Gold.Chemscore.DG>
-16.4977

> <Gold.Chemscore.ZeroCoef>
-5.4800

> <Gold.Chemscore.Hbond>
1.8889

> <Gold.Chemscore.Metal>
0.0000

> <Gold.Chemscore.Lipo>
75.3526

> <Gold.Chemscore.Internal_Hbond>
0.0000

> <Gold.Chemscore.DEClash>
1.3269

> <Gold.Chemscore.DEInternal>
4.7568

> <Gold.Chemscore.Rot>
1.6045

> <Gold.Chemscore.Internal.Correction>
   9.000000E+99

> <Gold.Chemscore.Hbonds>
donor molecule, donor type, donor heavy atom, donor atom, acceptor molecule, acceptor atom, score
      L1  H    16    47       P1  8028  0.94
      P1  H  6896  6907       L1    22  0.32

> <Gold.Chemscore.Hbond.Weighted>
-6.3089

> <Gold.Chemscore.Metal.Weighted>
-0.0000

> <Gold.Chemscore.Lipo.Weighted>
-8.8163

> <Gold.Chemscore.Internal_Hbond.Weighted>
0.0000

> <Gold.Chemscore.DEClash.Weighted>
1.3269

> <Gold.Chemscore.DEInternal.Weighted>
4.7568

> <Gold.Chemscore.Rot.Weighted>
4.1075

> <Gold.Chemscore.Internal.Correction.Weighted>
   9.000000E+99

> <Gold.Protein.RotatedTorsions>
[ 6907 6896 6895 6894 ] final  -77.33 input  -60.11 | X-H torsion
[ 7974 7965 7964 7962 ] final -113.23 input  175.53 | X-H torsion
[ 8008 7997 7996 7995 ] final -157.55 input   59.86 | X-H torsion
[ 10167 10162 10161 10158 ] final   44.59 input  -65.29 | X-H torsion
[ 10718 10713 10712 10709 ] final   44.47 input   66.30 | X-H torsion
[ 10763 10752 10751 10750 ] final   61.14 input  -60.55 | X-H torsion
[ 11005 11000 10999 10996 ] final -177.93 input  -57.11 | X-H torsion

> <Gold.Protein.ActiveResidues>
 VAL166  LYS551  ARG553  GLY616  TRP617  ASP618  TYR619  PRO620  LYS621  CYS622 
 ASP623  PHE694  ASN695  SER759  ASP760  ASP761  ALA762  ILE779  LEU786  VAL792 
 PHE793  MET794  SER795  GLU796  ALA797  LYS798  CYS799  TRP800  GLU811  SER814 

> <Gold.Protein.RotatedAtoms>
  150.7002  134.4438  159.5304 H   0  0  0  0  0  0  0  0  0  0  0  0  # atno 6907 bound_to 6896
  152.2143  134.8469  160.0503 H   0  0  0  0  0  0  0  0  0  0  0  0  # atno 6908 bound_to 6896
  151.9343  133.3585  159.3979 H   0  0  0  0  0  0  0  0  0  0  0  0  # atno 6909 bound_to 6896
  145.1346  140.8743  143.3738 H   0  0  0  0  0  0  0  0  0  0  0  0  # atno 7974 bound_to 7965
  155.7341  140.0806  157.2275 H   0  0  0  0  0  0  0  0  0  0  0  0  # atno 8008 bound_to 7997
  154.4029  140.1590  156.2597 H   0  0  0  0  0  0  0  0  0  0  0  0  # atno 8009 bound_to 7997
  155.9081  140.3405  155.6080 H   0  0  0  0  0  0  0  0  0  0  0  0  # atno 8010 bound_to 7997
  140.3327  144.2568  150.6166 H   0  0  0  0  0  0  0  0  0  0  0  0  # atno 10167 bound_to 10162
  157.4272  130.8003  149.7569 H   0  0  0  0  0  0  0  0  0  0  0  0  # atno 10718 bound_to 10713
  152.9941  135.5511  154.5986 H   0  0  0  0  0  0  0  0  0  0  0  0  # atno 10763 bound_to 10752
  154.5332  135.2815  155.1164 H   0  0  0  0  0  0  0  0  0  0  0  0  # atno 10764 bound_to 10752
  154.2470  135.6406  153.5280 H   0  0  0  0  0  0  0  0  0  0  0  0  # atno 10765 bound_to 10752
  140.4354  134.6480  157.4732 H   0  0  0  0  0  0  0  0  0  0  0  0  # atno 11005 bound_to 11000
  145.0598  139.3114  143.5886 LP  0  0  0  0  0  0  0  0  0  0  0  0  # atno 17320 bound_to 7965
  146.3511  140.0036  142.8673 LP  0  0  0  0  0  0  0  0  0  0  0  0  # atno 17321 bound_to 7965
  140.5382  143.2229  151.8128 LP  0  0  0  0  0  0  0  0  0  0  0  0  # atno 17342 bound_to 10162
  139.4853  144.4634  151.9513 LP  0  0  0  0  0  0  0  0  0  0  0  0  # atno 17343 bound_to 10162
  155.9900  130.3947  150.3045 LP  0  0  0  0  0  0  0  0  0  0  0  0  # atno 17370 bound_to 10713
  157.1199  131.0244  151.3013 LP  0  0  0  0  0  0  0  0  0  0  0  0  # atno 17371 bound_to 10713
  140.0106  134.6697  155.9387 LP  0  0  0  0  0  0  0  0  0  0  0  0  # atno 17394 bound_to 11000
  141.1728  133.6538  156.4715 LP  0  0  0  0  0  0  0  0  0  0  0  0  # atno 17395 bound_to 11000

$$$$
