AV-unprocessed.smi:1695|AV-procd|sdf|6795|dock7
  -GOLD-   22720 7563D 1   1.00000     0.00000
 Structure written by MMmdl.
 52 54  0  0  0  0  0  0  0  0  3 V2000
  152.1437  144.4469  160.4309 C   0  0  0  0  0  0  0  0  0  0  0  0
  151.9313  143.3145  159.4406 C   0  0  0  0  0  0  0  0  0  0  0  0
  151.1283  143.5551  158.3033 C   0  0  0  0  0  0  0  0  0  0  0  0
  150.9493  142.4992  157.4178 C   0  0  0  0  0  0  0  0  0  0  0  0
  150.2237  142.4197  156.2276 N   0  3  0  0  0  0  0  0  0  0  0  0
  150.3417  141.1679  155.7059 C   0  0  0  0  0  0  0  0  0  0  0  0
  151.1382  140.4470  156.5418 N   0  0  0  0  0  0  0  0  0  0  0  0
  151.5649  139.0440  156.4425 C   0  0  0  0  0  0  0  0  0  0  0  0
  150.3889  138.0725  156.2220 C   0  0  2  0  0  0  0  0  0  0  0  0
  150.5072  137.0360  157.1751 O   0  0  0  0  0  0  0  0  0  0  0  0
  150.3480  137.4478  154.8101 C   0  0  0  0  0  0  0  0  0  0  0  0
  149.0695  136.7393  154.5441 N   0  3  1  0  0  0  0  0  0  0  0  0
  149.0099  135.3823  155.1491 C   0  0  0  0  0  0  0  0  0  0  0  0
  147.7369  134.6398  154.7113 C   0  0  0  0  0  0  0  0  0  0  0  0
  146.4712  135.4405  155.0736 C   0  0  2  0  0  0  0  0  0  0  0  0
  145.2078  134.7253  154.5757 C   0  0  0  0  0  0  0  0  0  0  0  0
  144.9672  133.5036  155.0571 N   0  0  0  0  0  0  0  0  0  0  0  0
  144.4576  135.2678  153.7667 O   0  0  0  0  0  0  0  0  0  0  0  0
  146.5811  136.8557  154.4736 C   0  0  0  0  0  0  0  0  0  0  0  0
  147.8810  137.5497  154.9137 C   0  0  0  0  0  0  0  0  0  0  0  0
  151.5378  141.2364  157.6283 C   0  0  0  0  0  0  0  0  0  0  0  0
  152.3349  140.9842  158.7435 C   0  0  0  0  0  0  0  0  0  0  0  0
  152.5265  142.0449  159.6577 C   0  0  0  0  0  0  0  0  0  0  0  0
  153.3860  141.7963  160.8857 C   0  0  0  0  0  0  0  0  0  0  0  0
  151.6359  145.3574  160.1112 H   0  0  0  0  0  0  0  0  0  0  0  0
  153.2049  144.6757  160.5313 H   0  0  0  0  0  0  0  0  0  0  0  0
  151.7530  144.1752  161.4118 H   0  0  0  0  0  0  0  0  0  0  0  0
  150.6707  144.5188  158.1320 H   0  0  0  0  0  0  0  0  0  0  0  0
  149.8822  140.8109  154.7950 H   0  0  0  0  0  0  0  0  0  0  0  0
  152.3150  138.9436  155.6583 H   0  0  0  0  0  0  0  0  0  0  0  0
  152.0723  138.8030  157.3779 H   0  0  0  0  0  0  0  0  0  0  0  0
  149.4618  138.6070  156.4266 H   0  0  0  0  0  0  0  0  0  0  0  0
  150.0401  136.2765  156.8605 H   0  0  0  0  0  0  0  0  0  0  0  0
  150.4966  138.2049  154.0392 H   0  0  0  0  0  0  0  0  0  0  0  0
  151.1847  136.7536  154.7178 H   0  0  0  0  0  0  0  0  0  0  0  0
  149.8787  134.7948  154.8553 H   0  0  0  0  0  0  0  0  0  0  0  0
  149.0397  135.4649  156.2368 H   0  0  0  0  0  0  0  0  0  0  0  0
  147.7785  134.4623  153.6353 H   0  0  0  0  0  0  0  0  0  0  0  0
  147.7074  133.6574  155.1847 H   0  0  0  0  0  0  0  0  0  0  0  0
  146.4171  135.5297  156.1603 H   0  0  0  0  0  0  0  0  0  0  0  0
  144.1480  132.9930  154.7610 H   0  0  0  0  0  0  0  0  0  0  0  0
  145.6089  133.0934  155.7206 H   0  0  0  0  0  0  0  0  0  0  0  0
  146.5532  136.8085  153.3834 H   0  0  0  0  0  0  0  0  0  0  0  0
  145.7247  137.4593  154.7775 H   0  0  0  0  0  0  0  0  0  0  0  0
  147.8739  137.7200  155.9915 H   0  0  0  0  0  0  0  0  0  0  0  0
  147.9387  138.5290  154.4371 H   0  0  0  0  0  0  0  0  0  0  0  0
  152.7907  140.0207  158.9149 H   0  0  0  0  0  0  0  0  0  0  0  0
  153.7423  140.7664  160.9221 H   0  0  0  0  0  0  0  0  0  0  0  0
  152.8168  141.9825  161.7967 H   0  0  0  0  0  0  0  0  0  0  0  0
  154.2578  142.4509  160.8818 H   0  0  0  0  0  0  0  0  0  0  0  0
  149.0222  136.6171  153.5420 H   0  0  0  0  0  0  0  0  0  0  0  0
  149.6813  143.1621  155.8041 H   0  0  0  0  0  0  0  0  0  0  0  0
  1  2  1  0  0  0  0
  1 25  1  0  0  0  0
  1 26  1  0  0  0  0
  1 27  1  0  0  0  0
  2 23  1  0  0  0  0
  2  3  2  0  0  0  0
  3  4  1  0  0  0  0
  3 28  1  0  0  0  0
  4 21  2  0  0  0  0
  4  5  1  0  0  0  0
  5  6  2  0  0  0  0
  5 52  1  0  0  0  0
  6  7  1  0  0  0  0
  6 29  1  0  0  0  0
  7  8  1  0  0  0  0
  7 21  1  0  0  0  0
  8  9  1  0  0  0  0
  8 30  1  0  0  0  0
  8 31  1  0  0  0  0
  9 10  1  0  0  0  0
  9 11  1  0  0  0  0
  9 32  1  0  0  0  0
 10 33  1  0  0  0  0
 11 12  1  0  0  0  0
 11 34  1  0  0  0  0
 11 35  1  0  0  0  0
 12 20  1  0  0  0  0
 12 13  1  0  0  0  0
 12 51  1  0  0  0  0
 13 14  1  0  0  0  0
 13 36  1  0  0  0  0
 13 37  1  0  0  0  0
 14 15  1  0  0  0  0
 14 38  1  0  0  0  0
 14 39  1  0  0  0  0
 15 16  1  0  0  0  0
 15 19  1  0  0  0  0
 15 40  1  0  0  0  0
 16 17  1  0  0  0  0
 16 18  2  0  0  0  0
 17 41  1  0  0  0  0
 17 42  1  0  0  0  0
 19 20  1  0  0  0  0
 19 43  1  0  0  0  0
 19 44  1  0  0  0  0
 20 45  1  0  0  0  0
 20 46  1  0  0  0  0
 21 22  1  0  0  0  0
 22 23  2  0  0  0  0
 22 47  1  0  0  0  0
 23 24  1  0  0  0  0
 24 48  1  0  0  0  0
 24 49  1  0  0  0  0
 24 50  1  0  0  0  0
M  CHG  1   5   1
M  CHG  1  12   1
M  END
> <s_m_source_file>
AV-unprocessed.smi

> <i_m_source_file_index>
1695

> <i_lp_mmshare_version>
43012

> <i_f3d_flags>
0

> <s_epik_input>
W0NIM11jKFtjSF0xKWMoW0NIM10pW2NIXWMoYzEyKW4oW2NIXW4yKVtDSDJdW0NASF0oW09IXSlbQ0gyXU4zW0NIMl1bQ0gyXVtDSF0oQyg9TylbTkgyXSlbQ0gyXVtDSDJdMw==

> <s_epik_cmdline>
J2VwaWtfcHl0aG9uJywgJy1waCcsICc3LjAnLCAnLXRuJywgJzgnLCAnLW1hJywgJzIwMCcsICctbWV0YWxfYmluZGluZycsICctaW1hZScsICc8aW5maWxlLm1hZT4nLCAnLW9tYWUnLCAnPG91dGZpbGUubWFlPic=

> <r_epik_Ionization_Penalty>
1.20173

> <r_epik_Ionization_Penalty_Charging>
1.20172

> <r_epik_Ionization_Penalty_Neutral>
1.7852e-06

> <r_epik_State_Penalty>
1.28089

> <r_epik_Charging_Adjusted_Penalty>
2.48261

> <i_epik_Tot_Q>
2

> <i_epik_Tot_abs_Q>
2

> <r_epik_Metal_State_Penalty>
1.35652

> <b_epik_Metal_Only>
0

> <s_lp_Force_Field>
OPLS_2005

> <r_lp_Energy>
30.6346

> <b_lp_Chiralities_Consistent>
1

> <s_lp_Variant>
AV-unprocessed.smi:1695-7

> <Gold.Version>
5.8.1

> <Gold.Id.Protein>
6NUR|6NUR_protein|mol2

> <Gold.PLP.Fitness>
52.7633

> <Gold.PLP.PLP>
-39.6823

> <Gold.PLP.part.hbond>
-2.9989

> <Gold.PLP.part.metal>
0.0000

> <Gold.PLP.part.buried>
-5.2938

> <Gold.PLP.part.nonpolar>
-32.3314

> <Gold.PLP.part.repulsive>
0.1807

> <Gold.PLP.ligand.clash>
0.0000

> <Gold.PLP.ligand.torsion>
0.9649

> <Gold.PLP.Chemscore.Hbond>
4.9913

> <Gold.PLP.Chemscore.CHOScore>
0.0000

> <Gold.PLP.Chemscore.Metal>
0.0000

> <Gold.Chemscore.Hbonds>
donor molecule, donor type, donor heavy atom, donor atom, acceptor molecule, acceptor atom, score
      L1  H     5    52       P1  8028  2.00
      L1  H    12    51       P1  7948  2.00
      L1  H    17    41       P1 10957  1.00

> <Gold.PLP.Chemscore.Internal.Correction>
0.0370

> <Gold.Rescore>
     Score         DG    S(hbond)    S(metal)    S(lipo)     H(rot)  DE(clash)    DE(int)     intcor
     19.12     -20.21       2.95        0.00     105.49       2.91       0.00       1.08       ----

> <Gold.Chemscore.Fitness>
19.1216

> <Gold.Chemscore.DG>
-20.2058

> <Gold.Chemscore.ZeroCoef>
-5.4800

> <Gold.Chemscore.Hbond>
2.9461

> <Gold.Chemscore.Metal>
0.0000

> <Gold.Chemscore.Lipo>
105.4907

> <Gold.Chemscore.Internal_Hbond>
0.0000

> <Gold.Chemscore.DEClash>
0.0038

> <Gold.Chemscore.DEInternal>
1.0804

> <Gold.Chemscore.Rot>
2.9127

> <Gold.Chemscore.Internal.Correction>
   9.000000E+99

> <Gold.Chemscore.Hbonds>
donor molecule, donor type, donor heavy atom, donor atom, acceptor molecule, acceptor atom, score
      L1  H     5    52       P1  8028  0.99
      L1  H    12    51       P1  7948  1.00
      L1  H    17    41       P1 10957  0.99

> <Gold.Chemscore.Hbond.Weighted>
-9.8399

> <Gold.Chemscore.Metal.Weighted>
-0.0000

> <Gold.Chemscore.Lipo.Weighted>
-12.3424

> <Gold.Chemscore.Internal_Hbond.Weighted>
0.0000

> <Gold.Chemscore.DEClash.Weighted>
0.0038

> <Gold.Chemscore.DEInternal.Weighted>
1.0804

> <Gold.Chemscore.Rot.Weighted>
7.4565

> <Gold.Chemscore.Internal.Correction.Weighted>
   9.000000E+99

> <Gold.Protein.RotatedTorsions>
[ 6907 6896 6895 6894 ] final    8.84 input  -60.11 | X-H torsion
[ 7974 7965 7964 7962 ] final  -43.74 input  175.53 | X-H torsion
[ 8008 7997 7996 7995 ] final  144.37 input   59.86 | X-H torsion
[ 10167 10162 10161 10158 ] final   90.38 input  -65.29 | X-H torsion
[ 10718 10713 10712 10709 ] final  104.56 input   66.30 | X-H torsion
[ 10763 10752 10751 10750 ] final   37.62 input  -60.55 | X-H torsion
[ 11005 11000 10999 10996 ] final   54.51 input  -57.11 | X-H torsion

> <Gold.Protein.ActiveResidues>
 VAL166  LYS551  ARG553  GLY616  TRP617  ASP618  TYR619  PRO620  LYS621  CYS622 
 ASP623  PHE694  ASN695  SER759  ASP760  ASP761  ALA762  ILE779  LEU786  VAL792 
 PHE793  MET794  SER795  GLU796  ALA797  LYS798  CYS799  TRP800  GLU811  SER814 

> <Gold.Protein.RotatedAtoms>
  151.7125  135.0910  160.0269 H   0  0  0  0  0  0  0  0  0  0  0  0  # atno 6907 bound_to 6896
  152.3653  133.6344  159.6054 H   0  0  0  0  0  0  0  0  0  0  0  0  # atno 6908 bound_to 6896
  150.7633  133.9274  159.3458 H   0  0  0  0  0  0  0  0  0  0  0  0  # atno 6909 bound_to 6896
  145.9989  140.7097  142.9280 H   0  0  0  0  0  0  0  0  0  0  0  0  # atno 7974 bound_to 7965
  156.2909  140.2237  156.5042 H   0  0  0  0  0  0  0  0  0  0  0  0  # atno 8008 bound_to 7997
  154.7664  140.0469  157.1037 H   0  0  0  0  0  0  0  0  0  0  0  0  # atno 8009 bound_to 7997
  154.9928  140.3092  155.4902 H   0  0  0  0  0  0  0  0  0  0  0  0  # atno 8010 bound_to 7997
  139.8479  144.6608  150.9205 H   0  0  0  0  0  0  0  0  0  0  0  0  # atno 10167 bound_to 10162
  157.6736  131.0806  150.5724 H   0  0  0  0  0  0  0  0  0  0  0  0  # atno 10718 bound_to 10713
  153.0031  135.6272  154.2174 H   0  0  0  0  0  0  0  0  0  0  0  0  # atno 10763 bound_to 10752
  154.1917  135.2808  155.3021 H   0  0  0  0  0  0  0  0  0  0  0  0  # atno 10764 bound_to 10752
  154.5754  135.5664  153.7194 H   0  0  0  0  0  0  0  0  0  0  0  0  # atno 10765 bound_to 10752
  140.0681  134.5509  155.9077 H   0  0  0  0  0  0  0  0  0  0  0  0  # atno 11005 bound_to 11000
  144.6913  140.3198  143.7234 LP  0  0  0  0  0  0  0  0  0  0  0  0  # atno 17320 bound_to 7965
  145.7518  139.1796  143.2317 LP  0  0  0  0  0  0  0  0  0  0  0  0  # atno 17321 bound_to 7965
  140.7791  143.3854  151.1403 LP  0  0  0  0  0  0  0  0  0  0  0  0  # atno 17342 bound_to 10162
  139.7494  143.8801  152.3072 LP  0  0  0  0  0  0  0  0  0  0  0  0  # atno 17343 bound_to 10162
  156.6025  130.4358  149.5891 LP  0  0  0  0  0  0  0  0  0  0  0  0  # atno 17370 bound_to 10713
  156.2494  130.6898  151.1631 LP  0  0  0  0  0  0  0  0  0  0  0  0  # atno 17371 bound_to 10713
  141.2001  133.6610  156.5877 LP  0  0  0  0  0  0  0  0  0  0  0  0  # atno 17394 bound_to 11000
  140.3669  134.7639  157.4572 LP  0  0  0  0  0  0  0  0  0  0  0  0  # atno 17395 bound_to 11000

$$$$
