AV-unprocessed.smi:438|AV-procd|sdf|2563|dock5
  -GOLD-   2262022533D 1   1.00000     0.00000
 Structure written by MMmdl.
 48 49  0  0  0  0  0  0  0  0  1 V2000
  145.5418  136.4836  154.9374 C   0  0  0  0  0  0  0  0  0  0  0  0
  146.1941  137.4646  153.9795 C   0  0  0  0  0  0  0  0  0  0  0  0
  147.1642  138.3045  154.5404 N   0  0  0  0  0  0  0  0  0  0  0  0
  147.7788  139.1718  153.8011 C   0  0  0  0  0  0  0  0  0  0  0  0
  149.0642  140.3680  154.2629 S   0  0  0  0  0  0  0  0  0  0  0  0
  149.4957  139.7935  155.9294 C   0  0  0  0  0  0  0  0  0  0  0  0
  150.8547  140.3145  156.3893 C   0  0  0  0  0  0  0  0  0  0  0  0
  151.7667  140.4573  155.5752 O   0  0  0  0  0  0  0  0  0  0  0  0
  150.9785  140.5911  157.6966 N   0  0  0  0  0  0  0  0  0  0  0  0
  152.1833  141.1035  158.3458 C   0  0  2  0  0  0  0  0  0  0  0  0
  152.6389  140.1215  159.4464 C   0  0  0  0  0  0  0  0  0  0  0  0
  153.8623  140.6496  160.2091 C   0  0  0  0  0  0  0  0  0  0  0  0
  153.5849  142.0389  160.7980 C   0  0  0  0  0  0  0  0  0  0  0  0
  153.1539  143.0243  159.7017 C   0  0  0  0  0  0  0  0  0  0  0  0
  151.9221  142.5170  158.9248 C   0  0  1  0  0  0  0  0  0  0  0  0
  151.5124  143.5318  157.8420 C   0  0  0  0  0  0  0  0  0  0  0  0
  147.4812  139.2808  152.4421 N   0  0  0  0  0  0  0  0  0  0  0  0
  146.5575  138.5244  151.8083 C   0  0  0  0  0  0  0  0  0  0  0  0
  146.3389  138.6822  150.6082 O   0  0  0  0  0  0  0  0  0  0  0  0
  145.8674  137.5404  152.6590 C   0  0  0  0  0  0  0  0  0  0  0  0
  144.8284  136.6362  152.0016 C   0  0  0  0  0  0  0  0  0  0  0  0
  145.3946  135.8972  150.7805 C   0  0  0  0  0  0  0  0  0  0  0  0
  144.5646  136.1172  149.6610 O   0  0  0  0  0  0  0  0  0  0  0  0
  144.4553  136.5469  154.8747 H   0  0  0  0  0  0  0  0  0  0  0  0
  145.8275  136.6884  155.9699 H   0  0  0  0  0  0  0  0  0  0  0  0
  145.8454  135.4637  154.7006 H   0  0  0  0  0  0  0  0  0  0  0  0
  149.4854  138.7025  155.9447 H   0  0  0  0  0  0  0  0  0  0  0  0
  148.7334  140.1312  156.6322 H   0  0  0  0  0  0  0  0  0  0  0  0
  150.1748  140.4408  158.2888 H   0  0  0  0  0  0  0  0  0  0  0  0
  152.9797  141.1860  157.6033 H   0  0  0  0  0  0  0  0  0  0  0  0
  151.8228  139.9509  160.1499 H   0  0  0  0  0  0  0  0  0  0  0  0
  152.8762  139.1504  159.0101 H   0  0  0  0  0  0  0  0  0  0  0  0
  154.1328  139.9550  161.0050 H   0  0  0  0  0  0  0  0  0  0  0  0
  154.7197  140.7003  159.5367 H   0  0  0  0  0  0  0  0  0  0  0  0
  152.8035  141.9676  161.5556 H   0  0  0  0  0  0  0  0  0  0  0  0
  154.4751  142.4121  161.3050 H   0  0  0  0  0  0  0  0  0  0  0  0
  152.9372  143.9941  160.1513 H   0  0  0  0  0  0  0  0  0  0  0  0
  153.9840  143.1844  159.0121 H   0  0  0  0  0  0  0  0  0  0  0  0
  151.0952  142.4440  159.6332 H   0  0  0  0  0  0  0  0  0  0  0  0
  152.2878  143.6331  157.0820 H   0  0  0  0  0  0  0  0  0  0  0  0
  151.3419  144.5178  158.2752 H   0  0  0  0  0  0  0  0  0  0  0  0
  150.5909  143.2374  157.3395 H   0  0  0  0  0  0  0  0  0  0  0  0
  147.9776  139.9686  151.8942 H   0  0  0  0  0  0  0  0  0  0  0  0
  143.9572  137.2196  151.7043 H   0  0  0  0  0  0  0  0  0  0  0  0
  144.4541  135.9187  152.7335 H   0  0  0  0  0  0  0  0  0  0  0  0
  146.4013  136.2471  150.5500 H   0  0  0  0  0  0  0  0  0  0  0  0
  145.4565  134.8250  150.9702 H   0  0  0  0  0  0  0  0  0  0  0  0
  145.0456  135.8879  148.8806 H   0  0  0  0  0  0  0  0  0  0  0  0
  1 24  1  0  0  0  0
  1 25  1  0  0  0  0
  1 26  1  0  0  0  0
  1  2  1  0  0  0  0
  2 20  2  0  0  0  0
  2  3  1  0  0  0  0
  3  4  2  0  0  0  0
  4  5  1  0  0  0  0
  4 17  1  0  0  0  0
  5  6  1  0  0  0  0
  6  7  1  0  0  0  0
  6 27  1  0  0  0  0
  6 28  1  0  0  0  0
  7  8  2  0  0  0  0
  7  9  1  0  0  0  0
  9 10  1  0  0  0  0
  9 29  1  0  0  0  0
 10 15  1  0  0  0  0
 10 11  1  0  0  0  0
 10 30  1  0  0  0  0
 11 12  1  0  0  0  0
 11 31  1  0  0  0  0
 11 32  1  0  0  0  0
 12 13  1  0  0  0  0
 12 33  1  0  0  0  0
 12 34  1  0  0  0  0
 13 14  1  0  0  0  0
 13 35  1  0  0  0  0
 13 36  1  0  0  0  0
 14 15  1  0  0  0  0
 14 37  1  0  0  0  0
 14 38  1  0  0  0  0
 15 16  1  0  0  0  0
 15 39  1  0  0  0  0
 16 40  1  0  0  0  0
 16 41  1  0  0  0  0
 16 42  1  0  0  0  0
 17 43  1  0  0  0  0
 17 18  1  0  0  0  0
 18 19  2  0  0  0  0
 18 20  1  0  0  0  0
 20 21  1  0  0  0  0
 21 22  1  0  0  0  0
 21 44  1  0  0  0  0
 21 45  1  0  0  0  0
 22 23  1  0  0  0  0
 22 46  1  0  0  0  0
 22 47  1  0  0  0  0
 23 48  1  0  0  0  0
M  END
> <s_m_source_file>
AV-unprocessed.smi

> <i_m_source_file_index>
438

> <i_lp_mmshare_version>
43012

> <i_f3d_flags>
0

> <s_epik_input>
W09IXVtDSDJdW0NIMl1jMWMoW09IXSluYyhuYzFbQ0gzXSlTW0NIMl1DKD1PKVtOSF1bQ0BASF0yW0NIMl1bQ0gyXVtDSDJdW0NIMl1bQ0BIXTJbQ0gzXQ==

> <s_epik_cmdline>
J2VwaWtfcHl0aG9uJywgJy1waCcsICc3LjAnLCAnLXRuJywgJzgnLCAnLW1hJywgJzIwMCcsICctbWV0YWxfYmluZGluZycsICctaW1hZScsICc8aW5maWxlLm1hZT4nLCAnLW9tYWUnLCAnPG91dGZpbGUubWFlPic=

> <r_lp_tautomer_probability>
0.660323

> <r_epik_Ionization_Penalty>
0.00860626

> <r_epik_Ionization_Penalty_Charging>
0.00860522

> <r_epik_Ionization_Penalty_Neutral>
1.04215e-06

> <r_epik_State_Penalty>
0.156825

> <r_epik_Charging_Adjusted_Penalty>
0.16543

> <i_epik_Tot_Q>
0

> <i_epik_Tot_abs_Q>
0

> <r_epik_Metal_State_Penalty>
0.752038

> <b_epik_Metal_Only>
0

> <s_lp_Force_Field>
OPLS_2005

> <r_lp_Energy>
14.035

> <b_lp_Chiralities_Consistent>
1

> <s_lp_Variant>
AV-unprocessed.smi:438-1

> <Gold.Version>
5.8.1

> <Gold.Id.Protein>
6NUR|6NUR_protein|mol2

> <Gold.PLP.Fitness>
50.4431

> <Gold.PLP.PLP>
-41.9003

> <Gold.PLP.part.hbond>
-5.3816

> <Gold.PLP.part.metal>
0.0000

> <Gold.PLP.part.buried>
-3.1687

> <Gold.PLP.part.nonpolar>
-36.2331

> <Gold.PLP.part.repulsive>
2.7536

> <Gold.PLP.ligand.clash>
0.0000

> <Gold.PLP.ligand.torsion>
0.9600

> <Gold.PLP.Chemscore.Hbond>
3.4666

> <Gold.PLP.Chemscore.CHOScore>
0.0000

> <Gold.PLP.Chemscore.Metal>
0.0000

> <Gold.Chemscore.Hbonds>
donor molecule, donor type, donor heavy atom, donor atom, acceptor molecule, acceptor atom, score
      L1  H    17    43       P1  7957  0.70
      L1  H    23    48       P1  7921  1.00
      P1  H  7954  7966       L1    19  0.56
      P1  H  7989  7998       L1     8  0.61

> <Gold.PLP.Chemscore.Internal.Correction>
0.0630

> <Gold.Rescore>
     Score         DG    S(hbond)    S(metal)    S(lipo)     H(rot)  DE(clash)    DE(int)     intcor
     14.48     -18.59       2.66        0.00      98.92       2.86       2.04       2.07       ----

> <Gold.Chemscore.Fitness>
14.4817

> <Gold.Chemscore.DG>
-18.5901

> <Gold.Chemscore.ZeroCoef>
-5.4800

> <Gold.Chemscore.Hbond>
2.6557

> <Gold.Chemscore.Metal>
0.0000

> <Gold.Chemscore.Lipo>
98.9177

> <Gold.Chemscore.Internal_Hbond>
0.0000

> <Gold.Chemscore.DEClash>
2.0430

> <Gold.Chemscore.DEInternal>
2.0655

> <Gold.Chemscore.Rot>
2.8645

> <Gold.Chemscore.Internal.Correction>
   9.000000E+99

> <Gold.Chemscore.Hbonds>
donor molecule, donor type, donor heavy atom, donor atom, acceptor molecule, acceptor atom, score
      L1  H    17    43       P1  7957  0.70
      L1  H    23    48       P1  7921  0.98
      P1  H  7954  7966       L1    19  0.11
      P1  H  7989  7998       L1     8  0.59

> <Gold.Chemscore.Hbond.Weighted>
-8.8699

> <Gold.Chemscore.Metal.Weighted>
-0.0000

> <Gold.Chemscore.Lipo.Weighted>
-11.5734

> <Gold.Chemscore.Internal_Hbond.Weighted>
0.0000

> <Gold.Chemscore.DEClash.Weighted>
2.0430

> <Gold.Chemscore.DEInternal.Weighted>
2.0655

> <Gold.Chemscore.Rot.Weighted>
7.3331

> <Gold.Chemscore.Internal.Correction.Weighted>
   9.000000E+99

> <Gold.Protein.RotatedTorsions>
[ 6907 6896 6895 6894 ] final  133.73 input  -60.11 | X-H torsion
[ 7974 7965 7964 7962 ] final  -71.20 input  175.53 | X-H torsion
[ 8008 7997 7996 7995 ] final -127.74 input   59.86 | X-H torsion
[ 10167 10162 10161 10158 ] final   64.26 input  -65.29 | X-H torsion
[ 10718 10713 10712 10709 ] final  156.76 input   66.30 | X-H torsion
[ 10763 10752 10751 10750 ] final   22.20 input  -60.55 | X-H torsion
[ 11005 11000 10999 10996 ] final   -0.49 input  -57.11 | X-H torsion

> <Gold.Protein.ActiveResidues>
 VAL166  LYS551  ARG553  GLY616  TRP617  ASP618  TYR619  PRO620  LYS621  CYS622 
 ASP623  PHE694  ASN695  SER759  ASP760  ASP761  ALA762  ILE779  LEU786  VAL792 
 PHE793  MET794  SER795  GLU796  ALA797  LYS798  CYS799  TRP800  GLU811  SER814 

> <Gold.Protein.RotatedAtoms>
  152.3188  133.5831  159.5730 H   0  0  0  0  0  0  0  0  0  0  0  0  # atno 6907 bound_to 6896
  150.7360  134.0042  159.3657 H   0  0  0  0  0  0  0  0  0  0  0  0  # atno 6908 bound_to 6896
  151.7928  135.0731  160.0440 H   0  0  0  0  0  0  0  0  0  0  0  0  # atno 6909 bound_to 6896
  145.6811  140.9187  143.0832 H   0  0  0  0  0  0  0  0  0  0  0  0  # atno 7974 bound_to 7965
  155.2512  140.0432  157.2987 H   0  0  0  0  0  0  0  0  0  0  0  0  # atno 8008 bound_to 7997
  154.5768  140.2389  155.8081 H   0  0  0  0  0  0  0  0  0  0  0  0  # atno 8009 bound_to 7997
  156.2164  140.2983  155.9857 H   0  0  0  0  0  0  0  0  0  0  0  0  # atno 8010 bound_to 7997
  140.1241  144.4704  150.6903 H   0  0  0  0  0  0  0  0  0  0  0  0  # atno 10167 bound_to 10162
  157.2007  131.0675  151.2027 H   0  0  0  0  0  0  0  0  0  0  0  0  # atno 10718 bound_to 10713
  153.0934  135.6653  153.9809 H   0  0  0  0  0  0  0  0  0  0  0  0  # atno 10763 bound_to 10752
  153.9399  135.2995  155.3444 H   0  0  0  0  0  0  0  0  0  0  0  0  # atno 10764 bound_to 10752
  154.7351  135.5105  153.9102 H   0  0  0  0  0  0  0  0  0  0  0  0  # atno 10765 bound_to 10752
  140.6368  133.9525  155.8304 H   0  0  0  0  0  0  0  0  0  0  0  0  # atno 11005 bound_to 11000
  144.7026  139.8697  143.7440 LP  0  0  0  0  0  0  0  0  0  0  0  0  # atno 17320 bound_to 7965
  146.0964  139.3956  143.0374 LP  0  0  0  0  0  0  0  0  0  0  0  0  # atno 17321 bound_to 7965
  140.6855  143.2348  151.5271 LP  0  0  0  0  0  0  0  0  0  0  0  0  # atno 17342 bound_to 10162
  139.5553  144.2291  152.1602 LP  0  0  0  0  0  0  0  0  0  0  0  0  # atno 17343 bound_to 10162
  157.3770  130.7211  149.6604 LP  0  0  0  0  0  0  0  0  0  0  0  0  # atno 17370 bound_to 10713
  155.9701  130.4183  150.4320 LP  0  0  0  0  0  0  0  0  0  0  0  0  # atno 17371 bound_to 10713
  141.0635  134.0311  157.3625 LP  0  0  0  0  0  0  0  0  0  0  0  0  # atno 17394 bound_to 11000
  139.9095  135.0187  156.7631 LP  0  0  0  0  0  0  0  0  0  0  0  0  # atno 17395 bound_to 11000

$$$$
