AV-unprocessed.smi:1740|AV-procd|sdf|7015|dock8
  -GOLD-   22720 8233D 1   1.00000     0.00000
 Structure written by MMmdl.
 52 54  0  0  0  0  0  0  0  0  4 V2000
  147.0874  135.6768  153.0655 N   0  5  0  0  0  0  0  0  0  0  0  0
  146.9855  135.8563  154.3977 C   0  0  0  0  0  0  0  0  0  0  0  0
  145.9649  136.0176  155.0625 O   0  0  0  0  0  0  0  0  0  0  0  0
  148.3505  135.8436  155.0941 C   0  0  0  0  0  0  0  0  0  0  0  0
  149.2481  136.8772  154.5174 N   0  3  2  0  0  0  0  0  0  0  0  0
  150.6257  136.8371  155.0775 C   0  0  0  0  0  0  0  0  0  0  0  0
  151.5511  137.8376  154.3608 C   0  0  0  0  0  0  0  0  0  0  0  0
  150.9887  139.2694  154.3906 C   0  0  2  0  0  0  0  0  0  0  0  0
  151.0680  139.8228  155.7423 N   0  0  0  0  0  0  0  0  0  0  0  0
  152.1084  139.6841  156.5762 C   0  0  0  0  0  0  0  0  0  0  0  0
  153.1273  139.0521  156.2984 O   0  0  0  0  0  0  0  0  0  0  0  0
  151.9024  140.3411  157.7293 N   0  0  0  0  0  0  0  0  0  0  0  0
  152.8242  140.5016  158.8004 C   0  0  0  0  0  0  0  0  0  0  0  0
  153.6623  139.4288  159.1973 C   0  0  0  0  0  0  0  0  0  0  0  0
  154.5184  139.5783  160.3041 C   0  0  0  0  0  0  0  0  0  0  0  0
  154.5117  140.7942  161.0085 C   0  0  0  0  0  0  0  0  0  0  0  0
  153.6941  141.7918  160.6133 N   0  3  0  0  0  0  0  0  0  0  0  0
  152.8583  141.7155  159.5472 C   0  0  0  0  0  0  0  0  0  0  0  0
  152.0706  142.8507  159.2459 N   0  0  0  0  0  0  0  0  0  0  0  0
  151.0935  143.3468  160.2080 C   0  0  0  0  0  0  0  0  0  0  0  0
  150.7022  144.7310  159.6986 C   0  0  0  0  0  0  0  0  0  0  0  0
  152.0090  145.2418  159.0991 C   0  0  0  0  0  0  0  0  0  0  0  0
  152.6731  143.9786  158.5416 C   0  0  0  0  0  0  0  0  0  0  0  0
  149.5420  139.2656  153.8581 C   0  0  0  0  0  0  0  0  0  0  0  0
  148.6611  138.2387  154.5916 C   0  0  0  0  0  0  0  0  0  0  0  0
  147.9808  135.8927  152.6068 H   0  0  0  0  0  0  0  0  0  0  0  0
  148.1850  136.0327  156.1562 H   0  0  0  0  0  0  0  0  0  0  0  0
  148.8104  134.8566  155.0225 H   0  0  0  0  0  0  0  0  0  0  0  0
  150.5904  137.0532  156.1464 H   0  0  0  0  0  0  0  0  0  0  0  0
  151.0434  135.8350  154.9760 H   0  0  0  0  0  0  0  0  0  0  0  0
  152.5470  137.8121  154.8048 H   0  0  0  0  0  0  0  0  0  0  0  0
  151.6749  137.5239  153.3234 H   0  0  0  0  0  0  0  0  0  0  0  0
  151.6046  139.8889  153.7359 H   0  0  0  0  0  0  0  0  0  0  0  0
  150.2709  140.3535  156.0619 H   0  0  0  0  0  0  0  0  0  0  0  0
  151.0601  140.8946  157.7869 H   0  0  0  0  0  0  0  0  0  0  0  0
  153.6438  138.4823  158.6775 H   0  0  0  0  0  0  0  0  0  0  0  0
  155.1603  138.7668  160.6148 H   0  0  0  0  0  0  0  0  0  0  0  0
  155.1274  140.9973  161.8726 H   0  0  0  0  0  0  0  0  0  0  0  0
  150.2315  142.6832  160.2813 H   0  0  0  0  0  0  0  0  0  0  0  0
  151.5460  143.4352  161.1966 H   0  0  0  0  0  0  0  0  0  0  0  0
  149.9441  144.6428  158.9192 H   0  0  0  0  0  0  0  0  0  0  0  0
  150.3091  145.3775  160.4833 H   0  0  0  0  0  0  0  0  0  0  0  0
  151.8583  146.0106  158.3411 H   0  0  0  0  0  0  0  0  0  0  0  0
  152.6314  145.6659  159.8881 H   0  0  0  0  0  0  0  0  0  0  0  0
  153.7560  144.0128  158.6676 H   0  0  0  0  0  0  0  0  0  0  0  0
  152.4564  143.8834  157.4774 H   0  0  0  0  0  0  0  0  0  0  0  0
  149.0997  140.2595  153.9334 H   0  0  0  0  0  0  0  0  0  0  0  0
  149.5550  139.0243  152.7943 H   0  0  0  0  0  0  0  0  0  0  0  0
  147.6690  138.2347  154.1385 H   0  0  0  0  0  0  0  0  0  0  0  0
  148.5304  138.5246  155.6365 H   0  0  0  0  0  0  0  0  0  0  0  0
  149.3193  136.6483  153.5351 H   0  0  0  0  0  0  0  0  0  0  0  0
  153.7124  142.6617  161.1461 H   0  0  0  0  0  0  0  0  0  0  0  0
  1  2  1  0  0  0  0
  1 26  1  0  0  0  0
  2  3  2  0  0  0  0
  2  4  1  0  0  0  0
  4  5  1  0  0  0  0
  4 27  1  0  0  0  0
  4 28  1  0  0  0  0
  5 25  1  0  0  0  0
  5  6  1  0  0  0  0
  5 51  1  0  0  0  0
  6  7  1  0  0  0  0
  6 29  1  0  0  0  0
  6 30  1  0  0  0  0
  7  8  1  0  0  0  0
  7 31  1  0  0  0  0
  7 32  1  0  0  0  0
  8  9  1  0  0  0  0
  8 24  1  0  0  0  0
  8 33  1  0  0  0  0
  9 10  1  0  0  0  0
  9 34  1  0  0  0  0
 10 11  2  0  0  0  0
 10 12  1  0  0  0  0
 12 13  1  0  0  0  0
 12 35  1  0  0  0  0
 13 18  1  0  0  0  0
 13 14  2  0  0  0  0
 14 15  1  0  0  0  0
 14 36  1  0  0  0  0
 15 16  2  0  0  0  0
 15 37  1  0  0  0  0
 16 17  1  0  0  0  0
 16 38  1  0  0  0  0
 17 18  2  0  0  0  0
 17 52  1  0  0  0  0
 18 19  1  0  0  0  0
 19 23  1  0  0  0  0
 19 20  1  0  0  0  0
 20 21  1  0  0  0  0
 20 39  1  0  0  0  0
 20 40  1  0  0  0  0
 21 22  1  0  0  0  0
 21 41  1  0  0  0  0
 21 42  1  0  0  0  0
 22 23  1  0  0  0  0
 22 43  1  0  0  0  0
 22 44  1  0  0  0  0
 23 45  1  0  0  0  0
 23 46  1  0  0  0  0
 24 25  1  0  0  0  0
 24 47  1  0  0  0  0
 24 48  1  0  0  0  0
 25 49  1  0  0  0  0
 25 50  1  0  0  0  0
M  CHG  1   1  -1
M  CHG  1   5   1
M  CHG  1  17   1
M  END
> <s_m_source_file>
AV-unprocessed.smi

> <i_m_source_file_index>
1740

> <i_lp_mmshare_version>
43012

> <i_f3d_flags>
0

> <s_epik_input>
W05IMl1DKD1PKVtDSDJdTjFbQ0gyXVtDSDJdW0NIXShbQ0gyXVtDSDJdMSlbTkhdQyg9TylbTkhdYzJbY0hdW2NIXVtjSF1uYzJOM1tDSDJdW0NIMl1bQ0gyXVtDSDJdMw==

> <s_epik_cmdline>
J2VwaWtfcHl0aG9uJywgJy1waCcsICc3LjAnLCAnLXRuJywgJzgnLCAnLW1hJywgJzIwMCcsICctbWV0YWxfYmluZGluZycsICctaW1hZScsICc8aW5maWxlLm1hZT4nLCAnLW9tYWUnLCAnPG91dGZpbGUubWFlPic=

> <r_lp_tautomer_probability>
0.999994

> <r_epik_Ionization_Penalty>
6.97817

> <r_epik_Ionization_Penalty_Charging>
6.97815

> <r_epik_Ionization_Penalty_Neutral>
1.88285e-05

> <r_epik_State_Penalty>
7.80985

> <r_epik_Charging_Adjusted_Penalty>
14.788

> <i_epik_Tot_Q>
1

> <i_epik_Tot_abs_Q>
3

> <r_epik_Metal_State_Penalty>
3.85728

> <b_epik_Metal_Only>
1

> <s_lp_Force_Field>
OPLS_2005

> <r_lp_Energy>
44.1168

> <b_lp_Chiralities_Consistent>
1

> <s_lp_Variant>
AV-unprocessed.smi:1740-10

> <Gold.Version>
5.8.1

> <Gold.Id.Protein>
6NUR|6NUR_protein|mol2

> <Gold.PLP.Fitness>
52.1355

> <Gold.PLP.PLP>
-41.2883

> <Gold.PLP.part.hbond>
-3.0000

> <Gold.PLP.part.metal>
0.0000

> <Gold.PLP.part.buried>
-3.4844

> <Gold.PLP.part.nonpolar>
-35.7812

> <Gold.PLP.part.repulsive>
0.2267

> <Gold.PLP.ligand.clash>
0.0000

> <Gold.PLP.ligand.torsion>
0.7948

> <Gold.PLP.Chemscore.Hbond>
4.0000

> <Gold.PLP.Chemscore.CHOScore>
0.0000

> <Gold.PLP.Chemscore.Metal>
0.0000

> <Gold.Chemscore.Hbonds>
donor molecule, donor type, donor heavy atom, donor atom, acceptor molecule, acceptor atom, score
      L1  H     1    26       P1  7948  0.32
      L1  H     5    51       P1  7948  2.00
      P1  H  7997  8010       L1    11  1.00

> <Gold.PLP.Chemscore.Internal.Correction>
0.4369

> <Gold.Rescore>
     Score         DG    S(hbond)    S(metal)    S(lipo)     H(rot)  DE(clash)    DE(int)     intcor
     17.57     -21.39       2.72        0.00     106.14       2.18       0.58       3.25       ----

> <Gold.Chemscore.Fitness>
17.5666

> <Gold.Chemscore.DG>
-21.3936

> <Gold.Chemscore.ZeroCoef>
-5.4800

> <Gold.Chemscore.Hbond>
2.7198

> <Gold.Chemscore.Metal>
0.0000

> <Gold.Chemscore.Lipo>
106.1418

> <Gold.Chemscore.Internal_Hbond>
0.0000

> <Gold.Chemscore.DEClash>
0.5809

> <Gold.Chemscore.DEInternal>
3.2462

> <Gold.Chemscore.Rot>
2.1832

> <Gold.Chemscore.Internal.Correction>
   9.000000E+99

> <Gold.Chemscore.Hbonds>
donor molecule, donor type, donor heavy atom, donor atom, acceptor molecule, acceptor atom, score
      L1  H     1    26       P1  7948  0.33
      L1  H     5    51       P1  7948  0.93
      P1  H  7997  8010       L1    11  0.63

> <Gold.Chemscore.Hbond.Weighted>
-9.0842

> <Gold.Chemscore.Metal.Weighted>
-0.0000

> <Gold.Chemscore.Lipo.Weighted>
-12.4186

> <Gold.Chemscore.Internal_Hbond.Weighted>
0.0000

> <Gold.Chemscore.DEClash.Weighted>
0.5809

> <Gold.Chemscore.DEInternal.Weighted>
3.2462

> <Gold.Chemscore.Rot.Weighted>
5.5891

> <Gold.Chemscore.Internal.Correction.Weighted>
   9.000000E+99

> <Gold.Protein.RotatedTorsions>
[ 6907 6896 6895 6894 ] final -102.39 input  -60.11 | X-H torsion
[ 7974 7965 7964 7962 ] final -140.17 input  175.53 | X-H torsion
[ 8008 7997 7996 7995 ] final   89.08 input   59.86 | X-H torsion
[ 10167 10162 10161 10158 ] final -103.80 input  -65.29 | X-H torsion
[ 10718 10713 10712 10709 ] final -116.77 input   66.30 | X-H torsion
[ 10763 10752 10751 10750 ] final  -75.03 input  -60.55 | X-H torsion
[ 11005 11000 10999 10996 ] final   10.40 input  -57.11 | X-H torsion

> <Gold.Protein.ActiveResidues>
 VAL166  LYS551  ARG553  GLY616  TRP617  ASP618  TYR619  PRO620  LYS621  CYS622 
 ASP623  PHE694  ASN695  SER759  ASP760  ASP761  ALA762  ILE779  LEU786  VAL792 
 PHE793  MET794  SER795  GLU796  ALA797  LYS798  CYS799  TRP800  GLU811  SER814 

> <Gold.Protein.RotatedAtoms>
  150.7194  134.0589  159.3823 H   0  0  0  0  0  0  0  0  0  0  0  0  # atno 6907 bound_to 6896
  151.8568  135.0536  160.0474 H   0  0  0  0  0  0  0  0  0  0  0  0  # atno 6908 bound_to 6896
  152.2748  133.5380  159.5498 H   0  0  0  0  0  0  0  0  0  0  0  0  # atno 6909 bound_to 6896
  144.8618  140.6231  143.5323 H   0  0  0  0  0  0  0  0  0  0  0  0  # atno 7974 bound_to 7965
  155.9956  140.3364  155.6795 H   0  0  0  0  0  0  0  0  0  0  0  0  # atno 8008 bound_to 7997
  155.6361  140.0690  157.2651 H   0  0  0  0  0  0  0  0  0  0  0  0  # atno 8009 bound_to 7997
  154.4233  140.1751  156.1511 H   0  0  0  0  0  0  0  0  0  0  0  0  # atno 8010 bound_to 7997
  140.2161  143.3710  152.1009 H   0  0  0  0  0  0  0  0  0  0  0  0  # atno 10167 bound_to 10162
  156.0987  130.6153  150.9078 H   0  0  0  0  0  0  0  0  0  0  0  0  # atno 10718 bound_to 10713
  154.4811  135.5845  153.6390 H   0  0  0  0  0  0  0  0  0  0  0  0  # atno 10763 bound_to 10752
  152.9847  135.6090  154.3245 H   0  0  0  0  0  0  0  0  0  0  0  0  # atno 10764 bound_to 10752
  154.3137  135.2844  155.2533 H   0  0  0  0  0  0  0  0  0  0  0  0  # atno 10765 bound_to 10752
  140.5150  134.0615  155.7828 H   0  0  0  0  0  0  0  0  0  0  0  0  # atno 11005 bound_to 11000
  145.4297  139.1551  143.4029 LP  0  0  0  0  0  0  0  0  0  0  0  0  # atno 17320 bound_to 7965
  146.2866  140.4413  142.8755 LP  0  0  0  0  0  0  0  0  0  0  0  0  # atno 17321 bound_to 7965
  139.5161  144.6973  151.5594 LP  0  0  0  0  0  0  0  0  0  0  0  0  # atno 17342 bound_to 10162
  140.6288  143.9116  150.6588 LP  0  0  0  0  0  0  0  0  0  0  0  0  # atno 17343 bound_to 10162
  157.6153  131.0933  150.8722 LP  0  0  0  0  0  0  0  0  0  0  0  0  # atno 17370 bound_to 10713
  156.8855  130.5194  149.5289 LP  0  0  0  0  0  0  0  0  0  0  0  0  # atno 17371 bound_to 10713
  141.1365  133.9212  157.2421 LP  0  0  0  0  0  0  0  0  0  0  0  0  # atno 17394 bound_to 11000
  139.9638  135.0147  156.9331 LP  0  0  0  0  0  0  0  0  0  0  0  0  # atno 17395 bound_to 11000

$$$$
