AV-unprocessed.smi:1376|AV-procd|sdf|5593|dock9
  -GOLD-   22720 5193D 1   1.00000     0.00000
 Structure written by MMmdl.
 42 43  0  0  0  0  0  0  0  0  1 V2000
  148.8240  140.5680  158.0162 O   0  0  0  0  0  0  0  0  0  0  0  0
  149.0156  141.5704  157.3256 C   0  0  0  0  0  0  0  0  0  0  0  0
  150.3994  141.8755  156.7333 C   0  0  0  0  0  0  0  0  0  0  0  0
  151.3254  142.5058  157.6892 N   0  0  0  0  0  0  0  0  0  0  0  0
  151.6288  143.8662  157.4805 C   0  0  0  0  0  0  0  0  0  0  0  0
  152.4660  144.5389  158.2858 C   0  0  0  0  0  0  0  0  0  0  0  0
  153.0634  143.8310  159.3932 C   0  0  0  0  0  0  0  0  0  0  0  0
  152.7821  142.5291  159.6006 C   0  0  0  0  0  0  0  0  0  0  0  0
  151.8695  141.7890  158.7209 C   0  0  0  0  0  0  0  0  0  0  0  0
  151.6117  140.5985  158.8997 O   0  0  0  0  0  0  0  0  0  0  0  0
  148.0496  142.4550  157.0344 N   0  0  0  0  0  0  0  0  0  0  0  0
  146.6660  142.3720  157.4923 C   0  0  1  0  0  0  0  0  0  0  0  0
  146.1624  140.9226  157.3646 C   0  0  0  0  0  0  0  0  0  0  0  0
  144.7213  140.7805  157.8802 C   0  0  0  0  0  0  0  0  0  0  0  0
  144.5845  141.2959  159.3236 C   0  0  0  0  0  0  0  0  0  0  0  0
  145.0832  142.7457  159.4618 C   0  0  2  0  0  0  0  0  0  0  0  0
  144.1893  143.5761  158.7277 O   0  0  0  0  0  0  0  0  0  0  0  0
  144.6525  144.8962  158.4784 C   0  0  0  0  0  0  0  0  0  0  0  0
  143.8593  145.4920  157.3093 C   0  0  0  0  0  0  0  0  0  0  0  0
  144.3296  146.7074  157.0315 F   0  0  0  0  0  0  0  0  0  0  0  0
  143.9887  144.7249  156.2272 F   0  0  0  0  0  0  0  0  0  0  0  0
  142.5704  145.5963  157.6326 F   0  0  0  0  0  0  0  0  0  0  0  0
  146.5348  142.8628  158.9501 C   0  0  0  0  0  0  0  0  0  0  0  0
  150.8260  140.9447  156.3567 H   0  0  0  0  0  0  0  0  0  0  0  0
  150.2726  142.5064  155.8516 H   0  0  0  0  0  0  0  0  0  0  0  0
  151.1456  144.3192  156.6269 H   0  0  0  0  0  0  0  0  0  0  0  0
  152.6894  145.5804  158.1080 H   0  0  0  0  0  0  0  0  0  0  0  0
  153.7402  144.3475  160.0579 H   0  0  0  0  0  0  0  0  0  0  0  0
  153.2395  142.0158  160.4337 H   0  0  0  0  0  0  0  0  0  0  0  0
  148.2924  143.2500  156.4610 H   0  0  0  0  0  0  0  0  0  0  0  0
  146.0511  143.0040  156.8485 H   0  0  0  0  0  0  0  0  0  0  0  0
  146.2118  140.5990  156.3242 H   0  0  0  0  0  0  0  0  0  0  0  0
  146.8146  140.2533  157.9278 H   0  0  0  0  0  0  0  0  0  0  0  0
  144.0454  141.3349  157.2278 H   0  0  0  0  0  0  0  0  0  0  0  0
  144.4101  139.7370  157.8282 H   0  0  0  0  0  0  0  0  0  0  0  0
  143.5456  141.2255  159.6477 H   0  0  0  0  0  0  0  0  0  0  0  0
  145.1575  140.6510  159.9910 H   0  0  0  0  0  0  0  0  0  0  0  0
  145.0424  143.0233  160.5163 H   0  0  0  0  0  0  0  0  0  0  0  0
  144.5231  145.5157  159.3670 H   0  0  0  0  0  0  0  0  0  0  0  0
  145.7136  144.8937  158.2301 H   0  0  0  0  0  0  0  0  0  0  0  0
  147.1838  142.2635  159.5903 H   0  0  0  0  0  0  0  0  0  0  0  0
  146.8958  143.8859  159.0472 H   0  0  0  0  0  0  0  0  0  0  0  0
  1  2  2  0  0  0  0
  2  3  1  0  0  0  0
  2 11  1  0  0  0  0
  3  4  1  0  0  0  0
  3 24  1  0  0  0  0
  3 25  1  0  0  0  0
  4  9  1  0  0  0  0
  4  5  1  0  0  0  0
  5  6  2  0  0  0  0
  5 26  1  0  0  0  0
  6  7  1  0  0  0  0
  6 27  1  0  0  0  0
  7  8  2  0  0  0  0
  7 28  1  0  0  0  0
  8  9  1  0  0  0  0
  8 29  1  0  0  0  0
  9 10  2  0  0  0  0
 11 12  1  0  0  0  0
 11 30  1  0  0  0  0
 12 23  1  0  0  0  0
 12 13  1  0  0  0  0
 12 31  1  0  0  0  0
 13 14  1  0  0  0  0
 13 32  1  0  0  0  0
 13 33  1  0  0  0  0
 14 15  1  0  0  0  0
 14 34  1  0  0  0  0
 14 35  1  0  0  0  0
 15 16  1  0  0  0  0
 15 36  1  0  0  0  0
 15 37  1  0  0  0  0
 16 17  1  0  0  0  0
 16 23  1  0  0  0  0
 16 38  1  0  0  0  0
 17 18  1  0  0  0  0
 18 19  1  0  0  0  0
 18 39  1  0  0  0  0
 18 40  1  0  0  0  0
 19 20  1  0  0  0  0
 19 21  1  0  0  0  0
 19 22  1  0  0  0  0
 23 41  1  0  0  0  0
 23 42  1  0  0  0  0
M  END
> <s_m_source_file>
AV-unprocessed.smi

> <i_m_source_file_index>
1376

> <i_lp_mmshare_version>
43012

> <i_f3d_flags>
0

> <s_epik_input>
Tz1jMVtjSF1bY0hdW2NIXVtjSF1uMVtDSDJdQyg9TylbTkhdW0NAQEhdMltDSDJdW0NIMl1bQ0gyXVtDQEhdKFtDSDJdMilPW0NIMl1DKEYpKEYpRg==

> <s_epik_cmdline>
J2VwaWtfcHl0aG9uJywgJy1waCcsICc3LjAnLCAnLXRuJywgJzgnLCAnLW1hJywgJzIwMCcsICctbWV0YWxfYmluZGluZycsICctaW1hZScsICc8aW5maWxlLm1hZT4nLCAnLW9tYWUnLCAnPG91dGZpbGUubWFlPic=

> <r_lp_tautomer_probability>
1

> <r_epik_Ionization_Penalty>
4.08567e-07

> <r_epik_Ionization_Penalty_Charging>
3.90028e-07

> <r_epik_Ionization_Penalty_Neutral>
1.85393e-08

> <r_epik_State_Penalty>
-0

> <r_epik_Charging_Adjusted_Penalty>
3.90028e-07

> <i_epik_Tot_Q>
0

> <i_epik_Tot_abs_Q>
0

> <r_epik_Metal_State_Penalty>
-0

> <b_epik_Metal_Only>
0

> <s_lp_Force_Field>
OPLS_2005

> <r_lp_Energy>
20.214

> <b_lp_Chiralities_Consistent>
1

> <s_lp_Variant>
AV-unprocessed.smi:1376-4

> <Gold.Version>
5.8.1

> <Gold.Id.Protein>
6NUR|6NUR_protein|mol2

> <Gold.PLP.Fitness>
41.0709

> <Gold.PLP.PLP>
-36.7730

> <Gold.PLP.part.hbond>
-1.0765

> <Gold.PLP.part.metal>
0.0000

> <Gold.PLP.part.buried>
-5.7613

> <Gold.PLP.part.nonpolar>
-30.1154

> <Gold.PLP.part.repulsive>
0.0449

> <Gold.PLP.ligand.clash>
0.0000

> <Gold.PLP.ligand.torsion>
0.8659

> <Gold.PLP.Chemscore.Hbond>
1.0000

> <Gold.PLP.Chemscore.CHOScore>
1.0000

> <Gold.PLP.Chemscore.Metal>
0.0000

> <Gold.Chemscore.Hbonds>
donor molecule, donor type, donor heavy atom, donor atom, acceptor molecule, acceptor atom, score
      L1  H    11    30       P1  8028  1.00
      L1  C     5    26       P1  8028  1.00

> <Gold.PLP.Chemscore.Internal.Correction>
0.0297

> <Gold.Rescore>
     Score         DG    S(hbond)    S(metal)    S(lipo)     H(rot)  DE(clash)    DE(int)     intcor
      8.90     -11.16       0.90        0.00      70.60       2.18       0.01       2.25       ----

> <Gold.Chemscore.Fitness>
8.8969

> <Gold.Chemscore.DG>
-11.1640

> <Gold.Chemscore.ZeroCoef>
-5.4800

> <Gold.Chemscore.Hbond>
0.8995

> <Gold.Chemscore.Metal>
0.0000

> <Gold.Chemscore.Lipo>
70.5978

> <Gold.Chemscore.Internal_Hbond>
0.0000

> <Gold.Chemscore.DEClash>
0.0125

> <Gold.Chemscore.DEInternal>
2.2546

> <Gold.Chemscore.Rot>
2.1797

> <Gold.Chemscore.Internal.Correction>
   9.000000E+99

> <Gold.Chemscore.Hbonds>
donor molecule, donor type, donor heavy atom, donor atom, acceptor molecule, acceptor atom, score
      L1  H    11    30       P1  8028  0.45

> <Gold.Chemscore.Hbond.Weighted>
-3.0042

> <Gold.Chemscore.Metal.Weighted>
-0.0000

> <Gold.Chemscore.Lipo.Weighted>
-8.2599

> <Gold.Chemscore.Internal_Hbond.Weighted>
0.0000

> <Gold.Chemscore.DEClash.Weighted>
0.0125

> <Gold.Chemscore.DEInternal.Weighted>
2.2546

> <Gold.Chemscore.Rot.Weighted>
5.5802

> <Gold.Chemscore.Internal.Correction.Weighted>
   9.000000E+99

> <Gold.Protein.RotatedTorsions>
[ 6907 6896 6895 6894 ] final  -95.48 input  -60.11 | X-H torsion
[ 7974 7965 7964 7962 ] final  -41.78 input  175.53 | X-H torsion
[ 8008 7997 7996 7995 ] final   37.33 input   59.86 | X-H torsion
[ 10167 10162 10161 10158 ] final   61.91 input  -65.29 | X-H torsion
[ 10718 10713 10712 10709 ] final  -15.12 input   66.30 | X-H torsion
[ 10763 10752 10751 10750 ] final   17.02 input  -60.55 | X-H torsion
[ 11005 11000 10999 10996 ] final   71.91 input  -57.11 | X-H torsion

> <Gold.Protein.ActiveResidues>
 VAL166  LYS551  ARG553  GLY616  TRP617  ASP618  TYR619  PRO620  LYS621  CYS622 
 ASP623  PHE694  ASN695  SER759  ASP760  ASP761  ALA762  ILE779  LEU786  VAL792 
 PHE793  MET794  SER795  GLU796  ALA797  LYS798  CYS799  TRP800  GLU811  SER814 

> <Gold.Protein.RotatedAtoms>
  150.6965  134.1650  159.4190 H   0  0  0  0  0  0  0  0  0  0  0  0  # atno 6907 bound_to 6896
  151.9630  135.0112  160.0558 H   0  0  0  0  0  0  0  0  0  0  0  0  # atno 6908 bound_to 6896
  152.1910  133.4738  159.5045 H   0  0  0  0  0  0  0  0  0  0  0  0  # atno 6909 bound_to 6896
  146.0179  140.6886  142.9193 H   0  0  0  0  0  0  0  0  0  0  0  0  # atno 7974 bound_to 7965
  155.2019  140.3316  155.4342 H   0  0  0  0  0  0  0  0  0  0  0  0  # atno 8008 bound_to 7997
  156.2403  140.1892  156.7056 H   0  0  0  0  0  0  0  0  0  0  0  0  # atno 8009 bound_to 7997
  154.6135  140.0605  156.9510 H   0  0  0  0  0  0  0  0  0  0  0  0  # atno 8010 bound_to 7997
  140.1496  144.4475  150.6766 H   0  0  0  0  0  0  0  0  0  0  0  0  # atno 10167 bound_to 10162
  156.6063  130.4837  149.6219 H   0  0  0  0  0  0  0  0  0  0  0  0  # atno 10718 bound_to 10713
  153.1377  135.6753  153.9076 H   0  0  0  0  0  0  0  0  0  0  0  0  # atno 10763 bound_to 10752
  153.8542  135.3089  155.3435 H   0  0  0  0  0  0  0  0  0  0  0  0  # atno 10764 bound_to 10752
  154.7762  135.4913  153.9831 H   0  0  0  0  0  0  0  0  0  0  0  0  # atno 10765 bound_to 10752
  139.9519  134.7212  156.0843 H   0  0  0  0  0  0  0  0  0  0  0  0  # atno 11005 bound_to 11000
  144.6978  140.3513  143.7181 LP  0  0  0  0  0  0  0  0  0  0  0  0  # atno 17320 bound_to 7965
  145.7240  139.1717  143.2468 LP  0  0  0  0  0  0  0  0  0  0  0  0  # atno 17321 bound_to 7965
  140.6710  143.2286  151.5624 LP  0  0  0  0  0  0  0  0  0  0  0  0  # atno 17342 bound_to 10162
  139.5432  144.2591  152.1391 LP  0  0  0  0  0  0  0  0  0  0  0  0  # atno 17343 bound_to 10162
  156.2427  130.6860  151.1571 LP  0  0  0  0  0  0  0  0  0  0  0  0  # atno 17370 bound_to 10713
  157.7266  131.0645  150.5902 LP  0  0  0  0  0  0  0  0  0  0  0  0  # atno 17371 bound_to 10713
  141.1183  133.6621  156.3150 LP  0  0  0  0  0  0  0  0  0  0  0  0  # atno 17394 bound_to 11000
  140.5700  134.5850  157.5455 LP  0  0  0  0  0  0  0  0  0  0  0  0  # atno 17395 bound_to 11000

$$$$
