AV-unprocessed.smi:414|AV-procd|sdf|2517|dock6
  -GOLD-   2262022463D 1   1.00000     0.00000
 Structure written by MMmdl.
 37 38  0  0  0  0  0  0  0  0  2 V2000
  152.5425  143.2747  162.8569 C   0  0  0  0  0  0  0  0  0  0  0  0
  152.8240  143.4075  161.3535 C   0  0  2  0  0  0  0  0  0  0  0  0
  151.8123  144.3487  160.6719 C   0  0  0  0  0  0  0  0  0  0  0  0
  152.0873  144.4821  159.1635 C   0  0  0  0  0  0  0  0  0  0  0  0
  152.1210  143.1131  158.4525 C   0  0  2  0  0  0  0  0  0  0  0  0
  150.7901  142.5118  158.3936 N   0  0  0  0  0  0  0  0  0  0  0  0
  150.2173  141.9891  157.2988 C   0  0  0  0  0  0  0  0  0  0  0  0
  150.7580  141.9774  156.1921 O   0  0  0  0  0  0  0  0  0  0  0  0
  148.8024  141.4245  157.4808 C   0  0  0  0  0  0  0  0  0  0  0  0
  148.2532  140.8641  156.2359 N   0  0  0  0  0  0  0  0  0  0  0  0
  148.2322  141.6893  155.0977 C   0  0  0  0  0  0  0  0  0  0  0  0
  147.7524  141.2573  153.9159 C   0  0  0  0  0  0  0  0  0  0  0  0
  147.2434  139.8936  153.8345 C   0  0  0  0  0  0  0  0  0  0  0  0
  146.7950  139.4843  152.7654 O   0  0  0  0  0  0  0  0  0  0  0  0
  147.2903  139.1300  154.9652 N   0  5  0  0  0  0  0  0  0  0  0  0
  147.7848  139.5818  156.1595 C   0  0  0  0  0  0  0  0  0  0  0  0
  147.8213  138.8746  157.1672 O   0  0  0  0  0  0  0  0  0  0  0  0
  153.1074  142.1570  159.1503 C   0  0  0  0  0  0  0  0  0  0  0  0
  152.8313  142.0322  160.6594 C   0  0  0  0  0  0  0  0  0  0  0  0
  151.5547  142.8503  163.0394 H   0  0  0  0  0  0  0  0  0  0  0  0
  152.5843  144.2454  163.3518 H   0  0  0  0  0  0  0  0  0  0  0  0
  153.2766  142.6277  163.3382 H   0  0  0  0  0  0  0  0  0  0  0  0
  153.8174  143.8447  161.2428 H   0  0  0  0  0  0  0  0  0  0  0  0
  150.7987  143.9767  160.8270 H   0  0  0  0  0  0  0  0  0  0  0  0
  151.8502  145.3348  161.1360 H   0  0  0  0  0  0  0  0  0  0  0  0
  151.3419  145.1325  158.7043 H   0  0  0  0  0  0  0  0  0  0  0  0
  153.0477  144.9793  159.0216 H   0  0  0  0  0  0  0  0  0  0  0  0
  152.4724  143.2613  157.4297 H   0  0  0  0  0  0  0  0  0  0  0  0
  150.2681  142.4798  159.2574 H   0  0  0  0  0  0  0  0  0  0  0  0
  148.7971  140.6683  158.2684 H   0  0  0  0  0  0  0  0  0  0  0  0
  148.1634  142.2269  157.8517 H   0  0  0  0  0  0  0  0  0  0  0  0
  148.6330  142.6820  155.2413 H   0  0  0  0  0  0  0  0  0  0  0  0
  147.7479  141.9024  153.0495 H   0  0  0  0  0  0  0  0  0  0  0  0
  153.0738  141.1726  158.6815 H   0  0  0  0  0  0  0  0  0  0  0  0
  154.1235  142.5261  159.0054 H   0  0  0  0  0  0  0  0  0  0  0  0
  153.5865  141.3901  161.1137 H   0  0  0  0  0  0  0  0  0  0  0  0
  151.8735  141.5345  160.8165 H   0  0  0  0  0  0  0  0  0  0  0  0
  1  2  1  0  0  0  0
  1 20  1  0  0  0  0
  1 21  1  0  0  0  0
  1 22  1  0  0  0  0
  2 19  1  0  0  0  0
  2  3  1  0  0  0  0
  2 23  1  0  0  0  0
  3  4  1  0  0  0  0
  3 24  1  0  0  0  0
  3 25  1  0  0  0  0
  4  5  1  0  0  0  0
  4 26  1  0  0  0  0
  4 27  1  0  0  0  0
  5  6  1  0  0  0  0
  5 18  1  0  0  0  0
  5 28  1  0  0  0  0
  6  7  1  0  0  0  0
  6 29  1  0  0  0  0
  7  8  2  0  0  0  0
  7  9  1  0  0  0  0
  9 10  1  0  0  0  0
  9 30  1  0  0  0  0
  9 31  1  0  0  0  0
 10 16  1  0  0  0  0
 10 11  1  0  0  0  0
 11 12  2  0  0  0  0
 11 32  1  0  0  0  0
 12 13  1  0  0  0  0
 12 33  1  0  0  0  0
 13 14  2  0  0  0  0
 13 15  1  0  0  0  0
 15 16  1  0  0  0  0
 16 17  2  0  0  0  0
 18 19  1  0  0  0  0
 18 34  1  0  0  0  0
 18 35  1  0  0  0  0
 19 36  1  0  0  0  0
 19 37  1  0  0  0  0
M  CHG  1  15  -1
M  END
> <s_m_source_file>
AV-unprocessed.smi

> <i_m_source_file_index>
414

> <i_lp_mmshare_version>
43012

> <i_f3d_flags>
0

> <s_epik_input>
W0NIM11bQ0BASF0xW0NIMl1bQ0gyXVtDQEhdKFtDSDJdW0NIMl0xKVtOSF1DKD1PKVtDSDJdbjJbY0hdW2NIXWMoPU8pW25IXWMyPU8=

> <s_epik_cmdline>
J2VwaWtfcHl0aG9uJywgJy1waCcsICc3LjAnLCAnLXRuJywgJzgnLCAnLW1hJywgJzIwMCcsICctbWV0YWxfYmluZGluZycsICctaW1hZScsICc8aW5maWxlLm1hZT4nLCAnLW9tYWUnLCAnPG91dGZpbGUubWFlPic=

> <r_lp_tautomer_probability>
0.999537

> <r_epik_Ionization_Penalty>
3.11551

> <r_epik_Ionization_Penalty_Charging>
2.90498e-08

> <r_epik_Ionization_Penalty_Neutral>
3.11551

> <r_epik_State_Penalty>
3.11459

> <r_epik_Charging_Adjusted_Penalty>
3.11459

> <i_epik_Tot_Q>
-1

> <i_epik_Tot_abs_Q>
1

> <r_epik_Metal_State_Penalty>
0.463083

> <b_epik_Metal_Only>
1

> <s_lp_Force_Field>
OPLS_2005

> <r_lp_Energy>
16.6581

> <b_lp_Chiralities_Consistent>
1

> <s_lp_Variant>
AV-unprocessed.smi:414-4

> <Gold.Version>
5.8.1

> <Gold.Id.Protein>
6NUR|6NUR_protein|mol2

> <Gold.PLP.Fitness>
37.8823

> <Gold.PLP.PLP>
-35.2391

> <Gold.PLP.part.hbond>
0.0000

> <Gold.PLP.part.metal>
0.0000

> <Gold.PLP.part.buried>
-2.3211

> <Gold.PLP.part.nonpolar>
-33.7114

> <Gold.PLP.part.repulsive>
0.7080

> <Gold.PLP.ligand.clash>
0.0000

> <Gold.PLP.ligand.torsion>
0.1828

> <Gold.PLP.Chemscore.Hbond>
0.0000

> <Gold.PLP.Chemscore.CHOScore>
1.0000

> <Gold.PLP.Chemscore.Metal>
0.0000

> <Gold.Chemscore.Hbonds>
donor molecule, donor type, donor heavy atom, donor atom, acceptor molecule, acceptor atom, score
      L1  C    11    32       P1  8028  1.00

> <Gold.PLP.Chemscore.Internal.Correction>
0.0089

> <Gold.Rescore>
     Score         DG    S(hbond)    S(metal)    S(lipo)     H(rot)  DE(clash)    DE(int)     intcor
     11.31     -13.08       0.00        0.00     101.20       1.65       0.35       1.43       ----

> <Gold.Chemscore.Fitness>
11.3109

> <Gold.Chemscore.DG>
-13.0845

> <Gold.Chemscore.ZeroCoef>
-5.4800

> <Gold.Chemscore.Hbond>
0.0000

> <Gold.Chemscore.Metal>
0.0000

> <Gold.Chemscore.Lipo>
101.2046

> <Gold.Chemscore.Internal_Hbond>
0.0000

> <Gold.Chemscore.DEClash>
0.3472

> <Gold.Chemscore.DEInternal>
1.4264

> <Gold.Chemscore.Rot>
1.6549

> <Gold.Chemscore.Internal.Correction>
   9.000000E+99

> <Gold.Chemscore.Hbond.Weighted>
-0.0000

> <Gold.Chemscore.Metal.Weighted>
-0.0000

> <Gold.Chemscore.Lipo.Weighted>
-11.8409

> <Gold.Chemscore.Internal_Hbond.Weighted>
0.0000

> <Gold.Chemscore.DEClash.Weighted>
0.3472

> <Gold.Chemscore.DEInternal.Weighted>
1.4264

> <Gold.Chemscore.Rot.Weighted>
4.2364

> <Gold.Chemscore.Internal.Correction.Weighted>
   9.000000E+99

> <Gold.Protein.RotatedTorsions>
[ 6907 6896 6895 6894 ] final  -29.19 input  -60.11 | X-H torsion
[ 7974 7965 7964 7962 ] final  -24.59 input  175.53 | X-H torsion
[ 8008 7997 7996 7995 ] final   83.64 input   59.86 | X-H torsion
[ 10167 10162 10161 10158 ] final -131.14 input  -65.29 | X-H torsion
[ 10718 10713 10712 10709 ] final   29.05 input   66.30 | X-H torsion
[ 10763 10752 10751 10750 ] final   97.55 input  -60.55 | X-H torsion
[ 11005 11000 10999 10996 ] final   19.68 input  -57.11 | X-H torsion

> <Gold.Protein.ActiveResidues>
 VAL166  LYS551  ARG553  GLY616  TRP617  ASP618  TYR619  PRO620  LYS621  CYS622 
 ASP623  PHE694  ASN695  SER759  ASP760  ASP761  ALA762  ILE779  LEU786  VAL792 
 PHE793  MET794  SER795  GLU796  ALA797  LYS798  CYS799  TRP800  GLU811  SER814 

> <Gold.Protein.RotatedAtoms>
  151.1227  135.0088  159.8545 H   0  0  0  0  0  0  0  0  0  0  0  0  # atno 6907 bound_to 6896
  152.5448  134.1704  159.8604 H   0  0  0  0  0  0  0  0  0  0  0  0  # atno 6908 bound_to 6896
  151.1763  133.4707  159.2627 H   0  0  0  0  0  0  0  0  0  0  0  0  # atno 6909 bound_to 6896
  146.1545  140.4773  142.8597 H   0  0  0  0  0  0  0  0  0  0  0  0  # atno 7974 bound_to 7965
  155.9265  140.3418  155.6215 H   0  0  0  0  0  0  0  0  0  0  0  0  # atno 8008 bound_to 7997
  155.7209  140.0783  157.2349 H   0  0  0  0  0  0  0  0  0  0  0  0  # atno 8009 bound_to 7997
  154.4078  140.1605  156.2389 H   0  0  0  0  0  0  0  0  0  0  0  0  # atno 8010 bound_to 7997
  139.9220  143.6371  152.2551 H   0  0  0  0  0  0  0  0  0  0  0  0  # atno 10167 bound_to 10162
  157.2415  130.7071  149.6361 H   0  0  0  0  0  0  0  0  0  0  0  0  # atno 10718 bound_to 10713
  153.2783  135.4179  155.1054 H   0  0  0  0  0  0  0  0  0  0  0  0  # atno 10763 bound_to 10752
  154.8480  135.3489  154.6148 H   0  0  0  0  0  0  0  0  0  0  0  0  # atno 10764 bound_to 10752
  153.6568  135.7050  153.5248 H   0  0  0  0  0  0  0  0  0  0  0  0  # atno 10765 bound_to 10752
  140.4110  134.1618  155.7667 H   0  0  0  0  0  0  0  0  0  0  0  0  # atno 11005 bound_to 11000
  144.7945  140.6096  143.6519 LP  0  0  0  0  0  0  0  0  0  0  0  0  # atno 17320 bound_to 7965
  145.4743  139.1500  143.3797 LP  0  0  0  0  0  0  0  0  0  0  0  0  # atno 17321 bound_to 7965
  139.6853  144.7652  151.1535 LP  0  0  0  0  0  0  0  0  0  0  0  0  # atno 17342 bound_to 10162
  140.7659  143.5666  150.9041 LP  0  0  0  0  0  0  0  0  0  0  0  0  # atno 17343 bound_to 10162
  155.9670  130.4456  150.5510 LP  0  0  0  0  0  0  0  0  0  0  0  0  # atno 17370 bound_to 10713
  157.3374  131.0710  151.1814 LP  0  0  0  0  0  0  0  0  0  0  0  0  # atno 17371 bound_to 10713
  141.1821  133.8392  157.1221 LP  0  0  0  0  0  0  0  0  0  0  0  0  # atno 17394 bound_to 11000
  140.0267  134.9920  157.0700 LP  0  0  0  0  0  0  0  0  0  0  0  0  # atno 17395 bound_to 11000

$$$$
