AV-unprocessed.smi:3090|AV-procd|sdf|11775|dock6
  -GOLD-   2272017153D 1   1.00000     0.00000
 Structure written by MMmdl.
 22 22  0  0  0  0  0  0  0  0  2 V2000
  151.9280  142.6573  158.0487 C   0  0  0  0  0  0  0  0  0  0  0  0
  151.3214  141.7153  157.1328 N   0  0  0  0  0  0  0  0  0  0  0  0
  150.4099  141.9573  156.1281 C   0  0  0  0  0  0  0  0  0  0  0  0
  150.1260  140.7593  155.5318 C   0  0  0  0  0  0  0  0  0  0  0  0
  149.2021  140.4606  154.3806 C   0  0  1  0  0  0  0  0  0  0  0  0
  149.6608  141.0562  153.1830 O   0  0  0  0  0  0  0  0  0  0  0  0
  149.0875  138.9425  154.1569 C   0  0  0  0  0  0  0  0  0  0  0  0
  148.2714  138.6233  152.9725 N   0  3  0  0  0  0  0  0  0  0  0  0
  150.9306  139.8345  156.2577 C   0  0  0  0  0  0  0  0  0  0  0  0
  151.6433  140.4085  157.2128 N   0  0  0  0  0  0  0  0  0  0  0  0
  151.5627  143.6646  157.8466 H   0  0  0  0  0  0  0  0  0  0  0  0
  153.0118  142.6433  157.9293 H   0  0  0  0  0  0  0  0  0  0  0  0
  151.6763  142.3889  159.0751 H   0  0  0  0  0  0  0  0  0  0  0  0
  150.0422  142.9518  155.9213 H   0  0  0  0  0  0  0  0  0  0  0  0
  148.2104  140.8664  154.5849 H   0  0  0  0  0  0  0  0  0  0  0  0
  149.8512  140.3706  152.5601 H   0  0  0  0  0  0  0  0  0  0  0  0
  150.0743  138.4912  154.0440 H   0  0  0  0  0  0  0  0  0  0  0  0
  148.6192  138.4716  155.0220 H   0  0  0  0  0  0  0  0  0  0  0  0
  148.2825  137.6261  152.8122 H   0  0  0  0  0  0  0  0  0  0  0  0
  148.6549  139.0992  152.1681 H   0  0  0  0  0  0  0  0  0  0  0  0
  151.0177  138.7670  156.1172 H   0  0  0  0  0  0  0  0  0  0  0  0
  147.3217  138.9315  153.1239 H   0  0  0  0  0  0  0  0  0  0  0  0
  1  2  1  0  0  0  0
  1 11  1  0  0  0  0
  1 12  1  0  0  0  0
  1 13  1  0  0  0  0
  2 10  1  0  0  0  0
  2  3  1  0  0  0  0
  3  4  2  0  0  0  0
  3 14  1  0  0  0  0
  4  5  1  0  0  0  0
  4  9  1  0  0  0  0
  5  6  1  0  0  0  0
  5  7  1  0  0  0  0
  5 15  1  0  0  0  0
  6 16  1  0  0  0  0
  7  8  1  0  0  0  0
  7 17  1  0  0  0  0
  7 18  1  0  0  0  0
  8 19  1  0  0  0  0
  8 20  1  0  0  0  0
  8 22  1  0  0  0  0
  9 10  2  0  0  0  0
  9 21  1  0  0  0  0
M  CHG  1   8   1
M  END
> <s_m_source_file>
AV-unprocessed.smi

> <i_m_source_file_index>
3090

> <i_lp_mmshare_version>
43012

> <i_f3d_flags>
0

> <s_epik_input>
W0NIM11uMVtjSF1jKFtjSF1uMSlbQ0BIXShbT0hdKVtDSDJdW05IMl0=

> <s_epik_cmdline>
J2VwaWtfcHl0aG9uJywgJy1waCcsICc3LjAnLCAnLXRuJywgJzgnLCAnLW1hJywgJzIwMCcsICctbWV0YWxfYmluZGluZycsICctaW1hZScsICc8aW5maWxlLm1hZT4nLCAnLW9tYWUnLCAnPG91dGZpbGUubWFlPic=

> <r_lp_tautomer_probability>
1

> <r_epik_Ionization_Penalty>
0.014056

> <r_epik_Ionization_Penalty_Charging>
0.0140431

> <r_epik_Ionization_Penalty_Neutral>
1.29738e-05

> <r_epik_State_Penalty>
0.0109628

> <r_epik_Charging_Adjusted_Penalty>
0.0250059

> <i_epik_Tot_Q>
1

> <i_epik_Tot_abs_Q>
1

> <r_epik_Metal_State_Penalty>
0.0109636

> <b_epik_Metal_Only>
0

> <s_lp_Force_Field>
OPLS_2005

> <r_lp_Energy>
1.35566

> <b_lp_Chiralities_Consistent>
1

> <s_lp_Variant>
AV-unprocessed.smi:3090-2

> <Gold.Version>
5.8.1

> <Gold.Id.Protein>
6NUR|6NUR_protein|mol2

> <Gold.PLP.Fitness>
37.7953

> <Gold.PLP.PLP>
-21.0502

> <Gold.PLP.part.hbond>
-4.3408

> <Gold.PLP.part.metal>
0.0000

> <Gold.PLP.part.buried>
-1.5242

> <Gold.PLP.part.nonpolar>
-14.3706

> <Gold.PLP.part.repulsive>
0.0651

> <Gold.PLP.ligand.clash>
0.0000

> <Gold.PLP.ligand.torsion>
0.0923

> <Gold.PLP.Chemscore.Hbond>
4.6424

> <Gold.PLP.Chemscore.CHOScore>
1.0000

> <Gold.PLP.Chemscore.Metal>
0.0000

> <Gold.Chemscore.Hbonds>
donor molecule, donor type, donor heavy atom, donor atom, acceptor molecule, acceptor atom, score
      L1  H     6    16       P1  7957  0.65
      L1  H     8    19       P1  7948  1.86
      L1  H     8    20       P1  7957  1.00
      P1  H  8011  8017       L1     6  1.00
      L1  C     3    14       P1  8028  1.00

> <Gold.PLP.Chemscore.Internal.Correction>
0.0024

> <Gold.Rescore>
     Score         DG    S(hbond)    S(metal)    S(lipo)     H(rot)  DE(clash)    DE(int)     intcor
     15.48     -15.56       2.98        0.00      43.73       1.96       0.05       0.02       ----

> <Gold.Chemscore.Fitness>
15.4835

> <Gold.Chemscore.DG>
-15.5558

> <Gold.Chemscore.ZeroCoef>
-5.4800

> <Gold.Chemscore.Hbond>
2.9832

> <Gold.Chemscore.Metal>
0.0000

> <Gold.Chemscore.Lipo>
43.7344

> <Gold.Chemscore.Internal_Hbond>
0.0000

> <Gold.Chemscore.DEClash>
0.0481

> <Gold.Chemscore.DEInternal>
0.0242

> <Gold.Chemscore.Rot>
1.9551

> <Gold.Chemscore.Internal.Correction>
   9.000000E+99

> <Gold.Chemscore.Hbonds>
donor molecule, donor type, donor heavy atom, donor atom, acceptor molecule, acceptor atom, score
      L1  H     6    16       P1  7957  0.63
      L1  H     8    19       P1  7948  0.90
      L1  H     8    20       P1  7957  0.99
      P1  H  8011  8017       L1     6  0.44

> <Gold.Chemscore.Hbond.Weighted>
-9.9640

> <Gold.Chemscore.Metal.Weighted>
-0.0000

> <Gold.Chemscore.Lipo.Weighted>
-5.1169

> <Gold.Chemscore.Internal_Hbond.Weighted>
0.0000

> <Gold.Chemscore.DEClash.Weighted>
0.0481

> <Gold.Chemscore.DEInternal.Weighted>
0.0242

> <Gold.Chemscore.Rot.Weighted>
5.0051

> <Gold.Chemscore.Internal.Correction.Weighted>
   9.000000E+99

> <Gold.Protein.RotatedTorsions>
[ 6907 6896 6895 6894 ] final   26.07 input  -60.11 | X-H torsion
[ 7974 7965 7964 7962 ] final  -99.49 input  175.53 | X-H torsion
[ 8008 7997 7996 7995 ] final -150.29 input   59.86 | X-H torsion
[ 10167 10162 10161 10158 ] final   15.37 input  -65.29 | X-H torsion
[ 10718 10713 10712 10709 ] final  -97.13 input   66.30 | X-H torsion
[ 10763 10752 10751 10750 ] final  -39.73 input  -60.55 | X-H torsion
[ 11005 11000 10999 10996 ] final   65.54 input  -57.11 | X-H torsion

> <Gold.Protein.ActiveResidues>
 VAL166  LYS551  ARG553  GLY616  TRP617  ASP618  TYR619  PRO620  LYS621  CYS622 
 ASP623  PHE694  ASN695  SER759  ASP760  ASP761  ALA762  ILE779  LEU786  VAL792 
 PHE793  MET794  SER795  GLU796  ALA797  LYS798  CYS799  TRP800  GLU811  SER814 

> <Gold.Protein.RotatedAtoms>
  151.9820  135.0023  160.0557 H   0  0  0  0  0  0  0  0  0  0  0  0  # atno 6907 bound_to 6896
  152.1687  133.4625  159.4906 H   0  0  0  0  0  0  0  0  0  0  0  0  # atno 6908 bound_to 6896
  150.6898  134.1898  159.4323 H   0  0  0  0  0  0  0  0  0  0  0  0  # atno 6909 bound_to 6896
  145.3068  140.9391  143.2792 H   0  0  0  0  0  0  0  0  0  0  0  0  # atno 7974 bound_to 7965
  155.6212  140.0682  157.2677 H   0  0  0  0  0  0  0  0  0  0  0  0  # atno 8008 bound_to 7997
  154.4228  140.1784  156.1423 H   0  0  0  0  0  0  0  0  0  0  0  0  # atno 8009 bound_to 7997
  156.0007  140.3336  155.6846 H   0  0  0  0  0  0  0  0  0  0  0  0  # atno 8010 bound_to 7997
  140.5871  143.8867  150.6840 H   0  0  0  0  0  0  0  0  0  0  0  0  # atno 10167 bound_to 10162
  156.0077  130.5181  150.6328 H   0  0  0  0  0  0  0  0  0  0  0  0  # atno 10718 bound_to 10713
  153.9342  135.6768  153.4745 H   0  0  0  0  0  0  0  0  0  0  0  0  # atno 10763 bound_to 10752
  153.0964  135.4849  154.8783 H   0  0  0  0  0  0  0  0  0  0  0  0  # atno 10764 bound_to 10752
  154.7412  135.3161  154.8683 H   0  0  0  0  0  0  0  0  0  0  0  0  # atno 10765 bound_to 10752
  139.9888  134.6624  156.0128 H   0  0  0  0  0  0  0  0  0  0  0  0  # atno 11005 bound_to 11000
  144.9048  139.4603  143.6615 LP  0  0  0  0  0  0  0  0  0  0  0  0  # atno 17320 bound_to 7965
  146.3132  139.7823  142.9003 LP  0  0  0  0  0  0  0  0  0  0  0  0  # atno 17321 bound_to 7965
  140.2381  143.3684  152.1509 LP  0  0  0  0  0  0  0  0  0  0  0  0  # atno 17342 bound_to 10162
  139.5204  144.7033  151.5429 LP  0  0  0  0  0  0  0  0  0  0  0  0  # atno 17343 bound_to 10162
  157.4123  131.0825  151.1209 LP  0  0  0  0  0  0  0  0  0  0  0  0  # atno 17370 bound_to 10713
  157.1837  130.6321  149.5680 LP  0  0  0  0  0  0  0  0  0  0  0  0  # atno 17371 bound_to 10713
  141.1548  133.6544  156.4127 LP  0  0  0  0  0  0  0  0  0  0  0  0  # atno 17394 bound_to 11000
  140.4949  134.6540  157.5225 LP  0  0  0  0  0  0  0  0  0  0  0  0  # atno 17395 bound_to 11000

$$$$
