AV-unprocessed.smi:3340|AV-procd|sdf|12882|dock9
  -GOLD-   2272019283D 1   1.00000     0.00000
 Structure written by MMmdl.
 41 42  0  0  0  0  0  0  0  0  1 V2000
  147.1747  140.7746  153.2452 C   0  0  0  0  0  0  0  0  0  0  0  0
  147.4076  141.3192  154.6563 C   0  0  0  0  0  0  0  0  0  0  0  0
  146.4581  141.8504  155.2332 O   0  0  0  0  0  0  0  0  0  0  0  0
  148.6344  141.2019  155.2196 N   0  0  0  0  0  0  0  0  0  0  0  0
  149.7560  140.5252  154.5503 C   0  0  0  0  0  0  0  0  0  0  0  0
  150.1641  139.2898  155.3776 C   0  0  0  0  0  0  0  0  0  0  0  0
  150.5339  139.7275  156.7375 N   0  0  0  0  0  0  0  0  0  0  0  0
  151.7724  139.6867  157.2914 C   0  0  0  0  0  0  0  0  0  0  0  0
  152.8019  139.5725  156.6257 O   0  0  0  0  0  0  0  0  0  0  0  0
  151.7906  139.8046  158.6321 N   0  0  0  0  0  0  0  0  0  0  0  0
  152.9595  139.8275  159.5164 C   0  0  1  0  0  0  0  0  0  0  0  0
  153.8989  138.6402  159.2424 C   0  0  0  0  0  0  0  0  0  0  0  0
  153.7027  141.1823  159.4913 C   0  0  0  0  0  0  0  0  0  0  0  0
  153.1786  142.1198  160.4674 N   0  0  0  0  0  0  0  0  0  0  0  0
  153.3253  142.0624  161.8472 C   0  0  0  0  0  0  0  0  0  0  0  0
  152.6670  143.1579  162.3583 C   0  0  0  0  0  0  0  0  0  0  0  0
  152.1096  143.8975  161.3175 N   0  0  0  0  0  0  0  0  0  0  0  0
  152.4517  143.2199  160.2292 C   0  0  0  0  0  0  0  0  0  0  0  0
  149.4011  140.3889  157.4033 C   0  0  0  0  0  0  0  0  0  0  0  0
  148.9922  141.6282  156.5821 C   0  0  0  0  0  0  0  0  0  0  0  0
  147.8259  141.2723  152.5261 H   0  0  0  0  0  0  0  0  0  0  0  0
  146.1440  140.9451  152.9326 H   0  0  0  0  0  0  0  0  0  0  0  0
  147.3593  139.7005  153.2098 H   0  0  0  0  0  0  0  0  0  0  0  0
  149.5172  140.2167  153.5317 H   0  0  0  0  0  0  0  0  0  0  0  0
  150.5950  141.2176  154.4653 H   0  0  0  0  0  0  0  0  0  0  0  0
  149.3280  138.5922  155.4442 H   0  0  0  0  0  0  0  0  0  0  0  0
  150.9511  138.7489  154.8529 H   0  0  0  0  0  0  0  0  0  0  0  0
  150.8952  139.9005  159.0885 H   0  0  0  0  0  0  0  0  0  0  0  0
  152.5632  139.6888  160.5230 H   0  0  0  0  0  0  0  0  0  0  0  0
  154.6905  138.5905  159.9903 H   0  0  0  0  0  0  0  0  0  0  0  0
  154.3775  138.7169  158.2660 H   0  0  0  0  0  0  0  0  0  0  0  0
  153.3577  137.6941  159.2759 H   0  0  0  0  0  0  0  0  0  0  0  0
  154.7605  141.0294  159.7086 H   0  0  0  0  0  0  0  0  0  0  0  0
  153.6591  141.6424  158.5036 H   0  0  0  0  0  0  0  0  0  0  0  0
  153.8738  141.2707  162.3364 H   0  0  0  0  0  0  0  0  0  0  0  0
  152.5531  143.4686  163.3865 H   0  0  0  0  0  0  0  0  0  0  0  0
  152.1710  143.5337  159.2346 H   0  0  0  0  0  0  0  0  0  0  0  0
  148.5667  139.6897  157.4753 H   0  0  0  0  0  0  0  0  0  0  0  0
  149.6269  140.6877  158.4277 H   0  0  0  0  0  0  0  0  0  0  0  0
  149.8233  142.3330  156.5276 H   0  0  0  0  0  0  0  0  0  0  0  0
  148.1934  142.1559  157.1005 H   0  0  0  0  0  0  0  0  0  0  0  0
  1  2  1  0  0  0  0
  1 21  1  0  0  0  0
  1 22  1  0  0  0  0
  1 23  1  0  0  0  0
  2  3  2  0  0  0  0
  2  4  1  0  0  0  0
  4 20  1  0  0  0  0
  4  5  1  0  0  0  0
  5  6  1  0  0  0  0
  5 24  1  0  0  0  0
  5 25  1  0  0  0  0
  6  7  1  0  0  0  0
  6 26  1  0  0  0  0
  6 27  1  0  0  0  0
  7  8  1  0  0  0  0
  7 19  1  0  0  0  0
  8  9  2  0  0  0  0
  8 10  1  0  0  0  0
 10 11  1  0  0  0  0
 10 28  1  0  0  0  0
 11 12  1  0  0  0  0
 11 13  1  0  0  0  0
 11 29  1  0  0  0  0
 12 30  1  0  0  0  0
 12 31  1  0  0  0  0
 12 32  1  0  0  0  0
 13 14  1  0  0  0  0
 13 33  1  0  0  0  0
 13 34  1  0  0  0  0
 14 18  1  0  0  0  0
 14 15  1  0  0  0  0
 15 16  2  0  0  0  0
 15 35  1  0  0  0  0
 16 17  1  0  0  0  0
 16 36  1  0  0  0  0
 17 18  2  0  0  0  0
 18 37  1  0  0  0  0
 19 20  1  0  0  0  0
 19 38  1  0  0  0  0
 19 39  1  0  0  0  0
 20 40  1  0  0  0  0
 20 41  1  0  0  0  0
M  END
> <s_m_source_file>
AV-unprocessed.smi

> <i_m_source_file_index>
3340

> <i_lp_mmshare_version>
43012

> <i_f3d_flags>
0

> <s_epik_input>
W0NIM11DKD1PKU4xW0NIMl1bQ0gyXU4oW0NIMl1bQ0gyXTEpQyg9TylbTkhdW0NASF0oW0NIM10pW0NIMl1uMltjSF1bY0hdbltjSF0y

> <s_epik_cmdline>
J2VwaWtfcHl0aG9uJywgJy1waCcsICc3LjAnLCAnLXRuJywgJzgnLCAnLW1hJywgJzIwMCcsICctbWV0YWxfYmluZGluZycsICctaW1hZScsICc8aW5maWxlLm1hZT4nLCAnLW9tYWUnLCAnPG91dGZpbGUubWFlPic=

> <r_lp_tautomer_probability>
1

> <r_epik_Ionization_Penalty>
0.622948

> <r_epik_Ionization_Penalty_Charging>
0.622904

> <r_epik_Ionization_Penalty_Neutral>
4.39259e-05

> <r_epik_State_Penalty>
0.639086

> <r_epik_Charging_Adjusted_Penalty>
1.26199

> <i_epik_Tot_Q>
0

> <i_epik_Tot_abs_Q>
0

> <r_epik_Metal_State_Penalty>
0.307185

> <b_epik_Metal_Only>
0

> <s_lp_Force_Field>
OPLS_2005

> <r_lp_Energy>
50.7734

> <b_lp_Chiralities_Consistent>
1

> <s_lp_Variant>
AV-unprocessed.smi:3340-4

> <Gold.Version>
5.8.1

> <Gold.Id.Protein>
6NUR|6NUR_protein|mol2

> <Gold.PLP.Fitness>
40.1033

> <Gold.PLP.PLP>
-38.8173

> <Gold.PLP.part.hbond>
-1.0000

> <Gold.PLP.part.metal>
0.0000

> <Gold.PLP.part.buried>
-4.1835

> <Gold.PLP.part.nonpolar>
-33.4706

> <Gold.PLP.part.repulsive>
0.3934

> <Gold.PLP.ligand.clash>
0.0106

> <Gold.PLP.ligand.torsion>
0.8885

> <Gold.PLP.Chemscore.Hbond>
1.0000

> <Gold.PLP.Chemscore.CHOScore>
0.0000

> <Gold.PLP.Chemscore.Metal>
0.0000

> <Gold.Chemscore.Hbonds>
donor molecule, donor type, donor heavy atom, donor atom, acceptor molecule, acceptor atom, score
      P1  H  7997  8008       L1     9  1.00

> <Gold.PLP.Chemscore.Internal.Correction>
0.0736

> <Gold.Rescore>
     Score         DG    S(hbond)    S(metal)    S(lipo)     H(rot)  DE(clash)    DE(int)     intcor
     11.44     -13.39       1.00        0.00      75.12       1.65       0.04       1.91       ----

> <Gold.Chemscore.Fitness>
11.4362

> <Gold.Chemscore.DG>
-13.3913

> <Gold.Chemscore.ZeroCoef>
-5.4800

> <Gold.Chemscore.Hbond>
0.9995

> <Gold.Chemscore.Metal>
0.0000

> <Gold.Chemscore.Lipo>
75.1238

> <Gold.Chemscore.Internal_Hbond>
0.0000

> <Gold.Chemscore.DEClash>
0.0421

> <Gold.Chemscore.DEInternal>
1.9130

> <Gold.Chemscore.Rot>
1.6471

> <Gold.Chemscore.Internal.Correction>
   9.000000E+99

> <Gold.Chemscore.Hbonds>
donor molecule, donor type, donor heavy atom, donor atom, acceptor molecule, acceptor atom, score
      P1  H  7997  8008       L1     9  0.99

> <Gold.Chemscore.Hbond.Weighted>
-3.3384

> <Gold.Chemscore.Metal.Weighted>
-0.0000

> <Gold.Chemscore.Lipo.Weighted>
-8.7895

> <Gold.Chemscore.Internal_Hbond.Weighted>
0.0000

> <Gold.Chemscore.DEClash.Weighted>
0.0421

> <Gold.Chemscore.DEInternal.Weighted>
1.9130

> <Gold.Chemscore.Rot.Weighted>
4.2166

> <Gold.Chemscore.Internal.Correction.Weighted>
   9.000000E+99

> <Gold.Protein.RotatedTorsions>
[ 6907 6896 6895 6894 ] final   14.06 input  -60.11 | X-H torsion
[ 7974 7965 7964 7962 ] final   99.74 input  175.53 | X-H torsion
[ 8008 7997 7996 7995 ] final  -38.34 input   59.86 | X-H torsion
[ 10167 10162 10161 10158 ] final  -98.44 input  -65.29 | X-H torsion
[ 10718 10713 10712 10709 ] final    9.42 input   66.30 | X-H torsion
[ 10763 10752 10751 10750 ] final  -54.70 input  -60.55 | X-H torsion
[ 11005 11000 10999 10996 ] final   59.30 input  -57.11 | X-H torsion

> <Gold.Protein.ActiveResidues>
 VAL166  LYS551  ARG553  GLY616  TRP617  ASP618  TYR619  PRO620  LYS621  CYS622 
 ASP623  PHE694  ASN695  SER759  ASP760  ASP761  ALA762  ILE779  LEU786  VAL792 
 PHE793  MET794  SER795  GLU796  ALA797  LYS798  CYS799  TRP800  GLU811  SER814 

> <Gold.Protein.RotatedAtoms>
  151.7962  135.0722  160.0393 H   0  0  0  0  0  0  0  0  0  0  0  0  # atno 6907 bound_to 6896
  152.3121  133.5759  159.5696 H   0  0  0  0  0  0  0  0  0  0  0  0  # atno 6908 bound_to 6896
  150.7325  134.0053  159.3693 H   0  0  0  0  0  0  0  0  0  0  0  0  # atno 6909 bound_to 6896
  145.3949  139.2357  143.3332 H   0  0  0  0  0  0  0  0  0  0  0  0  # atno 7974 bound_to 7965
  154.4038  140.1580  156.2684 H   0  0  0  0  0  0  0  0  0  0  0  0  # atno 8008 bound_to 7997
  155.8975  140.3435  155.5979 H   0  0  0  0  0  0  0  0  0  0  0  0  # atno 8009 bound_to 7997
  155.7487  140.0802  157.2202 H   0  0  0  0  0  0  0  0  0  0  0  0  # atno 8010 bound_to 7997
  140.2729  143.3332  152.0517 H   0  0  0  0  0  0  0  0  0  0  0  0  # atno 10167 bound_to 10162
  156.9661  130.5951  149.5665 H   0  0  0  0  0  0  0  0  0  0  0  0  # atno 10718 bound_to 10713
  154.1790  135.6446  153.5029 H   0  0  0  0  0  0  0  0  0  0  0  0  # atno 10763 bound_to 10752
  153.0064  135.5401  154.6534 H   0  0  0  0  0  0  0  0  0  0  0  0  # atno 10764 bound_to 10752
  154.5893  135.2932  155.0625 H   0  0  0  0  0  0  0  0  0  0  0  0  # atno 10765 bound_to 10752
  140.0314  134.6007  155.9502 H   0  0  0  0  0  0  0  0  0  0  0  0  # atno 11005 bound_to 11000
  146.2780  140.4637  142.8788 LP  0  0  0  0  0  0  0  0  0  0  0  0  # atno 17320 bound_to 7965
  144.8414  140.6863  143.6227 LP  0  0  0  0  0  0  0  0  0  0  0  0  # atno 17321 bound_to 7965
  139.4984  144.6644  151.6390 LP  0  0  0  0  0  0  0  0  0  0  0  0  # atno 17342 bound_to 10162
  140.5875  143.9838  150.6304 LP  0  0  0  0  0  0  0  0  0  0  0  0  # atno 17343 bound_to 10162
  156.0302  130.5394  150.8514 LP  0  0  0  0  0  0  0  0  0  0  0  0  # atno 17370 bound_to 10713
  157.5625  131.0946  150.9539 LP  0  0  0  0  0  0  0  0  0  0  0  0  # atno 17371 bound_to 10713
  141.1833  133.6550  156.5110 LP  0  0  0  0  0  0  0  0  0  0  0  0  # atno 17394 bound_to 11000
  140.4220  134.7179  157.4895 LP  0  0  0  0  0  0  0  0  0  0  0  0  # atno 17395 bound_to 11000

$$$$
