AV-unprocessed.smi:944|AV-procd|sdf|4232|dock5
  -GOLD-   22720 2143D 1   1.00000     0.00000
 Structure written by MMmdl.
 28 28  0  0  0  0  0  0  0  0  1 V2000
  144.4477  139.0939  155.6503 C   0  0  0  0  0  0  0  0  0  0  0  0
  144.8431  138.9300  154.2599 N   0  0  0  0  0  0  0  0  0  0  0  0
  145.3134  137.7880  153.7389 C   0  0  0  0  0  0  0  0  0  0  0  0
  145.4646  136.7592  154.4001 O   0  0  0  0  0  0  0  0  0  0  0  0
  145.6848  137.8242  152.2469 C   0  0  1  0  0  0  0  0  0  0  0  0
  146.7965  138.8699  152.0592 C   0  0  0  0  0  0  0  0  0  0  0  0
  146.2063  136.5289  151.8126 N   0  0  0  0  0  0  0  0  0  0  0  0
  145.4624  135.4474  151.5318 C   0  0  0  0  0  0  0  0  0  0  0  0
  144.2319  135.4435  151.5901 O   0  0  0  0  0  0  0  0  0  0  0  0
  146.2373  134.1898  151.1222 C   0  0  0  0  0  0  0  0  0  0  0  0
  145.3609  133.0741  150.8063 N   0  0  0  0  0  0  0  0  0  0  0  0
  144.5130  132.8958  149.7911 C   0  0  0  0  0  0  0  0  0  0  0  0
  143.8676  131.7383  149.8291 N   0  0  0  0  0  0  0  0  0  0  0  0
  144.4022  131.2170  150.9735 C   0  0  0  0  0  0  0  0  0  0  0  0
  145.2989  131.9790  151.6002 N   0  0  0  0  0  0  0  0  0  0  0  0
  144.0922  140.1103  155.8184 H   0  0  0  0  0  0  0  0  0  0  0  0
  145.2912  138.9129  156.3180 H   0  0  0  0  0  0  0  0  0  0  0  0
  143.6433  138.4039  155.9092 H   0  0  0  0  0  0  0  0  0  0  0  0
  144.7501  139.7329  153.6544 H   0  0  0  0  0  0  0  0  0  0  0  0
  144.8156  138.1004  151.6464 H   0  0  0  0  0  0  0  0  0  0  0  0
  146.4663  139.8615  152.3721 H   0  0  0  0  0  0  0  0  0  0  0  0
  147.0873  138.9424  151.0108 H   0  0  0  0  0  0  0  0  0  0  0  0
  147.6910  138.6206  152.6326 H   0  0  0  0  0  0  0  0  0  0  0  0
  147.2100  136.4447  151.7439 H   0  0  0  0  0  0  0  0  0  0  0  0
  146.8624  134.4174  150.2575 H   0  0  0  0  0  0  0  0  0  0  0  0
  146.9027  133.8822  151.9304 H   0  0  0  0  0  0  0  0  0  0  0  0
  144.3671  133.6261  149.0084 H   0  0  0  0  0  0  0  0  0  0  0  0
  144.1194  130.2481  151.3583 H   0  0  0  0  0  0  0  0  0  0  0  0
  1  2  1  0  0  0  0
  1 16  1  0  0  0  0
  1 17  1  0  0  0  0
  1 18  1  0  0  0  0
  2  3  1  0  0  0  0
  2 19  1  0  0  0  0
  3  4  2  0  0  0  0
  3  5  1  0  0  0  0
  5  6  1  0  0  0  0
  5  7  1  0  0  0  0
  5 20  1  0  0  0  0
  6 21  1  0  0  0  0
  6 22  1  0  0  0  0
  6 23  1  0  0  0  0
  7  8  1  0  0  0  0
  7 24  1  0  0  0  0
  8  9  2  0  0  0  0
  8 10  1  0  0  0  0
 10 11  1  0  0  0  0
 10 25  1  0  0  0  0
 10 26  1  0  0  0  0
 11 15  1  0  0  0  0
 11 12  1  0  0  0  0
 12 13  2  0  0  0  0
 12 27  1  0  0  0  0
 13 14  1  0  0  0  0
 14 15  2  0  0  0  0
 14 28  1  0  0  0  0
M  END
> <s_m_source_file>
AV-unprocessed.smi

> <i_m_source_file_index>
944

> <i_lp_mmshare_version>
43012

> <i_f3d_flags>
0

> <s_epik_input>
W0NIM11bTkhdQyg9TylbQ0BIXShbQ0gzXSlbTkhdQyg9TylbQ0gyXW4xW2NIXW5bY0hdbjE=

> <s_epik_cmdline>
J2VwaWtfcHl0aG9uJywgJy1waCcsICc3LjAnLCAnLXRuJywgJzgnLCAnLW1hJywgJzIwMCcsICctbWV0YWxfYmluZGluZycsICctaW1hZScsICc8aW5maWxlLm1hZT4nLCAnLW9tYWUnLCAnPG91dGZpbGUubWFlPic=

> <r_lp_tautomer_probability>
1

> <r_epik_Ionization_Penalty>
7.54354e-06

> <r_epik_Ionization_Penalty_Charging>
0

> <r_epik_Ionization_Penalty_Neutral>
7.54354e-06

> <r_epik_State_Penalty>
-0

> <r_epik_Charging_Adjusted_Penalty>
0

> <i_epik_Tot_Q>
0

> <i_epik_Tot_abs_Q>
0

> <r_epik_Metal_State_Penalty>
-0

> <b_epik_Metal_Only>
0

> <s_lp_Force_Field>
OPLS_2005

> <r_lp_Energy>
4.79019

> <b_lp_Chiralities_Consistent>
1

> <s_lp_Variant>
AV-unprocessed.smi:944-2

> <Gold.Version>
5.8.1

> <Gold.Id.Protein>
6NUR|6NUR_protein|mol2

> <Gold.PLP.Fitness>
33.4565

> <Gold.PLP.PLP>
-23.2065

> <Gold.PLP.part.hbond>
-3.0000

> <Gold.PLP.part.metal>
0.0000

> <Gold.PLP.part.buried>
-3.7020

> <Gold.PLP.part.nonpolar>
-17.7249

> <Gold.PLP.part.repulsive>
0.5704

> <Gold.PLP.ligand.clash>
0.0000

> <Gold.PLP.ligand.torsion>
0.3078

> <Gold.PLP.Chemscore.Hbond>
2.6800

> <Gold.PLP.Chemscore.CHOScore>
0.9365

> <Gold.PLP.Chemscore.Metal>
0.0000

> <Gold.Chemscore.Hbonds>
donor molecule, donor type, donor heavy atom, donor atom, acceptor molecule, acceptor atom, score
      L1  H     2    19       P1 10175  0.85
      L1  H     7    24       P1  7948  1.00
      P1  H 10785 10796       L1    13  0.80
      L1  C    12    27       P1  7921  0.96

> <Gold.PLP.Chemscore.Internal.Correction>
0.0160

> <Gold.Rescore>
     Score         DG    S(hbond)    S(metal)    S(lipo)     H(rot)  DE(clash)    DE(int)     intcor
      9.81     -10.34       2.74        0.00      23.26       2.74       0.17       0.36       ----

> <Gold.Chemscore.Fitness>
9.8093

> <Gold.Chemscore.DG>
-10.3376

> <Gold.Chemscore.ZeroCoef>
-5.4800

> <Gold.Chemscore.Hbond>
2.7415

> <Gold.Chemscore.Metal>
0.0000

> <Gold.Chemscore.Lipo>
23.2643

> <Gold.Chemscore.Internal_Hbond>
0.0000

> <Gold.Chemscore.DEClash>
0.1706

> <Gold.Chemscore.DEInternal>
0.3578

> <Gold.Chemscore.Rot>
2.7426

> <Gold.Chemscore.Internal.Correction>
   9.000000E+99

> <Gold.Chemscore.Hbonds>
donor molecule, donor type, donor heavy atom, donor atom, acceptor molecule, acceptor atom, score
      L1  H     2    19       P1 10175  0.83
      L1  H     7    24       P1  7948  1.00
      P1  H 10785 10796       L1    13  0.38

> <Gold.Chemscore.Hbond.Weighted>
-9.1566

> <Gold.Chemscore.Metal.Weighted>
-0.0000

> <Gold.Chemscore.Lipo.Weighted>
-2.7219

> <Gold.Chemscore.Internal_Hbond.Weighted>
0.0000

> <Gold.Chemscore.DEClash.Weighted>
0.1706

> <Gold.Chemscore.DEInternal.Weighted>
0.3578

> <Gold.Chemscore.Rot.Weighted>
7.0210

> <Gold.Chemscore.Internal.Correction.Weighted>
   9.000000E+99

> <Gold.Protein.RotatedTorsions>
[ 6907 6896 6895 6894 ] final   30.28 input  -60.11 | X-H torsion
[ 7974 7965 7964 7962 ] final  149.54 input  175.53 | X-H torsion
[ 8008 7997 7996 7995 ] final  143.46 input   59.86 | X-H torsion
[ 10167 10162 10161 10158 ] final -133.57 input  -65.29 | X-H torsion
[ 10718 10713 10712 10709 ] final -126.57 input   66.30 | X-H torsion
[ 10763 10752 10751 10750 ] final   89.18 input  -60.55 | X-H torsion
[ 11005 11000 10999 10996 ] final  127.55 input  -57.11 | X-H torsion

> <Gold.Protein.ActiveResidues>
 VAL166  LYS551  ARG553  GLY616  TRP617  ASP618  TYR619  PRO620  LYS621  CYS622 
 ASP623  PHE694  ASN695  SER759  ASP760  ASP761  ALA762  ILE779  LEU786  VAL792 
 PHE793  MET794  SER795  GLU796  ALA797  LYS798  CYS799  TRP800  GLU811  SER814 

> <Gold.Protein.RotatedAtoms>
  152.0437  134.9696  160.0573 H   0  0  0  0  0  0  0  0  0  0  0  0  # atno 6907 bound_to 6896
  152.1124  133.4303  159.4645 H   0  0  0  0  0  0  0  0  0  0  0  0  # atno 6908 bound_to 6896
  150.6844  134.2551  159.4569 H   0  0  0  0  0  0  0  0  0  0  0  0  # atno 6909 bound_to 6896
  144.8430  139.6293  143.6008 H   0  0  0  0  0  0  0  0  0  0  0  0  # atno 7974 bound_to 7965
  156.2929  140.2261  156.4895 H   0  0  0  0  0  0  0  0  0  0  0  0  # atno 8008 bound_to 7997
  154.7784  140.0462  157.1128 H   0  0  0  0  0  0  0  0  0  0  0  0  # atno 8009 bound_to 7997
  154.9789  140.3076  155.4958 H   0  0  0  0  0  0  0  0  0  0  0  0  # atno 8010 bound_to 7997
  139.8969  143.6654  152.2602 H   0  0  0  0  0  0  0  0  0  0  0  0  # atno 10167 bound_to 10162
  156.1778  130.6711  151.0264 H   0  0  0  0  0  0  0  0  0  0  0  0  # atno 10718 bound_to 10713
  153.1845  135.4479  155.0070 H   0  0  0  0  0  0  0  0  0  0  0  0  # atno 10763 bound_to 10752
  154.8051  135.3271  154.7454 H   0  0  0  0  0  0  0  0  0  0  0  0  # atno 10764 bound_to 10752
  153.7914  135.6970  153.4926 H   0  0  0  0  0  0  0  0  0  0  0  0  # atno 10765 bound_to 10752
  139.9513  134.9621  156.8870 H   0  0  0  0  0  0  0  0  0  0  0  0  # atno 11005 bound_to 11000
  146.2720  139.6658  142.9289 LP  0  0  0  0  0  0  0  0  0  0  0  0  # atno 17320 bound_to 7965
  145.4654  141.0434  143.2728 LP  0  0  0  0  0  0  0  0  0  0  0  0  # atno 17321 bound_to 7965
  139.7059  144.7628  151.1193 LP  0  0  0  0  0  0  0  0  0  0  0  0  # atno 17342 bound_to 10162
  140.7715  143.5395  150.9329 LP  0  0  0  0  0  0  0  0  0  0  0  0  # atno 17343 bound_to 10162
  157.6847  131.0828  150.7274 LP  0  0  0  0  0  0  0  0  0  0  0  0  # atno 17370 bound_to 10713
  156.7332  130.4716  149.5494 LP  0  0  0  0  0  0  0  0  0  0  0  0  # atno 17371 bound_to 10713
  140.5712  134.0441  155.7431 LP  0  0  0  0  0  0  0  0  0  0  0  0  # atno 17394 bound_to 11000
  141.1176  133.9514  157.2792 LP  0  0  0  0  0  0  0  0  0  0  0  0  # atno 17395 bound_to 11000

$$$$
