AV-unprocessed.smi:2124|AV-procd|sdf|8651|dock1
  -GOLD-   2272011403D 1   1.00000     0.00000
 Structure written by MMmdl.
 47 49  0  0  0  0  0  0  0  0  1 V2000
  146.3832  138.0461  152.1506 C   0  0  0  0  0  0  0  0  0  0  0  0
  147.0805  139.1890  152.8579 C   0  0  0  0  0  0  0  0  0  0  0  0
  146.5328  140.3370  153.0862 N   0  0  0  0  0  0  0  0  0  0  0  0
  147.2773  141.3194  153.7541 C   0  0  0  0  0  0  0  0  0  0  0  0
  146.5570  142.6361  153.9896 C   0  0  0  0  0  0  0  0  0  0  0  0
  148.5596  141.0887  154.1646 C   0  0  0  0  0  0  0  0  0  0  0  0
  149.4107  142.1317  154.8897 C   0  0  0  0  0  0  0  0  0  0  0  0
  149.7369  141.8431  156.3583 C   0  0  0  0  0  0  0  0  0  0  0  0
  148.8331  141.5293  157.1318 O   0  0  0  0  0  0  0  0  0  0  0  0
  151.0209  141.9646  156.7312 N   0  0  0  0  0  0  0  0  0  0  0  0
  151.5521  141.7520  158.0749 C   0  0  1  0  0  0  0  0  0  0  0  0
  152.4348  140.4941  158.0662 C   0  0  0  0  0  0  0  0  0  0  0  0
  152.3283  143.0086  158.5344 C   0  0  2  0  0  0  0  0  0  0  0  0
  152.6615  143.0529  160.0430 C   0  0  0  0  0  0  0  0  0  0  0  0
  152.1871  144.4571  160.4628 C   0  0  2  0  0  0  0  0  0  0  0  0
  150.6486  144.4736  160.5139 C   0  0  0  0  0  0  0  0  0  0  0  0
  150.2615  144.4396  159.0246 C   0  0  0  0  0  0  0  0  0  0  0  0
  151.6304  144.3755  158.3156 C   0  0  1  0  0  0  0  0  0  0  0  0
  152.4691  145.2813  159.2117 C   0  0  0  0  0  0  0  0  0  0  0  0
  149.1765  139.7760  153.8938 C   0  0  0  0  0  0  0  0  0  0  0  0
  150.3244  139.4680  154.2101 O   0  0  0  0  0  0  0  0  0  0  0  0
  148.3849  138.8910  153.2478 N   0  0  0  0  0  0  0  0  0  0  0  0
  148.7618  137.9775  153.0406 H   0  0  0  0  0  0  0  0  0  0  0  0
  147.0322  137.1745  152.0552 H   0  0  0  0  0  0  0  0  0  0  0  0
  146.0771  138.3542  151.1507 H   0  0  0  0  0  0  0  0  0  0  0  0
  145.4934  137.7489  152.7059 H   0  0  0  0  0  0  0  0  0  0  0  0
  146.4065  142.8023  155.0564 H   0  0  0  0  0  0  0  0  0  0  0  0
  145.5775  142.6427  153.5099 H   0  0  0  0  0  0  0  0  0  0  0  0
  147.1279  143.4715  153.5860 H   0  0  0  0  0  0  0  0  0  0  0  0
  150.3576  142.2610  154.3666 H   0  0  0  0  0  0  0  0  0  0  0  0
  148.9244  143.1060  154.8207 H   0  0  0  0  0  0  0  0  0  0  0  0
  151.6884  142.2317  156.0222 H   0  0  0  0  0  0  0  0  0  0  0  0
  150.7360  141.5713  158.7758 H   0  0  0  0  0  0  0  0  0  0  0  0
  152.8295  140.2778  159.0589 H   0  0  0  0  0  0  0  0  0  0  0  0
  153.2820  140.6076  157.3890 H   0  0  0  0  0  0  0  0  0  0  0  0
  151.8668  139.6205  157.7445 H   0  0  0  0  0  0  0  0  0  0  0  0
  153.2689  143.0365  157.9807 H   0  0  0  0  0  0  0  0  0  0  0  0
  152.1600  142.2717  160.6156 H   0  0  0  0  0  0  0  0  0  0  0  0
  153.7348  142.9389  160.1996 H   0  0  0  0  0  0  0  0  0  0  0  0
  152.6582  144.8239  161.3749 H   0  0  0  0  0  0  0  0  0  0  0  0
  150.2431  143.6267  161.0688 H   0  0  0  0  0  0  0  0  0  0  0  0
  150.2836  145.3876  160.9839 H   0  0  0  0  0  0  0  0  0  0  0  0
  149.6049  143.6060  158.7780 H   0  0  0  0  0  0  0  0  0  0  0  0
  149.7353  145.3551  158.7513 H   0  0  0  0  0  0  0  0  0  0  0  0
  151.5937  144.6859  157.2710 H   0  0  0  0  0  0  0  0  0  0  0  0
  152.0902  146.3033  159.2716 H   0  0  0  0  0  0  0  0  0  0  0  0
  153.5256  145.3071  158.9384 H   0  0  0  0  0  0  0  0  0  0  0  0
  1  2  1  0  0  0  0
  1 24  1  0  0  0  0
  1 25  1  0  0  0  0
  1 26  1  0  0  0  0
  2 22  1  0  0  0  0
  2  3  2  0  0  0  0
  3  4  1  0  0  0  0
  4  5  1  0  0  0  0
  4  6  2  0  0  0  0
  5 27  1  0  0  0  0
  5 28  1  0  0  0  0
  5 29  1  0  0  0  0
  6  7  1  0  0  0  0
  6 20  1  0  0  0  0
  7  8  1  0  0  0  0
  7 30  1  0  0  0  0
  7 31  1  0  0  0  0
  8  9  2  0  0  0  0
  8 10  1  0  0  0  0
 10 11  1  0  0  0  0
 10 32  1  0  0  0  0
 11 12  1  0  0  0  0
 11 13  1  0  0  0  0
 11 33  1  0  0  0  0
 12 34  1  0  0  0  0
 12 35  1  0  0  0  0
 12 36  1  0  0  0  0
 13 18  1  0  0  0  0
 13 14  1  0  0  0  0
 13 37  1  0  0  0  0
 14 15  1  0  0  0  0
 14 38  1  0  0  0  0
 14 39  1  0  0  0  0
 15 19  1  0  0  0  0
 15 16  1  0  0  0  0
 15 40  1  0  0  0  0
 16 17  1  0  0  0  0
 16 41  1  0  0  0  0
 16 42  1  0  0  0  0
 17 18  1  0  0  0  0
 17 43  1  0  0  0  0
 17 44  1  0  0  0  0
 18 19  1  0  0  0  0
 18 45  1  0  0  0  0
 19 46  1  0  0  0  0
 19 47  1  0  0  0  0
 20 21  2  0  0  0  0
 20 22  1  0  0  0  0
 22 23  1  0  0  0  0
M  END
> <s_m_source_file>
AV-unprocessed.smi

> <i_m_source_file_index>
2124

> <i_lp_mmshare_version>
43012

> <i_f3d_flags>
0

> <s_epik_input>
W0NIM11jMW5jKFtDSDNdKWMoYyg9TylbbkhdMSlbQ0gyXUMoPU8pW05IXVtDQEhdKFtDSDNdKVtDQEhdKFtDSDJdW0NASF0yMylbQ0BIXShbQ0gyXTMpW0NIMl1bQ0gyXTI=

> <s_epik_cmdline>
J2VwaWtfcHl0aG9uJywgJy1waCcsICc3LjAnLCAnLXRuJywgJzgnLCAnLW1hJywgJzIwMCcsICctbWV0YWxfYmluZGluZycsICctaW1hZScsICc8aW5maWxlLm1hZT4nLCAnLW9tYWUnLCAnPG91dGZpbGUubWFlPic=

> <r_lp_tautomer_probability>
0.839158

> <r_epik_Ionization_Penalty>
0.000383628

> <r_epik_Ionization_Penalty_Charging>
0.00035045

> <r_epik_Ionization_Penalty_Neutral>
3.31781e-05

> <r_epik_State_Penalty>
0.09125

> <r_epik_Charging_Adjusted_Penalty>
0.0916005

> <i_epik_Tot_Q>
0

> <i_epik_Tot_abs_Q>
0

> <r_epik_Metal_State_Penalty>
0.255229

> <b_epik_Metal_Only>
0

> <s_lp_Force_Field>
OPLS_2005

> <r_lp_Energy>
53.2281

> <b_lp_Chiralities_Consistent>
1

> <s_lp_Variant>
AV-unprocessed.smi:2124-2

> <Gold.Version>
5.8.1

> <Gold.Id.Protein>
6NUR|6NUR_protein|mol2

> <Gold.PLP.Fitness>
49.4690

> <Gold.PLP.PLP>
-44.2634

> <Gold.PLP.part.hbond>
-3.0000

> <Gold.PLP.part.metal>
0.0000

> <Gold.PLP.part.buried>
2.6629

> <Gold.PLP.part.nonpolar>
-45.6820

> <Gold.PLP.part.repulsive>
1.6999

> <Gold.PLP.ligand.clash>
0.0000

> <Gold.PLP.ligand.torsion>
0.3858

> <Gold.PLP.Chemscore.Hbond>
1.9750

> <Gold.PLP.Chemscore.CHOScore>
0.0000

> <Gold.PLP.Chemscore.Metal>
0.0000

> <Gold.Chemscore.Hbonds>
donor molecule, donor type, donor heavy atom, donor atom, acceptor molecule, acceptor atom, score
      L1  H    22    23       P1  7948  0.84
      P1  H  7989  7998       L1    21  0.98

> <Gold.PLP.Chemscore.Internal.Correction>
0.0522

> <Gold.Rescore>
     Score         DG    S(hbond)    S(metal)    S(lipo)     H(rot)  DE(clash)    DE(int)     intcor
     18.10     -22.47       1.79        0.00     130.41       1.65       3.90       0.48       ----

> <Gold.Chemscore.Fitness>
18.0972

> <Gold.Chemscore.DG>
-22.4709

> <Gold.Chemscore.ZeroCoef>
-5.4800

> <Gold.Chemscore.Hbond>
1.7861

> <Gold.Chemscore.Metal>
0.0000

> <Gold.Chemscore.Lipo>
130.4082

> <Gold.Chemscore.Internal_Hbond>
0.0000

> <Gold.Chemscore.DEClash>
3.8961

> <Gold.Chemscore.DEInternal>
0.4775

> <Gold.Chemscore.Rot>
1.6534

> <Gold.Chemscore.Internal.Correction>
   9.000000E+99

> <Gold.Chemscore.Hbonds>
donor molecule, donor type, donor heavy atom, donor atom, acceptor molecule, acceptor atom, score
      L1  H    22    23       P1  7948  0.80
      P1  H  7989  7998       L1    21  0.64

> <Gold.Chemscore.Hbond.Weighted>
-5.9657

> <Gold.Chemscore.Metal.Weighted>
-0.0000

> <Gold.Chemscore.Lipo.Weighted>
-15.2578

> <Gold.Chemscore.Internal_Hbond.Weighted>
0.0000

> <Gold.Chemscore.DEClash.Weighted>
3.8961

> <Gold.Chemscore.DEInternal.Weighted>
0.4775

> <Gold.Chemscore.Rot.Weighted>
4.2326

> <Gold.Chemscore.Internal.Correction.Weighted>
   9.000000E+99

> <Gold.Protein.RotatedTorsions>
[ 6907 6896 6895 6894 ] final   20.77 input  -60.11 | X-H torsion
[ 7974 7965 7964 7962 ] final  130.65 input  175.53 | X-H torsion
[ 8008 7997 7996 7995 ] final -175.42 input   59.86 | X-H torsion
[ 10167 10162 10161 10158 ] final -127.83 input  -65.29 | X-H torsion
[ 10718 10713 10712 10709 ] final  -42.75 input   66.30 | X-H torsion
[ 10763 10752 10751 10750 ] final  -91.48 input  -60.55 | X-H torsion
[ 11005 11000 10999 10996 ] final  175.11 input  -57.11 | X-H torsion

> <Gold.Protein.ActiveResidues>
 VAL166  LYS551  ARG553  GLY616  TRP617  ASP618  TYR619  PRO620  LYS621  CYS622 
 ASP623  PHE694  ASN695  SER759  ASP760  ASP761  ALA762  ILE779  LEU786  VAL792 
 PHE793  MET794  SER795  GLU796  ALA797  LYS798  CYS799  TRP800  GLU811  SER814 

> <Gold.Protein.RotatedAtoms>
  151.9015  135.0376  160.0506 H   0  0  0  0  0  0  0  0  0  0  0  0  # atno 6907 bound_to 6896
  152.2354  133.5088  159.5248 H   0  0  0  0  0  0  0  0  0  0  0  0  # atno 6908 bound_to 6896
  150.7038  134.1076  159.4031 H   0  0  0  0  0  0  0  0  0  0  0  0  # atno 6909 bound_to 6896
  145.0157  139.4178  143.5222 H   0  0  0  0  0  0  0  0  0  0  0  0  # atno 7974 bound_to 7965
  155.9823  140.1184  157.0715 H   0  0  0  0  0  0  0  0  0  0  0  0  # atno 8008 bound_to 7997
  154.4186  140.1142  156.5521 H   0  0  0  0  0  0  0  0  0  0  0  0  # atno 8009 bound_to 7997
  155.6454  140.3473  155.4731 H   0  0  0  0  0  0  0  0  0  0  0  0  # atno 8010 bound_to 7997
  139.9567  143.5996  152.2458 H   0  0  0  0  0  0  0  0  0  0  0  0  # atno 10167 bound_to 10162
  156.2563  130.4192  149.8593 H   0  0  0  0  0  0  0  0  0  0  0  0  # atno 10718 bound_to 10713
  154.6764  135.5266  153.8205 H   0  0  0  0  0  0  0  0  0  0  0  0  # atno 10763 bound_to 10752
  153.0535  135.6541  154.0644 H   0  0  0  0  0  0  0  0  0  0  0  0  # atno 10764 bound_to 10752
  154.0537  135.2967  155.3316 H   0  0  0  0  0  0  0  0  0  0  0  0  # atno 10765 bound_to 10752
  140.3586  134.7133  157.4316 H   0  0  0  0  0  0  0  0  0  0  0  0  # atno 11005 bound_to 11000
  146.3477  139.9626  142.8715 LP  0  0  0  0  0  0  0  0  0  0  0  0  # atno 17320 bound_to 7965
  145.1963  140.9834  143.4182 LP  0  0  0  0  0  0  0  0  0  0  0  0  # atno 17321 bound_to 7965
  139.6586  144.7662  151.2007 LP  0  0  0  0  0  0  0  0  0  0  0  0  # atno 17342 bound_to 10162
  140.7566  143.6046  150.8666 LP  0  0  0  0  0  0  0  0  0  0  0  0  # atno 17343 bound_to 10162
  156.6123  130.8592  151.3457 LP  0  0  0  0  0  0  0  0  0  0  0  0  # atno 17370 bound_to 10713
  157.7234  130.9589  150.1531 LP  0  0  0  0  0  0  0  0  0  0  0  0  # atno 17371 bound_to 10713
  140.0645  134.5949  155.8711 LP  0  0  0  0  0  0  0  0  0  0  0  0  # atno 17394 bound_to 11000
  141.1991  133.6605  156.5826 LP  0  0  0  0  0  0  0  0  0  0  0  0  # atno 17395 bound_to 11000

$$$$
