AV-unprocessed.smi:1684|AV-procd|sdf|6756|dock3
  -GOLD-   22720 7513D 1   1.00000     0.00000
 Structure written by MMmdl.
 43 44  0  0  0  0  0  0  0  0  2 V2000
  147.8426  133.1605  152.6717 C   0  0  0  0  0  0  0  0  0  0  0  0
  146.3884  133.1979  152.2294 C   0  0  0  0  0  0  0  0  0  0  0  0
  145.6779  131.9863  152.0926 C   0  0  0  0  0  0  0  0  0  0  0  0
  144.3346  132.0215  151.6810 C   0  0  0  0  0  0  0  0  0  0  0  0
  143.7548  133.2748  151.4212 C   0  0  0  0  0  0  0  0  0  0  0  0
  144.4263  134.4376  151.5493 N   0  0  0  0  0  0  0  0  0  0  0  0
  145.7231  134.4214  151.9489 C   0  0  0  0  0  0  0  0  0  0  0  0
  146.4925  135.6094  152.1040 N   0  0  0  0  0  0  0  0  0  0  0  0
  146.0579  136.8604  152.3366 C   0  0  0  0  0  0  0  0  0  0  0  0
  144.8829  137.1873  152.5051 O   0  0  0  0  0  0  0  0  0  0  0  0
  147.0748  137.7359  152.3463 N   0  0  0  0  0  0  0  0  0  0  0  0
  146.9648  139.1794  152.5653 C   0  0  1  0  0  0  0  0  0  0  0  0
  146.4947  139.8469  151.2657 C   0  0  0  0  0  0  0  0  0  0  0  0
  146.0095  139.5032  153.7380 C   0  0  0  0  0  0  0  0  0  0  0  0
  145.5747  140.9230  153.7608 N   0  3  0  0  0  0  0  0  0  0  0  0
  144.8685  141.3085  155.0065 C   0  0  0  0  0  0  0  0  0  0  0  0
  144.3745  142.7611  154.9052 C   0  0  0  0  0  0  0  0  0  0  0  0
  145.4783  143.6221  154.6502 O   0  0  0  0  0  0  0  0  0  0  0  0
  146.1245  143.3123  153.4212 C   0  0  0  0  0  0  0  0  0  0  0  0
  146.6717  141.8754  153.4721 C   0  0  0  0  0  0  0  0  0  0  0  0
  148.1870  132.1360  152.8157 H   0  0  0  0  0  0  0  0  0  0  0  0
  147.9687  133.6926  153.6151 H   0  0  0  0  0  0  0  0  0  0  0  0
  148.4829  133.6259  151.9216 H   0  0  0  0  0  0  0  0  0  0  0  0
  146.1542  131.0389  152.2992 H   0  0  0  0  0  0  0  0  0  0  0  0
  143.7638  131.1117  151.5675 H   0  0  0  0  0  0  0  0  0  0  0  0
  142.7259  133.3473  151.1015 H   0  0  0  0  0  0  0  0  0  0  0  0
  147.4899  135.4922  152.0037 H   0  0  0  0  0  0  0  0  0  0  0  0
  148.0067  137.3746  152.2016 H   0  0  0  0  0  0  0  0  0  0  0  0
  147.9538  139.5828  152.7864 H   0  0  0  0  0  0  0  0  0  0  0  0
  146.4319  140.9293  151.3816 H   0  0  0  0  0  0  0  0  0  0  0  0
  145.5098  139.4870  150.9657 H   0  0  0  0  0  0  0  0  0  0  0  0
  147.1863  139.6449  150.4471 H   0  0  0  0  0  0  0  0  0  0  0  0
  145.1333  138.8533  153.7144 H   0  0  0  0  0  0  0  0  0  0  0  0
  146.5299  139.2746  154.6696 H   0  0  0  0  0  0  0  0  0  0  0  0
  144.0197  140.6487  155.1832 H   0  0  0  0  0  0  0  0  0  0  0  0
  145.5398  141.2007  155.8599 H   0  0  0  0  0  0  0  0  0  0  0  0
  143.6264  142.8642  154.1174 H   0  0  0  0  0  0  0  0  0  0  0  0
  143.8986  143.0627  155.8383 H   0  0  0  0  0  0  0  0  0  0  0  0
  145.4278  143.4337  152.5900 H   0  0  0  0  0  0  0  0  0  0  0  0
  146.9383  144.0195  153.2605 H   0  0  0  0  0  0  0  0  0  0  0  0
  147.4428  141.7916  154.2397 H   0  0  0  0  0  0  0  0  0  0  0  0
  147.1375  141.6286  152.5174 H   0  0  0  0  0  0  0  0  0  0  0  0
  144.9096  141.0257  153.0071 H   0  0  0  0  0  0  0  0  0  0  0  0
  1  2  1  0  0  0  0
  1 21  1  0  0  0  0
  1 22  1  0  0  0  0
  1 23  1  0  0  0  0
  2  7  1  0  0  0  0
  2  3  2  0  0  0  0
  3  4  1  0  0  0  0
  3 24  1  0  0  0  0
  4  5  2  0  0  0  0
  4 25  1  0  0  0  0
  5  6  1  0  0  0  0
  5 26  1  0  0  0  0
  6  7  2  0  0  0  0
  7  8  1  0  0  0  0
  8  9  1  0  0  0  0
  8 27  1  0  0  0  0
  9 10  2  0  0  0  0
  9 11  1  0  0  0  0
 11 12  1  0  0  0  0
 11 28  1  0  0  0  0
 12 13  1  0  0  0  0
 12 14  1  0  0  0  0
 12 29  1  0  0  0  0
 13 30  1  0  0  0  0
 13 31  1  0  0  0  0
 13 32  1  0  0  0  0
 14 15  1  0  0  0  0
 14 33  1  0  0  0  0
 14 34  1  0  0  0  0
 15 20  1  0  0  0  0
 15 16  1  0  0  0  0
 15 43  1  0  0  0  0
 16 17  1  0  0  0  0
 16 35  1  0  0  0  0
 16 36  1  0  0  0  0
 17 18  1  0  0  0  0
 17 37  1  0  0  0  0
 17 38  1  0  0  0  0
 18 19  1  0  0  0  0
 19 20  1  0  0  0  0
 19 39  1  0  0  0  0
 19 40  1  0  0  0  0
 20 41  1  0  0  0  0
 20 42  1  0  0  0  0
M  CHG  1  15   1
M  END
> <s_m_source_file>
AV-unprocessed.smi

> <i_m_source_file_index>
1684

> <i_lp_mmshare_version>
43012

> <i_f3d_flags>
0

> <s_epik_input>
W0NIM11jMVtjSF1bY0hdW2NIXW5jMVtOSF1DKD1PKVtOSF1bQ0BIXShbQ0gzXSlbQ0gyXU4yW0NIMl1bQ0gyXU9bQ0gyXVtDSDJdMg==

> <s_epik_cmdline>
J2VwaWtfcHl0aG9uJywgJy1waCcsICc3LjAnLCAnLXRuJywgJzgnLCAnLW1hJywgJzIwMCcsICctbWV0YWxfYmluZGluZycsICctaW1hZScsICc8aW5maWxlLm1hZT4nLCAnLW9tYWUnLCAnPG91dGZpbGUubWFlPic=

> <r_epik_Ionization_Penalty>
0.602571

> <r_epik_Ionization_Penalty_Charging>
0.602531

> <r_epik_Ionization_Penalty_Neutral>
4.09763e-05

> <r_epik_State_Penalty>
0.617039

> <r_epik_Charging_Adjusted_Penalty>
1.21957

> <i_epik_Tot_Q>
1

> <i_epik_Tot_abs_Q>
1

> <r_epik_Metal_State_Penalty>
0.617043

> <b_epik_Metal_Only>
0

> <s_lp_Force_Field>
OPLS_2005

> <r_lp_Energy>
24.8229

> <b_lp_Chiralities_Consistent>
1

> <s_lp_Variant>
AV-unprocessed.smi:1684-4

> <Gold.Version>
5.8.1

> <Gold.Id.Protein>
6NUR|6NUR_protein|mol2

> <Gold.PLP.Fitness>
43.4022

> <Gold.PLP.PLP>
-29.7464

> <Gold.PLP.part.hbond>
-2.7474

> <Gold.PLP.part.metal>
0.0000

> <Gold.PLP.part.buried>
-0.9003

> <Gold.PLP.part.nonpolar>
-28.1157

> <Gold.PLP.part.repulsive>
0.6231

> <Gold.PLP.ligand.clash>
0.0000

> <Gold.PLP.ligand.torsion>
0.5981

> <Gold.PLP.Chemscore.Hbond>
3.9360

> <Gold.PLP.Chemscore.CHOScore>
1.0000

> <Gold.PLP.Chemscore.Metal>
0.0000

> <Gold.Chemscore.Hbonds>
donor molecule, donor type, donor heavy atom, donor atom, acceptor molecule, acceptor atom, score
      L1  H     8    27       P1  7948  0.96
      L1  H    11    28       P1  7948  0.93
      L1  H    15    43       P1 10175  1.25
      L1  C     5    26       P1 10186  0.96

> <Gold.PLP.Chemscore.Internal.Correction>
0.0439

> <Gold.Rescore>
     Score         DG    S(hbond)    S(metal)    S(lipo)     H(rot)  DE(clash)    DE(int)     intcor
     14.38     -18.99       2.82        0.00      67.92       1.51       1.46       3.15       ----

> <Gold.Chemscore.Fitness>
14.3772

> <Gold.Chemscore.DG>
-18.9902

> <Gold.Chemscore.ZeroCoef>
-5.4800

> <Gold.Chemscore.Hbond>
2.8200

> <Gold.Chemscore.Metal>
0.0000

> <Gold.Chemscore.Lipo>
67.9238

> <Gold.Chemscore.Internal_Hbond>
0.0000

> <Gold.Chemscore.DEClash>
1.4601

> <Gold.Chemscore.DEInternal>
3.1530

> <Gold.Chemscore.Rot>
1.5061

> <Gold.Chemscore.Internal.Correction>
   9.000000E+99

> <Gold.Chemscore.Hbonds>
donor molecule, donor type, donor heavy atom, donor atom, acceptor molecule, acceptor atom, score
      L1  H     8    27       P1  7948  0.91
      L1  H    11    28       P1  7948  0.85
      L1  H    15    43       P1 10175  0.14

> <Gold.Chemscore.Hbond.Weighted>
-9.4188

> <Gold.Chemscore.Metal.Weighted>
-0.0000

> <Gold.Chemscore.Lipo.Weighted>
-7.9471

> <Gold.Chemscore.Internal_Hbond.Weighted>
0.0000

> <Gold.Chemscore.DEClash.Weighted>
1.4601

> <Gold.Chemscore.DEInternal.Weighted>
3.1530

> <Gold.Chemscore.Rot.Weighted>
3.8557

> <Gold.Chemscore.Internal.Correction.Weighted>
   9.000000E+99

> <Gold.Protein.RotatedTorsions>
[ 6907 6896 6895 6894 ] final   -7.08 input  -60.11 | X-H torsion
[ 7974 7965 7964 7962 ] final -146.50 input  175.53 | X-H torsion
[ 8008 7997 7996 7995 ] final  -77.85 input   59.86 | X-H torsion
[ 10167 10162 10161 10158 ] final   -5.37 input  -65.29 | X-H torsion
[ 10718 10713 10712 10709 ] final  139.99 input   66.30 | X-H torsion
[ 10763 10752 10751 10750 ] final -139.54 input  -60.55 | X-H torsion
[ 11005 11000 10999 10996 ] final  104.77 input  -57.11 | X-H torsion

> <Gold.Protein.ActiveResidues>
 VAL166  LYS551  ARG553  GLY616  TRP617  ASP618  TYR619  PRO620  LYS621  CYS622 
 ASP623  PHE694  ASN695  SER759  ASP760  ASP761  ALA762  ILE779  LEU786  VAL792 
 PHE793  MET794  SER795  GLU796  ALA797  LYS798  CYS799  TRP800  GLU811  SER814 

> <Gold.Protein.RotatedAtoms>
  151.4553  135.1033  159.9709 H   0  0  0  0  0  0  0  0  0  0  0  0  # atno 6907 bound_to 6896
  152.4873  133.8402  159.7159 H   0  0  0  0  0  0  0  0  0  0  0  0  # atno 6908 bound_to 6896
  150.8994  133.7078  159.2910 H   0  0  0  0  0  0  0  0  0  0  0  0  # atno 6909 bound_to 6896
  144.8155  140.5448  143.5613 H   0  0  0  0  0  0  0  0  0  0  0  0  # atno 7974 bound_to 7965
  154.5634  140.0704  156.8855 H   0  0  0  0  0  0  0  0  0  0  0  0  # atno 8008 bound_to 7997
  155.2768  140.3369  155.4243 H   0  0  0  0  0  0  0  0  0  0  0  0  # atno 8009 bound_to 7997
  156.2061  140.1740  156.7782 H   0  0  0  0  0  0  0  0  0  0  0  0  # atno 8010 bound_to 7997
  140.6961  143.6315  150.8518 H   0  0  0  0  0  0  0  0  0  0  0  0  # atno 10167 bound_to 10162
  157.4082  131.1025  151.0481 H   0  0  0  0  0  0  0  0  0  0  0  0  # atno 10718 bound_to 10713
  154.8606  135.3579  154.5563 H   0  0  0  0  0  0  0  0  0  0  0  0  # atno 10763 bound_to 10752
  153.6179  135.7007  153.5326 H   0  0  0  0  0  0  0  0  0  0  0  0  # atno 10764 bound_to 10752
  153.3153  135.4166  155.1331 H   0  0  0  0  0  0  0  0  0  0  0  0  # atno 10765 bound_to 10752
  139.8795  134.9312  156.5412 H   0  0  0  0  0  0  0  0  0  0  0  0  # atno 11005 bound_to 11000
  145.5224  139.1476  143.3545 LP  0  0  0  0  0  0  0  0  0  0  0  0  # atno 17320 bound_to 7965
  146.2458  140.5365  142.8914 LP  0  0  0  0  0  0  0  0  0  0  0  0  # atno 17321 bound_to 7965
  140.0033  143.5720  152.2867 LP  0  0  0  0  0  0  0  0  0  0  0  0  # atno 17342 bound_to 10162
  139.6418  144.7655  151.2324 LP  0  0  0  0  0  0  0  0  0  0  0  0  # atno 17343 bound_to 10162
  157.1455  130.6161  149.5567 LP  0  0  0  0  0  0  0  0  0  0  0  0  # atno 17370 bound_to 10713
  155.9843  130.4867  150.6975 LP  0  0  0  0  0  0  0  0  0  0  0  0  # atno 17371 bound_to 10713
  140.8309  133.8280  155.8983 LP  0  0  0  0  0  0  0  0  0  0  0  0  # atno 17394 bound_to 11000
  140.9330  134.1998  157.4851 LP  0  0  0  0  0  0  0  0  0  0  0  0  # atno 17395 bound_to 11000

$$$$
