AV-unprocessed.smi:2694|AV-procd|sdf|10406|dock5
  -GOLD-   2272014443D 1   1.00000     0.00000
 Structure written by MMmdl.
 42 44  0  0  0  0  0  0  0  0  1 V2000
  146.2040  138.4989  155.3748 O   0  0  0  0  0  0  0  0  0  0  0  0
  146.2903  138.4613  154.1472 C   0  0  0  0  0  0  0  0  0  0  0  0
  145.7342  137.3671  153.3511 C   0  0  0  0  0  0  0  0  0  0  0  0
  145.8532  137.3602  152.0018 C   0  0  0  0  0  0  0  0  0  0  0  0
  145.3054  136.2228  151.1509 C   0  0  0  0  0  0  0  0  0  0  0  0
  144.0114  135.5650  151.6577 C   0  0  0  0  0  0  0  0  0  0  0  0
  144.5922  134.2213  151.2034 C   0  0  0  0  0  0  0  0  0  0  0  0
  145.9823  134.8535  151.3328 C   0  0  0  0  0  0  0  0  0  0  0  0
  146.5225  138.3970  151.3413 N   0  0  0  0  0  0  0  0  0  0  0  0
  147.0241  139.3770  152.0229 C   0  0  0  0  0  0  0  0  0  0  0  0
  146.9179  139.4351  153.4255 N   0  0  0  0  0  0  0  0  0  0  0  0
  147.5329  140.6008  154.0804 C   0  0  0  0  0  0  0  0  0  0  0  0
  148.7187  140.2040  154.9886 C   0  0  1  0  0  0  0  0  0  0  0  0
  149.8803  139.9770  154.2154 O   0  0  0  0  0  0  0  0  0  0  0  0
  149.0572  141.2756  156.0394 C   0  0  0  0  0  0  0  0  0  0  0  0
  150.0689  140.7902  156.9132 O   0  0  0  0  0  0  0  0  0  0  0  0
  150.6591  141.6711  157.7947 C   0  0  0  0  0  0  0  0  0  0  0  0
  150.4946  143.0787  157.7361 C   0  0  0  0  0  0  0  0  0  0  0  0
  151.1295  143.9121  158.6773 C   0  0  0  0  0  0  0  0  0  0  0  0
  151.9353  143.3536  159.6860 C   0  0  0  0  0  0  0  0  0  0  0  0
  152.1066  141.9590  159.7519 C   0  0  0  0  0  0  0  0  0  0  0  0
  151.4723  141.1230  158.8120 C   0  0  0  0  0  0  0  0  0  0  0  0
  151.7005  139.4136  158.9143 Cl  0  0  0  0  0  0  0  0  0  0  0  0
  145.2240  136.5589  153.8544 H   0  0  0  0  0  0  0  0  0  0  0  0
  145.2330  136.5036  150.0985 H   0  0  0  0  0  0  0  0  0  0  0  0
  143.8893  135.6201  152.7411 H   0  0  0  0  0  0  0  0  0  0  0  0
  143.1065  135.8722  151.1326 H   0  0  0  0  0  0  0  0  0  0  0  0
  144.4033  133.3881  151.8808 H   0  0  0  0  0  0  0  0  0  0  0  0
  144.3330  133.9741  150.1725 H   0  0  0  0  0  0  0  0  0  0  0  0
  146.6835  134.5819  150.5432 H   0  0  0  0  0  0  0  0  0  0  0  0
  146.4135  134.7057  152.3249 H   0  0  0  0  0  0  0  0  0  0  0  0
  147.5582  140.2074  151.5578 H   0  0  0  0  0  0  0  0  0  0  0  0
  147.8427  141.3592  153.3581 H   0  0  0  0  0  0  0  0  0  0  0  0
  146.7711  141.0990  154.6831 H   0  0  0  0  0  0  0  0  0  0  0  0
  148.4961  139.2777  155.5194 H   0  0  0  0  0  0  0  0  0  0  0  0
  149.6178  139.7612  153.3337 H   0  0  0  0  0  0  0  0  0  0  0  0
  149.4305  142.1634  155.5264 H   0  0  0  0  0  0  0  0  0  0  0  0
  148.1608  141.5639  156.5914 H   0  0  0  0  0  0  0  0  0  0  0  0
  149.8848  143.5456  156.9778 H   0  0  0  0  0  0  0  0  0  0  0  0
  150.9972  144.9828  158.6245 H   0  0  0  0  0  0  0  0  0  0  0  0
  152.4215  143.9936  160.4076 H   0  0  0  0  0  0  0  0  0  0  0  0
  152.7259  141.5299  160.5261 H   0  0  0  0  0  0  0  0  0  0  0  0
  1  2  2  0  0  0  0
  2 11  1  0  0  0  0
  2  3  1  0  0  0  0
  3  4  2  0  0  0  0
  3 24  1  0  0  0  0
  4  5  1  0  0  0  0
  4  9  1  0  0  0  0
  5  8  1  0  0  0  0
  5  6  1  0  0  0  0
  5 25  1  0  0  0  0
  6  7  1  0  0  0  0
  6 26  1  0  0  0  0
  6 27  1  0  0  0  0
  7  8  1  0  0  0  0
  7 28  1  0  0  0  0
  7 29  1  0  0  0  0
  8 30  1  0  0  0  0
  8 31  1  0  0  0  0
  9 10  2  0  0  0  0
 10 11  1  0  0  0  0
 10 32  1  0  0  0  0
 11 12  1  0  0  0  0
 12 13  1  0  0  0  0
 12 33  1  0  0  0  0
 12 34  1  0  0  0  0
 13 14  1  0  0  0  0
 13 15  1  0  0  0  0
 13 35  1  0  0  0  0
 14 36  1  0  0  0  0
 15 16  1  0  0  0  0
 15 37  1  0  0  0  0
 15 38  1  0  0  0  0
 16 17  1  0  0  0  0
 17 22  1  0  0  0  0
 17 18  2  0  0  0  0
 18 19  1  0  0  0  0
 18 39  1  0  0  0  0
 19 20  2  0  0  0  0
 19 40  1  0  0  0  0
 20 21  1  0  0  0  0
 20 41  1  0  0  0  0
 21 22  2  0  0  0  0
 21 42  1  0  0  0  0
 22 23  1  0  0  0  0
M  END
> <s_m_source_file>
AV-unprocessed.smi

> <i_m_source_file_index>
2694

> <i_lp_mmshare_version>
43012

> <i_f3d_flags>
0

> <s_epik_input>
W0NIMl0xW0NIMl1bQ0gyXVtDSF0xYyhbY0hdYzI9TyluW2NIXW4yW0NIMl1bQ0BIXShbT0hdKVtDSDJdT2MzW2NIXVtjSF1bY0hdW2NIXWMzQ2w=

> <s_epik_cmdline>
J2VwaWtfcHl0aG9uJywgJy1waCcsICc3LjAnLCAnLXRuJywgJzgnLCAnLW1hJywgJzIwMCcsICctbWV0YWxfYmluZGluZycsICctaW1hZScsICc8aW5maWxlLm1hZT4nLCAnLW9tYWUnLCAnPG91dGZpbGUubWFlPic=

> <r_lp_tautomer_probability>
1

> <r_epik_Ionization_Penalty>
1.78212e-05

> <r_epik_Ionization_Penalty_Charging>
5.61663e-08

> <r_epik_Ionization_Penalty_Neutral>
1.7765e-05

> <r_epik_State_Penalty>
-0

> <r_epik_Charging_Adjusted_Penalty>
5.61663e-08

> <i_epik_Tot_Q>
0

> <i_epik_Tot_abs_Q>
0

> <r_epik_Metal_State_Penalty>
-0

> <b_epik_Metal_Only>
0

> <s_lp_Force_Field>
OPLS_2005

> <r_lp_Energy>
33.164

> <b_lp_Chiralities_Consistent>
1

> <s_lp_Variant>
AV-unprocessed.smi:2694-2

> <Gold.Version>
5.8.1

> <Gold.Id.Protein>
6NUR|6NUR_protein|mol2

> <Gold.PLP.Fitness>
52.5867

> <Gold.PLP.PLP>
-44.3434

> <Gold.PLP.part.hbond>
-2.9978

> <Gold.PLP.part.metal>
0.0000

> <Gold.PLP.part.buried>
2.0515

> <Gold.PLP.part.nonpolar>
-45.4775

> <Gold.PLP.part.repulsive>
0.9472

> <Gold.PLP.ligand.clash>
0.0000

> <Gold.PLP.ligand.torsion>
0.7752

> <Gold.PLP.Chemscore.Hbond>
2.6844

> <Gold.PLP.Chemscore.CHOScore>
0.4167

> <Gold.PLP.Chemscore.Metal>
0.0000

> <Gold.Chemscore.Hbonds>
donor molecule, donor type, donor heavy atom, donor atom, acceptor molecule, acceptor atom, score
      L1  H    14    36       P1  7957  0.60
      P1  H  7954  7966       L1     9  0.46
      P1  H  7989  7998       L1    14  0.42
      L1  C    10    32       P1  7957  0.81

> <Gold.PLP.Chemscore.Internal.Correction>
0.4906

> <Gold.Rescore>
     Score         DG    S(hbond)    S(metal)    S(lipo)     H(rot)  DE(clash)    DE(int)     intcor
     13.33     -16.65       1.15        0.00     115.66       2.42       0.87       2.45       ----

> <Gold.Chemscore.Fitness>
13.3329

> <Gold.Chemscore.DG>
-16.6472

> <Gold.Chemscore.ZeroCoef>
-5.4800

> <Gold.Chemscore.Hbond>
1.1501

> <Gold.Chemscore.Metal>
0.0000

> <Gold.Chemscore.Lipo>
115.6616

> <Gold.Chemscore.Internal_Hbond>
0.0000

> <Gold.Chemscore.DEClash>
0.8693

> <Gold.Chemscore.DEInternal>
2.4450

> <Gold.Chemscore.Rot>
2.4245

> <Gold.Chemscore.Internal.Correction>
   9.000000E+99

> <Gold.Chemscore.Hbonds>
donor molecule, donor type, donor heavy atom, donor atom, acceptor molecule, acceptor atom, score
      L1  H    14    36       P1  7957  0.59
      P1  H  7954  7966       L1     9  0.17
      P1  H  7989  7998       L1    14  0.02

> <Gold.Chemscore.Hbond.Weighted>
-3.8414

> <Gold.Chemscore.Metal.Weighted>
-0.0000

> <Gold.Chemscore.Lipo.Weighted>
-13.5324

> <Gold.Chemscore.Internal_Hbond.Weighted>
0.0000

> <Gold.Chemscore.DEClash.Weighted>
0.8693

> <Gold.Chemscore.DEInternal.Weighted>
2.4450

> <Gold.Chemscore.Rot.Weighted>
6.2066

> <Gold.Chemscore.Internal.Correction.Weighted>
   9.000000E+99

> <Gold.Protein.RotatedTorsions>
[ 6907 6896 6895 6894 ] final  145.04 input  -60.11 | X-H torsion
[ 7974 7965 7964 7962 ] final  -39.60 input  175.53 | X-H torsion
[ 8008 7997 7996 7995 ] final  129.16 input   59.86 | X-H torsion
[ 10167 10162 10161 10158 ] final   84.13 input  -65.29 | X-H torsion
[ 10718 10713 10712 10709 ] final   -3.68 input   66.30 | X-H torsion
[ 10763 10752 10751 10750 ] final  -48.81 input  -60.55 | X-H torsion
[ 11005 11000 10999 10996 ] final -166.11 input  -57.11 | X-H torsion

> <Gold.Protein.ActiveResidues>
 VAL166  LYS551  ARG553  GLY616  TRP617  ASP618  TYR619  PRO620  LYS621  CYS622 
 ASP623  PHE694  ASN695  SER759  ASP760  ASP761  ALA762  ILE779  LEU786  VAL792 
 PHE793  MET794  SER795  GLU796  ALA797  LYS798  CYS799  TRP800  GLU811  SER814 

> <Gold.Protein.RotatedAtoms>
  152.1859  133.4739  159.4982 H   0  0  0  0  0  0  0  0  0  0  0  0  # atno 6907 bound_to 6896
  150.6942  134.1774  159.4244 H   0  0  0  0  0  0  0  0  0  0  0  0  # atno 6908 bound_to 6896
  151.9687  135.0087  160.0602 H   0  0  0  0  0  0  0  0  0  0  0  0  # atno 6909 bound_to 6896
  146.0381  140.6644  142.9100 H   0  0  0  0  0  0  0  0  0  0  0  0  # atno 7974 bound_to 7965
  156.2930  140.2627  156.2554 H   0  0  0  0  0  0  0  0  0  0  0  0  # atno 8008 bound_to 7997
  154.9841  140.0389  157.2309 H   0  0  0  0  0  0  0  0  0  0  0  0  # atno 8009 bound_to 7997
  154.7745  140.2784  155.6117 H   0  0  0  0  0  0  0  0  0  0  0  0  # atno 8010 bound_to 7997
  139.9112  144.6270  150.8535 H   0  0  0  0  0  0  0  0  0  0  0  0  # atno 10167 bound_to 10162
  156.7725  130.5304  149.5765 H   0  0  0  0  0  0  0  0  0  0  0  0  # atno 10718 bound_to 10713
  154.0838  135.6587  153.4842 H   0  0  0  0  0  0  0  0  0  0  0  0  # atno 10763 bound_to 10752
  153.0346  135.5186  154.7448 H   0  0  0  0  0  0  0  0  0  0  0  0  # atno 10764 bound_to 10752
  154.6551  135.3007  154.9906 H   0  0  0  0  0  0  0  0  0  0  0  0  # atno 10765 bound_to 10752
  140.5681  134.5265  157.5156 H   0  0  0  0  0  0  0  0  0  0  0  0  # atno 11005 bound_to 11000
  144.7061  140.3858  143.7117 LP  0  0  0  0  0  0  0  0  0  0  0  0  # atno 17320 bound_to 7965
  145.6930  139.1643  143.2636 LP  0  0  0  0  0  0  0  0  0  0  0  0  # atno 17321 bound_to 7965
  140.7685  143.3364  151.2300 LP  0  0  0  0  0  0  0  0  0  0  0  0  # atno 17342 bound_to 10162
  139.6941  143.9643  152.2874 LP  0  0  0  0  0  0  0  0  0  0  0  0  # atno 17343 bound_to 10162
  156.1269  130.6150  151.0276 LP  0  0  0  0  0  0  0  0  0  0  0  0  # atno 17370 bound_to 10713
  157.6684  131.0867  150.7672 LP  0  0  0  0  0  0  0  0  0  0  0  0  # atno 17371 bound_to 10713
  139.9375  134.7848  156.0765 LP  0  0  0  0  0  0  0  0  0  0  0  0  # atno 17394 bound_to 11000
  141.1073  133.6655  156.2894 LP  0  0  0  0  0  0  0  0  0  0  0  0  # atno 17395 bound_to 11000

$$$$
