AV-unprocessed.smi:3326|AV-procd|sdf|12786|dock1
  -GOLD-   2272019133D 1   1.00000     0.00000
 Structure written by MMmdl.
 30 31  0  0  0  0  0  0  0  0  1 V2000
  151.8297  145.3320  160.3462 F   0  0  0  0  0  0  0  0  0  0  0  0
  151.7349  144.4392  159.3602 C   0  0  0  0  0  0  0  0  0  0  0  0
  150.4451  144.2976  159.0540 F   0  0  0  0  0  0  0  0  0  0  0  0
  152.3806  144.9250  158.2997 F   0  0  0  0  0  0  0  0  0  0  0  0
  152.3285  143.0901  159.7598 C   0  0  0  0  0  0  0  0  0  0  0  0
  153.0253  142.9484  160.9815 C   0  0  0  0  0  0  0  0  0  0  0  0
  153.5650  141.6962  161.3272 C   0  0  0  0  0  0  0  0  0  0  0  0
  153.3887  140.6248  160.4338 C   0  0  0  0  0  0  0  0  0  0  0  0
  152.7259  140.7419  159.2651 N   0  0  0  0  0  0  0  0  0  0  0  0
  152.2030  141.9460  158.9286 C   0  0  0  0  0  0  0  0  0  0  0  0
  151.5156  142.0424  157.7088 N   0  0  0  0  0  0  0  0  0  0  0  0
  150.6160  140.9887  157.2609 C   0  0  0  0  0  0  0  0  0  0  0  0
  151.0397  140.4301  155.8958 C   0  0  1  0  0  0  0  0  0  0  0  0
  152.2021  139.4425  155.9490 C   0  0  0  0  0  0  0  0  0  0  0  0
  152.0510  138.6984  154.6368 C   0  0  0  0  0  0  0  0  0  0  0  0
  150.5498  138.7868  154.3428 C   0  0  0  0  0  0  0  0  0  0  0  0
  149.9985  139.6431  155.3392 O   0  0  0  0  0  0  0  0  0  0  0  0
  153.1514  143.7833  161.6543 H   0  0  0  0  0  0  0  0  0  0  0  0
  154.1015  141.5605  162.2546 H   0  0  0  0  0  0  0  0  0  0  0  0
  153.7893  139.6483  160.6631 H   0  0  0  0  0  0  0  0  0  0  0  0
  151.6234  142.8655  157.1339 H   0  0  0  0  0  0  0  0  0  0  0  0
  150.5870  140.1892  158.0021 H   0  0  0  0  0  0  0  0  0  0  0  0
  149.6074  141.3973  157.1880 H   0  0  0  0  0  0  0  0  0  0  0  0
  151.2654  141.2425  155.2022 H   0  0  0  0  0  0  0  0  0  0  0  0
  153.1723  139.9289  156.0536 H   0  0  0  0  0  0  0  0  0  0  0  0
  152.0748  138.7517  156.7837 H   0  0  0  0  0  0  0  0  0  0  0  0
  152.6147  139.2035  153.8514 H   0  0  0  0  0  0  0  0  0  0  0  0
  152.4084  137.6703  154.7000 H   0  0  0  0  0  0  0  0  0  0  0  0
  150.3723  139.2049  153.3512 H   0  0  0  0  0  0  0  0  0  0  0  0
  150.0670  137.8104  154.3899 H   0  0  0  0  0  0  0  0  0  0  0  0
  1  2  1  0  0  0  0
  2  3  1  0  0  0  0
  2  4  1  0  0  0  0
  2  5  1  0  0  0  0
  5 10  1  0  0  0  0
  5  6  2  0  0  0  0
  6  7  1  0  0  0  0
  6 18  1  0  0  0  0
  7  8  2  0  0  0  0
  7 19  1  0  0  0  0
  8  9  1  0  0  0  0
  8 20  1  0  0  0  0
  9 10  2  0  0  0  0
 10 11  1  0  0  0  0
 11 12  1  0  0  0  0
 11 21  1  0  0  0  0
 12 13  1  0  0  0  0
 12 22  1  0  0  0  0
 12 23  1  0  0  0  0
 13 17  1  0  0  0  0
 13 14  1  0  0  0  0
 13 24  1  0  0  0  0
 14 15  1  0  0  0  0
 14 25  1  0  0  0  0
 14 26  1  0  0  0  0
 15 16  1  0  0  0  0
 15 27  1  0  0  0  0
 15 28  1  0  0  0  0
 16 17  1  0  0  0  0
 16 29  1  0  0  0  0
 16 30  1  0  0  0  0
M  END
> <s_m_source_file>
AV-unprocessed.smi

> <i_m_source_file_index>
3326

> <i_lp_mmshare_version>
43012

> <i_f3d_flags>
0

> <s_epik_input>
RkMoRikoRiljMVtjSF1bY0hdW2NIXW5jMVtOSF1bQ0gyXVtDQEBIXTJbQ0gyXVtDSDJdW0NIMl1PMg==

> <s_epik_cmdline>
J2VwaWtfcHl0aG9uJywgJy1waCcsICc3LjAnLCAnLXRuJywgJzgnLCAnLW1hJywgJzIwMCcsICctbWV0YWxfYmluZGluZycsICctaW1hZScsICc8aW5maWxlLm1hZT4nLCAnLW9tYWUnLCAnPG91dGZpbGUubWFlPic=

> <r_lp_tautomer_probability>
1

> <r_epik_Ionization_Penalty>
0.000820218

> <r_epik_Ionization_Penalty_Charging>
0

> <r_epik_Ionization_Penalty_Neutral>
0.000820218

> <r_epik_State_Penalty>
0.000527207

> <r_epik_Charging_Adjusted_Penalty>
0.000527207

> <i_epik_Tot_Q>
0

> <i_epik_Tot_abs_Q>
0

> <r_epik_Metal_State_Penalty>
-0

> <b_epik_Metal_Only>
0

> <s_lp_Force_Field>
OPLS_2005

> <r_lp_Energy>
21.9295

> <b_lp_Chiralities_Consistent>
1

> <s_lp_Variant>
AV-unprocessed.smi:3326-2

> <Gold.Version>
5.8.1

> <Gold.Id.Protein>
6NUR|6NUR_protein|mol2

> <Gold.PLP.Fitness>
45.9056

> <Gold.PLP.PLP>
-46.8526

> <Gold.PLP.part.hbond>
0.0000

> <Gold.PLP.part.metal>
0.0000

> <Gold.PLP.part.buried>
-6.0682

> <Gold.PLP.part.nonpolar>
-40.8041

> <Gold.PLP.part.repulsive>
0.0957

> <Gold.PLP.ligand.clash>
0.3146

> <Gold.PLP.ligand.torsion>
0.6097

> <Gold.PLP.Chemscore.Hbond>
0.0000

> <Gold.PLP.Chemscore.CHOScore>
0.0000

> <Gold.PLP.Chemscore.Metal>
0.0000

> <Gold.PLP.Chemscore.Internal.Correction>
0.5870

> <Gold.Rescore>
     Score         DG    S(hbond)    S(metal)    S(lipo)     H(rot)  DE(clash)    DE(int)     intcor
     10.12     -12.77       0.00        0.00      89.65       1.25       0.00       2.65       ----

> <Gold.Chemscore.Fitness>
10.1164

> <Gold.Chemscore.DG>
-12.7657

> <Gold.Chemscore.ZeroCoef>
-5.4800

> <Gold.Chemscore.Hbond>
0.0000

> <Gold.Chemscore.Metal>
0.0000

> <Gold.Chemscore.Lipo>
89.6516

> <Gold.Chemscore.Internal_Hbond>
0.0000

> <Gold.Chemscore.DEClash>
0.0024

> <Gold.Chemscore.DEInternal>
2.6469

> <Gold.Chemscore.Rot>
1.2514

> <Gold.Chemscore.Internal.Correction>
   9.000000E+99

> <Gold.Chemscore.Hbond.Weighted>
-0.0000

> <Gold.Chemscore.Metal.Weighted>
-0.0000

> <Gold.Chemscore.Lipo.Weighted>
-10.4892

> <Gold.Chemscore.Internal_Hbond.Weighted>
0.0000

> <Gold.Chemscore.DEClash.Weighted>
0.0024

> <Gold.Chemscore.DEInternal.Weighted>
2.6469

> <Gold.Chemscore.Rot.Weighted>
3.2036

> <Gold.Chemscore.Internal.Correction.Weighted>
   9.000000E+99

> <Gold.Protein.RotatedTorsions>
[ 6907 6896 6895 6894 ] final -125.99 input  -60.11 | X-H torsion
[ 7974 7965 7964 7962 ] final    5.66 input  175.53 | X-H torsion
[ 8008 7997 7996 7995 ] final   98.80 input   59.86 | X-H torsion
[ 10167 10162 10161 10158 ] final    5.02 input  -65.29 | X-H torsion
[ 10718 10713 10712 10709 ] final  -60.13 input   66.30 | X-H torsion
[ 10763 10752 10751 10750 ] final -137.56 input  -60.55 | X-H torsion
[ 11005 11000 10999 10996 ] final  -52.38 input  -57.11 | X-H torsion

> <Gold.Protein.ActiveResidues>
 VAL166  LYS551  ARG553  GLY616  TRP617  ASP618  TYR619  PRO620  LYS621  CYS622 
 ASP623  PHE694  ASN695  SER759  ASP760  ASP761  ALA762  ILE779  LEU786  VAL792 
 PHE793  MET794  SER795  GLU796  ALA797  LYS798  CYS799  TRP800  GLU811  SER814 

> <Gold.Protein.RotatedAtoms>
  150.8924  133.7226  159.2900 H   0  0  0  0  0  0  0  0  0  0  0  0  # atno 6907 bound_to 6896
  151.4772  135.1048  159.9777 H   0  0  0  0  0  0  0  0  0  0  0  0  # atno 6908 bound_to 6896
  152.4828  133.8249  159.7128 H   0  0  0  0  0  0  0  0  0  0  0  0  # atno 6909 bound_to 6896
  146.2439  140.0351  142.8386 H   0  0  0  0  0  0  0  0  0  0  0  0  # atno 7974 bound_to 7965
  156.1041  140.3238  155.7982 H   0  0  0  0  0  0  0  0  0  0  0  0  # atno 8008 bound_to 7997
  155.4786  140.0552  157.2987 H   0  0  0  0  0  0  0  0  0  0  0  0  # atno 8009 bound_to 7997
  154.4716  140.2014  155.9996 H   0  0  0  0  0  0  0  0  0  0  0  0  # atno 8010 bound_to 7997
  140.6504  143.7558  150.7566 H   0  0  0  0  0  0  0  0  0  0  0  0  # atno 10167 bound_to 10162
  156.1012  130.4186  150.0812 H   0  0  0  0  0  0  0  0  0  0  0  0  # atno 10718 bound_to 10713
  154.8659  135.3638  154.5243 H   0  0  0  0  0  0  0  0  0  0  0  0  # atno 10763 bound_to 10752
  153.5871  135.7016  153.5443 H   0  0  0  0  0  0  0  0  0  0  0  0  # atno 10764 bound_to 10752
  153.3406  135.4099  155.1530 H   0  0  0  0  0  0  0  0  0  0  0  0  # atno 10765 bound_to 10752
  141.0921  133.6631  156.4016 H   0  0  0  0  0  0  0  0  0  0  0  0  # atno 11005 bound_to 11000
  145.1120  140.9411  143.4651 LP  0  0  0  0  0  0  0  0  0  0  0  0  # atno 17320 bound_to 7965
  145.0567  139.3138  143.5901 LP  0  0  0  0  0  0  0  0  0  0  0  0  # atno 17321 bound_to 7965
  140.1208  143.4614  152.2314 LP  0  0  0  0  0  0  0  0  0  0  0  0  # atno 17342 bound_to 10162
  139.5719  144.7467  151.3869 LP  0  0  0  0  0  0  0  0  0  0  0  0  # atno 17343 bound_to 10162
  156.8798  130.9553  151.3600 LP  0  0  0  0  0  0  0  0  0  0  0  0  # atno 17370 bound_to 10713
  157.6182  130.8635  149.9064 LP  0  0  0  0  0  0  0  0  0  0  0  0  # atno 17371 bound_to 10713
  140.5227  134.6289  157.5323 LP  0  0  0  0  0  0  0  0  0  0  0  0  # atno 17394 bound_to 11000
  139.9749  134.7231  155.9968 LP  0  0  0  0  0  0  0  0  0  0  0  0  # atno 17395 bound_to 11000

$$$$
