AV-unprocessed.smi:1600|AV-procd|sdf|6428|dock4
  -GOLD-   22720 7 73D 1   1.00000     0.00000
 Structure written by MMmdl.
 46 47  0  0  0  0  0  0  0  0  2 V2000
  153.6756  141.5301  160.6320 C   0  0  0  0  0  0  0  0  0  0  0  0
  152.8921  142.2010  159.5427 C   0  0  0  0  0  0  0  0  0  0  0  0
  151.9179  141.6218  158.6786 C   0  0  0  0  0  0  0  0  0  0  0  0
  151.5410  142.6802  157.8974 C   0  0  0  0  0  0  0  0  0  0  0  0
  150.6282  142.7166  156.8903 N   0  0  0  0  0  0  0  0  0  0  0  0
  150.1194  141.6923  156.1834 C   0  0  0  0  0  0  0  0  0  0  0  0
  150.3957  140.5037  156.3471 O   0  0  0  0  0  0  0  0  0  0  0  0
  149.2678  142.1272  155.2430 N   0  0  0  0  0  0  0  0  0  0  0  0
  148.5393  141.2785  154.3021 C   0  0  0  0  0  0  0  0  0  0  0  0
  147.0127  141.5132  154.3077 C   0  0  1  0  0  0  0  0  0  0  0  0
  146.3119  141.2888  155.6473 C   0  0  0  0  0  0  0  0  0  0  0  0
  145.0002  142.0784  155.5304 C   0  0  0  0  0  0  0  0  0  0  0  0
  145.1281  142.9762  154.3533 N   0  3  1  0  0  0  0  0  0  0  0  0
  144.5653  144.3442  154.5360 C   0  0  0  0  0  0  0  0  0  0  0  0
  143.0986  144.2814  155.0023 C   0  0  0  0  0  0  0  0  0  0  0  0
  144.6577  145.1790  153.2443 C   0  0  0  0  0  0  0  0  0  0  0  0
  146.5436  142.9187  153.9278 C   0  0  0  0  0  0  0  0  0  0  0  0
  152.2472  143.7957  158.2887 N   0  0  0  0  0  0  0  0  0  0  0  0
  152.1949  145.1482  157.7689 C   0  0  0  0  0  0  0  0  0  0  0  0
  153.0842  143.4937  159.3045 N   0  0  0  0  0  0  0  0  0  0  0  0
  153.3138  140.5173  160.8104 H   0  0  0  0  0  0  0  0  0  0  0  0
  153.5965  142.0796  161.5704 H   0  0  0  0  0  0  0  0  0  0  0  0
  154.7318  141.4636  160.3706 H   0  0  0  0  0  0  0  0  0  0  0  0
  151.5687  140.6008  158.6559 H   0  0  0  0  0  0  0  0  0  0  0  0
  150.3134  143.6394  156.6290 H   0  0  0  0  0  0  0  0  0  0  0  0
  149.0990  143.1210  155.1802 H   0  0  0  0  0  0  0  0  0  0  0  0
  148.9305  141.4029  153.2910 H   0  0  0  0  0  0  0  0  0  0  0  0
  148.7422  140.2420  154.5724 H   0  0  0  0  0  0  0  0  0  0  0  0
  146.5732  140.8202  153.5882 H   0  0  0  0  0  0  0  0  0  0  0  0
  146.1465  140.2318  155.8583 H   0  0  0  0  0  0  0  0  0  0  0  0
  146.9035  141.6990  156.4665 H   0  0  0  0  0  0  0  0  0  0  0  0
  144.1505  141.4127  155.3763 H   0  0  0  0  0  0  0  0  0  0  0  0
  144.8231  142.6349  156.4520 H   0  0  0  0  0  0  0  0  0  0  0  0
  145.1496  144.8511  155.3057 H   0  0  0  0  0  0  0  0  0  0  0  0
  142.6847  145.2828  155.1242 H   0  0  0  0  0  0  0  0  0  0  0  0
  142.9921  143.7761  155.9620 H   0  0  0  0  0  0  0  0  0  0  0  0
  142.4764  143.7541  154.2783 H   0  0  0  0  0  0  0  0  0  0  0  0
  144.2001  146.1595  153.3807 H   0  0  0  0  0  0  0  0  0  0  0  0
  144.1445  144.6885  152.4166 H   0  0  0  0  0  0  0  0  0  0  0  0
  145.6902  145.3549  152.9427 H   0  0  0  0  0  0  0  0  0  0  0  0
  147.1046  143.6771  154.4742 H   0  0  0  0  0  0  0  0  0  0  0  0
  146.6567  143.1127  152.8608 H   0  0  0  0  0  0  0  0  0  0  0  0
  152.4402  145.1423  156.7066 H   0  0  0  0  0  0  0  0  0  0  0  0
  152.9056  145.7892  158.2924 H   0  0  0  0  0  0  0  0  0  0  0  0
  151.1912  145.5523  157.9015 H   0  0  0  0  0  0  0  0  0  0  0  0
  144.6022  142.5379  153.6107 H   0  0  0  0  0  0  0  0  0  0  0  0
  1  2  1  0  0  0  0
  1 21  1  0  0  0  0
  1 22  1  0  0  0  0
  1 23  1  0  0  0  0
  2 20  2  0  0  0  0
  2  3  1  0  0  0  0
  3  4  2  0  0  0  0
  3 24  1  0  0  0  0
  4  5  1  0  0  0  0
  4 18  1  0  0  0  0
  5  6  1  0  0  0  0
  5 25  1  0  0  0  0
  6  7  2  0  0  0  0
  6  8  1  0  0  0  0
  8  9  1  0  0  0  0
  8 26  1  0  0  0  0
  9 10  1  0  0  0  0
  9 27  1  0  0  0  0
  9 28  1  0  0  0  0
 10 17  1  0  0  0  0
 10 11  1  0  0  0  0
 10 29  1  0  0  0  0
 11 12  1  0  0  0  0
 11 30  1  0  0  0  0
 11 31  1  0  0  0  0
 12 13  1  0  0  0  0
 12 32  1  0  0  0  0
 12 33  1  0  0  0  0
 13 14  1  0  0  0  0
 13 17  1  0  0  0  0
 13 46  1  0  0  0  0
 14 15  1  0  0  0  0
 14 16  1  0  0  0  0
 14 34  1  0  0  0  0
 15 35  1  0  0  0  0
 15 36  1  0  0  0  0
 15 37  1  0  0  0  0
 16 38  1  0  0  0  0
 16 39  1  0  0  0  0
 16 40  1  0  0  0  0
 17 41  1  0  0  0  0
 17 42  1  0  0  0  0
 18 19  1  0  0  0  0
 18 20  1  0  0  0  0
 19 43  1  0  0  0  0
 19 44  1  0  0  0  0
 19 45  1  0  0  0  0
M  CHG  1  13   1
M  END
> <s_m_source_file>
AV-unprocessed.smi

> <i_m_source_file_index>
1600

> <i_lp_mmshare_version>
43012

> <i_f3d_flags>
0

> <s_epik_input>
W0NIM11jMVtjSF1jKG4objEpW0NIM10pW05IXUMoPU8pW05IXVtDSDJdW0NAQEhdMltDSDJdW0NIMl1OKFtDSDJdMilbQ0hdKFtDSDNdKVtDSDNd

> <s_epik_cmdline>
J2VwaWtfcHl0aG9uJywgJy1waCcsICc3LjAnLCAnLXRuJywgJzgnLCAnLW1hJywgJzIwMCcsICctbWV0YWxfYmluZGluZycsICctaW1hZScsICc8aW5maWxlLm1hZT4nLCAnLW9tYWUnLCAnPG91dGZpbGUubWFlPic=

> <r_lp_tautomer_probability>
1

> <r_epik_Ionization_Penalty>
0.000297652

> <r_epik_Ionization_Penalty_Charging>
0.000213653

> <r_epik_Ionization_Penalty_Neutral>
8.3999e-05

> <r_epik_State_Penalty>
-0

> <r_epik_Charging_Adjusted_Penalty>
0.000213653

> <i_epik_Tot_Q>
1

> <i_epik_Tot_abs_Q>
1

> <r_epik_Metal_State_Penalty>
-0

> <b_epik_Metal_Only>
0

> <s_lp_Force_Field>
OPLS_2005

> <r_lp_Energy>
33.4544

> <b_lp_Chiralities_Consistent>
1

> <s_lp_Variant>
AV-unprocessed.smi:1600-2

> <Gold.Version>
5.8.1

> <Gold.Id.Protein>
6NUR|6NUR_protein|mol2

> <Gold.PLP.Fitness>
49.8864

> <Gold.PLP.PLP>
-44.2323

> <Gold.PLP.part.hbond>
-2.0022

> <Gold.PLP.part.metal>
0.0000

> <Gold.PLP.part.buried>
-9.4676

> <Gold.PLP.part.nonpolar>
-33.9897

> <Gold.PLP.part.repulsive>
0.2745

> <Gold.PLP.ligand.clash>
0.0000

> <Gold.PLP.ligand.torsion>
0.1084

> <Gold.PLP.Chemscore.Hbond>
1.9440

> <Gold.PLP.Chemscore.CHOScore>
0.0000

> <Gold.PLP.Chemscore.Metal>
0.0000

> <Gold.Chemscore.Hbonds>
donor molecule, donor type, donor heavy atom, donor atom, acceptor molecule, acceptor atom, score
      L1  H     5    25       P1  8028  0.94
      L1  H     8    26       P1  8028  1.00

> <Gold.PLP.Chemscore.Internal.Correction>
0.0389

> <Gold.Rescore>
     Score         DG    S(hbond)    S(metal)    S(lipo)     H(rot)  DE(clash)    DE(int)     intcor
     16.38     -18.96       1.95        0.00      91.05       1.44       1.42       1.16       ----

> <Gold.Chemscore.Fitness>
16.3796

> <Gold.Chemscore.DG>
-18.9591

> <Gold.Chemscore.ZeroCoef>
-5.4800

> <Gold.Chemscore.Hbond>
1.9475

> <Gold.Chemscore.Metal>
0.0000

> <Gold.Chemscore.Lipo>
91.0516

> <Gold.Chemscore.Internal_Hbond>
0.0000

> <Gold.Chemscore.DEClash>
1.4200

> <Gold.Chemscore.DEInternal>
1.1595

> <Gold.Chemscore.Rot>
1.4369

> <Gold.Chemscore.Internal.Correction>
   9.000000E+99

> <Gold.Chemscore.Hbonds>
donor molecule, donor type, donor heavy atom, donor atom, acceptor molecule, acceptor atom, score
      L1  H     5    25       P1  8028  0.85
      L1  H     8    26       P1  8028  1.00

> <Gold.Chemscore.Hbond.Weighted>
-6.5046

> <Gold.Chemscore.Metal.Weighted>
-0.0000

> <Gold.Chemscore.Lipo.Weighted>
-10.6530

> <Gold.Chemscore.Internal_Hbond.Weighted>
0.0000

> <Gold.Chemscore.DEClash.Weighted>
1.4200

> <Gold.Chemscore.DEInternal.Weighted>
1.1595

> <Gold.Chemscore.Rot.Weighted>
3.6785

> <Gold.Chemscore.Internal.Correction.Weighted>
   9.000000E+99

> <Gold.Protein.RotatedTorsions>
[ 6907 6896 6895 6894 ] final -157.15 input  -60.11 | X-H torsion
[ 7974 7965 7964 7962 ] final  110.56 input  175.53 | X-H torsion
[ 8008 7997 7996 7995 ] final -166.93 input   59.86 | X-H torsion
[ 10167 10162 10161 10158 ] final -125.09 input  -65.29 | X-H torsion
[ 10718 10713 10712 10709 ] final   65.04 input   66.30 | X-H torsion
[ 10763 10752 10751 10750 ] final  102.81 input  -60.55 | X-H torsion
[ 11005 11000 10999 10996 ] final   78.82 input  -57.11 | X-H torsion

> <Gold.Protein.ActiveResidues>
 VAL166  LYS551  ARG553  GLY616  TRP617  ASP618  TYR619  PRO620  LYS621  CYS622 
 ASP623  PHE694  ASN695  SER759  ASP760  ASP761  ALA762  ILE779  LEU786  VAL792 
 PHE793  MET794  SER795  GLU796  ALA797  LYS798  CYS799  TRP800  GLU811  SER814 

> <Gold.Protein.RotatedAtoms>
  151.2985  133.4133  159.2637 H   0  0  0  0  0  0  0  0  0  0  0  0  # atno 6907 bound_to 6896
  151.0216  134.9474  159.8073 H   0  0  0  0  0  0  0  0  0  0  0  0  # atno 6908 bound_to 6896
  152.5325  134.2947  159.9109 H   0  0  0  0  0  0  0  0  0  0  0  0  # atno 6909 bound_to 6896
  145.2534  139.2731  143.4055 H   0  0  0  0  0  0  0  0  0  0  0  0  # atno 7974 bound_to 7965
  155.8707  140.0993  157.1552 H   0  0  0  0  0  0  0  0  0  0  0  0  # atno 8008 bound_to 7997
  154.3997  140.1347  156.4137 H   0  0  0  0  0  0  0  0  0  0  0  0  # atno 8009 bound_to 7997
  155.7754  140.3460  155.5271 H   0  0  0  0  0  0  0  0  0  0  0  0  # atno 8010 bound_to 7997
  139.9858  143.5694  152.2361 H   0  0  0  0  0  0  0  0  0  0  0  0  # atno 10167 bound_to 10162
  157.6079  130.9192  149.9924 H   0  0  0  0  0  0  0  0  0  0  0  0  # atno 10718 bound_to 10713
  153.3444  135.3998  155.1597 H   0  0  0  0  0  0  0  0  0  0  0  0  # atno 10763 bound_to 10752
  154.8650  135.3641  154.5303 H   0  0  0  0  0  0  0  0  0  0  0  0  # atno 10764 bound_to 10752
  153.5750  135.7078  153.5548 H   0  0  0  0  0  0  0  0  0  0  0  0  # atno 10765 bound_to 10752
  139.9197  134.7794  156.1699 H   0  0  0  0  0  0  0  0  0  0  0  0  # atno 11005 bound_to 11000
  146.3296  140.2931  142.8616 LP  0  0  0  0  0  0  0  0  0  0  0  0  # atno 17320 bound_to 7965
  144.9483  140.8151  143.5588 LP  0  0  0  0  0  0  0  0  0  0  0  0  # atno 17321 bound_to 7965
  139.6376  144.7651  151.2405 LP  0  0  0  0  0  0  0  0  0  0  0  0  # atno 17342 bound_to 10162
  140.7473  143.6371  150.8369 LP  0  0  0  0  0  0  0  0  0  0  0  0  # atno 17343 bound_to 10162
  156.1172  130.3647  149.9949 LP  0  0  0  0  0  0  0  0  0  0  0  0  # atno 17370 bound_to 10713
  156.8036  130.9299  151.3645 LP  0  0  0  0  0  0  0  0  0  0  0  0  # atno 17371 bound_to 10713
  141.0707  133.6798  156.2134 LP  0  0  0  0  0  0  0  0  0  0  0  0  # atno 17394 bound_to 11000
  140.6512  134.5065  157.5577 LP  0  0  0  0  0  0  0  0  0  0  0  0  # atno 17395 bound_to 11000

$$$$
