AV-unprocessed.smi:1292|AV-procd|sdf|5397|dock3
  -GOLD-   22720 4553D 1   1.00000     0.00000
 Structure written by MMmdl.
 39 40  0  0  0  0  0  0  0  0  2 V2000
  151.7425  144.1037  157.6649 C   0  0  0  0  0  0  0  0  0  0  0  0
  151.9099  143.1766  158.8769 C   0  0  2  0  0  0  0  0  0  0  0  0
  152.9730  143.7066  159.8491 C   0  0  0  0  0  0  0  0  0  0  0  0
  153.0901  142.7593  161.0462 C   0  0  0  0  0  0  0  0  0  0  0  0
  153.4189  141.3285  160.5933 C   0  0  0  0  0  0  0  0  0  0  0  0
  152.4440  140.8403  159.5960 N   0  0  0  0  0  0  0  0  0  0  0  0
  152.3584  139.1277  159.3118 S   0  0  0  0  0  0  0  0  0  0  0  0
  153.2468  138.4915  160.2980 O   0  0  0  0  0  0  0  0  0  0  0  0
  150.9291  138.7751  159.3458 O   0  0  0  0  0  0  0  0  0  0  0  0
  152.9822  139.1575  157.8173 N   0  5  0  0  0  0  0  0  0  0  0  0
  152.5896  138.1450  156.8538 C   0  0  0  0  0  0  0  0  0  0  0  0
  152.4755  138.7605  155.4391 C   0  0  0  0  0  0  0  0  0  0  0  0
  151.1366  139.4266  155.1230 C   0  0  0  0  0  0  0  0  0  0  0  0
  150.0953  138.6963  154.5050 C   0  0  0  0  0  0  0  0  0  0  0  0
  148.8786  139.3523  154.2354 C   0  0  0  0  0  0  0  0  0  0  0  0
  148.7465  140.7099  154.5847 C   0  0  0  0  0  0  0  0  0  0  0  0
  149.8439  141.3551  155.1882 C   0  0  0  0  0  0  0  0  0  0  0  0
  151.0153  140.7373  155.4473 N   0  0  0  0  0  0  0  0  0  0  0  0
  152.2513  141.7397  158.4380 C   0  0  0  0  0  0  0  0  0  0  0  0
  152.6664  144.1747  157.0900 H   0  0  0  0  0  0  0  0  0  0  0  0
  151.4640  145.1108  157.9756 H   0  0  0  0  0  0  0  0  0  0  0  0
  150.9624  143.7375  156.9968 H   0  0  0  0  0  0  0  0  0  0  0  0
  150.9542  143.1486  159.4027 H   0  0  0  0  0  0  0  0  0  0  0  0
  153.9370  143.7885  159.3449 H   0  0  0  0  0  0  0  0  0  0  0  0
  152.7096  144.7075  160.1924 H   0  0  0  0  0  0  0  0  0  0  0  0
  153.8606  143.1164  161.7298 H   0  0  0  0  0  0  0  0  0  0  0  0
  152.1548  142.7587  161.6075 H   0  0  0  0  0  0  0  0  0  0  0  0
  154.4192  141.2903  160.1595 H   0  0  0  0  0  0  0  0  0  0  0  0
  153.4251  140.6671  161.4592 H   0  0  0  0  0  0  0  0  0  0  0  0
  153.3151  137.3316  156.8240 H   0  0  0  0  0  0  0  0  0  0  0  0
  151.6374  137.6819  157.1152 H   0  0  0  0  0  0  0  0  0  0  0  0
  153.2780  139.4841  155.2870 H   0  0  0  0  0  0  0  0  0  0  0  0
  152.6450  137.9769  154.7000 H   0  0  0  0  0  0  0  0  0  0  0  0
  150.2241  137.6544  154.2520 H   0  0  0  0  0  0  0  0  0  0  0  0
  148.0603  138.8227  153.7703 H   0  0  0  0  0  0  0  0  0  0  0  0
  147.8276  141.2441  154.3948 H   0  0  0  0  0  0  0  0  0  0  0  0
  149.7801  142.3961  155.4681 H   0  0  0  0  0  0  0  0  0  0  0  0
  151.4505  141.3551  157.8069 H   0  0  0  0  0  0  0  0  0  0  0  0
  153.1581  141.7323  157.8313 H   0  0  0  0  0  0  0  0  0  0  0  0
  1  2  1  0  0  0  0
  1 20  1  0  0  0  0
  1 21  1  0  0  0  0
  1 22  1  0  0  0  0
  2 19  1  0  0  0  0
  2  3  1  0  0  0  0
  2 23  1  0  0  0  0
  3  4  1  0  0  0  0
  3 24  1  0  0  0  0
  3 25  1  0  0  0  0
  4  5  1  0  0  0  0
  4 26  1  0  0  0  0
  4 27  1  0  0  0  0
  5  6  1  0  0  0  0
  5 28  1  0  0  0  0
  5 29  1  0  0  0  0
  6  7  1  0  0  0  0
  6 19  1  0  0  0  0
  7  8  2  0  0  0  0
  7  9  2  0  0  0  0
  7 10  1  0  0  0  0
 10 11  1  0  0  0  0
 11 12  1  0  0  0  0
 11 30  1  0  0  0  0
 11 31  1  0  0  0  0
 12 13  1  0  0  0  0
 12 32  1  0  0  0  0
 12 33  1  0  0  0  0
 13 18  1  0  0  0  0
 13 14  2  0  0  0  0
 14 15  1  0  0  0  0
 14 34  1  0  0  0  0
 15 16  2  0  0  0  0
 15 35  1  0  0  0  0
 16 17  1  0  0  0  0
 16 36  1  0  0  0  0
 17 18  2  0  0  0  0
 17 37  1  0  0  0  0
 19 38  1  0  0  0  0
 19 39  1  0  0  0  0
M  CHG  1  10  -1
M  END
> <s_m_source_file>
AV-unprocessed.smi

> <i_m_source_file_index>
1292

> <i_lp_mmshare_version>
43012

> <i_f3d_flags>
0

> <s_epik_input>
W0NIM11bQ0BASF0xW0NIMl1bQ0gyXVtDSDJdTihbQ0gyXTEpUyg9TykoPU8pW05IXVtDSDJdW0NIMl1jMltjSF1bY0hdW2NIXVtjSF1uMg==

> <s_epik_cmdline>
J2VwaWtfcHl0aG9uJywgJy1waCcsICc3LjAnLCAnLXRuJywgJzgnLCAnLW1hJywgJzIwMCcsICctbWV0YWxfYmluZGluZycsICctaW1hZScsICc8aW5maWxlLm1hZT4nLCAnLW9tYWUnLCAnPG91dGZpbGUubWFlPic=

> <r_epik_Ionization_Penalty>
2.02944

> <r_epik_Ionization_Penalty_Charging>
1.95606

> <r_epik_Ionization_Penalty_Neutral>
0.0733799

> <r_epik_State_Penalty>
2.47711

> <r_epik_Charging_Adjusted_Penalty>
4.43317

> <i_epik_Tot_Q>
-1

> <i_epik_Tot_abs_Q>
1

> <r_epik_Metal_State_Penalty>
0.729901

> <b_epik_Metal_Only>
0

> <s_lp_Force_Field>
OPLS_2005

> <r_lp_Energy>
8.05256

> <b_lp_Chiralities_Consistent>
1

> <s_lp_Variant>
AV-unprocessed.smi:1292-3

> <Gold.Version>
5.8.1

> <Gold.Id.Protein>
6NUR|6NUR_protein|mol2

> <Gold.PLP.Fitness>
51.0737

> <Gold.PLP.PLP>
-43.7682

> <Gold.PLP.part.hbond>
-2.3916

> <Gold.PLP.part.metal>
0.0000

> <Gold.PLP.part.buried>
-1.8325

> <Gold.PLP.part.nonpolar>
-38.6274

> <Gold.PLP.part.repulsive>
0.0531

> <Gold.PLP.ligand.clash>
0.0000

> <Gold.PLP.ligand.torsion>
2.3960

> <Gold.PLP.Chemscore.Hbond>
2.0000

> <Gold.PLP.Chemscore.CHOScore>
1.0000

> <Gold.PLP.Chemscore.Metal>
0.0000

> <Gold.Chemscore.Hbonds>
donor molecule, donor type, donor heavy atom, donor atom, acceptor molecule, acceptor atom, score
      P1  H  7997  8010       L1    10  2.00
      L1  C    17    37       P1  8028  1.00

> <Gold.PLP.Chemscore.Internal.Correction>
3.0976

> <Gold.Rescore>
     Score         DG    S(hbond)    S(metal)    S(lipo)     H(rot)  DE(clash)    DE(int)     intcor
     16.29     -18.72       0.91        0.00     115.05       1.27       0.10       2.33       ----

> <Gold.Chemscore.Fitness>
16.2905

> <Gold.Chemscore.DG>
-18.7230

> <Gold.Chemscore.ZeroCoef>
-5.4800

> <Gold.Chemscore.Hbond>
0.9110

> <Gold.Chemscore.Metal>
0.0000

> <Gold.Chemscore.Lipo>
115.0549

> <Gold.Chemscore.Internal_Hbond>
0.0000

> <Gold.Chemscore.DEClash>
0.1031

> <Gold.Chemscore.DEInternal>
2.3293

> <Gold.Chemscore.Rot>
1.2738

> <Gold.Chemscore.Internal.Correction>
   9.000000E+99

> <Gold.Chemscore.Hbonds>
donor molecule, donor type, donor heavy atom, donor atom, acceptor molecule, acceptor atom, score
      P1  H  7997  8010       L1    10  0.52

> <Gold.Chemscore.Hbond.Weighted>
-3.0426

> <Gold.Chemscore.Metal.Weighted>
-0.0000

> <Gold.Chemscore.Lipo.Weighted>
-13.4614

> <Gold.Chemscore.Internal_Hbond.Weighted>
0.0000

> <Gold.Chemscore.DEClash.Weighted>
0.1031

> <Gold.Chemscore.DEInternal.Weighted>
2.3293

> <Gold.Chemscore.Rot.Weighted>
3.2610

> <Gold.Chemscore.Internal.Correction.Weighted>
   9.000000E+99

> <Gold.Protein.RotatedTorsions>
[ 6907 6896 6895 6894 ] final   54.30 input  -60.11 | X-H torsion
[ 7974 7965 7964 7962 ] final   54.88 input  175.53 | X-H torsion
[ 8008 7997 7996 7995 ] final   29.88 input   59.86 | X-H torsion
[ 10167 10162 10161 10158 ] final  149.30 input  -65.29 | X-H torsion
[ 10718 10713 10712 10709 ] final   82.48 input   66.30 | X-H torsion
[ 10763 10752 10751 10750 ] final  -26.72 input  -60.55 | X-H torsion
[ 11005 11000 10999 10996 ] final  -46.72 input  -57.11 | X-H torsion

> <Gold.Protein.ActiveResidues>
 VAL166  LYS551  ARG553  GLY616  TRP617  ASP618  TYR619  PRO620  LYS621  CYS622 
 ASP623  PHE694  ASN695  SER759  ASP760  ASP761  ALA762  ILE779  LEU786  VAL792 
 PHE793  MET794  SER795  GLU796  ALA797  LYS798  CYS799  TRP800  GLU811  SER814 

> <Gold.Protein.RotatedAtoms>
  152.3424  134.7116  160.0259 H   0  0  0  0  0  0  0  0  0  0  0  0  # atno 6907 bound_to 6896
  151.7497  133.3321  159.3396 H   0  0  0  0  0  0  0  0  0  0  0  0  # atno 6908 bound_to 6896
  150.7488  134.6136  159.6144 H   0  0  0  0  0  0  0  0  0  0  0  0  # atno 6909 bound_to 6896
  145.9563  139.4017  143.0275 H   0  0  0  0  0  0  0  0  0  0  0  0  # atno 7974 bound_to 7965
  155.0815  140.3210  155.4600 H   0  0  0  0  0  0  0  0  0  0  0  0  # atno 8008 bound_to 7997
  156.2766  140.2094  156.5888 H   0  0  0  0  0  0  0  0  0  0  0  0  # atno 8009 bound_to 7997
  154.6975  140.0510  157.0412 H   0  0  0  0  0  0  0  0  0  0  0  0  # atno 8010 bound_to 7997
  139.4863  144.5612  151.7227 H   0  0  0  0  0  0  0  0  0  0  0  0  # atno 10167 bound_to 10162
  157.6858  131.0049  150.2380 H   0  0  0  0  0  0  0  0  0  0  0  0  # atno 10718 bound_to 10713
  153.7205  135.6945  153.5014 H   0  0  0  0  0  0  0  0  0  0  0  0  # atno 10763 bound_to 10752
  153.2207  135.4371  155.0484 H   0  0  0  0  0  0  0  0  0  0  0  0  # atno 10764 bound_to 10752
  154.8286  135.3460  154.6739 H   0  0  0  0  0  0  0  0  0  0  0  0  # atno 10765 bound_to 10752
  141.0596  133.6713  156.3195 H   0  0  0  0  0  0  0  0  0  0  0  0  # atno 11005 bound_to 11000
  145.8102  140.9729  143.0952 LP  0  0  0  0  0  0  0  0  0  0  0  0  # atno 17320 bound_to 7965
  144.6805  139.9912  143.7484 LP  0  0  0  0  0  0  0  0  0  0  0  0  # atno 17321 bound_to 7965
  140.5182  144.0920  150.6014 LP  0  0  0  0  0  0  0  0  0  0  0  0  # atno 17342 bound_to 10162
  140.3869  143.2773  152.0106 LP  0  0  0  0  0  0  0  0  0  0  0  0  # atno 17343 bound_to 10162
  156.3000  130.3757  149.7759 LP  0  0  0  0  0  0  0  0  0  0  0  0  # atno 17370 bound_to 10713
  156.5392  130.8292  151.3263 LP  0  0  0  0  0  0  0  0  0  0  0  0  # atno 17371 bound_to 10713
  140.5895  134.5665  157.5496 LP  0  0  0  0  0  0  0  0  0  0  0  0  # atno 17394 bound_to 11000
  139.9421  134.7769  156.0653 LP  0  0  0  0  0  0  0  0  0  0  0  0  # atno 17395 bound_to 11000

$$$$
