AV-unprocessed.smi:2208|AV-procd|sdf|8946|dock6
  -GOLD-   2272012163D 1   1.00000     0.00000
 Structure written by MMmdl.
 35 36  0  0  0  0  0  0  0  0  1 V2000
  150.8984  130.3493  155.2891 C   0  0  0  0  0  0  0  0  0  0  0  0
  150.5565  131.6974  155.8567 C   0  0  0  0  0  0  0  0  0  0  0  0
  150.8401  131.9488  157.1234 N   0  0  0  0  0  0  0  0  0  0  0  0
  150.4283  133.2641  157.3560 O   0  0  0  0  0  0  0  0  0  0  0  0
  149.9056  133.7597  156.2064 C   0  0  0  0  0  0  0  0  0  0  0  0
  149.4225  135.1700  156.2510 C   0  0  0  0  0  0  0  0  0  0  0  0
  149.9510  132.8173  155.2149 C   0  0  0  0  0  0  0  0  0  0  0  0
  149.4896  132.9382  153.7841 C   0  0  0  0  0  0  0  0  0  0  0  0
  147.9669  133.0569  153.7549 C   0  0  0  0  0  0  0  0  0  0  0  0
  147.2730  132.2393  154.3590 O   0  0  0  0  0  0  0  0  0  0  0  0
  147.4628  134.0637  153.0255 N   0  0  0  0  0  0  0  0  0  0  0  0
  146.0459  134.2882  152.7704 C   0  0  0  0  0  0  0  0  0  0  0  0
  145.6107  133.6207  151.4560 C   0  0  1  0  0  0  0  0  0  0  0  0
  145.9495  132.1355  151.3738 C   0  0  0  0  0  0  0  0  0  0  0  0
  144.9802  131.6663  150.3117 C   0  0  0  0  0  0  0  0  0  0  0  0
  143.7405  132.5114  150.6018 C   0  0  0  0  0  0  0  0  0  0  0  0
  144.1939  133.6587  151.3170 O   0  0  0  0  0  0  0  0  0  0  0  0
  151.9785  130.2067  155.2473 H   0  0  0  0  0  0  0  0  0  0  0  0
  150.5129  130.2271  154.2775 H   0  0  0  0  0  0  0  0  0  0  0  0
  150.4795  129.5487  155.8993 H   0  0  0  0  0  0  0  0  0  0  0  0
  150.2576  135.8644  156.1606 H   0  0  0  0  0  0  0  0  0  0  0  0
  148.9106  135.3763  157.1910 H   0  0  0  0  0  0  0  0  0  0  0  0
  148.7259  135.3726  155.4373 H   0  0  0  0  0  0  0  0  0  0  0  0
  149.9199  133.8094  153.2903 H   0  0  0  0  0  0  0  0  0  0  0  0
  149.8032  132.0773  153.1921 H   0  0  0  0  0  0  0  0  0  0  0  0
  148.1113  134.6848  152.5637 H   0  0  0  0  0  0  0  0  0  0  0  0
  145.4500  133.9116  153.6035 H   0  0  0  0  0  0  0  0  0  0  0  0
  145.8700  135.3632  152.7230 H   0  0  0  0  0  0  0  0  0  0  0  0
  146.0524  134.1343  150.6000 H   0  0  0  0  0  0  0  0  0  0  0  0
  146.9921  131.9503  151.1140 H   0  0  0  0  0  0  0  0  0  0  0  0
  145.7366  131.6379  152.3210 H   0  0  0  0  0  0  0  0  0  0  0  0
  145.3715  131.9051  149.3217 H   0  0  0  0  0  0  0  0  0  0  0  0
  144.7850  130.5944  150.3513 H   0  0  0  0  0  0  0  0  0  0  0  0
  143.2221  132.7991  149.6871 H   0  0  0  0  0  0  0  0  0  0  0  0
  143.0376  131.9656  151.2317 H   0  0  0  0  0  0  0  0  0  0  0  0
  1  2  1  0  0  0  0
  1 18  1  0  0  0  0
  1 19  1  0  0  0  0
  1 20  1  0  0  0  0
  2  7  1  0  0  0  0
  2  3  2  0  0  0  0
  3  4  1  0  0  0  0
  4  5  1  0  0  0  0
  5  6  1  0  0  0  0
  5  7  2  0  0  0  0
  6 21  1  0  0  0  0
  6 22  1  0  0  0  0
  6 23  1  0  0  0  0
  7  8  1  0  0  0  0
  8  9  1  0  0  0  0
  8 24  1  0  0  0  0
  8 25  1  0  0  0  0
  9 10  2  0  0  0  0
  9 11  1  0  0  0  0
 11 12  1  0  0  0  0
 11 26  1  0  0  0  0
 12 13  1  0  0  0  0
 12 27  1  0  0  0  0
 12 28  1  0  0  0  0
 13 17  1  0  0  0  0
 13 14  1  0  0  0  0
 13 29  1  0  0  0  0
 14 15  1  0  0  0  0
 14 30  1  0  0  0  0
 14 31  1  0  0  0  0
 15 16  1  0  0  0  0
 15 32  1  0  0  0  0
 15 33  1  0  0  0  0
 16 17  1  0  0  0  0
 16 34  1  0  0  0  0
 16 35  1  0  0  0  0
M  END
> <s_m_source_file>
AV-unprocessed.smi

> <i_m_source_file_index>
2208

> <i_lp_mmshare_version>
43012

> <i_f3d_flags>
0

> <s_epik_input>
W0NIM11jMW5vYyhbQ0gzXSljMVtDSDJdQyg9TylbTkhdW0NIMl1bQ0BASF0yW0NIMl1bQ0gyXVtDSDJdTzI=

> <s_epik_cmdline>
J2VwaWtfcHl0aG9uJywgJy1waCcsICc3LjAnLCAnLXRuJywgJzgnLCAnLW1hJywgJzIwMCcsICctbWV0YWxfYmluZGluZycsICctaW1hZScsICc8aW5maWxlLm1hZT4nLCAnLW9tYWUnLCAnPG91dGZpbGUubWFlPic=

> <r_lp_tautomer_probability>
1

> <r_epik_Ionization_Penalty>
3.13901e-08

> <r_epik_Ionization_Penalty_Charging>
0

> <r_epik_Ionization_Penalty_Neutral>
3.13901e-08

> <r_epik_State_Penalty>
-0

> <r_epik_Charging_Adjusted_Penalty>
0

> <i_epik_Tot_Q>
0

> <i_epik_Tot_abs_Q>
0

> <r_epik_Metal_State_Penalty>
-0

> <b_epik_Metal_Only>
0

> <s_lp_Force_Field>
OPLS_2005

> <r_lp_Energy>
10.5641

> <b_lp_Chiralities_Consistent>
1

> <s_lp_Variant>
AV-unprocessed.smi:2208-2

> <Gold.Version>
5.8.1

> <Gold.Id.Protein>
6NUR|6NUR_protein|mol2

> <Gold.PLP.Fitness>
33.8775

> <Gold.PLP.PLP>
-28.5769

> <Gold.PLP.part.hbond>
-2.0000

> <Gold.PLP.part.metal>
0.0000

> <Gold.PLP.part.buried>
-5.3986

> <Gold.PLP.part.nonpolar>
-22.2424

> <Gold.PLP.part.repulsive>
0.1855

> <Gold.PLP.ligand.clash>
0.0000

> <Gold.PLP.ligand.torsion>
0.3536

> <Gold.PLP.Chemscore.Hbond>
2.0000

> <Gold.PLP.Chemscore.CHOScore>
0.0000

> <Gold.PLP.Chemscore.Metal>
0.0000

> <Gold.Chemscore.Hbonds>
donor molecule, donor type, donor heavy atom, donor atom, acceptor molecule, acceptor atom, score
      L1  H    11    26       P1  7948  1.00
      P1  H  6896  6907       L1     4  0.93

> <Gold.PLP.Chemscore.Internal.Correction>
0.0078

> <Gold.Rescore>
     Score         DG    S(hbond)    S(metal)    S(lipo)     H(rot)  DE(clash)    DE(int)     intcor
     14.81     -15.23       1.91        0.00      62.95       1.56       0.00       0.42       ----

> <Gold.Chemscore.Fitness>
14.8086

> <Gold.Chemscore.DG>
-15.2293

> <Gold.Chemscore.ZeroCoef>
-5.4800

> <Gold.Chemscore.Hbond>
1.9056

> <Gold.Chemscore.Metal>
0.0000

> <Gold.Chemscore.Lipo>
62.9522

> <Gold.Chemscore.Internal_Hbond>
0.0000

> <Gold.Chemscore.DEClash>
0.0000

> <Gold.Chemscore.DEInternal>
0.4207

> <Gold.Chemscore.Rot>
1.5551

> <Gold.Chemscore.Internal.Correction>
   9.000000E+99

> <Gold.Chemscore.Hbonds>
donor molecule, donor type, donor heavy atom, donor atom, acceptor molecule, acceptor atom, score
      L1  H    11    26       P1  7948  0.55
      P1  H  6896  6907       L1     4  0.20

> <Gold.Chemscore.Hbond.Weighted>
-6.3648

> <Gold.Chemscore.Metal.Weighted>
-0.0000

> <Gold.Chemscore.Lipo.Weighted>
-7.3654

> <Gold.Chemscore.Internal_Hbond.Weighted>
0.0000

> <Gold.Chemscore.DEClash.Weighted>
0.0000

> <Gold.Chemscore.DEInternal.Weighted>
0.4207

> <Gold.Chemscore.Rot.Weighted>
3.9809

> <Gold.Chemscore.Internal.Correction.Weighted>
   9.000000E+99

> <Gold.Protein.RotatedTorsions>
[ 6907 6896 6895 6894 ] final -146.03 input  -60.11 | X-H torsion
[ 7974 7965 7964 7962 ] final  -88.15 input  175.53 | X-H torsion
[ 8008 7997 7996 7995 ] final   22.66 input   59.86 | X-H torsion
[ 10167 10162 10161 10158 ] final  126.22 input  -65.29 | X-H torsion
[ 10718 10713 10712 10709 ] final -146.62 input   66.30 | X-H torsion
[ 10763 10752 10751 10750 ] final  162.18 input  -60.55 | X-H torsion
[ 11005 11000 10999 10996 ] final -119.83 input  -57.11 | X-H torsion

> <Gold.Protein.ActiveResidues>
 VAL166  LYS551  ARG553  GLY616  TRP617  ASP618  TYR619  PRO620  LYS621  CYS622 
 ASP623  PHE694  ASN695  SER759  ASP760  ASP761  ALA762  ILE779  LEU786  VAL792 
 PHE793  MET794  SER795  GLU796  ALA797  LYS798  CYS799  TRP800  GLU811  SER814 

> <Gold.Protein.RotatedAtoms>
  151.1360  133.5004  159.2597 H   0  0  0  0  0  0  0  0  0  0  0  0  # atno 6907 bound_to 6896
  151.1706  135.0315  159.8760 H   0  0  0  0  0  0  0  0  0  0  0  0  # atno 6908 bound_to 6896
  152.5461  134.1224  159.8458 H   0  0  0  0  0  0  0  0  0  0  0  0  # atno 6909 bound_to 6896
  145.4571  140.9561  143.1990 H   0  0  0  0  0  0  0  0  0  0  0  0  # atno 7974 bound_to 7965
  154.9691  140.3088  155.4996 H   0  0  0  0  0  0  0  0  0  0  0  0  # atno 8008 bound_to 7997
  156.2968  140.2287  156.4721 H   0  0  0  0  0  0  0  0  0  0  0  0  # atno 8009 bound_to 7997
  154.7893  140.0441  157.1177 H   0  0  0  0  0  0  0  0  0  0  0  0  # atno 8010 bound_to 7997
  139.5643  144.6901  151.3955 H   0  0  0  0  0  0  0  0  0  0  0  0  # atno 10167 bound_to 10162
  156.3972  130.7915  151.2123 H   0  0  0  0  0  0  0  0  0  0  0  0  # atno 10718 bound_to 10713
  154.2744  135.2765  155.2724 H   0  0  0  0  0  0  0  0  0  0  0  0  # atno 10763 bound_to 10752
  154.5273  135.5739  153.6733 H   0  0  0  0  0  0  0  0  0  0  0  0  # atno 10764 bound_to 10752
  152.9939  135.6219  154.2900 H   0  0  0  0  0  0  0  0  0  0  0  0  # atno 10765 bound_to 10752
  141.0188  134.0156  157.3312 H   0  0  0  0  0  0  0  0  0  0  0  0  # atno 11005 bound_to 11000
  144.8026  139.6112  143.7065 LP  0  0  0  0  0  0  0  0  0  0  0  0  # atno 17320 bound_to 7965
  146.2472  139.6123  142.9451 LP  0  0  0  0  0  0  0  0  0  0  0  0  # atno 17321 bound_to 7965
  140.6925  143.7827  150.7277 LP  0  0  0  0  0  0  0  0  0  0  0  0  # atno 17342 bound_to 10162
  140.1314  143.4523  152.2252 LP  0  0  0  0  0  0  0  0  0  0  0  0  # atno 17343 bound_to 10162
  157.7502  131.0298  150.4107 LP  0  0  0  0  0  0  0  0  0  0  0  0  # atno 17370 bound_to 10713
  156.4380  130.3985  149.6716 LP  0  0  0  0  0  0  0  0  0  0  0  0  # atno 17371 bound_to 10713
  139.9133  135.0193  156.7780 LP  0  0  0  0  0  0  0  0  0  0  0  0  # atno 17394 bound_to 11000
  140.6609  133.9646  155.7804 LP  0  0  0  0  0  0  0  0  0  0  0  0  # atno 17395 bound_to 11000

$$$$
