AV-unprocessed.smi:2047|AV-procd|sdf|8320|dock7
  -GOLD-   2272010583D 1   1.00000     0.00000
 Structure written by MMmdl.
 42 44  0  0  0  0  0  0  0  0  3 V2000
  154.2812  140.9913  160.3576 O   0  0  0  0  0  0  0  0  0  0  0  0
  153.3621  140.2750  159.9442 C   0  0  0  0  0  0  0  0  0  0  0  0
  152.3014  140.8256  159.3299 N   0  0  0  0  0  0  0  0  0  0  0  0
  152.0578  142.1990  159.0519 C   0  0  0  0  0  0  0  0  0  0  0  0
  152.7010  143.2388  159.7682 C   0  0  0  0  0  0  0  0  0  0  0  0
  152.4443  144.5819  159.4281 C   0  0  0  0  0  0  0  0  0  0  0  0
  151.5576  144.8628  158.3717 C   0  0  0  0  0  0  0  0  0  0  0  0
  150.9740  143.8486  157.6988 N   0  3  0  0  0  0  0  0  0  0  0  0
  151.1875  142.5407  157.9867 C   0  0  0  0  0  0  0  0  0  0  0  0
  150.5304  141.5579  157.2269 N   0  0  0  0  0  0  0  0  0  0  0  0
  149.0868  141.6984  157.1383 C   0  0  0  0  0  0  0  0  0  0  0  0
  148.6584  140.7856  155.9862 C   0  0  0  0  0  0  0  0  0  0  0  0
  149.9268  140.5876  155.1464 C   0  0  0  0  0  0  0  0  0  0  0  0
  151.0051  141.4050  155.8625 C   0  0  0  0  0  0  0  0  0  0  0  0
  153.2525  138.9231  160.0409 N   0  5  0  0  0  0  0  0  0  0  0  0
  154.2691  138.0387  160.6184 C   0  0  1  0  0  0  0  0  0  0  0  0
  153.7294  137.3386  161.8813 C   0  0  0  0  0  0  0  0  0  0  0  0
  154.6755  136.1861  162.2463 C   0  0  0  0  0  0  0  0  0  0  0  0
  155.3351  135.5610  160.6527 S   0  0  0  0  0  0  0  0  0  0  0  0
  156.8053  135.6098  160.6914 O   0  0  0  0  0  0  0  0  0  0  0  0
  154.6332  134.3220  160.2826 O   0  0  0  0  0  0  0  0  0  0  0  0
  154.6944  136.9429  159.6271 C   0  0  0  0  0  0  0  0  0  0  0  0
  151.5414  140.1928  159.1268 H   0  0  0  0  0  0  0  0  0  0  0  0
  153.3974  143.0223  160.5643 H   0  0  0  0  0  0  0  0  0  0  0  0
  152.9262  145.3838  159.9678 H   0  0  0  0  0  0  0  0  0  0  0  0
  151.3038  145.8600  158.0426 H   0  0  0  0  0  0  0  0  0  0  0  0
  148.6068  141.4148  158.0752 H   0  0  0  0  0  0  0  0  0  0  0  0
  148.8136  142.7315  156.9186 H   0  0  0  0  0  0  0  0  0  0  0  0
  148.3147  139.8248  156.3715 H   0  0  0  0  0  0  0  0  0  0  0  0
  147.8427  141.2232  155.4101 H   0  0  0  0  0  0  0  0  0  0  0  0
  150.1998  139.5317  155.1314 H   0  0  0  0  0  0  0  0  0  0  0  0
  149.7967  140.9119  154.1136 H   0  0  0  0  0  0  0  0  0  0  0  0
  151.1175  142.3794  155.3848 H   0  0  0  0  0  0  0  0  0  0  0  0
  151.9726  140.9028  155.8376 H   0  0  0  0  0  0  0  0  0  0  0  0
  155.1634  138.5901  160.9132 H   0  0  0  0  0  0  0  0  0  0  0  0
  153.6125  138.0352  162.7121 H   0  0  0  0  0  0  0  0  0  0  0  0
  152.7418  136.9238  161.6727 H   0  0  0  0  0  0  0  0  0  0  0  0
  155.5148  136.5370  162.8490 H   0  0  0  0  0  0  0  0  0  0  0  0
  154.1741  135.3831  162.7865 H   0  0  0  0  0  0  0  0  0  0  0  0
  153.8429  136.5674  159.0588 H   0  0  0  0  0  0  0  0  0  0  0  0
  155.4600  137.2785  158.9275 H   0  0  0  0  0  0  0  0  0  0  0  0
  150.3392  144.0781  156.9343 H   0  0  0  0  0  0  0  0  0  0  0  0
  1  2  2  0  0  0  0
  2  3  1  0  0  0  0
  2 15  1  0  0  0  0
  3  4  1  0  0  0  0
  3 23  1  0  0  0  0
  4  9  1  0  0  0  0
  4  5  2  0  0  0  0
  5  6  1  0  0  0  0
  5 24  1  0  0  0  0
  6  7  2  0  0  0  0
  6 25  1  0  0  0  0
  7  8  1  0  0  0  0
  7 26  1  0  0  0  0
  8  9  2  0  0  0  0
  8 42  1  0  0  0  0
  9 10  1  0  0  0  0
 10 14  1  0  0  0  0
 10 11  1  0  0  0  0
 11 12  1  0  0  0  0
 11 27  1  0  0  0  0
 11 28  1  0  0  0  0
 12 13  1  0  0  0  0
 12 29  1  0  0  0  0
 12 30  1  0  0  0  0
 13 14  1  0  0  0  0
 13 31  1  0  0  0  0
 13 32  1  0  0  0  0
 14 33  1  0  0  0  0
 14 34  1  0  0  0  0
 15 16  1  0  0  0  0
 16 22  1  0  0  0  0
 16 17  1  0  0  0  0
 16 35  1  0  0  0  0
 17 18  1  0  0  0  0
 17 36  1  0  0  0  0
 17 37  1  0  0  0  0
 18 19  1  0  0  0  0
 18 38  1  0  0  0  0
 18 39  1  0  0  0  0
 19 20  2  0  0  0  0
 19 21  2  0  0  0  0
 19 22  1  0  0  0  0
 22 40  1  0  0  0  0
 22 41  1  0  0  0  0
M  CHG  1   8   1
M  CHG  1  15  -1
M  END
> <s_m_source_file>
AV-unprocessed.smi

> <i_m_source_file_index>
2047

> <i_lp_mmshare_version>
43012

> <i_f3d_flags>
0

> <s_epik_input>
Tz1TMSg9TylbQ0gyXVtDSDJdW0NASF0oW0NIMl0xKVtOSF1DKD1PKVtOSF1jMltjSF1bY0hdW2NIXW5jMk4zW0NIMl1bQ0gyXVtDSDJdW0NIMl0z

> <s_epik_cmdline>
J2VwaWtfcHl0aG9uJywgJy1waCcsICc3LjAnLCAnLXRuJywgJzgnLCAnLW1hJywgJzIwMCcsICctbWV0YWxfYmluZGluZycsICctaW1hZScsICc8aW5maWxlLm1hZT4nLCAnLW9tYWUnLCAnPG91dGZpbGUubWFlPic=

> <r_lp_tautomer_probability>
0.999994

> <r_epik_Ionization_Penalty>
8.27033

> <r_epik_Ionization_Penalty_Charging>
8.27033

> <r_epik_Ionization_Penalty_Neutral>
3.23223e-06

> <r_epik_State_Penalty>
7.90314

> <r_epik_Charging_Adjusted_Penalty>
16.1735

> <i_epik_Tot_Q>
0

> <i_epik_Tot_abs_Q>
2

> <r_epik_Metal_State_Penalty>
3.89381

> <b_epik_Metal_Only>
1

> <s_lp_Force_Field>
OPLS_2005

> <r_lp_Energy>
40.3449

> <b_lp_Chiralities_Consistent>
1

> <s_lp_Variant>
AV-unprocessed.smi:2047-6

> <Gold.Version>
5.8.1

> <Gold.Id.Protein>
6NUR|6NUR_protein|mol2

> <Gold.PLP.Fitness>
46.0246

> <Gold.PLP.PLP>
-37.6043

> <Gold.PLP.part.hbond>
-1.9994

> <Gold.PLP.part.metal>
0.0000

> <Gold.PLP.part.buried>
-6.2100

> <Gold.PLP.part.nonpolar>
-28.8829

> <Gold.PLP.part.repulsive>
0.2067

> <Gold.PLP.ligand.clash>
0.0000

> <Gold.PLP.ligand.torsion>
0.2791

> <Gold.PLP.Chemscore.Hbond>
2.9750

> <Gold.PLP.Chemscore.CHOScore>
0.0000

> <Gold.PLP.Chemscore.Metal>
0.0000

> <Gold.Chemscore.Hbonds>
donor molecule, donor type, donor heavy atom, donor atom, acceptor molecule, acceptor atom, score
      L1  H     8    42       P1  8028  2.00
      P1  H  6896  6907       L1    21  0.88

> <Gold.PLP.Chemscore.Internal.Correction>
0.0535

> <Gold.Rescore>
     Score         DG    S(hbond)    S(metal)    S(lipo)     H(rot)  DE(clash)    DE(int)     intcor
     18.44     -20.15       1.97        0.00      96.42       1.25       0.04       1.66       ----

> <Gold.Chemscore.Fitness>
18.4429

> <Gold.Chemscore.DG>
-20.1450

> <Gold.Chemscore.ZeroCoef>
-5.4800

> <Gold.Chemscore.Hbond>
1.9696

> <Gold.Chemscore.Metal>
0.0000

> <Gold.Chemscore.Lipo>
96.4215

> <Gold.Chemscore.Internal_Hbond>
0.0000

> <Gold.Chemscore.DEClash>
0.0419

> <Gold.Chemscore.DEInternal>
1.6602

> <Gold.Chemscore.Rot>
1.2480

> <Gold.Chemscore.Internal.Correction>
   9.000000E+99

> <Gold.Chemscore.Hbonds>
donor molecule, donor type, donor heavy atom, donor atom, acceptor molecule, acceptor atom, score
      L1  H     8    42       P1  8028  0.92
      P1  H  6896  6907       L1    21  0.83

> <Gold.Chemscore.Hbond.Weighted>
-6.5786

> <Gold.Chemscore.Metal.Weighted>
-0.0000

> <Gold.Chemscore.Lipo.Weighted>
-11.2813

> <Gold.Chemscore.Internal_Hbond.Weighted>
0.0000

> <Gold.Chemscore.DEClash.Weighted>
0.0419

> <Gold.Chemscore.DEInternal.Weighted>
1.6602

> <Gold.Chemscore.Rot.Weighted>
3.1948

> <Gold.Chemscore.Internal.Correction.Weighted>
   9.000000E+99

> <Gold.Protein.RotatedTorsions>
[ 6907 6896 6895 6894 ] final   78.63 input  -60.11 | X-H torsion
[ 7974 7965 7964 7962 ] final   86.42 input  175.53 | X-H torsion
[ 8008 7997 7996 7995 ] final   29.67 input   59.86 | X-H torsion
[ 10167 10162 10161 10158 ] final -158.95 input  -65.29 | X-H torsion
[ 10718 10713 10712 10709 ] final  -47.31 input   66.30 | X-H torsion
[ 10763 10752 10751 10750 ] final  -75.96 input  -60.55 | X-H torsion
[ 11005 11000 10999 10996 ] final -141.76 input  -57.11 | X-H torsion

> <Gold.Protein.ActiveResidues>
 VAL166  LYS551  ARG553  GLY616  TRP617  ASP618  TYR619  PRO620  LYS621  CYS622 
 ASP623  PHE694  ASN695  SER759  ASP760  ASP761  ALA762  ILE779  LEU786  VAL792 
 PHE793  MET794  SER795  GLU796  ALA797  LYS798  CYS799  TRP800  GLU811  SER814 

> <Gold.Protein.RotatedAtoms>
  152.5167  134.3634  159.9292 H   0  0  0  0  0  0  0  0  0  0  0  0  # atno 6907 bound_to 6896
  151.3587  133.3891  159.2695 H   0  0  0  0  0  0  0  0  0  0  0  0  # atno 6908 bound_to 6896
  150.9669  134.9067  159.7823 H   0  0  0  0  0  0  0  0  0  0  0  0  # atno 6909 bound_to 6896
  145.5726  139.2315  143.2398 H   0  0  0  0  0  0  0  0  0  0  0  0  # atno 7974 bound_to 7965
  155.0782  140.3207  155.4609 H   0  0  0  0  0  0  0  0  0  0  0  0  # atno 8008 bound_to 7997
  156.2774  140.2099  156.5856 H   0  0  0  0  0  0  0  0  0  0  0  0  # atno 8009 bound_to 7997
  154.6999  140.0508  157.0435 H   0  0  0  0  0  0  0  0  0  0  0  0  # atno 8010 bound_to 7997
  139.6652  143.9841  152.2250 H   0  0  0  0  0  0  0  0  0  0  0  0  # atno 10167 bound_to 10162
  156.2097  130.4160  149.9131 H   0  0  0  0  0  0  0  0  0  0  0  0  # atno 10718 bound_to 10713
  154.4935  135.5814  153.6477 H   0  0  0  0  0  0  0  0  0  0  0  0  # atno 10763 bound_to 10752
  152.9866  135.6118  154.3094 H   0  0  0  0  0  0  0  0  0  0  0  0  # atno 10764 bound_to 10752
  154.2996  135.2847  155.2596 H   0  0  0  0  0  0  0  0  0  0  0  0  # atno 10765 bound_to 10752
  140.8292  134.2538  157.4865 H   0  0  0  0  0  0  0  0  0  0  0  0  # atno 11005 bound_to 11000
  146.1774  140.6552  142.9205 LP  0  0  0  0  0  0  0  0  0  0  0  0  # atno 17320 bound_to 7965
  144.7431  140.4995  143.6855 LP  0  0  0  0  0  0  0  0  0  0  0  0  # atno 17321 bound_to 7965
  139.9591  144.6570  150.8097 LP  0  0  0  0  0  0  0  0  0  0  0  0  # atno 17342 bound_to 10162
  140.7596  143.3133  151.2792 LP  0  0  0  0  0  0  0  0  0  0  0  0  # atno 17343 bound_to 10162
  156.6814  130.8859  151.3576 LP  0  0  0  0  0  0  0  0  0  0  0  0  # atno 17370 bound_to 10713
  157.7031  130.9355  150.0847 LP  0  0  0  0  0  0  0  0  0  0  0  0  # atno 17371 bound_to 10713
  139.8705  134.9577  156.4276 LP  0  0  0  0  0  0  0  0  0  0  0  0  # atno 17394 bound_to 11000
  140.9016  133.7775  155.9687 LP  0  0  0  0  0  0  0  0  0  0  0  0  # atno 17395 bound_to 11000

$$$$
