AV-unprocessed.smi:25|AV-procd|sdf|179|dock4
  -GOLD-   2262015443D 1   1.00000     0.00000
 Structure written by MMmdl.
 47 50  0  0  0  0  0  0  0  0  1 V2000
  150.8100  140.4929  155.3349 C   0  0  0  0  0  0  0  0  0  0  0  0
  150.2552  141.1159  156.6316 C   0  0  2  0  0  0  0  0  0  0  0  0
  150.5481  142.6316  156.7000 C   0  0  0  0  0  0  0  0  0  0  0  0
  151.4728  142.7482  157.8720 C   0  0  0  0  0  0  0  0  0  0  0  0
  152.1143  143.9219  158.3039 C   0  0  0  0  0  0  0  0  0  0  0  0
  152.9790  143.8419  159.4139 C   0  0  0  0  0  0  0  0  0  0  0  0
  153.1919  142.6035  160.0581 C   0  0  0  0  0  0  0  0  0  0  0  0
  152.5390  141.4345  159.6094 C   0  0  0  0  0  0  0  0  0  0  0  0
  151.6555  141.5204  158.5062 C   0  0  0  0  0  0  0  0  0  0  0  0
  150.8752  140.5260  157.8409 N   0  0  0  0  0  0  0  0  0  0  0  0
  150.5414  139.2688  158.2443 C   0  0  0  0  0  0  0  0  0  0  0  0
  151.0271  138.7818  159.2684 O   0  0  0  0  0  0  0  0  0  0  0  0
  149.5693  138.3968  157.4258 C   0  0  0  0  0  0  0  0  0  0  0  0
  148.4571  137.8296  158.2238 N   0  0  0  0  0  0  0  0  0  0  0  0
  147.1297  138.2196  157.9135 C   0  0  0  0  0  0  0  0  0  0  0  0
  146.8945  139.0207  157.0076 O   0  0  0  0  0  0  0  0  0  0  0  0
  146.0853  137.6031  158.7240 C   0  0  0  0  0  0  0  0  0  0  0  0
  144.7969  137.9083  158.4946 F   0  0  0  0  0  0  0  0  0  0  0  0
  146.3919  136.7252  159.7009 C   0  0  0  0  0  0  0  0  0  0  0  0
  147.6913  136.3577  159.9963 N   0  0  0  0  0  0  0  0  0  0  0  0
  147.9899  135.3566  161.0887 C   0  0  2  0  0  0  0  0  0  0  0  0
  147.3359  134.0075  160.7664 C   0  0  0  0  0  0  0  0  0  0  0  0
  146.0695  134.0635  161.5936 C   0  0  0  0  0  0  0  0  0  0  0  0
  146.5330  134.8574  162.8087 C   0  0  0  0  0  0  0  0  0  0  0  0
  147.4437  135.8209  162.2900 O   0  0  0  0  0  0  0  0  0  0  0  0
  148.7581  136.8938  159.2431 C   0  0  0  0  0  0  0  0  0  0  0  0
  149.9201  136.5442  159.4610 O   0  0  0  0  0  0  0  0  0  0  0  0
  150.3851  140.9807  154.4574 H   0  0  0  0  0  0  0  0  0  0  0  0
  150.5748  139.4317  155.2572 H   0  0  0  0  0  0  0  0  0  0  0  0
  151.8942  140.5976  155.2800 H   0  0  0  0  0  0  0  0  0  0  0  0
  149.1734  140.9713  156.6613 H   0  0  0  0  0  0  0  0  0  0  0  0
  151.0214  143.0159  155.7956 H   0  0  0  0  0  0  0  0  0  0  0  0
  149.6409  143.2066  156.8881 H   0  0  0  0  0  0  0  0  0  0  0  0
  151.9536  144.8612  157.7955 H   0  0  0  0  0  0  0  0  0  0  0  0
  153.4870  144.7273  159.7668 H   0  0  0  0  0  0  0  0  0  0  0  0
  153.8657  142.5492  160.9005 H   0  0  0  0  0  0  0  0  0  0  0  0
  152.7580  140.5190  160.1281 H   0  0  0  0  0  0  0  0  0  0  0  0
  149.1662  139.0019  156.6142 H   0  0  0  0  0  0  0  0  0  0  0  0
  150.1291  137.5916  156.9492 H   0  0  0  0  0  0  0  0  0  0  0  0
  145.5786  136.2939  160.2654 H   0  0  0  0  0  0  0  0  0  0  0  0
  149.0759  135.3089  161.1806 H   0  0  0  0  0  0  0  0  0  0  0  0
  147.1637  133.8722  159.6977 H   0  0  0  0  0  0  0  0  0  0  0  0
  147.9898  133.2106  161.1227 H   0  0  0  0  0  0  0  0  0  0  0  0
  145.2917  134.6093  161.0586 H   0  0  0  0  0  0  0  0  0  0  0  0
  145.6811  133.0777  161.8504 H   0  0  0  0  0  0  0  0  0  0  0  0
  145.7094  135.3307  163.3434 H   0  0  0  0  0  0  0  0  0  0  0  0
  147.0654  134.2092  163.5058 H   0  0  0  0  0  0  0  0  0  0  0  0
  1  2  1  0  0  0  0
  1 28  1  0  0  0  0
  1 29  1  0  0  0  0
  1 30  1  0  0  0  0
  2 10  1  0  0  0  0
  2  3  1  0  0  0  0
  2 31  1  0  0  0  0
  3  4  1  0  0  0  0
  3 32  1  0  0  0  0
  3 33  1  0  0  0  0
  4  9  2  0  0  0  0
  4  5  1  0  0  0  0
  5  6  2  0  0  0  0
  5 34  1  0  0  0  0
  6  7  1  0  0  0  0
  6 35  1  0  0  0  0
  7  8  2  0  0  0  0
  7 36  1  0  0  0  0
  8  9  1  0  0  0  0
  8 37  1  0  0  0  0
  9 10  1  0  0  0  0
 10 11  1  0  0  0  0
 11 12  2  0  0  0  0
 11 13  1  0  0  0  0
 13 14  1  0  0  0  0
 13 38  1  0  0  0  0
 13 39  1  0  0  0  0
 14 26  1  0  0  0  0
 14 15  1  0  0  0  0
 15 16  2  0  0  0  0
 15 17  1  0  0  0  0
 17 18  1  0  0  0  0
 17 19  2  0  0  0  0
 19 20  1  0  0  0  0
 19 40  1  0  0  0  0
 20 21  1  0  0  0  0
 20 26  1  0  0  0  0
 21 25  1  0  0  0  0
 21 22  1  0  0  0  0
 21 41  1  0  0  0  0
 22 23  1  0  0  0  0
 22 42  1  0  0  0  0
 22 43  1  0  0  0  0
 23 24  1  0  0  0  0
 23 44  1  0  0  0  0
 23 45  1  0  0  0  0
 24 25  1  0  0  0  0
 24 46  1  0  0  0  0
 24 47  1  0  0  0  0
 26 27  2  0  0  0  0
M  END
> <s_m_source_file>
AV-unprocessed.smi

> <i_m_source_file_index>
25

> <i_lp_mmshare_version>
43012

> <i_f3d_flags>
0

> <s_epik_input>
W2NIXTFbY0hdW2NIXVtjSF1jKGMxMilOKFtDQEhdKFtDSDNdKVtDSDJdMilDKD1PKVtDSDJdbjNjKD1PKWMoRilbY0hdbihjMz1PKVtDQEBIXTRbQ0gyXVtDSDJdW0NIMl1PNA==

> <s_epik_cmdline>
J2VwaWtfcHl0aG9uJywgJy1waCcsICc3LjAnLCAnLXRuJywgJzgnLCAnLW1hJywgJzIwMCcsICctbWV0YWxfYmluZGluZycsICctaW1hZScsICc8aW5maWxlLm1hZT4nLCAnLW9tYWUnLCAnPG91dGZpbGUubWFlPic=

> <r_lp_tautomer_probability>
1

> <r_epik_Ionization_Penalty>
1.67943e-06

> <r_epik_Ionization_Penalty_Charging>
3.79603e-09

> <r_epik_Ionization_Penalty_Neutral>
1.67563e-06

> <r_epik_State_Penalty>
-0

> <r_epik_Charging_Adjusted_Penalty>
3.79603e-09

> <i_epik_Tot_Q>
0

> <i_epik_Tot_abs_Q>
0

> <r_epik_Metal_State_Penalty>
-0

> <b_epik_Metal_Only>
0

> <s_epik_Chemistry_Notes>
This compound contains an acetal/aminal-like group ( X-CH(R)-Y where X, Y are N, S, or O) that may be acid/base labile, releasing an aldehyde.

> <s_lp_Force_Field>
OPLS_2005

> <r_lp_Energy>
56.1974

> <b_lp_Chiralities_Consistent>
1

> <s_lp_Variant>
AV-unprocessed.smi:25-1

> <Gold.Version>
5.8.1

> <Gold.Id.Protein>
6NUR|6NUR_protein|mol2

> <Gold.PLP.Fitness>
47.0536

> <Gold.PLP.PLP>
-44.2400

> <Gold.PLP.part.hbond>
-1.5473

> <Gold.PLP.part.metal>
0.0000

> <Gold.PLP.part.buried>
-3.2622

> <Gold.PLP.part.nonpolar>
-38.9732

> <Gold.PLP.part.repulsive>
0.0000

> <Gold.PLP.ligand.clash>
0.0000

> <Gold.PLP.ligand.torsion>
0.1097

> <Gold.PLP.Chemscore.Hbond>
1.0000

> <Gold.PLP.Chemscore.CHOScore>
0.0000

> <Gold.PLP.Chemscore.Metal>
0.0000

> <Gold.Chemscore.Hbonds>
donor molecule, donor type, donor heavy atom, donor atom, acceptor molecule, acceptor atom, score
      P1  H  6896  6908       L1    27  1.00

> <Gold.PLP.Chemscore.Internal.Correction>
0.0329

> <Gold.Rescore>
     Score         DG    S(hbond)    S(metal)    S(lipo)     H(rot)  DE(clash)    DE(int)     intcor
     15.63     -18.42       1.00        0.00     115.96       1.55       0.43       2.36       ----

> <Gold.Chemscore.Fitness>
15.6335

> <Gold.Chemscore.DG>
-18.4218

> <Gold.Chemscore.ZeroCoef>
-5.4800

> <Gold.Chemscore.Hbond>
0.9999

> <Gold.Chemscore.Metal>
0.0000

> <Gold.Chemscore.Lipo>
115.9610

> <Gold.Chemscore.Internal_Hbond>
0.0000

> <Gold.Chemscore.DEClash>
0.4307

> <Gold.Chemscore.DEInternal>
2.3577

> <Gold.Chemscore.Rot>
1.5489

> <Gold.Chemscore.Internal.Correction>
   9.000000E+99

> <Gold.Chemscore.Hbonds>
donor molecule, donor type, donor heavy atom, donor atom, acceptor molecule, acceptor atom, score
      P1  H  6896  6908       L1    27  1.00

> <Gold.Chemscore.Hbond.Weighted>
-3.3395

> <Gold.Chemscore.Metal.Weighted>
-0.0000

> <Gold.Chemscore.Lipo.Weighted>
-13.5674

> <Gold.Chemscore.Internal_Hbond.Weighted>
0.0000

> <Gold.Chemscore.DEClash.Weighted>
0.4307

> <Gold.Chemscore.DEInternal.Weighted>
2.3577

> <Gold.Chemscore.Rot.Weighted>
3.9651

> <Gold.Chemscore.Internal.Correction.Weighted>
   9.000000E+99

> <Gold.Protein.RotatedTorsions>
[ 6907 6896 6895 6894 ] final -166.11 input  -60.11 | X-H torsion
[ 7974 7965 7964 7962 ] final -126.96 input  175.53 | X-H torsion
[ 8008 7997 7996 7995 ] final -114.73 input   59.86 | X-H torsion
[ 10167 10162 10161 10158 ] final -102.26 input  -65.29 | X-H torsion
[ 10718 10713 10712 10709 ] final   77.81 input   66.30 | X-H torsion
[ 10763 10752 10751 10750 ] final  -81.67 input  -60.55 | X-H torsion
[ 11005 11000 10999 10996 ] final -165.45 input  -57.11 | X-H torsion

> <Gold.Protein.ActiveResidues>
 VAL166  LYS551  ARG553  GLY616  TRP617  ASP618  TYR619  PRO620  LYS621  CYS622 
 ASP623  PHE694  ASN695  SER759  ASP760  ASP761  ALA762  ILE779  LEU786  VAL792 
 PHE793  MET794  SER795  GLU796  ALA797  LYS798  CYS799  TRP800  GLU811  SER814 

> <Gold.Protein.RotatedAtoms>
  151.4384  133.3650  159.2778 H   0  0  0  0  0  0  0  0  0  0  0  0  # atno 6907 bound_to 6896
  150.9175  134.8594  159.7477 H   0  0  0  0  0  0  0  0  0  0  0  0  # atno 6908 bound_to 6896
  152.4965  134.4319  159.9567 H   0  0  0  0  0  0  0  0  0  0  0  0  # atno 6909 bound_to 6896
  144.9819  140.7648  143.4607 H   0  0  0  0  0  0  0  0  0  0  0  0  # atno 7974 bound_to 7965
  155.0408  140.0392  157.2509 H   0  0  0  0  0  0  0  0  0  0  0  0  # atno 8008 bound_to 7997
  154.7218  140.2713  155.6511 H   0  0  0  0  0  0  0  0  0  0  0  0  # atno 8009 bound_to 7997
  156.2818  140.2701  156.1891 H   0  0  0  0  0  0  0  0  0  0  0  0  # atno 8010 bound_to 7997
  140.2326  143.3596  152.0873 H   0  0  0  0  0  0  0  0  0  0  0  0  # atno 10167 bound_to 10162
  157.6723  130.9839  150.1695 H   0  0  0  0  0  0  0  0  0  0  0  0  # atno 10718 bound_to 10713
  154.5665  135.5618  153.7055 H   0  0  0  0  0  0  0  0  0  0  0  0  # atno 10763 bound_to 10752
  153.0034  135.6286  154.2173 H   0  0  0  0  0  0  0  0  0  0  0  0  # atno 10764 bound_to 10752
  154.2112  135.2873  155.2937 H   0  0  0  0  0  0  0  0  0  0  0  0  # atno 10765 bound_to 10752
  140.5756  134.5194  157.5169 H   0  0  0  0  0  0  0  0  0  0  0  0  # atno 11005 bound_to 11000
  145.2409  139.2073  143.4993 LP  0  0  0  0  0  0  0  0  0  0  0  0  # atno 17320 bound_to 7965
  146.3410  140.2304  142.8593 LP  0  0  0  0  0  0  0  0  0  0  0  0  # atno 17321 bound_to 7965
  139.5105  144.6885  151.5824 LP  0  0  0  0  0  0  0  0  0  0  0  0  # atno 17342 bound_to 10162
  140.6174  143.9323  150.6499 LP  0  0  0  0  0  0  0  0  0  0  0  0  # atno 17343 bound_to 10162
  156.2452  130.3695  149.8292 LP  0  0  0  0  0  0  0  0  0  0  0  0  # atno 17370 bound_to 10713
  156.6081  130.8575  151.3448 LP  0  0  0  0  0  0  0  0  0  0  0  0  # atno 17371 bound_to 10713
  139.9341  134.7908  156.0850 LP  0  0  0  0  0  0  0  0  0  0  0  0  # atno 17394 bound_to 11000
  141.1029  133.6670  156.2796 LP  0  0  0  0  0  0  0  0  0  0  0  0  # atno 17395 bound_to 11000

$$$$
