AV-unprocessed.smi:1324|AV-procd|sdf|5470|dock5
  -GOLD-   22720 5 43D 1   1.00000     0.00000
 Structure written by MMmdl.
 43 44  0  0  0  0  0  0  0  0  1 V2000
  151.5238  134.5187  154.8082 C   0  0  0  0  0  0  0  0  0  0  0  0
  151.7004  135.9877  155.1265 C   0  0  0  0  0  0  0  0  0  0  0  0
  150.7681  136.8064  154.5108 N   0  0  0  0  0  0  0  0  0  0  0  0
  150.8435  138.1671  154.7500 C   0  0  0  0  0  0  0  0  0  0  0  0
  149.7827  138.9919  154.0425 C   0  0  0  0  0  0  0  0  0  0  0  0
  151.8048  138.6868  155.5551 C   0  0  0  0  0  0  0  0  0  0  0  0
  151.9248  140.1831  155.8446 C   0  0  0  0  0  0  0  0  0  0  0  0
  151.9193  140.5938  157.3197 C   0  0  0  0  0  0  0  0  0  0  0  0
  151.9329  139.7433  158.2101 O   0  0  0  0  0  0  0  0  0  0  0  0
  151.8970  141.9139  157.5603 N   0  0  0  0  0  0  0  0  0  0  0  0
  151.8869  142.5381  158.8818 C   0  0  0  0  0  0  0  0  0  0  0  0
  151.4854  144.0244  158.7355 C   0  0  0  0  0  0  0  0  0  0  0  0
  151.7895  144.9560  159.9225 C   0  0  0  0  0  0  0  0  0  0  0  0
  151.6269  144.3354  161.3185 C   0  0  0  0  0  0  0  0  0  0  0  0
  152.8945  143.6040  161.7901 C   0  0  0  0  0  0  0  0  0  0  0  0
  153.1500  142.2546  161.1039 C   0  0  0  0  0  0  0  0  0  0  0  0
  153.2486  142.3050  159.5681 C   0  0  0  0  0  0  0  0  0  0  0  0
  152.7846  137.7621  156.1724 C   0  0  0  0  0  0  0  0  0  0  0  0
  153.6927  138.1738  156.8931 O   0  0  0  0  0  0  0  0  0  0  0  0
  152.6562  136.3886  155.9085 N   0  0  0  0  0  0  0  0  0  0  0  0
  150.0381  136.4621  153.9039 H   0  0  0  0  0  0  0  0  0  0  0  0
  152.1552  133.9024  155.4494 H   0  0  0  0  0  0  0  0  0  0  0  0
  151.7948  134.3217  153.7705 H   0  0  0  0  0  0  0  0  0  0  0  0
  150.4874  134.2156  154.9608 H   0  0  0  0  0  0  0  0  0  0  0  0
  149.1471  139.4986  154.7689 H   0  0  0  0  0  0  0  0  0  0  0  0
  149.1429  138.3709  153.4141 H   0  0  0  0  0  0  0  0  0  0  0  0
  150.2481  139.7441  153.4051 H   0  0  0  0  0  0  0  0  0  0  0  0
  151.1378  140.7320  155.3260 H   0  0  0  0  0  0  0  0  0  0  0  0
  152.8528  140.5484  155.4046 H   0  0  0  0  0  0  0  0  0  0  0  0
  151.8846  142.5371  156.7660 H   0  0  0  0  0  0  0  0  0  0  0  0
  151.1268  142.0311  159.4793 H   0  0  0  0  0  0  0  0  0  0  0  0
  151.9632  144.4497  157.8517 H   0  0  0  0  0  0  0  0  0  0  0  0
  150.4145  144.0646  158.5318 H   0  0  0  0  0  0  0  0  0  0  0  0
  152.7996  145.3546  159.8207 H   0  0  0  0  0  0  0  0  0  0  0  0
  151.1330  145.8230  159.8419 H   0  0  0  0  0  0  0  0  0  0  0  0
  151.4322  145.1438  162.0241 H   0  0  0  0  0  0  0  0  0  0  0  0
  150.7528  143.6845  161.3623 H   0  0  0  0  0  0  0  0  0  0  0  0
  153.7632  144.2511  161.6640 H   0  0  0  0  0  0  0  0  0  0  0  0
  152.8143  143.4278  162.8632 H   0  0  0  0  0  0  0  0  0  0  0  0
  154.0821  141.8478  161.4973 H   0  0  0  0  0  0  0  0  0  0  0  0
  152.3765  141.5440  161.3973 H   0  0  0  0  0  0  0  0  0  0  0  0
  153.6458  141.3409  159.2468 H   0  0  0  0  0  0  0  0  0  0  0  0
  153.9797  143.0477  159.2468 H   0  0  0  0  0  0  0  0  0  0  0  0
  1 22  1  0  0  0  0
  1 23  1  0  0  0  0
  1 24  1  0  0  0  0
  1  2  1  0  0  0  0
  2  3  1  0  0  0  0
  2 20  2  0  0  0  0
  3  4  1  0  0  0  0
  3 21  1  0  0  0  0
  4  6  2  0  0  0  0
  4  5  1  0  0  0  0
  5 25  1  0  0  0  0
  5 26  1  0  0  0  0
  5 27  1  0  0  0  0
  6 18  1  0  0  0  0
  6  7  1  0  0  0  0
  7  8  1  0  0  0  0
  7 28  1  0  0  0  0
  7 29  1  0  0  0  0
  8  9  2  0  0  0  0
  8 10  1  0  0  0  0
 10 11  1  0  0  0  0
 10 30  1  0  0  0  0
 11 17  1  0  0  0  0
 11 12  1  0  0  0  0
 11 31  1  0  0  0  0
 12 13  1  0  0  0  0
 12 32  1  0  0  0  0
 12 33  1  0  0  0  0
 13 14  1  0  0  0  0
 13 34  1  0  0  0  0
 13 35  1  0  0  0  0
 14 15  1  0  0  0  0
 14 36  1  0  0  0  0
 14 37  1  0  0  0  0
 15 16  1  0  0  0  0
 15 38  1  0  0  0  0
 15 39  1  0  0  0  0
 16 17  1  0  0  0  0
 16 40  1  0  0  0  0
 16 41  1  0  0  0  0
 17 42  1  0  0  0  0
 17 43  1  0  0  0  0
 18 19  2  0  0  0  0
 18 20  1  0  0  0  0
M  END
> <s_m_source_file>
AV-unprocessed.smi

> <i_m_source_file_index>
1324

> <i_lp_mmshare_version>
43012

> <i_f3d_flags>
0

> <s_epik_input>
W0NIM11jMW5jKFtDSDNdKWMoYyg9TylbbkhdMSlbQ0gyXUMoPU8pW05IXVtDSF0yW0NIMl1bQ0gyXVtDSDJdW0NIMl1bQ0gyXVtDSDJdMg==

> <s_epik_cmdline>
J2VwaWtfcHl0aG9uJywgJy1waCcsICc3LjAnLCAnLXRuJywgJzgnLCAnLW1hJywgJzIwMCcsICctbWV0YWxfYmluZGluZycsICctaW1hZScsICc8aW5maWxlLm1hZT4nLCAnLW9tYWUnLCAnPG91dGZpbGUubWFlPic=

> <r_lp_tautomer_probability>
0.156392

> <r_epik_Ionization_Penalty>
0.0140222

> <r_epik_Ionization_Penalty_Charging>
0.0138986

> <r_epik_Ionization_Penalty_Neutral>
0.000123575

> <r_epik_State_Penalty>
1.53084

> <r_epik_Charging_Adjusted_Penalty>
1.54474

> <i_epik_Tot_Q>
0

> <i_epik_Tot_abs_Q>
0

> <r_epik_Metal_State_Penalty>
1.70646

> <b_epik_Metal_Only>
0

> <s_lp_Force_Field>
OPLS_2005

> <r_lp_Energy>
20.3035

> <b_lp_Chiralities_Consistent>
1

> <s_lp_Variant>
AV-unprocessed.smi:1324-2

> <Gold.Version>
5.8.1

> <Gold.Id.Protein>
6NUR|6NUR_protein|mol2

> <Gold.PLP.Fitness>
45.1490

> <Gold.PLP.PLP>
-39.9139

> <Gold.PLP.part.hbond>
-2.0963

> <Gold.PLP.part.metal>
0.0000

> <Gold.PLP.part.buried>
-0.2995

> <Gold.PLP.part.nonpolar>
-37.2295

> <Gold.PLP.part.repulsive>
0.1394

> <Gold.PLP.ligand.clash>
0.0000

> <Gold.PLP.ligand.torsion>
0.1880

> <Gold.PLP.Chemscore.Hbond>
1.8640

> <Gold.PLP.Chemscore.CHOScore>
0.0000

> <Gold.PLP.Chemscore.Metal>
0.0000

> <Gold.Chemscore.Hbonds>
donor molecule, donor type, donor heavy atom, donor atom, acceptor molecule, acceptor atom, score
      L1  H     3    21       P1  7948  0.36
      P1  H  7997  8010       L1    19  0.03

> <Gold.PLP.Chemscore.Internal.Correction>
0.0191

> <Gold.Rescore>
     Score         DG    S(hbond)    S(metal)    S(lipo)     H(rot)  DE(clash)    DE(int)     intcor
     16.24     -17.97       1.16        0.00     106.19       1.48       0.37       1.36       ----

> <Gold.Chemscore.Fitness>
16.2365

> <Gold.Chemscore.DG>
-17.9744

> <Gold.Chemscore.ZeroCoef>
-5.4800

> <Gold.Chemscore.Hbond>
1.1554

> <Gold.Chemscore.Metal>
0.0000

> <Gold.Chemscore.Lipo>
106.1932

> <Gold.Chemscore.Internal_Hbond>
0.0000

> <Gold.Chemscore.DEClash>
0.3748

> <Gold.Chemscore.DEInternal>
1.3631

> <Gold.Chemscore.Rot>
1.4801

> <Gold.Chemscore.Internal.Correction>
   9.000000E+99

> <Gold.Chemscore.Hbonds>
donor molecule, donor type, donor heavy atom, donor atom, acceptor molecule, acceptor atom, score
      L1  H     3    21       P1  7948  0.08
      P1  H  7997  8010       L1    19  0.02

> <Gold.Chemscore.Hbond.Weighted>
-3.8589

> <Gold.Chemscore.Metal.Weighted>
-0.0000

> <Gold.Chemscore.Lipo.Weighted>
-12.4246

> <Gold.Chemscore.Internal_Hbond.Weighted>
0.0000

> <Gold.Chemscore.DEClash.Weighted>
0.3748

> <Gold.Chemscore.DEInternal.Weighted>
1.3631

> <Gold.Chemscore.Rot.Weighted>
3.7891

> <Gold.Chemscore.Internal.Correction.Weighted>
   9.000000E+99

> <Gold.Protein.RotatedTorsions>
[ 6907 6896 6895 6894 ] final -151.46 input  -60.11 | X-H torsion
[ 7974 7965 7964 7962 ] final  -79.29 input  175.53 | X-H torsion
[ 8008 7997 7996 7995 ] final  105.71 input   59.86 | X-H torsion
[ 10167 10162 10161 10158 ] final -159.09 input  -65.29 | X-H torsion
[ 10718 10713 10712 10709 ] final   46.58 input   66.30 | X-H torsion
[ 10763 10752 10751 10750 ] final  -23.30 input  -60.55 | X-H torsion
[ 11005 11000 10999 10996 ] final  -42.11 input  -57.11 | X-H torsion

> <Gold.Protein.ActiveResidues>
 VAL166  LYS551  ARG553  GLY616  TRP617  ASP618  TYR619  PRO620  LYS621  CYS622 
 ASP623  PHE694  ASN695  SER759  ASP760  ASP761  ALA762  ILE779  LEU786  VAL792 
 PHE793  MET794  SER795  GLU796  ALA797  LYS798  CYS799  TRP800  GLU811  SER814 

> <Gold.Protein.RotatedAtoms>
  151.2134  133.4543  159.2598 H   0  0  0  0  0  0  0  0  0  0  0  0  # atno 6907 bound_to 6896
  151.0954  134.9941  159.8433 H   0  0  0  0  0  0  0  0  0  0  0  0  # atno 6908 bound_to 6896
  152.5438  134.2065  159.8786 H   0  0  0  0  0  0  0  0  0  0  0  0  # atno 6909 bound_to 6896
  145.5752  140.9459  143.1374 H   0  0  0  0  0  0  0  0  0  0  0  0  # atno 7974 bound_to 7965
  156.1682  140.3126  155.8926 H   0  0  0  0  0  0  0  0  0  0  0  0  # atno 8008 bound_to 7997
  155.3642  140.0478  157.3063 H   0  0  0  0  0  0  0  0  0  0  0  0  # atno 8009 bound_to 7997
  154.5214  140.2199  155.8980 H   0  0  0  0  0  0  0  0  0  0  0  0  # atno 8010 bound_to 7997
  139.6642  143.9859  152.2244 H   0  0  0  0  0  0  0  0  0  0  0  0  # atno 10167 bound_to 10162
  157.4496  130.8130  149.7775 H   0  0  0  0  0  0  0  0  0  0  0  0  # atno 10718 bound_to 10713
  153.6657  135.6974  153.5163 H   0  0  0  0  0  0  0  0  0  0  0  0  # atno 10763 bound_to 10752
  153.2597  135.4248  155.0881 H   0  0  0  0  0  0  0  0  0  0  0  0  # atno 10764 bound_to 10752
  154.8440  135.3552  154.6201 H   0  0  0  0  0  0  0  0  0  0  0  0  # atno 10765 bound_to 10752
  141.0293  133.6827  156.2549 H   0  0  0  0  0  0  0  0  0  0  0  0  # atno 11005 bound_to 11000
  144.7419  139.7425  143.7307 LP  0  0  0  0  0  0  0  0  0  0  0  0  # atno 17320 bound_to 7965
  146.1756  139.4925  142.9899 LP  0  0  0  0  0  0  0  0  0  0  0  0  # atno 17321 bound_to 7965
  139.9606  144.6560  150.8083 LP  0  0  0  0  0  0  0  0  0  0  0  0  # atno 17342 bound_to 10162
  140.7592  143.3124  151.2812 LP  0  0  0  0  0  0  0  0  0  0  0  0  # atno 17343 bound_to 10162
  155.9981  130.3896  150.2713 LP  0  0  0  0  0  0  0  0  0  0  0  0  # atno 17370 bound_to 10713
  157.0884  131.0163  151.3131 LP  0  0  0  0  0  0  0  0  0  0  0  0  # atno 17371 bound_to 10713
  140.6436  134.5140  157.5571 LP  0  0  0  0  0  0  0  0  0  0  0  0  # atno 17394 bound_to 11000
  139.9197  134.8174  156.1252 LP  0  0  0  0  0  0  0  0  0  0  0  0  # atno 17395 bound_to 11000

$$$$
