AV-unprocessed.smi:1629|AV-procd|sdf|6521|dock9
  -GOLD-   22720 7193D 1   1.00000     0.00000
 Structure written by MMmdl.
 44 45  0  0  0  0  0  0  0  0  1 V2000
  144.3290  145.6019  156.8178 C   0  0  0  0  0  0  0  0  0  0  0  0
  143.6416  144.2125  155.8312 S   0  0  0  0  0  0  0  0  0  0  0  0
  143.4025  143.0672  156.7226 O   0  0  0  0  0  0  0  0  0  0  0  0
  142.5576  144.7349  154.9854 O   0  0  0  0  0  0  0  0  0  0  0  0
  144.9652  143.8018  154.8028 N   0  0  0  0  0  0  0  0  0  0  0  0
  145.5358  142.4524  154.8642 C   0  0  0  0  0  0  0  0  0  0  0  0
  146.1772  142.1968  156.2506 C   0  0  0  0  0  0  0  0  0  0  0  0
  147.0416  140.9235  156.2553 C   0  0  0  0  0  0  0  0  0  0  0  0
  148.0351  141.0334  155.1767 N   0  0  0  0  0  0  0  0  0  0  0  0
  149.3281  141.4219  155.3131 C   0  0  0  0  0  0  0  0  0  0  0  0
  150.1308  141.4178  154.3788 O   0  0  0  0  0  0  0  0  0  0  0  0
  149.6618  141.8474  156.5452 N   0  0  0  0  0  0  0  0  0  0  0  0
  150.9275  142.4824  156.9102 C   0  0  0  0  0  0  0  0  0  0  0  0
  151.6642  141.7163  158.0291 C   0  0  0  0  0  0  0  0  0  0  0  0
  151.9186  142.5427  159.2801 C   0  0  0  0  0  0  0  0  0  0  0  0
  152.6569  142.0076  160.3574 C   0  0  0  0  0  0  0  0  0  0  0  0
  152.8193  142.7905  161.5162 C   0  0  0  0  0  0  0  0  0  0  0  0
  152.2466  144.0760  161.5501 C   0  0  0  0  0  0  0  0  0  0  0  0
  151.5409  144.5255  160.4162 C   0  0  0  0  0  0  0  0  0  0  0  0
  151.3794  143.7822  159.3002 N   0  0  0  0  0  0  0  0  0  0  0  0
  147.3790  140.9972  153.8662 C   0  0  0  0  0  0  0  0  0  0  0  0
  146.5531  142.2873  153.7122 C   0  0  0  0  0  0  0  0  0  0  0  0
  143.5716  145.9614  157.5142 H   0  0  0  0  0  0  0  0  0  0  0  0
  144.6205  146.4128  156.1505 H   0  0  0  0  0  0  0  0  0  0  0  0
  145.1999  145.2585  157.3754 H   0  0  0  0  0  0  0  0  0  0  0  0
  145.6985  144.5085  154.8543 H   0  0  0  0  0  0  0  0  0  0  0  0
  144.7348  141.7275  154.7146 H   0  0  0  0  0  0  0  0  0  0  0  0
  146.7974  143.0461  156.5321 H   0  0  0  0  0  0  0  0  0  0  0  0
  145.4046  142.1163  157.0158 H   0  0  0  0  0  0  0  0  0  0  0  0
  147.4818  140.7665  157.2401 H   0  0  0  0  0  0  0  0  0  0  0  0
  146.4127  140.0493  156.0811 H   0  0  0  0  0  0  0  0  0  0  0  0
  148.9527  141.8051  157.2624 H   0  0  0  0  0  0  0  0  0  0  0  0
  151.5593  142.5375  156.0235 H   0  0  0  0  0  0  0  0  0  0  0  0
  150.7625  143.5142  157.2242 H   0  0  0  0  0  0  0  0  0  0  0  0
  151.0808  140.8369  158.3047 H   0  0  0  0  0  0  0  0  0  0  0  0
  152.6158  141.3386  157.6530 H   0  0  0  0  0  0  0  0  0  0  0  0
  153.0738  141.0125  160.3074 H   0  0  0  0  0  0  0  0  0  0  0  0
  153.3669  142.4089  162.3652 H   0  0  0  0  0  0  0  0  0  0  0  0
  152.3476  144.7039  162.4227 H   0  0  0  0  0  0  0  0  0  0  0  0
  151.0918  145.5074  160.4062 H   0  0  0  0  0  0  0  0  0  0  0  0
  148.0888  140.9017  153.0431 H   0  0  0  0  0  0  0  0  0  0  0  0
  146.7304  140.1226  153.7985 H   0  0  0  0  0  0  0  0  0  0  0  0
  146.0355  142.2868  152.7523 H   0  0  0  0  0  0  0  0  0  0  0  0
  147.2332  143.1409  153.6941 H   0  0  0  0  0  0  0  0  0  0  0  0
  1  2  1  0  0  0  0
  1 23  1  0  0  0  0
  1 24  1  0  0  0  0
  1 25  1  0  0  0  0
  2  3  2  0  0  0  0
  2  4  2  0  0  0  0
  2  5  1  0  0  0  0
  5  6  1  0  0  0  0
  5 26  1  0  0  0  0
  6 22  1  0  0  0  0
  6  7  1  0  0  0  0
  6 27  1  0  0  0  0
  7  8  1  0  0  0  0
  7 28  1  0  0  0  0
  7 29  1  0  0  0  0
  8  9  1  0  0  0  0
  8 30  1  0  0  0  0
  8 31  1  0  0  0  0
  9 10  1  0  0  0  0
  9 21  1  0  0  0  0
 10 11  2  0  0  0  0
 10 12  1  0  0  0  0
 12 13  1  0  0  0  0
 12 32  1  0  0  0  0
 13 14  1  0  0  0  0
 13 33  1  0  0  0  0
 13 34  1  0  0  0  0
 14 15  1  0  0  0  0
 14 35  1  0  0  0  0
 14 36  1  0  0  0  0
 15 20  1  0  0  0  0
 15 16  2  0  0  0  0
 16 17  1  0  0  0  0
 16 37  1  0  0  0  0
 17 18  2  0  0  0  0
 17 38  1  0  0  0  0
 18 19  1  0  0  0  0
 18 39  1  0  0  0  0
 19 20  2  0  0  0  0
 19 40  1  0  0  0  0
 21 22  1  0  0  0  0
 21 41  1  0  0  0  0
 21 42  1  0  0  0  0
 22 43  1  0  0  0  0
 22 44  1  0  0  0  0
M  END
> <s_m_source_file>
AV-unprocessed.smi

> <i_m_source_file_index>
1629

> <i_lp_mmshare_version>
43012

> <i_f3d_flags>
0

> <s_epik_input>
W0NIM11TKD1PKSg9TylbTkhdW0NIXTFbQ0gyXVtDSDJdTihbQ0gyXVtDSDJdMSlDKD1PKVtOSF1bQ0gyXVtDSDJdYzJbY0hdW2NIXVtjSF1bY0hdbjI=

> <s_epik_cmdline>
J2VwaWtfcHl0aG9uJywgJy1waCcsICc3LjAnLCAnLXRuJywgJzgnLCAnLW1hJywgJzIwMCcsICctbWV0YWxfYmluZGluZycsICctaW1hZScsICc8aW5maWxlLm1hZT4nLCAnLW9tYWUnLCAnPG91dGZpbGUubWFlPic=

> <r_epik_Ionization_Penalty>
0.044864

> <r_epik_Ionization_Penalty_Charging>
0

> <r_epik_Ionization_Penalty_Neutral>
0.044864

> <r_epik_State_Penalty>
0.0379889

> <r_epik_Charging_Adjusted_Penalty>
0.0379889

> <i_epik_Tot_Q>
0

> <i_epik_Tot_abs_Q>
0

> <r_epik_Metal_State_Penalty>
0.04187

> <b_epik_Metal_Only>
0

> <s_lp_Force_Field>
OPLS_2005

> <r_lp_Energy>
21.9129

> <b_lp_Chiralities_Consistent>
1

> <s_lp_Variant>
AV-unprocessed.smi:1629-1

> <Gold.Version>
5.8.1

> <Gold.Id.Protein>
6NUR|6NUR_protein|mol2

> <Gold.PLP.Fitness>
40.7003

> <Gold.PLP.PLP>
-39.9945

> <Gold.PLP.part.hbond>
-2.4756

> <Gold.PLP.part.metal>
0.0000

> <Gold.PLP.part.buried>
-4.4651

> <Gold.PLP.part.nonpolar>
-33.7414

> <Gold.PLP.part.repulsive>
0.3819

> <Gold.PLP.ligand.clash>
0.0000

> <Gold.PLP.ligand.torsion>
0.5575

> <Gold.PLP.Chemscore.Hbond>
0.5536

> <Gold.PLP.Chemscore.CHOScore>
0.0000

> <Gold.PLP.Chemscore.Metal>
0.0000

> <Gold.Chemscore.Hbonds>
donor molecule, donor type, donor heavy atom, donor atom, acceptor molecule, acceptor atom, score
      P1  H  7989  7998       L1    11  0.37
      P1  H  8011  8017       L1    11  0.19

> <Gold.PLP.Chemscore.Internal.Correction>
0.1598

> <Gold.Rescore>
     Score         DG    S(hbond)    S(metal)    S(lipo)     H(rot)  DE(clash)    DE(int)     intcor
     13.44     -14.34       0.81        0.00      97.04       2.03       0.05       0.85       ----

> <Gold.Chemscore.Fitness>
13.4433

> <Gold.Chemscore.DG>
-14.3395

> <Gold.Chemscore.ZeroCoef>
-5.4800

> <Gold.Chemscore.Hbond>
0.8123

> <Gold.Chemscore.Metal>
0.0000

> <Gold.Chemscore.Lipo>
97.0379

> <Gold.Chemscore.Internal_Hbond>
0.0000

> <Gold.Chemscore.DEClash>
0.0506

> <Gold.Chemscore.DEInternal>
0.8456

> <Gold.Chemscore.Rot>
2.0340

> <Gold.Chemscore.Internal.Correction>
   9.000000E+99

> <Gold.Chemscore.Hbonds>
donor molecule, donor type, donor heavy atom, donor atom, acceptor molecule, acceptor atom, score
      P1  H  7989  7998       L1    11  0.36
      P1  H  8011  8017       L1    11  0.18

> <Gold.Chemscore.Hbond.Weighted>
-2.7131

> <Gold.Chemscore.Metal.Weighted>
-0.0000

> <Gold.Chemscore.Lipo.Weighted>
-11.3534

> <Gold.Chemscore.Internal_Hbond.Weighted>
0.0000

> <Gold.Chemscore.DEClash.Weighted>
0.0506

> <Gold.Chemscore.DEInternal.Weighted>
0.8456

> <Gold.Chemscore.Rot.Weighted>
5.2071

> <Gold.Chemscore.Internal.Correction.Weighted>
   9.000000E+99

> <Gold.Protein.RotatedTorsions>
[ 6907 6896 6895 6894 ] final   23.70 input  -60.11 | X-H torsion
[ 7974 7965 7964 7962 ] final  -37.79 input  175.53 | X-H torsion
[ 8008 7997 7996 7995 ] final   60.35 input   59.86 | X-H torsion
[ 10167 10162 10161 10158 ] final  175.85 input  -65.29 | X-H torsion
[ 10718 10713 10712 10709 ] final   28.86 input   66.30 | X-H torsion
[ 10763 10752 10751 10750 ] final  -82.53 input  -60.55 | X-H torsion
[ 11005 11000 10999 10996 ] final   61.74 input  -57.11 | X-H torsion

> <Gold.Protein.ActiveResidues>
 VAL166  LYS551  ARG553  GLY616  TRP617  ASP618  TYR619  PRO620  LYS621  CYS622 
 ASP623  PHE694  ASN695  SER759  ASP760  ASP761  ALA762  ILE779  LEU786  VAL792 
 PHE793  MET794  SER795  GLU796  ALA797  LYS798  CYS799  TRP800  GLU811  SER814 

> <Gold.Protein.RotatedAtoms>
  151.9463  135.0190  160.0538 H   0  0  0  0  0  0  0  0  0  0  0  0  # atno 6907 bound_to 6896
  152.1992  133.4824  159.5058 H   0  0  0  0  0  0  0  0  0  0  0  0  # atno 6908 bound_to 6896
  150.6951  134.1529  159.4190 H   0  0  0  0  0  0  0  0  0  0  0  0  # atno 6909 bound_to 6896
  146.0544  140.6437  142.9027 H   0  0  0  0  0  0  0  0  0  0  0  0  # atno 7974 bound_to 7965
  155.5808  140.3491  155.4540 H   0  0  0  0  0  0  0  0  0  0  0  0  # atno 8008 bound_to 7997
  156.0374  140.1288  157.0217 H   0  0  0  0  0  0  0  0  0  0  0  0  # atno 8009 bound_to 7997
  154.4377  140.1031  156.6173 H   0  0  0  0  0  0  0  0  0  0  0  0  # atno 8010 bound_to 7997
  139.5192  144.2984  152.0401 H   0  0  0  0  0  0  0  0  0  0  0  0  # atno 10167 bound_to 10162
  157.2391  130.7060  149.6350 H   0  0  0  0  0  0  0  0  0  0  0  0  # atno 10718 bound_to 10713
  154.5769  135.5588  153.7147 H   0  0  0  0  0  0  0  0  0  0  0  0  # atno 10763 bound_to 10752
  153.0067  135.6310  154.2037 H   0  0  0  0  0  0  0  0  0  0  0  0  # atno 10764 bound_to 10752
  154.1977  135.2879  155.2981 H   0  0  0  0  0  0  0  0  0  0  0  0  # atno 10765 bound_to 10752
  140.0140  134.6253  155.9737 H   0  0  0  0  0  0  0  0  0  0  0  0  # atno 11005 bound_to 11000
  144.7140  140.4141  143.7059 LP  0  0  0  0  0  0  0  0  0  0  0  0  # atno 17320 bound_to 7965
  145.6670  139.1592  143.2776 LP  0  0  0  0  0  0  0  0  0  0  0  0  # atno 17321 bound_to 7965
  140.2432  144.4247  150.6251 LP  0  0  0  0  0  0  0  0  0  0  0  0  # atno 17342 bound_to 10162
  140.6276  143.2183  151.6564 LP  0  0  0  0  0  0  0  0  0  0  0  0  # atno 17343 bound_to 10162
  155.9671  130.4464  150.5539 LP  0  0  0  0  0  0  0  0  0  0  0  0  # atno 17370 bound_to 10713
  157.3398  131.0714  151.1797 LP  0  0  0  0  0  0  0  0  0  0  0  0  # atno 17371 bound_to 10713
  141.1730  133.6538  156.4723 LP  0  0  0  0  0  0  0  0  0  0  0  0  # atno 17394 bound_to 11000
  140.4504  134.6934  157.5036 LP  0  0  0  0  0  0  0  0  0  0  0  0  # atno 17395 bound_to 11000

$$$$
