AV-unprocessed.smi:2208|AV-procd|sdf|8946|dock7
  -GOLD-   2272012163D 1   1.00000     0.00000
 Structure written by MMmdl.
 35 36  0  0  0  0  0  0  0  0  1 V2000
  151.9145  138.2628  154.8423 C   0  0  0  0  0  0  0  0  0  0  0  0
  151.2579  139.4768  155.4354 C   0  0  0  0  0  0  0  0  0  0  0  0
  150.6695  140.3440  154.6293 N   0  0  0  0  0  0  0  0  0  0  0  0
  150.1440  141.3417  155.4553 O   0  0  0  0  0  0  0  0  0  0  0  0
  150.4408  141.0333  156.7426 C   0  0  0  0  0  0  0  0  0  0  0  0
  149.9444  141.9796  157.7831 C   0  0  0  0  0  0  0  0  0  0  0  0
  151.1506  139.8646  156.8032 C   0  0  0  0  0  0  0  0  0  0  0  0
  151.6768  139.1489  158.0220 C   0  0  0  0  0  0  0  0  0  0  0  0
  152.7439  140.0132  158.6913 C   0  0  0  0  0  0  0  0  0  0  0  0
  153.9318  139.8523  158.4126 O   0  0  0  0  0  0  0  0  0  0  0  0
  152.3068  140.9062  159.5920 N   0  0  0  0  0  0  0  0  0  0  0  0
  153.1592  141.7449  160.4246 C   0  0  0  0  0  0  0  0  0  0  0  0
  152.7042  143.2124  160.3756 C   0  0  1  0  0  0  0  0  0  0  0  0
  152.7375  143.8248  158.9789 C   0  0  0  0  0  0  0  0  0  0  0  0
  151.7819  144.9862  159.1390 C   0  0  0  0  0  0  0  0  0  0  0  0
  150.7219  144.4123  160.0785 C   0  0  0  0  0  0  0  0  0  0  0  0
  151.3412  143.3304  160.7709 O   0  0  0  0  0  0  0  0  0  0  0  0
  151.1740  137.5976  154.3975 H   0  0  0  0  0  0  0  0  0  0  0  0
  152.4594  137.6909  155.5925 H   0  0  0  0  0  0  0  0  0  0  0  0
  152.6238  138.5417  154.0626 H   0  0  0  0  0  0  0  0  0  0  0  0
  148.8899  141.8007  157.9923 H   0  0  0  0  0  0  0  0  0  0  0  0
  150.0539  143.0127  157.4532 H   0  0  0  0  0  0  0  0  0  0  0  0
  150.4974  141.8638  158.7153 H   0  0  0  0  0  0  0  0  0  0  0  0
  150.8875  138.9420  158.7446 H   0  0  0  0  0  0  0  0  0  0  0  0
  152.1003  138.1783  157.7601 H   0  0  0  0  0  0  0  0  0  0  0  0
  151.3122  140.9660  159.7554 H   0  0  0  0  0  0  0  0  0  0  0  0
  153.1556  141.3800  161.4531 H   0  0  0  0  0  0  0  0  0  0  0  0
  154.1853  141.6568  160.0668 H   0  0  0  0  0  0  0  0  0  0  0  0
  153.3094  143.8244  161.0470 H   0  0  0  0  0  0  0  0  0  0  0  0
  153.7376  144.1324  158.6724 H   0  0  0  0  0  0  0  0  0  0  0  0
  152.3515  143.1216  158.2396 H   0  0  0  0  0  0  0  0  0  0  0  0
  152.2924  145.8225  159.6186 H   0  0  0  0  0  0  0  0  0  0  0  0
  151.3689  145.3366  158.1928 H   0  0  0  0  0  0  0  0  0  0  0  0
  150.3490  145.1622  160.7762 H   0  0  0  0  0  0  0  0  0  0  0  0
  149.8737  144.0231  159.5149 H   0  0  0  0  0  0  0  0  0  0  0  0
  1  2  1  0  0  0  0
  1 18  1  0  0  0  0
  1 19  1  0  0  0  0
  1 20  1  0  0  0  0
  2  7  1  0  0  0  0
  2  3  2  0  0  0  0
  3  4  1  0  0  0  0
  4  5  1  0  0  0  0
  5  6  1  0  0  0  0
  5  7  2  0  0  0  0
  6 21  1  0  0  0  0
  6 22  1  0  0  0  0
  6 23  1  0  0  0  0
  7  8  1  0  0  0  0
  8  9  1  0  0  0  0
  8 24  1  0  0  0  0
  8 25  1  0  0  0  0
  9 10  2  0  0  0  0
  9 11  1  0  0  0  0
 11 12  1  0  0  0  0
 11 26  1  0  0  0  0
 12 13  1  0  0  0  0
 12 27  1  0  0  0  0
 12 28  1  0  0  0  0
 13 17  1  0  0  0  0
 13 14  1  0  0  0  0
 13 29  1  0  0  0  0
 14 15  1  0  0  0  0
 14 30  1  0  0  0  0
 14 31  1  0  0  0  0
 15 16  1  0  0  0  0
 15 32  1  0  0  0  0
 15 33  1  0  0  0  0
 16 17  1  0  0  0  0
 16 34  1  0  0  0  0
 16 35  1  0  0  0  0
M  END
> <s_m_source_file>
AV-unprocessed.smi

> <i_m_source_file_index>
2208

> <i_lp_mmshare_version>
43012

> <i_f3d_flags>
0

> <s_epik_input>
W0NIM11jMW5vYyhbQ0gzXSljMVtDSDJdQyg9TylbTkhdW0NIMl1bQ0BASF0yW0NIMl1bQ0gyXVtDSDJdTzI=

> <s_epik_cmdline>
J2VwaWtfcHl0aG9uJywgJy1waCcsICc3LjAnLCAnLXRuJywgJzgnLCAnLW1hJywgJzIwMCcsICctbWV0YWxfYmluZGluZycsICctaW1hZScsICc8aW5maWxlLm1hZT4nLCAnLW9tYWUnLCAnPG91dGZpbGUubWFlPic=

> <r_lp_tautomer_probability>
1

> <r_epik_Ionization_Penalty>
3.13901e-08

> <r_epik_Ionization_Penalty_Charging>
0

> <r_epik_Ionization_Penalty_Neutral>
3.13901e-08

> <r_epik_State_Penalty>
-0

> <r_epik_Charging_Adjusted_Penalty>
0

> <i_epik_Tot_Q>
0

> <i_epik_Tot_abs_Q>
0

> <r_epik_Metal_State_Penalty>
-0

> <b_epik_Metal_Only>
0

> <s_lp_Force_Field>
OPLS_2005

> <r_lp_Energy>
10.5641

> <b_lp_Chiralities_Consistent>
1

> <s_lp_Variant>
AV-unprocessed.smi:2208-2

> <Gold.Version>
5.8.1

> <Gold.Id.Protein>
6NUR|6NUR_protein|mol2

> <Gold.PLP.Fitness>
43.6720

> <Gold.PLP.PLP>
-38.5698

> <Gold.PLP.part.hbond>
-3.2698

> <Gold.PLP.part.metal>
0.0000

> <Gold.PLP.part.buried>
-5.1682

> <Gold.PLP.part.nonpolar>
-31.0549

> <Gold.PLP.part.repulsive>
0.4363

> <Gold.PLP.ligand.clash>
0.0000

> <Gold.PLP.ligand.torsion>
0.4528

> <Gold.PLP.Chemscore.Hbond>
2.0000

> <Gold.PLP.Chemscore.CHOScore>
0.0000

> <Gold.PLP.Chemscore.Metal>
0.0000

> <Gold.Chemscore.Hbonds>
donor molecule, donor type, donor heavy atom, donor atom, acceptor molecule, acceptor atom, score
      P1  H  7989  7998       L1     3  1.00
      P1  H  7997  8008       L1    10  0.91

> <Gold.PLP.Chemscore.Internal.Correction>
0.0078

> <Gold.Rescore>
     Score         DG    S(hbond)    S(metal)    S(lipo)     H(rot)  DE(clash)    DE(int)     intcor
     18.92     -19.43       2.21        0.00      90.32       1.56       0.00       0.51       ----

> <Gold.Chemscore.Fitness>
18.9245

> <Gold.Chemscore.DG>
-19.4332

> <Gold.Chemscore.ZeroCoef>
-5.4800

> <Gold.Chemscore.Hbond>
2.2057

> <Gold.Chemscore.Metal>
0.0000

> <Gold.Chemscore.Lipo>
90.3157

> <Gold.Chemscore.Internal_Hbond>
0.0000

> <Gold.Chemscore.DEClash>
0.0015

> <Gold.Chemscore.DEInternal>
0.5072

> <Gold.Chemscore.Rot>
1.5551

> <Gold.Chemscore.Internal.Correction>
   9.000000E+99

> <Gold.Chemscore.Hbonds>
donor molecule, donor type, donor heavy atom, donor atom, acceptor molecule, acceptor atom, score
      P1  H  7989  7998       L1     3  0.73
      P1  H  7997  8008       L1    10  0.88

> <Gold.Chemscore.Hbond.Weighted>
-7.3672

> <Gold.Chemscore.Metal.Weighted>
-0.0000

> <Gold.Chemscore.Lipo.Weighted>
-10.5669

> <Gold.Chemscore.Internal_Hbond.Weighted>
0.0000

> <Gold.Chemscore.DEClash.Weighted>
0.0015

> <Gold.Chemscore.DEInternal.Weighted>
0.5072

> <Gold.Chemscore.Rot.Weighted>
3.9809

> <Gold.Chemscore.Internal.Correction.Weighted>
   9.000000E+99

> <Gold.Protein.RotatedTorsions>
[ 6907 6896 6895 6894 ] final   52.35 input  -60.11 | X-H torsion
[ 7974 7965 7964 7962 ] final  -83.02 input  175.53 | X-H torsion
[ 8008 7997 7996 7995 ] final -102.79 input   59.86 | X-H torsion
[ 10167 10162 10161 10158 ] final -115.82 input  -65.29 | X-H torsion
[ 10718 10713 10712 10709 ] final  -23.67 input   66.30 | X-H torsion
[ 10763 10752 10751 10750 ] final   70.15 input  -60.55 | X-H torsion
[ 11005 11000 10999 10996 ] final  114.60 input  -57.11 | X-H torsion

> <Gold.Protein.ActiveResidues>
 VAL166  LYS551  ARG553  GLY616  TRP617  ASP618  TYR619  PRO620  LYS621  CYS622 
 ASP623  PHE694  ASN695  SER759  ASP760  ASP761  ALA762  ILE779  LEU786  VAL792 
 PHE793  MET794  SER795  GLU796  ALA797  LYS798  CYS799  TRP800  GLU811  SER814 

> <Gold.Protein.RotatedAtoms>
  152.3224  134.7364  160.0310 H   0  0  0  0  0  0  0  0  0  0  0  0  # atno 6907 bound_to 6896
  151.7808  133.3344  159.3479 H   0  0  0  0  0  0  0  0  0  0  0  0  # atno 6908 bound_to 6896
  150.7377  134.5864  159.6009 H   0  0  0  0  0  0  0  0  0  0  0  0  # atno 6909 bound_to 6896
  145.5255  140.9527  143.1632 H   0  0  0  0  0  0  0  0  0  0  0  0  # atno 7974 bound_to 7965
  154.8616  140.0426  157.1669 H   0  0  0  0  0  0  0  0  0  0  0  0  # atno 8008 bound_to 7997
  154.8834  140.2976  155.5391 H   0  0  0  0  0  0  0  0  0  0  0  0  # atno 8009 bound_to 7997
  156.2998  140.2407  156.3839 H   0  0  0  0  0  0  0  0  0  0  0  0  # atno 8010 bound_to 7997
  140.0859  143.4744  152.1898 H   0  0  0  0  0  0  0  0  0  0  0  0  # atno 10167 bound_to 10162
  156.4880  130.4560  149.6772 H   0  0  0  0  0  0  0  0  0  0  0  0  # atno 10718 bound_to 10713
  153.0326  135.5184  154.7397 H   0  0  0  0  0  0  0  0  0  0  0  0  # atno 10763 bound_to 10752
  154.6400  135.2911  155.0117 H   0  0  0  0  0  0  0  0  0  0  0  0  # atno 10764 bound_to 10752
  154.1038  135.6632  153.4925 H   0  0  0  0  0  0  0  0  0  0  0  0  # atno 10765 bound_to 10752
  139.8985  134.9570  156.6917 H   0  0  0  0  0  0  0  0  0  0  0  0  # atno 11005 bound_to 11000
  144.7653  139.6859  143.7217 LP  0  0  0  0  0  0  0  0  0  0  0  0  # atno 17320 bound_to 7965
  146.2078  139.5414  142.9701 LP  0  0  0  0  0  0  0  0  0  0  0  0  # atno 17321 bound_to 7965
  139.5752  144.7484  151.3783 LP  0  0  0  0  0  0  0  0  0  0  0  0  # atno 17342 bound_to 10162
  140.7054  143.7528  150.7472 LP  0  0  0  0  0  0  0  0  0  0  0  0  # atno 17343 bound_to 10162
  156.3455  130.7404  151.2356 LP  0  0  0  0  0  0  0  0  0  0  0  0  # atno 17370 bound_to 10713
  157.7477  131.0391  150.4537 LP  0  0  0  0  0  0  0  0  0  0  0  0  # atno 17371 bound_to 10713
  140.7219  133.9133  155.8153 LP  0  0  0  0  0  0  0  0  0  0  0  0  # atno 17394 bound_to 11000
  141.0220  134.0875  157.4109 LP  0  0  0  0  0  0  0  0  0  0  0  0  # atno 17395 bound_to 11000

$$$$
