AV-unprocessed.smi:428|AV-procd|sdf|2544|dock10
  -GOLD-   2262022503D 1   1.00000     0.00000
 Structure written by MMmdl.
 40 41  0  0  0  0  0  0  0  0  1 V2000
  146.0152  142.1135  154.5398 C   0  0  0  0  0  0  0  0  0  0  0  0
  147.3685  141.5245  154.9533 C   0  0  0  0  0  0  0  0  0  0  0  0
  147.7684  140.3132  154.0918 C   0  0  0  0  0  0  0  0  0  0  0  0
  149.1189  139.7072  154.4871 C   0  0  0  0  0  0  0  0  0  0  0  0
  150.1389  140.3968  154.5008 O   0  0  0  0  0  0  0  0  0  0  0  0
  149.1065  138.4070  154.8189 N   0  0  0  0  0  0  0  0  0  0  0  0
  150.2741  137.6293  155.2244 C   0  0  0  0  0  0  0  0  0  0  0  0
  151.0480  138.1813  156.4162 C   0  0  0  0  0  0  0  0  0  0  0  0
  150.7657  137.6965  157.7083 C   0  0  0  0  0  0  0  0  0  0  0  0
  151.4724  138.2169  158.8089 C   0  0  0  0  0  0  0  0  0  0  0  0
  152.4502  139.2155  158.5906 C   0  0  0  0  0  0  0  0  0  0  0  0
  153.1677  139.7535  159.6804 N   0  0  0  0  0  0  0  0  0  0  0  0
  154.5702  139.3711  159.8319 C   0  0  0  0  0  0  0  0  0  0  0  0
  155.1013  139.8187  161.2041 C   0  0  0  0  0  0  0  0  0  0  0  0
  154.8943  141.2183  161.3640 O   0  0  0  0  0  0  0  0  0  0  0  0
  153.5120  141.5568  161.3219 C   0  0  0  0  0  0  0  0  0  0  0  0
  152.9198  141.1660  159.9568 C   0  0  0  0  0  0  0  0  0  0  0  0
  152.7250  139.6785  157.3464 N   0  0  0  0  0  0  0  0  0  0  0  0
  152.0417  139.1785  156.2953 C   0  0  0  0  0  0  0  0  0  0  0  0
  145.7560  142.9678  155.1656 H   0  0  0  0  0  0  0  0  0  0  0  0
  145.2184  141.3756  154.6366 H   0  0  0  0  0  0  0  0  0  0  0  0
  146.0339  142.4536  153.5042 H   0  0  0  0  0  0  0  0  0  0  0  0
  148.1322  142.3002  154.8793 H   0  0  0  0  0  0  0  0  0  0  0  0
  147.3213  141.2350  156.0040 H   0  0  0  0  0  0  0  0  0  0  0  0
  147.0081  139.5353  154.1678 H   0  0  0  0  0  0  0  0  0  0  0  0
  147.8067  140.6113  153.0429 H   0  0  0  0  0  0  0  0  0  0  0  0
  148.2235  137.9182  154.7843 H   0  0  0  0  0  0  0  0  0  0  0  0
  149.9321  136.6262  155.4796 H   0  0  0  0  0  0  0  0  0  0  0  0
  150.9550  137.5123  154.3795 H   0  0  0  0  0  0  0  0  0  0  0  0
  150.0158  136.9334  157.8570 H   0  0  0  0  0  0  0  0  0  0  0  0
  151.2681  137.8377  159.7993 H   0  0  0  0  0  0  0  0  0  0  0  0
  154.6779  138.2898  159.7365 H   0  0  0  0  0  0  0  0  0  0  0  0
  155.1587  139.8306  159.0366 H   0  0  0  0  0  0  0  0  0  0  0  0
  154.6082  139.2724  162.0098 H   0  0  0  0  0  0  0  0  0  0  0  0
  156.1675  139.6057  161.2818 H   0  0  0  0  0  0  0  0  0  0  0  0
  152.9797  141.0578  162.1333 H   0  0  0  0  0  0  0  0  0  0  0  0
  153.4046  142.6294  161.4833 H   0  0  0  0  0  0  0  0  0  0  0  0
  153.3780  141.7635  159.1675 H   0  0  0  0  0  0  0  0  0  0  0  0
  151.8554  141.3968  159.9519 H   0  0  0  0  0  0  0  0  0  0  0  0
  152.3040  139.5986  155.3359 H   0  0  0  0  0  0  0  0  0  0  0  0
  1  2  1  0  0  0  0
  1 20  1  0  0  0  0
  1 21  1  0  0  0  0
  1 22  1  0  0  0  0
  2  3  1  0  0  0  0
  2 23  1  0  0  0  0
  2 24  1  0  0  0  0
  3  4  1  0  0  0  0
  3 25  1  0  0  0  0
  3 26  1  0  0  0  0
  4  5  2  0  0  0  0
  4  6  1  0  0  0  0
  6  7  1  0  0  0  0
  6 27  1  0  0  0  0
  7  8  1  0  0  0  0
  7 28  1  0  0  0  0
  7 29  1  0  0  0  0
  8 19  1  0  0  0  0
  8  9  2  0  0  0  0
  9 10  1  0  0  0  0
  9 30  1  0  0  0  0
 10 11  2  0  0  0  0
 10 31  1  0  0  0  0
 11 12  1  0  0  0  0
 11 18  1  0  0  0  0
 12 17  1  0  0  0  0
 12 13  1  0  0  0  0
 13 14  1  0  0  0  0
 13 32  1  0  0  0  0
 13 33  1  0  0  0  0
 14 15  1  0  0  0  0
 14 34  1  0  0  0  0
 14 35  1  0  0  0  0
 15 16  1  0  0  0  0
 16 17  1  0  0  0  0
 16 36  1  0  0  0  0
 16 37  1  0  0  0  0
 17 38  1  0  0  0  0
 17 39  1  0  0  0  0
 18 19  2  0  0  0  0
 19 40  1  0  0  0  0
M  END
> <s_m_source_file>
AV-unprocessed.smi

> <i_m_source_file_index>
428

> <i_lp_mmshare_version>
43012

> <i_f3d_flags>
0

> <s_epik_input>
W0NIM11bQ0gyXVtDSDJdQyg9TylbTkhdW0NIMl1jMVtjSF1bY0hdYyhuW2NIXTEpTjJbQ0gyXVtDSDJdT1tDSDJdW0NIMl0y

> <s_epik_cmdline>
J2VwaWtfcHl0aG9uJywgJy1waCcsICc3LjAnLCAnLXRuJywgJzgnLCAnLW1hJywgJzIwMCcsICctbWV0YWxfYmluZGluZycsICctaW1hZScsICc8aW5maWxlLm1hZT4nLCAnLW9tYWUnLCAnPG91dGZpbGUubWFlPic=

> <r_lp_tautomer_probability>
1

> <r_epik_Ionization_Penalty>
0.00505548

> <r_epik_Ionization_Penalty_Charging>
0

> <r_epik_Ionization_Penalty_Neutral>
0.00505548

> <r_epik_State_Penalty>
0.00367784

> <r_epik_Charging_Adjusted_Penalty>
0.00367784

> <i_epik_Tot_Q>
0

> <i_epik_Tot_abs_Q>
0

> <r_epik_Metal_State_Penalty>
-0

> <b_epik_Metal_Only>
0

> <s_lp_Force_Field>
OPLS_2005

> <r_lp_Energy>
16.3878

> <b_lp_Chiralities_Consistent>
1

> <s_lp_Variant>
AV-unprocessed.smi:428-1

> <Gold.Version>
5.8.1

> <Gold.Id.Protein>
6NUR|6NUR_protein|mol2

> <Gold.PLP.Fitness>
37.5296

> <Gold.PLP.PLP>
-32.2811

> <Gold.PLP.part.hbond>
-2.9796

> <Gold.PLP.part.metal>
0.0000

> <Gold.PLP.part.buried>
-3.5406

> <Gold.PLP.part.nonpolar>
-25.6489

> <Gold.PLP.part.repulsive>
0.1345

> <Gold.PLP.ligand.clash>
0.0000

> <Gold.PLP.ligand.torsion>
0.5402

> <Gold.PLP.Chemscore.Hbond>
2.0000

> <Gold.PLP.Chemscore.CHOScore>
0.0000

> <Gold.PLP.Chemscore.Metal>
0.0000

> <Gold.Chemscore.Hbonds>
donor molecule, donor type, donor heavy atom, donor atom, acceptor molecule, acceptor atom, score
      P1  H  7989  7998       L1     5  0.94
      P1  H  7997  8008       L1    18  1.00

> <Gold.PLP.Chemscore.Internal.Correction>
0.3289

> <Gold.Rescore>
     Score         DG    S(hbond)    S(metal)    S(lipo)     H(rot)  DE(clash)    DE(int)     intcor
     14.88     -15.58       1.92        0.00      68.40       1.69       0.14       0.56       ----

> <Gold.Chemscore.Fitness>
14.8814

> <Gold.Chemscore.DG>
-15.5766

> <Gold.Chemscore.ZeroCoef>
-5.4800

> <Gold.Chemscore.Hbond>
1.9243

> <Gold.Chemscore.Metal>
0.0000

> <Gold.Chemscore.Lipo>
68.3976

> <Gold.Chemscore.Internal_Hbond>
0.0000

> <Gold.Chemscore.DEClash>
0.1392

> <Gold.Chemscore.DEInternal>
0.5559

> <Gold.Chemscore.Rot>
1.6926

> <Gold.Chemscore.Internal.Correction>
   9.000000E+99

> <Gold.Chemscore.Hbonds>
donor molecule, donor type, donor heavy atom, donor atom, acceptor molecule, acceptor atom, score
      P1  H  7989  7998       L1     5  0.92
      P1  H  7997  8008       L1    18  0.60

> <Gold.Chemscore.Hbond.Weighted>
-6.4271

> <Gold.Chemscore.Metal.Weighted>
-0.0000

> <Gold.Chemscore.Lipo.Weighted>
-8.0025

> <Gold.Chemscore.Internal_Hbond.Weighted>
0.0000

> <Gold.Chemscore.DEClash.Weighted>
0.1392

> <Gold.Chemscore.DEInternal.Weighted>
0.5559

> <Gold.Chemscore.Rot.Weighted>
4.3330

> <Gold.Chemscore.Internal.Correction.Weighted>
   9.000000E+99

> <Gold.Protein.RotatedTorsions>
[ 6907 6896 6895 6894 ] final  -84.97 input  -60.11 | X-H torsion
[ 7974 7965 7964 7962 ] final  -88.22 input  175.53 | X-H torsion
[ 8008 7997 7996 7995 ] final  -66.51 input   59.86 | X-H torsion
[ 10167 10162 10161 10158 ] final  -91.82 input  -65.29 | X-H torsion
[ 10718 10713 10712 10709 ] final  -83.34 input   66.30 | X-H torsion
[ 10763 10752 10751 10750 ] final -179.49 input  -60.55 | X-H torsion
[ 11005 11000 10999 10996 ] final   61.11 input  -57.11 | X-H torsion

> <Gold.Protein.ActiveResidues>
 VAL166  LYS551  ARG553  GLY616  TRP617  ASP618  TYR619  PRO620  LYS621  CYS622 
 ASP623  PHE694  ASN695  SER759  ASP760  ASP761  ALA762  ILE779  LEU786  VAL792 
 PHE793  MET794  SER795  GLU796  ALA797  LYS798  CYS799  TRP800  GLU811  SER814 

> <Gold.Protein.RotatedAtoms>
  150.6873  134.3276  159.4812 H   0  0  0  0  0  0  0  0  0  0  0  0  # atno 6907 bound_to 6896
  152.1144  134.9248  160.0574 H   0  0  0  0  0  0  0  0  0  0  0  0  # atno 6908 bound_to 6896
  152.0478  133.3971  159.4401 H   0  0  0  0  0  0  0  0  0  0  0  0  # atno 6909 bound_to 6896
  145.4561  140.9561  143.1995 H   0  0  0  0  0  0  0  0  0  0  0  0  # atno 7974 bound_to 7965
  154.4739  140.0911  156.7214 H   0  0  0  0  0  0  0  0  0  0  0  0  # atno 8008 bound_to 7997
  155.4648  140.3462  155.4299 H   0  0  0  0  0  0  0  0  0  0  0  0  # atno 8009 bound_to 7997
  156.1085  140.1441  156.9359 H   0  0  0  0  0  0  0  0  0  0  0  0  # atno 8010 bound_to 7997
  140.3411  143.2942  151.9834 H   0  0  0  0  0  0  0  0  0  0  0  0  # atno 10167 bound_to 10162
  156.0020  130.4662  150.4242 H   0  0  0  0  0  0  0  0  0  0  0  0  # atno 10718 bound_to 10713
  154.5344  135.2802  155.1151 H   0  0  0  0  0  0  0  0  0  0  0  0  # atno 10763 bound_to 10752
  154.2658  135.6313  153.5295 H   0  0  0  0  0  0  0  0  0  0  0  0  # atno 10764 bound_to 10752
  152.9964  135.5616  154.5867 H   0  0  0  0  0  0  0  0  0  0  0  0  # atno 10765 bound_to 10752
  140.0184  134.6190  155.9676 H   0  0  0  0  0  0  0  0  0  0  0  0  # atno 11005 bound_to 11000
  144.8031  139.6102  143.7062 LP  0  0  0  0  0  0  0  0  0  0  0  0  # atno 17320 bound_to 7965
  146.2477  139.6133  142.9448 LP  0  0  0  0  0  0  0  0  0  0  0  0  # atno 17321 bound_to 7965
  139.4840  144.6156  151.7352 LP  0  0  0  0  0  0  0  0  0  0  0  0  # atno 17342 bound_to 10162
  140.5308  144.0733  150.6053 LP  0  0  0  0  0  0  0  0  0  0  0  0  # atno 17343 bound_to 10162
  157.2295  131.0501  151.2500 LP  0  0  0  0  0  0  0  0  0  0  0  0  # atno 17370 bound_to 10713
  157.3724  130.7188  149.6574 LP  0  0  0  0  0  0  0  0  0  0  0  0  # atno 17371 bound_to 10713
  141.1758  133.6540  156.4823 LP  0  0  0  0  0  0  0  0  0  0  0  0  # atno 17394 bound_to 11000
  140.4430  134.6998  157.5001 LP  0  0  0  0  0  0  0  0  0  0  0  0  # atno 17395 bound_to 11000

$$$$
