AV-unprocessed.smi:260|AV-procd|sdf|1977|dock4
  -GOLD-   2262021143D 1   1.00000     0.00000
 Structure written by MMmdl.
 53 56  0  0  0  0  0  0  0  0  1 V2000
  151.8530  130.7878  157.0327 C   0  0  0  0  0  0  0  0  0  0  0  0
  151.0349  131.6193  156.1632 N   0  0  0  0  0  0  0  0  0  0  0  0
  150.6897  132.8891  156.4305 C   0  0  0  0  0  0  0  0  0  0  0  0
  151.0545  133.4565  157.4618 O   0  0  0  0  0  0  0  0  0  0  0  0
  149.8046  133.6401  155.3967 C   0  0  1  0  0  0  0  0  0  0  0  0
  149.3796  132.7303  154.2203 C   0  0  0  0  0  0  0  0  0  0  0  0
  148.5811  134.2622  156.1008 C   0  0  0  0  0  0  0  0  0  0  0  0
  149.0698  135.6099  156.6373 C   0  0  0  0  0  0  0  0  0  0  0  0
  150.1391  136.0039  155.7370 N   0  0  0  0  0  0  0  0  0  0  0  0
  150.9201  137.0977  155.9357 C   0  0  0  0  0  0  0  0  0  0  0  0
  152.0348  137.2380  155.1701 N   0  0  0  0  0  0  0  0  0  0  0  0
  152.8391  138.2930  155.3238 C   0  0  0  0  0  0  0  0  0  0  0  0
  152.7186  139.3161  156.1702 N   0  0  0  0  0  0  0  0  0  0  0  0
  151.5997  139.1903  156.9388 C   0  0  0  0  0  0  0  0  0  0  0  0
  150.6526  138.1262  156.8891 C   0  0  0  0  0  0  0  0  0  0  0  0
  149.6498  138.3563  157.8263 N   0  0  0  0  0  0  0  0  0  0  0  0
  149.9863  139.4803  158.3964 C   0  0  0  0  0  0  0  0  0  0  0  0
  151.1464  140.0480  157.9254 N   0  0  0  0  0  0  0  0  0  0  0  0
  151.7510  141.2868  158.3829 C   0  0  0  0  0  0  0  0  0  0  0  0
  152.9657  141.0428  159.2990 C   0  0  1  0  0  0  0  0  0  0  0  0
  154.0707  140.6396  158.5126 O   0  0  0  0  0  0  0  0  0  0  0  0
  153.3553  142.3016  160.0953 C   0  0  2  0  0  0  0  0  0  0  0  0
  154.1795  142.0284  161.3549 C   0  0  0  0  0  0  0  0  0  0  0  0
  153.8768  143.2200  162.2505 C   0  0  0  0  0  0  0  0  0  0  0  0
  152.6428  143.8626  161.6119 C   0  0  0  0  0  0  0  0  0  0  0  0
  152.2024  142.9285  160.6365 O   0  0  0  0  0  0  0  0  0  0  0  0
  150.5376  134.8969  154.8730 C   0  0  0  0  0  0  0  0  0  0  0  0
  151.9857  129.8021  156.5870 H   0  0  0  0  0  0  0  0  0  0  0  0
  151.3790  130.6607  158.0068 H   0  0  0  0  0  0  0  0  0  0  0  0
  152.8386  131.2315  157.1793 H   0  0  0  0  0  0  0  0  0  0  0  0
  150.7072  131.2054  155.3024 H   0  0  0  0  0  0  0  0  0  0  0  0
  148.8033  133.2866  153.4802 H   0  0  0  0  0  0  0  0  0  0  0  0
  148.7514  131.9039  154.5550 H   0  0  0  0  0  0  0  0  0  0  0  0
  150.2447  132.3119  153.7039 H   0  0  0  0  0  0  0  0  0  0  0  0
  147.7824  134.4345  155.3782 H   0  0  0  0  0  0  0  0  0  0  0  0
  148.1677  133.6334  156.8909 H   0  0  0  0  0  0  0  0  0  0  0  0
  148.2657  136.3460  156.6544 H   0  0  0  0  0  0  0  0  0  0  0  0
  149.4634  135.5021  157.6487 H   0  0  0  0  0  0  0  0  0  0  0  0
  153.7025  138.3212  154.6758 H   0  0  0  0  0  0  0  0  0  0  0  0
  149.3959  139.9269  159.1833 H   0  0  0  0  0  0  0  0  0  0  0  0
  152.0375  141.8817  157.5147 H   0  0  0  0  0  0  0  0  0  0  0  0
  150.9876  141.8585  158.9118 H   0  0  0  0  0  0  0  0  0  0  0  0
  152.7355  140.2342  159.9941 H   0  0  0  0  0  0  0  0  0  0  0  0
  153.9721  141.0058  157.6467 H   0  0  0  0  0  0  0  0  0  0  0  0
  153.8779  143.0150  159.4546 H   0  0  0  0  0  0  0  0  0  0  0  0
  153.8365  141.1132  161.8396 H   0  0  0  0  0  0  0  0  0  0  0  0
  155.2434  141.9172  161.1437 H   0  0  0  0  0  0  0  0  0  0  0  0
  153.6809  142.8962  163.2732 H   0  0  0  0  0  0  0  0  0  0  0  0
  154.7086  143.9250  162.2746 H   0  0  0  0  0  0  0  0  0  0  0  0
  151.8565  144.0734  162.3372 H   0  0  0  0  0  0  0  0  0  0  0  0
  152.9098  144.7979  161.1179 H   0  0  0  0  0  0  0  0  0  0  0  0
  151.6194  134.7527  154.8688 H   0  0  0  0  0  0  0  0  0  0  0  0
  150.2382  135.1338  153.8516 H   0  0  0  0  0  0  0  0  0  0  0  0
  1  2  1  0  0  0  0
  1 28  1  0  0  0  0
  1 29  1  0  0  0  0
  1 30  1  0  0  0  0
  2  3  1  0  0  0  0
  2 31  1  0  0  0  0
  3  4  2  0  0  0  0
  3  5  1  0  0  0  0
  5 27  1  0  0  0  0
  5  6  1  0  0  0  0
  5  7  1  0  0  0  0
  6 32  1  0  0  0  0
  6 33  1  0  0  0  0
  6 34  1  0  0  0  0
  7  8  1  0  0  0  0
  7 35  1  0  0  0  0
  7 36  1  0  0  0  0
  8  9  1  0  0  0  0
  8 37  1  0  0  0  0
  8 38  1  0  0  0  0
  9 10  1  0  0  0  0
  9 27  1  0  0  0  0
 10 15  1  0  0  0  0
 10 11  2  0  0  0  0
 11 12  1  0  0  0  0
 12 13  2  0  0  0  0
 12 39  1  0  0  0  0
 13 14  1  0  0  0  0
 14 18  1  0  0  0  0
 14 15  2  0  0  0  0
 15 16  1  0  0  0  0
 16 17  2  0  0  0  0
 17 18  1  0  0  0  0
 17 40  1  0  0  0  0
 18 19  1  0  0  0  0
 19 20  1  0  0  0  0
 19 41  1  0  0  0  0
 19 42  1  0  0  0  0
 20 21  1  0  0  0  0
 20 22  1  0  0  0  0
 20 43  1  0  0  0  0
 21 44  1  0  0  0  0
 22 26  1  0  0  0  0
 22 23  1  0  0  0  0
 22 45  1  0  0  0  0
 23 24  1  0  0  0  0
 23 46  1  0  0  0  0
 23 47  1  0  0  0  0
 24 25  1  0  0  0  0
 24 48  1  0  0  0  0
 24 49  1  0  0  0  0
 25 26  1  0  0  0  0
 25 50  1  0  0  0  0
 25 51  1  0  0  0  0
 27 52  1  0  0  0  0
 27 53  1  0  0  0  0
M  END
> <s_m_source_file>
AV-unprocessed.smi

> <i_m_source_file_index>
260

> <i_lp_mmshare_version>
43012

> <i_f3d_flags>
0

> <s_epik_input>
W0NIM11bTkhdQyg9TylbQ0BAXTEoW0NIM10pW0NIMl1bQ0gyXU4oW0NIMl0xKWMobltjSF1uMiljKGMyMyluW2NIXW4zW0NIMl1bQ0BIXShbT0hdKVtDQEBIXTRbQ0gyXVtDSDJdW0NIMl1PNA==

> <s_epik_cmdline>
J2VwaWtfcHl0aG9uJywgJy1waCcsICc3LjAnLCAnLXRuJywgJzgnLCAnLW1hJywgJzIwMCcsICctbWV0YWxfYmluZGluZycsICctaW1hZScsICc8aW5maWxlLm1hZT4nLCAnLW9tYWUnLCAnPG91dGZpbGUubWFlPic=

> <r_lp_tautomer_probability>
1

> <r_epik_Ionization_Penalty>
0.00115068

> <r_epik_Ionization_Penalty_Charging>
0

> <r_epik_Ionization_Penalty_Neutral>
0.00115068

> <r_epik_State_Penalty>
0.000668876

> <r_epik_Charging_Adjusted_Penalty>
0.000668876

> <i_epik_Tot_Q>
0

> <i_epik_Tot_abs_Q>
0

> <r_epik_Metal_State_Penalty>
-0

> <b_epik_Metal_Only>
0

> <s_lp_Force_Field>
OPLS_2005

> <r_lp_Energy>
48.4888

> <b_lp_Chiralities_Consistent>
1

> <s_lp_Variant>
AV-unprocessed.smi:260-3

> <Gold.Version>
5.8.1

> <Gold.Id.Protein>
6NUR|6NUR_protein|mol2

> <Gold.PLP.Fitness>
51.0015

> <Gold.PLP.PLP>
-44.1289

> <Gold.PLP.part.hbond>
-4.4983

> <Gold.PLP.part.metal>
0.0000

> <Gold.PLP.part.buried>
-6.3038

> <Gold.PLP.part.nonpolar>
-34.0754

> <Gold.PLP.part.repulsive>
0.1401

> <Gold.PLP.ligand.clash>
0.0000

> <Gold.PLP.ligand.torsion>
0.7790

> <Gold.PLP.Chemscore.Hbond>
2.7280

> <Gold.PLP.Chemscore.CHOScore>
0.0000

> <Gold.PLP.Chemscore.Metal>
0.0000

> <Gold.Chemscore.Hbonds>
donor molecule, donor type, donor heavy atom, donor atom, acceptor molecule, acceptor atom, score
      P1  H  6896  6908       L1     4  0.67
      P1  H  7997  8008       L1    13  1.00
      P1  H 10752 10764       L1    11  0.78

> <Gold.PLP.Chemscore.Internal.Correction>
0.2465

> <Gold.Rescore>
     Score         DG    S(hbond)    S(metal)    S(lipo)     H(rot)  DE(clash)    DE(int)     intcor
     12.52     -14.79       1.71        0.00      85.92       2.53       0.02       2.24       ----

> <Gold.Chemscore.Fitness>
12.5226

> <Gold.Chemscore.DG>
-14.7864

> <Gold.Chemscore.ZeroCoef>
-5.4800

> <Gold.Chemscore.Hbond>
1.7126

> <Gold.Chemscore.Metal>
0.0000

> <Gold.Chemscore.Lipo>
85.9204

> <Gold.Chemscore.Internal_Hbond>
0.0000

> <Gold.Chemscore.DEClash>
0.0202

> <Gold.Chemscore.DEInternal>
2.2435

> <Gold.Chemscore.Rot>
2.5259

> <Gold.Chemscore.Internal.Correction>
   9.000000E+99

> <Gold.Chemscore.Hbonds>
donor molecule, donor type, donor heavy atom, donor atom, acceptor molecule, acceptor atom, score
      P1  H  6896  6908       L1     4  0.68
      P1  H  7997  8008       L1    13  0.74
      P1  H 10752 10764       L1    11  0.63

> <Gold.Chemscore.Hbond.Weighted>
-5.7201

> <Gold.Chemscore.Metal.Weighted>
-0.0000

> <Gold.Chemscore.Lipo.Weighted>
-10.0527

> <Gold.Chemscore.Internal_Hbond.Weighted>
0.0000

> <Gold.Chemscore.DEClash.Weighted>
0.0202

> <Gold.Chemscore.DEInternal.Weighted>
2.2435

> <Gold.Chemscore.Rot.Weighted>
6.4663

> <Gold.Chemscore.Internal.Correction.Weighted>
   9.000000E+99

> <Gold.Protein.RotatedTorsions>
[ 6907 6896 6895 6894 ] final  107.55 input  -60.11 | X-H torsion
[ 7974 7965 7964 7962 ] final -177.33 input  175.53 | X-H torsion
[ 8008 7997 7996 7995 ] final  -49.78 input   59.86 | X-H torsion
[ 10167 10162 10161 10158 ] final   77.45 input  -65.29 | X-H torsion
[ 10718 10713 10712 10709 ] final   49.02 input   66.30 | X-H torsion
[ 10763 10752 10751 10750 ] final  -74.50 input  -60.55 | X-H torsion
[ 11005 11000 10999 10996 ] final   85.63 input  -57.11 | X-H torsion

> <Gold.Protein.ActiveResidues>
 VAL166  LYS551  ARG553  GLY616  TRP617  ASP618  TYR619  PRO620  LYS621  CYS622 
 ASP623  PHE694  ASN695  SER759  ASP760  ASP761  ALA762  ILE779  LEU786  VAL792 
 PHE793  MET794  SER795  GLU796  ALA797  LYS798  CYS799  TRP800  GLU811  SER814 

> <Gold.Protein.RotatedAtoms>
  152.5149  133.9218  159.7537 H   0  0  0  0  0  0  0  0  0  0  0  0  # atno 6907 bound_to 6896
  150.9588  133.6460  159.2765 H   0  0  0  0  0  0  0  0  0  0  0  0  # atno 6908 bound_to 6896
  151.3712  135.0928  159.9519 H   0  0  0  0  0  0  0  0  0  0  0  0  # atno 6909 bound_to 6896
  144.7127  140.1036  143.6415 H   0  0  0  0  0  0  0  0  0  0  0  0  # atno 7974 bound_to 7965
  154.4050  140.1288  156.4558 H   0  0  0  0  0  0  0  0  0  0  0  0  # atno 8008 bound_to 7997
  155.7322  140.3491  155.5045 H   0  0  0  0  0  0  0  0  0  0  0  0  # atno 8009 bound_to 7997
  155.9117  140.1037  157.1264 H   0  0  0  0  0  0  0  0  0  0  0  0  # atno 8010 bound_to 7997
  139.9814  144.5823  150.7897 H   0  0  0  0  0  0  0  0  0  0  0  0  # atno 10167 bound_to 10162
  157.4745  130.8276  149.8024 H   0  0  0  0  0  0  0  0  0  0  0  0  # atno 10718 bound_to 10713
  154.4739  135.5862  153.6341 H   0  0  0  0  0  0  0  0  0  0  0  0  # atno 10763 bound_to 10752
  152.9838  135.6073  154.3331 H   0  0  0  0  0  0  0  0  0  0  0  0  # atno 10764 bound_to 10752
  154.3216  135.2843  155.2496 H   0  0  0  0  0  0  0  0  0  0  0  0  # atno 10765 bound_to 10752
  139.8966  134.8300  156.2609 H   0  0  0  0  0  0  0  0  0  0  0  0  # atno 11005 bound_to 11000
  145.9516  139.2738  143.1209 LP  0  0  0  0  0  0  0  0  0  0  0  0  # atno 17320 bound_to 7965
  145.9317  140.9044  143.0353 LP  0  0  0  0  0  0  0  0  0  0  0  0  # atno 17321 bound_to 7965
  140.7487  143.2927  151.3286 LP  0  0  0  0  0  0  0  0  0  0  0  0  # atno 17342 bound_to 10162
  139.6407  144.0545  152.2552 LP  0  0  0  0  0  0  0  0  0  0  0  0  # atno 17343 bound_to 10162
  156.0090  130.3842  150.2331 LP  0  0  0  0  0  0  0  0  0  0  0  0  # atno 17370 bound_to 10713
  157.0514  131.0064  151.3252 LP  0  0  0  0  0  0  0  0  0  0  0  0  # atno 17371 bound_to 10713
  141.0163  133.7067  156.1194 LP  0  0  0  0  0  0  0  0  0  0  0  0  # atno 17394 bound_to 11000
  140.7297  134.4268  157.5567 LP  0  0  0  0  0  0  0  0  0  0  0  0  # atno 17395 bound_to 11000

$$$$
