AV-unprocessed.smi:775|AV-procd|sdf|3697|dock6
  -GOLD-   22720 1113D 1   1.00000     0.00000
 Structure written by MMmdl.
 38 39  0  0  0  0  0  0  0  0  1 V2000
  153.4568  139.8042  159.6230 C   0  0  0  0  0  0  0  0  0  0  0  0
  152.7346  141.0324  159.0507 C   0  0  2  0  0  0  0  0  0  0  0  0
  153.1724  142.3180  159.7915 C   0  0  0  0  0  0  0  0  0  0  0  0
  152.3654  143.4798  159.4617 N   0  0  0  0  0  0  0  0  0  0  0  0
  152.0255  144.5429  160.2720 C   0  0  0  0  0  0  0  0  0  0  0  0
  151.2629  145.3954  159.5262 C   0  0  0  0  0  0  0  0  0  0  0  0
  151.1814  144.7544  158.2586 C   0  0  0  0  0  0  0  0  0  0  0  0
  151.8395  143.6070  158.2236 N   0  0  0  0  0  0  0  0  0  0  0  0
  151.3021  140.7950  159.2077 N   0  0  0  0  0  0  0  0  0  0  0  0
  150.7947  139.7499  158.3055 C   0  0  0  0  0  0  0  0  0  0  0  0
  149.8471  140.2952  157.2234 C   0  0  0  0  0  0  0  0  0  0  0  0
  148.7921  140.8286  157.5730 O   0  0  0  0  0  0  0  0  0  0  0  0
  150.1994  140.1764  155.9185 N   0  0  0  0  0  0  0  0  0  0  0  0
  149.3942  140.6530  154.7900 C   0  0  0  0  0  0  0  0  0  0  0  0
  148.7996  139.4238  154.0814 C   0  0  0  0  0  0  0  0  0  0  0  0
  149.8078  138.3873  153.8467 N   0  0  0  0  0  0  0  0  0  0  0  0
  151.0078  138.3186  154.4546 C   0  0  0  0  0  0  0  0  0  0  0  0
  151.8103  137.4242  154.1981 O   0  0  0  0  0  0  0  0  0  0  0  0
  151.3732  139.3950  155.4967 C   0  0  0  0  0  0  0  0  0  0  0  0
  154.5379  139.9044  159.5224 H   0  0  0  0  0  0  0  0  0  0  0  0
  153.1646  138.8929  159.0998 H   0  0  0  0  0  0  0  0  0  0  0  0
  153.2351  139.6669  160.6823 H   0  0  0  0  0  0  0  0  0  0  0  0
  152.9982  141.1000  157.9935 H   0  0  0  0  0  0  0  0  0  0  0  0
  153.1612  142.1628  160.8721 H   0  0  0  0  0  0  0  0  0  0  0  0
  154.2032  142.5602  159.5298 H   0  0  0  0  0  0  0  0  0  0  0  0
  152.3566  144.6054  161.2981 H   0  0  0  0  0  0  0  0  0  0  0  0
  150.8280  146.3330  159.8390 H   0  0  0  0  0  0  0  0  0  0  0  0
  150.6682  145.0868  157.3683 H   0  0  0  0  0  0  0  0  0  0  0  0
  151.1107  140.5567  160.1705 H   0  0  0  0  0  0  0  0  0  0  0  0
  151.6349  139.2637  157.8160 H   0  0  0  0  0  0  0  0  0  0  0  0
  150.2664  138.9935  158.8873 H   0  0  0  0  0  0  0  0  0  0  0  0
  148.6158  141.3678  155.0530 H   0  0  0  0  0  0  0  0  0  0  0  0
  150.0514  141.1883  154.1029 H   0  0  0  0  0  0  0  0  0  0  0  0
  148.0041  138.9923  154.6897 H   0  0  0  0  0  0  0  0  0  0  0  0
  148.3511  139.7129  153.1308 H   0  0  0  0  0  0  0  0  0  0  0  0
  149.5804  137.6720  153.1710 H   0  0  0  0  0  0  0  0  0  0  0  0
  152.1040  140.0728  155.0541 H   0  0  0  0  0  0  0  0  0  0  0  0
  151.8790  138.8999  156.3268 H   0  0  0  0  0  0  0  0  0  0  0  0
  1  2  1  0  0  0  0
  1 20  1  0  0  0  0
  1 21  1  0  0  0  0
  1 22  1  0  0  0  0
  2  3  1  0  0  0  0
  2  9  1  0  0  0  0
  2 23  1  0  0  0  0
  3  4  1  0  0  0  0
  3 24  1  0  0  0  0
  3 25  1  0  0  0  0
  4  8  1  0  0  0  0
  4  5  1  0  0  0  0
  5  6  2  0  0  0  0
  5 26  1  0  0  0  0
  6  7  1  0  0  0  0
  6 27  1  0  0  0  0
  7  8  2  0  0  0  0
  7 28  1  0  0  0  0
  9 10  1  0  0  0  0
  9 29  1  0  0  0  0
 10 11  1  0  0  0  0
 10 30  1  0  0  0  0
 10 31  1  0  0  0  0
 11 12  2  0  0  0  0
 11 13  1  0  0  0  0
 13 19  1  0  0  0  0
 13 14  1  0  0  0  0
 14 15  1  0  0  0  0
 14 32  1  0  0  0  0
 14 33  1  0  0  0  0
 15 16  1  0  0  0  0
 15 34  1  0  0  0  0
 15 35  1  0  0  0  0
 16 17  1  0  0  0  0
 16 36  1  0  0  0  0
 17 18  2  0  0  0  0
 17 19  1  0  0  0  0
 19 37  1  0  0  0  0
 19 38  1  0  0  0  0
M  END
> <s_m_source_file>
AV-unprocessed.smi

> <i_m_source_file_index>
775

> <i_lp_mmshare_version>
43012

> <i_f3d_flags>
0

> <s_epik_input>
bjFbY0hdW2NIXVtjSF1uMVtDSDJdW0NAQEhdKFtDSDNdKVtOSF1bQ0gyXUMoPU8pTjJbQ0gyXVtDSDJdW05IXUMoPU8pW0NIMl0y

> <s_epik_cmdline>
J2VwaWtfcHl0aG9uJywgJy1waCcsICc3LjAnLCAnLXRuJywgJzgnLCAnLW1hJywgJzIwMCcsICctbWV0YWxfYmluZGluZycsICctaW1hZScsICc8aW5maWxlLm1hZT4nLCAnLW9tYWUnLCAnPG91dGZpbGUubWFlPic=

> <r_lp_tautomer_probability>
1

> <r_epik_Ionization_Penalty>
0.836058

> <r_epik_Ionization_Penalty_Charging>
0

> <r_epik_Ionization_Penalty_Neutral>
0.836058

> <r_epik_State_Penalty>
0.870309

> <r_epik_Charging_Adjusted_Penalty>
0.870309

> <i_epik_Tot_Q>
0

> <i_epik_Tot_abs_Q>
0

> <r_epik_Metal_State_Penalty>
0.870266

> <b_epik_Metal_Only>
0

> <s_lp_Force_Field>
OPLS_2005

> <r_lp_Energy>
24.9182

> <b_lp_Chiralities_Consistent>
1

> <s_lp_Variant>
AV-unprocessed.smi:775-3

> <Gold.Version>
5.8.1

> <Gold.Id.Protein>
6NUR|6NUR_protein|mol2

> <Gold.PLP.Fitness>
48.9748

> <Gold.PLP.PLP>
-41.6897

> <Gold.PLP.part.hbond>
-2.8342

> <Gold.PLP.part.metal>
0.0000

> <Gold.PLP.part.buried>
-4.9326

> <Gold.PLP.part.nonpolar>
-35.2823

> <Gold.PLP.part.repulsive>
0.3382

> <Gold.PLP.ligand.clash>
0.0000

> <Gold.PLP.ligand.torsion>
0.8517

> <Gold.PLP.Chemscore.Hbond>
1.9760

> <Gold.PLP.Chemscore.CHOScore>
1.0000

> <Gold.PLP.Chemscore.Metal>
0.0000

> <Gold.Chemscore.Hbonds>
donor molecule, donor type, donor heavy atom, donor atom, acceptor molecule, acceptor atom, score
      L1  H    16    36       P1  7948  1.00
      P1  H 10752 10763       L1    18  0.86
      L1  C     7    28       P1  8028  0.97

> <Gold.PLP.Chemscore.Internal.Correction>
0.0607

> <Gold.Rescore>
     Score         DG    S(hbond)    S(metal)    S(lipo)     H(rot)  DE(clash)    DE(int)     intcor
     15.90     -16.83       1.96        0.00      87.59       2.12       0.14       0.79       ----

> <Gold.Chemscore.Fitness>
15.9010

> <Gold.Chemscore.DG>
-16.8306

> <Gold.Chemscore.ZeroCoef>
-5.4800

> <Gold.Chemscore.Hbond>
1.9581

> <Gold.Chemscore.Metal>
0.0000

> <Gold.Chemscore.Lipo>
87.5880

> <Gold.Chemscore.Internal_Hbond>
0.0000

> <Gold.Chemscore.DEClash>
0.1363

> <Gold.Chemscore.DEInternal>
0.7933

> <Gold.Chemscore.Rot>
2.1239

> <Gold.Chemscore.Internal.Correction>
   9.000000E+99

> <Gold.Chemscore.Hbonds>
donor molecule, donor type, donor heavy atom, donor atom, acceptor molecule, acceptor atom, score
      L1  H    16    36       P1  7948  0.78
      P1  H 10752 10763       L1    18  0.79

> <Gold.Chemscore.Hbond.Weighted>
-6.5399

> <Gold.Chemscore.Metal.Weighted>
-0.0000

> <Gold.Chemscore.Lipo.Weighted>
-10.2478

> <Gold.Chemscore.Internal_Hbond.Weighted>
0.0000

> <Gold.Chemscore.DEClash.Weighted>
0.1363

> <Gold.Chemscore.DEInternal.Weighted>
0.7933

> <Gold.Chemscore.Rot.Weighted>
5.4371

> <Gold.Chemscore.Internal.Correction.Weighted>
   9.000000E+99

> <Gold.Protein.RotatedTorsions>
[ 6907 6896 6895 6894 ] final  -19.46 input  -60.11 | X-H torsion
[ 7974 7965 7964 7962 ] final   68.46 input  175.53 | X-H torsion
[ 8008 7997 7996 7995 ] final   72.66 input   59.86 | X-H torsion
[ 10167 10162 10161 10158 ] final   48.28 input  -65.29 | X-H torsion
[ 10718 10713 10712 10709 ] final   75.66 input   66.30 | X-H torsion
[ 10763 10752 10751 10750 ] final   36.99 input  -60.55 | X-H torsion
[ 11005 11000 10999 10996 ] final  -63.19 input  -57.11 | X-H torsion

> <Gold.Protein.ActiveResidues>
 VAL166  LYS551  ARG553  GLY616  TRP617  ASP618  TYR619  PRO620  LYS621  CYS622 
 ASP623  PHE694  ASN695  SER759  ASP760  ASP761  ALA762  ILE779  LEU786  VAL792 
 PHE793  MET794  SER795  GLU796  ALA797  LYS798  CYS799  TRP800  GLU811  SER814 

> <Gold.Protein.RotatedAtoms>
  151.2628  135.0659  159.9104 H   0  0  0  0  0  0  0  0  0  0  0  0  # atno 6907 bound_to 6896
  152.5363  134.0213  159.7993 H   0  0  0  0  0  0  0  0  0  0  0  0  # atno 6908 bound_to 6896
  151.0438  133.5633  159.2679 H   0  0  0  0  0  0  0  0  0  0  0  0  # atno 6909 bound_to 6896
  145.8023  139.2988  143.1148 H   0  0  0  0  0  0  0  0  0  0  0  0  # atno 7974 bound_to 7965
  155.7722  140.3484  155.5253 H   0  0  0  0  0  0  0  0  0  0  0  0  # atno 8008 bound_to 7997
  155.8811  140.1002  157.1506 H   0  0  0  0  0  0  0  0  0  0  0  0  # atno 8009 bound_to 7997
  154.4025  140.1322  156.4184 H   0  0  0  0  0  0  0  0  0  0  0  0  # atno 8010 bound_to 7997
  140.2949  144.3002  150.6232 H   0  0  0  0  0  0  0  0  0  0  0  0  # atno 10167 bound_to 10162
  157.6643  130.9737  150.1385 H   0  0  0  0  0  0  0  0  0  0  0  0  # atno 10718 bound_to 10713
  153.0055  135.6290  154.2073 H   0  0  0  0  0  0  0  0  0  0  0  0  # atno 10763 bound_to 10752
  154.1816  135.2813  155.3052 H   0  0  0  0  0  0  0  0  0  0  0  0  # atno 10764 bound_to 10752
  154.5830  135.5641  153.7263 H   0  0  0  0  0  0  0  0  0  0  0  0  # atno 10765 bound_to 10752
  141.1385  133.6649  156.5643 H   0  0  0  0  0  0  0  0  0  0  0  0  # atno 11005 bound_to 11000
  145.9865  140.8639  143.0088 LP  0  0  0  0  0  0  0  0  0  0  0  0  # atno 17320 bound_to 7965
  144.6767  140.2155  143.7372 LP  0  0  0  0  0  0  0  0  0  0  0  0  # atno 17321 bound_to 7965
  140.5700  143.2182  151.7615 LP  0  0  0  0  0  0  0  0  0  0  0  0  # atno 17342 bound_to 10162
  139.4929  144.4229  151.9957 LP  0  0  0  0  0  0  0  0  0  0  0  0  # atno 17343 bound_to 10162
  156.2214  130.3674  149.8552 LP  0  0  0  0  0  0  0  0  0  0  0  0  # atno 17370 bound_to 10713
  156.6404  130.8702  151.3512 LP  0  0  0  0  0  0  0  0  0  0  0  0  # atno 17371 bound_to 10713
  140.3964  134.7395  157.4753 LP  0  0  0  0  0  0  0  0  0  0  0  0  # atno 17394 bound_to 11000
  140.0528  134.6106  155.8840 LP  0  0  0  0  0  0  0  0  0  0  0  0  # atno 17395 bound_to 11000

$$$$
