AV-unprocessed.smi:2038|AV-procd|sdf|8280|dock2
  -GOLD-   2272010543D 1   1.00000     0.00000
 Structure written by MMmdl.
 33 34  0  0  0  0  0  0  0  0  1 V2000
  153.6634  139.6006  159.1000 O   0  0  0  0  0  0  0  0  0  0  0  0
  152.5833  140.1552  158.8949 C   0  0  0  0  0  0  0  0  0  0  0  0
  152.0487  141.1010  159.6890 N   0  0  0  0  0  0  0  0  0  0  0  0
  152.5897  141.6659  160.8753 C   0  0  0  0  0  0  0  0  0  0  0  0
  152.1443  142.9448  161.2651 C   0  0  0  0  0  0  0  0  0  0  0  0
  152.6802  143.5345  162.4255 C   0  0  0  0  0  0  0  0  0  0  0  0
  153.6568  142.8295  163.1563 C   0  0  0  0  0  0  0  0  0  0  0  0
  154.1781  143.4117  164.2930 O   0  0  0  0  0  0  0  0  0  0  0  0
  154.6235  142.5634  165.3483 C   0  0  0  0  0  0  0  0  0  0  0  0
  155.2529  143.4191  166.4538 C   0  0  0  0  0  0  0  0  0  0  0  0
  154.6923  144.6280  166.4482 F   0  0  0  0  0  0  0  0  0  0  0  0
  155.0468  142.8577  167.6448 F   0  0  0  0  0  0  0  0  0  0  0  0
  156.5620  143.5543  166.2430 F   0  0  0  0  0  0  0  0  0  0  0  0
  154.1046  141.6060  162.7808 N   0  0  0  0  0  0  0  0  0  0  0  0
  153.5850  141.0445  161.6682 C   0  0  0  0  0  0  0  0  0  0  0  0
  151.7495  139.7665  157.6683 C   0  0  2  0  0  0  0  0  0  0  0  0
  152.1261  140.5377  156.3893 C   0  0  0  0  0  0  0  0  0  0  0  0
  150.9461  141.4628  156.1671 C   0  0  0  0  0  0  0  0  0  0  0  0
  149.8040  140.6590  156.7712 C   0  0  0  0  0  0  0  0  0  0  0  0
  150.3875  140.0967  157.9361 O   0  0  0  0  0  0  0  0  0  0  0  0
  151.1177  141.4072  159.4459 H   0  0  0  0  0  0  0  0  0  0  0  0
  151.3969  143.4686  160.6870 H   0  0  0  0  0  0  0  0  0  0  0  0
  152.3491  144.5104  162.7485 H   0  0  0  0  0  0  0  0  0  0  0  0
  153.7855  141.9960  165.7570 H   0  0  0  0  0  0  0  0  0  0  0  0
  155.3592  141.8495  164.9735 H   0  0  0  0  0  0  0  0  0  0  0  0
  154.0039  140.0846  161.4095 H   0  0  0  0  0  0  0  0  0  0  0  0
  151.8248  138.6932  157.4842 H   0  0  0  0  0  0  0  0  0  0  0  0
  153.0675  141.0851  156.4581 H   0  0  0  0  0  0  0  0  0  0  0  0
  152.2159  139.8412  155.5547 H   0  0  0  0  0  0  0  0  0  0  0  0
  151.0857  142.3902  156.7244 H   0  0  0  0  0  0  0  0  0  0  0  0
  150.7871  141.7118  155.1177 H   0  0  0  0  0  0  0  0  0  0  0  0
  148.9356  141.2726  157.0119 H   0  0  0  0  0  0  0  0  0  0  0  0
  149.4896  139.8605  156.0973 H   0  0  0  0  0  0  0  0  0  0  0  0
  1  2  2  0  0  0  0
  2  3  1  0  0  0  0
  2 16  1  0  0  0  0
  3  4  1  0  0  0  0
  3 21  1  0  0  0  0
  4 15  1  0  0  0  0
  4  5  2  0  0  0  0
  5  6  1  0  0  0  0
  5 22  1  0  0  0  0
  6  7  2  0  0  0  0
  6 23  1  0  0  0  0
  7  8  1  0  0  0  0
  7 14  1  0  0  0  0
  8  9  1  0  0  0  0
  9 10  1  0  0  0  0
  9 24  1  0  0  0  0
  9 25  1  0  0  0  0
 10 11  1  0  0  0  0
 10 12  1  0  0  0  0
 10 13  1  0  0  0  0
 14 15  2  0  0  0  0
 15 26  1  0  0  0  0
 16 20  1  0  0  0  0
 16 17  1  0  0  0  0
 16 27  1  0  0  0  0
 17 18  1  0  0  0  0
 17 28  1  0  0  0  0
 17 29  1  0  0  0  0
 18 19  1  0  0  0  0
 18 30  1  0  0  0  0
 18 31  1  0  0  0  0
 19 20  1  0  0  0  0
 19 32  1  0  0  0  0
 19 33  1  0  0  0  0
M  END
> <s_m_source_file>
AV-unprocessed.smi

> <i_m_source_file_index>
2038

> <i_lp_mmshare_version>
43012

> <i_f3d_flags>
0

> <s_epik_input>
TzFbQ0gyXVtDSDJdW0NIMl1bQ0BIXTFDKD1PKVtOSF1jMltjSF1bY0hdYyhuW2NIXTIpT1tDSDJdQyhGKShGKUY=

> <s_epik_cmdline>
J2VwaWtfcHl0aG9uJywgJy1waCcsICc3LjAnLCAnLXRuJywgJzgnLCAnLW1hJywgJzIwMCcsICctbWV0YWxfYmluZGluZycsICctaW1hZScsICc8aW5maWxlLm1hZT4nLCAnLW9tYWUnLCAnPG91dGZpbGUubWFlPic=

> <r_lp_tautomer_probability>
1

> <r_epik_Ionization_Penalty>
2.73305e-06

> <r_epik_Ionization_Penalty_Charging>
0

> <r_epik_Ionization_Penalty_Neutral>
2.73305e-06

> <r_epik_State_Penalty>
-0

> <r_epik_Charging_Adjusted_Penalty>
0

> <i_epik_Tot_Q>
0

> <i_epik_Tot_abs_Q>
0

> <r_epik_Metal_State_Penalty>
-0

> <b_epik_Metal_Only>
0

> <s_lp_Force_Field>
OPLS_2005

> <r_lp_Energy>
22.8429

> <b_lp_Chiralities_Consistent>
1

> <s_lp_Variant>
AV-unprocessed.smi:2038-1

> <Gold.Version>
5.8.1

> <Gold.Id.Protein>
6NUR|6NUR_protein|mol2

> <Gold.PLP.Fitness>
38.0283

> <Gold.PLP.PLP>
-38.6101

> <Gold.PLP.part.hbond>
-3.0000

> <Gold.PLP.part.metal>
0.0000

> <Gold.PLP.part.buried>
-2.8869

> <Gold.PLP.part.nonpolar>
-30.9576

> <Gold.PLP.part.repulsive>
0.1792

> <Gold.PLP.ligand.clash>
0.0000

> <Gold.PLP.ligand.torsion>
1.7893

> <Gold.PLP.Chemscore.Hbond>
0.9920

> <Gold.PLP.Chemscore.CHOScore>
0.0000

> <Gold.PLP.Chemscore.Metal>
0.0000

> <Gold.Chemscore.Hbonds>
donor molecule, donor type, donor heavy atom, donor atom, acceptor molecule, acceptor atom, score
      P1  H  7997  8009       L1     1  0.09

> <Gold.PLP.Chemscore.Internal.Correction>
0.0208

> <Gold.Rescore>
     Score         DG    S(hbond)    S(metal)    S(lipo)     H(rot)  DE(clash)    DE(int)     intcor
     10.87     -13.63       0.87        0.00      81.83       1.69       0.18       2.59       ----

> <Gold.Chemscore.Fitness>
10.8659

> <Gold.Chemscore.DG>
-13.6324

> <Gold.Chemscore.ZeroCoef>
-5.4800

> <Gold.Chemscore.Hbond>
0.8710

> <Gold.Chemscore.Metal>
0.0000

> <Gold.Chemscore.Lipo>
81.8344

> <Gold.Chemscore.Internal_Hbond>
0.0000

> <Gold.Chemscore.DEClash>
0.1799

> <Gold.Chemscore.DEInternal>
2.5866

> <Gold.Chemscore.Rot>
1.6919

> <Gold.Chemscore.Internal.Correction>
   9.000000E+99

> <Gold.Chemscore.Hbonds>
donor molecule, donor type, donor heavy atom, donor atom, acceptor molecule, acceptor atom, score
      P1  H  7997  8009       L1     1  0.01

> <Gold.Chemscore.Hbond.Weighted>
-2.9091

> <Gold.Chemscore.Metal.Weighted>
-0.0000

> <Gold.Chemscore.Lipo.Weighted>
-9.5746

> <Gold.Chemscore.Internal_Hbond.Weighted>
0.0000

> <Gold.Chemscore.DEClash.Weighted>
0.1799

> <Gold.Chemscore.DEInternal.Weighted>
2.5866

> <Gold.Chemscore.Rot.Weighted>
4.3313

> <Gold.Chemscore.Internal.Correction.Weighted>
   9.000000E+99

> <Gold.Protein.RotatedTorsions>
[ 6907 6896 6895 6894 ] final    7.34 input  -60.11 | X-H torsion
[ 7974 7965 7964 7962 ] final  134.34 input  175.53 | X-H torsion
[ 8008 7997 7996 7995 ] final  163.00 input   59.86 | X-H torsion
[ 10167 10162 10161 10158 ] final  -22.44 input  -65.29 | X-H torsion
[ 10718 10713 10712 10709 ] final  -31.49 input   66.30 | X-H torsion
[ 10763 10752 10751 10750 ] final  152.55 input  -60.55 | X-H torsion
[ 11005 11000 10999 10996 ] final  -24.95 input  -57.11 | X-H torsion

> <Gold.Protein.ActiveResidues>
 VAL166  LYS551  ARG553  GLY616  TRP617  ASP618  TYR619  PRO620  LYS621  CYS622 
 ASP623  PHE694  ASN695  SER759  ASP760  ASP761  ALA762  ILE779  LEU786  VAL792 
 PHE793  MET794  SER795  GLU796  ALA797  LYS798  CYS799  TRP800  GLU811  SER814 

> <Gold.Protein.RotatedAtoms>
  151.6883  135.0950  160.0228 H   0  0  0  0  0  0  0  0  0  0  0  0  # atno 6907 bound_to 6896
  152.3794  133.6521  159.6157 H   0  0  0  0  0  0  0  0  0  0  0  0  # atno 6908 bound_to 6896
  150.7735  133.9056  159.3395 H   0  0  0  0  0  0  0  0  0  0  0  0  # atno 6909 bound_to 6896
  144.9774  139.4541  143.5403 H   0  0  0  0  0  0  0  0  0  0  0  0  # atno 7974 bound_to 7965
  156.1990  140.1735  156.7939 H   0  0  0  0  0  0  0  0  0  0  0  0  # atno 8008 bound_to 7997
  154.5567  140.0707  156.8785 H   0  0  0  0  0  0  0  0  0  0  0  0  # atno 8009 bound_to 7997
  155.2926  140.3356  155.4254 H   0  0  0  0  0  0  0  0  0  0  0  0  # atno 8010 bound_to 7997
  140.7286  143.4535  151.0482 H   0  0  0  0  0  0  0  0  0  0  0  0  # atno 10167 bound_to 10162
  156.3866  130.4365  149.7427 H   0  0  0  0  0  0  0  0  0  0  0  0  # atno 10718 bound_to 10713
  154.1218  135.2832  155.3206 H   0  0  0  0  0  0  0  0  0  0  0  0  # atno 10763 bound_to 10752
  154.6417  135.5400  153.7801 H   0  0  0  0  0  0  0  0  0  0  0  0  # atno 10764 bound_to 10752
  153.0310  135.6488  154.1372 H   0  0  0  0  0  0  0  0  0  0  0  0  # atno 10765 bound_to 10752
  140.8893  133.7600  156.0400 H   0  0  0  0  0  0  0  0  0  0  0  0  # atno 11005 bound_to 11000
  146.3399  139.9025  142.8792 LP  0  0  0  0  0  0  0  0  0  0  0  0  # atno 17320 bound_to 7965
  145.2471  141.0030  143.3902 LP  0  0  0  0  0  0  0  0  0  0  0  0  # atno 17321 bound_to 7965
  139.8213  143.7816  152.3177 LP  0  0  0  0  0  0  0  0  0  0  0  0  # atno 17342 bound_to 10162
  139.7900  144.7414  150.9969 LP  0  0  0  0  0  0  0  0  0  0  0  0  # atno 17343 bound_to 10162
  156.4497  130.7900  151.2922 LP  0  0  0  0  0  0  0  0  0  0  0  0  # atno 17370 bound_to 10713
  157.7496  131.0099  150.3286 LP  0  0  0  0  0  0  0  0  0  0  0  0  # atno 17371 bound_to 10713
  140.8367  134.3115  157.5329 LP  0  0  0  0  0  0  0  0  0  0  0  0  # atno 17394 bound_to 11000
  139.8728  134.9393  156.3739 LP  0  0  0  0  0  0  0  0  0  0  0  0  # atno 17395 bound_to 11000

$$$$
