AV-unprocessed.smi:1157|AV-procd|sdf|4910|dock7
  -GOLD-   22720 3483D 1   1.00000     0.00000
 Structure written by MMmdl.
 55 57  0  0  0  0  0  0  0  0  4 V2000
  146.3901  137.1690  154.6191 C   0  0  0  0  0  0  0  0  0  0  0  0
  145.7979  136.9616  153.1938 C   0  0  0  0  0  0  0  0  0  0  0  0
  144.2515  136.9994  153.3753 C   0  0  0  0  0  0  0  0  0  0  0  0
  146.2718  138.1129  152.2218 C   0  0  0  0  0  0  0  0  0  0  0  0
  147.6055  138.6151  152.5703 N   0  5  0  0  0  0  0  0  0  0  0  0
  147.8597  139.5987  153.4741 C   0  0  0  0  0  0  0  0  0  0  0  0
  147.0868  140.4798  153.8666 O   0  0  0  0  0  0  0  0  0  0  0  0
  149.1225  139.5453  153.9348 N   0  0  0  0  0  0  0  0  0  0  0  0
  149.7810  140.4139  154.8462 C   0  0  0  0  0  0  0  0  0  0  0  0
  150.7258  139.8485  155.7275 C   0  0  0  0  0  0  0  0  0  0  0  0
  151.3981  140.6701  156.6550 C   0  0  0  0  0  0  0  0  0  0  0  0
  151.1079  142.0539  156.7036 C   0  0  0  0  0  0  0  0  0  0  0  0
  151.7483  142.9366  157.5935 N   0  0  0  0  0  0  0  0  0  0  0  0
  151.3726  144.3379  157.6876 C   0  0  0  0  0  0  0  0  0  0  0  0
  152.2138  144.8831  158.8409 C   0  0  0  0  0  0  0  0  0  0  0  0
  152.3425  143.6797  159.7756 C   0  0  0  0  0  0  0  0  0  0  0  0
  152.3563  142.4711  158.8316 C   0  0  0  0  0  0  0  0  0  0  0  0
  150.1809  142.5510  155.8504 N   0  3  0  0  0  0  0  0  0  0  0  0
  149.5152  141.8000  154.9464 C   0  0  0  0  0  0  0  0  0  0  0  0
  146.1899  135.5754  152.7099 N   0  3  0  0  0  0  0  0  0  0  0  0
  146.1202  134.4528  153.6954 C   0  0  0  0  0  0  0  0  0  0  0  0
  146.8208  133.2030  153.1384 C   0  0  0  0  0  0  0  0  0  0  0  0
  146.2263  132.8280  151.9039 O   0  0  0  0  0  0  0  0  0  0  0  0
  146.3654  133.8461  150.9231 C   0  0  0  0  0  0  0  0  0  0  0  0
  145.6476  135.1224  151.3917 C   0  0  0  0  0  0  0  0  0  0  0  0
  145.9706  138.0446  155.1185 H   0  0  0  0  0  0  0  0  0  0  0  0
  147.4732  137.3026  154.6301 H   0  0  0  0  0  0  0  0  0  0  0  0
  146.1646  136.3161  155.2604 H   0  0  0  0  0  0  0  0  0  0  0  0
  143.9210  137.8795  153.9305 H   0  0  0  0  0  0  0  0  0  0  0  0
  143.9065  136.1344  153.9431 H   0  0  0  0  0  0  0  0  0  0  0  0
  143.6985  137.0092  152.4344 H   0  0  0  0  0  0  0  0  0  0  0  0
  146.2698  137.7310  151.2011 H   0  0  0  0  0  0  0  0  0  0  0  0
  145.5194  138.9021  152.2245 H   0  0  0  0  0  0  0  0  0  0  0  0
  149.7060  138.8433  153.5036 H   0  0  0  0  0  0  0  0  0  0  0  0
  150.9450  138.7913  155.6873 H   0  0  0  0  0  0  0  0  0  0  0  0
  152.1330  140.2288  157.3115 H   0  0  0  0  0  0  0  0  0  0  0  0
  151.5682  144.8730  156.7577 H   0  0  0  0  0  0  0  0  0  0  0  0
  150.3087  144.4151  157.9163 H   0  0  0  0  0  0  0  0  0  0  0  0
  153.2005  145.1714  158.4752 H   0  0  0  0  0  0  0  0  0  0  0  0
  151.7641  145.7529  159.3205 H   0  0  0  0  0  0  0  0  0  0  0  0
  153.2255  143.7290  160.4133 H   0  0  0  0  0  0  0  0  0  0  0  0
  151.4656  143.6279  160.4226 H   0  0  0  0  0  0  0  0  0  0  0  0
  151.8161  141.6293  159.2668 H   0  0  0  0  0  0  0  0  0  0  0  0
  153.3789  142.1540  158.6244 H   0  0  0  0  0  0  0  0  0  0  0  0
  148.7940  142.3379  154.3494 H   0  0  0  0  0  0  0  0  0  0  0  0
  146.6012  134.7097  154.6368 H   0  0  0  0  0  0  0  0  0  0  0  0
  145.0820  134.2081  153.9232 H   0  0  0  0  0  0  0  0  0  0  0  0
  147.8890  133.3821  153.0044 H   0  0  0  0  0  0  0  0  0  0  0  0
  146.7234  132.3748  153.8406 H   0  0  0  0  0  0  0  0  0  0  0  0
  147.4211  134.0409  150.7280 H   0  0  0  0  0  0  0  0  0  0  0  0
  145.9300  133.4937  149.9880 H   0  0  0  0  0  0  0  0  0  0  0  0
  144.5782  134.9223  151.4669 H   0  0  0  0  0  0  0  0  0  0  0  0
  145.7768  135.8781  150.6197 H   0  0  0  0  0  0  0  0  0  0  0  0
  147.1794  135.6779  152.5366 H   0  0  0  0  0  0  0  0  0  0  0  0
  149.9710  143.5481  155.8916 H   0  0  0  0  0  0  0  0  0  0  0  0
  1  2  1  0  0  0  0
  1 26  1  0  0  0  0
  1 27  1  0  0  0  0
  1 28  1  0  0  0  0
  2  3  1  0  0  0  0
  2  4  1  0  0  0  0
  2 20  1  0  0  0  0
  3 29  1  0  0  0  0
  3 30  1  0  0  0  0
  3 31  1  0  0  0  0
  4  5  1  0  0  0  0
  4 32  1  0  0  0  0
  4 33  1  0  0  0  0
  5  6  1  0  0  0  0
  6  7  2  0  0  0  0
  6  8  1  0  0  0  0
  8  9  1  0  0  0  0
  8 34  1  0  0  0  0
  9 19  1  0  0  0  0
  9 10  2  0  0  0  0
 10 11  1  0  0  0  0
 10 35  1  0  0  0  0
 11 12  2  0  0  0  0
 11 36  1  0  0  0  0
 12 13  1  0  0  0  0
 12 18  1  0  0  0  0
 13 17  1  0  0  0  0
 13 14  1  0  0  0  0
 14 15  1  0  0  0  0
 14 37  1  0  0  0  0
 14 38  1  0  0  0  0
 15 16  1  0  0  0  0
 15 39  1  0  0  0  0
 15 40  1  0  0  0  0
 16 17  1  0  0  0  0
 16 41  1  0  0  0  0
 16 42  1  0  0  0  0
 17 43  1  0  0  0  0
 17 44  1  0  0  0  0
 18 19  2  0  0  0  0
 18 55  1  0  0  0  0
 19 45  1  0  0  0  0
 20 25  1  0  0  0  0
 20 21  1  0  0  0  0
 20 54  1  0  0  0  0
 21 22  1  0  0  0  0
 21 46  1  0  0  0  0
 21 47  1  0  0  0  0
 22 23  1  0  0  0  0
 22 48  1  0  0  0  0
 22 49  1  0  0  0  0
 23 24  1  0  0  0  0
 24 25  1  0  0  0  0
 24 50  1  0  0  0  0
 24 51  1  0  0  0  0
 25 52  1  0  0  0  0
 25 53  1  0  0  0  0
M  CHG  1   5  -1
M  CHG  1  18   1
M  CHG  1  20   1
M  END
> <s_m_source_file>
AV-unprocessed.smi

> <i_m_source_file_index>
1157

> <i_lp_mmshare_version>
43012

> <i_f3d_flags>
0

> <s_epik_input>
W0NIMl0xW0NIMl1PW0NIMl1bQ0gyXU4xQyhbQ0gzXSkoW0NIM10pW0NIMl1bTkhdQyg9TylbTkhdYzJbY0hdW2NIXWMobltjSF0yKU4zW0NIMl1bQ0gyXVtDSDJdW0NIMl0z

> <s_epik_cmdline>
J2VwaWtfcHl0aG9uJywgJy1waCcsICc3LjAnLCAnLXRuJywgJzgnLCAnLW1hJywgJzIwMCcsICctbWV0YWxfYmluZGluZycsICctaW1hZScsICc8aW5maWxlLm1hZT4nLCAnLW9tYWUnLCAnPG91dGZpbGUubWFlPic=

> <r_lp_tautomer_probability>
0.999994

> <r_epik_Ionization_Penalty>
8.57565

> <r_epik_Ionization_Penalty_Charging>
8.57565

> <r_epik_Ionization_Penalty_Neutral>
3.57932e-06

> <r_epik_State_Penalty>
8.56988

> <r_epik_Charging_Adjusted_Penalty>
17.1455

> <i_epik_Tot_Q>
1

> <i_epik_Tot_abs_Q>
3

> <r_epik_Metal_State_Penalty>
4.56714

> <b_epik_Metal_Only>
1

> <s_lp_Force_Field>
OPLS_2005

> <r_lp_Energy>
57.9076

> <b_lp_Chiralities_Consistent>
1

> <s_lp_Variant>
AV-unprocessed.smi:1157-5

> <Gold.Version>
5.8.1

> <Gold.Id.Protein>
6NUR|6NUR_protein|mol2

> <Gold.PLP.Fitness>
52.5781

> <Gold.PLP.PLP>
-42.9819

> <Gold.PLP.part.hbond>
-2.7969

> <Gold.PLP.part.metal>
0.0000

> <Gold.PLP.part.buried>
-3.7652

> <Gold.PLP.part.nonpolar>
-38.6324

> <Gold.PLP.part.repulsive>
3.6689

> <Gold.PLP.ligand.clash>
0.0000

> <Gold.PLP.ligand.torsion>
1.4020

> <Gold.PLP.Chemscore.Hbond>
4.0000

> <Gold.PLP.Chemscore.CHOScore>
0.0000

> <Gold.PLP.Chemscore.Metal>
0.0000

> <Gold.Chemscore.Hbonds>
donor molecule, donor type, donor heavy atom, donor atom, acceptor molecule, acceptor atom, score
      L1  H    18    55       P1  8028  1.92
      L1  H    20    54       P1  7948  2.00

> <Gold.PLP.Chemscore.Internal.Correction>
0.4001

> <Gold.Rescore>
     Score         DG    S(hbond)    S(metal)    S(lipo)     H(rot)  DE(clash)    DE(int)     intcor
     16.97     -20.67       1.84        0.00     108.49       1.42       1.28       2.42       ----

> <Gold.Chemscore.Fitness>
16.9749

> <Gold.Chemscore.DG>
-20.6707

> <Gold.Chemscore.ZeroCoef>
-5.4800

> <Gold.Chemscore.Hbond>
1.8395

> <Gold.Chemscore.Metal>
0.0000

> <Gold.Chemscore.Lipo>
108.4858

> <Gold.Chemscore.Internal_Hbond>
0.0000

> <Gold.Chemscore.DEClash>
1.2783

> <Gold.Chemscore.DEInternal>
2.4174

> <Gold.Chemscore.Rot>
1.4243

> <Gold.Chemscore.Internal.Correction>
   9.000000E+99

> <Gold.Chemscore.Hbonds>
donor molecule, donor type, donor heavy atom, donor atom, acceptor molecule, acceptor atom, score
      L1  H    18    55       P1  8028  0.91
      L1  H    20    54       P1  7948  0.99

> <Gold.Chemscore.Hbond.Weighted>
-6.1440

> <Gold.Chemscore.Metal.Weighted>
-0.0000

> <Gold.Chemscore.Lipo.Weighted>
-12.6928

> <Gold.Chemscore.Internal_Hbond.Weighted>
0.0000

> <Gold.Chemscore.DEClash.Weighted>
1.2783

> <Gold.Chemscore.DEInternal.Weighted>
2.4174

> <Gold.Chemscore.Rot.Weighted>
3.6462

> <Gold.Chemscore.Internal.Correction.Weighted>
   9.000000E+99

> <Gold.Protein.RotatedTorsions>
[ 6907 6896 6895 6894 ] final -141.43 input  -60.11 | X-H torsion
[ 7974 7965 7964 7962 ] final  -82.12 input  175.53 | X-H torsion
[ 8008 7997 7996 7995 ] final -172.95 input   59.86 | X-H torsion
[ 10167 10162 10161 10158 ] final   53.12 input  -65.29 | X-H torsion
[ 10718 10713 10712 10709 ] final   -5.32 input   66.30 | X-H torsion
[ 10763 10752 10751 10750 ] final  135.56 input  -60.55 | X-H torsion
[ 11005 11000 10999 10996 ] final  139.03 input  -57.11 | X-H torsion

> <Gold.Protein.ActiveResidues>
 VAL166  LYS551  ARG553  GLY616  TRP617  ASP618  TYR619  PRO620  LYS621  CYS622 
 ASP623  PHE694  ASN695  SER759  ASP760  ASP761  ALA762  ILE779  LEU786  VAL792 
 PHE793  MET794  SER795  GLU796  ALA797  LYS798  CYS799  TRP800  GLU811  SER814 

> <Gold.Protein.RotatedAtoms>
  151.0736  133.5446  159.2625 H   0  0  0  0  0  0  0  0  0  0  0  0  # atno 6907 bound_to 6896
  151.2376  135.0576  159.9022 H   0  0  0  0  0  0  0  0  0  0  0  0  # atno 6908 bound_to 6896
  152.5415  134.0516  159.8166 H   0  0  0  0  0  0  0  0  0  0  0  0  # atno 6909 bound_to 6896
  145.5375  140.9514  143.1569 H   0  0  0  0  0  0  0  0  0  0  0  0  # atno 7974 bound_to 7965
  155.9511  140.1126  157.0976 H   0  0  0  0  0  0  0  0  0  0  0  0  # atno 8008 bound_to 7997
  154.4110  140.1200  156.5120 H   0  0  0  0  0  0  0  0  0  0  0  0  # atno 8009 bound_to 7997
  155.6841  140.3473  155.4869 H   0  0  0  0  0  0  0  0  0  0  0  0  # atno 8010 bound_to 7997
  140.2442  144.3551  150.6370 H   0  0  0  0  0  0  0  0  0  0  0  0  # atno 10167 bound_to 10162
  156.7482  130.5231  149.5809 H   0  0  0  0  0  0  0  0  0  0  0  0  # atno 10718 bound_to 10713
  153.8420  135.3090  155.3427 H   0  0  0  0  0  0  0  0  0  0  0  0  # atno 10763 bound_to 10752
  154.7928  135.4772  154.0096 H   0  0  0  0  0  0  0  0  0  0  0  0  # atno 10764 bound_to 10752
  153.1570  135.6854  153.8890 H   0  0  0  0  0  0  0  0  0  0  0  0  # atno 10765 bound_to 10752
  140.0226  134.9390  157.0504 H   0  0  0  0  0  0  0  0  0  0  0  0  # atno 11005 bound_to 11000
  144.7594  139.6994  143.7240 LP  0  0  0  0  0  0  0  0  0  0  0  0  # atno 17320 bound_to 7965
  146.2003  139.5294  142.9747 LP  0  0  0  0  0  0  0  0  0  0  0  0  # atno 17321 bound_to 7965
  140.6090  143.2169  151.6923 LP  0  0  0  0  0  0  0  0  0  0  0  0  # atno 17342 bound_to 10162
  139.5067  144.3671  152.0506 LP  0  0  0  0  0  0  0  0  0  0  0  0  # atno 17343 bound_to 10162
  156.1419  130.6250  151.0478 LP  0  0  0  0  0  0  0  0  0  0  0  0  # atno 17370 bound_to 10713
  157.6788  131.0843  150.7423 LP  0  0  0  0  0  0  0  0  0  0  0  0  # atno 17371 bound_to 10713
  140.4362  134.1729  155.7171 LP  0  0  0  0  0  0  0  0  0  0  0  0  # atno 17394 bound_to 11000
  141.1783  133.8468  157.1347 LP  0  0  0  0  0  0  0  0  0  0  0  0  # atno 17395 bound_to 11000

$$$$
