AV-unprocessed.smi:360|AV-procd|sdf|2419|dock1
  -GOLD-   2262022353D 1   1.00000     0.00000
 Structure written by MMmdl.
 37 38  0  0  0  0  0  0  0  0  1 V2000
  143.7777  135.3488  152.9896 C   0  0  0  0  0  0  0  0  0  0  0  0
  144.4299  136.4942  153.2382 C   0  0  0  0  0  0  0  0  0  0  0  0
  145.7793  136.5768  153.9161 C   0  0  0  0  0  0  0  0  0  0  0  0
  146.3929  137.8835  153.7524 N   0  0  0  0  0  0  0  0  0  0  0  0
  147.6545  138.2914  154.1657 C   0  0  0  0  0  0  0  0  0  0  0  0
  148.5750  137.4045  154.8594 C   0  0  0  0  0  0  0  0  0  0  0  0
  149.7475  137.7762  155.2419 N   0  0  0  0  0  0  0  0  0  0  0  0
  150.1683  139.0672  154.9929 N   0  0  0  0  0  0  0  0  0  0  0  0
  151.5192  139.3582  155.4876 C   0  0  0  0  0  0  0  0  0  0  0  0
  151.5035  140.4092  156.6093 C   0  0  0  0  0  0  0  0  0  0  0  0
  152.6324  140.2215  157.4522 O   0  0  0  0  0  0  0  0  0  0  0  0
  152.7111  140.9567  158.6148 C   0  0  0  0  0  0  0  0  0  0  0  0
  152.0389  142.1963  158.6329 C   0  0  0  0  0  0  0  0  0  0  0  0
  152.0668  143.0152  159.7780 C   0  0  0  0  0  0  0  0  0  0  0  0
  152.7708  142.5987  160.9231 C   0  0  0  0  0  0  0  0  0  0  0  0
  152.8068  143.5996  162.3281 Cl  0  0  0  0  0  0  0  0  0  0  0  0
  153.4460  141.3637  160.9192 C   0  0  0  0  0  0  0  0  0  0  0  0
  153.4186  140.5453  159.7729 C   0  0  0  0  0  0  0  0  0  0  0  0
  149.4207  140.0204  154.3610 C   0  0  0  0  0  0  0  0  0  0  0  0
  149.8335  141.1646  154.1680 O   0  0  0  0  0  0  0  0  0  0  0  0
  148.0904  139.5592  153.9377 C   0  0  0  0  0  0  0  0  0  0  0  0
  147.0731  140.6997  153.1221 Cl  0  0  0  0  0  0  0  0  0  0  0  0
  144.1975  134.3924  153.2659 H   0  0  0  0  0  0  0  0  0  0  0  0
  142.8126  135.3542  152.5046 H   0  0  0  0  0  0  0  0  0  0  0  0
  143.9781  137.4324  152.9503 H   0  0  0  0  0  0  0  0  0  0  0  0
  145.6505  136.3748  154.9797 H   0  0  0  0  0  0  0  0  0  0  0  0
  146.4384  135.8074  153.5128 H   0  0  0  0  0  0  0  0  0  0  0  0
  145.8098  138.5787  153.3080 H   0  0  0  0  0  0  0  0  0  0  0  0
  148.2178  136.3917  155.0432 H   0  0  0  0  0  0  0  0  0  0  0  0
  151.9611  138.4374  155.8724 H   0  0  0  0  0  0  0  0  0  0  0  0
  152.1827  139.6762  154.6818 H   0  0  0  0  0  0  0  0  0  0  0  0
  151.5015  141.4128  156.1807 H   0  0  0  0  0  0  0  0  0  0  0  0
  150.5899  140.2917  157.1936 H   0  0  0  0  0  0  0  0  0  0  0  0
  151.4955  142.5227  157.7582 H   0  0  0  0  0  0  0  0  0  0  0  0
  151.5471  143.9621  159.7751 H   0  0  0  0  0  0  0  0  0  0  0  0
  153.9882  141.0414  161.7961 H   0  0  0  0  0  0  0  0  0  0  0  0
  153.9498  139.6064  159.8075 H   0  0  0  0  0  0  0  0  0  0  0  0
  1  2  2  0  0  0  0
  1 23  1  0  0  0  0
  1 24  1  0  0  0  0
  2  3  1  0  0  0  0
  2 25  1  0  0  0  0
  3  4  1  0  0  0  0
  3 26  1  0  0  0  0
  3 27  1  0  0  0  0
  4  5  1  0  0  0  0
  4 28  1  0  0  0  0
  5 21  2  0  0  0  0
  5  6  1  0  0  0  0
  6  7  2  0  0  0  0
  6 29  1  0  0  0  0
  7  8  1  0  0  0  0
  8  9  1  0  0  0  0
  8 19  1  0  0  0  0
  9 10  1  0  0  0  0
  9 30  1  0  0  0  0
  9 31  1  0  0  0  0
 10 11  1  0  0  0  0
 10 32  1  0  0  0  0
 10 33  1  0  0  0  0
 11 12  1  0  0  0  0
 12 18  1  0  0  0  0
 12 13  2  0  0  0  0
 13 14  1  0  0  0  0
 13 34  1  0  0  0  0
 14 15  2  0  0  0  0
 14 35  1  0  0  0  0
 15 16  1  0  0  0  0
 15 17  1  0  0  0  0
 17 18  2  0  0  0  0
 17 36  1  0  0  0  0
 18 37  1  0  0  0  0
 19 20  2  0  0  0  0
 19 21  1  0  0  0  0
 21 22  1  0  0  0  0
M  END
> <s_m_source_file>
AV-unprocessed.smi

> <i_m_source_file_index>
360

> <i_lp_mmshare_version>
43012

> <i_f3d_flags>
0

> <s_epik_input>
W0NIMl09W0NIXVtDSDJdW05IXWMxW2NIXW5uKGMoPU8pYzFDbClbQ0gyXVtDSDJdT2MyW2NIXVtjSF1jKENsKVtjSF1bY0hdMg==

> <s_epik_cmdline>
J2VwaWtfcHl0aG9uJywgJy1waCcsICc3LjAnLCAnLXRuJywgJzgnLCAnLW1hJywgJzIwMCcsICctbWV0YWxfYmluZGluZycsICctaW1hZScsICc8aW5maWxlLm1hZT4nLCAnLW9tYWUnLCAnPG91dGZpbGUubWFlPic=

> <r_lp_tautomer_probability>
1

> <r_epik_Ionization_Penalty>
1.57681e-05

> <r_epik_Ionization_Penalty_Charging>
9.79356e-10

> <r_epik_Ionization_Penalty_Neutral>
1.57671e-05

> <r_epik_State_Penalty>
-0

> <r_epik_Charging_Adjusted_Penalty>
9.79356e-10

> <i_epik_Tot_Q>
0

> <i_epik_Tot_abs_Q>
0

> <r_epik_Metal_State_Penalty>
-0

> <b_epik_Metal_Only>
0

> <s_lp_Force_Field>
OPLS_2005

> <r_lp_Energy>
29.545

> <b_lp_Chiralities_Consistent>
1

> <s_lp_Variant>
AV-unprocessed.smi:360-1

> <Gold.Version>
5.8.1

> <Gold.Id.Protein>
6NUR|6NUR_protein|mol2

> <Gold.PLP.Fitness>
43.5660

> <Gold.PLP.PLP>
-39.2482

> <Gold.PLP.part.hbond>
-3.0000

> <Gold.PLP.part.metal>
0.0000

> <Gold.PLP.part.buried>
-1.2488

> <Gold.PLP.part.nonpolar>
-34.3317

> <Gold.PLP.part.repulsive>
0.2921

> <Gold.PLP.ligand.clash>
0.0000

> <Gold.PLP.ligand.torsion>
0.6597

> <Gold.PLP.Chemscore.Hbond>
1.8386

> <Gold.PLP.Chemscore.CHOScore>
0.0000

> <Gold.PLP.Chemscore.Metal>
0.0000

> <Gold.Chemscore.Hbonds>
donor molecule, donor type, donor heavy atom, donor atom, acceptor molecule, acceptor atom, score
      P1  H  7989  7998       L1    20  0.43
      P1  H  7997  8008       L1    11  1.00
      P1  H  8011  8017       L1    20  0.39

> <Gold.PLP.Chemscore.Internal.Correction>
0.1211

> <Gold.Rescore>
     Score         DG    S(hbond)    S(metal)    S(lipo)     H(rot)  DE(clash)    DE(int)     intcor
     17.66     -18.43       1.37        0.00     109.61       1.73       0.12       0.64       ----

> <Gold.Chemscore.Fitness>
17.6648

> <Gold.Chemscore.DG>
-18.4266

> <Gold.Chemscore.ZeroCoef>
-5.4800

> <Gold.Chemscore.Hbond>
1.3663

> <Gold.Chemscore.Metal>
0.0000

> <Gold.Chemscore.Lipo>
109.6080

> <Gold.Chemscore.Internal_Hbond>
0.0000

> <Gold.Chemscore.DEClash>
0.1222

> <Gold.Chemscore.DEInternal>
0.6396

> <Gold.Chemscore.Rot>
1.7348

> <Gold.Chemscore.Internal.Correction>
   9.000000E+99

> <Gold.Chemscore.Hbonds>
donor molecule, donor type, donor heavy atom, donor atom, acceptor molecule, acceptor atom, score
      P1  H  7989  7998       L1    20  0.19
      P1  H  7997  8008       L1    11  0.61
      P1  H  8011  8017       L1    20  0.40

> <Gold.Chemscore.Hbond.Weighted>
-4.5634

> <Gold.Chemscore.Metal.Weighted>
-0.0000

> <Gold.Chemscore.Lipo.Weighted>
-12.8241

> <Gold.Chemscore.Internal_Hbond.Weighted>
0.0000

> <Gold.Chemscore.DEClash.Weighted>
0.1222

> <Gold.Chemscore.DEInternal.Weighted>
0.6396

> <Gold.Chemscore.Rot.Weighted>
4.4410

> <Gold.Chemscore.Internal.Correction.Weighted>
   9.000000E+99

> <Gold.Protein.RotatedTorsions>
[ 6907 6896 6895 6894 ] final  -45.55 input  -60.11 | X-H torsion
[ 7974 7965 7964 7962 ] final  131.08 input  175.53 | X-H torsion
[ 8008 7997 7996 7995 ] final  -64.49 input   59.86 | X-H torsion
[ 10167 10162 10161 10158 ] final  -48.84 input  -65.29 | X-H torsion
[ 10718 10713 10712 10709 ] final -115.44 input   66.30 | X-H torsion
[ 10763 10752 10751 10750 ] final  -53.73 input  -60.55 | X-H torsion
[ 11005 11000 10999 10996 ] final  -43.32 input  -57.11 | X-H torsion

> <Gold.Protein.ActiveResidues>
 VAL166  LYS551  ARG553  GLY616  TRP617  ASP618  TYR619  PRO620  LYS621  CYS622 
 ASP623  PHE694  ASN695  SER759  ASP760  ASP761  ALA762  ILE779  LEU786  VAL792 
 PHE793  MET794  SER795  GLU796  ALA797  LYS798  CYS799  TRP800  GLU811  SER814 

> <Gold.Protein.RotatedAtoms>
  150.9207  134.8625  159.7486 H   0  0  0  0  0  0  0  0  0  0  0  0  # atno 6907 bound_to 6896
  152.4991  134.4222  159.9494 H   0  0  0  0  0  0  0  0  0  0  0  0  # atno 6908 bound_to 6896
  151.4256  133.3645  159.2797 H   0  0  0  0  0  0  0  0  0  0  0  0  # atno 6909 bound_to 6896
  145.0111  139.4220  143.5244 H   0  0  0  0  0  0  0  0  0  0  0  0  # atno 7974 bound_to 7965
  154.4615  140.0952  156.6905 H   0  0  0  0  0  0  0  0  0  0  0  0  # atno 8008 bound_to 7997
  155.4981  140.3473  155.4348 H   0  0  0  0  0  0  0  0  0  0  0  0  # atno 8009 bound_to 7997
  156.0879  140.1389  156.9619 H   0  0  0  0  0  0  0  0  0  0  0  0  # atno 8010 bound_to 7997
  140.6712  143.2723  151.4129 H   0  0  0  0  0  0  0  0  0  0  0  0  # atno 10167 bound_to 10162
  156.0896  130.6081  150.8906 H   0  0  0  0  0  0  0  0  0  0  0  0  # atno 10718 bound_to 10713
  154.1635  135.6471  153.4992 H   0  0  0  0  0  0  0  0  0  0  0  0  # atno 10763 bound_to 10752
  153.0104  135.5366  154.6686 H   0  0  0  0  0  0  0  0  0  0  0  0  # atno 10764 bound_to 10752
  154.6006  135.2943  155.0511 H   0  0  0  0  0  0  0  0  0  0  0  0  # atno 10765 bound_to 10752
  141.0375  133.6793  156.2716 H   0  0  0  0  0  0  0  0  0  0  0  0  # atno 11005 bound_to 11000
  146.3470  139.9555  142.8723 LP  0  0  0  0  0  0  0  0  0  0  0  0  # atno 17320 bound_to 7965
  145.2022  140.9859  143.4149 LP  0  0  0  0  0  0  0  0  0  0  0  0  # atno 17321 bound_to 7965
  139.5982  144.1352  152.2168 LP  0  0  0  0  0  0  0  0  0  0  0  0  # atno 17342 bound_to 10162
  140.0728  144.5765  150.7179 LP  0  0  0  0  0  0  0  0  0  0  0  0  # atno 17343 bound_to 10162
  157.6041  131.0940  150.8909 LP  0  0  0  0  0  0  0  0  0  0  0  0  # atno 17370 bound_to 10713
  156.9061  130.5264  149.5281 LP  0  0  0  0  0  0  0  0  0  0  0  0  # atno 17371 bound_to 10713
  140.6294  134.5279  157.5558 LP  0  0  0  0  0  0  0  0  0  0  0  0  # atno 17394 bound_to 11000
  139.9251  134.8071  156.1092 LP  0  0  0  0  0  0  0  0  0  0  0  0  # atno 17395 bound_to 11000

$$$$
