AV-unprocessed.smi:3227|AV-procd|sdf|12317|dock3
  -GOLD-   2272018163D 1   1.00000     0.00000
 Structure written by MMmdl.
 37 38  0  0  0  0  0  0  0  0  1 V2000
  147.4128  140.5099  155.9331 C   0  0  0  0  0  0  0  0  0  0  0  0
  148.7601  140.7486  156.4313 N   0  0  0  0  0  0  0  0  0  0  0  0
  149.1385  142.1439  156.6176 C   0  0  0  0  0  0  0  0  0  0  0  0
  149.7247  139.9140  155.8319 C   0  0  0  0  0  0  0  0  0  0  0  0
  149.3998  139.3489  154.6429 N   0  0  0  0  0  0  0  0  0  0  0  0
  150.2877  138.5281  154.0464 C   0  0  0  0  0  0  0  0  0  0  0  0
  151.5471  138.2295  154.5945 C   0  0  0  0  0  0  0  0  0  0  0  0
  151.8946  138.8127  155.8261 C   0  0  0  0  0  0  0  0  0  0  0  0
  150.9681  139.6654  156.4744 C   0  0  0  0  0  0  0  0  0  0  0  0
  151.2698  140.3275  157.6990 N   0  0  0  0  0  0  0  0  0  0  0  0
  152.3254  140.1408  158.5118 C   0  0  0  0  0  0  0  0  0  0  0  0
  153.2195  139.3171  158.3199 O   0  0  0  0  0  0  0  0  0  0  0  0
  152.3642  141.0098  159.7670 C   0  0  0  0  0  0  0  0  0  0  0  0
  153.0364  142.2195  159.4587 O   0  0  0  0  0  0  0  0  0  0  0  0
  152.4142  143.3507  160.0424 C   0  0  0  0  0  0  0  0  0  0  0  0
  152.8432  144.5934  159.2920 C   0  0  0  0  0  0  0  0  0  0  0  0
  151.9734  145.1788  158.2025 C   0  0  0  0  0  0  0  0  0  0  0  0
  153.2699  144.4987  157.8444 C   0  0  0  0  0  0  0  0  0  0  0  0
  147.1118  139.4717  156.0730 H   0  0  0  0  0  0  0  0  0  0  0  0
  147.3527  140.7432  154.8694 H   0  0  0  0  0  0  0  0  0  0  0  0
  146.6948  141.1388  156.4600 H   0  0  0  0  0  0  0  0  0  0  0  0
  150.1567  142.2245  157.0002 H   0  0  0  0  0  0  0  0  0  0  0  0
  148.4726  142.6215  157.3366 H   0  0  0  0  0  0  0  0  0  0  0  0
  149.0755  142.6934  155.6778 H   0  0  0  0  0  0  0  0  0  0  0  0
  149.9873  138.1019  153.1006 H   0  0  0  0  0  0  0  0  0  0  0  0
  152.2342  137.5755  154.0783 H   0  0  0  0  0  0  0  0  0  0  0  0
  152.8705  138.6121  156.2407 H   0  0  0  0  0  0  0  0  0  0  0  0
  150.5572  140.9590  158.0356 H   0  0  0  0  0  0  0  0  0  0  0  0
  151.3417  141.2121  160.0894 H   0  0  0  0  0  0  0  0  0  0  0  0
  152.8732  140.4893  160.5805 H   0  0  0  0  0  0  0  0  0  0  0  0
  151.3287  143.2590  159.9817 H   0  0  0  0  0  0  0  0  0  0  0  0
  152.6862  143.4403  161.0953 H   0  0  0  0  0  0  0  0  0  0  0  0
  153.3996  145.3040  159.9003 H   0  0  0  0  0  0  0  0  0  0  0  0
  151.0493  144.6595  157.9565 H   0  0  0  0  0  0  0  0  0  0  0  0
  151.9343  146.2631  158.1212 H   0  0  0  0  0  0  0  0  0  0  0  0
  154.0966  145.1290  157.5225 H   0  0  0  0  0  0  0  0  0  0  0  0
  153.2080  143.5268  157.3585 H   0  0  0  0  0  0  0  0  0  0  0  0
  1  2  1  0  0  0  0
  1 19  1  0  0  0  0
  1 20  1  0  0  0  0
  1 21  1  0  0  0  0
  2  3  1  0  0  0  0
  2  4  1  0  0  0  0
  3 22  1  0  0  0  0
  3 23  1  0  0  0  0
  3 24  1  0  0  0  0
  4  9  1  0  0  0  0
  4  5  2  0  0  0  0
  5  6  1  0  0  0  0
  6  7  2  0  0  0  0
  6 25  1  0  0  0  0
  7  8  1  0  0  0  0
  7 26  1  0  0  0  0
  8  9  2  0  0  0  0
  8 27  1  0  0  0  0
  9 10  1  0  0  0  0
 10 11  1  0  0  0  0
 10 28  1  0  0  0  0
 11 12  2  0  0  0  0
 11 13  1  0  0  0  0
 13 14  1  0  0  0  0
 13 29  1  0  0  0  0
 13 30  1  0  0  0  0
 14 15  1  0  0  0  0
 15 16  1  0  0  0  0
 15 31  1  0  0  0  0
 15 32  1  0  0  0  0
 16 18  1  0  0  0  0
 16 17  1  0  0  0  0
 16 33  1  0  0  0  0
 17 18  1  0  0  0  0
 17 34  1  0  0  0  0
 17 35  1  0  0  0  0
 18 36  1  0  0  0  0
 18 37  1  0  0  0  0
M  END
> <s_m_source_file>
AV-unprocessed.smi

> <i_m_source_file_index>
3227

> <i_lp_mmshare_version>
43012

> <i_f3d_flags>
0

> <s_epik_input>
W0NIM11OKFtDSDNdKWMxbltjSF1bY0hdW2NIXWMxW05IXUMoPU8pW0NIMl1PW0NIMl1bQ0hdMltDSDJdW0NIMl0y

> <s_epik_cmdline>
J2VwaWtfcHl0aG9uJywgJy1waCcsICc3LjAnLCAnLXRuJywgJzgnLCAnLW1hJywgJzIwMCcsICctbWV0YWxfYmluZGluZycsICctaW1hZScsICc8aW5maWxlLm1hZT4nLCAnLW9tYWUnLCAnPG91dGZpbGUubWFlPic=

> <r_lp_tautomer_probability>
1

> <r_epik_Ionization_Penalty>
0.25353

> <r_epik_Ionization_Penalty_Charging>
0

> <r_epik_Ionization_Penalty_Neutral>
0.25353

> <r_epik_State_Penalty>
0.244789

> <r_epik_Charging_Adjusted_Penalty>
0.244789

> <i_epik_Tot_Q>
0

> <i_epik_Tot_abs_Q>
0

> <r_epik_Metal_State_Penalty>
0.170372

> <b_epik_Metal_Only>
0

> <s_lp_Force_Field>
OPLS_2005

> <r_lp_Energy>
22.5303

> <b_lp_Chiralities_Consistent>
1

> <s_lp_Variant>
AV-unprocessed.smi:3227-1

> <Gold.Version>
5.8.1

> <Gold.Id.Protein>
6NUR|6NUR_protein|mol2

> <Gold.PLP.Fitness>
40.6735

> <Gold.PLP.PLP>
-35.0404

> <Gold.PLP.part.hbond>
-1.0000

> <Gold.PLP.part.metal>
0.0000

> <Gold.PLP.part.buried>
-4.6895

> <Gold.PLP.part.nonpolar>
-29.4092

> <Gold.PLP.part.repulsive>
0.1853

> <Gold.PLP.ligand.clash>
0.0000

> <Gold.PLP.ligand.torsion>
1.5610

> <Gold.PLP.Chemscore.Hbond>
1.0000

> <Gold.PLP.Chemscore.CHOScore>
1.6298

> <Gold.PLP.Chemscore.Metal>
0.0000

> <Gold.Chemscore.Hbonds>
donor molecule, donor type, donor heavy atom, donor atom, acceptor molecule, acceptor atom, score
      P1  H  7997  8009       L1    12  0.84
      L1  C     6    25       P1  7948  1.00
      L1  C     6    25       P1  7949  0.01
      L1  C     6    25       P1  7957  0.30

> <Gold.PLP.Chemscore.Internal.Correction>
0.8657

> <Gold.Rescore>
     Score         DG    S(hbond)    S(metal)    S(lipo)     H(rot)  DE(clash)    DE(int)     intcor
     11.56     -15.55       0.98        0.00      94.75       1.68       0.20       3.79       ----

> <Gold.Chemscore.Fitness>
11.5595

> <Gold.Chemscore.DG>
-15.5465

> <Gold.Chemscore.ZeroCoef>
-5.4800

> <Gold.Chemscore.Hbond>
0.9805

> <Gold.Chemscore.Metal>
0.0000

> <Gold.Chemscore.Lipo>
94.7456

> <Gold.Chemscore.Internal_Hbond>
0.0000

> <Gold.Chemscore.DEClash>
0.1984

> <Gold.Chemscore.DEInternal>
3.7885

> <Gold.Chemscore.Rot>
1.6771

> <Gold.Chemscore.Internal.Correction>
   9.000000E+99

> <Gold.Chemscore.Hbonds>
donor molecule, donor type, donor heavy atom, donor atom, acceptor molecule, acceptor atom, score
      P1  H  7997  8009       L1    12  0.48

> <Gold.Chemscore.Hbond.Weighted>
-3.2747

> <Gold.Chemscore.Metal.Weighted>
-0.0000

> <Gold.Chemscore.Lipo.Weighted>
-11.0852

> <Gold.Chemscore.Internal_Hbond.Weighted>
0.0000

> <Gold.Chemscore.DEClash.Weighted>
0.1984

> <Gold.Chemscore.DEInternal.Weighted>
3.7885

> <Gold.Chemscore.Rot.Weighted>
4.2935

> <Gold.Chemscore.Internal.Correction.Weighted>
   9.000000E+99

> <Gold.Protein.RotatedTorsions>
[ 6907 6896 6895 6894 ] final   67.21 input  -60.11 | X-H torsion
[ 7974 7965 7964 7962 ] final   56.47 input  175.53 | X-H torsion
[ 8008 7997 7996 7995 ] final  172.56 input   59.86 | X-H torsion
[ 10167 10162 10161 10158 ] final   83.13 input  -65.29 | X-H torsion
[ 10718 10713 10712 10709 ] final  -24.72 input   66.30 | X-H torsion
[ 10763 10752 10751 10750 ] final   38.98 input  -60.55 | X-H torsion
[ 11005 11000 10999 10996 ] final   64.55 input  -57.11 | X-H torsion

> <Gold.Protein.ActiveResidues>
 VAL166  LYS551  ARG553  GLY616  TRP617  ASP618  TYR619  PRO620  LYS621  CYS622 
 ASP623  PHE694  ASN695  SER759  ASP760  ASP761  ALA762  ILE779  LEU786  VAL792 
 PHE793  MET794  SER795  GLU796  ALA797  LYS798  CYS799  TRP800  GLU811  SER814 

> <Gold.Protein.RotatedAtoms>
  152.4536  134.5340  159.9819 H   0  0  0  0  0  0  0  0  0  0  0  0  # atno 6907 bound_to 6896
  151.5407  133.3427  159.2943 H   0  0  0  0  0  0  0  0  0  0  0  0  # atno 6908 bound_to 6896
  150.8473  134.7817  159.7043 H   0  0  0  0  0  0  0  0  0  0  0  0  # atno 6909 bound_to 6896
  145.9394  139.3875  143.0373 H   0  0  0  0  0  0  0  0  0  0  0  0  # atno 7974 bound_to 7965
  156.1162  140.1482  156.9269 H   0  0  0  0  0  0  0  0  0  0  0  0  # atno 8008 bound_to 7997
  154.4802  140.0882  156.7402 H   0  0  0  0  0  0  0  0  0  0  0  0  # atno 8009 bound_to 7997
  155.4509  140.3434  155.4303 H   0  0  0  0  0  0  0  0  0  0  0  0  # atno 8010 bound_to 7997
  139.9216  144.6209  150.8434 H   0  0  0  0  0  0  0  0  0  0  0  0  # atno 10167 bound_to 10162
  156.4739  130.4530  149.6852 H   0  0  0  0  0  0  0  0  0  0  0  0  # atno 10718 bound_to 10713
  152.9982  135.6234  154.2391 H   0  0  0  0  0  0  0  0  0  0  0  0  # atno 10763 bound_to 10752
  154.2132  135.2799  155.2953 H   0  0  0  0  0  0  0  0  0  0  0  0  # atno 10764 bound_to 10752
  154.5590  135.5711  153.7048 H   0  0  0  0  0  0  0  0  0  0  0  0  # atno 10765 bound_to 10752
  139.9951  134.6529  156.0023 H   0  0  0  0  0  0  0  0  0  0  0  0  # atno 11005 bound_to 11000
  145.8320  140.9626  143.0844 LP  0  0  0  0  0  0  0  0  0  0  0  0  # atno 17320 bound_to 7965
  144.6777  140.0174  143.7484 LP  0  0  0  0  0  0  0  0  0  0  0  0  # atno 17321 bound_to 7965
  140.7660  143.3293  151.2446 LP  0  0  0  0  0  0  0  0  0  0  0  0  # atno 17342 bound_to 10162
  139.6856  143.9779  152.2832 LP  0  0  0  0  0  0  0  0  0  0  0  0  # atno 17343 bound_to 10162
  156.3590  130.7471  151.2441 LP  0  0  0  0  0  0  0  0  0  0  0  0  # atno 17370 bound_to 10713
  157.7489  131.0355  150.4369 LP  0  0  0  0  0  0  0  0  0  0  0  0  # atno 17371 bound_to 10713
  141.1598  133.6539  156.4281 LP  0  0  0  0  0  0  0  0  0  0  0  0  # atno 17394 bound_to 11000
  140.4833  134.6644  157.5180 LP  0  0  0  0  0  0  0  0  0  0  0  0  # atno 17395 bound_to 11000

$$$$
