AV-unprocessed.smi:1196|AV-procd|sdf|5007|dock2
  -GOLD-   22720 4 23D 1   1.00000     0.00000
 Structure written by MMmdl.
 36 37  0  0  0  0  0  0  0  0  2 V2000
  145.3841  129.6983  151.6264 C   0  0  0  0  0  0  0  0  0  0  0  0
  145.7288  131.1311  151.1897 C   0  0  1  0  0  0  0  0  0  0  0  0
  144.5823  132.1087  151.5143 C   0  0  0  0  0  0  0  0  0  0  0  0
  144.9439  133.4921  151.2589 N   0  0  0  0  0  0  0  0  0  0  0  0
  144.3944  134.3642  150.3431 C   0  0  0  0  0  0  0  0  0  0  0  0
  145.0618  135.5497  150.4596 C   0  0  0  0  0  0  0  0  0  0  0  0
  146.0153  135.3011  151.4860 C   0  0  0  0  0  0  0  0  0  0  0  0
  145.9414  134.0694  151.9639 N   0  0  0  0  0  0  0  0  0  0  0  0
  146.9616  131.5669  151.8418 N   0  0  0  0  0  0  0  0  0  0  0  0
  147.1250  131.7484  153.1611 C   0  0  0  0  0  0  0  0  0  0  0  0
  146.2271  131.5719  153.9847 O   0  0  0  0  0  0  0  0  0  0  0  0
  148.5170  132.1885  153.6191 C   0  0  0  0  0  0  0  0  0  0  0  0
  148.9152  131.5595  154.9672 C   0  0  0  0  0  0  0  0  0  0  0  0
  150.3885  131.8167  155.3402 C   0  0  1  0  0  0  0  0  0  0  0  0
  150.7237  133.2190  155.2155 N   0  0  0  0  0  0  0  0  0  0  0  0
  151.1630  133.7183  156.3690 C   0  0  0  0  0  0  0  0  0  0  0  0
  151.5188  134.8900  156.4726 O   0  0  0  0  0  0  0  0  0  0  0  0
  151.1395  132.7691  157.3244 N   0  5  0  0  0  0  0  0  0  0  0  0
  150.6881  131.5989  156.8233 C   0  0  0  0  0  0  0  0  0  0  0  0
  150.5230  130.5103  157.3711 O   0  0  0  0  0  0  0  0  0  0  0  0
  144.4754  129.3476  151.1367 H   0  0  0  0  0  0  0  0  0  0  0  0
  145.2264  129.6393  152.7038 H   0  0  0  0  0  0  0  0  0  0  0  0
  146.1832  129.0027  151.3683 H   0  0  0  0  0  0  0  0  0  0  0  0
  145.8754  131.1301  150.1078 H   0  0  0  0  0  0  0  0  0  0  0  0
  143.7096  131.8755  150.9028 H   0  0  0  0  0  0  0  0  0  0  0  0
  144.2674  132.0065  152.5543 H   0  0  0  0  0  0  0  0  0  0  0  0
  143.5843  134.0712  149.6917 H   0  0  0  0  0  0  0  0  0  0  0  0
  144.8952  136.4560  149.8966 H   0  0  0  0  0  0  0  0  0  0  0  0
  146.7534  135.9746  151.8960 H   0  0  0  0  0  0  0  0  0  0  0  0
  147.7588  131.7271  151.2427 H   0  0  0  0  0  0  0  0  0  0  0  0
  149.2362  131.9047  152.8502 H   0  0  0  0  0  0  0  0  0  0  0  0
  148.5513  133.2767  153.6901 H   0  0  0  0  0  0  0  0  0  0  0  0
  148.2609  131.9321  155.7577 H   0  0  0  0  0  0  0  0  0  0  0  0
  148.7493  130.4820  154.9201 H   0  0  0  0  0  0  0  0  0  0  0  0
  151.0647  131.2113  154.7354 H   0  0  0  0  0  0  0  0  0  0  0  0
  150.6516  133.7358  154.3519 H   0  0  0  0  0  0  0  0  0  0  0  0
  1  2  1  0  0  0  0
  1 21  1  0  0  0  0
  1 22  1  0  0  0  0
  1 23  1  0  0  0  0
  2  3  1  0  0  0  0
  2  9  1  0  0  0  0
  2 24  1  0  0  0  0
  3  4  1  0  0  0  0
  3 25  1  0  0  0  0
  3 26  1  0  0  0  0
  4  8  1  0  0  0  0
  4  5  1  0  0  0  0
  5  6  2  0  0  0  0
  5 27  1  0  0  0  0
  6  7  1  0  0  0  0
  6 28  1  0  0  0  0
  7  8  2  0  0  0  0
  7 29  1  0  0  0  0
  9 10  1  0  0  0  0
  9 30  1  0  0  0  0
 10 11  2  0  0  0  0
 10 12  1  0  0  0  0
 12 13  1  0  0  0  0
 12 31  1  0  0  0  0
 12 32  1  0  0  0  0
 13 14  1  0  0  0  0
 13 33  1  0  0  0  0
 13 34  1  0  0  0  0
 14 19  1  0  0  0  0
 14 15  1  0  0  0  0
 14 35  1  0  0  0  0
 15 16  1  0  0  0  0
 15 36  1  0  0  0  0
 16 17  2  0  0  0  0
 16 18  1  0  0  0  0
 18 19  1  0  0  0  0
 19 20  2  0  0  0  0
M  CHG  1  18  -1
M  END
> <s_m_source_file>
AV-unprocessed.smi

> <i_m_source_file_index>
1196

> <i_lp_mmshare_version>
43012

> <i_f3d_flags>
0

> <s_epik_input>
bjFbY0hdW2NIXVtjSF1uMVtDSDJdW0NAQEhdKFtDSDNdKVtOSF1DKD1PKVtDSDJdW0NIMl1bQ0BASF0yW05IXUMoPU8pW05IXUMyPU8=

> <s_epik_cmdline>
J2VwaWtfcHl0aG9uJywgJy1waCcsICc3LjAnLCAnLXRuJywgJzgnLCAnLW1hJywgJzIwMCcsICctbWV0YWxfYmluZGluZycsICctaW1hZScsICc8aW5maWxlLm1hZT4nLCAnLW9tYWUnLCAnPG91dGZpbGUubWFlPic=

> <r_lp_tautomer_probability>
1

> <r_epik_Ionization_Penalty>
2.57056

> <r_epik_Ionization_Penalty_Charging>
2.57023

> <r_epik_Ionization_Penalty_Neutral>
0.000331301

> <r_epik_State_Penalty>
2.56828

> <r_epik_Charging_Adjusted_Penalty>
5.13851

> <i_epik_Tot_Q>
-1

> <i_epik_Tot_abs_Q>
1

> <r_epik_Metal_State_Penalty>
0.444883

> <b_epik_Metal_Only>
1

> <s_lp_Force_Field>
OPLS_2005

> <r_lp_Energy>
6.594

> <b_lp_Chiralities_Consistent>
1

> <s_lp_Variant>
AV-unprocessed.smi:1196-12

> <Gold.Version>
5.8.1

> <Gold.Id.Protein>
6NUR|6NUR_protein|mol2

> <Gold.PLP.Fitness>
44.9098

> <Gold.PLP.PLP>
-29.3388

> <Gold.PLP.part.hbond>
-2.7881

> <Gold.PLP.part.metal>
0.0000

> <Gold.PLP.part.buried>
-1.9068

> <Gold.PLP.part.nonpolar>
-24.5682

> <Gold.PLP.part.repulsive>
0.3363

> <Gold.PLP.ligand.clash>
0.0000

> <Gold.PLP.ligand.torsion>
0.5224

> <Gold.PLP.Chemscore.Hbond>
3.4818

> <Gold.PLP.Chemscore.CHOScore>
2.0000

> <Gold.PLP.Chemscore.Metal>
0.0000

> <Gold.Chemscore.Hbonds>
donor molecule, donor type, donor heavy atom, donor atom, acceptor molecule, acceptor atom, score
      L1  H     9    30       P1 10747  0.83
      P1  H  6896  6907       L1    18  2.00
      P1  H 10752 10765       L1    17  0.51
      L1  C     5    27       P1 10186  0.82
      L1  C     7    29       P1  7948  1.00

> <Gold.PLP.Chemscore.Internal.Correction>
0.1706

> <Gold.Rescore>
     Score         DG    S(hbond)    S(metal)    S(lipo)     H(rot)  DE(clash)    DE(int)     intcor
     11.85     -14.28       2.75        0.00      60.18       2.89       0.67       1.76       ----

> <Gold.Chemscore.Fitness>
11.8479

> <Gold.Chemscore.DG>
-14.2845

> <Gold.Chemscore.ZeroCoef>
-5.4800

> <Gold.Chemscore.Hbond>
2.7465

> <Gold.Chemscore.Metal>
0.0000

> <Gold.Chemscore.Lipo>
60.1818

> <Gold.Chemscore.Internal_Hbond>
0.0000

> <Gold.Chemscore.DEClash>
0.6738

> <Gold.Chemscore.DEInternal>
1.7628

> <Gold.Chemscore.Rot>
2.8946

> <Gold.Chemscore.Internal.Correction>
   9.000000E+99

> <Gold.Chemscore.Hbonds>
donor molecule, donor type, donor heavy atom, donor atom, acceptor molecule, acceptor atom, score
      L1  H     9    30       P1 10747  0.83
      P1  H  6896  6907       L1    18  0.88
      P1  H 10752 10765       L1    17  0.41

> <Gold.Chemscore.Hbond.Weighted>
-9.1734

> <Gold.Chemscore.Metal.Weighted>
-0.0000

> <Gold.Chemscore.Lipo.Weighted>
-7.0413

> <Gold.Chemscore.Internal_Hbond.Weighted>
0.0000

> <Gold.Chemscore.DEClash.Weighted>
0.6738

> <Gold.Chemscore.DEInternal.Weighted>
1.7628

> <Gold.Chemscore.Rot.Weighted>
7.4101

> <Gold.Chemscore.Internal.Correction.Weighted>
   9.000000E+99

> <Gold.Protein.RotatedTorsions>
[ 6907 6896 6895 6894 ] final -162.16 input  -60.11 | X-H torsion
[ 7974 7965 7964 7962 ] final  133.46 input  175.53 | X-H torsion
[ 8008 7997 7996 7995 ] final   95.85 input   59.86 | X-H torsion
[ 10167 10162 10161 10158 ] final   -8.63 input  -65.29 | X-H torsion
[ 10718 10713 10712 10709 ] final -103.32 input   66.30 | X-H torsion
[ 10763 10752 10751 10750 ] final -147.88 input  -60.55 | X-H torsion
[ 11005 11000 10999 10996 ] final  115.20 input  -57.11 | X-H torsion

> <Gold.Protein.ActiveResidues>
 VAL166  LYS551  ARG553  GLY616  TRP617  ASP618  TYR619  PRO620  LYS621  CYS622 
 ASP623  PHE694  ASN695  SER759  ASP760  ASP761  ALA762  ILE779  LEU786  VAL792 
 PHE793  MET794  SER795  GLU796  ALA797  LYS798  CYS799  TRP800  GLU811  SER814 

> <Gold.Protein.RotatedAtoms>
  151.3759  133.3838  159.2704 H   0  0  0  0  0  0  0  0  0  0  0  0  # atno 6907 bound_to 6896
  150.9615  134.9003  159.7744 H   0  0  0  0  0  0  0  0  0  0  0  0  # atno 6908 bound_to 6896
  152.5151  134.3718  159.9373 H   0  0  0  0  0  0  0  0  0  0  0  0  # atno 6909 bound_to 6896
  144.9863  139.4452  143.5361 H   0  0  0  0  0  0  0  0  0  0  0  0  # atno 7974 bound_to 7965
  156.0733  140.3281  155.7603 H   0  0  0  0  0  0  0  0  0  0  0  0  # atno 8008 bound_to 7997
  155.5271  140.0590  157.2913 H   0  0  0  0  0  0  0  0  0  0  0  0  # atno 8009 bound_to 7997
  154.4542  140.1934  156.0447 H   0  0  0  0  0  0  0  0  0  0  0  0  # atno 8010 bound_to 7997
  140.7064  143.5948  150.8857 H   0  0  0  0  0  0  0  0  0  0  0  0  # atno 10167 bound_to 10162
  156.0261  130.5462  150.7236 H   0  0  0  0  0  0  0  0  0  0  0  0  # atno 10718 bound_to 10713
  154.8263  135.3349  154.6887 H   0  0  0  0  0  0  0  0  0  0  0  0  # atno 10763 bound_to 10752
  153.7512  135.6939  153.4950 H   0  0  0  0  0  0  0  0  0  0  0  0  # atno 10764 bound_to 10752
  153.2175  135.4460  155.0401 H   0  0  0  0  0  0  0  0  0  0  0  0  # atno 10765 bound_to 10752
  139.9003  134.9580  156.7008 H   0  0  0  0  0  0  0  0  0  0  0  0  # atno 11005 bound_to 11000
  146.3420  139.9167  142.8772 LP  0  0  0  0  0  0  0  0  0  0  0  0  # atno 17320 bound_to 7965
  145.2349  140.9987  143.3969 LP  0  0  0  0  0  0  0  0  0  0  0  0  # atno 17321 bound_to 7965
  139.9673  143.6096  152.2984 LP  0  0  0  0  0  0  0  0  0  0  0  0  # atno 17342 bound_to 10162
  139.6670  144.7662  151.1854 LP  0  0  0  0  0  0  0  0  0  0  0  0  # atno 17343 bound_to 10162
  157.4845  131.0905  151.0498 LP  0  0  0  0  0  0  0  0  0  0  0  0  # atno 17370 bound_to 10713
  157.0922  130.5947  149.5442 LP  0  0  0  0  0  0  0  0  0  0  0  0  # atno 17371 bound_to 10713
  140.7151  133.9189  155.8110 LP  0  0  0  0  0  0  0  0  0  0  0  0  # atno 17394 bound_to 11000
  141.0270  134.0809  157.4057 LP  0  0  0  0  0  0  0  0  0  0  0  0  # atno 17395 bound_to 11000

$$$$
