AV-unprocessed.smi:2247|AV-procd|sdf|9086|dock2
  -GOLD-   2272012293D 1   1.00000     0.00000
 Structure written by MMmdl.
 34 35  0  0  0  0  0  0  0  0  1 V2000
  151.0422  139.9028  155.3029 C   0  0  0  0  0  0  0  0  0  0  0  0
  149.8366  140.8346  155.5193 C   0  0  0  0  0  0  0  0  0  0  0  0
  149.4724  140.9682  157.0064 C   0  0  0  0  0  0  0  0  0  0  0  0
  148.6600  140.4242  154.7413 N   0  0  0  0  0  0  0  0  0  0  0  0
  148.0227  141.2991  153.7703 C   0  0  0  0  0  0  0  0  0  0  0  0
  147.1084  140.3743  152.9611 C   0  0  0  0  0  0  0  0  0  0  0  0
  146.8782  139.1339  153.8396 C   0  0  1  0  0  0  0  0  0  0  0  0
  146.9367  137.9210  153.0259 N   0  0  0  0  0  0  0  0  0  0  0  0
  145.8990  137.1082  152.7773 C   0  0  0  0  0  0  0  0  0  0  0  0
  144.7558  137.3219  153.1821 O   0  0  0  0  0  0  0  0  0  0  0  0
  146.2749  136.0471  152.0439 N   0  0  0  0  0  0  0  0  0  0  0  0
  145.4655  134.9660  151.6127 C   0  0  0  0  0  0  0  0  0  0  0  0
  144.1325  134.9378  151.5710 N   0  0  0  0  0  0  0  0  0  0  0  0
  143.8245  133.6749  151.0867 C   0  0  0  0  0  0  0  0  0  0  0  0
  144.9995  133.0055  150.8593 C   0  0  0  0  0  0  0  0  0  0  0  0
  146.0529  133.8154  151.1896 O   0  0  0  0  0  0  0  0  0  0  0  0
  148.0749  139.2195  154.7880 C   0  0  0  0  0  0  0  0  0  0  0  0
  148.4257  138.2813  155.5038 O   0  0  0  0  0  0  0  0  0  0  0  0
  151.9256  140.2899  155.8118 H   0  0  0  0  0  0  0  0  0  0  0  0
  151.2882  139.8153  154.2442 H   0  0  0  0  0  0  0  0  0  0  0  0
  150.8573  138.9009  155.6908 H   0  0  0  0  0  0  0  0  0  0  0  0
  150.1417  141.8211  155.1653 H   0  0  0  0  0  0  0  0  0  0  0  0
  150.3237  141.3213  157.5887 H   0  0  0  0  0  0  0  0  0  0  0  0
  149.1581  140.0111  157.4241 H   0  0  0  0  0  0  0  0  0  0  0  0
  148.6587  141.6792  157.1531 H   0  0  0  0  0  0  0  0  0  0  0  0
  147.4383  142.0575  154.2931 H   0  0  0  0  0  0  0  0  0  0  0  0
  148.7519  141.8012  153.1335 H   0  0  0  0  0  0  0  0  0  0  0  0
  146.1721  140.8628  152.6892 H   0  0  0  0  0  0  0  0  0  0  0  0
  147.6116  140.1030  152.0310 H   0  0  0  0  0  0  0  0  0  0  0  0
  145.9493  139.2179  154.4065 H   0  0  0  0  0  0  0  0  0  0  0  0
  147.8403  137.6671  152.6550 H   0  0  0  0  0  0  0  0  0  0  0  0
  147.2469  135.9981  151.7777 H   0  0  0  0  0  0  0  0  0  0  0  0
  142.8032  133.3543  150.9425 H   0  0  0  0  0  0  0  0  0  0  0  0
  145.2416  132.0194  150.4915 H   0  0  0  0  0  0  0  0  0  0  0  0
  1  2  1  0  0  0  0
  1 19  1  0  0  0  0
  1 20  1  0  0  0  0
  1 21  1  0  0  0  0
  2  3  1  0  0  0  0
  2  4  1  0  0  0  0
  2 22  1  0  0  0  0
  3 23  1  0  0  0  0
  3 24  1  0  0  0  0
  3 25  1  0  0  0  0
  4 17  1  0  0  0  0
  4  5  1  0  0  0  0
  5  6  1  0  0  0  0
  5 26  1  0  0  0  0
  5 27  1  0  0  0  0
  6  7  1  0  0  0  0
  6 28  1  0  0  0  0
  6 29  1  0  0  0  0
  7  8  1  0  0  0  0
  7 17  1  0  0  0  0
  7 30  1  0  0  0  0
  8  9  1  0  0  0  0
  8 31  1  0  0  0  0
  9 10  2  0  0  0  0
  9 11  1  0  0  0  0
 11 12  1  0  0  0  0
 11 32  1  0  0  0  0
 12 16  1  0  0  0  0
 12 13  2  0  0  0  0
 13 14  1  0  0  0  0
 14 15  2  0  0  0  0
 14 33  1  0  0  0  0
 15 16  1  0  0  0  0
 15 34  1  0  0  0  0
 17 18  2  0  0  0  0
M  END
> <s_m_source_file>
AV-unprocessed.smi

> <i_m_source_file_index>
2247

> <i_lp_mmshare_version>
43012

> <i_f3d_flags>
0

> <s_epik_input>
W0NIM11bQ0hdKFtDSDNdKU4xW0NIMl1bQ0gyXVtDQEhdKEMxPU8pW05IXUMoPU8pW05IXWMybltjSF1bY0hdbzI=

> <s_epik_cmdline>
J2VwaWtfcHl0aG9uJywgJy1waCcsICc3LjAnLCAnLXRuJywgJzgnLCAnLW1hJywgJzIwMCcsICctbWV0YWxfYmluZGluZycsICctaW1hZScsICc8aW5maWxlLm1hZT4nLCAnLW9tYWUnLCAnPG91dGZpbGUubWFlPic=

> <r_lp_tautomer_probability>
0.785861

> <r_epik_Ionization_Penalty>
5.15801e-05

> <r_epik_Ionization_Penalty_Charging>
0

> <r_epik_Ionization_Penalty_Neutral>
5.15801e-05

> <r_epik_State_Penalty>
0.0205761

> <r_epik_Charging_Adjusted_Penalty>
0.0205761

> <i_epik_Tot_Q>
0

> <i_epik_Tot_abs_Q>
0

> <r_epik_Metal_State_Penalty>
0.0168939

> <b_epik_Metal_Only>
0

> <s_lp_Force_Field>
OPLS_2005

> <r_lp_Energy>
20.5401

> <b_lp_Chiralities_Consistent>
1

> <s_lp_Variant>
AV-unprocessed.smi:2247-1

> <Gold.Version>
5.8.1

> <Gold.Id.Protein>
6NUR|6NUR_protein|mol2

> <Gold.PLP.Fitness>
33.6841

> <Gold.PLP.PLP>
-25.3596

> <Gold.PLP.part.hbond>
-2.0000

> <Gold.PLP.part.metal>
0.0000

> <Gold.PLP.part.buried>
-2.9938

> <Gold.PLP.part.nonpolar>
-21.4390

> <Gold.PLP.part.repulsive>
0.6241

> <Gold.PLP.ligand.clash>
0.0000

> <Gold.PLP.ligand.torsion>
0.2717

> <Gold.PLP.Chemscore.Hbond>
1.9440

> <Gold.PLP.Chemscore.CHOScore>
0.9837

> <Gold.PLP.Chemscore.Metal>
0.0000

> <Gold.Chemscore.Hbonds>
donor molecule, donor type, donor heavy atom, donor atom, acceptor molecule, acceptor atom, score
      L1  H     8    31       P1  7948  0.94
      L1  H    11    32       P1  7948  1.00
      L1  C    14    33       P1 10186  0.98

> <Gold.PLP.Chemscore.Internal.Correction>
0.0848

> <Gold.Rescore>
     Score         DG    S(hbond)    S(metal)    S(lipo)     H(rot)  DE(clash)    DE(int)     intcor
     13.02     -14.45       1.92        0.00      50.99       1.33       0.01       1.42       ----

> <Gold.Chemscore.Fitness>
13.0182

> <Gold.Chemscore.DG>
-14.4456

> <Gold.Chemscore.ZeroCoef>
-5.4800

> <Gold.Chemscore.Hbond>
1.9206

> <Gold.Chemscore.Metal>
0.0000

> <Gold.Chemscore.Lipo>
50.9865

> <Gold.Chemscore.Internal_Hbond>
0.0000

> <Gold.Chemscore.DEClash>
0.0073

> <Gold.Chemscore.DEInternal>
1.4201

> <Gold.Chemscore.Rot>
1.3338

> <Gold.Chemscore.Internal.Correction>
   9.000000E+99

> <Gold.Chemscore.Hbonds>
donor molecule, donor type, donor heavy atom, donor atom, acceptor molecule, acceptor atom, score
      L1  H     8    31       P1  7948  0.89
      L1  H    11    32       P1  7948  1.00

> <Gold.Chemscore.Hbond.Weighted>
-6.4147

> <Gold.Chemscore.Metal.Weighted>
-0.0000

> <Gold.Chemscore.Lipo.Weighted>
-5.9654

> <Gold.Chemscore.Internal_Hbond.Weighted>
0.0000

> <Gold.Chemscore.DEClash.Weighted>
0.0073

> <Gold.Chemscore.DEInternal.Weighted>
1.4201

> <Gold.Chemscore.Rot.Weighted>
3.4145

> <Gold.Chemscore.Internal.Correction.Weighted>
   9.000000E+99

> <Gold.Protein.RotatedTorsions>
[ 6907 6896 6895 6894 ] final  -53.15 input  -60.11 | X-H torsion
[ 7974 7965 7964 7962 ] final -166.74 input  175.53 | X-H torsion
[ 8008 7997 7996 7995 ] final  -26.60 input   59.86 | X-H torsion
[ 10167 10162 10161 10158 ] final   76.14 input  -65.29 | X-H torsion
[ 10718 10713 10712 10709 ] final  -86.15 input   66.30 | X-H torsion
[ 10763 10752 10751 10750 ] final   53.90 input  -60.55 | X-H torsion
[ 11005 11000 10999 10996 ] final   63.52 input  -57.11 | X-H torsion

> <Gold.Protein.ActiveResidues>
 VAL166  LYS551  ARG553  GLY616  TRP617  ASP618  TYR619  PRO620  LYS621  CYS622 
 ASP623  PHE694  ASN695  SER759  ASP760  ASP761  ALA762  ILE779  LEU786  VAL792 
 PHE793  MET794  SER795  GLU796  ALA797  LYS798  CYS799  TRP800  GLU811  SER814 

> <Gold.Protein.RotatedAtoms>
  150.8452  134.7759  159.6964 H   0  0  0  0  0  0  0  0  0  0  0  0  # atno 6907 bound_to 6896
  152.4531  134.5348  159.9831 H   0  0  0  0  0  0  0  0  0  0  0  0  # atno 6908 bound_to 6896
  151.5480  133.3384  159.2983 H   0  0  0  0  0  0  0  0  0  0  0  0  # atno 6909 bound_to 6896
  144.7238  140.2622  143.6263 H   0  0  0  0  0  0  0  0  0  0  0  0  # atno 7974 bound_to 7965
  154.4417  140.1895  156.0801 H   0  0  0  0  0  0  0  0  0  0  0  0  # atno 8008 bound_to 7997
  156.0445  140.3316  155.7255 H   0  0  0  0  0  0  0  0  0  0  0  0  # atno 8009 bound_to 7997
  155.5649  140.0607  157.2811 H   0  0  0  0  0  0  0  0  0  0  0  0  # atno 8010 bound_to 7997
  139.9955  144.5725  150.7782 H   0  0  0  0  0  0  0  0  0  0  0  0  # atno 10167 bound_to 10162
  155.9991  130.4755  150.4671 H   0  0  0  0  0  0  0  0  0  0  0  0  # atno 10718 bound_to 10713
  152.9799  135.5763  154.4816 H   0  0  0  0  0  0  0  0  0  0  0  0  # atno 10763 bound_to 10752
  154.4364  135.2775  155.1880 H   0  0  0  0  0  0  0  0  0  0  0  0  # atno 10764 bound_to 10752
  154.3566  135.6197  153.5723 H   0  0  0  0  0  0  0  0  0  0  0  0  # atno 10765 bound_to 10752
  140.0019  134.6429  155.9917 H   0  0  0  0  0  0  0  0  0  0  0  0  # atno 11005 bound_to 11000
  145.8125  139.2009  143.1985 LP  0  0  0  0  0  0  0  0  0  0  0  0  # atno 17320 bound_to 7965
  146.0584  140.7996  142.9747 LP  0  0  0  0  0  0  0  0  0  0  0  0  # atno 17321 bound_to 7965
  140.7439  143.2852  151.3483 LP  0  0  0  0  0  0  0  0  0  0  0  0  # atno 17342 bound_to 10162
  139.6309  144.0722  152.2475 LP  0  0  0  0  0  0  0  0  0  0  0  0  # atno 17343 bound_to 10162
  157.2690  131.0583  151.2272 LP  0  0  0  0  0  0  0  0  0  0  0  0  # atno 17370 bound_to 10713
  157.3359  130.7008  149.6352 LP  0  0  0  0  0  0  0  0  0  0  0  0  # atno 17371 bound_to 10713
  141.1648  133.6537  156.4442 LP  0  0  0  0  0  0  0  0  0  0  0  0  # atno 17394 bound_to 11000
  140.4712  134.6751  157.5130 LP  0  0  0  0  0  0  0  0  0  0  0  0  # atno 17395 bound_to 11000

$$$$
