AV-unprocessed.smi:1049|AV-procd|sdf|4609|dock4
  -GOLD-   22720 3103D 1   1.00000     0.00000
 Structure written by MMmdl.
 40 41  0  0  0  0  0  0  0  0  1 V2000
  153.1099  142.8424  162.6971 C   0  0  0  0  0  0  0  0  0  0  0  0
  152.4556  143.0358  161.3222 C   0  0  1  0  0  0  0  0  0  0  0  0
  152.1038  144.5176  161.0651 C   0  0  0  0  0  0  0  0  0  0  0  0
  151.5600  144.7429  159.6417 C   0  0  0  0  0  0  0  0  0  0  0  0
  152.4941  144.1154  158.5917 C   0  0  0  0  0  0  0  0  0  0  0  0
  152.6591  142.6846  158.9022 N   0  0  0  0  0  0  0  0  0  0  0  0
  152.0754  141.6498  158.2458 C   0  0  0  0  0  0  0  0  0  0  0  0
  152.2697  140.4682  158.5360 O   0  0  0  0  0  0  0  0  0  0  0  0
  151.2700  142.0107  157.2331 N   0  0  0  0  0  0  0  0  0  0  0  0
  150.4695  141.0976  156.4238 C   0  0  0  0  0  0  0  0  0  0  0  0
  149.2271  141.7767  155.8121 C   0  0  0  0  0  0  0  0  0  0  0  0
  148.5354  140.9547  154.7654 C   0  0  0  0  0  0  0  0  0  0  0  0
  149.0549  139.8559  154.2250 N   0  0  0  0  0  0  0  0  0  0  0  0
  148.0903  139.4099  153.3291 C   0  0  0  0  0  0  0  0  0  0  0  0
  147.0126  140.2612  153.3603 C   0  0  0  0  0  0  0  0  0  0  0  0
  147.3034  141.2410  154.3026 N   0  0  0  0  0  0  0  0  0  0  0  0
  146.4584  142.3659  154.6644 C   0  0  0  0  0  0  0  0  0  0  0  0
  146.1511  143.0684  153.5746 F   0  0  0  0  0  0  0  0  0  0  0  0
  145.3418  141.9393  155.2552 F   0  0  0  0  0  0  0  0  0  0  0  0
  153.3496  142.4967  160.1849 C   0  0  0  0  0  0  0  0  0  0  0  0
  154.0497  143.3907  162.7704 H   0  0  0  0  0  0  0  0  0  0  0  0
  153.3228  141.7896  162.8848 H   0  0  0  0  0  0  0  0  0  0  0  0
  152.4554  143.1939  163.4953 H   0  0  0  0  0  0  0  0  0  0  0  0
  151.5262  142.4639  161.3173 H   0  0  0  0  0  0  0  0  0  0  0  0
  151.3776  144.8675  161.7996 H   0  0  0  0  0  0  0  0  0  0  0  0
  152.9973  145.1284  161.2010 H   0  0  0  0  0  0  0  0  0  0  0  0
  150.5662  144.3021  159.5557 H   0  0  0  0  0  0  0  0  0  0  0  0
  151.4422  145.8099  159.4520 H   0  0  0  0  0  0  0  0  0  0  0  0
  152.1093  144.3122  157.5911 H   0  0  0  0  0  0  0  0  0  0  0  0
  153.4697  144.6025  158.6247 H   0  0  0  0  0  0  0  0  0  0  0  0
  151.1663  142.9972  157.0449 H   0  0  0  0  0  0  0  0  0  0  0  0
  151.1126  140.7270  155.6258 H   0  0  0  0  0  0  0  0  0  0  0  0
  150.1771  140.2264  157.0116 H   0  0  0  0  0  0  0  0  0  0  0  0
  148.5175  142.0334  156.5989 H   0  0  0  0  0  0  0  0  0  0  0  0
  149.5187  142.7248  155.3586 H   0  0  0  0  0  0  0  0  0  0  0  0
  148.2477  138.5230  152.7333 H   0  0  0  0  0  0  0  0  0  0  0  0
  146.0849  140.2476  152.8072 H   0  0  0  0  0  0  0  0  0  0  0  0
  146.9718  143.0227  155.3663 H   0  0  0  0  0  0  0  0  0  0  0  0
  154.3004  143.0317  160.1653 H   0  0  0  0  0  0  0  0  0  0  0  0
  153.6061  141.4523  160.3692 H   0  0  0  0  0  0  0  0  0  0  0  0
  1  2  1  0  0  0  0
  1 21  1  0  0  0  0
  1 22  1  0  0  0  0
  1 23  1  0  0  0  0
  2 20  1  0  0  0  0
  2  3  1  0  0  0  0
  2 24  1  0  0  0  0
  3  4  1  0  0  0  0
  3 25  1  0  0  0  0
  3 26  1  0  0  0  0
  4  5  1  0  0  0  0
  4 27  1  0  0  0  0
  4 28  1  0  0  0  0
  5  6  1  0  0  0  0
  5 29  1  0  0  0  0
  5 30  1  0  0  0  0
  6  7  1  0  0  0  0
  6 20  1  0  0  0  0
  7  8  2  0  0  0  0
  7  9  1  0  0  0  0
  9 10  1  0  0  0  0
  9 31  1  0  0  0  0
 10 11  1  0  0  0  0
 10 32  1  0  0  0  0
 10 33  1  0  0  0  0
 11 12  1  0  0  0  0
 11 34  1  0  0  0  0
 11 35  1  0  0  0  0
 12 16  1  0  0  0  0
 12 13  2  0  0  0  0
 13 14  1  0  0  0  0
 14 15  2  0  0  0  0
 14 36  1  0  0  0  0
 15 16  1  0  0  0  0
 15 37  1  0  0  0  0
 16 17  1  0  0  0  0
 17 18  1  0  0  0  0
 17 19  1  0  0  0  0
 17 38  1  0  0  0  0
 20 39  1  0  0  0  0
 20 40  1  0  0  0  0
M  END
> <s_m_source_file>
AV-unprocessed.smi

> <i_m_source_file_index>
1049

> <i_lp_mmshare_version>
43012

> <i_f3d_flags>
0

> <s_epik_input>
W0NIM11bQ0BASF0xW0NIMl1bQ0gyXVtDSDJdTihbQ0gyXTEpQyg9TylbTkhdW0NIMl1bQ0gyXWMybltjSF1bY0hdbjJbQ0hdKEYpRg==

> <s_epik_cmdline>
J2VwaWtfcHl0aG9uJywgJy1waCcsICc3LjAnLCAnLXRuJywgJzgnLCAnLW1hJywgJzIwMCcsICctbWV0YWxfYmluZGluZycsICctaW1hZScsICc8aW5maWxlLm1hZT4nLCAnLW9tYWUnLCAnPG91dGZpbGUubWFlPic=

> <r_lp_tautomer_probability>
1

> <r_epik_Ionization_Penalty>
0.101141

> <r_epik_Ionization_Penalty_Charging>
0.101077

> <r_epik_Ionization_Penalty_Neutral>
6.38597e-05

> <r_epik_State_Penalty>
0.091079

> <r_epik_Charging_Adjusted_Penalty>
0.192156

> <i_epik_Tot_Q>
0

> <i_epik_Tot_abs_Q>
0

> <r_epik_Metal_State_Penalty>
0.0777008

> <b_epik_Metal_Only>
0

> <s_lp_Force_Field>
OPLS_2005

> <r_lp_Energy>
32.9855

> <b_lp_Chiralities_Consistent>
1

> <s_lp_Variant>
AV-unprocessed.smi:1049-2

> <Gold.Version>
5.8.1

> <Gold.Id.Protein>
6NUR|6NUR_protein|mol2

> <Gold.PLP.Fitness>
53.7722

> <Gold.PLP.PLP>
-48.1270

> <Gold.PLP.part.hbond>
0.0000

> <Gold.PLP.part.metal>
0.0000

> <Gold.PLP.part.buried>
-1.3514

> <Gold.PLP.part.nonpolar>
-46.6677

> <Gold.PLP.part.repulsive>
0.7806

> <Gold.PLP.ligand.clash>
0.0000

> <Gold.PLP.ligand.torsion>
0.4244

> <Gold.PLP.Chemscore.Hbond>
0.0000

> <Gold.PLP.Chemscore.CHOScore>
2.1492

> <Gold.PLP.Chemscore.Metal>
0.0000

> <Gold.Chemscore.Hbonds>
donor molecule, donor type, donor heavy atom, donor atom, acceptor molecule, acceptor atom, score
      L1  C    14    36       P1  7948  1.00
      L1  C    14    36       P1  7957  0.13
      L1  C    15    37       P1 10175  1.00

> <Gold.PLP.Chemscore.Internal.Correction>
0.0465

> <Gold.Rescore>
     Score         DG    S(hbond)    S(metal)    S(lipo)     H(rot)  DE(clash)    DE(int)     intcor
     13.21     -13.65       0.00        0.00     104.03       1.56       0.08       0.36       ----

> <Gold.Chemscore.Fitness>
13.2053

> <Gold.Chemscore.DG>
-13.6511

> <Gold.Chemscore.ZeroCoef>
-5.4800

> <Gold.Chemscore.Hbond>
0.0000

> <Gold.Chemscore.Metal>
0.0000

> <Gold.Chemscore.Lipo>
104.0299

> <Gold.Chemscore.Internal_Hbond>
0.0000

> <Gold.Chemscore.DEClash>
0.0829

> <Gold.Chemscore.DEInternal>
0.3629

> <Gold.Chemscore.Rot>
1.5626

> <Gold.Chemscore.Internal.Correction>
   9.000000E+99

> <Gold.Chemscore.Hbond.Weighted>
-0.0000

> <Gold.Chemscore.Metal.Weighted>
-0.0000

> <Gold.Chemscore.Lipo.Weighted>
-12.1715

> <Gold.Chemscore.Internal_Hbond.Weighted>
0.0000

> <Gold.Chemscore.DEClash.Weighted>
0.0829

> <Gold.Chemscore.DEInternal.Weighted>
0.3629

> <Gold.Chemscore.Rot.Weighted>
4.0004

> <Gold.Chemscore.Internal.Correction.Weighted>
   9.000000E+99

> <Gold.Protein.RotatedTorsions>
[ 6907 6896 6895 6894 ] final   66.22 input  -60.11 | X-H torsion
[ 7974 7965 7964 7962 ] final   48.25 input  175.53 | X-H torsion
[ 8008 7997 7996 7995 ] final   15.12 input   59.86 | X-H torsion
[ 10167 10162 10161 10158 ] final   76.31 input  -65.29 | X-H torsion
[ 10718 10713 10712 10709 ] final -121.39 input   66.30 | X-H torsion
[ 10763 10752 10751 10750 ] final -100.37 input  -60.55 | X-H torsion
[ 11005 11000 10999 10996 ] final  -51.46 input  -57.11 | X-H torsion

> <Gold.Protein.ActiveResidues>
 VAL166  LYS551  ARG553  GLY616  TRP617  ASP618  TYR619  PRO620  LYS621  CYS622 
 ASP623  PHE694  ASN695  SER759  ASP760  ASP761  ALA762  ILE779  LEU786  VAL792 
 PHE793  MET794  SER795  GLU796  ALA797  LYS798  CYS799  TRP800  GLU811  SER814 

> <Gold.Protein.RotatedAtoms>
  152.4465  134.5484  159.9859 H   0  0  0  0  0  0  0  0  0  0  0  0  # atno 6907 bound_to 6896
  151.5567  133.3403  159.2971 H   0  0  0  0  0  0  0  0  0  0  0  0  # atno 6908 bound_to 6896
  150.8382  134.7697  159.6974 H   0  0  0  0  0  0  0  0  0  0  0  0  # atno 6909 bound_to 6896
  146.0221  139.4664  142.9890 H   0  0  0  0  0  0  0  0  0  0  0  0  # atno 7974 bound_to 7965
  154.8581  140.2940  155.5556 H   0  0  0  0  0  0  0  0  0  0  0  0  # atno 8008 bound_to 7997
  156.3019  140.2483  156.3483 H   0  0  0  0  0  0  0  0  0  0  0  0  # atno 8009 bound_to 7997
  154.8948  140.0393  157.1849 H   0  0  0  0  0  0  0  0  0  0  0  0  # atno 8010 bound_to 7997
  139.9936  144.5739  150.7797 H   0  0  0  0  0  0  0  0  0  0  0  0  # atno 10167 bound_to 10162
  156.1334  130.6412  150.9657 H   0  0  0  0  0  0  0  0  0  0  0  0  # atno 10718 bound_to 10713
  154.7574  135.4937  153.9399 H   0  0  0  0  0  0  0  0  0  0  0  0  # atno 10763 bound_to 10752
  153.1211  135.6732  153.9342 H   0  0  0  0  0  0  0  0  0  0  0  0  # atno 10764 bound_to 10752
  153.9073  135.3103  155.3427 H   0  0  0  0  0  0  0  0  0  0  0  0  # atno 10765 bound_to 10752
  141.0872  133.6640  156.3881 H   0  0  0  0  0  0  0  0  0  0  0  0  # atno 11005 bound_to 11000
  145.7176  141.0086  143.1420 LP  0  0  0  0  0  0  0  0  0  0  0  0  # atno 17320 bound_to 7965
  144.6994  139.8831  143.7448 LP  0  0  0  0  0  0  0  0  0  0  0  0  # atno 17321 bound_to 7965
  140.7445  143.2862  151.3456 LP  0  0  0  0  0  0  0  0  0  0  0  0  # atno 17342 bound_to 10162
  139.6322  144.0698  152.2486 LP  0  0  0  0  0  0  0  0  0  0  0  0  # atno 17343 bound_to 10162
  157.6509  131.0897  150.8053 LP  0  0  0  0  0  0  0  0  0  0  0  0  # atno 17370 bound_to 10713
  156.8135  130.4960  149.5352 LP  0  0  0  0  0  0  0  0  0  0  0  0  # atno 17371 bound_to 10713
  140.5335  134.6189  157.5357 LP  0  0  0  0  0  0  0  0  0  0  0  0  # atno 17394 bound_to 11000
  139.9692  134.7321  156.0075 LP  0  0  0  0  0  0  0  0  0  0  0  0  # atno 17395 bound_to 11000

$$$$
