AV-unprocessed.smi:54|AV-procd|sdf|535|dock7
  -GOLD-   2262016413D 1   1.00000     0.00000
 Structure written by MMmdl.
 44 46  0  0  0  0  0  0  0  0  1 V2000
  152.0092  143.3191  161.2420 C   0  0  0  0  0  0  0  0  0  0  0  0
  152.7561  143.3096  159.8983 C   0  0  0  0  0  0  0  0  0  0  0  0
  152.0703  144.2249  158.8712 C   0  0  0  0  0  0  0  0  0  0  0  0
  152.8704  141.8808  159.3567 C   0  0  0  0  0  0  0  0  0  0  0  0
  153.6217  141.0460  159.8612 O   0  0  0  0  0  0  0  0  0  0  0  0
  152.0258  141.5694  158.2209 N   0  0  0  0  0  0  0  0  0  0  0  0
  151.9798  140.3857  157.5722 C   0  0  0  0  0  0  0  0  0  0  0  0
  151.2803  140.2168  156.4600 N   0  0  0  0  0  0  0  0  0  0  0  0
  151.3277  138.9539  155.9343 C   0  0  0  0  0  0  0  0  0  0  0  0
  152.0230  137.8840  156.4652 C   0  0  0  0  0  0  0  0  0  0  0  0
  151.8627  136.7593  155.6676 N   0  0  0  0  0  0  0  0  0  0  0  0
  151.0894  137.1674  154.7032 C   0  0  0  0  0  0  0  0  0  0  0  0
  150.6932  138.4807  154.7943 N   0  0  0  0  0  0  0  0  0  0  0  0
  149.8076  139.2019  153.8137 C   0  0  2  0  0  0  0  0  0  0  0  0
  149.7401  140.5455  154.1721 O   0  0  0  0  0  0  0  0  0  0  0  0
  148.5564  140.7951  154.9167 C   0  0  1  0  0  0  0  0  0  0  0  0
  148.1562  142.2718  154.7778 C   0  0  0  0  0  0  0  0  0  0  0  0
  146.9470  142.5157  155.4639 O   0  0  0  0  0  0  0  0  0  0  0  0
  147.5360  139.8308  154.2914 C   0  0  2  0  0  0  0  0  0  0  0  0
  146.6107  139.3945  155.2662 O   0  0  0  0  0  0  0  0  0  0  0  0
  148.3700  138.6567  153.7725 C   0  0  1  0  0  0  0  0  0  0  0  0
  147.9837  138.3360  152.4511 O   0  0  0  0  0  0  0  0  0  0  0  0
  152.7680  138.0472  157.6807 C   0  0  0  0  0  0  0  0  0  0  0  0
  153.4263  137.2061  158.2893 O   0  0  0  0  0  0  0  0  0  0  0  0
  152.6871  139.3518  158.1800 N   0  0  0  0  0  0  0  0  0  0  0  0
  150.3344  139.0981  152.8639 H   0  0  0  0  0  0  0  0  0  0  0  0
  148.7312  140.5499  155.9634 H   0  0  0  0  0  0  0  0  0  0  0  0
  147.0062  140.3220  153.4733 H   0  0  0  0  0  0  0  0  0  0  0  0
  148.2796  137.7591  154.3841 H   0  0  0  0  0  0  0  0  0  0  0  0
  152.4855  142.6570  161.9664 H   0  0  0  0  0  0  0  0  0  0  0  0
  150.9734  142.9965  161.1279 H   0  0  0  0  0  0  0  0  0  0  0  0
  151.9968  144.3201  161.6735 H   0  0  0  0  0  0  0  0  0  0  0  0
  153.7643  143.6893  160.0709 H   0  0  0  0  0  0  0  0  0  0  0  0
  152.5966  144.2146  157.9160 H   0  0  0  0  0  0  0  0  0  0  0  0
  152.0513  145.2570  159.2218 H   0  0  0  0  0  0  0  0  0  0  0  0
  151.0392  143.9200  158.6868 H   0  0  0  0  0  0  0  0  0  0  0  0
  151.3666  142.2800  157.9388 H   0  0  0  0  0  0  0  0  0  0  0  0
  150.7781  136.5145  153.9006 H   0  0  0  0  0  0  0  0  0  0  0  0
  148.9423  142.9334  155.1430 H   0  0  0  0  0  0  0  0  0  0  0  0
  147.9885  142.5151  153.7281 H   0  0  0  0  0  0  0  0  0  0  0  0
  147.0896  143.2127  156.0859 H   0  0  0  0  0  0  0  0  0  0  0  0
  146.8611  139.7622  156.1008 H   0  0  0  0  0  0  0  0  0  0  0  0
  148.3517  138.9808  151.8665 H   0  0  0  0  0  0  0  0  0  0  0  0
  153.1908  139.5421  159.0338 H   0  0  0  0  0  0  0  0  0  0  0  0
  1  2  1  0  0  0  0
  1 30  1  0  0  0  0
  1 31  1  0  0  0  0
  1 32  1  0  0  0  0
  2  3  1  0  0  0  0
  2  4  1  0  0  0  0
  2 33  1  0  0  0  0
  3 34  1  0  0  0  0
  3 35  1  0  0  0  0
  3 36  1  0  0  0  0
  4  5  2  0  0  0  0
  4  6  1  0  0  0  0
  6 37  1  0  0  0  0
  6  7  1  0  0  0  0
  7 25  1  0  0  0  0
  7  8  2  0  0  0  0
  8  9  1  0  0  0  0
  9 13  1  0  0  0  0
  9 10  2  0  0  0  0
 10 11  1  0  0  0  0
 10 23  1  0  0  0  0
 11 12  2  0  0  0  0
 12 13  1  0  0  0  0
 12 38  1  0  0  0  0
 13 14  1  0  0  0  0
 14 26  1  0  0  0  0
 14 21  1  0  0  0  0
 14 15  1  0  0  0  0
 15 16  1  0  0  0  0
 16 27  1  0  0  0  0
 16 17  1  0  0  0  0
 16 19  1  0  0  0  0
 17 18  1  0  0  0  0
 17 39  1  0  0  0  0
 17 40  1  0  0  0  0
 18 41  1  0  0  0  0
 19 28  1  0  0  0  0
 19 20  1  0  0  0  0
 19 21  1  0  0  0  0
 20 42  1  0  0  0  0
 21 29  1  0  0  0  0
 21 22  1  0  0  0  0
 22 43  1  0  0  0  0
 23 24  2  0  0  0  0
 23 25  1  0  0  0  0
 25 44  1  0  0  0  0
M  END
> <s_m_source_file>
AV-unprocessed.smi

> <i_m_source_file_index>
54

> <i_lp_mmshare_version>
43012

> <i_f3d_flags>
0

> <s_epik_input>
W0NIM11bQ0hdKFtDSDNdKUMoPU8pW05IXWMobjEpW25IXWMoPU8pYyhjMTIpbltjSF1uMltDQEBIXTNPW0NASF0oW0NIMl1bT0hdKVtDQEBIXShbT0hdKVtDQEhdM1tPSF0=

> <s_epik_cmdline>
J2VwaWtfcHl0aG9uJywgJy1waCcsICc3LjAnLCAnLXRuJywgJzgnLCAnLW1hJywgJzIwMCcsICctbWV0YWxfYmluZGluZycsICctaW1hZScsICc8aW5maWxlLm1hZT4nLCAnLW9tYWUnLCAnPG91dGZpbGUubWFlPic=

> <r_lp_tautomer_probability>
0.85571

> <r_epik_Ionization_Penalty>
0.0316551

> <r_epik_Ionization_Penalty_Charging>
0.0316043

> <r_epik_Ionization_Penalty_Neutral>
5.07097e-05

> <r_epik_State_Penalty>
3.15494e-07

> <r_epik_Charging_Adjusted_Penalty>
0.0316047

> <i_epik_Tot_Q>
0

> <i_epik_Tot_abs_Q>
0

> <r_epik_Metal_State_Penalty>
0.421206

> <b_epik_Metal_Only>
0

> <s_epik_Chemistry_Notes>
This compound contains an acetal/aminal-like group ( X-CH(R)-Y where X, Y are N, S, or O) that may be acid/base labile, releasing an aldehyde.

> <s_lp_Force_Field>
OPLS_2005

> <r_lp_Energy>
37.5812

> <b_lp_Chiralities_Consistent>
1

> <s_lp_Variant>
AV-unprocessed.smi:54-7

> <Gold.Version>
5.8.1

> <Gold.Id.Protein>
6NUR|6NUR_protein|mol2

> <Gold.PLP.Fitness>
45.5346

> <Gold.PLP.PLP>
-36.3903

> <Gold.PLP.part.hbond>
-4.5712

> <Gold.PLP.part.metal>
0.0000

> <Gold.PLP.part.buried>
0.9016

> <Gold.PLP.part.nonpolar>
-33.4682

> <Gold.PLP.part.repulsive>
0.9606

> <Gold.PLP.ligand.clash>
0.5712

> <Gold.PLP.ligand.torsion>
0.4060

> <Gold.PLP.Chemscore.Hbond>
2.5650

> <Gold.PLP.Chemscore.CHOScore>
0.9324

> <Gold.PLP.Chemscore.Metal>
0.0000

> <Gold.Chemscore.Hbonds>
donor molecule, donor type, donor heavy atom, donor atom, acceptor molecule, acceptor atom, score
      L1  H    18    41       P1  8028  0.03
      L1  H    22    43       P1  7957  1.00
      P1  H  7989  7998       L1    15  0.42
      P1  H 10752 10764       L1    11  1.00
      L1  C    12    38       P1  7948  0.18
      L1  C    12    38       P1  7949  0.77

> <Gold.PLP.Chemscore.Internal.Correction>
0.0352

> <Gold.Rescore>
     Score         DG    S(hbond)    S(metal)    S(lipo)     H(rot)  DE(clash)    DE(int)     intcor
      4.43      -9.11       1.93        0.00      64.67       4.05       3.19       1.49       ----

> <Gold.Chemscore.Fitness>
4.4280

> <Gold.Chemscore.DG>
-9.1104

> <Gold.Chemscore.ZeroCoef>
-5.4800

> <Gold.Chemscore.Hbond>
1.9252

> <Gold.Chemscore.Metal>
0.0000

> <Gold.Chemscore.Lipo>
64.6694

> <Gold.Chemscore.Internal_Hbond>
0.0000

> <Gold.Chemscore.DEClash>
3.1889

> <Gold.Chemscore.DEInternal>
1.4935

> <Gold.Chemscore.Rot>
4.0493

> <Gold.Chemscore.Internal.Correction>
   9.000000E+99

> <Gold.Chemscore.Hbonds>
donor molecule, donor type, donor heavy atom, donor atom, acceptor molecule, acceptor atom, score
      L1  H    22    43       P1  7957  0.94
      P1  H  7989  7998       L1    15  0.03
      P1  H 10752 10764       L1    11  0.55

> <Gold.Chemscore.Hbond.Weighted>
-6.4303

> <Gold.Chemscore.Metal.Weighted>
-0.0000

> <Gold.Chemscore.Lipo.Weighted>
-7.5663

> <Gold.Chemscore.Internal_Hbond.Weighted>
0.0000

> <Gold.Chemscore.DEClash.Weighted>
3.1889

> <Gold.Chemscore.DEInternal.Weighted>
1.4935

> <Gold.Chemscore.Rot.Weighted>
10.3662

> <Gold.Chemscore.Internal.Correction.Weighted>
   9.000000E+99

> <Gold.Protein.RotatedTorsions>
[ 6907 6896 6895 6894 ] final   44.37 input  -60.11 | X-H torsion
[ 7974 7965 7964 7962 ] final -150.68 input  175.53 | X-H torsion
[ 8008 7997 7996 7995 ] final  145.45 input   59.86 | X-H torsion
[ 10167 10162 10161 10158 ] final -136.36 input  -65.29 | X-H torsion
[ 10718 10713 10712 10709 ] final -153.12 input   66.30 | X-H torsion
[ 10763 10752 10751 10750 ] final  -41.23 input  -60.55 | X-H torsion
[ 11005 11000 10999 10996 ] final   39.61 input  -57.11 | X-H torsion

> <Gold.Protein.ActiveResidues>
 VAL166  LYS551  ARG553  GLY616  TRP617  ASP618  TYR619  PRO620  LYS621  CYS622 
 ASP623  PHE694  ASN695  SER759  ASP760  ASP761  ALA762  ILE779  LEU786  VAL792 
 PHE793  MET794  SER795  GLU796  ALA797  LYS798  CYS799  TRP800  GLU811  SER814 

> <Gold.Protein.RotatedAtoms>
  152.2317  134.8315  160.0472 H   0  0  0  0  0  0  0  0  0  0  0  0  # atno 6907 bound_to 6896
  151.9062  133.3545  159.3856 H   0  0  0  0  0  0  0  0  0  0  0  0  # atno 6908 bound_to 6896
  150.7027  134.4704  159.5466 H   0  0  0  0  0  0  0  0  0  0  0  0  # atno 6909 bound_to 6896
  144.7894  140.4900  143.5783 H   0  0  0  0  0  0  0  0  0  0  0  0  # atno 7974 bound_to 7965
  156.2882  140.2208  156.5218 H   0  0  0  0  0  0  0  0  0  0  0  0  # atno 8008 bound_to 7997
  154.7522  140.0479  157.0925 H   0  0  0  0  0  0  0  0  0  0  0  0  # atno 8009 bound_to 7997
  155.0095  140.3111  155.4838 H   0  0  0  0  0  0  0  0  0  0  0  0  # atno 8010 bound_to 7997
  139.8686  143.6986  152.2642 H   0  0  0  0  0  0  0  0  0  0  0  0  # atno 10167 bound_to 10162
  156.4816  130.8305  151.2532 H   0  0  0  0  0  0  0  0  0  0  0  0  # atno 10718 bound_to 10713
  153.9591  135.6741  153.4745 H   0  0  0  0  0  0  0  0  0  0  0  0  # atno 10763 bound_to 10752
  153.0847  135.4905  154.8569 H   0  0  0  0  0  0  0  0  0  0  0  0  # atno 10764 bound_to 10752
  154.7283  135.3132  154.8894 H   0  0  0  0  0  0  0  0  0  0  0  0  # atno 10765 bound_to 10752
  140.2011  134.3869  155.8096 H   0  0  0  0  0  0  0  0  0  0  0  0  # atno 11005 bound_to 11000
  145.5836  139.1490  143.3222 LP  0  0  0  0  0  0  0  0  0  0  0  0  # atno 17320 bound_to 7965
  146.2139  140.5964  142.9047 LP  0  0  0  0  0  0  0  0  0  0  0  0  # atno 17321 bound_to 7965
  139.7305  144.7583  151.0809 LP  0  0  0  0  0  0  0  0  0  0  0  0  # atno 17342 bound_to 10162
  140.7764  143.5094  150.9672 LP  0  0  0  0  0  0  0  0  0  0  0  0  # atno 17343 bound_to 10162
  157.7483  131.0043  150.3071 LP  0  0  0  0  0  0  0  0  0  0  0  0  # atno 17370 bound_to 10713
  156.3516  130.3832  149.7324 LP  0  0  0  0  0  0  0  0  0  0  0  0  # atno 17371 bound_to 10713
  141.2227  133.7094  156.8259 LP  0  0  0  0  0  0  0  0  0  0  0  0  # atno 17394 bound_to 11000
  140.2053  134.8867  157.3215 LP  0  0  0  0  0  0  0  0  0  0  0  0  # atno 17395 bound_to 11000

$$$$
