AV-unprocessed.smi:123|AV-procd|sdf|1144|dock7
  -GOLD-   2262018273D 1   1.00000     0.00000
 Structure written by MMmdl.
 43 45  0  0  0  0  0  0  0  0  1 V2000
  158.4526  142.3369  165.1436 C   0  0  0  0  0  0  0  0  0  0  0  0
  157.4695  143.5071  165.0002 C   0  0  1  0  0  0  0  0  0  0  0  0
  156.1872  143.0130  164.5166 N   0  0  0  0  0  0  0  0  0  0  0  0
  155.0929  143.7416  164.2399 C   0  0  0  0  0  0  0  0  0  0  0  0
  155.0687  144.9694  164.3135 O   0  0  0  0  0  0  0  0  0  0  0  0
  153.8161  142.9855  163.8253 C   0  0  0  0  0  0  0  0  0  0  0  0
  153.7667  142.6088  162.3925 N   0  0  0  0  0  0  0  0  0  0  0  0
  154.6020  141.5608  161.9322 C   0  0  0  0  0  0  0  0  0  0  0  0
  155.3799  140.9828  162.6921 O   0  0  0  0  0  0  0  0  0  0  0  0
  154.4607  141.2165  160.5219 C   0  0  0  0  0  0  0  0  0  0  0  0
  155.2303  140.2499  159.9931 F   0  0  0  0  0  0  0  0  0  0  0  0
  153.5626  141.8481  159.7381 C   0  0  0  0  0  0  0  0  0  0  0  0
  152.7302  142.8488  160.2087 N   0  0  0  0  0  0  0  0  0  0  0  0
  151.7038  143.5285  159.3246 C   0  0  2  0  0  0  0  0  0  0  0  0
  151.4900  142.7256  158.0241 C   0  0  0  0  0  0  0  0  0  0  0  0
  151.7440  143.7550  156.9402 C   0  0  0  0  0  0  0  0  0  0  0  0
  152.7005  144.7157  157.6299 C   0  0  0  0  0  0  0  0  0  0  0  0
  152.1660  144.7933  158.9443 O   0  0  0  0  0  0  0  0  0  0  0  0
  152.8387  143.2691  161.5518 C   0  0  0  0  0  0  0  0  0  0  0  0
  152.1249  144.1764  161.9852 O   0  0  0  0  0  0  0  0  0  0  0  0
  157.2722  144.2450  166.2856 C   0  0  0  0  0  0  0  0  0  0  0  0
  156.1745  144.5130  167.0560 C   0  0  0  0  0  0  0  0  0  0  0  0
  156.6384  145.2688  168.1683 C   0  0  0  0  0  0  0  0  0  0  0  0
  157.9846  145.4137  167.9908 C   0  0  0  0  0  0  0  0  0  0  0  0
  158.3874  144.7985  166.8461 O   0  0  0  0  0  0  0  0  0  0  0  0
  159.4280  142.6858  165.4836 H   0  0  0  0  0  0  0  0  0  0  0  0
  158.5998  141.8268  164.1910 H   0  0  0  0  0  0  0  0  0  0  0  0
  158.0928  141.6007  165.8636 H   0  0  0  0  0  0  0  0  0  0  0  0
  157.8811  144.2089  164.2727 H   0  0  0  0  0  0  0  0  0  0  0  0
  156.1089  142.0110  164.4209 H   0  0  0  0  0  0  0  0  0  0  0  0
  153.7268  142.0984  164.4543 H   0  0  0  0  0  0  0  0  0  0  0  0
  152.9555  143.5934  164.1075 H   0  0  0  0  0  0  0  0  0  0  0  0
  153.5089  141.5435  158.7041 H   0  0  0  0  0  0  0  0  0  0  0  0
  150.8096  143.6300  159.9423 H   0  0  0  0  0  0  0  0  0  0  0  0
  152.2150  141.9139  157.9544 H   0  0  0  0  0  0  0  0  0  0  0  0
  150.4848  142.3050  157.9855 H   0  0  0  0  0  0  0  0  0  0  0  0
  152.1564  143.3223  156.0284 H   0  0  0  0  0  0  0  0  0  0  0  0
  150.8163  144.2698  156.6870 H   0  0  0  0  0  0  0  0  0  0  0  0
  153.7117  144.3068  157.6548 H   0  0  0  0  0  0  0  0  0  0  0  0
  152.7349  145.6946  157.1518 H   0  0  0  0  0  0  0  0  0  0  0  0
  155.1625  144.1994  166.8466 H   0  0  0  0  0  0  0  0  0  0  0  0
  156.0599  145.6585  168.9928 H   0  0  0  0  0  0  0  0  0  0  0  0
  158.7682  145.8983  168.5547 H   0  0  0  0  0  0  0  0  0  0  0  0
  1  2  1  0  0  0  0
  1 26  1  0  0  0  0
  1 27  1  0  0  0  0
  1 28  1  0  0  0  0
  2  3  1  0  0  0  0
  2 21  1  0  0  0  0
  2 29  1  0  0  0  0
  3  4  1  0  0  0  0
  3 30  1  0  0  0  0
  4  5  2  0  0  0  0
  4  6  1  0  0  0  0
  6  7  1  0  0  0  0
  6 31  1  0  0  0  0
  6 32  1  0  0  0  0
  7 19  1  0  0  0  0
  7  8  1  0  0  0  0
  8  9  2  0  0  0  0
  8 10  1  0  0  0  0
 10 11  1  0  0  0  0
 10 12  2  0  0  0  0
 12 13  1  0  0  0  0
 12 33  1  0  0  0  0
 13 14  1  0  0  0  0
 13 19  1  0  0  0  0
 14 18  1  0  0  0  0
 14 15  1  0  0  0  0
 14 34  1  0  0  0  0
 15 16  1  0  0  0  0
 15 35  1  0  0  0  0
 15 36  1  0  0  0  0
 16 17  1  0  0  0  0
 16 37  1  0  0  0  0
 16 38  1  0  0  0  0
 17 18  1  0  0  0  0
 17 39  1  0  0  0  0
 17 40  1  0  0  0  0
 19 20  2  0  0  0  0
 21 25  1  0  0  0  0
 21 22  2  0  0  0  0
 22 23  1  0  0  0  0
 22 41  1  0  0  0  0
 23 24  2  0  0  0  0
 23 42  1  0  0  0  0
 24 25  1  0  0  0  0
 24 43  1  0  0  0  0
M  END
> <s_m_source_file>
AV-unprocessed.smi

> <i_m_source_file_index>
123

> <i_lp_mmshare_version>
43012

> <i_f3d_flags>
0

> <s_epik_input>
bzFbY0hdW2NIXVtjSF1jMVtDQEhdKFtDSDNdKVtOSF1DKD1PKVtDSDJdbjJjKD1PKWMoRilbY0hdbihjMj1PKVtDQEBIXTNbQ0gyXVtDSDJdW0NIMl1PMw==

> <s_epik_cmdline>
J2VwaWtfcHl0aG9uJywgJy1waCcsICc3LjAnLCAnLXRuJywgJzgnLCAnLW1hJywgJzIwMCcsICctbWV0YWxfYmluZGluZycsICctaW1hZScsICc8aW5maWxlLm1hZT4nLCAnLW9tYWUnLCAnPG91dGZpbGUubWFlPic=

> <r_lp_tautomer_probability>
1

> <r_epik_Ionization_Penalty>
2.31906e-08

> <r_epik_Ionization_Penalty_Charging>
3.85846e-09

> <r_epik_Ionization_Penalty_Neutral>
1.93321e-08

> <r_epik_State_Penalty>
-0

> <r_epik_Charging_Adjusted_Penalty>
3.85846e-09

> <i_epik_Tot_Q>
0

> <i_epik_Tot_abs_Q>
0

> <r_epik_Metal_State_Penalty>
-0

> <b_epik_Metal_Only>
0

> <s_epik_Chemistry_Notes>
This compound contains an acetal/aminal-like group ( X-CH(R)-Y where X, Y are N, S, or O) that may be acid/base labile, releasing an aldehyde.

> <s_lp_Force_Field>
OPLS_2005

> <r_lp_Energy>
20.7844

> <b_lp_Chiralities_Consistent>
1

> <s_lp_Variant>
AV-unprocessed.smi:123-2

> <Gold.Version>
5.8.1

> <Gold.Id.Protein>
6NUR|6NUR_protein|mol2

> <Gold.PLP.Fitness>
48.3964

> <Gold.PLP.PLP>
-50.0158

> <Gold.PLP.part.hbond>
-3.0000

> <Gold.PLP.part.metal>
0.0000

> <Gold.PLP.part.buried>
-3.4632

> <Gold.PLP.part.nonpolar>
-45.7113

> <Gold.PLP.part.repulsive>
2.3575

> <Gold.PLP.ligand.clash>
0.0000

> <Gold.PLP.ligand.torsion>
0.8268

> <Gold.PLP.Chemscore.Hbond>
0.0000

> <Gold.PLP.Chemscore.CHOScore>
0.0000

> <Gold.PLP.Chemscore.Metal>
0.0000

> <Gold.PLP.Chemscore.Internal.Correction>
0.0342

> <Gold.Rescore>
     Score         DG    S(hbond)    S(metal)    S(lipo)     H(rot)  DE(clash)    DE(int)     intcor
     -0.30      -9.00       0.00        0.00      78.98       2.23       3.71       5.58       ----

> <Gold.Chemscore.Fitness>
-0.2953

> <Gold.Chemscore.DG>
-8.9996

> <Gold.Chemscore.ZeroCoef>
-5.4800

> <Gold.Chemscore.Hbond>
0.0000

> <Gold.Chemscore.Metal>
0.0000

> <Gold.Chemscore.Lipo>
78.9774

> <Gold.Chemscore.Internal_Hbond>
0.0000

> <Gold.Chemscore.DEClash>
3.7099

> <Gold.Chemscore.DEInternal>
5.5849

> <Gold.Chemscore.Rot>
2.2347

> <Gold.Chemscore.Internal.Correction>
   9.000000E+99

> <Gold.Chemscore.Hbond.Weighted>
-0.0000

> <Gold.Chemscore.Metal.Weighted>
-0.0000

> <Gold.Chemscore.Lipo.Weighted>
-9.2404

> <Gold.Chemscore.Internal_Hbond.Weighted>
0.0000

> <Gold.Chemscore.DEClash.Weighted>
3.7099

> <Gold.Chemscore.DEInternal.Weighted>
5.5849

> <Gold.Chemscore.Rot.Weighted>
5.7208

> <Gold.Chemscore.Internal.Correction.Weighted>
   9.000000E+99

> <Gold.Protein.RotatedTorsions>
[ 6907 6896 6895 6894 ] final   78.48 input  -60.11 | X-H torsion
[ 7974 7965 7964 7962 ] final -168.04 input  175.53 | X-H torsion
[ 8008 7997 7996 7995 ] final  -38.03 input   59.86 | X-H torsion
[ 10167 10162 10161 10158 ] final  -56.49 input  -65.29 | X-H torsion
[ 10718 10713 10712 10709 ] final  113.02 input   66.30 | X-H torsion
[ 10763 10752 10751 10750 ] final  115.79 input  -60.55 | X-H torsion
[ 11005 11000 10999 10996 ] final -179.54 input  -57.11 | X-H torsion

> <Gold.Protein.ActiveResidues>
 VAL166  LYS551  ARG553  GLY616  TRP617  ASP618  TYR619  PRO620  LYS621  CYS622 
 ASP623  PHE694  ASN695  SER759  ASP760  ASP761  ALA762  ILE779  LEU786  VAL792 
 PHE793  MET794  SER795  GLU796  ALA797  LYS798  CYS799  TRP800  GLU811  SER814 

> <Gold.Protein.RotatedAtoms>
  152.5161  134.3658  159.9300 H   0  0  0  0  0  0  0  0  0  0  0  0  # atno 6907 bound_to 6896
  151.3611  133.3883  159.2697 H   0  0  0  0  0  0  0  0  0  0  0  0  # atno 6908 bound_to 6896
  150.9651  134.9052  159.7812 H   0  0  0  0  0  0  0  0  0  0  0  0  # atno 6909 bound_to 6896
  144.7211  140.2429  143.6289 H   0  0  0  0  0  0  0  0  0  0  0  0  # atno 7974 bound_to 7965
  154.4043  140.1588  156.2634 H   0  0  0  0  0  0  0  0  0  0  0  0  # atno 8008 bound_to 7997
  155.9016  140.3433  155.6009 H   0  0  0  0  0  0  0  0  0  0  0  0  # atno 8009 bound_to 7997
  155.7441  140.0796  157.2223 H   0  0  0  0  0  0  0  0  0  0  0  0  # atno 8010 bound_to 7997
  140.6314  143.2461  151.5232 H   0  0  0  0  0  0  0  0  0  0  0  0  # atno 10167 bound_to 10162
  157.6361  131.0977  150.6980 H   0  0  0  0  0  0  0  0  0  0  0  0  # atno 10718 bound_to 10713
  153.5275  135.3585  155.2660 H   0  0  0  0  0  0  0  0  0  0  0  0  # atno 10763 bound_to 10752
  154.8730  135.4060  154.3189 H   0  0  0  0  0  0  0  0  0  0  0  0  # atno 10764 bound_to 10752
  153.3871  135.7070  153.6589 H   0  0  0  0  0  0  0  0  0  0  0  0  # atno 10765 bound_to 10752
  140.4175  134.6636  157.4646 H   0  0  0  0  0  0  0  0  0  0  0  0  # atno 11005 bound_to 11000
  145.8302  139.2082  143.1887 LP  0  0  0  0  0  0  0  0  0  0  0  0  # atno 17320 bound_to 7965
  146.0437  140.8139  142.9816 LP  0  0  0  0  0  0  0  0  0  0  0  0  # atno 17321 bound_to 7965
  139.5528  144.2353  152.1560 LP  0  0  0  0  0  0  0  0  0  0  0  0  # atno 17342 bound_to 10162
  140.1597  144.5037  150.6639 LP  0  0  0  0  0  0  0  0  0  0  0  0  # atno 17343 bound_to 10162
  156.7311  130.4710  149.5499 LP  0  0  0  0  0  0  0  0  0  0  0  0  # atno 17370 bound_to 10713
  156.1601  130.6368  151.0708 LP  0  0  0  0  0  0  0  0  0  0  0  0  # atno 17371 bound_to 10713
  140.0224  134.6528  155.9221 LP  0  0  0  0  0  0  0  0  0  0  0  0  # atno 17394 bound_to 11000
  141.1797  133.6545  156.4971 LP  0  0  0  0  0  0  0  0  0  0  0  0  # atno 17395 bound_to 11000

$$$$
