AV-unprocessed.smi:47|AV-procd|sdf|430|dock6
  -GOLD-   2262016303D 1   1.00000     0.00000
 Structure written by MMmdl.
 31 33  0  0  0  0  0  0  0  0  3 V2000
  148.2930  136.5034  154.7060 O   0  0  0  0  0  0  0  0  0  0  0  0
  149.0645  137.6507  154.9929 C   0  0  2  0  0  0  0  0  0  0  0  0
  148.7149  138.8265  154.0826 C   0  0  0  0  0  0  0  0  0  0  0  0
  149.9197  139.6757  154.0671 N   0  3  0  0  0  0  0  0  0  0  0  0
  151.0836  138.8551  154.4657 C   0  0  1  0  0  0  0  0  0  0  0  0
  151.7317  139.4372  155.7063 C   0  0  0  0  0  0  0  0  0  0  0  0
  152.7026  138.8251  156.4106 N   0  0  0  0  0  0  0  0  0  0  0  0
  152.9757  139.6224  157.4255 N   0  5  0  0  0  0  0  0  0  0  0  0
  152.1707  140.6921  157.3355 C   0  0  0  0  0  0  0  0  0  0  0  0
  152.2047  141.7922  158.3208 C   0  0  0  0  0  0  0  0  0  0  0  0
  152.7877  141.5947  159.5943 C   0  0  0  0  0  0  0  0  0  0  0  0
  152.8274  142.6336  160.5444 C   0  0  0  0  0  0  0  0  0  0  0  0
  152.2819  143.8924  160.2340 C   0  0  0  0  0  0  0  0  0  0  0  0
  151.6979  144.1072  158.9725 C   0  0  0  0  0  0  0  0  0  0  0  0
  151.6607  143.0650  158.0258 C   0  0  0  0  0  0  0  0  0  0  0  0
  151.3802  140.6021  156.2755 N   0  0  0  0  0  0  0  0  0  0  0  0
  150.5473  137.4355  154.7031 C   0  0  0  0  0  0  0  0  0  0  0  0
  148.9279  137.9346  156.0376 H   0  0  0  0  0  0  0  0  0  0  0  0
  151.8184  138.8529  153.6599 H   0  0  0  0  0  0  0  0  0  0  0  0
  148.5556  136.1669  153.8624 H   0  0  0  0  0  0  0  0  0  0  0  0
  148.5318  138.4806  153.0641 H   0  0  0  0  0  0  0  0  0  0  0  0
  147.8355  139.3767  154.4180 H   0  0  0  0  0  0  0  0  0  0  0  0
  150.0593  140.0916  153.1579 H   0  0  0  0  0  0  0  0  0  0  0  0
  153.2121  140.6355  159.8519 H   0  0  0  0  0  0  0  0  0  0  0  0
  153.2769  142.4635  161.5116 H   0  0  0  0  0  0  0  0  0  0  0  0
  152.3115  144.6903  160.9611 H   0  0  0  0  0  0  0  0  0  0  0  0
  151.2781  145.0720  158.7289 H   0  0  0  0  0  0  0  0  0  0  0  0
  151.2075  143.2536  157.0637 H   0  0  0  0  0  0  0  0  0  0  0  0
  151.0730  136.8944  155.4911 H   0  0  0  0  0  0  0  0  0  0  0  0
  150.6547  136.8594  153.7825 H   0  0  0  0  0  0  0  0  0  0  0  0
  149.8164  140.4013  154.7635 H   0  0  0  0  0  0  0  0  0  0  0  0
  1  2  1  0  0  0  0
  1 20  1  0  0  0  0
  2 18  1  0  0  0  0
  2 17  1  0  0  0  0
  2  3  1  0  0  0  0
  3  4  1  0  0  0  0
  3 21  1  0  0  0  0
  3 22  1  0  0  0  0
  4  5  1  0  0  0  0
  4 23  1  0  0  0  0
  4 31  1  0  0  0  0
  5 19  1  0  0  0  0
  5  6  1  0  0  0  0
  5 17  1  0  0  0  0
  6 16  1  0  0  0  0
  6  7  2  0  0  0  0
  7  8  1  0  0  0  0
  8  9  1  0  0  0  0
  9 10  1  0  0  0  0
  9 16  2  0  0  0  0
 10 15  1  0  0  0  0
 10 11  2  0  0  0  0
 11 12  1  0  0  0  0
 11 24  1  0  0  0  0
 12 13  2  0  0  0  0
 12 25  1  0  0  0  0
 13 14  1  0  0  0  0
 13 26  1  0  0  0  0
 14 15  2  0  0  0  0
 14 27  1  0  0  0  0
 15 28  1  0  0  0  0
 17 29  1  0  0  0  0
 17 30  1  0  0  0  0
M  CHG  1   4   1
M  CHG  1   8  -1
M  END
> <s_m_source_file>
AV-unprocessed.smi

> <i_m_source_file_index>
47

> <i_lp_mmshare_version>
43012

> <i_f3d_flags>
0

> <s_epik_input>
W09IXVtDQEhdMVtDSDJdW05IXVtDQEBIXShbQ0gyXTEpYzJuW25IXWMobjIpLWMzW2NIXVtjSF1bY0hdW2NIXVtjSF0z

> <s_epik_cmdline>
J2VwaWtfcHl0aG9uJywgJy1waCcsICc3LjAnLCAnLXRuJywgJzgnLCAnLW1hJywgJzIwMCcsICctbWV0YWxfYmluZGluZycsICctaW1hZScsICc8aW5maWxlLm1hZT4nLCAnLW9tYWUnLCAnPG91dGZpbGUubWFlPic=

> <r_lp_tautomer_probability>
1

> <r_epik_Ionization_Penalty>
1.09593

> <r_epik_Ionization_Penalty_Charging>
1.09593

> <r_epik_Ionization_Penalty_Neutral>
3.91329e-08

> <r_epik_State_Penalty>
0.690005

> <r_epik_Charging_Adjusted_Penalty>
1.78594

> <i_epik_Tot_Q>
0

> <i_epik_Tot_abs_Q>
2

> <r_epik_Metal_State_Penalty>
0.213596

> <b_epik_Metal_Only>
0

> <s_lp_Force_Field>
OPLS_2005

> <r_lp_Energy>
20.8085

> <b_lp_Chiralities_Consistent>
1

> <s_lp_Variant>
AV-unprocessed.smi:47-8

> <Gold.Version>
5.8.1

> <Gold.Id.Protein>
6NUR|6NUR_protein|mol2

> <Gold.PLP.Fitness>
46.3967

> <Gold.PLP.PLP>
-34.9782

> <Gold.PLP.part.hbond>
-3.9150

> <Gold.PLP.part.metal>
0.0000

> <Gold.PLP.part.buried>
-4.6940

> <Gold.PLP.part.nonpolar>
-26.3552

> <Gold.PLP.part.repulsive>
0.3456

> <Gold.PLP.ligand.clash>
0.0000

> <Gold.PLP.ligand.torsion>
0.2475

> <Gold.PLP.Chemscore.Hbond>
3.9675

> <Gold.PLP.Chemscore.CHOScore>
0.0000

> <Gold.PLP.Chemscore.Metal>
0.0000

> <Gold.Chemscore.Hbonds>
donor molecule, donor type, donor heavy atom, donor atom, acceptor molecule, acceptor atom, score
      L1  H     1    20       P1  7948  0.99
      L1  H     4    23       P1  7957  0.92
      P1  H  7997  8010       L1     8  1.90

> <Gold.PLP.Chemscore.Internal.Correction>
0.0110

> <Gold.Rescore>
     Score         DG    S(hbond)    S(metal)    S(lipo)     H(rot)  DE(clash)    DE(int)     intcor
     19.69     -20.15       2.40        0.00      89.32       1.48       0.22       0.23       ----

> <Gold.Chemscore.Fitness>
19.6934

> <Gold.Chemscore.DG>
-20.1490

> <Gold.Chemscore.ZeroCoef>
-5.4800

> <Gold.Chemscore.Hbond>
2.3977

> <Gold.Chemscore.Metal>
0.0000

> <Gold.Chemscore.Lipo>
89.3202

> <Gold.Chemscore.Internal_Hbond>
0.0000

> <Gold.Chemscore.DEClash>
0.2231

> <Gold.Chemscore.DEInternal>
0.2325

> <Gold.Chemscore.Rot>
1.4804

> <Gold.Chemscore.Internal.Correction>
   9.000000E+99

> <Gold.Chemscore.Hbonds>
donor molecule, donor type, donor heavy atom, donor atom, acceptor molecule, acceptor atom, score
      L1  H     1    20       P1  7948  0.92
      L1  H     4    23       P1  7957  0.83
      P1  H  7997  8010       L1     8  0.16

> <Gold.Chemscore.Hbond.Weighted>
-8.0084

> <Gold.Chemscore.Metal.Weighted>
-0.0000

> <Gold.Chemscore.Lipo.Weighted>
-10.4505

> <Gold.Chemscore.Internal_Hbond.Weighted>
0.0000

> <Gold.Chemscore.DEClash.Weighted>
0.2231

> <Gold.Chemscore.DEInternal.Weighted>
0.2325

> <Gold.Chemscore.Rot.Weighted>
3.7899

> <Gold.Chemscore.Internal.Correction.Weighted>
   9.000000E+99

> <Gold.Protein.RotatedTorsions>
[ 6907 6896 6895 6894 ] final -114.56 input  -60.11 | X-H torsion
[ 7974 7965 7964 7962 ] final -113.96 input  175.53 | X-H torsion
[ 8008 7997 7996 7995 ] final   33.04 input   59.86 | X-H torsion
[ 10167 10162 10161 10158 ] final  -85.66 input  -65.29 | X-H torsion
[ 10718 10713 10712 10709 ] final   76.79 input   66.30 | X-H torsion
[ 10763 10752 10751 10750 ] final -113.58 input  -60.55 | X-H torsion
[ 11005 11000 10999 10996 ] final   -2.34 input  -57.11 | X-H torsion

> <Gold.Protein.ActiveResidues>
 VAL166  LYS551  ARG553  GLY616  TRP617  ASP618  TYR619  PRO620  LYS621  CYS622 
 ASP623  PHE694  ASN695  SER759  ASP760  ASP761  ALA762  ILE779  LEU786  VAL792 
 PHE793  MET794  SER795  GLU796  ALA797  LYS798  CYS799  TRP800  GLU811  SER814 

> <Gold.Protein.RotatedAtoms>
  150.7911  133.8784  159.3278 H   0  0  0  0  0  0  0  0  0  0  0  0  # atno 6907 bound_to 6896
  151.6622  135.0986  160.0191 H   0  0  0  0  0  0  0  0  0  0  0  0  # atno 6908 bound_to 6896
  152.3985  133.6744  159.6332 H   0  0  0  0  0  0  0  0  0  0  0  0  # atno 6909 bound_to 6896
  145.1258  140.8696  143.3787 H   0  0  0  0  0  0  0  0  0  0  0  0  # atno 7974 bound_to 7965
  155.1322  140.3258  155.4471 H   0  0  0  0  0  0  0  0  0  0  0  0  # atno 8008 bound_to 7997
  156.2631  140.2008  156.6390 H   0  0  0  0  0  0  0  0  0  0  0  0  # atno 8009 bound_to 7997
  154.6604  140.0548  157.0042 H   0  0  0  0  0  0  0  0  0  0  0  0  # atno 8010 bound_to 7997
  140.4016  143.2660  151.9135 H   0  0  0  0  0  0  0  0  0  0  0  0  # atno 10167 bound_to 10162
  157.6687  130.9791  150.1548 H   0  0  0  0  0  0  0  0  0  0  0  0  # atno 10718 bound_to 10713
  154.8402  135.4449  154.1371 H   0  0  0  0  0  0  0  0  0  0  0  0  # atno 10763 bound_to 10752
  153.2566  135.6932  153.7629 H   0  0  0  0  0  0  0  0  0  0  0  0  # atno 10764 bound_to 10752
  153.6921  135.3385  155.3180 H   0  0  0  0  0  0  0  0  0  0  0  0  # atno 10765 bound_to 10752
  140.6572  133.9352  155.8415 H   0  0  0  0  0  0  0  0  0  0  0  0  # atno 11005 bound_to 11000
  145.0690  139.3046  143.5842 LP  0  0  0  0  0  0  0  0  0  0  0  0  # atno 17320 bound_to 7965
  146.3518  140.0158  142.8663 LP  0  0  0  0  0  0  0  0  0  0  0  0  # atno 17321 bound_to 7965
  139.4784  144.5628  151.8212 LP  0  0  0  0  0  0  0  0  0  0  0  0  # atno 17342 bound_to 10162
  140.4734  144.1554  150.5921 LP  0  0  0  0  0  0  0  0  0  0  0  0  # atno 17343 bound_to 10162
  156.2339  130.3684  149.8414 LP  0  0  0  0  0  0  0  0  0  0  0  0  # atno 17370 bound_to 10713
  156.6233  130.8635  151.3480 LP  0  0  0  0  0  0  0  0  0  0  0  0  # atno 17371 bound_to 10713
  141.0492  134.0509  157.3805 LP  0  0  0  0  0  0  0  0  0  0  0  0  # atno 17394 bound_to 11000
  139.9025  135.0169  156.7336 LP  0  0  0  0  0  0  0  0  0  0  0  0  # atno 17395 bound_to 11000

$$$$
