AV-unprocessed.smi:148|AV-procd|sdf|1225|dock6
  -GOLD-   2262018423D 1   1.00000     0.00000
 Structure written by MMmdl.
 63 67  0  0  0  0  0  0  0  0  1 V2000
  151.4806  132.6464  157.3574 O   0  0  0  0  0  0  0  0  0  0  0  0
  150.5118  132.2578  156.4041 C   0  0  0  0  0  0  0  0  0  0  0  0
  149.7097  133.4705  155.8773 C   0  0  1  0  0  0  0  0  0  0  0  0
  150.6970  134.5289  155.3176 C   0  0  0  0  0  0  0  0  0  0  0  0
  150.5592  135.8528  155.8970 N   0  0  0  0  0  0  0  0  0  0  0  0
  149.8297  136.1891  157.0161 C   0  0  0  0  0  0  0  0  0  0  0  0
  149.8612  137.4524  157.3431 N   0  0  0  0  0  0  0  0  0  0  0  0
  150.6548  138.0314  156.3618 C   0  0  0  0  0  0  0  0  0  0  0  0
  151.0941  139.3558  156.1040 C   0  0  0  0  0  0  0  0  0  0  0  0
  150.7620  140.3869  156.9110 N   0  0  0  0  0  0  0  0  0  0  0  0
  151.9389  140.8323  157.6605 C   0  0  0  0  0  0  0  0  0  0  0  0
  151.5511  141.7853  158.7947 C   0  0  0  0  0  0  0  0  0  0  0  0
  150.7643  142.9683  158.2293 C   0  0  0  0  0  0  0  0  0  0  0  0
  149.5448  142.4584  157.4507 C   0  0  0  0  0  0  0  0  0  0  0  0
  149.9235  141.4547  156.3274 C   0  0  2  0  0  0  0  0  0  0  0  0
  148.6310  140.9252  155.6116 C   0  0  1  0  0  0  0  0  0  0  0  0
  147.6285  142.0122  155.1784 C   0  0  0  0  0  0  0  0  0  0  0  0
  146.6996  141.3609  154.1476 C   0  0  0  0  0  0  0  0  0  0  0  0
  147.4158  140.0941  153.6673 C   0  0  0  0  0  0  0  0  0  0  0  0
  148.8116  140.1293  154.2983 C   0  0  1  0  0  0  0  0  0  0  0  0
  149.6943  140.7925  153.4126 O   0  0  0  0  0  0  0  0  0  0  0  0
  151.8804  139.5682  155.0156 N   0  0  0  0  0  0  0  0  0  0  0  0
  152.2058  138.5442  154.2205 C   0  0  0  0  0  0  0  0  0  0  0  0
  151.8685  137.2573  154.3353 N   0  0  0  0  0  0  0  0  0  0  0  0
  151.0883  137.0446  155.4340 C   0  0  0  0  0  0  0  0  0  0  0  0
  148.5758  133.0569  154.8924 C   0  0  1  0  0  0  0  0  0  0  0  0
  147.7639  134.2164  154.3360 C   0  0  0  0  0  0  0  0  0  0  0  0
  147.0913  133.5893  153.1239 C   0  0  0  0  0  0  0  0  0  0  0  0
  148.0698  132.7143  152.5841 O   0  0  0  0  0  0  0  0  0  0  0  0
  149.0333  132.3924  153.5829 C   0  0  0  0  0  0  0  0  0  0  0  0
  152.2442  132.9625  156.8990 H   0  0  0  0  0  0  0  0  0  0  0  0
  151.0097  131.7311  155.5903 H   0  0  0  0  0  0  0  0  0  0  0  0
  149.8415  131.5327  156.8668 H   0  0  0  0  0  0  0  0  0  0  0  0
  149.2285  133.9057  156.7538 H   0  0  0  0  0  0  0  0  0  0  0  0
  151.7246  134.2065  155.4899 H   0  0  0  0  0  0  0  0  0  0  0  0
  150.5819  134.6143  154.2364 H   0  0  0  0  0  0  0  0  0  0  0  0
  149.2817  135.4603  157.5956 H   0  0  0  0  0  0  0  0  0  0  0  0
  152.4654  139.9712  158.0760 H   0  0  0  0  0  0  0  0  0  0  0  0
  152.6336  141.3339  156.9847 H   0  0  0  0  0  0  0  0  0  0  0  0
  150.9485  141.2555  159.5336 H   0  0  0  0  0  0  0  0  0  0  0  0
  152.4439  142.1377  159.3116 H   0  0  0  0  0  0  0  0  0  0  0  0
  150.4472  143.6300  159.0357 H   0  0  0  0  0  0  0  0  0  0  0  0
  151.4030  143.5581  157.5705 H   0  0  0  0  0  0  0  0  0  0  0  0
  148.8501  141.9836  158.1452 H   0  0  0  0  0  0  0  0  0  0  0  0
  149.0281  143.3254  157.0403 H   0  0  0  0  0  0  0  0  0  0  0  0
  150.5339  141.9963  155.6038 H   0  0  0  0  0  0  0  0  0  0  0  0
  148.1024  140.2814  156.3173 H   0  0  0  0  0  0  0  0  0  0  0  0
  147.0665  142.4214  156.0185 H   0  0  0  0  0  0  0  0  0  0  0  0
  148.1598  142.8395  154.7054 H   0  0  0  0  0  0  0  0  0  0  0  0
  145.7412  141.1017  154.5992 H   0  0  0  0  0  0  0  0  0  0  0  0
  146.4975  142.0442  153.3221 H   0  0  0  0  0  0  0  0  0  0  0  0
  146.8771  139.2204  154.0368 H   0  0  0  0  0  0  0  0  0  0  0  0
  147.4443  140.0145  152.5797 H   0  0  0  0  0  0  0  0  0  0  0  0
  149.1702  139.1141  154.4540 H   0  0  0  0  0  0  0  0  0  0  0  0
  149.8973  140.2069  152.6993 H   0  0  0  0  0  0  0  0  0  0  0  0
  152.8247  138.7917  153.3711 H   0  0  0  0  0  0  0  0  0  0  0  0
  147.8877  132.3798  155.4012 H   0  0  0  0  0  0  0  0  0  0  0  0
  147.0410  134.6175  155.0468 H   0  0  0  0  0  0  0  0  0  0  0  0
  148.4214  135.0275  154.0191 H   0  0  0  0  0  0  0  0  0  0  0  0
  146.2229  133.0040  153.4293 H   0  0  0  0  0  0  0  0  0  0  0  0
  146.7662  134.3286  152.3918 H   0  0  0  0  0  0  0  0  0  0  0  0
  149.9975  132.7839  153.2571 H   0  0  0  0  0  0  0  0  0  0  0  0
  149.1213  131.3110  153.6762 H   0  0  0  0  0  0  0  0  0  0  0  0
  1  2  1  0  0  0  0
  1 31  1  0  0  0  0
  2  3  1  0  0  0  0
  2 32  1  0  0  0  0
  2 33  1  0  0  0  0
  3  4  1  0  0  0  0
  3 26  1  0  0  0  0
  3 34  1  0  0  0  0
  4  5  1  0  0  0  0
  4 35  1  0  0  0  0
  4 36  1  0  0  0  0
  5 25  1  0  0  0  0
  5  6  1  0  0  0  0
  6  7  2  0  0  0  0
  6 37  1  0  0  0  0
  7  8  1  0  0  0  0
  8 25  2  0  0  0  0
  8  9  1  0  0  0  0
  9 10  1  0  0  0  0
  9 22  2  0  0  0  0
 10 15  1  0  0  0  0
 10 11  1  0  0  0  0
 11 12  1  0  0  0  0
 11 38  1  0  0  0  0
 11 39  1  0  0  0  0
 12 13  1  0  0  0  0
 12 40  1  0  0  0  0
 12 41  1  0  0  0  0
 13 14  1  0  0  0  0
 13 42  1  0  0  0  0
 13 43  1  0  0  0  0
 14 15  1  0  0  0  0
 14 44  1  0  0  0  0
 14 45  1  0  0  0  0
 15 16  1  0  0  0  0
 15 46  1  0  0  0  0
 16 20  1  0  0  0  0
 16 17  1  0  0  0  0
 16 47  1  0  0  0  0
 17 18  1  0  0  0  0
 17 48  1  0  0  0  0
 17 49  1  0  0  0  0
 18 19  1  0  0  0  0
 18 50  1  0  0  0  0
 18 51  1  0  0  0  0
 19 20  1  0  0  0  0
 19 52  1  0  0  0  0
 19 53  1  0  0  0  0
 20 21  1  0  0  0  0
 20 54  1  0  0  0  0
 21 55  1  0  0  0  0
 22 23  1  0  0  0  0
 23 24  2  0  0  0  0
 23 56  1  0  0  0  0
 24 25  1  0  0  0  0
 26 30  1  0  0  0  0
 26 27  1  0  0  0  0
 26 57  1  0  0  0  0
 27 28  1  0  0  0  0
 27 58  1  0  0  0  0
 27 59  1  0  0  0  0
 28 29  1  0  0  0  0
 28 60  1  0  0  0  0
 28 61  1  0  0  0  0
 29 30  1  0  0  0  0
 30 62  1  0  0  0  0
 30 63  1  0  0  0  0
M  END
> <s_m_source_file>
AV-unprocessed.smi

> <i_m_source_file_index>
148

> <i_lp_mmshare_version>
43012

> <i_f3d_flags>
0

> <s_epik_input>
W0NIMl0xT1tDSDJdW0NIMl1bQ0BIXTFbQ0BIXShbQ0gyXVtPSF0pW0NIMl1uKFtjSF1uMiljKGMyMyluW2NIXW5jM040W0NIMl1bQ0gyXVtDSDJdW0NIMl1bQ0BIXTRbQ0BASF01W0NIMl1bQ0gyXVtDSDJdW0NASF01W09IXQ==

> <s_epik_cmdline>
J2VwaWtfcHl0aG9uJywgJy1waCcsICc3LjAnLCAnLXRuJywgJzgnLCAnLW1hJywgJzIwMCcsICctbWV0YWxfYmluZGluZycsICctaW1hZScsICc8aW5maWxlLm1hZT4nLCAnLW9tYWUnLCAnPG91dGZpbGUubWFlPic=

> <r_lp_tautomer_probability>
1

> <r_epik_Ionization_Penalty>
0.00556303

> <r_epik_Ionization_Penalty_Charging>
0

> <r_epik_Ionization_Penalty_Neutral>
0.00556303

> <r_epik_State_Penalty>
0.00401767

> <r_epik_Charging_Adjusted_Penalty>
0.00401767

> <i_epik_Tot_Q>
0

> <i_epik_Tot_abs_Q>
0

> <r_epik_Metal_State_Penalty>
-0

> <b_epik_Metal_Only>
0

> <s_lp_Force_Field>
OPLS_2005

> <r_lp_Energy>
70.5137

> <b_lp_Chiralities_Consistent>
1

> <s_lp_Variant>
AV-unprocessed.smi:148-24

> <Gold.Version>
5.8.1

> <Gold.Id.Protein>
6NUR|6NUR_protein|mol2

> <Gold.PLP.Fitness>
53.3042

> <Gold.PLP.PLP>
-42.0817

> <Gold.PLP.part.hbond>
-5.2400

> <Gold.PLP.part.metal>
0.0000

> <Gold.PLP.part.buried>
-4.1861

> <Gold.PLP.part.nonpolar>
-32.9777

> <Gold.PLP.part.repulsive>
0.5443

> <Gold.PLP.ligand.clash>
0.0000

> <Gold.PLP.ligand.torsion>
1.1118

> <Gold.PLP.Chemscore.Hbond>
4.2934

> <Gold.PLP.Chemscore.CHOScore>
0.0000

> <Gold.PLP.Chemscore.Metal>
0.0000

> <Gold.Chemscore.Hbonds>
donor molecule, donor type, donor heavy atom, donor atom, acceptor molecule, acceptor atom, score
      L1  H    21    55       P1  7957  0.80
      P1  H  6896  6908       L1     1  1.00
      P1  H  7989  7998       L1    22  0.69
      P1  H  8011  8017       L1    21  0.70
      P1  H 10752 10763       L1    24  1.00

> <Gold.PLP.Chemscore.Internal.Correction>
0.5659

> <Gold.Rescore>
     Score         DG    S(hbond)    S(metal)    S(lipo)     H(rot)  DE(clash)    DE(int)     intcor
     15.65     -17.06       2.78        0.00      92.39       3.32       0.22       1.19       ----

> <Gold.Chemscore.Fitness>
15.6539

> <Gold.Chemscore.DG>
-17.0625

> <Gold.Chemscore.ZeroCoef>
-5.4800

> <Gold.Chemscore.Hbond>
2.7764

> <Gold.Chemscore.Metal>
0.0000

> <Gold.Chemscore.Lipo>
92.3870

> <Gold.Chemscore.Internal_Hbond>
0.0000

> <Gold.Chemscore.DEClash>
0.2179

> <Gold.Chemscore.DEInternal>
1.1907

> <Gold.Chemscore.Rot>
3.3203

> <Gold.Chemscore.Internal.Correction>
   9.000000E+99

> <Gold.Chemscore.Hbonds>
donor molecule, donor type, donor heavy atom, donor atom, acceptor molecule, acceptor atom, score
      L1  H    21    55       P1  7957  0.77
      P1  H  6896  6908       L1     1  0.65
      P1  H  7989  7998       L1    22  0.07
      P1  H  8011  8017       L1    21  0.07
      P1  H 10752 10763       L1    24  0.33

> <Gold.Chemscore.Hbond.Weighted>
-9.2732

> <Gold.Chemscore.Metal.Weighted>
-0.0000

> <Gold.Chemscore.Lipo.Weighted>
-10.8093

> <Gold.Chemscore.Internal_Hbond.Weighted>
0.0000

> <Gold.Chemscore.DEClash.Weighted>
0.2179

> <Gold.Chemscore.DEInternal.Weighted>
1.1907

> <Gold.Chemscore.Rot.Weighted>
8.5000

> <Gold.Chemscore.Internal.Correction.Weighted>
   9.000000E+99

> <Gold.Protein.RotatedTorsions>
[ 6907 6896 6895 6894 ] final   67.36 input  -60.11 | X-H torsion
[ 7974 7965 7964 7962 ] final -111.45 input  175.53 | X-H torsion
[ 8008 7997 7996 7995 ] final  -30.56 input   59.86 | X-H torsion
[ 10167 10162 10161 10158 ] final   52.18 input  -65.29 | X-H torsion
[ 10718 10713 10712 10709 ] final -170.85 input   66.30 | X-H torsion
[ 10763 10752 10751 10750 ] final   42.16 input  -60.55 | X-H torsion
[ 11005 11000 10999 10996 ] final   63.26 input  -57.11 | X-H torsion

> <Gold.Protein.ActiveResidues>
 VAL166  LYS551  ARG553  GLY616  TRP617  ASP618  TYR619  PRO620  LYS621  CYS622 
 ASP623  PHE694  ASN695  SER759  ASP760  ASP761  ALA762  ILE779  LEU786  VAL792 
 PHE793  MET794  SER795  GLU796  ALA797  LYS798  CYS799  TRP800  GLU811  SER814 

> <Gold.Protein.RotatedAtoms>
  152.4546  134.5319  159.9813 H   0  0  0  0  0  0  0  0  0  0  0  0  # atno 6907 bound_to 6896
  151.5383  133.3431  159.2938 H   0  0  0  0  0  0  0  0  0  0  0  0  # atno 6908 bound_to 6896
  150.8486  134.7834  159.7053 H   0  0  0  0  0  0  0  0  0  0  0  0  # atno 6909 bound_to 6896
  145.1559  140.8853  143.3619 H   0  0  0  0  0  0  0  0  0  0  0  0  # atno 7974 bound_to 7965
  154.4246  140.1788  156.1426 H   0  0  0  0  0  0  0  0  0  0  0  0  # atno 8008 bound_to 7997
  155.9979  140.3363  155.6792 H   0  0  0  0  0  0  0  0  0  0  0  0  # atno 8009 bound_to 7997
  155.6282  140.0667  157.2648 H   0  0  0  0  0  0  0  0  0  0  0  0  # atno 8010 bound_to 7997
  140.2541  144.3447  150.6339 H   0  0  0  0  0  0  0  0  0  0  0  0  # atno 10167 bound_to 10162
  156.7322  130.9311  151.3105 H   0  0  0  0  0  0  0  0  0  0  0  0  # atno 10718 bound_to 10713
  152.9890  135.6140  154.2905 H   0  0  0  0  0  0  0  0  0  0  0  0  # atno 10763 bound_to 10752
  154.2630  135.2782  155.2772 H   0  0  0  0  0  0  0  0  0  0  0  0  # atno 10764 bound_to 10752
  154.5189  135.5820  153.6721 H   0  0  0  0  0  0  0  0  0  0  0  0  # atno 10765 bound_to 10752
  140.0037  134.6403  155.9890 H   0  0  0  0  0  0  0  0  0  0  0  0  # atno 11005 bound_to 11000
  145.0381  139.3283  143.5990 LP  0  0  0  0  0  0  0  0  0  0  0  0  # atno 17320 bound_to 7965
  146.3489  139.9745  142.8702 LP  0  0  0  0  0  0  0  0  0  0  0  0  # atno 17321 bound_to 7965
  140.6018  143.2167  151.7058 LP  0  0  0  0  0  0  0  0  0  0  0  0  # atno 17342 bound_to 10162
  139.5037  144.3781  152.0403 LP  0  0  0  0  0  0  0  0  0  0  0  0  # atno 17343 bound_to 10162
  157.6854  130.9180  150.0372 LP  0  0  0  0  0  0  0  0  0  0  0  0  # atno 17370 bound_to 10713
  156.1521  130.3642  149.9423 LP  0  0  0  0  0  0  0  0  0  0  0  0  # atno 17371 bound_to 10713
  141.1661  133.6537  156.4483 LP  0  0  0  0  0  0  0  0  0  0  0  0  # atno 17394 bound_to 11000
  140.4681  134.6778  157.5117 LP  0  0  0  0  0  0  0  0  0  0  0  0  # atno 17395 bound_to 11000

$$$$
