AV-unprocessed.smi:1033|AV-procd|sdf|4491|dock5
  -GOLD-   22720 2473D 1   1.00000     0.00000
 Structure written by MMmdl.
 56 58  0  0  0  0  0  0  0  0  2 V2000
  150.5970  145.4991  159.8276 C   0  0  0  0  0  0  0  0  0  0  0  0
  151.5894  144.3563  159.9522 C   0  0  0  0  0  0  0  0  0  0  0  0
  152.0142  143.9527  161.2379 C   0  0  0  0  0  0  0  0  0  0  0  0
  152.9352  142.8944  161.3975 C   0  0  0  0  0  0  0  0  0  0  0  0
  153.4838  142.3453  162.5437 N   0  0  0  0  0  0  0  0  0  0  0  0
  154.2681  141.3980  162.0388 C   0  0  0  0  0  0  0  0  0  0  0  0
  154.3001  141.2738  160.6980 N   0  0  0  0  0  0  0  0  0  0  0  0
  155.0872  140.3263  159.9302 C   0  0  0  0  0  0  0  0  0  0  0  0
  154.3505  138.9902  159.7128 C   0  0  1  0  0  0  0  0  0  0  0  0
  154.0370  138.8880  158.3385 O   0  0  0  0  0  0  0  0  0  0  0  0
  155.1780  137.7539  160.1293 C   0  0  0  0  0  0  0  0  0  0  0  0
  155.2678  137.5965  161.6028 N   0  3  0  0  0  0  0  0  0  0  0  0
  156.3315  136.6502  162.0359 C   0  0  0  0  0  0  0  0  0  0  0  0
  156.3899  136.5860  163.5750 C   0  0  0  0  0  0  0  0  0  0  0  0
  155.1194  136.1895  164.1826 N   0  0  0  0  0  0  0  0  0  0  0  0
  154.7310  134.7903  163.9616 C   0  0  0  0  0  0  0  0  0  0  0  0
  154.9193  133.8394  165.1649 C   0  0  2  0  0  0  0  0  0  0  0  0
  154.2762  132.4567  164.9611 C   0  0  0  0  0  0  0  0  0  0  0  0
  154.2772  134.4124  166.2854 O   0  0  0  0  0  0  0  0  0  0  0  0
  154.0891  137.1334  163.7485 C   0  0  0  0  0  0  0  0  0  0  0  0
  153.9622  137.2344  162.2133 C   0  0  0  0  0  0  0  0  0  0  0  0
  153.4232  142.2452  160.2258 C   0  0  0  0  0  0  0  0  0  0  0  0
  153.0079  142.6376  158.9409 C   0  0  0  0  0  0  0  0  0  0  0  0
  152.0870  143.6967  158.7998 C   0  0  0  0  0  0  0  0  0  0  0  0
  151.6424  144.1123  157.4084 C   0  0  0  0  0  0  0  0  0  0  0  0
  150.3503  145.9209  160.8023 H   0  0  0  0  0  0  0  0  0  0  0  0
  149.6709  145.1513  159.3693 H   0  0  0  0  0  0  0  0  0  0  0  0
  151.0089  146.2994  159.2127 H   0  0  0  0  0  0  0  0  0  0  0  0
  151.6345  144.4545  162.1160 H   0  0  0  0  0  0  0  0  0  0  0  0
  154.8601  140.7611  162.6799 H   0  0  0  0  0  0  0  0  0  0  0  0
  155.3285  140.7857  158.9705 H   0  0  0  0  0  0  0  0  0  0  0  0
  156.0358  140.1633  160.4436 H   0  0  0  0  0  0  0  0  0  0  0  0
  153.4131  139.0246  160.2668 H   0  0  0  0  0  0  0  0  0  0  0  0
  154.0350  137.9748  158.0937 H   0  0  0  0  0  0  0  0  0  0  0  0
  154.7196  136.8669  159.6889 H   0  0  0  0  0  0  0  0  0  0  0  0
  156.1904  137.8011  159.7267 H   0  0  0  0  0  0  0  0  0  0  0  0
  156.1494  135.6615  161.6128 H   0  0  0  0  0  0  0  0  0  0  0  0
  157.3014  136.9745  161.6614 H   0  0  0  0  0  0  0  0  0  0  0  0
  157.1913  135.9267  163.9032 H   0  0  0  0  0  0  0  0  0  0  0  0
  156.6663  137.5718  163.9520 H   0  0  0  0  0  0  0  0  0  0  0  0
  153.6705  134.7916  163.7037 H   0  0  0  0  0  0  0  0  0  0  0  0
  155.2315  134.3758  163.0868 H   0  0  0  0  0  0  0  0  0  0  0  0
  155.9771  133.7356  165.4101 H   0  0  0  0  0  0  0  0  0  0  0  0
  154.7152  131.9149  164.1255 H   0  0  0  0  0  0  0  0  0  0  0  0
  153.2064  132.5424  164.7673 H   0  0  0  0  0  0  0  0  0  0  0  0
  154.4010  131.8342  165.8478 H   0  0  0  0  0  0  0  0  0  0  0  0
  153.4291  134.0075  166.3867 H   0  0  0  0  0  0  0  0  0  0  0  0
  153.1269  136.8591  164.1827 H   0  0  0  0  0  0  0  0  0  0  0  0
  154.3218  138.1215  164.1480 H   0  0  0  0  0  0  0  0  0  0  0  0
  153.2224  137.9964  161.9656 H   0  0  0  0  0  0  0  0  0  0  0  0
  153.6002  136.2975  161.7879 H   0  0  0  0  0  0  0  0  0  0  0  0
  153.3938  142.1281  158.0704 H   0  0  0  0  0  0  0  0  0  0  0  0
  152.0897  143.4794  156.6416 H   0  0  0  0  0  0  0  0  0  0  0  0
  151.9355  145.1427  157.2059 H   0  0  0  0  0  0  0  0  0  0  0  0
  150.5589  144.0351  157.3141 H   0  0  0  0  0  0  0  0  0  0  0  0
  155.5106  138.5040  161.9746 H   0  0  0  0  0  0  0  0  0  0  0  0
  1  2  1  0  0  0  0
  1 26  1  0  0  0  0
  1 27  1  0  0  0  0
  1 28  1  0  0  0  0
  2 24  1  0  0  0  0
  2  3  2  0  0  0  0
  3  4  1  0  0  0  0
  3 29  1  0  0  0  0
  4 22  2  0  0  0  0
  4  5  1  0  0  0  0
  5  6  2  0  0  0  0
  6  7  1  0  0  0  0
  6 30  1  0  0  0  0
  7  8  1  0  0  0  0
  7 22  1  0  0  0  0
  8  9  1  0  0  0  0
  8 31  1  0  0  0  0
  8 32  1  0  0  0  0
  9 10  1  0  0  0  0
  9 11  1  0  0  0  0
  9 33  1  0  0  0  0
 10 34  1  0  0  0  0
 11 12  1  0  0  0  0
 11 35  1  0  0  0  0
 11 36  1  0  0  0  0
 12 21  1  0  0  0  0
 12 13  1  0  0  0  0
 12 56  1  0  0  0  0
 13 14  1  0  0  0  0
 13 37  1  0  0  0  0
 13 38  1  0  0  0  0
 14 15  1  0  0  0  0
 14 39  1  0  0  0  0
 14 40  1  0  0  0  0
 15 16  1  0  0  0  0
 15 20  1  0  0  0  0
 16 17  1  0  0  0  0
 16 41  1  0  0  0  0
 16 42  1  0  0  0  0
 17 18  1  0  0  0  0
 17 19  1  0  0  0  0
 17 43  1  0  0  0  0
 18 44  1  0  0  0  0
 18 45  1  0  0  0  0
 18 46  1  0  0  0  0
 19 47  1  0  0  0  0
 20 21  1  0  0  0  0
 20 48  1  0  0  0  0
 20 49  1  0  0  0  0
 21 50  1  0  0  0  0
 21 51  1  0  0  0  0
 22 23  1  0  0  0  0
 23 24  2  0  0  0  0
 23 52  1  0  0  0  0
 24 25  1  0  0  0  0
 25 53  1  0  0  0  0
 25 54  1  0  0  0  0
 25 55  1  0  0  0  0
M  CHG  1  12   1
M  END
> <s_m_source_file>
AV-unprocessed.smi

> <i_m_source_file_index>
1033

> <i_lp_mmshare_version>
43012

> <i_f3d_flags>
0

> <s_epik_input>
W0NIM11jKFtjSF0xKWMoW0NIM10pW2NIXWMoYzEyKW4oW2NIXW4yKVtDSDJdW0NASF0oW09IXSlbQ0gyXU4zW0NIMl1bQ0gyXU4oW0NIMl1bQ0gyXTMpW0NIMl1bQ0BIXShbQ0gzXSlbT0hd

> <s_epik_cmdline>
J2VwaWtfcHl0aG9uJywgJy1waCcsICc3LjAnLCAnLXRuJywgJzgnLCAnLW1hJywgJzIwMCcsICctbWV0YWxfYmluZGluZycsICctaW1hZScsICc8aW5maWxlLm1hZT4nLCAnLW9tYWUnLCAnPG91dGZpbGUubWFlPic=

> <r_epik_Ionization_Penalty>
0.131893

> <r_epik_Ionization_Penalty_Charging>
0.00208556

> <r_epik_Ionization_Penalty_Neutral>
0.129808

> <r_epik_State_Penalty>
0.452125

> <r_epik_Charging_Adjusted_Penalty>
0.454211

> <i_epik_Tot_Q>
1

> <i_epik_Tot_abs_Q>
1

> <r_epik_Metal_State_Penalty>
0.376389

> <b_epik_Metal_Only>
0

> <s_lp_Force_Field>
OPLS_2005

> <r_lp_Energy>
35.7629

> <b_lp_Chiralities_Consistent>
1

> <s_lp_Variant>
AV-unprocessed.smi:1033-2

> <Gold.Version>
5.8.1

> <Gold.Id.Protein>
6NUR|6NUR_protein|mol2

> <Gold.PLP.Fitness>
56.2473

> <Gold.PLP.PLP>
-57.1135

> <Gold.PLP.part.hbond>
-1.4067

> <Gold.PLP.part.metal>
0.0000

> <Gold.PLP.part.buried>
-5.4586

> <Gold.PLP.part.nonpolar>
-49.3515

> <Gold.PLP.part.repulsive>
0.1337

> <Gold.PLP.ligand.clash>
0.0000

> <Gold.PLP.ligand.torsion>
1.9627

> <Gold.PLP.Chemscore.Hbond>
1.0000

> <Gold.PLP.Chemscore.CHOScore>
0.0000

> <Gold.PLP.Chemscore.Metal>
0.0000

> <Gold.Chemscore.Hbonds>
donor molecule, donor type, donor heavy atom, donor atom, acceptor molecule, acceptor atom, score
      P1  H  7997  8010       L1    10  1.00

> <Gold.PLP.Chemscore.Internal.Correction>
0.0592

> <Gold.Rescore>
     Score         DG    S(hbond)    S(metal)    S(lipo)     H(rot)  DE(clash)    DE(int)     intcor
     15.76     -19.32       0.97        0.00     157.79       3.07       1.62       1.94       ----

> <Gold.Chemscore.Fitness>
15.7607

> <Gold.Chemscore.DG>
-19.3225

> <Gold.Chemscore.ZeroCoef>
-5.4800

> <Gold.Chemscore.Hbond>
0.9662

> <Gold.Chemscore.Metal>
0.0000

> <Gold.Chemscore.Lipo>
157.7938

> <Gold.Chemscore.Internal_Hbond>
0.0000

> <Gold.Chemscore.DEClash>
1.6191

> <Gold.Chemscore.DEInternal>
1.9426

> <Gold.Chemscore.Rot>
3.0650

> <Gold.Chemscore.Internal.Correction>
   9.000000E+99

> <Gold.Chemscore.Hbonds>
donor molecule, donor type, donor heavy atom, donor atom, acceptor molecule, acceptor atom, score
      P1  H  7997  8010       L1    10  0.90

> <Gold.Chemscore.Hbond.Weighted>
-3.2271

> <Gold.Chemscore.Metal.Weighted>
-0.0000

> <Gold.Chemscore.Lipo.Weighted>
-18.4619

> <Gold.Chemscore.Internal_Hbond.Weighted>
0.0000

> <Gold.Chemscore.DEClash.Weighted>
1.6191

> <Gold.Chemscore.DEInternal.Weighted>
1.9426

> <Gold.Chemscore.Rot.Weighted>
7.8465

> <Gold.Chemscore.Internal.Correction.Weighted>
   9.000000E+99

> <Gold.Protein.RotatedTorsions>
[ 6907 6896 6895 6894 ] final -138.41 input  -60.11 | X-H torsion
[ 7974 7965 7964 7962 ] final    6.53 input  175.53 | X-H torsion
[ 8008 7997 7996 7995 ] final   19.29 input   59.86 | X-H torsion
[ 10167 10162 10161 10158 ] final -151.81 input  -65.29 | X-H torsion
[ 10718 10713 10712 10709 ] final   46.35 input   66.30 | X-H torsion
[ 10763 10752 10751 10750 ] final  114.32 input  -60.55 | X-H torsion
[ 11005 11000 10999 10996 ] final  -86.03 input  -57.11 | X-H torsion

> <Gold.Protein.ActiveResidues>
 VAL166  LYS551  ARG553  GLY616  TRP617  ASP618  TYR619  PRO620  LYS621  CYS622 
 ASP623  PHE694  ASN695  SER759  ASP760  ASP761  ALA762  ILE779  LEU786  VAL792 
 PHE793  MET794  SER795  GLU796  ALA797  LYS798  CYS799  TRP800  GLU811  SER814 

> <Gold.Protein.RotatedAtoms>
  151.0347  133.5759  159.2656 H   0  0  0  0  0  0  0  0  0  0  0  0  # atno 6907 bound_to 6896
  151.2828  135.0718  159.9185 H   0  0  0  0  0  0  0  0  0  0  0  0  # atno 6908 bound_to 6896
  152.5352  134.0058  159.7970 H   0  0  0  0  0  0  0  0  0  0  0  0  # atno 6909 bound_to 6896
  146.2434  140.0219  142.8397 H   0  0  0  0  0  0  0  0  0  0  0  0  # atno 7974 bound_to 7965
  154.9185  140.3024  155.5228 H   0  0  0  0  0  0  0  0  0  0  0  0  # atno 8008 bound_to 7997
  156.3011  140.2376  156.4169 H   0  0  0  0  0  0  0  0  0  0  0  0  # atno 8009 bound_to 7997
  154.8354  140.0416  157.1494 H   0  0  0  0  0  0  0  0  0  0  0  0  # atno 8010 bound_to 7997
  139.7235  143.8920  152.2511 H   0  0  0  0  0  0  0  0  0  0  0  0  # atno 10167 bound_to 10162
  157.4471  130.8116  149.7752 H   0  0  0  0  0  0  0  0  0  0  0  0  # atno 10718 bound_to 10713
  153.5055  135.3629  155.2561 H   0  0  0  0  0  0  0  0  0  0  0  0  # atno 10763 bound_to 10752
  154.8745  135.4010  154.3429 H   0  0  0  0  0  0  0  0  0  0  0  0  # atno 10764 bound_to 10752
  153.4073  135.7077  153.6450 H   0  0  0  0  0  0  0  0  0  0  0  0  # atno 10765 bound_to 10752
  141.1635  133.7432  156.9101 H   0  0  0  0  0  0  0  0  0  0  0  0  # atno 11005 bound_to 11000
  145.1233  140.9475  143.4587 LP  0  0  0  0  0  0  0  0  0  0  0  0  # atno 17320 bound_to 7965
  145.0459  139.3221  143.5953 LP  0  0  0  0  0  0  0  0  0  0  0  0  # atno 17321 bound_to 7965
  139.8823  144.7011  150.8864 LP  0  0  0  0  0  0  0  0  0  0  0  0  # atno 17342 bound_to 10162
  140.7758  143.3652  151.1753 LP  0  0  0  0  0  0  0  0  0  0  0  0  # atno 17343 bound_to 10162
  155.9972  130.3901  150.2750 LP  0  0  0  0  0  0  0  0  0  0  0  0  # atno 17370 bound_to 10713
  157.0919  131.0172  151.3118 LP  0  0  0  0  0  0  0  0  0  0  0  0  # atno 17371 bound_to 10713
  140.1523  134.9222  157.2608 LP  0  0  0  0  0  0  0  0  0  0  0  0  # atno 17394 bound_to 11000
  140.2709  134.3462  155.7374 LP  0  0  0  0  0  0  0  0  0  0  0  0  # atno 17395 bound_to 11000

$$$$
