AV-unprocessed.smi:160|AV-procd|sdf|1343|dock5
  -GOLD-   2262019 43D 1   1.00000     0.00000
 Structure written by MMmdl.
 29 30  0  0  0  0  0  0  0  0  1 V2000
  149.5269  136.3536  158.2331 N   0  0  0  0  0  0  0  0  0  0  0  0
  150.2530  135.8349  157.2375 C   0  0  0  0  0  0  0  0  0  0  0  0
  150.6257  134.6629  157.2363 O   0  0  0  0  0  0  0  0  0  0  0  0
  150.5943  136.7673  156.1082 C   0  0  0  0  0  0  0  0  0  0  0  0
  151.3365  136.3433  155.0426 N   0  0  0  0  0  0  0  0  0  0  0  0
  151.3706  137.4739  154.3489 C   0  0  0  0  0  0  0  0  0  0  0  0
  150.7075  138.4854  154.9182 N   0  0  0  0  0  0  0  0  0  0  0  0
  150.5484  139.9016  154.4701 C   0  0  2  0  0  0  0  0  0  0  0  0
  151.1712  140.7085  155.4257 O   0  0  0  0  0  0  0  0  0  0  0  0
  150.2746  141.7045  155.9121 C   0  0  2  0  0  0  0  0  0  0  0  0
  150.6059  142.0230  157.3782 C   0  0  0  0  0  0  0  0  0  0  0  0
  149.6535  142.9201  157.9074 O   0  0  0  0  0  0  0  0  0  0  0  0
  148.8985  141.0640  155.7227 C   0  0  1  0  0  0  0  0  0  0  0  0
  147.8411  142.0041  155.6794 O   0  0  0  0  0  0  0  0  0  0  0  0
  149.0648  140.2969  154.4167 C   0  0  1  0  0  0  0  0  0  0  0  0
  148.7989  141.0945  153.2775 O   0  0  0  0  0  0  0  0  0  0  0  0
  150.1962  138.0407  156.0936 N   0  0  0  0  0  0  0  0  0  0  0  0
  151.0566  139.9448  153.5055 H   0  0  0  0  0  0  0  0  0  0  0  0
  150.3538  142.5928  155.2822 H   0  0  0  0  0  0  0  0  0  0  0  0
  148.7075  140.3595  156.5331 H   0  0  0  0  0  0  0  0  0  0  0  0
  148.4208  139.4172  154.3727 H   0  0  0  0  0  0  0  0  0  0  0  0
  149.2664  135.7766  159.0192 H   0  0  0  0  0  0  0  0  0  0  0  0
  149.2437  137.3217  158.1909 H   0  0  0  0  0  0  0  0  0  0  0  0
  151.8910  137.5668  153.4069 H   0  0  0  0  0  0  0  0  0  0  0  0
  150.5666  141.1142  157.9791 H   0  0  0  0  0  0  0  0  0  0  0  0
  151.6117  142.4330  157.4762 H   0  0  0  0  0  0  0  0  0  0  0  0
  149.3853  143.5132  157.2225 H   0  0  0  0  0  0  0  0  0  0  0  0
  148.2100  142.8667  155.5653 H   0  0  0  0  0  0  0  0  0  0  0  0
  149.2343  140.7036  152.5350 H   0  0  0  0  0  0  0  0  0  0  0  0
  1  2  1  0  0  0  0
  1 22  1  0  0  0  0
  1 23  1  0  0  0  0
  2  3  2  0  0  0  0
  2  4  1  0  0  0  0
  4 17  2  0  0  0  0
  4  5  1  0  0  0  0
  5  6  2  0  0  0  0
  6  7  1  0  0  0  0
  6 24  1  0  0  0  0
  7  8  1  0  0  0  0
  7 17  1  0  0  0  0
  8 18  1  0  0  0  0
  8 15  1  0  0  0  0
  8  9  1  0  0  0  0
  9 10  1  0  0  0  0
 10 19  1  0  0  0  0
 10 11  1  0  0  0  0
 10 13  1  0  0  0  0
 11 12  1  0  0  0  0
 11 25  1  0  0  0  0
 11 26  1  0  0  0  0
 12 27  1  0  0  0  0
 13 20  1  0  0  0  0
 13 14  1  0  0  0  0
 13 15  1  0  0  0  0
 14 28  1  0  0  0  0
 15 21  1  0  0  0  0
 15 16  1  0  0  0  0
 16 29  1  0  0  0  0
M  END
> <s_m_source_file>
AV-unprocessed.smi

> <i_m_source_file_index>
160

> <i_lp_mmshare_version>
43012

> <i_f3d_flags>
0

> <s_epik_input>
W05IMl1DKD1PKWMxbltjSF1uKG4xKVtDQEBIXTJPW0NASF0oW0NIMl1bT0hdKVtDQEBIXShbT0hdKVtDQEhdMltPSF0=

> <s_epik_cmdline>
J2VwaWtfcHl0aG9uJywgJy1waCcsICc3LjAnLCAnLXRuJywgJzgnLCAnLW1hJywgJzIwMCcsICctbWV0YWxfYmluZGluZycsICctaW1hZScsICc8aW5maWxlLm1hZT4nLCAnLW9tYWUnLCAnPG91dGZpbGUubWFlPic=

> <r_lp_tautomer_probability>
1

> <r_epik_Ionization_Penalty>
1.06932e-05

> <r_epik_Ionization_Penalty_Charging>
0

> <r_epik_Ionization_Penalty_Neutral>
1.06932e-05

> <r_epik_State_Penalty>
-0

> <r_epik_Charging_Adjusted_Penalty>
0

> <i_epik_Tot_Q>
0

> <i_epik_Tot_abs_Q>
0

> <r_epik_Metal_State_Penalty>
0.0142097

> <b_epik_Metal_Only>
0

> <s_epik_Chemistry_Notes>
This compound contains an acetal/aminal-like group ( X-CH(R)-Y where X, Y are N, S, or O) that may be acid/base labile, releasing an aldehyde.

> <s_lp_Force_Field>
OPLS_2005

> <r_lp_Energy>
39.0499

> <b_lp_Chiralities_Consistent>
1

> <s_lp_Variant>
AV-unprocessed.smi:160-1

> <Gold.Version>
5.8.1

> <Gold.Id.Protein>
6NUR|6NUR_protein|mol2

> <Gold.PLP.Fitness>
41.4382

> <Gold.PLP.PLP>
-25.0533

> <Gold.PLP.part.hbond>
-7.0210

> <Gold.PLP.part.metal>
0.0000

> <Gold.PLP.part.buried>
-0.0977

> <Gold.PLP.part.nonpolar>
-17.8032

> <Gold.PLP.part.repulsive>
0.2885

> <Gold.PLP.ligand.clash>
0.0000

> <Gold.PLP.ligand.torsion>
0.0480

> <Gold.PLP.Chemscore.Hbond>
4.5760

> <Gold.PLP.Chemscore.CHOScore>
0.9091

> <Gold.PLP.Chemscore.Metal>
0.0000

> <Gold.Chemscore.Hbonds>
donor molecule, donor type, donor heavy atom, donor atom, acceptor molecule, acceptor atom, score
      L1  H    12    27       P1  8028  1.00
      L1  H    14    28       P1  8028  1.00
      L1  H    16    29       P1  7957  1.00
      P1  H  6896  6907       L1     3  0.34
      P1  H 10752 10765       L1     5  1.00
      L1  C     6    24       P1  7949  0.66

> <Gold.PLP.Chemscore.Internal.Correction>
0.0256

> <Gold.Rescore>
     Score         DG    S(hbond)    S(metal)    S(lipo)     H(rot)  DE(clash)    DE(int)     intcor
      8.67     -10.00       3.49        0.00      27.83       4.06       1.25       0.08       ----

> <Gold.Chemscore.Fitness>
8.6720

> <Gold.Chemscore.DG>
-9.9954

> <Gold.Chemscore.ZeroCoef>
-5.4800

> <Gold.Chemscore.Hbond>
3.4888

> <Gold.Chemscore.Metal>
0.0000

> <Gold.Chemscore.Lipo>
27.8339

> <Gold.Chemscore.Internal_Hbond>
0.0000

> <Gold.Chemscore.DEClash>
1.2470

> <Gold.Chemscore.DEInternal>
0.0764

> <Gold.Chemscore.Rot>
4.0600

> <Gold.Chemscore.Internal.Correction>
   9.000000E+99

> <Gold.Chemscore.Hbonds>
donor molecule, donor type, donor heavy atom, donor atom, acceptor molecule, acceptor atom, score
      L1  H    12    27       P1  8028  0.73
      L1  H    14    28       P1  8028  0.94
      L1  H    16    29       P1  7957  0.97
      P1  H  6896  6907       L1     3  0.18
      P1  H 10752 10765       L1     5  0.50

> <Gold.Chemscore.Hbond.Weighted>
-11.6524

> <Gold.Chemscore.Metal.Weighted>
-0.0000

> <Gold.Chemscore.Lipo.Weighted>
-3.2566

> <Gold.Chemscore.Internal_Hbond.Weighted>
0.0000

> <Gold.Chemscore.DEClash.Weighted>
1.2470

> <Gold.Chemscore.DEInternal.Weighted>
0.0764

> <Gold.Chemscore.Rot.Weighted>
10.3936

> <Gold.Chemscore.Internal.Correction.Weighted>
   9.000000E+99

> <Gold.Protein.RotatedTorsions>
[ 6907 6896 6895 6894 ] final -102.07 input  -60.11 | X-H torsion
[ 7974 7965 7964 7962 ] final   37.48 input  175.53 | X-H torsion
[ 8008 7997 7996 7995 ] final  -56.88 input   59.86 | X-H torsion
[ 10167 10162 10161 10158 ] final   81.78 input  -65.29 | X-H torsion
[ 10718 10713 10712 10709 ] final   43.97 input   66.30 | X-H torsion
[ 10763 10752 10751 10750 ] final -170.64 input  -60.55 | X-H torsion
[ 11005 11000 10999 10996 ] final -167.60 input  -57.11 | X-H torsion

> <Gold.Protein.ActiveResidues>
 VAL166  LYS551  ARG553  GLY616  TRP617  ASP618  TYR619  PRO620  LYS621  CYS622 
 ASP623  PHE694  ASN695  SER759  ASP760  ASP761  ALA762  ILE779  LEU786  VAL792 
 PHE793  MET794  SER795  GLU796  ALA797  LYS798  CYS799  TRP800  GLU811  SER814 

> <Gold.Protein.RotatedAtoms>
  150.7180  134.0638  159.3840 H   0  0  0  0  0  0  0  0  0  0  0  0  # atno 6907 bound_to 6896
  151.8618  135.0519  160.0479 H   0  0  0  0  0  0  0  0  0  0  0  0  # atno 6908 bound_to 6896
  152.2711  133.5347  159.5476 H   0  0  0  0  0  0  0  0  0  0  0  0  # atno 6909 bound_to 6896
  146.1134  139.5889  142.9337 H   0  0  0  0  0  0  0  0  0  0  0  0  # atno 7974 bound_to 7965
  154.4246  140.1119  156.5708 H   0  0  0  0  0  0  0  0  0  0  0  0  # atno 8008 bound_to 7997
  155.6214  140.3495  155.4634 H   0  0  0  0  0  0  0  0  0  0  0  0  # atno 8009 bound_to 7997
  156.0021  140.1201  157.0527 H   0  0  0  0  0  0  0  0  0  0  0  0  # atno 8010 bound_to 7997
  139.9357  144.6123  150.8301 H   0  0  0  0  0  0  0  0  0  0  0  0  # atno 10167 bound_to 10162
  157.4218  130.7973  149.7522 H   0  0  0  0  0  0  0  0  0  0  0  0  # atno 10718 bound_to 10713
  154.6393  135.2896  155.0123 H   0  0  0  0  0  0  0  0  0  0  0  0  # atno 10763 bound_to 10752
  154.1255  135.6541  153.4915 H   0  0  0  0  0  0  0  0  0  0  0  0  # atno 10764 bound_to 10752
  153.0318  135.5298  154.7253 H   0  0  0  0  0  0  0  0  0  0  0  0  # atno 10765 bound_to 10752
  140.5515  134.5424  157.5123 H   0  0  0  0  0  0  0  0  0  0  0  0  # atno 11005 bound_to 11000
  145.5616  141.0404  143.2223 LP  0  0  0  0  0  0  0  0  0  0  0  0  # atno 17320 bound_to 7965
  144.7532  139.7141  143.7265 LP  0  0  0  0  0  0  0  0  0  0  0  0  # atno 17321 bound_to 7965
  140.7625  143.3200  151.2644 LP  0  0  0  0  0  0  0  0  0  0  0  0  # atno 17342 bound_to 10162
  139.6746  143.9960  152.2773 LP  0  0  0  0  0  0  0  0  0  0  0  0  # atno 17343 bound_to 10162
  155.9883  130.3960  150.3125 LP  0  0  0  0  0  0  0  0  0  0  0  0  # atno 17370 bound_to 10713
  157.1273  131.0262  151.2984 LP  0  0  0  0  0  0  0  0  0  0  0  0  # atno 17371 bound_to 10713
  139.9453  134.7713  156.0577 LP  0  0  0  0  0  0  0  0  0  0  0  0  # atno 17394 bound_to 11000
  141.1169  133.6625  156.3116 LP  0  0  0  0  0  0  0  0  0  0  0  0  # atno 17395 bound_to 11000

$$$$
