AV-unprocessed.smi:920|AV-procd|sdf|4168|dock6
  -GOLD-   22720 2 73D 1   1.00000     0.00000
 Structure written by MMmdl.
 37 38  0  0  0  0  0  0  0  0  1 V2000
  145.9501  137.1031  152.5369 C   0  0  0  0  0  0  0  0  0  0  0  0
  146.2865  138.3898  152.0291 O   0  0  0  0  0  0  0  0  0  0  0  0
  147.0009  139.2474  152.8404 C   0  0  0  0  0  0  0  0  0  0  0  0
  147.8868  138.6980  153.7885 C   0  0  0  0  0  0  0  0  0  0  0  0
  148.6180  139.5664  154.6215 C   0  0  0  0  0  0  0  0  0  0  0  0
  148.4318  140.9624  154.4847 C   0  0  0  0  0  0  0  0  0  0  0  0
  149.1247  141.9390  155.2495 N   0  0  0  0  0  0  0  0  0  0  0  0
  150.0994  141.7521  156.1557 C   0  0  0  0  0  0  0  0  0  0  0  0
  150.5366  140.6578  156.5115 O   0  0  0  0  0  0  0  0  0  0  0  0
  150.5292  142.9229  156.6482 N   0  0  0  0  0  0  0  0  0  0  0  0
  151.5681  143.0981  157.6600 C   0  0  0  0  0  0  0  0  0  0  0  0
  151.4023  142.0389  158.7668 C   0  0  0  0  0  0  0  0  0  0  0  0
  152.4196  142.2450  159.9011 C   0  0  0  0  0  0  0  0  0  0  0  0
  152.3316  143.6663  160.4789 C   0  0  0  0  0  0  0  0  0  0  0  0
  152.5079  144.7231  159.3773 C   0  0  0  0  0  0  0  0  0  0  0  0
  151.4893  144.5220  158.2434 C   0  0  0  0  0  0  0  0  0  0  0  0
  147.5327  141.4112  153.4955 C   0  0  0  0  0  0  0  0  0  0  0  0
  146.8292  140.5844  152.6938 N   0  0  0  0  0  0  0  0  0  0  0  0
  145.3945  136.5503  151.7796 H   0  0  0  0  0  0  0  0  0  0  0  0
  145.3177  137.1779  153.4228 H   0  0  0  0  0  0  0  0  0  0  0  0
  146.8416  136.5238  152.7812 H   0  0  0  0  0  0  0  0  0  0  0  0
  148.0076  137.6280  153.8726 H   0  0  0  0  0  0  0  0  0  0  0  0
  149.3127  139.1473  155.3328 H   0  0  0  0  0  0  0  0  0  0  0  0
  148.8054  142.8892  155.1296 H   0  0  0  0  0  0  0  0  0  0  0  0
  150.1013  143.7662  156.2950 H   0  0  0  0  0  0  0  0  0  0  0  0
  152.5567  142.9722  157.2149 H   0  0  0  0  0  0  0  0  0  0  0  0
  150.3923  142.0866  159.1768 H   0  0  0  0  0  0  0  0  0  0  0  0
  151.5187  141.0391  158.3470 H   0  0  0  0  0  0  0  0  0  0  0  0
  152.2503  141.5117  160.6902 H   0  0  0  0  0  0  0  0  0  0  0  0
  153.4273  142.0661  159.5240 H   0  0  0  0  0  0  0  0  0  0  0  0
  151.3661  143.8042  160.9675 H   0  0  0  0  0  0  0  0  0  0  0  0
  153.0906  143.8023  161.2497 H   0  0  0  0  0  0  0  0  0  0  0  0
  152.4014  145.7225  159.7998 H   0  0  0  0  0  0  0  0  0  0  0  0
  153.5195  144.6646  158.9737 H   0  0  0  0  0  0  0  0  0  0  0  0
  151.6656  145.2574  157.4575 H   0  0  0  0  0  0  0  0  0  0  0  0
  150.4846  144.7114  158.6245 H   0  0  0  0  0  0  0  0  0  0  0  0
  147.3674  142.4679  153.3438 H   0  0  0  0  0  0  0  0  0  0  0  0
  1  2  1  0  0  0  0
  1 19  1  0  0  0  0
  1 20  1  0  0  0  0
  1 21  1  0  0  0  0
  2  3  1  0  0  0  0
  3 18  1  0  0  0  0
  3  4  2  0  0  0  0
  4  5  1  0  0  0  0
  4 22  1  0  0  0  0
  5  6  2  0  0  0  0
  5 23  1  0  0  0  0
  6  7  1  0  0  0  0
  6 17  1  0  0  0  0
  7  8  1  0  0  0  0
  7 24  1  0  0  0  0
  8  9  2  0  0  0  0
  8 10  1  0  0  0  0
 10 11  1  0  0  0  0
 10 25  1  0  0  0  0
 11 16  1  0  0  0  0
 11 12  1  0  0  0  0
 11 26  1  0  0  0  0
 12 13  1  0  0  0  0
 12 27  1  0  0  0  0
 12 28  1  0  0  0  0
 13 14  1  0  0  0  0
 13 29  1  0  0  0  0
 13 30  1  0  0  0  0
 14 15  1  0  0  0  0
 14 31  1  0  0  0  0
 14 32  1  0  0  0  0
 15 16  1  0  0  0  0
 15 33  1  0  0  0  0
 15 34  1  0  0  0  0
 16 35  1  0  0  0  0
 16 36  1  0  0  0  0
 17 18  2  0  0  0  0
 17 37  1  0  0  0  0
M  END
> <s_m_source_file>
AV-unprocessed.smi

> <i_m_source_file_index>
920

> <i_lp_mmshare_version>
43012

> <i_f3d_flags>
0

> <s_epik_input>
W0NIM11PYzFbY0hdW2NIXWMoW2NIXW4xKVtOSF1DKD1PKVtOSF1bQ0hdMltDSDJdW0NIMl1bQ0gyXVtDSDJdW0NIMl0y

> <s_epik_cmdline>
J2VwaWtfcHl0aG9uJywgJy1waCcsICc3LjAnLCAnLXRuJywgJzgnLCAnLW1hJywgJzIwMCcsICctbWV0YWxfYmluZGluZycsICctaW1hZScsICc8aW5maWxlLm1hZT4nLCAnLW9tYWUnLCAnPG91dGZpbGUubWFlPic=

> <r_lp_tautomer_probability>
1

> <r_epik_Ionization_Penalty>
9.99378e-05

> <r_epik_Ionization_Penalty_Charging>
0

> <r_epik_Ionization_Penalty_Neutral>
9.99378e-05

> <r_epik_State_Penalty>
-0

> <r_epik_Charging_Adjusted_Penalty>
0

> <i_epik_Tot_Q>
0

> <i_epik_Tot_abs_Q>
0

> <r_epik_Metal_State_Penalty>
-0

> <b_epik_Metal_Only>
0

> <s_lp_Force_Field>
OPLS_2005

> <r_lp_Energy>
12.0005

> <b_lp_Chiralities_Consistent>
1

> <s_lp_Variant>
AV-unprocessed.smi:920-1

> <Gold.Version>
5.8.1

> <Gold.Id.Protein>
6NUR|6NUR_protein|mol2

> <Gold.PLP.Fitness>
41.1106

> <Gold.PLP.PLP>
-36.3312

> <Gold.PLP.part.hbond>
-2.0000

> <Gold.PLP.part.metal>
0.0000

> <Gold.PLP.part.buried>
-6.1099

> <Gold.PLP.part.nonpolar>
-29.5466

> <Gold.PLP.part.repulsive>
0.8636

> <Gold.PLP.ligand.clash>
0.0000

> <Gold.PLP.ligand.torsion>
0.6119

> <Gold.PLP.Chemscore.Hbond>
2.0000

> <Gold.PLP.Chemscore.CHOScore>
0.0000

> <Gold.PLP.Chemscore.Metal>
0.0000

> <Gold.Chemscore.Hbonds>
donor molecule, donor type, donor heavy atom, donor atom, acceptor molecule, acceptor atom, score
      L1  H     7    24       P1  8028  1.00
      L1  H    10    25       P1  8028  1.00

> <Gold.PLP.Chemscore.Internal.Correction>
0.0031

> <Gold.Rescore>
     Score         DG    S(hbond)    S(metal)    S(lipo)     H(rot)  DE(clash)    DE(int)     intcor
     17.03     -20.30       1.97        0.00      97.25       1.23       0.14       3.12       ----

> <Gold.Chemscore.Fitness>
17.0313

> <Gold.Chemscore.DG>
-20.2986

> <Gold.Chemscore.ZeroCoef>
-5.4800

> <Gold.Chemscore.Hbond>
1.9690

> <Gold.Chemscore.Metal>
0.0000

> <Gold.Chemscore.Lipo>
97.2489

> <Gold.Chemscore.Internal_Hbond>
0.0000

> <Gold.Chemscore.DEClash>
0.1447

> <Gold.Chemscore.DEInternal>
3.1226

> <Gold.Chemscore.Rot>
1.2250

> <Gold.Chemscore.Internal.Correction>
   9.000000E+99

> <Gold.Chemscore.Hbonds>
donor molecule, donor type, donor heavy atom, donor atom, acceptor molecule, acceptor atom, score
      L1  H     7    24       P1  8028  0.94
      L1  H    10    25       P1  8028  0.99

> <Gold.Chemscore.Hbond.Weighted>
-6.5765

> <Gold.Chemscore.Metal.Weighted>
-0.0000

> <Gold.Chemscore.Lipo.Weighted>
-11.3781

> <Gold.Chemscore.Internal_Hbond.Weighted>
0.0000

> <Gold.Chemscore.DEClash.Weighted>
0.1447

> <Gold.Chemscore.DEInternal.Weighted>
3.1226

> <Gold.Chemscore.Rot.Weighted>
3.1360

> <Gold.Chemscore.Internal.Correction.Weighted>
   9.000000E+99

> <Gold.Protein.RotatedTorsions>
[ 6907 6896 6895 6894 ] final -138.78 input  -60.11 | X-H torsion
[ 7974 7965 7964 7962 ] final  145.14 input  175.53 | X-H torsion
[ 8008 7997 7996 7995 ] final  -52.64 input   59.86 | X-H torsion
[ 10167 10162 10161 10158 ] final  142.47 input  -65.29 | X-H torsion
[ 10718 10713 10712 10709 ] final -126.50 input   66.30 | X-H torsion
[ 10763 10752 10751 10750 ] final   68.17 input  -60.55 | X-H torsion
[ 11005 11000 10999 10996 ] final  105.69 input  -57.11 | X-H torsion

> <Gold.Protein.ActiveResidues>
 VAL166  LYS551  ARG553  GLY616  TRP617  ASP618  TYR619  PRO620  LYS621  CYS622 
 ASP623  PHE694  ASN695  SER759  ASP760  ASP761  ALA762  ILE779  LEU786  VAL792 
 PHE793  MET794  SER795  GLU796  ALA797  LYS798  CYS799  TRP800  GLU811  SER814 

> <Gold.Protein.RotatedAtoms>
  151.0393  133.5720  159.2652 H   0  0  0  0  0  0  0  0  0  0  0  0  # atno 6907 bound_to 6896
  151.2772  135.0702  159.9166 H   0  0  0  0  0  0  0  0  0  0  0  0  # atno 6908 bound_to 6896
  152.5361  134.0114  159.7994 H   0  0  0  0  0  0  0  0  0  0  0  0  # atno 6909 bound_to 6896
  144.8777  139.5747  143.5857 H   0  0  0  0  0  0  0  0  0  0  0  0  # atno 7974 bound_to 7965
  154.4112  140.1219  156.5025 H   0  0  0  0  0  0  0  0  0  0  0  0  # atno 8008 bound_to 7997
  155.6881  140.3495  155.4863 H   0  0  0  0  0  0  0  0  0  0  0  0  # atno 8009 bound_to 7997
  155.9493  140.1102  157.0980 H   0  0  0  0  0  0  0  0  0  0  0  0  # atno 8010 bound_to 7997
  139.4993  144.6104  151.6283 H   0  0  0  0  0  0  0  0  0  0  0  0  # atno 10167 bound_to 10162
  156.1771  130.6707  151.0257 H   0  0  0  0  0  0  0  0  0  0  0  0  # atno 10718 bound_to 10713
  153.0222  135.5257  154.7093 H   0  0  0  0  0  0  0  0  0  0  0  0  # atno 10763 bound_to 10752
  154.6180  135.2886  155.0360 H   0  0  0  0  0  0  0  0  0  0  0  0  # atno 10764 bound_to 10752
  154.1357  135.6586  153.4984 H   0  0  0  0  0  0  0  0  0  0  0  0  # atno 10765 bound_to 10752
  139.8805  134.9344  156.5552 H   0  0  0  0  0  0  0  0  0  0  0  0  # atno 11005 bound_to 11000
  146.2974  139.7319  142.9117 LP  0  0  0  0  0  0  0  0  0  0  0  0  # atno 17320 bound_to 7965
  145.4012  141.0385  143.3069 LP  0  0  0  0  0  0  0  0  0  0  0  0  # atno 17321 bound_to 7965
  140.5778  143.9999  150.6251 LP  0  0  0  0  0  0  0  0  0  0  0  0  # atno 17342 bound_to 10162
  140.3138  143.3181  152.0853 LP  0  0  0  0  0  0  0  0  0  0  0  0  # atno 17343 bound_to 10162
  157.6843  131.0829  150.7285 LP  0  0  0  0  0  0  0  0  0  0  0  0  # atno 17370 bound_to 10713
  156.7343  130.4719  149.5492 LP  0  0  0  0  0  0  0  0  0  0  0  0  # atno 17371 bound_to 10713
  140.8210  133.8354  155.8896 LP  0  0  0  0  0  0  0  0  0  0  0  0  # atno 17394 bound_to 11000
  140.9418  134.1891  157.4792 LP  0  0  0  0  0  0  0  0  0  0  0  0  # atno 17395 bound_to 11000

$$$$
