AV-unprocessed.smi:1602|AV-procd|sdf|6441|dock2
  -GOLD-   22720 7 93D 1   1.00000     0.00000
 Structure written by MMmdl.
 35 36  0  0  0  0  0  0  0  0  2 V2000
  152.2310  139.2841  158.9673 C   0  0  0  0  0  0  0  0  0  0  0  0
  151.9745  139.9990  157.6315 C   0  0  2  0  0  0  0  0  0  0  0  0
  151.0170  141.2165  157.7674 C   0  0  0  0  0  0  0  0  0  0  0  0
  151.6276  142.4431  158.2775 N   0  0  0  0  0  0  0  0  0  0  0  0
  151.5962  143.7148  157.7371 C   0  0  0  0  0  0  0  0  0  0  0  0
  152.2891  144.5371  158.5788 C   0  0  0  0  0  0  0  0  0  0  0  0
  152.6997  143.6733  159.6317 C   0  0  0  0  0  0  0  0  0  0  0  0
  152.2928  142.4274  159.4571 N   0  0  0  0  0  0  0  0  0  0  0  0
  151.4487  139.0325  156.6776 N   0  5  0  0  0  0  0  0  0  0  0  0
  151.9366  139.0635  155.1313 S   0  0  0  0  0  0  0  0  0  0  0  0
  152.9463  140.0927  154.8340 O   0  0  0  0  0  0  0  0  0  0  0  0
  152.1493  137.7155  154.5795 O   0  0  0  0  0  0  0  0  0  0  0  0
  150.4532  139.6517  154.4461 N   0  0  0  0  0  0  0  0  0  0  0  0
  150.0201  140.9973  154.8596 C   0  0  0  0  0  0  0  0  0  0  0  0
  148.8301  141.4842  154.0168 C   0  0  0  0  0  0  0  0  0  0  0  0
  147.7754  140.5361  154.0603 O   0  0  0  0  0  0  0  0  0  0  0  0
  148.1778  139.2946  153.5034 C   0  0  0  0  0  0  0  0  0  0  0  0
  149.3326  138.6965  154.3218 C   0  0  0  0  0  0  0  0  0  0  0  0
  152.6033  139.9821  159.7173 H   0  0  0  0  0  0  0  0  0  0  0  0
  152.9781  138.4978  158.8532 H   0  0  0  0  0  0  0  0  0  0  0  0
  151.3259  138.8214  159.3619 H   0  0  0  0  0  0  0  0  0  0  0  0
  152.9377  140.3841  157.2944 H   0  0  0  0  0  0  0  0  0  0  0  0
  150.5938  141.4453  156.7888 H   0  0  0  0  0  0  0  0  0  0  0  0
  150.1645  140.9636  158.3985 H   0  0  0  0  0  0  0  0  0  0  0  0
  151.0935  143.9228  156.8042 H   0  0  0  0  0  0  0  0  0  0  0  0
  152.4719  145.5945  158.4619 H   0  0  0  0  0  0  0  0  0  0  0  0
  153.2727  143.9133  160.5150 H   0  0  0  0  0  0  0  0  0  0  0  0
  149.7482  140.9695  155.9154 H   0  0  0  0  0  0  0  0  0  0  0  0
  150.8471  141.7001  154.7597 H   0  0  0  0  0  0  0  0  0  0  0  0
  148.4645  142.4354  154.4038 H   0  0  0  0  0  0  0  0  0  0  0  0
  149.1344  141.6602  152.9837 H   0  0  0  0  0  0  0  0  0  0  0  0
  147.3268  138.6135  153.5080 H   0  0  0  0  0  0  0  0  0  0  0  0
  148.4707  139.4263  152.4604 H   0  0  0  0  0  0  0  0  0  0  0  0
  149.6665  137.7730  153.8507 H   0  0  0  0  0  0  0  0  0  0  0  0
  148.9836  138.4323  155.3206 H   0  0  0  0  0  0  0  0  0  0  0  0
  1  2  1  0  0  0  0
  1 19  1  0  0  0  0
  1 20  1  0  0  0  0
  1 21  1  0  0  0  0
  2  3  1  0  0  0  0
  2  9  1  0  0  0  0
  2 22  1  0  0  0  0
  3  4  1  0  0  0  0
  3 23  1  0  0  0  0
  3 24  1  0  0  0  0
  4  8  1  0  0  0  0
  4  5  1  0  0  0  0
  5  6  2  0  0  0  0
  5 25  1  0  0  0  0
  6  7  1  0  0  0  0
  6 26  1  0  0  0  0
  7  8  2  0  0  0  0
  7 27  1  0  0  0  0
  9 10  1  0  0  0  0
 10 11  2  0  0  0  0
 10 12  2  0  0  0  0
 10 13  1  0  0  0  0
 13 18  1  0  0  0  0
 13 14  1  0  0  0  0
 14 15  1  0  0  0  0
 14 28  1  0  0  0  0
 14 29  1  0  0  0  0
 15 16  1  0  0  0  0
 15 30  1  0  0  0  0
 15 31  1  0  0  0  0
 16 17  1  0  0  0  0
 17 18  1  0  0  0  0
 17 32  1  0  0  0  0
 17 33  1  0  0  0  0
 18 34  1  0  0  0  0
 18 35  1  0  0  0  0
M  CHG  1   9  -1
M  END
> <s_m_source_file>
AV-unprocessed.smi

> <i_m_source_file_index>
1602

> <i_lp_mmshare_version>
43012

> <i_f3d_flags>
0

> <s_epik_input>
bjFbY0hdW2NIXVtjSF1uMVtDSDJdW0NAQEhdKFtDSDNdKVtOSF1TKD1PKSg9TylOMltDSDJdW0NIMl1PW0NIMl1bQ0gyXTI=

> <s_epik_cmdline>
J2VwaWtfcHl0aG9uJywgJy1waCcsICc3LjAnLCAnLXRuJywgJzgnLCAnLW1hJywgJzIwMCcsICctbWV0YWxfYmluZGluZycsICctaW1hZScsICc8aW5maWxlLm1hZT4nLCAnLW9tYWUnLCAnPG91dGZpbGUubWFlPic=

> <r_lp_tautomer_probability>
1

> <r_epik_Ionization_Penalty>
1.03144

> <r_epik_Ionization_Penalty_Charging>
1.03142

> <r_epik_Ionization_Penalty_Neutral>
2.21579e-05

> <r_epik_State_Penalty>
1.0826

> <r_epik_Charging_Adjusted_Penalty>
2.11402

> <i_epik_Tot_Q>
-1

> <i_epik_Tot_abs_Q>
1

> <r_epik_Metal_State_Penalty>
0.386234

> <b_epik_Metal_Only>
0

> <s_lp_Force_Field>
OPLS_2005

> <r_lp_Energy>
6.71123

> <b_lp_Chiralities_Consistent>
1

> <s_lp_Variant>
AV-unprocessed.smi:1602-3

> <Gold.Version>
5.8.1

> <Gold.Id.Protein>
6NUR|6NUR_protein|mol2

> <Gold.PLP.Fitness>
44.4282

> <Gold.PLP.PLP>
-36.1373

> <Gold.PLP.part.hbond>
-3.1965

> <Gold.PLP.part.metal>
0.0000

> <Gold.PLP.part.buried>
-3.6223

> <Gold.PLP.part.nonpolar>
-29.5201

> <Gold.PLP.part.repulsive>
0.3653

> <Gold.PLP.ligand.clash>
0.0000

> <Gold.PLP.ligand.torsion>
1.3834

> <Gold.PLP.Chemscore.Hbond>
2.1508

> <Gold.PLP.Chemscore.CHOScore>
1.0000

> <Gold.PLP.Chemscore.Metal>
0.0000

> <Gold.Chemscore.Hbonds>
donor molecule, donor type, donor heavy atom, donor atom, acceptor molecule, acceptor atom, score
      P1  H  7989  7998       L1    11  0.14
      P1  H  7997  8009       L1    11  1.00
      P1  H 10752 10764       L1    12  0.32
      L1  C     5    25       P1  8028  0.85

> <Gold.PLP.Chemscore.Internal.Correction>
1.6054

> <Gold.Rescore>
     Score         DG    S(hbond)    S(metal)    S(lipo)     H(rot)  DE(clash)    DE(int)     intcor
     15.50     -16.92       2.01        0.00      76.82       1.67       0.03       1.39       ----

> <Gold.Chemscore.Fitness>
15.4970

> <Gold.Chemscore.DG>
-16.9150

> <Gold.Chemscore.ZeroCoef>
-5.4800

> <Gold.Chemscore.Hbond>
2.0117

> <Gold.Chemscore.Metal>
0.0000

> <Gold.Chemscore.Lipo>
76.8211

> <Gold.Chemscore.Internal_Hbond>
0.0000

> <Gold.Chemscore.DEClash>
0.0323

> <Gold.Chemscore.DEInternal>
1.3858

> <Gold.Chemscore.Rot>
1.6688

> <Gold.Chemscore.Internal.Correction>
   9.000000E+99

> <Gold.Chemscore.Hbonds>
donor molecule, donor type, donor heavy atom, donor atom, acceptor molecule, acceptor atom, score
      P1  H  7997  8009       L1    11  0.94
      P1  H 10752 10764       L1    12  0.32

> <Gold.Chemscore.Hbond.Weighted>
-6.7192

> <Gold.Chemscore.Metal.Weighted>
-0.0000

> <Gold.Chemscore.Lipo.Weighted>
-8.9881

> <Gold.Chemscore.Internal_Hbond.Weighted>
0.0000

> <Gold.Chemscore.DEClash.Weighted>
0.0323

> <Gold.Chemscore.DEInternal.Weighted>
1.3858

> <Gold.Chemscore.Rot.Weighted>
4.2722

> <Gold.Chemscore.Internal.Correction.Weighted>
   9.000000E+99

> <Gold.Protein.RotatedTorsions>
[ 6907 6896 6895 6894 ] final   -1.57 input  -60.11 | X-H torsion
[ 7974 7965 7964 7962 ] final -112.72 input  175.53 | X-H torsion
[ 8008 7997 7996 7995 ] final -143.52 input   59.86 | X-H torsion
[ 10167 10162 10161 10158 ] final  -10.38 input  -65.29 | X-H torsion
[ 10718 10713 10712 10709 ] final  -43.42 input   66.30 | X-H torsion
[ 10763 10752 10751 10750 ] final  -60.87 input  -60.55 | X-H torsion
[ 11005 11000 10999 10996 ] final  -28.36 input  -57.11 | X-H torsion

> <Gold.Protein.ActiveResidues>
 VAL166  LYS551  ARG553  GLY616  TRP617  ASP618  TYR619  PRO620  LYS621  CYS622 
 ASP623  PHE694  ASN695  SER759  ASP760  ASP761  ALA762  ILE779  LEU786  VAL792 
 PHE793  MET794  SER795  GLU796  ALA797  LYS798  CYS799  TRP800  GLU811  SER814 

> <Gold.Protein.RotatedAtoms>
  151.5439  135.1068  159.9932 H   0  0  0  0  0  0  0  0  0  0  0  0  # atno 6907 bound_to 6896
  152.4523  133.7649  159.6777 H   0  0  0  0  0  0  0  0  0  0  0  0  # atno 6908 bound_to 6896
  150.8455  133.7802  159.3069 H   0  0  0  0  0  0  0  0  0  0  0  0  # atno 6909 bound_to 6896
  145.1406  140.8776  143.3704 H   0  0  0  0  0  0  0  0  0  0  0  0  # atno 7974 bound_to 7965
  155.5120  140.0584  157.2922 H   0  0  0  0  0  0  0  0  0  0  0  0  # atno 8008 bound_to 7997
  154.4548  140.1967  156.0359 H   0  0  0  0  0  0  0  0  0  0  0  0  # atno 8009 bound_to 7997
  156.0778  140.3251  155.7659 H   0  0  0  0  0  0  0  0  0  0  0  0  # atno 8010 bound_to 7997
  140.7112  143.5755  150.9047 H   0  0  0  0  0  0  0  0  0  0  0  0  # atno 10167 bound_to 10162
  156.2491  130.4186  149.8670 H   0  0  0  0  0  0  0  0  0  0  0  0  # atno 10718 bound_to 10713
  154.2759  135.6281  153.5328 H   0  0  0  0  0  0  0  0  0  0  0  0  # atno 10763 bound_to 10752
  152.9873  135.5621  154.5549 H   0  0  0  0  0  0  0  0  0  0  0  0  # atno 10764 bound_to 10752
  154.5129  135.2878  155.1303 H   0  0  0  0  0  0  0  0  0  0  0  0  # atno 10765 bound_to 10752
  140.9201  133.7404  156.0790 H   0  0  0  0  0  0  0  0  0  0  0  0  # atno 11005 bound_to 11000
  145.0536  139.3162  143.5916 LP  0  0  0  0  0  0  0  0  0  0  0  0  # atno 17320 bound_to 7965
  146.3505  139.9953  142.8681 LP  0  0  0  0  0  0  0  0  0  0  0  0  # atno 17321 bound_to 7965
  139.9481  143.6304  152.3036 LP  0  0  0  0  0  0  0  0  0  0  0  0  # atno 17342 bound_to 10162
  139.6813  144.7655  151.1604 LP  0  0  0  0  0  0  0  0  0  0  0  0  # atno 17343 bound_to 10162
  156.6225  130.8632  151.3478 LP  0  0  0  0  0  0  0  0  0  0  0  0  # atno 17370 bound_to 10713
  157.7207  130.9555  150.1428 LP  0  0  0  0  0  0  0  0  0  0  0  0  # atno 17371 bound_to 10713
  140.7998  134.3521  157.5442 LP  0  0  0  0  0  0  0  0  0  0  0  0  # atno 17394 bound_to 11000
  139.8774  134.9191  156.3218 LP  0  0  0  0  0  0  0  0  0  0  0  0  # atno 17395 bound_to 11000

$$$$
