AV-unprocessed.smi:1748|AV-procd|sdf|7043|dock9
  -GOLD-   22720 8263D 1   1.00000     0.00000
 Structure written by MMmdl.
 39 40  0  0  0  0  0  0  0  0  3 V2000
  146.9538  138.7615  153.5537 C   0  0  0  0  0  0  0  0  0  0  0  0
  148.0663  137.8799  153.9679 N   0  3  2  0  0  0  0  0  0  0  0  0
  147.5970  136.7088  154.7499 C   0  0  0  0  0  0  0  0  0  0  0  0
  148.7583  135.7482  155.0549 C   0  0  0  0  0  0  0  0  0  0  0  0
  149.9009  136.4750  155.7780 C   0  0  0  0  0  0  0  0  0  0  0  0
  150.3483  137.7004  154.9644 C   0  0  2  0  0  0  0  0  0  0  0  0
  151.3909  138.4242  155.6858 N   0  0  0  0  0  0  0  0  0  0  0  0
  151.1813  139.2524  156.7195 C   0  0  0  0  0  0  0  0  0  0  0  0
  150.0623  139.4845  157.1771 O   0  0  0  0  0  0  0  0  0  0  0  0
  152.3425  139.7530  157.1782 N   0  0  0  0  0  0  0  0  0  0  0  0
  152.5647  140.6716  158.2182 C   0  0  0  0  0  0  0  0  0  0  0  0
  151.7852  141.7594  158.4714 C   0  0  0  0  0  0  0  0  0  0  0  0
  152.0764  142.6901  159.5553 C   0  0  0  0  0  0  0  0  0  0  0  0
  151.2400  143.9137  159.8821 C   0  0  0  0  0  0  0  0  0  0  0  0
  149.9527  143.5808  159.9714 F   0  0  0  0  0  0  0  0  0  0  0  0
  151.6141  144.4285  161.0531 F   0  0  0  0  0  0  0  0  0  0  0  0
  151.3677  144.8558  158.9478 F   0  0  0  0  0  0  0  0  0  0  0  0
  153.2138  142.3420  160.2560 C   0  0  0  0  0  0  0  0  0  0  0  0
  154.0429  141.2925  160.0654 N   0  5  0  0  0  0  0  0  0  0  0  0
  153.7594  140.4253  159.0525 C   0  0  0  0  0  0  0  0  0  0  0  0
  154.4730  139.4483  158.8216 O   0  0  0  0  0  0  0  0  0  0  0  0
  149.1446  138.6207  154.6688 C   0  0  0  0  0  0  0  0  0  0  0  0
  146.4574  139.1990  154.4210 H   0  0  0  0  0  0  0  0  0  0  0  0
  146.2128  138.2034  152.9806 H   0  0  0  0  0  0  0  0  0  0  0  0
  147.3192  139.5723  152.9227 H   0  0  0  0  0  0  0  0  0  0  0  0
  147.1372  137.0499  155.6789 H   0  0  0  0  0  0  0  0  0  0  0  0
  146.8252  136.1796  154.1895 H   0  0  0  0  0  0  0  0  0  0  0  0
  148.4031  134.9154  155.6629 H   0  0  0  0  0  0  0  0  0  0  0  0
  149.1295  135.3156  154.1248 H   0  0  0  0  0  0  0  0  0  0  0  0
  149.5667  136.7850  156.7693 H   0  0  0  0  0  0  0  0  0  0  0  0
  150.7386  135.7929  155.9293 H   0  0  0  0  0  0  0  0  0  0  0  0
  150.7615  137.3446  154.0182 H   0  0  0  0  0  0  0  0  0  0  0  0
  152.3417  138.2885  155.3740 H   0  0  0  0  0  0  0  0  0  0  0  0
  153.1867  139.4024  156.7496 H   0  0  0  0  0  0  0  0  0  0  0  0
  150.9298  141.9784  157.8541 H   0  0  0  0  0  0  0  0  0  0  0  0
  153.4993  143.0107  161.0962 H   0  0  0  0  0  0  0  0  0  0  0  0
  149.4625  139.4587  154.0469 H   0  0  0  0  0  0  0  0  0  0  0  0
  148.7525  139.0450  155.5950 H   0  0  0  0  0  0  0  0  0  0  0  0
  148.4747  137.5162  153.1185 H   0  0  0  0  0  0  0  0  0  0  0  0
  1  2  1  0  0  0  0
  1 23  1  0  0  0  0
  1 24  1  0  0  0  0
  1 25  1  0  0  0  0
  2 22  1  0  0  0  0
  2  3  1  0  0  0  0
  2 39  1  0  0  0  0
  3  4  1  0  0  0  0
  3 26  1  0  0  0  0
  3 27  1  0  0  0  0
  4  5  1  0  0  0  0
  4 28  1  0  0  0  0
  4 29  1  0  0  0  0
  5  6  1  0  0  0  0
  5 30  1  0  0  0  0
  5 31  1  0  0  0  0
  6  7  1  0  0  0  0
  6 22  1  0  0  0  0
  6 32  1  0  0  0  0
  7  8  1  0  0  0  0
  7 33  1  0  0  0  0
  8  9  2  0  0  0  0
  8 10  1  0  0  0  0
 10 11  1  0  0  0  0
 10 34  1  0  0  0  0
 11 20  1  0  0  0  0
 11 12  2  0  0  0  0
 12 13  1  0  0  0  0
 12 35  1  0  0  0  0
 13 14  1  0  0  0  0
 13 18  2  0  0  0  0
 14 15  1  0  0  0  0
 14 16  1  0  0  0  0
 14 17  1  0  0  0  0
 18 19  1  0  0  0  0
 18 36  1  0  0  0  0
 19 20  1  0  0  0  0
 20 21  2  0  0  0  0
 22 37  1  0  0  0  0
 22 38  1  0  0  0  0
M  CHG  1   2   1
M  CHG  1  19  -1
M  END
> <s_m_source_file>
AV-unprocessed.smi

> <i_m_source_file_index>
1748

> <i_lp_mmshare_version>
43012

> <i_f3d_flags>
0

> <s_epik_input>
W0NIM11OMVtDSDJdW0NIMl1bQ0gyXVtDQEhdKFtDSDJdMSlbTkhdQyg9TylbTkhdYzJbY0hdYyhDKEYpKEYpRilbY0hdW25IXWMyPU8=

> <s_epik_cmdline>
J2VwaWtfcHl0aG9uJywgJy1waCcsICc3LjAnLCAnLXRuJywgJzgnLCAnLW1hJywgJzIwMCcsICctbWV0YWxfYmluZGluZycsICctaW1hZScsICc8aW5maWxlLm1hZT4nLCAnLW9tYWUnLCAnPG91dGZpbGUubWFlPic=

> <r_lp_tautomer_probability>
1

> <r_epik_Ionization_Penalty>
3.00907

> <r_epik_Ionization_Penalty_Charging>
0.148702

> <r_epik_Ionization_Penalty_Neutral>
2.86036

> <r_epik_State_Penalty>
2.85557

> <r_epik_Charging_Adjusted_Penalty>
3.00428

> <i_epik_Tot_Q>
0

> <i_epik_Tot_abs_Q>
2

> <r_epik_Metal_State_Penalty>
0.443779

> <b_epik_Metal_Only>
1

> <s_lp_Force_Field>
OPLS_2005

> <r_lp_Energy>
26.5131

> <b_lp_Chiralities_Consistent>
1

> <s_lp_Variant>
AV-unprocessed.smi:1748-8

> <Gold.Version>
5.8.1

> <Gold.Id.Protein>
6NUR|6NUR_protein|mol2

> <Gold.PLP.Fitness>
41.2095

> <Gold.PLP.PLP>
-36.9643

> <Gold.PLP.part.hbond>
-1.2810

> <Gold.PLP.part.metal>
0.0000

> <Gold.PLP.part.buried>
-4.1509

> <Gold.PLP.part.nonpolar>
-31.3949

> <Gold.PLP.part.repulsive>
0.1713

> <Gold.PLP.ligand.clash>
0.0977

> <Gold.PLP.ligand.torsion>
0.8310

> <Gold.PLP.Chemscore.Hbond>
2.0000

> <Gold.PLP.Chemscore.CHOScore>
0.0000

> <Gold.PLP.Chemscore.Metal>
0.0000

> <Gold.Chemscore.Hbonds>
donor molecule, donor type, donor heavy atom, donor atom, acceptor molecule, acceptor atom, score
      L1  H     2    39       P1  7948  2.00
      P1  H  7997  8009       L1    21  0.16

> <Gold.PLP.Chemscore.Internal.Correction>
0.0048

> <Gold.Rescore>
     Score         DG    S(hbond)    S(metal)    S(lipo)     H(rot)  DE(clash)    DE(int)     intcor
     11.90     -14.45       1.00        0.00      70.09       1.00       0.02       2.53       ----

> <Gold.Chemscore.Fitness>
11.9037

> <Gold.Chemscore.DG>
-14.4479

> <Gold.Chemscore.ZeroCoef>
-5.4800

> <Gold.Chemscore.Hbond>
0.9961

> <Gold.Chemscore.Metal>
0.0000

> <Gold.Chemscore.Lipo>
70.0930

> <Gold.Chemscore.Internal_Hbond>
0.0000

> <Gold.Chemscore.DEClash>
0.0172

> <Gold.Chemscore.DEInternal>
2.5270

> <Gold.Chemscore.Rot>
1.0000

> <Gold.Chemscore.Internal.Correction>
   9.000000E+99

> <Gold.Chemscore.Hbonds>
donor molecule, donor type, donor heavy atom, donor atom, acceptor molecule, acceptor atom, score
      L1  H     2    39       P1  7948  0.99

> <Gold.Chemscore.Hbond.Weighted>
-3.3270

> <Gold.Chemscore.Metal.Weighted>
-0.0000

> <Gold.Chemscore.Lipo.Weighted>
-8.2009

> <Gold.Chemscore.Internal_Hbond.Weighted>
0.0000

> <Gold.Chemscore.DEClash.Weighted>
0.0172

> <Gold.Chemscore.DEInternal.Weighted>
2.5270

> <Gold.Chemscore.Rot.Weighted>
2.5600

> <Gold.Chemscore.Internal.Correction.Weighted>
   9.000000E+99

> <Gold.Protein.RotatedTorsions>
[ 6907 6896 6895 6894 ] final    2.45 input  -60.11 | X-H torsion
[ 7974 7965 7964 7962 ] final  143.56 input  175.53 | X-H torsion
[ 8008 7997 7996 7995 ] final  166.11 input   59.86 | X-H torsion
[ 10167 10162 10161 10158 ] final -104.65 input  -65.29 | X-H torsion
[ 10718 10713 10712 10709 ] final   88.58 input   66.30 | X-H torsion
[ 10763 10752 10751 10750 ] final  -37.73 input  -60.55 | X-H torsion
[ 11005 11000 10999 10996 ] final -151.22 input  -57.11 | X-H torsion

> <Gold.Protein.ActiveResidues>
 VAL166  LYS551  ARG553  GLY616  TRP617  ASP618  TYR619  PRO620  LYS621  CYS622 
 ASP623  PHE694  ASN695  SER759  ASP760  ASP761  ALA762  ILE779  LEU786  VAL792 
 PHE793  MET794  SER795  GLU796  ALA797  LYS798  CYS799  TRP800  GLU811  SER814 

> <Gold.Protein.RotatedAtoms>
  151.6091  135.1041  160.0076 H   0  0  0  0  0  0  0  0  0  0  0  0  # atno 6907 bound_to 6896
  152.4218  133.7124  159.6497 H   0  0  0  0  0  0  0  0  0  0  0  0  # atno 6908 bound_to 6896
  150.8105  133.8357  159.3206 H   0  0  0  0  0  0  0  0  0  0  0  0  # atno 6909 bound_to 6896
  144.8910  139.5558  143.5798 H   0  0  0  0  0  0  0  0  0  0  0  0  # atno 7974 bound_to 7965
  156.1745  140.1652  156.8387 H   0  0  0  0  0  0  0  0  0  0  0  0  # atno 8008 bound_to 7997
  154.5292  140.0760  156.8348 H   0  0  0  0  0  0  0  0  0  0  0  0  # atno 8009 bound_to 7997
  155.3442  140.3386  155.4241 H   0  0  0  0  0  0  0  0  0  0  0  0  # atno 8010 bound_to 7997
  140.2070  143.3775  152.1082 H   0  0  0  0  0  0  0  0  0  0  0  0  # atno 10167 bound_to 10162
  157.6950  131.0300  150.3297 H   0  0  0  0  0  0  0  0  0  0  0  0  # atno 10718 bound_to 10713
  153.9011  135.6802  153.4755 H   0  0  0  0  0  0  0  0  0  0  0  0  # atno 10763 bound_to 10752
  153.1129  135.4775  154.9063 H   0  0  0  0  0  0  0  0  0  0  0  0  # atno 10764 bound_to 10752
  154.7575  135.3201  154.8397 H   0  0  0  0  0  0  0  0  0  0  0  0  # atno 10765 bound_to 10752
  140.7319  134.3611  157.5165 H   0  0  0  0  0  0  0  0  0  0  0  0  # atno 11005 bound_to 11000
  146.3053  139.7561  142.9060 LP  0  0  0  0  0  0  0  0  0  0  0  0  # atno 17320 bound_to 7965
  145.3783  141.0354  143.3192 LP  0  0  0  0  0  0  0  0  0  0  0  0  # atno 17321 bound_to 7965
  139.5195  144.7020  151.5466 LP  0  0  0  0  0  0  0  0  0  0  0  0  # atno 17342 bound_to 10162
  140.6350  143.9001  150.6639 LP  0  0  0  0  0  0  0  0  0  0  0  0  # atno 17343 bound_to 10162
  156.3772  130.3874  149.7129 LP  0  0  0  0  0  0  0  0  0  0  0  0  # atno 17370 bound_to 10713
  156.4524  130.7913  151.2934 LP  0  0  0  0  0  0  0  0  0  0  0  0  # atno 17371 bound_to 10713
  139.8824  134.9024  156.2832 LP  0  0  0  0  0  0  0  0  0  0  0  0  # atno 17394 bound_to 11000
  140.9913  133.7207  156.0818 LP  0  0  0  0  0  0  0  0  0  0  0  0  # atno 17395 bound_to 11000

$$$$
