AV-unprocessed.smi:2925|AV-procd|sdf|11222|dock5
  -GOLD-   2272016113D 1   1.00000     0.00000
 Structure written by MMmdl.
 44 45  0  0  0  0  0  0  0  0  1 V2000
  145.6792  143.3096  156.7360 C   0  0  0  0  0  0  0  0  0  0  0  0
  146.0518  142.4310  155.5328 C   0  0  0  0  0  0  0  0  0  0  0  0
  147.1946  141.4281  155.8074 C   0  0  2  0  0  0  0  0  0  0  0  0
  148.4145  142.1419  156.1844 N   0  0  0  0  0  0  0  0  0  0  0  0
  149.2423  141.8067  157.1846 C   0  0  0  0  0  0  0  0  0  0  0  0
  149.0529  140.8562  157.9449 O   0  0  0  0  0  0  0  0  0  0  0  0
  150.2787  142.6597  157.2666 N   0  0  0  0  0  0  0  0  0  0  0  0
  151.2954  142.6404  158.2344 C   0  0  0  0  0  0  0  0  0  0  0  0
  151.7503  143.8210  158.7312 C   0  0  0  0  0  0  0  0  0  0  0  0
  151.1578  145.1529  158.2986 C   0  0  0  0  0  0  0  0  0  0  0  0
  152.8121  143.8087  159.7160 C   0  0  0  0  0  0  0  0  0  0  0  0
  153.3319  142.6386  160.1098 C   0  0  0  0  0  0  0  0  0  0  0  0
  152.8847  141.4189  159.5820 N   0  0  0  0  0  0  0  0  0  0  0  0
  153.5283  140.1940  160.0643 C   0  0  0  0  0  0  0  0  0  0  0  0
  151.9076  141.3491  158.6324 C   0  0  0  0  0  0  0  0  0  0  0  0
  151.5854  140.2664  158.1379 O   0  0  0  0  0  0  0  0  0  0  0  0
  147.4983  140.5473  154.5786 C   0  0  2  0  0  0  0  0  0  0  0  0
  147.4457  141.2755  153.2335 C   0  0  0  0  0  0  0  0  0  0  0  0
  147.1036  140.1778  152.2371 C   0  0  0  0  0  0  0  0  0  0  0  0
  146.6625  139.0021  153.1122 C   0  0  0  0  0  0  0  0  0  0  0  0
  146.4977  139.5540  154.4099 O   0  0  0  0  0  0  0  0  0  0  0  0
  144.8186  143.9369  156.5038 H   0  0  0  0  0  0  0  0  0  0  0  0
  146.4976  143.9707  157.0206 H   0  0  0  0  0  0  0  0  0  0  0  0
  145.4221  142.7001  157.6028 H   0  0  0  0  0  0  0  0  0  0  0  0
  145.1588  141.8858  155.2271 H   0  0  0  0  0  0  0  0  0  0  0  0
  146.3166  143.0708  154.6902 H   0  0  0  0  0  0  0  0  0  0  0  0
  146.8859  140.7687  156.6207 H   0  0  0  0  0  0  0  0  0  0  0  0
  148.6569  142.9437  155.6211 H   0  0  0  0  0  0  0  0  0  0  0  0
  150.2619  143.4680  156.6627 H   0  0  0  0  0  0  0  0  0  0  0  0
  151.6342  145.9848  158.8180 H   0  0  0  0  0  0  0  0  0  0  0  0
  150.0906  145.1872  158.5200 H   0  0  0  0  0  0  0  0  0  0  0  0
  151.2952  145.3030  157.2274 H   0  0  0  0  0  0  0  0  0  0  0  0
  153.1812  144.7320  160.1382 H   0  0  0  0  0  0  0  0  0  0  0  0
  154.1226  142.5666  160.8423 H   0  0  0  0  0  0  0  0  0  0  0  0
  152.7886  139.5148  160.4909 H   0  0  0  0  0  0  0  0  0  0  0  0
  154.2752  140.3852  160.8355 H   0  0  0  0  0  0  0  0  0  0  0  0
  154.0307  139.6780  159.2450 H   0  0  0  0  0  0  0  0  0  0  0  0
  148.4652  140.0530  154.6943 H   0  0  0  0  0  0  0  0  0  0  0  0
  146.6496  142.0215  153.2388 H   0  0  0  0  0  0  0  0  0  0  0  0
  148.3802  141.7840  152.9944 H   0  0  0  0  0  0  0  0  0  0  0  0
  146.3061  140.5002  151.5665 H   0  0  0  0  0  0  0  0  0  0  0  0
  147.9653  139.9039  151.6279 H   0  0  0  0  0  0  0  0  0  0  0  0
  145.7408  138.5381  152.7605 H   0  0  0  0  0  0  0  0  0  0  0  0
  147.4388  138.2361  153.1440 H   0  0  0  0  0  0  0  0  0  0  0  0
  1  2  1  0  0  0  0
  1 22  1  0  0  0  0
  1 23  1  0  0  0  0
  1 24  1  0  0  0  0
  2  3  1  0  0  0  0
  2 25  1  0  0  0  0
  2 26  1  0  0  0  0
  3  4  1  0  0  0  0
  3 17  1  0  0  0  0
  3 27  1  0  0  0  0
  4  5  1  0  0  0  0
  4 28  1  0  0  0  0
  5  6  2  0  0  0  0
  5  7  1  0  0  0  0
  7  8  1  0  0  0  0
  7 29  1  0  0  0  0
  8 15  1  0  0  0  0
  8  9  2  0  0  0  0
  9 10  1  0  0  0  0
  9 11  1  0  0  0  0
 10 30  1  0  0  0  0
 10 31  1  0  0  0  0
 10 32  1  0  0  0  0
 11 12  2  0  0  0  0
 11 33  1  0  0  0  0
 12 13  1  0  0  0  0
 12 34  1  0  0  0  0
 13 14  1  0  0  0  0
 13 15  1  0  0  0  0
 14 35  1  0  0  0  0
 14 36  1  0  0  0  0
 14 37  1  0  0  0  0
 15 16  2  0  0  0  0
 17 21  1  0  0  0  0
 17 18  1  0  0  0  0
 17 38  1  0  0  0  0
 18 19  1  0  0  0  0
 18 39  1  0  0  0  0
 18 40  1  0  0  0  0
 19 20  1  0  0  0  0
 19 41  1  0  0  0  0
 19 42  1  0  0  0  0
 20 21  1  0  0  0  0
 20 43  1  0  0  0  0
 20 44  1  0  0  0  0
M  END
> <s_m_source_file>
AV-unprocessed.smi

> <i_m_source_file_index>
2925

> <i_lp_mmshare_version>
43012

> <i_f3d_flags>
0

> <s_epik_input>
TzFbQ0gyXVtDSDJdW0NIMl1bQ0BIXTFbQ0BIXShbQ0gyXVtDSDNdKVtOSF1DKD1PKVtOSF1jMmMoW0NIM10pW2NIXVtjSF1uKFtDSDNdKWMyPU8=

> <s_epik_cmdline>
J2VwaWtfcHl0aG9uJywgJy1waCcsICc3LjAnLCAnLXRuJywgJzgnLCAnLW1hJywgJzIwMCcsICctbWV0YWxfYmluZGluZycsICctaW1hZScsICc8aW5maWxlLm1hZT4nLCAnLW9tYWUnLCAnPG91dGZpbGUubWFlPic=

> <r_lp_tautomer_probability>
1

> <r_epik_Ionization_Penalty>
2.58789e-05

> <r_epik_Ionization_Penalty_Charging>
6.72534e-06

> <r_epik_Ionization_Penalty_Neutral>
1.91535e-05

> <r_epik_State_Penalty>
-0

> <r_epik_Charging_Adjusted_Penalty>
6.72534e-06

> <i_epik_Tot_Q>
0

> <i_epik_Tot_abs_Q>
0

> <r_epik_Metal_State_Penalty>
-0

> <b_epik_Metal_Only>
0

> <s_lp_Force_Field>
OPLS_2005

> <r_lp_Energy>
35.6543

> <b_lp_Chiralities_Consistent>
1

> <s_lp_Variant>
AV-unprocessed.smi:2925-1

> <Gold.Version>
5.8.1

> <Gold.Id.Protein>
6NUR|6NUR_protein|mol2

> <Gold.PLP.Fitness>
40.9271

> <Gold.PLP.PLP>
-36.8131

> <Gold.PLP.part.hbond>
-2.0000

> <Gold.PLP.part.metal>
0.0000

> <Gold.PLP.part.buried>
-3.4471

> <Gold.PLP.part.nonpolar>
-31.5457

> <Gold.PLP.part.repulsive>
0.1672

> <Gold.PLP.ligand.clash>
0.0000

> <Gold.PLP.ligand.torsion>
0.9106

> <Gold.PLP.Chemscore.Hbond>
1.7842

> <Gold.PLP.Chemscore.CHOScore>
0.0000

> <Gold.PLP.Chemscore.Metal>
0.0000

> <Gold.Chemscore.Hbonds>
donor molecule, donor type, donor heavy atom, donor atom, acceptor molecule, acceptor atom, score
      L1  H     4    28       P1  8028  0.88
      L1  H     7    29       P1  8028  0.66

> <Gold.PLP.Chemscore.Internal.Correction>
0.5827

> <Gold.Rescore>
     Score         DG    S(hbond)    S(metal)    S(lipo)     H(rot)  DE(clash)    DE(int)     intcor
     15.45     -20.00       1.85        0.00     100.91       1.36       0.52       4.02       ----

> <Gold.Chemscore.Fitness>
15.4526

> <Gold.Chemscore.DG>
-20.0014

> <Gold.Chemscore.ZeroCoef>
-5.4800

> <Gold.Chemscore.Hbond>
1.8537

> <Gold.Chemscore.Metal>
0.0000

> <Gold.Chemscore.Lipo>
100.9090

> <Gold.Chemscore.Internal_Hbond>
0.0000

> <Gold.Chemscore.DEClash>
0.5247

> <Gold.Chemscore.DEInternal>
4.0241

> <Gold.Chemscore.Rot>
1.3579

> <Gold.Chemscore.Internal.Correction>
   9.000000E+99

> <Gold.Chemscore.Hbonds>
donor molecule, donor type, donor heavy atom, donor atom, acceptor molecule, acceptor atom, score
      L1  H     4    28       P1  8028  0.86
      L1  H     7    29       P1  8028  0.65

> <Gold.Chemscore.Hbond.Weighted>
-6.1914

> <Gold.Chemscore.Metal.Weighted>
-0.0000

> <Gold.Chemscore.Lipo.Weighted>
-11.8064

> <Gold.Chemscore.Internal_Hbond.Weighted>
0.0000

> <Gold.Chemscore.DEClash.Weighted>
0.5247

> <Gold.Chemscore.DEInternal.Weighted>
4.0241

> <Gold.Chemscore.Rot.Weighted>
3.4763

> <Gold.Chemscore.Internal.Correction.Weighted>
   9.000000E+99

> <Gold.Protein.RotatedTorsions>
[ 6907 6896 6895 6894 ] final  142.54 input  -60.11 | X-H torsion
[ 7974 7965 7964 7962 ] final -167.99 input  175.53 | X-H torsion
[ 8008 7997 7996 7995 ] final  -50.19 input   59.86 | X-H torsion
[ 10167 10162 10161 10158 ] final  114.39 input  -65.29 | X-H torsion
[ 10718 10713 10712 10709 ] final  -96.44 input   66.30 | X-H torsion
[ 10763 10752 10751 10750 ] final  115.04 input  -60.55 | X-H torsion
[ 11005 11000 10999 10996 ] final    9.54 input  -57.11 | X-H torsion

> <Gold.Protein.ActiveResidues>
 VAL166  LYS551  ARG553  GLY616  TRP617  ASP618  TYR619  PRO620  LYS621  CYS622 
 ASP623  PHE694  ASN695  SER759  ASP760  ASP761  ALA762  ILE779  LEU786  VAL792 
 PHE793  MET794  SER795  GLU796  ALA797  LYS798  CYS799  TRP800  GLU811  SER814 

> <Gold.Protein.RotatedAtoms>
  152.2175  133.4958  159.5143 H   0  0  0  0  0  0  0  0  0  0  0  0  # atno 6907 bound_to 6896
  150.7004  134.1386  159.4105 H   0  0  0  0  0  0  0  0  0  0  0  0  # atno 6908 bound_to 6896
  151.9307  135.0257  160.0579 H   0  0  0  0  0  0  0  0  0  0  0  0  # atno 6909 bound_to 6896
  144.7212  140.2436  143.6288 H   0  0  0  0  0  0  0  0  0  0  0  0  # atno 7974 bound_to 7965
  154.4057  140.1278  156.4625 H   0  0  0  0  0  0  0  0  0  0  0  0  # atno 8008 bound_to 7997
  155.7259  140.3492  155.5017 H   0  0  0  0  0  0  0  0  0  0  0  0  # atno 8009 bound_to 7997
  155.9172  140.1046  157.1225 H   0  0  0  0  0  0  0  0  0  0  0  0  # atno 8010 bound_to 7997
  139.6392  144.7122  151.2272 H   0  0  0  0  0  0  0  0  0  0  0  0  # atno 10167 bound_to 10162
  156.0062  130.5151  150.6226 H   0  0  0  0  0  0  0  0  0  0  0  0  # atno 10718 bound_to 10713
  153.5162  135.3607  155.2610 H   0  0  0  0  0  0  0  0  0  0  0  0  # atno 10763 bound_to 10752
  154.8738  135.4034  154.3311 H   0  0  0  0  0  0  0  0  0  0  0  0  # atno 10764 bound_to 10752
  153.3974  135.7074  153.6518 H   0  0  0  0  0  0  0  0  0  0  0  0  # atno 10765 bound_to 10752
  140.5246  134.0526  155.7855 H   0  0  0  0  0  0  0  0  0  0  0  0  # atno 11005 bound_to 11000
  145.8296  139.2080  143.1891 LP  0  0  0  0  0  0  0  0  0  0  0  0  # atno 17320 bound_to 7965
  146.0443  140.8134  142.9813 LP  0  0  0  0  0  0  0  0  0  0  0  0  # atno 17321 bound_to 7965
  140.7481  143.6342  150.8394 LP  0  0  0  0  0  0  0  0  0  0  0  0  # atno 17342 bound_to 10162
  139.9977  143.5777  152.2887 LP  0  0  0  0  0  0  0  0  0  0  0  0  # atno 17343 bound_to 10162
  157.4039  131.0814  151.1283 LP  0  0  0  0  0  0  0  0  0  0  0  0  # atno 17370 bound_to 10713
  157.1936  130.6363  149.5713 LP  0  0  0  0  0  0  0  0  0  0  0  0  # atno 17371 bound_to 10713
  141.1315  133.9293  157.2524 LP  0  0  0  0  0  0  0  0  0  0  0  0  # atno 17394 bound_to 11000
  139.9587  135.0159  156.9201 LP  0  0  0  0  0  0  0  0  0  0  0  0  # atno 17395 bound_to 11000

$$$$
