AV-unprocessed.smi:2718|AV-procd|sdf|10489|dock7
  -GOLD-   2272014533D 1   1.00000     0.00000
 Structure written by MMmdl.
 47 48  0  0  0  0  0  0  0  0  1 V2000
  150.5489  145.2847  159.3401 C   0  0  0  0  0  0  0  0  0  0  0  0
  151.4470  144.1842  158.8107 C   0  0  0  0  0  0  0  0  0  0  0  0
  152.8296  144.6441  158.3825 C   0  0  0  0  0  0  0  0  0  0  0  0
  151.0290  142.9064  158.7322 C   0  0  0  0  0  0  0  0  0  0  0  0
  151.8075  141.7459  158.2252 C   0  0  1  0  0  0  0  0  0  0  0  0
  151.9668  140.4965  159.0709 C   0  0  2  0  0  0  0  0  0  0  0  0
  153.2929  139.8025  159.0878 C   0  0  0  0  0  0  0  0  0  0  0  0
  153.7585  139.1926  158.1246 O   0  0  0  0  0  0  0  0  0  0  0  0
  153.9471  139.9302  160.2513 N   0  0  0  0  0  0  0  0  0  0  0  0
  155.2833  139.4123  160.5305 C   0  0  0  0  0  0  0  0  0  0  0  0
  155.4030  138.7894  161.9396 C   0  0  2  0  0  0  0  0  0  0  0  0
  154.2979  137.7554  162.2009 C   0  0  0  0  0  0  0  0  0  0  0  0
  155.4618  139.8273  163.0297 C   0  0  0  0  0  0  0  0  0  0  0  0
  155.2861  141.1375  162.8110 N   0  0  0  0  0  0  0  0  0  0  0  0
  155.4362  141.7465  164.0404 N   0  0  0  0  0  0  0  0  0  0  0  0
  155.6885  140.7446  164.8812 C   0  0  0  0  0  0  0  0  0  0  0  0
  155.7187  139.5261  164.3210 N   0  0  0  0  0  0  0  0  0  0  0  0
  155.9678  138.2495  164.9614 C   0  0  0  0  0  0  0  0  0  0  0  0
  151.1193  140.4569  157.8043 C   0  0  0  0  0  0  0  0  0  0  0  0
  149.6203  140.2628  157.9776 C   0  0  0  0  0  0  0  0  0  0  0  0
  151.5698  139.7767  156.5168 C   0  0  0  0  0  0  0  0  0  0  0  0
  151.0021  145.7563  160.2124 H   0  0  0  0  0  0  0  0  0  0  0  0
  149.5712  144.9001  159.6323 H   0  0  0  0  0  0  0  0  0  0  0  0
  150.3984  146.0484  158.5767 H   0  0  0  0  0  0  0  0  0  0  0  0
  152.7496  145.3576  157.5622 H   0  0  0  0  0  0  0  0  0  0  0  0
  153.4598  143.8200  158.0500 H   0  0  0  0  0  0  0  0  0  0  0  0
  153.3356  145.1356  159.2135 H   0  0  0  0  0  0  0  0  0  0  0  0
  150.0292  142.6725  159.0682 H   0  0  0  0  0  0  0  0  0  0  0  0
  152.6701  142.0677  157.6439 H   0  0  0  0  0  0  0  0  0  0  0  0
  151.4176  140.4685  160.0115 H   0  0  0  0  0  0  0  0  0  0  0  0
  153.4976  140.4497  160.9916 H   0  0  0  0  0  0  0  0  0  0  0  0
  155.4964  138.6541  159.7765 H   0  0  0  0  0  0  0  0  0  0  0  0
  156.0269  140.1990  160.3926 H   0  0  0  0  0  0  0  0  0  0  0  0
  156.3403  138.2341  161.9552 H   0  0  0  0  0  0  0  0  0  0  0  0
  154.4410  137.2651  163.1643 H   0  0  0  0  0  0  0  0  0  0  0  0
  154.2960  136.9811  161.4333 H   0  0  0  0  0  0  0  0  0  0  0  0
  153.3111  138.2196  162.2061 H   0  0  0  0  0  0  0  0  0  0  0  0
  155.8575  140.9056  165.9357 H   0  0  0  0  0  0  0  0  0  0  0  0
  156.0837  138.3857  166.0370 H   0  0  0  0  0  0  0  0  0  0  0  0
  156.8803  137.8072  164.5619 H   0  0  0  0  0  0  0  0  0  0  0  0
  155.1303  137.5756  164.7803 H   0  0  0  0  0  0  0  0  0  0  0  0
  149.3768  139.2001  157.9985 H   0  0  0  0  0  0  0  0  0  0  0  0
  149.0776  140.7286  157.1547 H   0  0  0  0  0  0  0  0  0  0  0  0
  149.2717  140.7076  158.9102 H   0  0  0  0  0  0  0  0  0  0  0  0
  151.5431  138.6930  156.6326 H   0  0  0  0  0  0  0  0  0  0  0  0
  152.5803  140.0724  156.2375 H   0  0  0  0  0  0  0  0  0  0  0  0
  150.9125  140.0525  155.6917 H   0  0  0  0  0  0  0  0  0  0  0  0
  1  2  1  0  0  0  0
  1 22  1  0  0  0  0
  1 23  1  0  0  0  0
  1 24  1  0  0  0  0
  2  3  1  0  0  0  0
  2  4  2  0  0  0  0
  3 25  1  0  0  0  0
  3 26  1  0  0  0  0
  3 27  1  0  0  0  0
  4  5  1  0  0  0  0
  4 28  1  0  0  0  0
  5 19  1  0  0  0  0
  5  6  1  0  0  0  0
  5 29  1  0  0  0  0
  6  7  1  0  0  0  0
  6 19  1  0  0  0  0
  6 30  1  0  0  0  0
  7  8  2  0  0  0  0
  7  9  1  0  0  0  0
  9 10  1  0  0  0  0
  9 31  1  0  0  0  0
 10 11  1  0  0  0  0
 10 32  1  0  0  0  0
 10 33  1  0  0  0  0
 11 12  1  0  0  0  0
 11 13  1  0  0  0  0
 11 34  1  0  0  0  0
 12 35  1  0  0  0  0
 12 36  1  0  0  0  0
 12 37  1  0  0  0  0
 13 17  1  0  0  0  0
 13 14  2  0  0  0  0
 14 15  1  0  0  0  0
 15 16  2  0  0  0  0
 16 17  1  0  0  0  0
 16 38  1  0  0  0  0
 17 18  1  0  0  0  0
 18 39  1  0  0  0  0
 18 40  1  0  0  0  0
 18 41  1  0  0  0  0
 19 20  1  0  0  0  0
 19 21  1  0  0  0  0
 20 42  1  0  0  0  0
 20 43  1  0  0  0  0
 20 44  1  0  0  0  0
 21 45  1  0  0  0  0
 21 46  1  0  0  0  0
 21 47  1  0  0  0  0
M  END
> <s_m_source_file>
AV-unprocessed.smi

> <i_m_source_file_index>
2718

> <i_lp_mmshare_version>
43012

> <i_f3d_flags>
0

> <s_epik_input>
W0NIM11DKFtDSDNdKT1bQ0hdW0NAQEhdKEMxKFtDSDNdKVtDSDNdKVtDQEhdMUMoPU8pW05IXVtDSDJdW0NASF0oW0NIM10pYzJubltjSF1uMltDSDNd

> <s_epik_cmdline>
J2VwaWtfcHl0aG9uJywgJy1waCcsICc3LjAnLCAnLXRuJywgJzgnLCAnLW1hJywgJzIwMCcsICctbWV0YWxfYmluZGluZycsICctaW1hZScsICc8aW5maWxlLm1hZT4nLCAnLW9tYWUnLCAnPG91dGZpbGUubWFlPic=

> <r_lp_tautomer_probability>
1

> <r_epik_Ionization_Penalty>
0.000449586

> <r_epik_Ionization_Penalty_Charging>
0

> <r_epik_Ionization_Penalty_Neutral>
0.000449586

> <r_epik_State_Penalty>
0.000243372

> <r_epik_Charging_Adjusted_Penalty>
0.000243372

> <i_epik_Tot_Q>
0

> <i_epik_Tot_abs_Q>
0

> <r_epik_Metal_State_Penalty>
-0

> <b_epik_Metal_Only>
0

> <s_lp_Force_Field>
OPLS_2005

> <r_lp_Energy>
15.8619

> <b_lp_Chiralities_Consistent>
1

> <s_lp_Variant>
AV-unprocessed.smi:2718-4

> <Gold.Version>
5.8.1

> <Gold.Id.Protein>
6NUR|6NUR_protein|mol2

> <Gold.PLP.Fitness>
41.4886

> <Gold.PLP.PLP>
-39.2381

> <Gold.PLP.part.hbond>
-2.7081

> <Gold.PLP.part.metal>
0.0000

> <Gold.PLP.part.buried>
-6.1377

> <Gold.PLP.part.nonpolar>
-30.3869

> <Gold.PLP.part.repulsive>
0.0546

> <Gold.PLP.ligand.clash>
0.0000

> <Gold.PLP.ligand.torsion>
0.4991

> <Gold.PLP.Chemscore.Hbond>
1.0000

> <Gold.PLP.Chemscore.CHOScore>
0.0000

> <Gold.PLP.Chemscore.Metal>
0.0000

> <Gold.Chemscore.Hbonds>
donor molecule, donor type, donor heavy atom, donor atom, acceptor molecule, acceptor atom, score
      P1  H  7997  8008       L1     8  1.00

> <Gold.PLP.Chemscore.Internal.Correction>
0.2486

> <Gold.Rescore>
     Score         DG    S(hbond)    S(metal)    S(lipo)     H(rot)  DE(clash)    DE(int)     intcor
     13.04     -14.71       0.95        0.00      94.51       1.95       0.01       1.65       ----

> <Gold.Chemscore.Fitness>
13.0418

> <Gold.Chemscore.DG>
-14.7052

> <Gold.Chemscore.ZeroCoef>
-5.4800

> <Gold.Chemscore.Hbond>
0.9484

> <Gold.Chemscore.Metal>
0.0000

> <Gold.Chemscore.Lipo>
94.5148

> <Gold.Chemscore.Internal_Hbond>
0.0000

> <Gold.Chemscore.DEClash>
0.0125

> <Gold.Chemscore.DEInternal>
1.6509

> <Gold.Chemscore.Rot>
1.9533

> <Gold.Chemscore.Internal.Correction>
   9.000000E+99

> <Gold.Chemscore.Hbonds>
donor molecule, donor type, donor heavy atom, donor atom, acceptor molecule, acceptor atom, score
      P1  H  7997  8008       L1     8  0.92

> <Gold.Chemscore.Hbond.Weighted>
-3.1675

> <Gold.Chemscore.Metal.Weighted>
-0.0000

> <Gold.Chemscore.Lipo.Weighted>
-11.0582

> <Gold.Chemscore.Internal_Hbond.Weighted>
0.0000

> <Gold.Chemscore.DEClash.Weighted>
0.0125

> <Gold.Chemscore.DEInternal.Weighted>
1.6509

> <Gold.Chemscore.Rot.Weighted>
5.0005

> <Gold.Chemscore.Internal.Correction.Weighted>
   9.000000E+99

> <Gold.Protein.RotatedTorsions>
[ 6907 6896 6895 6894 ] final -148.07 input  -60.11 | X-H torsion
[ 7974 7965 7964 7962 ] final   41.17 input  175.53 | X-H torsion
[ 8008 7997 7996 7995 ] final -107.09 input   59.86 | X-H torsion
[ 10167 10162 10161 10158 ] final  -86.52 input  -65.29 | X-H torsion
[ 10718 10713 10712 10709 ] final  -47.25 input   66.30 | X-H torsion
[ 10763 10752 10751 10750 ] final   -0.48 input  -60.55 | X-H torsion
[ 11005 11000 10999 10996 ] final   19.94 input  -57.11 | X-H torsion

> <Gold.Protein.ActiveResidues>
 VAL166  LYS551  ARG553  GLY616  TRP617  ASP618  TYR619  PRO620  LYS621  CYS622 
 ASP623  PHE694  ASN695  SER759  ASP760  ASP761  ALA762  ILE779  LEU786  VAL792 
 PHE793  MET794  SER795  GLU796  ALA797  LYS798  CYS799  TRP800  GLU811  SER814 

> <Gold.Protein.RotatedAtoms>
  151.1646  133.4823  159.2593 H   0  0  0  0  0  0  0  0  0  0  0  0  # atno 6907 bound_to 6896
  151.1419  135.0183  159.8639 H   0  0  0  0  0  0  0  0  0  0  0  0  # atno 6908 bound_to 6896
  152.5462  134.1539  159.8583 H   0  0  0  0  0  0  0  0  0  0  0  0  # atno 6909 bound_to 6896
  146.0845  139.5447  142.9515 H   0  0  0  0  0  0  0  0  0  0  0  0  # atno 7974 bound_to 7965
  154.9242  140.0406  157.2014 H   0  0  0  0  0  0  0  0  0  0  0  0  # atno 8008 bound_to 7997
  154.8223  140.2885  155.5756 H   0  0  0  0  0  0  0  0  0  0  0  0  # atno 8009 bound_to 7997
  156.2981  140.2516  156.3133 H   0  0  0  0  0  0  0  0  0  0  0  0  # atno 8010 bound_to 7997
  140.3934  143.2694  151.9236 H   0  0  0  0  0  0  0  0  0  0  0  0  # atno 10167 bound_to 10162
  156.2103  130.4160  149.9123 H   0  0  0  0  0  0  0  0  0  0  0  0  # atno 10718 bound_to 10713
  153.3325  135.6976  153.6936 H   0  0  0  0  0  0  0  0  0  0  0  0  # atno 10763 bound_to 10752
  153.5733  135.3512  155.2847 H   0  0  0  0  0  0  0  0  0  0  0  0  # atno 10764 bound_to 10752
  154.8621  135.4277  154.2517 H   0  0  0  0  0  0  0  0  0  0  0  0  # atno 10765 bound_to 10752
  140.4082  134.1646  155.7666 H   0  0  0  0  0  0  0  0  0  0  0  0  # atno 11005 bound_to 11000
  145.6156  141.0332  143.1943 LP  0  0  0  0  0  0  0  0  0  0  0  0  # atno 17320 bound_to 7965
  144.7316  139.7709  143.7345 LP  0  0  0  0  0  0  0  0  0  0  0  0  # atno 17321 bound_to 7965
  139.4788  144.5705  151.8095 LP  0  0  0  0  0  0  0  0  0  0  0  0  # atno 17342 bound_to 10162
  140.4816  144.1441  150.5933 LP  0  0  0  0  0  0  0  0  0  0  0  0  # atno 17343 bound_to 10162
  156.6804  130.8856  151.3575 LP  0  0  0  0  0  0  0  0  0  0  0  0  # atno 17370 bound_to 10713
  157.7035  130.9359  150.0857 LP  0  0  0  0  0  0  0  0  0  0  0  0  # atno 17371 bound_to 10713
  141.1831  133.8371  157.1186 LP  0  0  0  0  0  0  0  0  0  0  0  0  # atno 17394 bound_to 11000
  140.0287  134.9912  157.0737 LP  0  0  0  0  0  0  0  0  0  0  0  0  # atno 17395 bound_to 11000

$$$$
