AV-unprocessed.smi:558|AV-procd|sdf|2923|dock1
  -GOLD-   2262023413D 1   1.00000     0.00000
 Structure written by MMmdl.
 36 37  0  0  0  0  0  0  0  0  1 V2000
  153.6495  141.9677  162.2862 C   0  0  0  0  0  0  0  0  0  0  0  0
  152.8890  142.8202  161.3140 C   0  0  0  0  0  0  0  0  0  0  0  0
  152.1713  144.0222  161.5673 C   0  0  0  0  0  0  0  0  0  0  0  0
  151.6730  144.3822  160.3468 C   0  0  0  0  0  0  0  0  0  0  0  0
  150.8346  145.5577  159.9633 C   0  0  0  0  0  0  0  0  0  0  0  0
  152.0945  143.4224  159.4420 N   0  0  0  0  0  0  0  0  0  0  0  0
  151.8461  143.3298  158.0115 C   0  0  0  0  0  0  0  0  0  0  0  0
  151.3513  141.9357  157.6214 C   0  0  0  0  0  0  0  0  0  0  0  0
  151.3674  141.0237  158.4474 O   0  0  0  0  0  0  0  0  0  0  0  0
  150.9124  141.7874  156.3618 N   0  0  0  0  0  0  0  0  0  0  0  0
  150.4030  140.5500  155.7800 C   0  0  0  0  0  0  0  0  0  0  0  0
  149.3518  140.8234  154.6888 C   0  0  1  0  0  0  0  0  0  0  0  0
  148.6233  139.5822  154.2160 C   0  0  0  0  0  0  0  0  0  0  0  0
  147.3964  140.1774  153.5315 C   0  0  0  0  0  0  0  0  0  0  0  0
  147.1114  141.3881  154.2267 O   0  0  0  0  0  0  0  0  0  0  0  0
  148.1748  141.6997  155.1221 C   0  0  0  0  0  0  0  0  0  0  0  0
  152.8387  142.4667  160.0407 N   0  0  0  0  0  0  0  0  0  0  0  0
  153.5528  142.3480  163.3033 H   0  0  0  0  0  0  0  0  0  0  0  0
  154.7113  141.9447  162.0403 H   0  0  0  0  0  0  0  0  0  0  0  0
  153.2823  140.9412  162.2800 H   0  0  0  0  0  0  0  0  0  0  0  0
  152.0419  144.5423  162.5049 H   0  0  0  0  0  0  0  0  0  0  0  0
  150.4755  146.0830  160.8483 H   0  0  0  0  0  0  0  0  0  0  0  0
  149.9638  145.2497  159.3846 H   0  0  0  0  0  0  0  0  0  0  0  0
  151.4094  146.2654  159.3660 H   0  0  0  0  0  0  0  0  0  0  0  0
  151.1000  144.0735  157.7261 H   0  0  0  0  0  0  0  0  0  0  0  0
  152.7595  143.5802  157.4709 H   0  0  0  0  0  0  0  0  0  0  0  0
  150.9367  142.5951  155.7567 H   0  0  0  0  0  0  0  0  0  0  0  0
  151.2496  140.0192  155.3439 H   0  0  0  0  0  0  0  0  0  0  0  0
  149.9976  139.8928  156.5512 H   0  0  0  0  0  0  0  0  0  0  0  0
  149.8353  141.2871  153.8272 H   0  0  0  0  0  0  0  0  0  0  0  0
  149.2214  138.9612  153.5485 H   0  0  0  0  0  0  0  0  0  0  0  0
  148.3168  138.9723  155.0671 H   0  0  0  0  0  0  0  0  0  0  0  0
  147.6218  140.4200  152.4924 H   0  0  0  0  0  0  0  0  0  0  0  0
  146.5429  139.4993  153.5433 H   0  0  0  0  0  0  0  0  0  0  0  0
  147.8561  141.4461  156.1341 H   0  0  0  0  0  0  0  0  0  0  0  0
  148.4136  142.7633  155.1002 H   0  0  0  0  0  0  0  0  0  0  0  0
  1  2  1  0  0  0  0
  1 18  1  0  0  0  0
  1 19  1  0  0  0  0
  1 20  1  0  0  0  0
  2 17  2  0  0  0  0
  2  3  1  0  0  0  0
  3  4  2  0  0  0  0
  3 21  1  0  0  0  0
  4  5  1  0  0  0  0
  4  6  1  0  0  0  0
  5 22  1  0  0  0  0
  5 23  1  0  0  0  0
  5 24  1  0  0  0  0
  6  7  1  0  0  0  0
  6 17  1  0  0  0  0
  7  8  1  0  0  0  0
  7 25  1  0  0  0  0
  7 26  1  0  0  0  0
  8  9  2  0  0  0  0
  8 10  1  0  0  0  0
 10 11  1  0  0  0  0
 10 27  1  0  0  0  0
 11 12  1  0  0  0  0
 11 28  1  0  0  0  0
 11 29  1  0  0  0  0
 12 16  1  0  0  0  0
 12 13  1  0  0  0  0
 12 30  1  0  0  0  0
 13 14  1  0  0  0  0
 13 31  1  0  0  0  0
 13 32  1  0  0  0  0
 14 15  1  0  0  0  0
 14 33  1  0  0  0  0
 14 34  1  0  0  0  0
 15 16  1  0  0  0  0
 16 35  1  0  0  0  0
 16 36  1  0  0  0  0
M  END
> <s_m_source_file>
AV-unprocessed.smi

> <i_m_source_file_index>
558

> <i_lp_mmshare_version>
43012

> <i_f3d_flags>
0

> <s_epik_input>
W0NIM11jMVtjSF1jKFtDSDNdKW4objEpW0NIMl1DKD1PKVtOSF1bQ0gyXVtDQEBIXTJbQ0gyXVtDSDJdT1tDSDJdMg==

> <s_epik_cmdline>
J2VwaWtfcHl0aG9uJywgJy1waCcsICc3LjAnLCAnLXRuJywgJzgnLCAnLW1hJywgJzIwMCcsICctbWV0YWxfYmluZGluZycsICctaW1hZScsICc8aW5maWxlLm1hZT4nLCAnLW9tYWUnLCAnPG91dGZpbGUubWFlPic=

> <r_lp_tautomer_probability>
1

> <r_epik_Ionization_Penalty>
0.000376629

> <r_epik_Ionization_Penalty_Charging>
0

> <r_epik_Ionization_Penalty_Neutral>
0.000376629

> <r_epik_State_Penalty>
-0

> <r_epik_Charging_Adjusted_Penalty>
0

> <i_epik_Tot_Q>
0

> <i_epik_Tot_abs_Q>
0

> <r_epik_Metal_State_Penalty>
-0

> <b_epik_Metal_Only>
0

> <s_lp_Force_Field>
OPLS_2005

> <r_lp_Energy>
17.6381

> <b_lp_Chiralities_Consistent>
1

> <s_lp_Variant>
AV-unprocessed.smi:558-2

> <Gold.Version>
5.8.1

> <Gold.Id.Protein>
6NUR|6NUR_protein|mol2

> <Gold.PLP.Fitness>
38.8869

> <Gold.PLP.PLP>
-39.6461

> <Gold.PLP.part.hbond>
0.0000

> <Gold.PLP.part.metal>
0.0000

> <Gold.PLP.part.buried>
-3.2916

> <Gold.PLP.part.nonpolar>
-36.2571

> <Gold.PLP.part.repulsive>
0.2641

> <Gold.PLP.ligand.clash>
0.0000

> <Gold.PLP.ligand.torsion>
0.3972

> <Gold.PLP.Chemscore.Hbond>
0.0000

> <Gold.PLP.Chemscore.CHOScore>
0.0000

> <Gold.PLP.Chemscore.Metal>
0.0000

> <Gold.PLP.Chemscore.Internal.Correction>
0.0353

> <Gold.Rescore>
     Score         DG    S(hbond)    S(metal)    S(lipo)     H(rot)  DE(clash)    DE(int)     intcor
     11.51     -13.59       0.00        0.00     103.01       1.54       0.08       2.00       ----

> <Gold.Chemscore.Fitness>
11.5064

> <Gold.Chemscore.DG>
-13.5931

> <Gold.Chemscore.ZeroCoef>
-5.4800

> <Gold.Chemscore.Hbond>
0.0000

> <Gold.Chemscore.Metal>
0.0000

> <Gold.Chemscore.Lipo>
103.0110

> <Gold.Chemscore.Internal_Hbond>
0.0000

> <Gold.Chemscore.DEClash>
0.0834

> <Gold.Chemscore.DEInternal>
2.0033

> <Gold.Chemscore.Rot>
1.5387

> <Gold.Chemscore.Internal.Correction>
   9.000000E+99

> <Gold.Chemscore.Hbond.Weighted>
-0.0000

> <Gold.Chemscore.Metal.Weighted>
-0.0000

> <Gold.Chemscore.Lipo.Weighted>
-12.0523

> <Gold.Chemscore.Internal_Hbond.Weighted>
0.0000

> <Gold.Chemscore.DEClash.Weighted>
0.0834

> <Gold.Chemscore.DEInternal.Weighted>
2.0033

> <Gold.Chemscore.Rot.Weighted>
3.9392

> <Gold.Chemscore.Internal.Correction.Weighted>
   9.000000E+99

> <Gold.Protein.RotatedTorsions>
[ 6907 6896 6895 6894 ] final  113.71 input  -60.11 | X-H torsion
[ 7974 7965 7964 7962 ] final   11.12 input  175.53 | X-H torsion
[ 8008 7997 7996 7995 ] final  179.51 input   59.86 | X-H torsion
[ 10167 10162 10161 10158 ] final  135.21 input  -65.29 | X-H torsion
[ 10718 10713 10712 10709 ] final   59.22 input   66.30 | X-H torsion
[ 10763 10752 10751 10750 ] final  -69.15 input  -60.55 | X-H torsion
[ 11005 11000 10999 10996 ] final   47.69 input  -57.11 | X-H torsion

> <Gold.Protein.ActiveResidues>
 VAL166  LYS551  ARG553  GLY616  TRP617  ASP618  TYR619  PRO620  LYS621  CYS622 
 ASP623  PHE694  ASN695  SER759  ASP760  ASP761  ALA762  ILE779  LEU786  VAL792 
 PHE793  MET794  SER795  GLU796  ALA797  LYS798  CYS799  TRP800  GLU811  SER814 

> <Gold.Protein.RotatedAtoms>
  152.4845  133.8337  159.7116 H   0  0  0  0  0  0  0  0  0  0  0  0  # atno 6907 bound_to 6896
  150.8920  133.7221  159.2908 H   0  0  0  0  0  0  0  0  0  0  0  0  # atno 6908 bound_to 6896
  151.4690  135.1048  159.9798 H   0  0  0  0  0  0  0  0  0  0  0  0  # atno 6909 bound_to 6896
  146.2376  139.9532  142.8468 H   0  0  0  0  0  0  0  0  0  0  0  0  # atno 7974 bound_to 7965
  156.0426  140.1307  157.0139 H   0  0  0  0  0  0  0  0  0  0  0  0  # atno 8008 bound_to 7997
  154.4398  140.1027  156.6330 H   0  0  0  0  0  0  0  0  0  0  0  0  # atno 8009 bound_to 7997
  155.5644  140.3465  155.4501 H   0  0  0  0  0  0  0  0  0  0  0  0  # atno 8010 bound_to 7997
  139.5226  144.6528  151.5251 H   0  0  0  0  0  0  0  0  0  0  0  0  # atno 10167 bound_to 10162
  157.5659  130.8870  149.9186 H   0  0  0  0  0  0  0  0  0  0  0  0  # atno 10718 bound_to 10713
  154.3993  135.6034  153.5888 H   0  0  0  0  0  0  0  0  0  0  0  0  # atno 10763 bound_to 10752
  152.9788  135.5902  154.4203 H   0  0  0  0  0  0  0  0  0  0  0  0  # atno 10764 bound_to 10752
  154.3999  135.2843  155.2081 H   0  0  0  0  0  0  0  0  0  0  0  0  # atno 10765 bound_to 10752
  140.1257  134.4771  155.8561 H   0  0  0  0  0  0  0  0  0  0  0  0  # atno 11005 bound_to 11000
  145.1842  140.9781  143.4249 LP  0  0  0  0  0  0  0  0  0  0  0  0  # atno 17320 bound_to 7965
  144.9915  139.3685  143.6212 LP  0  0  0  0  0  0  0  0  0  0  0  0  # atno 17321 bound_to 7965
  140.6341  143.9019  150.6631 LP  0  0  0  0  0  0  0  0  0  0  0  0  # atno 17342 bound_to 10162
  140.2333  143.3719  152.1548 LP  0  0  0  0  0  0  0  0  0  0  0  0  # atno 17343 bound_to 10162
  156.0707  130.3685  150.0782 LP  0  0  0  0  0  0  0  0  0  0  0  0  # atno 17370 bound_to 10713
  156.8941  130.9598  151.3585 LP  0  0  0  0  0  0  0  0  0  0  0  0  # atno 17371 bound_to 10713
  141.2160  133.6777  156.6973 LP  0  0  0  0  0  0  0  0  0  0  0  0  # atno 17394 bound_to 11000
  140.2907  134.8243  157.4014 LP  0  0  0  0  0  0  0  0  0  0  0  0  # atno 17395 bound_to 11000

$$$$
