AV-unprocessed.smi:1835|AV-procd|sdf|7476|dock8
  -GOLD-   22720 9173D 1   1.00000     0.00000
 Structure written by MMmdl.
 42 43  0  0  0  0  0  0  0  0  2 V2000
  149.3057  139.5759  154.0499 C   0  0  0  0  0  0  0  0  0  0  0  0
  150.3191  138.5345  154.5795 C   0  0  1  0  0  0  0  0  0  0  0  0
  150.8292  138.9300  155.9941 C   0  0  0  0  0  0  0  0  0  0  0  0
  151.2239  140.3337  156.0818 N   0  0  0  0  0  0  0  0  0  0  0  0
  150.5358  141.2995  156.7101 C   0  0  0  0  0  0  0  0  0  0  0  0
  149.4865  141.0942  157.3209 O   0  0  0  0  0  0  0  0  0  0  0  0
  151.1321  142.7116  156.6351 C   0  0  0  0  0  0  0  0  0  0  0  0
  151.4471  143.2705  157.9604 N   0  0  0  0  0  0  0  0  0  0  0  0
  151.0394  144.5954  158.2146 C   0  0  0  0  0  0  0  0  0  0  0  0
  151.2768  145.1979  159.3905 C   0  0  0  0  0  0  0  0  0  0  0  0
  151.9716  144.4514  160.4124 C   0  0  0  0  0  0  0  0  0  0  0  0
  152.3685  143.1845  160.1791 C   0  0  0  0  0  0  0  0  0  0  0  0
  152.1122  142.5223  158.8948 C   0  0  0  0  0  0  0  0  0  0  0  0
  152.4733  141.3660  158.6716 O   0  0  0  0  0  0  0  0  0  0  0  0
  149.7189  137.1605  154.5194 N   0  3  0  0  0  0  0  0  0  0  0  0
  150.6646  136.1024  154.9699 C   0  0  0  0  0  0  0  0  0  0  0  0
  150.0526  134.7033  154.7976 C   0  0  0  0  0  0  0  0  0  0  0  0
  148.8415  134.6242  155.5340 O   0  0  0  0  0  0  0  0  0  0  0  0
  147.8820  135.5565  155.0590 C   0  0  0  0  0  0  0  0  0  0  0  0
  148.4166  136.9901  155.2219 C   0  0  0  0  0  0  0  0  0  0  0  0
  149.7420  140.5725  153.9931 H   0  0  0  0  0  0  0  0  0  0  0  0
  148.4310  139.6363  154.6982 H   0  0  0  0  0  0  0  0  0  0  0  0
  148.9546  139.3532  153.0443 H   0  0  0  0  0  0  0  0  0  0  0  0
  151.1884  138.5408  153.9197 H   0  0  0  0  0  0  0  0  0  0  0  0
  150.0806  138.6875  156.7506 H   0  0  0  0  0  0  0  0  0  0  0  0
  151.7249  138.3644  156.2507 H   0  0  0  0  0  0  0  0  0  0  0  0
  152.0791  140.5954  155.6125 H   0  0  0  0  0  0  0  0  0  0  0  0
  152.0241  142.6690  156.0090 H   0  0  0  0  0  0  0  0  0  0  0  0
  150.4443  143.3772  156.1098 H   0  0  0  0  0  0  0  0  0  0  0  0
  150.5309  145.0873  157.3982 H   0  0  0  0  0  0  0  0  0  0  0  0
  150.9587  146.2150  159.5664 H   0  0  0  0  0  0  0  0  0  0  0  0
  152.1753  144.9116  161.3682 H   0  0  0  0  0  0  0  0  0  0  0  0
  152.8879  142.6421  160.9553 H   0  0  0  0  0  0  0  0  0  0  0  0
  151.5970  136.1393  154.4100 H   0  0  0  0  0  0  0  0  0  0  0  0
  150.9207  136.2644  156.0182 H   0  0  0  0  0  0  0  0  0  0  0  0
  149.8731  134.4809  153.7443 H   0  0  0  0  0  0  0  0  0  0  0  0
  150.7409  133.9445  155.1701 H   0  0  0  0  0  0  0  0  0  0  0  0
  147.6394  135.3475  154.0157 H   0  0  0  0  0  0  0  0  0  0  0  0
  146.9608  135.4337  155.6290 H   0  0  0  0  0  0  0  0  0  0  0  0
  148.5365  137.2275  156.2802 H   0  0  0  0  0  0  0  0  0  0  0  0
  147.6628  137.6641  154.8165 H   0  0  0  0  0  0  0  0  0  0  0  0
  149.5257  136.9842  153.5438 H   0  0  0  0  0  0  0  0  0  0  0  0
  1  2  1  0  0  0  0
  1 21  1  0  0  0  0
  1 22  1  0  0  0  0
  1 23  1  0  0  0  0
  2  3  1  0  0  0  0
  2 15  1  0  0  0  0
  2 24  1  0  0  0  0
  3  4  1  0  0  0  0
  3 25  1  0  0  0  0
  3 26  1  0  0  0  0
  4  5  1  0  0  0  0
  4 27  1  0  0  0  0
  5  6  2  0  0  0  0
  5  7  1  0  0  0  0
  7  8  1  0  0  0  0
  7 28  1  0  0  0  0
  7 29  1  0  0  0  0
  8 13  1  0  0  0  0
  8  9  1  0  0  0  0
  9 10  2  0  0  0  0
  9 30  1  0  0  0  0
 10 11  1  0  0  0  0
 10 31  1  0  0  0  0
 11 12  2  0  0  0  0
 11 32  1  0  0  0  0
 12 13  1  0  0  0  0
 12 33  1  0  0  0  0
 13 14  2  0  0  0  0
 15 20  1  0  0  0  0
 15 16  1  0  0  0  0
 15 42  1  0  0  0  0
 16 17  1  0  0  0  0
 16 34  1  0  0  0  0
 16 35  1  0  0  0  0
 17 18  1  0  0  0  0
 17 36  1  0  0  0  0
 17 37  1  0  0  0  0
 18 19  1  0  0  0  0
 19 20  1  0  0  0  0
 19 38  1  0  0  0  0
 19 39  1  0  0  0  0
 20 40  1  0  0  0  0
 20 41  1  0  0  0  0
M  CHG  1  15   1
M  END
> <s_m_source_file>
AV-unprocessed.smi

> <i_m_source_file_index>
1835

> <i_lp_mmshare_version>
43012

> <i_f3d_flags>
0

> <s_epik_input>
W0NIMl0xW0NIMl1PW0NIMl1bQ0gyXU4xW0NASF0oW0NIM10pW0NIMl1bTkhdQyg9TylbQ0gyXW4yW2NIXVtjSF1bY0hdW2NIXWMyPU8=

> <s_epik_cmdline>
J2VwaWtfcHl0aG9uJywgJy1waCcsICc3LjAnLCAnLXRuJywgJzgnLCAnLW1hJywgJzIwMCcsICctbWV0YWxfYmluZGluZycsICctaW1hZScsICc8aW5maWxlLm1hZT4nLCAnLW9tYWUnLCAnPG91dGZpbGUubWFlPic=

> <r_lp_tautomer_probability>
1

> <r_epik_Ionization_Penalty>
0.656654

> <r_epik_Ionization_Penalty_Charging>
0.656654

> <r_epik_Ionization_Penalty_Neutral>
9.12373e-08

> <r_epik_State_Penalty>
0.675641

> <r_epik_Charging_Adjusted_Penalty>
1.33229

> <i_epik_Tot_Q>
1

> <i_epik_Tot_abs_Q>
1

> <r_epik_Metal_State_Penalty>
0.675692

> <b_epik_Metal_Only>
0

> <s_lp_Force_Field>
OPLS_2005

> <r_lp_Energy>
28.3698

> <b_lp_Chiralities_Consistent>
1

> <s_lp_Variant>
AV-unprocessed.smi:1835-4

> <Gold.Version>
5.8.1

> <Gold.Id.Protein>
6NUR|6NUR_protein|mol2

> <Gold.PLP.Fitness>
44.9485

> <Gold.PLP.PLP>
-36.5747

> <Gold.PLP.part.hbond>
-1.0000

> <Gold.PLP.part.metal>
0.0000

> <Gold.PLP.part.buried>
-4.2818

> <Gold.PLP.part.nonpolar>
-31.8999

> <Gold.PLP.part.repulsive>
0.2614

> <Gold.PLP.ligand.clash>
0.0000

> <Gold.PLP.ligand.torsion>
0.3312

> <Gold.PLP.Chemscore.Hbond>
2.0000

> <Gold.PLP.Chemscore.CHOScore>
0.9926

> <Gold.PLP.Chemscore.Metal>
0.0000

> <Gold.Chemscore.Hbonds>
donor molecule, donor type, donor heavy atom, donor atom, acceptor molecule, acceptor atom, score
      L1  H    15    42       P1  7948  2.00
      L1  C     9    30       P1  8028  0.87
      L1  C     9    30       P1  8029  0.01

> <Gold.PLP.Chemscore.Internal.Correction>
0.0586

> <Gold.Rescore>
     Score         DG    S(hbond)    S(metal)    S(lipo)     H(rot)  DE(clash)    DE(int)     intcor
     12.07     -14.04       0.96        0.00      88.78       1.96       0.42       1.55       ----

> <Gold.Chemscore.Fitness>
12.0652

> <Gold.Chemscore.DG>
-14.0355

> <Gold.Chemscore.ZeroCoef>
-5.4800

> <Gold.Chemscore.Hbond>
0.9575

> <Gold.Chemscore.Metal>
0.0000

> <Gold.Chemscore.Lipo>
88.7821

> <Gold.Chemscore.Internal_Hbond>
0.0000

> <Gold.Chemscore.DEClash>
0.4192

> <Gold.Chemscore.DEInternal>
1.5511

> <Gold.Chemscore.Rot>
1.9649

> <Gold.Chemscore.Internal.Correction>
   9.000000E+99

> <Gold.Chemscore.Hbonds>
donor molecule, donor type, donor heavy atom, donor atom, acceptor molecule, acceptor atom, score
      L1  H    15    42       P1  7948  0.85

> <Gold.Chemscore.Hbond.Weighted>
-3.1980

> <Gold.Chemscore.Metal.Weighted>
-0.0000

> <Gold.Chemscore.Lipo.Weighted>
-10.3875

> <Gold.Chemscore.Internal_Hbond.Weighted>
0.0000

> <Gold.Chemscore.DEClash.Weighted>
0.4192

> <Gold.Chemscore.DEInternal.Weighted>
1.5511

> <Gold.Chemscore.Rot.Weighted>
5.0300

> <Gold.Chemscore.Internal.Correction.Weighted>
   9.000000E+99

> <Gold.Protein.RotatedTorsions>
[ 6907 6896 6895 6894 ] final  -27.95 input  -60.11 | X-H torsion
[ 7974 7965 7964 7962 ] final  113.85 input  175.53 | X-H torsion
[ 8008 7997 7996 7995 ] final -110.61 input   59.86 | X-H torsion
[ 10167 10162 10161 10158 ] final   78.23 input  -65.29 | X-H torsion
[ 10718 10713 10712 10709 ] final  167.56 input   66.30 | X-H torsion
[ 10763 10752 10751 10750 ] final -150.83 input  -60.55 | X-H torsion
[ 11005 11000 10999 10996 ] final   91.76 input  -57.11 | X-H torsion

> <Gold.Protein.ActiveResidues>
 VAL166  LYS551  ARG553  GLY616  TRP617  ASP618  TYR619  PRO620  LYS621  CYS622 
 ASP623  PHE694  ASN695  SER759  ASP760  ASP761  ALA762  ILE779  LEU786  VAL792 
 PHE793  MET794  SER795  GLU796  ALA797  LYS798  CYS799  TRP800  GLU811  SER814 

> <Gold.Protein.RotatedAtoms>
  151.1397  135.0173  159.8619 H   0  0  0  0  0  0  0  0  0  0  0  0  # atno 6907 bound_to 6896
  152.5452  134.1513  159.8530 H   0  0  0  0  0  0  0  0  0  0  0  0  # atno 6908 bound_to 6896
  151.1588  133.4813  159.2627 H   0  0  0  0  0  0  0  0  0  0  0  0  # atno 6909 bound_to 6896
  145.2117  139.2903  143.4264 H   0  0  0  0  0  0  0  0  0  0  0  0  # atno 7974 bound_to 7965
  154.9771  140.0397  157.2261 H   0  0  0  0  0  0  0  0  0  0  0  0  # atno 8008 bound_to 7997
  154.7748  140.2808  155.6087 H   0  0  0  0  0  0  0  0  0  0  0  0  # atno 8009 bound_to 7997
  156.2927  140.2603  156.2559 H   0  0  0  0  0  0  0  0  0  0  0  0  # atno 8010 bound_to 7997
  139.9731  144.5880  150.7968 H   0  0  0  0  0  0  0  0  0  0  0  0  # atno 10167 bound_to 10162
  157.0498  131.0310  151.2685 H   0  0  0  0  0  0  0  0  0  0  0  0  # atno 10718 bound_to 10713
  154.8095  135.3275  154.7343 H   0  0  0  0  0  0  0  0  0  0  0  0  # atno 10763 bound_to 10752
  153.7994  135.6904  153.4862 H   0  0  0  0  0  0  0  0  0  0  0  0  # atno 10764 bound_to 10752
  153.1864  135.4567  155.0039 H   0  0  0  0  0  0  0  0  0  0  0  0  # atno 10765 bound_to 10752
  139.8834  134.8693  156.3475 H   0  0  0  0  0  0  0  0  0  0  0  0  # atno 11005 bound_to 11000
  146.3396  140.2395  142.8595 LP  0  0  0  0  0  0  0  0  0  0  0  0  # atno 17320 bound_to 7965
  144.9849  140.8494  143.5374 LP  0  0  0  0  0  0  0  0  0  0  0  0  # atno 17321 bound_to 7965
  140.7515  143.2974  151.3169 LP  0  0  0  0  0  0  0  0  0  0  0  0  # atno 17342 bound_to 10162
  139.6466  144.0439  152.2595 LP  0  0  0  0  0  0  0  0  0  0  0  0  # atno 17343 bound_to 10162
  157.5039  130.7897  149.7633 LP  0  0  0  0  0  0  0  0  0  0  0  0  # atno 17370 bound_to 10713
  156.0011  130.3880  150.2602 LP  0  0  0  0  0  0  0  0  0  0  0  0  # atno 17371 bound_to 10713
  140.9617  133.7384  156.0410 LP  0  0  0  0  0  0  0  0  0  0  0  0  # atno 17394 bound_to 11000
  140.7981  134.3540  157.5447 LP  0  0  0  0  0  0  0  0  0  0  0  0  # atno 17395 bound_to 11000

$$$$
