AV-unprocessed.smi:1745|AV-procd|sdf|7030|dock7
  -GOLD-   22720 8253D 1   1.00000     0.00000
 Structure written by MMmdl.
 47 49  0  0  0  0  0  0  0  0  1 V2000
  144.6054  136.9863  153.4802 C   0  0  0  0  0  0  0  0  0  0  0  0
  145.4543  137.1863  152.2164 C   0  0  1  0  0  0  0  0  0  0  0  0
  146.8198  137.5290  152.6110 N   0  0  0  0  0  0  0  0  0  0  0  0
  147.1711  138.4618  153.5081 C   0  0  0  0  0  0  0  0  0  0  0  0
  146.3628  139.1597  154.1194 O   0  0  0  0  0  0  0  0  0  0  0  0
  148.5068  138.5129  153.6492 N   0  0  0  0  0  0  0  0  0  0  0  0
  149.2787  139.3341  154.5153 C   0  0  0  0  0  0  0  0  0  0  0  0
  150.5982  138.9299  154.8009 C   0  0  0  0  0  0  0  0  0  0  0  0
  151.3934  139.7244  155.6475 C   0  0  0  0  0  0  0  0  0  0  0  0
  150.8409  140.9120  156.1786 C   0  0  0  0  0  0  0  0  0  0  0  0
  151.5749  141.7449  157.0338 N   0  0  0  0  0  0  0  0  0  0  0  0
  150.9436  143.0380  157.2635 C   0  0  0  0  0  0  0  0  0  0  0  0
  151.8675  143.9323  158.1086 C   0  0  0  0  0  0  0  0  0  0  0  0
  152.1991  143.2641  159.3228 O   0  0  0  0  0  0  0  0  0  0  0  0
  152.8858  142.0379  159.0877 C   0  0  0  0  0  0  0  0  0  0  0  0
  151.9881  141.0932  158.2702 C   0  0  0  0  0  0  0  0  0  0  0  0
  149.5832  141.3160  155.8977 N   0  0  0  0  0  0  0  0  0  0  0  0
  148.8250  140.5488  155.0851 C   0  0  0  0  0  0  0  0  0  0  0  0
  145.4599  135.9301  151.3234 C   0  0  2  0  0  0  0  0  0  0  0  0
  144.0821  135.3209  151.0592 C   0  0  0  0  0  0  0  0  0  0  0  0
  144.3913  133.8661  150.7435 C   0  0  0  0  0  0  0  0  0  0  0  0
  145.8217  133.6683  151.2541 C   0  0  0  0  0  0  0  0  0  0  0  0
  146.1349  134.8589  151.9637 O   0  0  0  0  0  0  0  0  0  0  0  0
  143.5703  136.7572  153.2259 H   0  0  0  0  0  0  0  0  0  0  0  0
  144.5991  137.8867  154.0952 H   0  0  0  0  0  0  0  0  0  0  0  0
  144.9866  136.1672  154.0908 H   0  0  0  0  0  0  0  0  0  0  0  0
  145.0104  138.0061  151.6489 H   0  0  0  0  0  0  0  0  0  0  0  0
  147.5588  137.0092  152.1608 H   0  0  0  0  0  0  0  0  0  0  0  0
  149.0316  137.8314  153.1210 H   0  0  0  0  0  0  0  0  0  0  0  0
  150.9977  138.0178  154.3823 H   0  0  0  0  0  0  0  0  0  0  0  0
  152.4039  139.4233  155.8826 H   0  0  0  0  0  0  0  0  0  0  0  0
  150.7281  143.5191  156.3084 H   0  0  0  0  0  0  0  0  0  0  0  0
  149.9920  142.9001  157.7785 H   0  0  0  0  0  0  0  0  0  0  0  0
  152.7764  144.1825  157.5591 H   0  0  0  0  0  0  0  0  0  0  0  0
  151.3688  144.8723  158.3446 H   0  0  0  0  0  0  0  0  0  0  0  0
  153.8259  142.2292  158.5674 H   0  0  0  0  0  0  0  0  0  0  0  0
  153.1382  141.5819  160.0451 H   0  0  0  0  0  0  0  0  0  0  0  0
  151.1107  140.8195  158.8575 H   0  0  0  0  0  0  0  0  0  0  0  0
  152.5243  140.1718  158.0401 H   0  0  0  0  0  0  0  0  0  0  0  0
  147.8416  140.9447  154.8857 H   0  0  0  0  0  0  0  0  0  0  0  0
  145.9566  136.1414  150.3741 H   0  0  0  0  0  0  0  0  0  0  0  0
  143.4680  135.3765  151.9593 H   0  0  0  0  0  0  0  0  0  0  0  0
  143.5452  135.8244  150.2546 H   0  0  0  0  0  0  0  0  0  0  0  0
  143.6865  133.1994  151.2413 H   0  0  0  0  0  0  0  0  0  0  0  0
  144.3379  133.6717  149.6718 H   0  0  0  0  0  0  0  0  0  0  0  0
  145.9198  132.7938  151.8976 H   0  0  0  0  0  0  0  0  0  0  0  0
  146.5144  133.5557  150.4188 H   0  0  0  0  0  0  0  0  0  0  0  0
  1  2  1  0  0  0  0
  1 24  1  0  0  0  0
  1 25  1  0  0  0  0
  1 26  1  0  0  0  0
  2  3  1  0  0  0  0
  2 19  1  0  0  0  0
  2 27  1  0  0  0  0
  3  4  1  0  0  0  0
  3 28  1  0  0  0  0
  4  5  2  0  0  0  0
  4  6  1  0  0  0  0
  6  7  1  0  0  0  0
  6 29  1  0  0  0  0
  7 18  1  0  0  0  0
  7  8  2  0  0  0  0
  8  9  1  0  0  0  0
  8 30  1  0  0  0  0
  9 10  2  0  0  0  0
  9 31  1  0  0  0  0
 10 11  1  0  0  0  0
 10 17  1  0  0  0  0
 11 16  1  0  0  0  0
 11 12  1  0  0  0  0
 12 13  1  0  0  0  0
 12 32  1  0  0  0  0
 12 33  1  0  0  0  0
 13 14  1  0  0  0  0
 13 34  1  0  0  0  0
 13 35  1  0  0  0  0
 14 15  1  0  0  0  0
 15 16  1  0  0  0  0
 15 36  1  0  0  0  0
 15 37  1  0  0  0  0
 16 38  1  0  0  0  0
 16 39  1  0  0  0  0
 17 18  2  0  0  0  0
 18 40  1  0  0  0  0
 19 23  1  0  0  0  0
 19 20  1  0  0  0  0
 19 41  1  0  0  0  0
 20 21  1  0  0  0  0
 20 42  1  0  0  0  0
 20 43  1  0  0  0  0
 21 22  1  0  0  0  0
 21 44  1  0  0  0  0
 21 45  1  0  0  0  0
 22 23  1  0  0  0  0
 22 46  1  0  0  0  0
 22 47  1  0  0  0  0
M  END
> <s_m_source_file>
AV-unprocessed.smi

> <i_m_source_file_index>
1745

> <i_lp_mmshare_version>
43012

> <i_f3d_flags>
0

> <s_epik_input>
TzFbQ0gyXVtDSDJdW0NIMl1bQ0BIXTFbQ0BIXShbQ0gzXSlbTkhdQyg9TylbTkhdYzJbY0hdW2NIXWMobltjSF0yKU4zW0NIMl1bQ0gyXU9bQ0gyXVtDSDJdMw==

> <s_epik_cmdline>
J2VwaWtfcHl0aG9uJywgJy1waCcsICc3LjAnLCAnLXRuJywgJzgnLCAnLW1hJywgJzIwMCcsICctbWV0YWxfYmluZGluZycsICctaW1hZScsICc8aW5maWxlLm1hZT4nLCAnLW9tYWUnLCAnPG91dGZpbGUubWFlPic=

> <r_lp_tautomer_probability>
1

> <r_epik_Ionization_Penalty>
0.00206005

> <r_epik_Ionization_Penalty_Charging>
0

> <r_epik_Ionization_Penalty_Neutral>
0.00206005

> <r_epik_State_Penalty>
0.00138459

> <r_epik_Charging_Adjusted_Penalty>
0.00138459

> <i_epik_Tot_Q>
0

> <i_epik_Tot_abs_Q>
0

> <r_epik_Metal_State_Penalty>
-0

> <b_epik_Metal_Only>
0

> <s_lp_Force_Field>
OPLS_2005

> <r_lp_Energy>
36.4473

> <b_lp_Chiralities_Consistent>
1

> <s_lp_Variant>
AV-unprocessed.smi:1745-2

> <Gold.Version>
5.8.1

> <Gold.Id.Protein>
6NUR|6NUR_protein|mol2

> <Gold.PLP.Fitness>
45.5467

> <Gold.PLP.PLP>
-40.4920

> <Gold.PLP.part.hbond>
-2.9273

> <Gold.PLP.part.metal>
0.0000

> <Gold.PLP.part.buried>
-2.8157

> <Gold.PLP.part.nonpolar>
-37.5803

> <Gold.PLP.part.repulsive>
1.1744

> <Gold.PLP.ligand.clash>
0.0000

> <Gold.PLP.ligand.torsion>
0.3949

> <Gold.PLP.Chemscore.Hbond>
1.9033

> <Gold.PLP.Chemscore.CHOScore>
0.0000

> <Gold.PLP.Chemscore.Metal>
0.0000

> <Gold.Chemscore.Hbonds>
donor molecule, donor type, donor heavy atom, donor atom, acceptor molecule, acceptor atom, score
      L1  H     3    28       P1  7948  1.00
      L1  H     6    29       P1  7948  0.96

> <Gold.PLP.Chemscore.Internal.Correction>
0.1348

> <Gold.Rescore>
     Score         DG    S(hbond)    S(metal)    S(lipo)     H(rot)  DE(clash)    DE(int)     intcor
     16.71     -19.51       1.82        0.00      98.41       1.40       0.33       2.47       ----

> <Gold.Chemscore.Fitness>
16.7072

> <Gold.Chemscore.DG>
-19.5081

> <Gold.Chemscore.ZeroCoef>
-5.4800

> <Gold.Chemscore.Hbond>
1.8221

> <Gold.Chemscore.Metal>
0.0000

> <Gold.Chemscore.Lipo>
98.4050

> <Gold.Chemscore.Internal_Hbond>
0.0000

> <Gold.Chemscore.DEClash>
0.3270

> <Gold.Chemscore.DEInternal>
2.4739

> <Gold.Chemscore.Rot>
1.3950

> <Gold.Chemscore.Internal.Correction>
   9.000000E+99

> <Gold.Chemscore.Hbonds>
donor molecule, donor type, donor heavy atom, donor atom, acceptor molecule, acceptor atom, score
      L1  H     3    28       P1  7948  0.99
      L1  H     6    29       P1  7948  0.88

> <Gold.Chemscore.Hbond.Weighted>
-6.0859

> <Gold.Chemscore.Metal.Weighted>
-0.0000

> <Gold.Chemscore.Lipo.Weighted>
-11.5134

> <Gold.Chemscore.Internal_Hbond.Weighted>
0.0000

> <Gold.Chemscore.DEClash.Weighted>
0.3270

> <Gold.Chemscore.DEInternal.Weighted>
2.4739

> <Gold.Chemscore.Rot.Weighted>
3.5712

> <Gold.Chemscore.Internal.Correction.Weighted>
   9.000000E+99

> <Gold.Protein.RotatedTorsions>
[ 6907 6896 6895 6894 ] final -111.02 input  -60.11 | X-H torsion
[ 7974 7965 7964 7962 ] final  106.60 input  175.53 | X-H torsion
[ 8008 7997 7996 7995 ] final   74.53 input   59.86 | X-H torsion
[ 10167 10162 10161 10158 ] final   -0.67 input  -65.29 | X-H torsion
[ 10718 10713 10712 10709 ] final -116.35 input   66.30 | X-H torsion
[ 10763 10752 10751 10750 ] final   -5.33 input  -60.55 | X-H torsion
[ 11005 11000 10999 10996 ] final    5.96 input  -57.11 | X-H torsion

> <Gold.Protein.ActiveResidues>
 VAL166  LYS551  ARG553  GLY616  TRP617  ASP618  TYR619  PRO620  LYS621  CYS622 
 ASP623  PHE694  ASN695  SER759  ASP760  ASP761  ALA762  ILE779  LEU786  VAL792 
 PHE793  MET794  SER795  GLU796  ALA797  LYS798  CYS799  TRP800  GLU811  SER814 

> <Gold.Protein.RotatedAtoms>
  150.7663  133.9296  159.3422 H   0  0  0  0  0  0  0  0  0  0  0  0  # atno 6907 bound_to 6896
  151.7193  135.0895  160.0290 H   0  0  0  0  0  0  0  0  0  0  0  0  # atno 6908 bound_to 6896
  152.3660  133.6320  159.6086 H   0  0  0  0  0  0  0  0  0  0  0  0  # atno 6909 bound_to 6896
  145.3045  139.2559  143.3796 H   0  0  0  0  0  0  0  0  0  0  0  0  # atno 7974 bound_to 7965
  155.7996  140.3476  155.5395 H   0  0  0  0  0  0  0  0  0  0  0  0  # atno 8008 bound_to 7997
  155.8551  140.0962  157.1670 H   0  0  0  0  0  0  0  0  0  0  0  0  # atno 8009 bound_to 7997
  154.4009  140.1369  156.3879 H   0  0  0  0  0  0  0  0  0  0  0  0  # atno 8010 bound_to 7997
  140.6777  143.6866  150.8061 H   0  0  0  0  0  0  0  0  0  0  0  0  # atno 10167 bound_to 10162
  156.0958  130.6130  150.9024 H   0  0  0  0  0  0  0  0  0  0  0  0  # atno 10718 bound_to 10713
  153.3971  135.7004  153.6453 H   0  0  0  0  0  0  0  0  0  0  0  0  # atno 10763 bound_to 10752
  153.5002  135.3654  155.2536 H   0  0  0  0  0  0  0  0  0  0  0  0  # atno 10764 bound_to 10752
  154.8707  135.4110  154.3298 H   0  0  0  0  0  0  0  0  0  0  0  0  # atno 10765 bound_to 10752
  140.5648  134.0158  155.7985 H   0  0  0  0  0  0  0  0  0  0  0  0  # atno 11005 bound_to 11000
  146.3140  140.3567  142.8661 LP  0  0  0  0  0  0  0  0  0  0  0  0  # atno 17320 bound_to 7965
  144.9066  140.7707  143.5834 LP  0  0  0  0  0  0  0  0  0  0  0  0  # atno 17321 bound_to 7965
  140.0562  143.5200  152.2650 LP  0  0  0  0  0  0  0  0  0  0  0  0  # atno 17342 bound_to 10162
  139.6080  144.7601  151.3017 LP  0  0  0  0  0  0  0  0  0  0  0  0  # atno 17343 bound_to 10162
  157.6118  131.0936  150.8781 LP  0  0  0  0  0  0  0  0  0  0  0  0  # atno 17370 bound_to 10713
  156.8920  130.5216  149.5286 LP  0  0  0  0  0  0  0  0  0  0  0  0  # atno 17371 bound_to 10713
  141.1092  133.9644  157.2941 LP  0  0  0  0  0  0  0  0  0  0  0  0  # atno 17394 bound_to 11000
  139.9390  135.0193  156.8648 LP  0  0  0  0  0  0  0  0  0  0  0  0  # atno 17395 bound_to 11000

$$$$
