AV-unprocessed.smi:2511|AV-procd|sdf|9889|dock2
  -GOLD-   2272013523D 1   1.00000     0.00000
 Structure written by MMmdl.
 40 41  0  0  0  0  0  0  0  0  1 V2000
  151.9524  137.9511  153.9560 N   0  0  0  0  0  0  0  0  0  0  0  0
  151.9476  138.3493  155.2327 C   0  0  0  0  0  0  0  0  0  0  0  0
  152.7381  139.1899  155.6592 O   0  0  0  0  0  0  0  0  0  0  0  0
  150.8897  137.7440  156.1168 C   0  0  0  0  0  0  0  0  0  0  0  0
  149.8344  136.9978  155.5447 C   0  0  0  0  0  0  0  0  0  0  0  0
  148.8503  136.4448  156.3861 C   0  0  0  0  0  0  0  0  0  0  0  0
  148.9492  136.6502  157.7823 C   0  0  0  0  0  0  0  0  0  0  0  0
  148.0172  136.1588  158.7359 N   0  0  0  0  0  0  0  0  0  0  0  0
  148.0618  136.2383  160.0803 C   0  0  0  0  0  0  0  0  0  0  0  0
  148.9663  136.7685  160.7213 O   0  0  0  0  0  0  0  0  0  0  0  0
  146.9985  135.6961  160.7018 N   0  0  0  0  0  0  0  0  0  0  0  0
  146.7210  135.6074  162.1396 C   0  0  1  0  0  0  0  0  0  0  0  0
  146.6222  137.0207  162.7451 C   0  0  0  0  0  0  0  0  0  0  0  0
  145.3493  137.7575  162.2951 C   0  0  0  0  0  0  0  0  0  0  0  0
  144.0877  136.9356  162.6021 C   0  0  0  0  0  0  0  0  0  0  0  0
  144.1528  135.5312  161.9657 C   0  0  2  0  0  0  0  0  0  0  0  0
  142.8827  134.7046  162.2553 C   0  0  0  0  0  0  0  0  0  0  0  0
  142.9609  133.5000  161.6890 F   0  0  0  0  0  0  0  0  0  0  0  0
  142.7263  134.5528  163.5704 F   0  0  0  0  0  0  0  0  0  0  0  0
  141.8094  135.3358  161.7791 F   0  0  0  0  0  0  0  0  0  0  0  0
  145.4345  134.8001  162.4258 C   0  0  0  0  0  0  0  0  0  0  0  0
  150.0269  137.4263  158.2540 C   0  0  0  0  0  0  0  0  0  0  0  0
  150.9740  137.9573  157.4527 N   0  0  0  0  0  0  0  0  0  0  0  0
  152.6400  138.3188  153.3150 H   0  0  0  0  0  0  0  0  0  0  0  0
  151.2662  137.2793  153.6436 H   0  0  0  0  0  0  0  0  0  0  0  0
  149.7710  136.8465  154.4768 H   0  0  0  0  0  0  0  0  0  0  0  0
  148.0393  135.8894  155.9418 H   0  0  0  0  0  0  0  0  0  0  0  0
  147.1764  135.7557  158.3486 H   0  0  0  0  0  0  0  0  0  0  0  0
  146.2891  135.3019  160.1007 H   0  0  0  0  0  0  0  0  0  0  0  0
  147.5629  135.1084  162.6223 H   0  0  0  0  0  0  0  0  0  0  0  0
  146.6210  136.9431  163.8332 H   0  0  0  0  0  0  0  0  0  0  0  0
  147.5051  137.6062  162.4854 H   0  0  0  0  0  0  0  0  0  0  0  0
  145.2892  138.7264  162.7915 H   0  0  0  0  0  0  0  0  0  0  0  0
  145.3992  137.9646  161.2256 H   0  0  0  0  0  0  0  0  0  0  0  0
  143.9663  136.8476  163.6825 H   0  0  0  0  0  0  0  0  0  0  0  0
  143.2113  137.4723  162.2375 H   0  0  0  0  0  0  0  0  0  0  0  0
  144.2107  135.6607  160.8838 H   0  0  0  0  0  0  0  0  0  0  0  0
  145.4940  133.8179  161.9563 H   0  0  0  0  0  0  0  0  0  0  0  0
  145.3718  134.6113  163.4982 H   0  0  0  0  0  0  0  0  0  0  0  0
  150.1382  137.6244  159.3101 H   0  0  0  0  0  0  0  0  0  0  0  0
  1  2  1  0  0  0  0
  1 24  1  0  0  0  0
  1 25  1  0  0  0  0
  2  3  2  0  0  0  0
  2  4  1  0  0  0  0
  4 23  1  0  0  0  0
  4  5  2  0  0  0  0
  5  6  1  0  0  0  0
  5 26  1  0  0  0  0
  6  7  2  0  0  0  0
  6 27  1  0  0  0  0
  7  8  1  0  0  0  0
  7 22  1  0  0  0  0
  8  9  1  0  0  0  0
  8 28  1  0  0  0  0
  9 10  2  0  0  0  0
  9 11  1  0  0  0  0
 11 12  1  0  0  0  0
 11 29  1  0  0  0  0
 12 21  1  0  0  0  0
 12 13  1  0  0  0  0
 12 30  1  0  0  0  0
 13 14  1  0  0  0  0
 13 31  1  0  0  0  0
 13 32  1  0  0  0  0
 14 15  1  0  0  0  0
 14 33  1  0  0  0  0
 14 34  1  0  0  0  0
 15 16  1  0  0  0  0
 15 35  1  0  0  0  0
 15 36  1  0  0  0  0
 16 17  1  0  0  0  0
 16 21  1  0  0  0  0
 16 37  1  0  0  0  0
 17 18  1  0  0  0  0
 17 19  1  0  0  0  0
 17 20  1  0  0  0  0
 21 38  1  0  0  0  0
 21 39  1  0  0  0  0
 22 23  2  0  0  0  0
 22 40  1  0  0  0  0
M  END
> <s_m_source_file>
AV-unprocessed.smi

> <i_m_source_file_index>
2511

> <i_lp_mmshare_version>
43012

> <i_f3d_flags>
0

> <s_epik_input>
W05IMl1DKD1PKWMxW2NIXVtjSF1jKFtjSF1uMSlbTkhdQyg9TylbTkhdW0NAQEhdMltDSDJdW0NIMl1bQ0gyXVtDQEBIXShDKEYpKEYpRilbQ0gyXTI=

> <s_epik_cmdline>
J2VwaWtfcHl0aG9uJywgJy1waCcsICc3LjAnLCAnLXRuJywgJzgnLCAnLW1hJywgJzIwMCcsICctbWV0YWxfYmluZGluZycsICctaW1hZScsICc8aW5maWxlLm1hZT4nLCAnLW9tYWUnLCAnPG91dGZpbGUubWFlPic=

> <r_lp_tautomer_probability>
1

> <r_epik_Ionization_Penalty>
4.28758e-05

> <r_epik_Ionization_Penalty_Charging>
0

> <r_epik_Ionization_Penalty_Neutral>
4.28758e-05

> <r_epik_State_Penalty>
-0

> <r_epik_Charging_Adjusted_Penalty>
0

> <i_epik_Tot_Q>
0

> <i_epik_Tot_abs_Q>
0

> <r_epik_Metal_State_Penalty>
-0

> <b_epik_Metal_Only>
0

> <s_lp_Force_Field>
OPLS_2005

> <r_lp_Energy>
27.7433

> <b_lp_Chiralities_Consistent>
1

> <s_lp_Variant>
AV-unprocessed.smi:2511-4

> <Gold.Version>
5.8.1

> <Gold.Id.Protein>
6NUR|6NUR_protein|mol2

> <Gold.PLP.Fitness>
37.2314

> <Gold.PLP.PLP>
-31.7423

> <Gold.PLP.part.hbond>
-2.2916

> <Gold.PLP.part.metal>
0.0000

> <Gold.PLP.part.buried>
-6.0307

> <Gold.PLP.part.nonpolar>
-24.3900

> <Gold.PLP.part.repulsive>
0.3145

> <Gold.PLP.ligand.clash>
0.0000

> <Gold.PLP.ligand.torsion>
0.0878

> <Gold.PLP.Chemscore.Hbond>
1.8800

> <Gold.PLP.Chemscore.CHOScore>
0.0000

> <Gold.PLP.Chemscore.Metal>
0.0000

> <Gold.Chemscore.Hbonds>
donor molecule, donor type, donor heavy atom, donor atom, acceptor molecule, acceptor atom, score
      P1  H  6931  6943       L1    10  0.86
      P1  H  7997  8010       L1     3  1.00

> <Gold.PLP.Chemscore.Internal.Correction>
0.0246

> <Gold.Rescore>
     Score         DG    S(hbond)    S(metal)    S(lipo)     H(rot)  DE(clash)    DE(int)     intcor
     14.81     -16.32       1.95        0.00      58.79       1.00       0.01       1.51       ----

> <Gold.Chemscore.Fitness>
14.8073

> <Gold.Chemscore.DG>
-16.3235

> <Gold.Chemscore.ZeroCoef>
-5.4800

> <Gold.Chemscore.Hbond>
1.9534

> <Gold.Chemscore.Metal>
0.0000

> <Gold.Chemscore.Lipo>
58.7947

> <Gold.Chemscore.Internal_Hbond>
0.0000

> <Gold.Chemscore.DEClash>
0.0089

> <Gold.Chemscore.DEInternal>
1.5073

> <Gold.Chemscore.Rot>
1.0000

> <Gold.Chemscore.Internal.Correction>
   9.000000E+99

> <Gold.Chemscore.Hbonds>
donor molecule, donor type, donor heavy atom, donor atom, acceptor molecule, acceptor atom, score
      P1  H  6931  6943       L1    10  0.85
      P1  H  7997  8010       L1     3  0.97

> <Gold.Chemscore.Hbond.Weighted>
-6.5245

> <Gold.Chemscore.Metal.Weighted>
-0.0000

> <Gold.Chemscore.Lipo.Weighted>
-6.8790

> <Gold.Chemscore.Internal_Hbond.Weighted>
0.0000

> <Gold.Chemscore.DEClash.Weighted>
0.0089

> <Gold.Chemscore.DEInternal.Weighted>
1.5073

> <Gold.Chemscore.Rot.Weighted>
2.5600

> <Gold.Chemscore.Internal.Correction.Weighted>
   9.000000E+99

> <Gold.Protein.RotatedTorsions>
[ 6907 6896 6895 6894 ] final  -40.85 input  -60.11 | X-H torsion
[ 7974 7965 7964 7962 ] final -101.51 input  175.53 | X-H torsion
[ 8008 7997 7996 7995 ] final  100.86 input   59.86 | X-H torsion
[ 10167 10162 10161 10158 ] final  166.79 input  -65.29 | X-H torsion
[ 10718 10713 10712 10709 ] final   94.87 input   66.30 | X-H torsion
[ 10763 10752 10751 10750 ] final  105.33 input  -60.55 | X-H torsion
[ 11005 11000 10999 10996 ] final  -64.47 input  -57.11 | X-H torsion

> <Gold.Protein.ActiveResidues>
 VAL166  LYS551  ARG553  GLY616  TRP617  ASP618  TYR619  PRO620  LYS621  CYS622 
 ASP623  PHE694  ASN695  SER759  ASP760  ASP761  ALA762  ILE779  LEU786  VAL792 
 PHE793  MET794  SER795  GLU796  ALA797  LYS798  CYS799  TRP800  GLU811  SER814 

> <Gold.Protein.RotatedAtoms>
  150.9736  134.9105  159.7802 H   0  0  0  0  0  0  0  0  0  0  0  0  # atno 6907 bound_to 6896
  152.5198  134.3507  159.9260 H   0  0  0  0  0  0  0  0  0  0  0  0  # atno 6908 bound_to 6896
  151.3515  133.3883  159.2715 H   0  0  0  0  0  0  0  0  0  0  0  0  # atno 6909 bound_to 6896
  145.2807  140.9325  143.2933 H   0  0  0  0  0  0  0  0  0  0  0  0  # atno 7974 bound_to 7965
  156.1244  140.3206  155.8256 H   0  0  0  0  0  0  0  0  0  0  0  0  # atno 8008 bound_to 7997
  155.4446  140.0528  157.3024 H   0  0  0  0  0  0  0  0  0  0  0  0  # atno 8009 bound_to 7997
  154.4851  140.2069  155.9686 H   0  0  0  0  0  0  0  0  0  0  0  0  # atno 8010 bound_to 7997
  139.4932  144.3990  151.9431 H   0  0  0  0  0  0  0  0  0  0  0  0  # atno 10167 bound_to 10162
  157.6944  131.0527  150.4253 H   0  0  0  0  0  0  0  0  0  0  0  0  # atno 10718 bound_to 10713
  153.3779  135.3913  155.1836 H   0  0  0  0  0  0  0  0  0  0  0  0  # atno 10763 bound_to 10752
  154.8703  135.3718  154.4894 H   0  0  0  0  0  0  0  0  0  0  0  0  # atno 10764 bound_to 10752
  153.5368  135.7085  153.5717 H   0  0  0  0  0  0  0  0  0  0  0  0  # atno 10765 bound_to 10752
  141.1426  133.6666  156.5839 H   0  0  0  0  0  0  0  0  0  0  0  0  # atno 11005 bound_to 11000
  144.9256  139.4360  143.6520 LP  0  0  0  0  0  0  0  0  0  0  0  0  # atno 17320 bound_to 7965
  146.3217  139.8139  142.8940 LP  0  0  0  0  0  0  0  0  0  0  0  0  # atno 17321 bound_to 7965
  140.3429  144.3181  150.5963 LP  0  0  0  0  0  0  0  0  0  0  0  0  # atno 17342 bound_to 10162
  140.5550  143.2200  151.7862 LP  0  0  0  0  0  0  0  0  0  0  0  0  # atno 17343 bound_to 10162
  156.4624  130.4035  149.6568 LP  0  0  0  0  0  0  0  0  0  0  0  0  # atno 17370 bound_to 10713
  156.3678  130.7515  151.2494 LP  0  0  0  0  0  0  0  0  0  0  0  0  # atno 17371 bound_to 10713
  140.3816  134.7518  157.4665 LP  0  0  0  0  0  0  0  0  0  0  0  0  # atno 17394 bound_to 11000
  140.0633  134.5965  155.8724 LP  0  0  0  0  0  0  0  0  0  0  0  0  # atno 17395 bound_to 11000

$$$$
