AV-unprocessed.smi:2216|AV-procd|sdf|8966|dock1
  -GOLD-   2272012183D 1   1.00000     0.00000
 Structure written by MMmdl.
 40 41  0  0  0  0  0  0  0  0  2 V2000
  151.0606  142.2554  157.4799 C   0  0  0  0  0  0  0  0  0  0  0  0
  151.0192  141.0416  156.5669 C   0  0  0  0  0  0  0  0  0  0  0  0
  150.1216  140.9420  155.5543 C   0  0  0  0  0  0  0  0  0  0  0  0
  150.0747  139.7762  154.6717 C   0  0  0  0  0  0  0  0  0  0  0  0
  149.1979  139.5595  153.6006 N   0  0  0  0  0  0  0  0  0  0  0  0
  147.9789  138.9916  153.6124 C   0  0  0  0  0  0  0  0  0  0  0  0
  147.3962  138.5503  154.6025 O   0  0  0  0  0  0  0  0  0  0  0  0
  147.4557  138.9597  152.3785 N   0  0  0  0  0  0  0  0  0  0  0  0
  146.1499  138.4092  152.0340 C   0  0  0  0  0  0  0  0  0  0  0  0
  145.8584  137.1134  152.8107 C   0  0  0  0  0  0  0  0  0  0  0  0
  144.7630  136.2577  152.1551 C   0  0  2  0  0  0  0  0  0  0  0  0
  144.1260  135.2729  153.1553 C   0  0  0  0  0  0  0  0  0  0  0  0
  143.0943  134.3822  152.4537 C   0  0  0  0  0  0  0  0  0  0  0  0
  143.7352  133.7123  151.2335 C   0  0  0  0  0  0  0  0  0  0  0  0
  144.3974  134.7663  150.3318 C   0  0  0  0  0  0  0  0  0  0  0  0
  145.3453  135.5197  151.0819 O   0  0  0  0  0  0  0  0  0  0  0  0
  151.0264  138.8299  154.9936 C   0  0  0  0  0  0  0  0  0  0  0  0
  151.9492  138.8568  155.9793 N   0  5  0  0  0  0  0  0  0  0  0  0
  151.9843  139.9476  156.7974 C   0  0  0  0  0  0  0  0  0  0  0  0
  152.7957  140.0410  157.7176 O   0  0  0  0  0  0  0  0  0  0  0  0
  150.2977  142.9850  157.2073 H   0  0  0  0  0  0  0  0  0  0  0  0
  152.0327  142.7456  157.4182 H   0  0  0  0  0  0  0  0  0  0  0  0
  150.8888  141.9594  158.5152 H   0  0  0  0  0  0  0  0  0  0  0  0
  149.4321  141.7587  155.4183 H   0  0  0  0  0  0  0  0  0  0  0  0
  149.5391  139.8756  152.7046 H   0  0  0  0  0  0  0  0  0  0  0  0
  148.0024  139.3433  151.6216 H   0  0  0  0  0  0  0  0  0  0  0  0
  145.3703  139.1504  152.2182 H   0  0  0  0  0  0  0  0  0  0  0  0
  146.1422  138.2125  150.9618 H   0  0  0  0  0  0  0  0  0  0  0  0
  146.7731  136.5268  152.9077 H   0  0  0  0  0  0  0  0  0  0  0  0
  145.5485  137.3677  153.8253 H   0  0  0  0  0  0  0  0  0  0  0  0
  143.9905  136.9195  151.7590 H   0  0  0  0  0  0  0  0  0  0  0  0
  144.9011  134.6492  153.6027 H   0  0  0  0  0  0  0  0  0  0  0  0
  143.6515  135.8165  153.9731 H   0  0  0  0  0  0  0  0  0  0  0  0
  142.7087  133.6304  153.1427 H   0  0  0  0  0  0  0  0  0  0  0  0
  142.2423  134.9853  152.1376 H   0  0  0  0  0  0  0  0  0  0  0  0
  144.4855  132.9923  151.5627 H   0  0  0  0  0  0  0  0  0  0  0  0
  142.9865  133.1514  150.6736 H   0  0  0  0  0  0  0  0  0  0  0  0
  144.9114  134.2802  149.5023 H   0  0  0  0  0  0  0  0  0  0  0  0
  143.6506  135.4320  149.8965 H   0  0  0  0  0  0  0  0  0  0  0  0
  151.0491  137.9132  154.3653 H   0  0  0  0  0  0  0  0  0  0  0  0
  1  2  1  0  0  0  0
  1 21  1  0  0  0  0
  1 22  1  0  0  0  0
  1 23  1  0  0  0  0
  2 19  1  0  0  0  0
  2  3  2  0  0  0  0
  3  4  1  0  0  0  0
  3 24  1  0  0  0  0
  4  5  1  0  0  0  0
  4 17  2  0  0  0  0
  5  6  1  0  0  0  0
  5 25  1  0  0  0  0
  6  7  2  0  0  0  0
  6  8  1  0  0  0  0
  8  9  1  0  0  0  0
  8 26  1  0  0  0  0
  9 10  1  0  0  0  0
  9 27  1  0  0  0  0
  9 28  1  0  0  0  0
 10 11  1  0  0  0  0
 10 29  1  0  0  0  0
 10 30  1  0  0  0  0
 11 16  1  0  0  0  0
 11 12  1  0  0  0  0
 11 31  1  0  0  0  0
 12 13  1  0  0  0  0
 12 32  1  0  0  0  0
 12 33  1  0  0  0  0
 13 14  1  0  0  0  0
 13 34  1  0  0  0  0
 13 35  1  0  0  0  0
 14 15  1  0  0  0  0
 14 36  1  0  0  0  0
 14 37  1  0  0  0  0
 15 16  1  0  0  0  0
 15 38  1  0  0  0  0
 15 39  1  0  0  0  0
 17 18  1  0  0  0  0
 17 40  1  0  0  0  0
 18 19  1  0  0  0  0
 19 20  2  0  0  0  0
M  CHG  1  18  -1
M  END
> <s_m_source_file>
AV-unprocessed.smi

> <i_m_source_file_index>
2216

> <i_lp_mmshare_version>
43012

> <i_f3d_flags>
0

> <s_epik_input>
Tz1jMVtuSF1bY0hdYyhbY0hdYzFbQ0gzXSlbTkhdQyg9TylbTkhdW0NIMl1bQ0gyXVtDQEBIXTJbQ0gyXVtDSDJdW0NIMl1bQ0gyXU8y

> <s_epik_cmdline>
J2VwaWtfcHl0aG9uJywgJy1waCcsICc3LjAnLCAnLXRuJywgJzgnLCAnLW1hJywgJzIwMCcsICctbWV0YWxfYmluZGluZycsICctaW1hZScsICc8aW5maWxlLm1hZT4nLCAnLW9tYWUnLCAnPG91dGZpbGUubWFlPic=

> <r_lp_tautomer_probability>
1

> <r_epik_Ionization_Penalty>
7.55627

> <r_epik_Ionization_Penalty_Charging>
1.50531

> <r_epik_Ionization_Penalty_Neutral>
6.05097

> <r_epik_State_Penalty>
6.05091

> <r_epik_Charging_Adjusted_Penalty>
7.55622

> <i_epik_Tot_Q>
-1

> <i_epik_Tot_abs_Q>
1

> <r_epik_Metal_State_Penalty>
2.00009

> <b_epik_Metal_Only>
1

> <s_lp_Force_Field>
OPLS_2005

> <r_lp_Energy>
21.198

> <b_lp_Chiralities_Consistent>
1

> <s_lp_Variant>
AV-unprocessed.smi:2216-3

> <Gold.Version>
5.8.1

> <Gold.Id.Protein>
6NUR|6NUR_protein|mol2

> <Gold.PLP.Fitness>
41.0018

> <Gold.PLP.PLP>
-34.6264

> <Gold.PLP.part.hbond>
-3.6034

> <Gold.PLP.part.metal>
0.0000

> <Gold.PLP.part.buried>
-2.2496

> <Gold.PLP.part.nonpolar>
-29.9426

> <Gold.PLP.part.repulsive>
0.5433

> <Gold.PLP.ligand.clash>
0.0000

> <Gold.PLP.ligand.torsion>
1.1783

> <Gold.PLP.Chemscore.Hbond>
2.9030

> <Gold.PLP.Chemscore.CHOScore>
0.0000

> <Gold.PLP.Chemscore.Metal>
0.0000

> <Gold.Chemscore.Hbonds>
donor molecule, donor type, donor heavy atom, donor atom, acceptor molecule, acceptor atom, score
      L1  H     5    25       P1  7957  1.00
      L1  H     8    26       P1  7957  0.93
      P1  H  7997  8008       L1    20  1.00

> <Gold.PLP.Chemscore.Internal.Correction>
0.0231

> <Gold.Rescore>
     Score         DG    S(hbond)    S(metal)    S(lipo)     H(rot)  DE(clash)    DE(int)     intcor
     16.38     -19.21       2.61        0.00      75.11       1.47       0.26       2.56       ----

> <Gold.Chemscore.Fitness>
16.3845

> <Gold.Chemscore.DG>
-19.2059

> <Gold.Chemscore.ZeroCoef>
-5.4800

> <Gold.Chemscore.Hbond>
2.6058

> <Gold.Chemscore.Metal>
0.0000

> <Gold.Chemscore.Lipo>
75.1098

> <Gold.Chemscore.Internal_Hbond>
0.0000

> <Gold.Chemscore.DEClash>
0.2632

> <Gold.Chemscore.DEInternal>
2.5583

> <Gold.Chemscore.Rot>
1.4709

> <Gold.Chemscore.Internal.Correction>
   9.000000E+99

> <Gold.Chemscore.Hbonds>
donor molecule, donor type, donor heavy atom, donor atom, acceptor molecule, acceptor atom, score
      L1  H     5    25       P1  7957  0.95
      L1  H     8    26       P1  7957  0.89
      P1  H  7997  8008       L1    20  0.58

> <Gold.Chemscore.Hbond.Weighted>
-8.7035

> <Gold.Chemscore.Metal.Weighted>
-0.0000

> <Gold.Chemscore.Lipo.Weighted>
-8.7878

> <Gold.Chemscore.Internal_Hbond.Weighted>
0.0000

> <Gold.Chemscore.DEClash.Weighted>
0.2632

> <Gold.Chemscore.DEInternal.Weighted>
2.5583

> <Gold.Chemscore.Rot.Weighted>
3.7654

> <Gold.Chemscore.Internal.Correction.Weighted>
   9.000000E+99

> <Gold.Protein.RotatedTorsions>
[ 6907 6896 6895 6894 ] final   67.04 input  -60.11 | X-H torsion
[ 7974 7965 7964 7962 ] final    9.22 input  175.53 | X-H torsion
[ 8008 7997 7996 7995 ] final  -79.95 input   59.86 | X-H torsion
[ 10167 10162 10161 10158 ] final   85.60 input  -65.29 | X-H torsion
[ 10718 10713 10712 10709 ] final  -53.46 input   66.30 | X-H torsion
[ 10763 10752 10751 10750 ] final  150.25 input  -60.55 | X-H torsion
[ 11005 11000 10999 10996 ] final  121.64 input  -57.11 | X-H torsion

> <Gold.Protein.ActiveResidues>
 VAL166  LYS551  ARG553  GLY616  TRP617  ASP618  TYR619  PRO620  LYS621  CYS622 
 ASP623  PHE694  ASN695  SER759  ASP760  ASP761  ALA762  ILE779  LEU786  VAL792 
 PHE793  MET794  SER795  GLU796  ALA797  LYS798  CYS799  TRP800  GLU811  SER814 

> <Gold.Protein.RotatedAtoms>
  152.4524  134.5366  159.9826 H   0  0  0  0  0  0  0  0  0  0  0  0  # atno 6907 bound_to 6896
  151.5435  133.3423  159.2947 H   0  0  0  0  0  0  0  0  0  0  0  0  # atno 6908 bound_to 6896
  150.8457  134.7796  159.7031 H   0  0  0  0  0  0  0  0  0  0  0  0  # atno 6909 bound_to 6896
  146.2406  139.9815  142.8435 H   0  0  0  0  0  0  0  0  0  0  0  0  # atno 7974 bound_to 7965
  154.5835  140.0670  156.9138 H   0  0  0  0  0  0  0  0  0  0  0  0  # atno 8008 bound_to 7997
  155.2420  140.3345  155.4273 H   0  0  0  0  0  0  0  0  0  0  0  0  # atno 8009 bound_to 7997
  156.2206  140.1797  156.7470 H   0  0  0  0  0  0  0  0  0  0  0  0  # atno 8010 bound_to 7997
  139.8961  144.6357  150.8687 H   0  0  0  0  0  0  0  0  0  0  0  0  # atno 10167 bound_to 10162
  156.1533  130.4151  149.9909 H   0  0  0  0  0  0  0  0  0  0  0  0  # atno 10718 bound_to 10713
  154.0844  135.2857  155.3284 H   0  0  0  0  0  0  0  0  0  0  0  0  # atno 10763 bound_to 10752
  154.6662  135.5316  153.8084 H   0  0  0  0  0  0  0  0  0  0  0  0  # atno 10764 bound_to 10752
  153.0437  135.6546  154.1017 H   0  0  0  0  0  0  0  0  0  0  0  0  # atno 10765 bound_to 10752
  139.9234  134.9639  156.7989 H   0  0  0  0  0  0  0  0  0  0  0  0  # atno 11005 bound_to 11000
  145.1587  140.9661  143.4390 LP  0  0  0  0  0  0  0  0  0  0  0  0  # atno 17320 bound_to 7965
  145.0137  139.3487  143.6107 LP  0  0  0  0  0  0  0  0  0  0  0  0  # atno 17321 bound_to 7965
  140.7717  143.3473  151.2086 LP  0  0  0  0  0  0  0  0  0  0  0  0  # atno 17342 bound_to 10162
  139.7067  143.9444  152.2929 LP  0  0  0  0  0  0  0  0  0  0  0  0  # atno 17343 bound_to 10162
  156.7761  130.9204  151.3645 LP  0  0  0  0  0  0  0  0  0  0  0  0  # atno 17370 bound_to 10713
  157.6675  130.9020  149.9964 LP  0  0  0  0  0  0  0  0  0  0  0  0  # atno 17371 bound_to 10713
  140.6406  133.9822  155.7706 LP  0  0  0  0  0  0  0  0  0  0  0  0  # atno 17394 bound_to 11000
  141.0774  134.0115  157.3438 LP  0  0  0  0  0  0  0  0  0  0  0  0  # atno 17395 bound_to 11000

$$$$
