AV-unprocessed.smi:3243|AV-procd|sdf|12396|dock5
  -GOLD-   2272018263D 1   1.00000     0.00000
 Structure written by MMmdl.
 37 38  0  0  0  0  0  0  0  0  1 V2000
  153.8331  141.1041  160.6341 C   0  0  0  0  0  0  0  0  0  0  0  0
  153.4603  142.5879  160.7646 C   0  0  0  0  0  0  0  0  0  0  0  0
  152.8556  142.9395  162.1316 C   0  0  0  0  0  0  0  0  0  0  0  0
  152.6001  143.0539  159.6321 C   0  0  0  0  0  0  0  0  0  0  0  0
  152.1097  142.2424  158.6902 N   0  0  0  0  0  0  0  0  0  0  0  0
  151.3393  142.9191  157.7398 C   0  0  0  0  0  0  0  0  0  0  0  0
  150.7209  142.1628  156.6037 C   0  0  0  0  0  0  0  0  0  0  0  0
  149.8181  141.0186  157.0940 C   0  0  0  0  0  0  0  0  0  0  0  0
  148.7385  140.7433  156.1532 N   0  0  0  0  0  0  0  0  0  0  0  0
  148.8927  140.5643  154.8324 C   0  0  0  0  0  0  0  0  0  0  0  0
  149.9802  140.6452  154.2616 O   0  0  0  0  0  0  0  0  0  0  0  0
  147.6197  140.3232  154.0937 C   0  0  2  0  0  0  0  0  0  0  0  0
  147.2481  141.2745  152.9743 C   0  0  0  0  0  0  0  0  0  0  0  0
  146.4684  141.3061  154.2658 C   0  0  2  0  0  0  0  0  0  0  0  0
  146.5224  142.5389  155.1510 C   0  0  0  0  0  0  0  0  0  0  0  0
  151.2487  144.2679  157.9783 C   0  0  0  0  0  0  0  0  0  0  0  0
  152.1307  144.7355  159.4059 S   0  0  0  0  0  0  0  0  0  0  0  0
  154.3330  140.9075  159.6852 H   0  0  0  0  0  0  0  0  0  0  0  0
  152.9492  140.4672  160.6836 H   0  0  0  0  0  0  0  0  0  0  0  0
  154.5085  140.7973  161.4332 H   0  0  0  0  0  0  0  0  0  0  0  0
  154.3943  143.1460  160.6896 H   0  0  0  0  0  0  0  0  0  0  0  0
  152.6840  144.0128  162.2198 H   0  0  0  0  0  0  0  0  0  0  0  0
  153.5208  142.6437  162.9433 H   0  0  0  0  0  0  0  0  0  0  0  0
  151.9006  142.4357  162.2847 H   0  0  0  0  0  0  0  0  0  0  0  0
  150.1440  142.8459  155.9788 H   0  0  0  0  0  0  0  0  0  0  0  0
  151.5021  141.7576  155.9590 H   0  0  0  0  0  0  0  0  0  0  0  0
  150.4054  140.1070  157.2080 H   0  0  0  0  0  0  0  0  0  0  0  0
  149.4071  141.2481  158.0787 H   0  0  0  0  0  0  0  0  0  0  0  0
  147.8054  140.6813  156.5340 H   0  0  0  0  0  0  0  0  0  0  0  0
  147.3310  139.2787  153.9949 H   0  0  0  0  0  0  0  0  0  0  0  0
  147.9133  142.1113  152.7670 H   0  0  0  0  0  0  0  0  0  0  0  0
  146.7676  140.8433  152.0986 H   0  0  0  0  0  0  0  0  0  0  0  0
  145.4807  140.8491  154.2467 H   0  0  0  0  0  0  0  0  0  0  0  0
  147.4832  143.0477  155.0659 H   0  0  0  0  0  0  0  0  0  0  0  0
  146.3662  142.2588  156.1928 H   0  0  0  0  0  0  0  0  0  0  0  0
  145.7391  143.2391  154.8604 H   0  0  0  0  0  0  0  0  0  0  0  0
  150.7207  145.0127  157.4016 H   0  0  0  0  0  0  0  0  0  0  0  0
  1  2  1  0  0  0  0
  1 18  1  0  0  0  0
  1 19  1  0  0  0  0
  1 20  1  0  0  0  0
  2  3  1  0  0  0  0
  2  4  1  0  0  0  0
  2 21  1  0  0  0  0
  3 22  1  0  0  0  0
  3 23  1  0  0  0  0
  3 24  1  0  0  0  0
  4 17  1  0  0  0  0
  4  5  2  0  0  0  0
  5  6  1  0  0  0  0
  6  7  1  0  0  0  0
  6 16  2  0  0  0  0
  7  8  1  0  0  0  0
  7 25  1  0  0  0  0
  7 26  1  0  0  0  0
  8  9  1  0  0  0  0
  8 27  1  0  0  0  0
  8 28  1  0  0  0  0
  9 10  1  0  0  0  0
  9 29  1  0  0  0  0
 10 11  2  0  0  0  0
 10 12  1  0  0  0  0
 12 14  1  0  0  0  0
 12 13  1  0  0  0  0
 12 30  1  0  0  0  0
 13 14  1  0  0  0  0
 13 31  1  0  0  0  0
 13 32  1  0  0  0  0
 14 15  1  0  0  0  0
 14 33  1  0  0  0  0
 15 34  1  0  0  0  0
 15 35  1  0  0  0  0
 15 36  1  0  0  0  0
 16 17  1  0  0  0  0
 16 37  1  0  0  0  0
M  END
> <s_m_source_file>
AV-unprocessed.smi

> <i_m_source_file_index>
3243

> <i_lp_mmshare_version>
43012

> <i_f3d_flags>
0

> <s_epik_input>
W0NIM11bQ0hdKFtDSDNdKWMxbmMoW2NIXXMxKVtDSDJdW0NIMl1bTkhdQyg9TylbQ0BASF0yW0NIMl1bQ0BIXTJbQ0gzXQ==

> <s_epik_cmdline>
J2VwaWtfcHl0aG9uJywgJy1waCcsICc3LjAnLCAnLXRuJywgJzgnLCAnLW1hJywgJzIwMCcsICctbWV0YWxfYmluZGluZycsICctaW1hZScsICc8aW5maWxlLm1hZT4nLCAnLW9tYWUnLCAnPG91dGZpbGUubWFlPic=

> <r_epik_Ionization_Penalty>
0.00084212

> <r_epik_Ionization_Penalty_Charging>
0

> <r_epik_Ionization_Penalty_Neutral>
0.00084212

> <r_epik_State_Penalty>
0.000542609

> <r_epik_Charging_Adjusted_Penalty>
0.000542609

> <i_epik_Tot_Q>
0

> <i_epik_Tot_abs_Q>
0

> <r_epik_Metal_State_Penalty>
-0

> <b_epik_Metal_Only>
0

> <s_lp_Force_Field>
OPLS_2005

> <r_lp_Energy>
-0.500157

> <b_lp_Chiralities_Consistent>
1

> <s_lp_Variant>
AV-unprocessed.smi:3243-3

> <Gold.Version>
5.8.1

> <Gold.Id.Protein>
6NUR|6NUR_protein|mol2

> <Gold.PLP.Fitness>
45.6587

> <Gold.PLP.PLP>
-40.6206

> <Gold.PLP.part.hbond>
-1.0000

> <Gold.PLP.part.metal>
0.0000

> <Gold.PLP.part.buried>
-4.5104

> <Gold.PLP.part.nonpolar>
-35.7504

> <Gold.PLP.part.repulsive>
0.1304

> <Gold.PLP.ligand.clash>
0.0000

> <Gold.PLP.ligand.torsion>
0.3362

> <Gold.PLP.Chemscore.Hbond>
0.8480

> <Gold.PLP.Chemscore.CHOScore>
1.0000

> <Gold.PLP.Chemscore.Metal>
0.0000

> <Gold.Chemscore.Hbonds>
donor molecule, donor type, donor heavy atom, donor atom, acceptor molecule, acceptor atom, score
      P1  H  7989  7998       L1    11  0.74
      L1  C    16    37       P1  8028  1.00

> <Gold.PLP.Chemscore.Internal.Correction>
0.1665

> <Gold.Rescore>
     Score         DG    S(hbond)    S(metal)    S(lipo)     H(rot)  DE(clash)    DE(int)     intcor
     15.81     -18.48       0.91        0.00     117.82       1.49       0.18       2.49       ----

> <Gold.Chemscore.Fitness>
15.8138

> <Gold.Chemscore.DG>
-18.4843

> <Gold.Chemscore.ZeroCoef>
-5.4800

> <Gold.Chemscore.Hbond>
0.9061

> <Gold.Chemscore.Metal>
0.0000

> <Gold.Chemscore.Lipo>
117.8157

> <Gold.Chemscore.Internal_Hbond>
0.0000

> <Gold.Chemscore.DEClash>
0.1779

> <Gold.Chemscore.DEInternal>
2.4926

> <Gold.Chemscore.Rot>
1.4870

> <Gold.Chemscore.Internal.Correction>
   9.000000E+99

> <Gold.Chemscore.Hbonds>
donor molecule, donor type, donor heavy atom, donor atom, acceptor molecule, acceptor atom, score
      P1  H  7989  7998       L1    11  0.74

> <Gold.Chemscore.Hbond.Weighted>
-3.0265

> <Gold.Chemscore.Metal.Weighted>
-0.0000

> <Gold.Chemscore.Lipo.Weighted>
-13.7844

> <Gold.Chemscore.Internal_Hbond.Weighted>
0.0000

> <Gold.Chemscore.DEClash.Weighted>
0.1779

> <Gold.Chemscore.DEInternal.Weighted>
2.4926

> <Gold.Chemscore.Rot.Weighted>
3.8067

> <Gold.Chemscore.Internal.Correction.Weighted>
   9.000000E+99

> <Gold.Protein.RotatedTorsions>
[ 6907 6896 6895 6894 ] final   30.97 input  -60.11 | X-H torsion
[ 7974 7965 7964 7962 ] final -118.41 input  175.53 | X-H torsion
[ 8008 7997 7996 7995 ] final  153.29 input   59.86 | X-H torsion
[ 10167 10162 10161 10158 ] final -108.26 input  -65.29 | X-H torsion
[ 10718 10713 10712 10709 ] final -155.91 input   66.30 | X-H torsion
[ 10763 10752 10751 10750 ] final -134.81 input  -60.55 | X-H torsion
[ 11005 11000 10999 10996 ] final  179.52 input  -57.11 | X-H torsion

> <Gold.Protein.ActiveResidues>
 VAL166  LYS551  ARG553  GLY616  TRP617  ASP618  TYR619  PRO620  LYS621  CYS622 
 ASP623  PHE694  ASN695  SER759  ASP760  ASP761  ALA762  ILE779  LEU786  VAL792 
 PHE793  MET794  SER795  GLU796  ALA797  LYS798  CYS799  TRP800  GLU811  SER814 

> <Gold.Protein.RotatedAtoms>
  152.0537  134.9638  160.0574 H   0  0  0  0  0  0  0  0  0  0  0  0  # atno 6907 bound_to 6896
  152.1029  133.4254  159.4603 H   0  0  0  0  0  0  0  0  0  0  0  0  # atno 6908 bound_to 6896
  150.6840  134.2658  159.4611 H   0  0  0  0  0  0  0  0  0  0  0  0  # atno 6909 bound_to 6896
  145.0741  140.8380  143.4078 H   0  0  0  0  0  0  0  0  0  0  0  0  # atno 7974 bound_to 7965
  156.2588  140.1997  156.6468 H   0  0  0  0  0  0  0  0  0  0  0  0  # atno 8008 bound_to 7997
  154.6567  140.0565  157.0042 H   0  0  0  0  0  0  0  0  0  0  0  0  # atno 8009 bound_to 7997
  155.1336  140.3236  155.4471 H   0  0  0  0  0  0  0  0  0  0  0  0  # atno 8010 bound_to 7997
  140.1680  143.4066  152.1376 H   0  0  0  0  0  0  0  0  0  0  0  0  # atno 10167 bound_to 10162
  156.5193  130.8470  151.2676 H   0  0  0  0  0  0  0  0  0  0  0  0  # atno 10718 bound_to 10713
  154.8713  135.3723  154.4796 H   0  0  0  0  0  0  0  0  0  0  0  0  # atno 10763 bound_to 10752
  153.5451  135.7026  153.5623 H   0  0  0  0  0  0  0  0  0  0  0  0  # atno 10764 bound_to 10752
  153.3767  135.4007  155.1792 H   0  0  0  0  0  0  0  0  0  0  0  0  # atno 10765 bound_to 10752
  140.4071  134.6725  157.4594 H   0  0  0  0  0  0  0  0  0  0  0  0  # atno 11005 bound_to 11000
  145.1256  139.2665  143.5566 LP  0  0  0  0  0  0  0  0  0  0  0  0  # atno 17320 bound_to 7965
  146.3529  140.0893  142.8613 LP  0  0  0  0  0  0  0  0  0  0  0  0  # atno 17321 bound_to 7965
  139.5350  144.7200  151.4923 LP  0  0  0  0  0  0  0  0  0  0  0  0  # atno 17342 bound_to 10162
  140.6600  143.8518  150.6877 LP  0  0  0  0  0  0  0  0  0  0  0  0  # atno 17343 bound_to 10162
  157.7439  130.9923  150.2631 LP  0  0  0  0  0  0  0  0  0  0  0  0  # atno 17370 bound_to 10713
  156.3165  130.3779  149.7614 LP  0  0  0  0  0  0  0  0  0  0  0  0  # atno 17371 bound_to 10713
  140.0294  134.6429  155.9127 LP  0  0  0  0  0  0  0  0  0  0  0  0  # atno 17394 bound_to 11000
  141.1835  133.6551  156.5119 LP  0  0  0  0  0  0  0  0  0  0  0  0  # atno 17395 bound_to 11000

$$$$
