AV-unprocessed.smi:55|AV-procd|sdf|574|dock1
  -GOLD-   2262016473D 1   1.00000     0.00000
 Structure written by MMmdl.
 30 31  0  0  0  0  0  0  0  0  2 V2000
  152.1649  144.7250  158.1662 C   0  0  0  0  0  0  0  0  0  0  0  0
  151.8859  143.2389  158.3066 C   0  0  0  0  0  0  0  0  0  0  0  0
  151.0323  142.5846  157.4877 C   0  0  0  0  0  0  0  0  0  0  0  0
  150.7805  141.2307  157.6222 N   0  0  0  0  0  0  0  0  0  0  0  0
  149.8030  140.5343  156.7065 C   0  0  1  0  0  0  0  0  0  0  0  0
  149.2599  141.4927  155.6544 C   0  0  0  0  0  0  0  0  0  0  0  0
  148.9776  140.5567  154.4851 C   0  0  1  0  0  0  0  0  0  0  0  0
  149.4334  141.1387  153.2775 O   0  0  0  0  0  0  0  0  0  0  0  0
  149.6725  139.2238  154.8592 C   0  0  1  0  0  0  0  0  0  0  0  0
  150.5608  138.5894  153.7724 C   0  0  0  0  0  0  0  0  0  0  0  0
  150.8279  137.2396  154.0890 O   0  0  0  0  0  0  0  0  0  0  0  0
  150.4648  139.5409  155.9974 O   0  0  0  0  0  0  0  0  0  0  0  0
  151.4031  140.4996  158.6665 C   0  0  0  0  0  0  0  0  0  0  0  0
  151.1235  139.3066  158.7868 O   0  0  0  0  0  0  0  0  0  0  0  0
  152.2731  141.1491  159.4918 N   0  5  0  0  0  0  0  0  0  0  0  0
  152.5552  142.4783  159.3692 C   0  0  0  0  0  0  0  0  0  0  0  0
  153.3449  143.0511  160.1198 O   0  0  0  0  0  0  0  0  0  0  0  0
  149.0331  140.0743  157.3289 H   0  0  0  0  0  0  0  0  0  0  0  0
  147.9039  140.3888  154.3922 H   0  0  0  0  0  0  0  0  0  0  0  0
  148.8997  138.5174  155.1689 H   0  0  0  0  0  0  0  0  0  0  0  0
  151.5984  145.1591  157.3420 H   0  0  0  0  0  0  0  0  0  0  0  0
  153.2244  144.8975  157.9758 H   0  0  0  0  0  0  0  0  0  0  0  0
  151.8882  145.2515  159.0802 H   0  0  0  0  0  0  0  0  0  0  0  0
  150.5287  143.1409  156.7110 H   0  0  0  0  0  0  0  0  0  0  0  0
  148.3802  142.0207  156.0233 H   0  0  0  0  0  0  0  0  0  0  0  0
  150.0329  142.2209  155.4014 H   0  0  0  0  0  0  0  0  0  0  0  0
  149.5137  140.4581  152.6271 H   0  0  0  0  0  0  0  0  0  0  0  0
  150.0490  138.5902  152.8098 H   0  0  0  0  0  0  0  0  0  0  0  0
  151.4923  139.1433  153.6502 H   0  0  0  0  0  0  0  0  0  0  0  0
  151.2040  136.8217  153.3294 H   0  0  0  0  0  0  0  0  0  0  0  0
  1  2  1  0  0  0  0
  1 21  1  0  0  0  0
  1 22  1  0  0  0  0
  1 23  1  0  0  0  0
  2 16  1  0  0  0  0
  2  3  2  0  0  0  0
  3  4  1  0  0  0  0
  3 24  1  0  0  0  0
  4  5  1  0  0  0  0
  4 13  1  0  0  0  0
  5 18  1  0  0  0  0
  5 12  1  0  0  0  0
  5  6  1  0  0  0  0
  6  7  1  0  0  0  0
  6 25  1  0  0  0  0
  6 26  1  0  0  0  0
  7 19  1  0  0  0  0
  7  8  1  0  0  0  0
  7  9  1  0  0  0  0
  8 27  1  0  0  0  0
  9 20  1  0  0  0  0
  9 10  1  0  0  0  0
  9 12  1  0  0  0  0
 10 11  1  0  0  0  0
 10 28  1  0  0  0  0
 10 29  1  0  0  0  0
 11 30  1  0  0  0  0
 13 14  2  0  0  0  0
 13 15  1  0  0  0  0
 15 16  1  0  0  0  0
 16 17  2  0  0  0  0
M  CHG  1  15  -1
M  END
> <s_m_source_file>
AV-unprocessed.smi

> <i_m_source_file_index>
55

> <i_lp_mmshare_version>
43012

> <i_f3d_flags>
0

> <s_epik_input>
Tz1jMVtuSF1jKD1PKW4oW2NIXWMxW0NIM10pW0NAQEhdMltDSDJdW0NAQEhdKFtPSF0pW0NAQEhdKE8yKVtDSDJdW09IXQ==

> <s_epik_cmdline>
J2VwaWtfcHl0aG9uJywgJy1waCcsICc3LjAnLCAnLXRuJywgJzgnLCAnLW1hJywgJzIwMCcsICctbWV0YWxfYmluZGluZycsICctaW1hZScsICc8aW5maWxlLm1hZT4nLCAnLW9tYWUnLCAnPG91dGZpbGUubWFlPic=

> <r_lp_tautomer_probability>
0.999537

> <r_epik_Ionization_Penalty>
3.66603

> <r_epik_Ionization_Penalty_Charging>
1.09773e-07

> <r_epik_Ionization_Penalty_Neutral>
3.66603

> <r_epik_State_Penalty>
3.66562

> <r_epik_Charging_Adjusted_Penalty>
3.66562

> <i_epik_Tot_Q>
-1

> <i_epik_Tot_abs_Q>
1

> <r_epik_Metal_State_Penalty>
0.234536

> <b_epik_Metal_Only>
1

> <s_epik_Chemistry_Notes>
This compound contains an acetal/aminal-like group ( X-CH(R)-Y where X, Y are N, S, or O) that may be acid/base labile, releasing an aldehyde.

> <s_lp_Force_Field>
OPLS_2005

> <r_lp_Energy>
40.7451

> <b_lp_Chiralities_Consistent>
1

> <s_lp_Variant>
AV-unprocessed.smi:55-14

> <Gold.Version>
5.8.1

> <Gold.Id.Protein>
6NUR|6NUR_protein|mol2

> <Gold.PLP.Fitness>
45.2694

> <Gold.PLP.PLP>
-33.7160

> <Gold.PLP.part.hbond>
-4.4548

> <Gold.PLP.part.metal>
0.0000

> <Gold.PLP.part.buried>
-4.7418

> <Gold.PLP.part.nonpolar>
-24.4086

> <Gold.PLP.part.repulsive>
0.0000

> <Gold.PLP.ligand.clash>
0.0000

> <Gold.PLP.ligand.torsion>
0.1494

> <Gold.PLP.Chemscore.Hbond>
2.9426

> <Gold.PLP.Chemscore.CHOScore>
1.0000

> <Gold.PLP.Chemscore.Metal>
0.0000

> <Gold.Chemscore.Hbonds>
donor molecule, donor type, donor heavy atom, donor atom, acceptor molecule, acceptor atom, score
      L1  H     8    27       P1  7957  0.97
      L1  H    11    30       P1  7949  1.00
      P1  H  7989  7998       L1     8  0.02
      P1  H  8011  8017       L1     8  0.90
      L1  C     3    24       P1  8028  1.00

> <Gold.PLP.Chemscore.Internal.Correction>
0.0242

> <Gold.Rescore>
     Score         DG    S(hbond)    S(metal)    S(lipo)     H(rot)  DE(clash)    DE(int)     intcor
     10.50     -12.11       1.73        0.00      66.08       2.69       0.21       1.39       ----

> <Gold.Chemscore.Fitness>
10.5041

> <Gold.Chemscore.DG>
-12.1050

> <Gold.Chemscore.ZeroCoef>
-5.4800

> <Gold.Chemscore.Hbond>
1.7282

> <Gold.Chemscore.Metal>
0.0000

> <Gold.Chemscore.Lipo>
66.0833

> <Gold.Chemscore.Internal_Hbond>
0.0000

> <Gold.Chemscore.DEClash>
0.2122

> <Gold.Chemscore.DEInternal>
1.3887

> <Gold.Chemscore.Rot>
2.6871

> <Gold.Chemscore.Internal.Correction>
   9.000000E+99

> <Gold.Chemscore.Hbonds>
donor molecule, donor type, donor heavy atom, donor atom, acceptor molecule, acceptor atom, score
      L1  H     8    27       P1  7957  0.86
      L1  H    11    30       P1  7949  0.51
      P1  H  8011  8017       L1     8  0.18

> <Gold.Chemscore.Hbond.Weighted>
-5.7723

> <Gold.Chemscore.Metal.Weighted>
-0.0000

> <Gold.Chemscore.Lipo.Weighted>
-7.7317

> <Gold.Chemscore.Internal_Hbond.Weighted>
0.0000

> <Gold.Chemscore.DEClash.Weighted>
0.2122

> <Gold.Chemscore.DEInternal.Weighted>
1.3887

> <Gold.Chemscore.Rot.Weighted>
6.8791

> <Gold.Chemscore.Internal.Correction.Weighted>
   9.000000E+99

> <Gold.Protein.RotatedTorsions>
[ 6907 6896 6895 6894 ] final  -97.20 input  -60.11 | X-H torsion
[ 7974 7965 7964 7962 ] final -150.17 input  175.53 | X-H torsion
[ 8008 7997 7996 7995 ] final -166.04 input   59.86 | X-H torsion
[ 10167 10162 10161 10158 ] final  157.88 input  -65.29 | X-H torsion
[ 10718 10713 10712 10709 ] final   47.40 input   66.30 | X-H torsion
[ 10763 10752 10751 10750 ] final  130.35 input  -60.55 | X-H torsion
[ 11005 11000 10999 10996 ] final   34.46 input  -57.11 | X-H torsion

> <Gold.Protein.ActiveResidues>
 VAL166  LYS551  ARG553  GLY616  TRP617  ASP618  TYR619  PRO620  LYS621  CYS622 
 ASP623  PHE694  ASN695  SER759  ASP760  ASP761  ALA762  ILE779  LEU786  VAL792 
 PHE793  MET794  SER795  GLU796  ALA797  LYS798  CYS799  TRP800  GLU811  SER814 

> <Gold.Protein.RotatedAtoms>
  150.7009  134.1386  159.4096 H   0  0  0  0  0  0  0  0  0  0  0  0  # atno 6907 bound_to 6896
  151.9370  135.0228  160.0542 H   0  0  0  0  0  0  0  0  0  0  0  0  # atno 6908 bound_to 6896
  152.2126  133.4887  159.5155 H   0  0  0  0  0  0  0  0  0  0  0  0  # atno 6909 bound_to 6896
  144.7923  140.4967  143.5764 H   0  0  0  0  0  0  0  0  0  0  0  0  # atno 7974 bound_to 7965
  155.8583  140.0974  157.1630 H   0  0  0  0  0  0  0  0  0  0  0  0  # atno 8008 bound_to 7997
  154.3989  140.1370  156.3991 H   0  0  0  0  0  0  0  0  0  0  0  0  # atno 8009 bound_to 7997
  155.7885  140.3456  155.5339 H   0  0  0  0  0  0  0  0  0  0  0  0  # atno 8010 bound_to 7997
  139.4824  144.4877  151.8354 H   0  0  0  0  0  0  0  0  0  0  0  0  # atno 10167 bound_to 10162
  157.4581  130.8179  149.7858 H   0  0  0  0  0  0  0  0  0  0  0  0  # atno 10718 bound_to 10713
  153.7566  135.3202  155.3330 H   0  0  0  0  0  0  0  0  0  0  0  0  # atno 10763 bound_to 10752
  154.8245  135.4580  154.0879 H   0  0  0  0  0  0  0  0  0  0  0  0  # atno 10764 bound_to 10752
  153.2097  135.6934  153.8212 H   0  0  0  0  0  0  0  0  0  0  0  0  # atno 10765 bound_to 10752
  140.2526  134.3285  155.7885 H   0  0  0  0  0  0  0  0  0  0  0  0  # atno 11005 bound_to 11000
  145.5762  139.1486  143.3261 LP  0  0  0  0  0  0  0  0  0  0  0  0  # atno 17320 bound_to 7965
  146.2179  140.5894  142.9030 LP  0  0  0  0  0  0  0  0  0  0  0  0  # atno 17321 bound_to 7965
  140.4358  144.2054  150.5889 LP  0  0  0  0  0  0  0  0  0  0  0  0  # atno 17342 bound_to 10162
  140.4733  143.2405  151.9058 LP  0  0  0  0  0  0  0  0  0  0  0  0  # atno 17343 bound_to 10162
  156.0016  130.3877  150.2584 LP  0  0  0  0  0  0  0  0  0  0  0  0  # atno 17370 bound_to 10713
  157.0759  131.0130  151.3173 LP  0  0  0  0  0  0  0  0  0  0  0  0  # atno 17371 bound_to 10713
  141.2199  133.7362  156.9061 LP  0  0  0  0  0  0  0  0  0  0  0  0  # atno 17394 bound_to 11000
  140.1543  134.9209  157.2633 LP  0  0  0  0  0  0  0  0  0  0  0  0  # atno 17395 bound_to 11000

$$$$
