AV-unprocessed.smi:3152|AV-procd|sdf|12018|dock7
  -GOLD-   2272017433D 1   1.00000     0.00000
 Structure written by MMmdl.
 40 41  0  0  0  0  0  0  0  0  1 V2000
  152.7356  143.4426  162.1955 C   0  0  0  0  0  0  0  0  0  0  0  0
  152.2328  143.7547  160.8152 C   0  0  0  0  0  0  0  0  0  0  0  0
  151.6643  144.9734  160.3468 C   0  0  0  0  0  0  0  0  0  0  0  0
  151.3237  144.9250  159.0692 N   0  0  0  0  0  0  0  0  0  0  0  0
  151.6605  143.6778  158.6779 N   0  0  0  0  0  0  0  0  0  0  0  0
  151.4291  143.2658  157.3072 C   0  0  0  0  0  0  0  0  0  0  0  0
  150.7491  141.8919  157.2390 C   0  0  0  0  0  0  0  0  0  0  0  0
  150.4151  141.5432  155.8629 N   0  0  0  0  0  0  0  0  0  0  0  0
  148.9884  141.6555  155.5651 C   0  0  0  0  0  0  0  0  0  0  0  0
  148.5672  140.8067  154.3393 C   0  0  0  0  0  0  0  0  0  0  0  0
  149.5107  141.0668  153.3165 O   0  0  0  0  0  0  0  0  0  0  0  0
  148.6703  139.2941  154.6479 C   0  0  0  0  0  0  0  0  0  0  0  0
  147.5593  138.8032  155.5949 C   0  0  0  0  0  0  0  0  0  0  0  0
  146.1648  139.1588  155.0566 C   0  0  0  0  0  0  0  0  0  0  0  0
  146.0447  140.6623  154.7629 C   0  0  0  0  0  0  0  0  0  0  0  0
  147.1509  141.1286  153.8012 C   0  0  0  0  0  0  0  0  0  0  0  0
  152.2125  142.9505  159.7107 C   0  0  0  0  0  0  0  0  0  0  0  0
  152.2427  144.0521  162.9532 H   0  0  0  0  0  0  0  0  0  0  0  0
  153.8067  143.6255  162.2824 H   0  0  0  0  0  0  0  0  0  0  0  0
  152.5637  142.3998  162.4624 H   0  0  0  0  0  0  0  0  0  0  0  0
  151.4914  145.8877  160.8949 H   0  0  0  0  0  0  0  0  0  0  0  0
  150.8119  144.0206  156.8182 H   0  0  0  0  0  0  0  0  0  0  0  0
  152.3849  143.2486  156.7811 H   0  0  0  0  0  0  0  0  0  0  0  0
  151.4128  141.1365  157.6619 H   0  0  0  0  0  0  0  0  0  0  0  0
  149.8471  141.8969  157.8521 H   0  0  0  0  0  0  0  0  0  0  0  0
  150.7256  140.5972  155.6639 H   0  0  0  0  0  0  0  0  0  0  0  0
  148.4041  141.3485  156.4335 H   0  0  0  0  0  0  0  0  0  0  0  0
  148.7452  142.7039  155.3944 H   0  0  0  0  0  0  0  0  0  0  0  0
  149.4008  140.4205  152.6360 H   0  0  0  0  0  0  0  0  0  0  0  0
  148.6018  138.7270  153.7179 H   0  0  0  0  0  0  0  0  0  0  0  0
  149.6474  139.0589  155.0721 H   0  0  0  0  0  0  0  0  0  0  0  0
  147.6388  137.7237  155.7251 H   0  0  0  0  0  0  0  0  0  0  0  0
  147.6919  139.2373  156.5860 H   0  0  0  0  0  0  0  0  0  0  0  0
  145.9729  138.5937  154.1435 H   0  0  0  0  0  0  0  0  0  0  0  0
  145.4004  138.8564  155.7730 H   0  0  0  0  0  0  0  0  0  0  0  0
  145.0666  140.8763  154.3313 H   0  0  0  0  0  0  0  0  0  0  0  0
  146.0991  141.2273  155.6941 H   0  0  0  0  0  0  0  0  0  0  0  0
  147.0395  142.1933  153.5943 H   0  0  0  0  0  0  0  0  0  0  0  0
  147.0065  140.6273  152.8428 H   0  0  0  0  0  0  0  0  0  0  0  0
  152.5435  141.9312  159.5749 H   0  0  0  0  0  0  0  0  0  0  0  0
  1  2  1  0  0  0  0
  1 18  1  0  0  0  0
  1 19  1  0  0  0  0
  1 20  1  0  0  0  0
  2 17  2  0  0  0  0
  2  3  1  0  0  0  0
  3  4  2  0  0  0  0
  3 21  1  0  0  0  0
  4  5  1  0  0  0  0
  5  6  1  0  0  0  0
  5 17  1  0  0  0  0
  6  7  1  0  0  0  0
  6 22  1  0  0  0  0
  6 23  1  0  0  0  0
  7  8  1  0  0  0  0
  7 24  1  0  0  0  0
  7 25  1  0  0  0  0
  8  9  1  0  0  0  0
  8 26  1  0  0  0  0
  9 10  1  0  0  0  0
  9 27  1  0  0  0  0
  9 28  1  0  0  0  0
 10 16  1  0  0  0  0
 10 11  1  0  0  0  0
 10 12  1  0  0  0  0
 11 29  1  0  0  0  0
 12 13  1  0  0  0  0
 12 30  1  0  0  0  0
 12 31  1  0  0  0  0
 13 14  1  0  0  0  0
 13 32  1  0  0  0  0
 13 33  1  0  0  0  0
 14 15  1  0  0  0  0
 14 34  1  0  0  0  0
 14 35  1  0  0  0  0
 15 16  1  0  0  0  0
 15 36  1  0  0  0  0
 15 37  1  0  0  0  0
 16 38  1  0  0  0  0
 16 39  1  0  0  0  0
 17 40  1  0  0  0  0
M  END
> <s_m_source_file>
AV-unprocessed.smi

> <i_m_source_file_index>
3152

> <i_lp_mmshare_version>
43012

> <i_f3d_flags>
0

> <s_epik_input>
W0NIM11jMVtjSF1ubihbY0hdMSlbQ0gyXVtDSDJdW05IXVtDSDJdQzIoW09IXSlbQ0gyXVtDSDJdW0NIMl1bQ0gyXVtDSDJdMg==

> <s_epik_cmdline>
J2VwaWtfcHl0aG9uJywgJy1waCcsICc3LjAnLCAnLXRuJywgJzgnLCAnLW1hJywgJzIwMCcsICctbWV0YWxfYmluZGluZycsICctaW1hZScsICc8aW5maWxlLm1hZT4nLCAnLW9tYWUnLCAnPG91dGZpbGUubWFlPic=

> <r_lp_tautomer_probability>
1

> <r_epik_Ionization_Penalty>
1.91403

> <r_epik_Ionization_Penalty_Charging>
0

> <r_epik_Ionization_Penalty_Neutral>
1.91403

> <r_epik_State_Penalty>
2.0334

> <r_epik_Charging_Adjusted_Penalty>
2.0334

> <i_epik_Tot_Q>
0

> <i_epik_Tot_abs_Q>
0

> <r_epik_Metal_State_Penalty>
2.03082

> <b_epik_Metal_Only>
0

> <s_lp_Force_Field>
OPLS_2005

> <r_lp_Energy>
20.9393

> <b_lp_Chiralities_Consistent>
1

> <s_lp_Variant>
AV-unprocessed.smi:3152-2

> <Gold.Version>
5.8.1

> <Gold.Id.Protein>
6NUR|6NUR_protein|mol2

> <Gold.PLP.Fitness>
41.0604

> <Gold.PLP.PLP>
-36.4606

> <Gold.PLP.part.hbond>
-2.5035

> <Gold.PLP.part.metal>
0.0000

> <Gold.PLP.part.buried>
-4.9265

> <Gold.PLP.part.nonpolar>
-29.8090

> <Gold.PLP.part.repulsive>
0.1096

> <Gold.PLP.ligand.clash>
0.0000

> <Gold.PLP.ligand.torsion>
0.6746

> <Gold.PLP.Chemscore.Hbond>
1.9749

> <Gold.PLP.Chemscore.CHOScore>
0.0000

> <Gold.PLP.Chemscore.Metal>
0.0000

> <Gold.Chemscore.Hbonds>
donor molecule, donor type, donor heavy atom, donor atom, acceptor molecule, acceptor atom, score
      L1  H    11    29       P1  7957  0.94
      P1  H  7989  7998       L1    11  0.12
      P1  H  8011  8017       L1    11  0.90

> <Gold.PLP.Chemscore.Internal.Correction>
0.0241

> <Gold.Rescore>
     Score         DG    S(hbond)    S(metal)    S(lipo)     H(rot)  DE(clash)    DE(int)     intcor
     15.31     -16.27       1.41        0.00      97.60       2.09       0.26       0.69       ----

> <Gold.Chemscore.Fitness>
15.3121

> <Gold.Chemscore.DG>
-16.2697

> <Gold.Chemscore.ZeroCoef>
-5.4800

> <Gold.Chemscore.Hbond>
1.4121

> <Gold.Chemscore.Metal>
0.0000

> <Gold.Chemscore.Lipo>
97.6017

> <Gold.Chemscore.Internal_Hbond>
0.0000

> <Gold.Chemscore.DEClash>
0.2639

> <Gold.Chemscore.DEInternal>
0.6937

> <Gold.Chemscore.Rot>
2.0883

> <Gold.Chemscore.Internal.Correction>
   9.000000E+99

> <Gold.Chemscore.Hbonds>
donor molecule, donor type, donor heavy atom, donor atom, acceptor molecule, acceptor atom, score
      L1  H    11    29       P1  7957  0.85
      P1  H  7989  7998       L1    11  0.02
      P1  H  8011  8017       L1    11  0.18

> <Gold.Chemscore.Hbond.Weighted>
-4.7164

> <Gold.Chemscore.Metal.Weighted>
-0.0000

> <Gold.Chemscore.Lipo.Weighted>
-11.4194

> <Gold.Chemscore.Internal_Hbond.Weighted>
0.0000

> <Gold.Chemscore.DEClash.Weighted>
0.2639

> <Gold.Chemscore.DEInternal.Weighted>
0.6937

> <Gold.Chemscore.Rot.Weighted>
5.3461

> <Gold.Chemscore.Internal.Correction.Weighted>
   9.000000E+99

> <Gold.Protein.RotatedTorsions>
[ 6907 6896 6895 6894 ] final  -88.52 input  -60.11 | X-H torsion
[ 7974 7965 7964 7962 ] final  122.15 input  175.53 | X-H torsion
[ 8008 7997 7996 7995 ] final -174.91 input   59.86 | X-H torsion
[ 10167 10162 10161 10158 ] final  -68.44 input  -65.29 | X-H torsion
[ 10718 10713 10712 10709 ] final  -85.16 input   66.30 | X-H torsion
[ 10763 10752 10751 10750 ] final  -14.78 input  -60.55 | X-H torsion
[ 11005 11000 10999 10996 ] final -113.50 input  -57.11 | X-H torsion

> <Gold.Protein.ActiveResidues>
 VAL166  LYS551  ARG553  GLY616  TRP617  ASP618  TYR619  PRO620  LYS621  CYS622 
 ASP623  PHE694  ASN695  SER759  ASP760  ASP761  ALA762  ILE779  LEU786  VAL792 
 PHE793  MET794  SER795  GLU796  ALA797  LYS798  CYS799  TRP800  GLU811  SER814 

> <Gold.Protein.RotatedAtoms>
  150.6869  134.2728  159.4594 H   0  0  0  0  0  0  0  0  0  0  0  0  # atno 6907 bound_to 6896
  152.0649  134.9568  160.0584 H   0  0  0  0  0  0  0  0  0  0  0  0  # atno 6908 bound_to 6896
  152.0981  133.4200  159.4611 H   0  0  0  0  0  0  0  0  0  0  0  0  # atno 6909 bound_to 6896
  145.1110  139.3453  143.4763 H   0  0  0  0  0  0  0  0  0  0  0  0  # atno 7974 bound_to 7965
  155.9760  140.1172  157.0770 H   0  0  0  0  0  0  0  0  0  0  0  0  # atno 8008 bound_to 7997
  154.4169  140.1154  156.5438 H   0  0  0  0  0  0  0  0  0  0  0  0  # atno 8009 bound_to 7997
  155.6534  140.3473  155.4758 H   0  0  0  0  0  0  0  0  0  0  0  0  # atno 8010 bound_to 7997
  140.5507  143.2312  151.6916 H   0  0  0  0  0  0  0  0  0  0  0  0  # atno 10167 bound_to 10162
  155.9999  130.4721  150.4519 H   0  0  0  0  0  0  0  0  0  0  0  0  # atno 10718 bound_to 10713
  153.5335  135.7014  153.5672 H   0  0  0  0  0  0  0  0  0  0  0  0  # atno 10763 bound_to 10752
  153.3669  135.3955  155.1759 H   0  0  0  0  0  0  0  0  0  0  0  0  # atno 10764 bound_to 10752
  154.8682  135.3802  154.4833 H   0  0  0  0  0  0  0  0  0  0  0  0  # atno 10765 bound_to 10752
  141.0610  133.9535  157.2666 H   0  0  0  0  0  0  0  0  0  0  0  0  # atno 11005 bound_to 11000
  146.3526  140.1028  142.8607 LP  0  0  0  0  0  0  0  0  0  0  0  0  # atno 17320 bound_to 7965
  145.0847  140.9245  143.4804 LP  0  0  0  0  0  0  0  0  0  0  0  0  # atno 17321 bound_to 7965
  139.5026  144.3822  152.0365 LP  0  0  0  0  0  0  0  0  0  0  0  0  # atno 17342 bound_to 10162
  140.2939  144.3723  150.6080 LP  0  0  0  0  0  0  0  0  0  0  0  0  # atno 17343 bound_to 10162
  157.2551  131.0555  151.2355 LP  0  0  0  0  0  0  0  0  0  0  0  0  # atno 17370 bound_to 10713
  157.3490  130.7072  149.6428 LP  0  0  0  0  0  0  0  0  0  0  0  0  # atno 17371 bound_to 10713
  139.9433  135.0188  156.8775 LP  0  0  0  0  0  0  0  0  0  0  0  0  # atno 17394 bound_to 11000
  140.5868  134.0300  155.7484 LP  0  0  0  0  0  0  0  0  0  0  0  0  # atno 17395 bound_to 11000

$$$$
