AV-unprocessed.smi:1223|AV-procd|sdf|5126|dock4
  -GOLD-   22720 4183D 1   1.00000     0.00000
 Structure written by MMmdl.
 33 34  0  0  0  0  0  0  0  0  1 V2000
  151.7451  140.5638  155.3893 O   0  0  0  0  0  0  0  0  0  0  0  0
  150.6260  140.2919  155.8228 C   0  0  0  0  0  0  0  0  0  0  0  0
  149.6468  139.4894  154.9622 C   0  0  0  0  0  0  0  0  0  0  0  0
  148.6238  140.3380  154.3744 N   0  0  0  0  0  0  0  0  0  0  0  0
  148.4251  141.6914  154.5546 C   0  0  0  0  0  0  0  0  0  0  0  0
  147.3374  142.0459  153.8095 C   0  0  0  0  0  0  0  0  0  0  0  0
  146.9349  140.8260  153.1977 C   0  0  0  0  0  0  0  0  0  0  0  0
  147.7066  139.8059  153.5368 N   0  0  0  0  0  0  0  0  0  0  0  0
  150.1903  140.6758  157.0346 N   0  0  0  0  0  0  0  0  0  0  0  0
  150.9553  141.4557  158.0075 C   0  0  2  0  0  0  0  0  0  0  0  0
  151.1755  142.8704  157.4165 C   0  0  0  0  0  0  0  0  0  0  0  0
  152.2643  143.7331  158.0927 C   0  0  0  0  0  0  0  0  0  0  0  0
  152.2633  143.6940  159.6345 C   0  0  0  0  0  0  0  0  0  0  0  0
  152.5302  142.3167  160.2971 C   0  0  0  0  0  0  0  0  0  0  0  0
  152.9959  141.2704  159.3860 N   0  0  0  0  0  0  0  0  0  0  0  0
  152.3205  140.8053  158.3216 C   0  0  0  0  0  0  0  0  0  0  0  0
  152.7828  139.9169  157.6065 O   0  0  0  0  0  0  0  0  0  0  0  0
  150.1927  138.9864  154.1632 H   0  0  0  0  0  0  0  0  0  0  0  0
  149.1666  138.7138  155.5609 H   0  0  0  0  0  0  0  0  0  0  0  0
  149.0653  142.2816  155.1936 H   0  0  0  0  0  0  0  0  0  0  0  0
  146.8963  143.0270  153.7157 H   0  0  0  0  0  0  0  0  0  0  0  0
  146.1105  140.6522  152.5221 H   0  0  0  0  0  0  0  0  0  0  0  0
  149.2533  140.4135  157.3027 H   0  0  0  0  0  0  0  0  0  0  0  0
  150.3687  141.5329  158.9243 H   0  0  0  0  0  0  0  0  0  0  0  0
  151.4180  142.7979  156.3550 H   0  0  0  0  0  0  0  0  0  0  0  0
  150.2269  143.4069  157.4632 H   0  0  0  0  0  0  0  0  0  0  0  0
  153.2482  143.4357  157.7270 H   0  0  0  0  0  0  0  0  0  0  0  0
  152.1424  144.7654  157.7633 H   0  0  0  0  0  0  0  0  0  0  0  0
  153.0243  144.3925  159.9839 H   0  0  0  0  0  0  0  0  0  0  0  0
  151.3175  144.0905  160.0051 H   0  0  0  0  0  0  0  0  0  0  0  0
  153.2740  142.4318  161.0858 H   0  0  0  0  0  0  0  0  0  0  0  0
  151.6288  141.9646  160.8002 H   0  0  0  0  0  0  0  0  0  0  0  0
  153.8953  140.8579  159.5876 H   0  0  0  0  0  0  0  0  0  0  0  0
  1  2  2  0  0  0  0
  2  3  1  0  0  0  0
  2  9  1  0  0  0  0
  3  4  1  0  0  0  0
  3 18  1  0  0  0  0
  3 19  1  0  0  0  0
  4  8  1  0  0  0  0
  4  5  1  0  0  0  0
  5  6  2  0  0  0  0
  5 20  1  0  0  0  0
  6  7  1  0  0  0  0
  6 21  1  0  0  0  0
  7  8  2  0  0  0  0
  7 22  1  0  0  0  0
  9 10  1  0  0  0  0
  9 23  1  0  0  0  0
 10 16  1  0  0  0  0
 10 11  1  0  0  0  0
 10 24  1  0  0  0  0
 11 12  1  0  0  0  0
 11 25  1  0  0  0  0
 11 26  1  0  0  0  0
 12 13  1  0  0  0  0
 12 27  1  0  0  0  0
 12 28  1  0  0  0  0
 13 14  1  0  0  0  0
 13 29  1  0  0  0  0
 13 30  1  0  0  0  0
 14 15  1  0  0  0  0
 14 31  1  0  0  0  0
 14 32  1  0  0  0  0
 15 16  1  0  0  0  0
 15 33  1  0  0  0  0
 16 17  2  0  0  0  0
M  END
> <s_m_source_file>
AV-unprocessed.smi

> <i_m_source_file_index>
1223

> <i_lp_mmshare_version>
43012

> <i_f3d_flags>
0

> <s_epik_input>
bjFbY0hdW2NIXVtjSF1uMVtDSDJdQyg9TylbTkhdW0NAQEhdMltDSDJdW0NIMl1bQ0gyXVtDSDJdW05IXUMyPU8=

> <s_epik_cmdline>
J2VwaWtfcHl0aG9uJywgJy1waCcsICc3LjAnLCAnLXRuJywgJzgnLCAnLW1hJywgJzIwMCcsICctbWV0YWxfYmluZGluZycsICctaW1hZScsICc8aW5maWxlLm1hZT4nLCAnLW9tYWUnLCAnPG91dGZpbGUubWFlPic=

> <r_lp_tautomer_probability>
1

> <r_epik_Ionization_Penalty>
1.16214e-05

> <r_epik_Ionization_Penalty_Charging>
0

> <r_epik_Ionization_Penalty_Neutral>
1.16214e-05

> <r_epik_State_Penalty>
-0

> <r_epik_Charging_Adjusted_Penalty>
0

> <i_epik_Tot_Q>
0

> <i_epik_Tot_abs_Q>
0

> <r_epik_Metal_State_Penalty>
-0

> <b_epik_Metal_Only>
0

> <s_lp_Force_Field>
OPLS_2005

> <r_lp_Energy>
15.4059

> <b_lp_Chiralities_Consistent>
1

> <s_lp_Variant>
AV-unprocessed.smi:1223-1

> <Gold.Version>
5.8.1

> <Gold.Id.Protein>
6NUR|6NUR_protein|mol2

> <Gold.PLP.Fitness>
45.7816

> <Gold.PLP.PLP>
-35.3907

> <Gold.PLP.part.hbond>
-2.0000

> <Gold.PLP.part.metal>
0.0000

> <Gold.PLP.part.buried>
-4.3209

> <Gold.PLP.part.nonpolar>
-29.6790

> <Gold.PLP.part.repulsive>
1.0290

> <Gold.PLP.ligand.clash>
0.0000

> <Gold.PLP.ligand.torsion>
0.2652

> <Gold.PLP.Chemscore.Hbond>
1.7200

> <Gold.PLP.Chemscore.CHOScore>
1.9196

> <Gold.PLP.Chemscore.Metal>
0.0000

> <Gold.Chemscore.Hbonds>
donor molecule, donor type, donor heavy atom, donor atom, acceptor molecule, acceptor atom, score
      P1  H  7989  7998       L1     1  0.72
      P1  H  7997  8009       L1    17  1.00
      L1  C     5    20       P1  8028  0.93
      L1  C     7    22       P1 10175  1.00

> <Gold.PLP.Chemscore.Internal.Correction>
0.0024

> <Gold.Rescore>
     Score         DG    S(hbond)    S(metal)    S(lipo)     H(rot)  DE(clash)    DE(int)     intcor
     12.26     -16.42       1.65        0.00      81.09       1.58       0.10       4.05       ----

> <Gold.Chemscore.Fitness>
12.2650

> <Gold.Chemscore.DG>
-16.4198

> <Gold.Chemscore.ZeroCoef>
-5.4800

> <Gold.Chemscore.Hbond>
1.6451

> <Gold.Chemscore.Metal>
0.0000

> <Gold.Chemscore.Lipo>
81.0922

> <Gold.Chemscore.Internal_Hbond>
0.0000

> <Gold.Chemscore.DEClash>
0.1021

> <Gold.Chemscore.DEInternal>
4.0527

> <Gold.Chemscore.Rot>
1.5792

> <Gold.Chemscore.Internal.Correction>
   9.000000E+99

> <Gold.Chemscore.Hbonds>
donor molecule, donor type, donor heavy atom, donor atom, acceptor molecule, acceptor atom, score
      P1  H  7989  7998       L1     1  0.53
      P1  H  7997  8009       L1    17  0.98

> <Gold.Chemscore.Hbond.Weighted>
-5.4948

> <Gold.Chemscore.Metal.Weighted>
-0.0000

> <Gold.Chemscore.Lipo.Weighted>
-9.4878

> <Gold.Chemscore.Internal_Hbond.Weighted>
0.0000

> <Gold.Chemscore.DEClash.Weighted>
0.1021

> <Gold.Chemscore.DEInternal.Weighted>
4.0527

> <Gold.Chemscore.Rot.Weighted>
4.0428

> <Gold.Chemscore.Internal.Correction.Weighted>
   9.000000E+99

> <Gold.Protein.RotatedTorsions>
[ 6907 6896 6895 6894 ] final   92.06 input  -60.11 | X-H torsion
[ 7974 7965 7964 7962 ] final   -6.09 input  175.53 | X-H torsion
[ 8008 7997 7996 7995 ] final  165.69 input   59.86 | X-H torsion
[ 10167 10162 10161 10158 ] final   35.54 input  -65.29 | X-H torsion
[ 10718 10713 10712 10709 ] final  114.80 input   66.30 | X-H torsion
[ 10763 10752 10751 10750 ] final   54.30 input  -60.55 | X-H torsion
[ 11005 11000 10999 10996 ] final -163.58 input  -57.11 | X-H torsion

> <Gold.Protein.ActiveResidues>
 VAL166  LYS551  ARG553  GLY616  TRP617  ASP618  TYR619  PRO620  LYS621  CYS622 
 ASP623  PHE694  ASN695  SER759  ASP760  ASP761  ALA762  ILE779  LEU786  VAL792 
 PHE793  MET794  SER795  GLU796  ALA797  LYS798  CYS799  TRP800  GLU811  SER814 

> <Gold.Protein.RotatedAtoms>
  152.5452  134.1560  159.8537 H   0  0  0  0  0  0  0  0  0  0  0  0  # atno 6907 bound_to 6896
  151.1583  133.4855  159.2602 H   0  0  0  0  0  0  0  0  0  0  0  0  # atno 6908 bound_to 6896
  151.1400  135.0185  159.8676 H   0  0  0  0  0  0  0  0  0  0  0  0  # atno 6909 bound_to 6896
  146.2339  140.2118  142.8335 H   0  0  0  0  0  0  0  0  0  0  0  0  # atno 7974 bound_to 7965
  156.1780  140.1663  156.8327 H   0  0  0  0  0  0  0  0  0  0  0  0  # atno 8008 bound_to 7997
  154.5328  140.0753  156.8409 H   0  0  0  0  0  0  0  0  0  0  0  0  # atno 8009 bound_to 7997
  155.3371  140.3382  155.4241 H   0  0  0  0  0  0  0  0  0  0  0  0  # atno 8010 bound_to 7997
  140.4212  144.1456  150.6148 H   0  0  0  0  0  0  0  0  0  0  0  0  # atno 10167 bound_to 10162
  157.6260  131.1003  150.7238 H   0  0  0  0  0  0  0  0  0  0  0  0  # atno 10718 bound_to 10713
  152.9803  135.5750  154.4881 H   0  0  0  0  0  0  0  0  0  0  0  0  # atno 10763 bound_to 10752
  154.4420  135.2776  155.1843 H   0  0  0  0  0  0  0  0  0  0  0  0  # atno 10764 bound_to 10752
  154.3507  135.6209  153.5695 H   0  0  0  0  0  0  0  0  0  0  0  0  # atno 10765 bound_to 10752
  140.5964  134.4992  157.5200 H   0  0  0  0  0  0  0  0  0  0  0  0  # atno 11005 bound_to 11000
  144.9700  140.8360  143.5461 LP  0  0  0  0  0  0  0  0  0  0  0  0  # atno 17320 bound_to 7965
  145.2099  139.2210  143.5148 LP  0  0  0  0  0  0  0  0  0  0  0  0  # atno 17321 bound_to 7965
  140.4531  143.2479  151.9321 LP  0  0  0  0  0  0  0  0  0  0  0  0  # atno 17342 bound_to 10162
  139.4782  144.5542  151.8338 LP  0  0  0  0  0  0  0  0  0  0  0  0  # atno 17343 bound_to 10162
  156.7586  130.4791  149.5441 LP  0  0  0  0  0  0  0  0  0  0  0  0  # atno 17370 bound_to 10713
  156.1432  130.6259  151.0496 LP  0  0  0  0  0  0  0  0  0  0  0  0  # atno 17371 bound_to 10713
  139.9251  134.8072  156.1093 LP  0  0  0  0  0  0  0  0  0  0  0  0  # atno 17394 bound_to 11000
  141.0901  133.6718  156.2521 LP  0  0  0  0  0  0  0  0  0  0  0  0  # atno 17395 bound_to 11000

$$$$
