AV-unprocessed.smi:2061|AV-procd|sdf|8368|dock4
  -GOLD-   2272011 43D 1   1.00000     0.00000
 Structure written by MMmdl.
 46 47  0  0  0  0  0  0  0  0  2 V2000
  153.9256  137.6064  156.9462 C   0  0  0  0  0  0  0  0  0  0  0  0
  152.7717  137.8792  156.0434 C   0  0  0  0  0  0  0  0  0  0  0  0
  151.7157  137.1182  155.6281 C   0  0  0  0  0  0  0  0  0  0  0  0
  150.9999  138.0057  154.7726 C   0  0  0  0  0  0  0  0  0  0  0  0
  149.8020  137.7135  154.0704 N   0  0  0  0  0  0  0  0  0  0  0  0
  148.5687  138.2027  154.2836 C   0  0  0  0  0  0  0  0  0  0  0  0
  148.2664  139.0253  155.1478 O   0  0  0  0  0  0  0  0  0  0  0  0
  147.6841  137.6793  153.4213 N   0  0  0  0  0  0  0  0  0  0  0  0
  146.2487  137.9541  153.4067 C   0  0  0  0  0  0  0  0  0  0  0  0
  145.4708  137.1419  152.3320 C   0  0  2  0  0  0  0  0  0  0  0  0
  143.9427  137.2684  152.5526 C   0  0  0  0  0  0  0  0  0  0  0  0
  145.9052  135.7031  152.2846 N   0  3  1  0  0  0  0  0  0  0  0  0
  145.7616  134.9929  153.5873 C   0  0  0  0  0  0  0  0  0  0  0  0
  146.2435  133.5309  153.5147 C   0  0  2  0  0  0  0  0  0  0  0  0
  147.7756  133.3868  153.4581 C   0  0  0  0  0  0  0  0  0  0  0  0
  145.5913  132.8498  152.4486 O   0  0  0  0  0  0  0  0  0  0  0  0
  145.7680  133.4574  151.1761 C   0  0  1  0  0  0  0  0  0  0  0  0
  145.0188  132.6058  150.1454 C   0  0  0  0  0  0  0  0  0  0  0  0
  145.2466  134.9053  151.2128 C   0  0  0  0  0  0  0  0  0  0  0  0
  151.5677  139.1943  154.6827 N   0  0  0  0  0  0  0  0  0  0  0  0
  152.7066  139.1214  155.4931 O   0  0  0  0  0  0  0  0  0  0  0  0
  153.8127  136.6425  157.4426 H   0  0  0  0  0  0  0  0  0  0  0  0
  154.0052  138.3750  157.7152 H   0  0  0  0  0  0  0  0  0  0  0  0
  154.8598  137.5905  156.3846 H   0  0  0  0  0  0  0  0  0  0  0  0
  151.5061  136.0954  155.9022 H   0  0  0  0  0  0  0  0  0  0  0  0
  149.8946  137.0363  153.3277 H   0  0  0  0  0  0  0  0  0  0  0  0
  148.0246  137.0148  152.7415 H   0  0  0  0  0  0  0  0  0  0  0  0
  145.9196  137.6876  154.4093 H   0  0  0  0  0  0  0  0  0  0  0  0
  146.0522  139.0214  153.2903 H   0  0  0  0  0  0  0  0  0  0  0  0
  145.6994  137.5829  151.3604 H   0  0  0  0  0  0  0  0  0  0  0  0
  143.6242  138.3063  152.6342 H   0  0  0  0  0  0  0  0  0  0  0  0
  143.6297  136.7564  153.4634 H   0  0  0  0  0  0  0  0  0  0  0  0
  143.3645  136.8699  151.7210 H   0  0  0  0  0  0  0  0  0  0  0  0
  146.3295  135.4811  154.3765 H   0  0  0  0  0  0  0  0  0  0  0  0
  144.7129  135.0171  153.8881 H   0  0  0  0  0  0  0  0  0  0  0  0
  145.9182  133.0319  154.4280 H   0  0  0  0  0  0  0  0  0  0  0  0
  148.2343  133.7864  154.3630 H   0  0  0  0  0  0  0  0  0  0  0  0
  148.2130  133.9195  152.6140 H   0  0  0  0  0  0  0  0  0  0  0  0
  148.0647  132.3384  153.3799 H   0  0  0  0  0  0  0  0  0  0  0  0
  146.8244  133.4557  150.9072 H   0  0  0  0  0  0  0  0  0  0  0  0
  145.1241  133.0187  149.1417 H   0  0  0  0  0  0  0  0  0  0  0  0
  143.9541  132.5527  150.3757 H   0  0  0  0  0  0  0  0  0  0  0  0
  145.4064  131.5869  150.1270 H   0  0  0  0  0  0  0  0  0  0  0  0
  144.1656  134.9183  151.3624 H   0  0  0  0  0  0  0  0  0  0  0  0
  145.4446  135.3299  150.2309 H   0  0  0  0  0  0  0  0  0  0  0  0
  146.8919  135.7094  152.0686 H   0  0  0  0  0  0  0  0  0  0  0  0
  1  2  1  0  0  0  0
  1 22  1  0  0  0  0
  1 23  1  0  0  0  0
  1 24  1  0  0  0  0
  2 21  1  0  0  0  0
  2  3  2  0  0  0  0
  3  4  1  0  0  0  0
  3 25  1  0  0  0  0
  4  5  1  0  0  0  0
  4 20  2  0  0  0  0
  5  6  1  0  0  0  0
  5 26  1  0  0  0  0
  6  7  2  0  0  0  0
  6  8  1  0  0  0  0
  8  9  1  0  0  0  0
  8 27  1  0  0  0  0
  9 10  1  0  0  0  0
  9 28  1  0  0  0  0
  9 29  1  0  0  0  0
 10 11  1  0  0  0  0
 10 12  1  0  0  0  0
 10 30  1  0  0  0  0
 11 31  1  0  0  0  0
 11 32  1  0  0  0  0
 11 33  1  0  0  0  0
 12 19  1  0  0  0  0
 12 13  1  0  0  0  0
 12 46  1  0  0  0  0
 13 14  1  0  0  0  0
 13 34  1  0  0  0  0
 13 35  1  0  0  0  0
 14 15  1  0  0  0  0
 14 16  1  0  0  0  0
 14 36  1  0  0  0  0
 15 37  1  0  0  0  0
 15 38  1  0  0  0  0
 15 39  1  0  0  0  0
 16 17  1  0  0  0  0
 17 18  1  0  0  0  0
 17 19  1  0  0  0  0
 17 40  1  0  0  0  0
 18 41  1  0  0  0  0
 18 42  1  0  0  0  0
 18 43  1  0  0  0  0
 19 44  1  0  0  0  0
 19 45  1  0  0  0  0
 20 21  1  0  0  0  0
M  CHG  1  12   1
M  END
> <s_m_source_file>
AV-unprocessed.smi

> <i_m_source_file_index>
2061

> <i_lp_mmshare_version>
43012

> <i_f3d_flags>
0

> <s_epik_input>
W0NIM11jMVtjSF1jKG5vMSlbTkhdQyg9TylbTkhdW0NIMl1bQ0BIXShbQ0gzXSlOMltDSDJdW0NAQEhdKFtDSDNdKU9bQ0BASF0oW0NIM10pW0NIMl0y

> <s_epik_cmdline>
J2VwaWtfcHl0aG9uJywgJy1waCcsICc3LjAnLCAnLXRuJywgJzgnLCAnLW1hJywgJzIwMCcsICctbWV0YWxfYmluZGluZycsICctaW1hZScsICc8aW5maWxlLm1hZT4nLCAnLW9tYWUnLCAnPG91dGZpbGUubWFlPic=

> <r_epik_Ionization_Penalty>
0.707076

> <r_epik_Ionization_Penalty_Charging>
0.707039

> <r_epik_Ionization_Penalty_Neutral>
3.6548e-05

> <r_epik_State_Penalty>
0.730276

> <r_epik_Charging_Adjusted_Penalty>
1.43732

> <i_epik_Tot_Q>
1

> <i_epik_Tot_abs_Q>
1

> <r_epik_Metal_State_Penalty>
0.743132

> <b_epik_Metal_Only>
0

> <s_lp_Force_Field>
OPLS_2005

> <r_lp_Energy>
23.7206

> <b_lp_Chiralities_Consistent>
1

> <s_lp_Variant>
AV-unprocessed.smi:2061-9

> <Gold.Version>
5.8.1

> <Gold.Id.Protein>
6NUR|6NUR_protein|mol2

> <Gold.PLP.Fitness>
43.8673

> <Gold.PLP.PLP>
-27.5724

> <Gold.PLP.part.hbond>
-5.0000

> <Gold.PLP.part.metal>
0.0000

> <Gold.PLP.part.buried>
-1.0640

> <Gold.PLP.part.nonpolar>
-22.0343

> <Gold.PLP.part.repulsive>
0.2997

> <Gold.PLP.ligand.clash>
0.0000

> <Gold.PLP.ligand.torsion>
0.7722

> <Gold.PLP.Chemscore.Hbond>
5.9280

> <Gold.PLP.Chemscore.CHOScore>
0.0000

> <Gold.PLP.Chemscore.Metal>
0.0000

> <Gold.Chemscore.Hbonds>
donor molecule, donor type, donor heavy atom, donor atom, acceptor molecule, acceptor atom, score
      L1  H     5    26       P1  7948  0.90
      L1  H     8    27       P1  7948  0.91
      L1  H    12    46       P1  7948  1.59
      P1  H  7989  7998       L1    20  0.98
      P1  H  7997  8008       L1    21  0.91

> <Gold.PLP.Chemscore.Internal.Correction>
0.0554

> <Gold.Rescore>
     Score         DG    S(hbond)    S(metal)    S(lipo)     H(rot)  DE(clash)    DE(int)     intcor
     18.98     -20.05       3.48        0.00      59.94       1.58       0.15       0.93       ----

> <Gold.Chemscore.Fitness>
18.9815

> <Gold.Chemscore.DG>
-20.0540

> <Gold.Chemscore.ZeroCoef>
-5.4800

> <Gold.Chemscore.Hbond>
3.4774

> <Gold.Chemscore.Metal>
0.0000

> <Gold.Chemscore.Lipo>
59.9403

> <Gold.Chemscore.Internal_Hbond>
0.0000

> <Gold.Chemscore.DEClash>
0.1473

> <Gold.Chemscore.DEInternal>
0.9252

> <Gold.Chemscore.Rot>
1.5834

> <Gold.Chemscore.Internal.Correction>
   9.000000E+99

> <Gold.Chemscore.Hbonds>
donor molecule, donor type, donor heavy atom, donor atom, acceptor molecule, acceptor atom, score
      L1  H     5    26       P1  7948  0.31
      L1  H     8    27       P1  7948  0.88
      L1  H    12    46       P1  7948  0.79
      P1  H  7989  7998       L1    20  0.67
      P1  H  7997  8008       L1    21  0.61

> <Gold.Chemscore.Hbond.Weighted>
-11.6145

> <Gold.Chemscore.Metal.Weighted>
-0.0000

> <Gold.Chemscore.Lipo.Weighted>
-7.0130

> <Gold.Chemscore.Internal_Hbond.Weighted>
0.0000

> <Gold.Chemscore.DEClash.Weighted>
0.1473

> <Gold.Chemscore.DEInternal.Weighted>
0.9252

> <Gold.Chemscore.Rot.Weighted>
4.0535

> <Gold.Chemscore.Internal.Correction.Weighted>
   9.000000E+99

> <Gold.Protein.RotatedTorsions>
[ 6907 6896 6895 6894 ] final -120.65 input  -60.11 | X-H torsion
[ 7974 7965 7964 7962 ] final  -72.84 input  175.53 | X-H torsion
[ 8008 7997 7996 7995 ] final  -19.97 input   59.86 | X-H torsion
[ 10167 10162 10161 10158 ] final  138.83 input  -65.29 | X-H torsion
[ 10718 10713 10712 10709 ] final  121.76 input   66.30 | X-H torsion
[ 10763 10752 10751 10750 ] final  -17.75 input  -60.55 | X-H torsion
[ 11005 11000 10999 10996 ] final  158.30 input  -57.11 | X-H torsion

> <Gold.Protein.ActiveResidues>
 VAL166  LYS551  ARG553  GLY616  TRP617  ASP618  TYR619  PRO620  LYS621  CYS622 
 ASP623  PHE694  ASN695  SER759  ASP760  ASP761  ALA762  ILE779  LEU786  VAL792 
 PHE793  MET794  SER795  GLU796  ALA797  LYS798  CYS799  TRP800  GLU811  SER814 

> <Gold.Protein.RotatedAtoms>
  150.8412  133.7933  159.3060 H   0  0  0  0  0  0  0  0  0  0  0  0  # atno 6907 bound_to 6896
  151.5634  135.1063  159.9987 H   0  0  0  0  0  0  0  0  0  0  0  0  # atno 6908 bound_to 6896
  152.4475  133.7522  159.6756 H   0  0  0  0  0  0  0  0  0  0  0  0  # atno 6909 bound_to 6896
  145.6599  140.9256  143.0939 H   0  0  0  0  0  0  0  0  0  0  0  0  # atno 7974 bound_to 7965
  154.4801  140.2074  155.9784 H   0  0  0  0  0  0  0  0  0  0  0  0  # atno 8008 bound_to 7997
  156.1151  140.3222  155.8098 H   0  0  0  0  0  0  0  0  0  0  0  0  # atno 8009 bound_to 7997
  155.4566  140.0521  157.2986 H   0  0  0  0  0  0  0  0  0  0  0  0  # atno 8010 bound_to 7997
  139.5098  144.6330  151.5768 H   0  0  0  0  0  0  0  0  0  0  0  0  # atno 10167 bound_to 10162
  157.5793  131.1076  150.8218 H   0  0  0  0  0  0  0  0  0  0  0  0  # atno 10718 bound_to 10713
  153.5787  135.7005  153.5473 H   0  0  0  0  0  0  0  0  0  0  0  0  # atno 10763 bound_to 10752
  153.3280  135.4055  155.1472 H   0  0  0  0  0  0  0  0  0  0  0  0  # atno 10764 bound_to 10752
  154.8621  135.3712  154.5313 H   0  0  0  0  0  0  0  0  0  0  0  0  # atno 10765 bound_to 10752
  140.1852  134.8447  157.2849 H   0  0  0  0  0  0  0  0  0  0  0  0  # atno 11005 bound_to 11000
  144.7093  139.8435  143.7420 LP  0  0  0  0  0  0  0  0  0  0  0  0  # atno 17320 bound_to 7965
  146.1134  139.4141  143.0273 LP  0  0  0  0  0  0  0  0  0  0  0  0  # atno 17321 bound_to 7965
  140.6070  143.9506  150.6426 LP  0  0  0  0  0  0  0  0  0  0  0  0  # atno 17342 bound_to 10162
  140.2736  143.3438  152.1215 LP  0  0  0  0  0  0  0  0  0  0  0  0  # atno 17343 bound_to 10162
  156.8668  130.5132  149.5299 LP  0  0  0  0  0  0  0  0  0  0  0  0  # atno 17370 bound_to 10713
  156.0839  130.5842  150.9612 LP  0  0  0  0  0  0  0  0  0  0  0  0  # atno 17371 bound_to 10713
  140.2222  134.4009  155.7560 LP  0  0  0  0  0  0  0  0  0  0  0  0  # atno 17394 bound_to 11000
  141.2224  133.7172  156.8508 LP  0  0  0  0  0  0  0  0  0  0  0  0  # atno 17395 bound_to 11000

$$$$
