AV-unprocessed.smi:185|AV-procd|sdf|1465|dock5
  -GOLD-   2262019273D 1   1.00000     0.00000
 Structure written by MMmdl.
 53 56  0  0  0  0  0  0  0  0  1 V2000
  151.8152  138.6175  155.0054 C   0  0  0  0  0  0  0  0  0  0  0  0
  151.2125  139.9472  155.0589 N   0  0  0  0  0  0  0  0  0  0  0  0
  151.6604  140.8276  156.1370 C   0  0  0  0  0  0  0  0  0  0  0  0
  151.1079  140.4104  157.5141 C   0  0  0  0  0  0  0  0  0  0  0  0
  151.8781  141.0115  158.5978 N   0  0  0  0  0  0  0  0  0  0  0  0
  151.4198  142.2232  159.2561 C   0  0  0  0  0  0  0  0  0  0  0  0
  152.5858  142.6533  160.1585 C   0  0  0  0  0  0  0  0  0  0  0  0
  153.5443  141.4579  160.2031 C   0  0  0  0  0  0  0  0  0  0  0  0
  153.0419  140.5623  159.0836 C   0  0  0  0  0  0  0  0  0  0  0  0
  153.6533  139.5651  158.7010 O   0  0  0  0  0  0  0  0  0  0  0  0
  149.9288  140.0894  154.6199 C   0  0  0  0  0  0  0  0  0  0  0  0
  149.5017  141.3169  154.2153 N   0  0  0  0  0  0  0  0  0  0  0  0
  148.2665  141.4887  153.7374 C   0  0  0  0  0  0  0  0  0  0  0  0
  147.3034  140.5823  153.5736 N   0  0  0  0  0  0  0  0  0  0  0  0
  147.7117  139.3496  153.9880 C   0  0  0  0  0  0  0  0  0  0  0  0
  148.9875  139.0186  154.5309 C   0  0  0  0  0  0  0  0  0  0  0  0
  149.0096  137.6685  154.8655 N   0  0  0  0  0  0  0  0  0  0  0  0
  147.8355  137.2243  154.5143 C   0  0  0  0  0  0  0  0  0  0  0  0
  146.9972  138.1645  153.9627 N   0  0  0  0  0  0  0  0  0  0  0  0
  145.6468  137.9422  153.4697 C   0  0  0  0  0  0  0  0  0  0  0  0
  145.5804  137.0395  152.2116 C   0  0  0  0  0  0  0  0  0  0  0  0
  146.4320  137.6025  151.2287 O   0  0  0  0  0  0  0  0  0  0  0  0
  146.0498  135.5937  152.4886 C   0  0  0  0  0  0  0  0  0  0  0  0
  145.7811  134.6579  151.2966 C   0  0  0  0  0  0  0  0  0  0  0  0
  144.4050  134.7014  150.9395 O   0  0  0  0  0  0  0  0  0  0  0  0
  143.9912  135.9907  150.5042 C   0  0  0  0  0  0  0  0  0  0  0  0
  144.1450  137.0079  151.6491 C   0  0  0  0  0  0  0  0  0  0  0  0
  151.7143  138.1843  154.0095 H   0  0  0  0  0  0  0  0  0  0  0  0
  151.3450  137.9483  155.7271 H   0  0  0  0  0  0  0  0  0  0  0  0
  152.8798  138.6673  155.2356 H   0  0  0  0  0  0  0  0  0  0  0  0
  152.7501  140.8087  156.1736 H   0  0  0  0  0  0  0  0  0  0  0  0
  151.4115  141.8621  155.9144 H   0  0  0  0  0  0  0  0  0  0  0  0
  150.0671  140.7196  157.6225 H   0  0  0  0  0  0  0  0  0  0  0  0
  151.1143  139.3238  157.6082 H   0  0  0  0  0  0  0  0  0  0  0  0
  151.1642  142.9984  158.5327 H   0  0  0  0  0  0  0  0  0  0  0  0
  150.5299  141.9977  159.8452 H   0  0  0  0  0  0  0  0  0  0  0  0
  153.0930  143.5180  159.7284 H   0  0  0  0  0  0  0  0  0  0  0  0
  152.2415  142.9374  161.1535 H   0  0  0  0  0  0  0  0  0  0  0  0
  154.5816  141.7536  160.0431 H   0  0  0  0  0  0  0  0  0  0  0  0
  153.4730  140.9256  161.1521 H   0  0  0  0  0  0  0  0  0  0  0  0
  148.0173  142.4953  153.4360 H   0  0  0  0  0  0  0  0  0  0  0  0
  147.5519  136.1893  154.6381 H   0  0  0  0  0  0  0  0  0  0  0  0
  145.0666  137.4962  154.2786 H   0  0  0  0  0  0  0  0  0  0  0  0
  145.1888  138.9118  153.2682 H   0  0  0  0  0  0  0  0  0  0  0  0
  147.2831  137.1984  151.3007 H   0  0  0  0  0  0  0  0  0  0  0  0
  147.1119  135.5682  152.7364 H   0  0  0  0  0  0  0  0  0  0  0  0
  145.5215  135.2055  153.3604 H   0  0  0  0  0  0  0  0  0  0  0  0
  146.3999  134.9266  150.4391 H   0  0  0  0  0  0  0  0  0  0  0  0
  146.0415  133.6335  151.5627 H   0  0  0  0  0  0  0  0  0  0  0  0
  144.5652  136.2939  149.6272 H   0  0  0  0  0  0  0  0  0  0  0  0
  142.9478  135.9362  150.1932 H   0  0  0  0  0  0  0  0  0  0  0  0
  143.4514  136.7353  152.4458 H   0  0  0  0  0  0  0  0  0  0  0  0
  143.8448  138.0004  151.3101 H   0  0  0  0  0  0  0  0  0  0  0  0
  1  2  1  0  0  0  0
  1 28  1  0  0  0  0
  1 29  1  0  0  0  0
  1 30  1  0  0  0  0
  2  3  1  0  0  0  0
  2 11  1  0  0  0  0
  3  4  1  0  0  0  0
  3 31  1  0  0  0  0
  3 32  1  0  0  0  0
  4  5  1  0  0  0  0
  4 33  1  0  0  0  0
  4 34  1  0  0  0  0
  5  9  1  0  0  0  0
  5  6  1  0  0  0  0
  6  7  1  0  0  0  0
  6 35  1  0  0  0  0
  6 36  1  0  0  0  0
  7  8  1  0  0  0  0
  7 37  1  0  0  0  0
  7 38  1  0  0  0  0
  8  9  1  0  0  0  0
  8 39  1  0  0  0  0
  8 40  1  0  0  0  0
  9 10  2  0  0  0  0
 11 16  1  0  0  0  0
 11 12  2  0  0  0  0
 12 13  1  0  0  0  0
 13 14  2  0  0  0  0
 13 41  1  0  0  0  0
 14 15  1  0  0  0  0
 15 19  1  0  0  0  0
 15 16  2  0  0  0  0
 16 17  1  0  0  0  0
 17 18  2  0  0  0  0
 18 19  1  0  0  0  0
 18 42  1  0  0  0  0
 19 20  1  0  0  0  0
 20 21  1  0  0  0  0
 20 43  1  0  0  0  0
 20 44  1  0  0  0  0
 21 27  1  0  0  0  0
 21 22  1  0  0  0  0
 21 23  1  0  0  0  0
 22 45  1  0  0  0  0
 23 24  1  0  0  0  0
 23 46  1  0  0  0  0
 23 47  1  0  0  0  0
 24 25  1  0  0  0  0
 24 48  1  0  0  0  0
 24 49  1  0  0  0  0
 25 26  1  0  0  0  0
 26 27  1  0  0  0  0
 26 50  1  0  0  0  0
 26 51  1  0  0  0  0
 27 52  1  0  0  0  0
 27 53  1  0  0  0  0
M  END
> <s_m_source_file>
AV-unprocessed.smi

> <i_m_source_file_index>
185

> <i_lp_mmshare_version>
43012

> <i_f3d_flags>
0

> <s_epik_input>
Tz1DMVtDSDJdW0NIMl1bQ0gyXU4xW0NIMl1bQ0gyXU4oW0NIM10pYyhuW2NIXW4yKWMoYzIzKW5bY0hdbjNbQ0gyXUM0KFtPSF0pW0NIMl1bQ0gyXU9bQ0gyXVtDSDJdNA==

> <s_epik_cmdline>
J2VwaWtfcHl0aG9uJywgJy1waCcsICc3LjAnLCAnLXRuJywgJzgnLCAnLW1hJywgJzIwMCcsICctbWV0YWxfYmluZGluZycsICctaW1hZScsICc8aW5maWxlLm1hZT4nLCAnLW9tYWUnLCAnPG91dGZpbGUubWFlPic=

> <r_lp_tautomer_probability>
1

> <r_epik_Ionization_Penalty>
0.00150291

> <r_epik_Ionization_Penalty_Charging>
0

> <r_epik_Ionization_Penalty_Neutral>
0.00150291

> <r_epik_State_Penalty>
0.000836254

> <r_epik_Charging_Adjusted_Penalty>
0.000836254

> <i_epik_Tot_Q>
0

> <i_epik_Tot_abs_Q>
0

> <r_epik_Metal_State_Penalty>
-0

> <b_epik_Metal_Only>
0

> <s_lp_Force_Field>
OPLS_2005

> <r_lp_Energy>
31.6945

> <b_lp_Chiralities_Consistent>
1

> <s_lp_Variant>
AV-unprocessed.smi:185-1

> <Gold.Version>
5.8.1

> <Gold.Id.Protein>
6NUR|6NUR_protein|mol2

> <Gold.PLP.Fitness>
47.7308

> <Gold.PLP.PLP>
-43.3886

> <Gold.PLP.part.hbond>
-3.6131

> <Gold.PLP.part.metal>
0.0000

> <Gold.PLP.part.buried>
-1.5024

> <Gold.PLP.part.nonpolar>
-37.2271

> <Gold.PLP.part.repulsive>
0.5682

> <Gold.PLP.ligand.clash>
0.0000

> <Gold.PLP.ligand.torsion>
1.2392

> <Gold.PLP.Chemscore.Hbond>
2.0426

> <Gold.PLP.Chemscore.CHOScore>
0.0000

> <Gold.PLP.Chemscore.Metal>
0.0000

> <Gold.Chemscore.Hbonds>
donor molecule, donor type, donor heavy atom, donor atom, acceptor molecule, acceptor atom, score
      L1  H    22    45       P1  7948  1.00
      P1  H  7997  8009       L1    10  1.00

> <Gold.PLP.Chemscore.Internal.Correction>
0.6928

> <Gold.Rescore>
     Score         DG    S(hbond)    S(metal)    S(lipo)     H(rot)  DE(clash)    DE(int)     intcor
     10.28     -13.81       1.96        0.00      75.04       2.73       0.22       3.32       ----

> <Gold.Chemscore.Fitness>
10.2755

> <Gold.Chemscore.DG>
-13.8121

> <Gold.Chemscore.ZeroCoef>
-5.4800

> <Gold.Chemscore.Hbond>
1.9597

> <Gold.Chemscore.Metal>
0.0000

> <Gold.Chemscore.Lipo>
75.0431

> <Gold.Chemscore.Internal_Hbond>
0.0000

> <Gold.Chemscore.DEClash>
0.2211

> <Gold.Chemscore.DEInternal>
3.3155

> <Gold.Chemscore.Rot>
2.7318

> <Gold.Chemscore.Internal.Correction>
   9.000000E+99

> <Gold.Chemscore.Hbonds>
donor molecule, donor type, donor heavy atom, donor atom, acceptor molecule, acceptor atom, score
      L1  H    22    45       P1  7948  0.98
      P1  H  7997  8009       L1    10  0.63

> <Gold.Chemscore.Hbond.Weighted>
-6.5453

> <Gold.Chemscore.Metal.Weighted>
-0.0000

> <Gold.Chemscore.Lipo.Weighted>
-8.7800

> <Gold.Chemscore.Internal_Hbond.Weighted>
0.0000

> <Gold.Chemscore.DEClash.Weighted>
0.2211

> <Gold.Chemscore.DEInternal.Weighted>
3.3155

> <Gold.Chemscore.Rot.Weighted>
6.9933

> <Gold.Chemscore.Internal.Correction.Weighted>
   9.000000E+99

> <Gold.Protein.RotatedTorsions>
[ 6907 6896 6895 6894 ] final  -37.78 input  -60.11 | X-H torsion
[ 7974 7965 7964 7962 ] final  -33.53 input  175.53 | X-H torsion
[ 8008 7997 7996 7995 ] final  154.10 input   59.86 | X-H torsion
[ 10167 10162 10161 10158 ] final  -84.23 input  -65.29 | X-H torsion
[ 10718 10713 10712 10709 ] final -163.74 input   66.30 | X-H torsion
[ 10763 10752 10751 10750 ] final    1.72 input  -60.55 | X-H torsion
[ 11005 11000 10999 10996 ] final  -76.05 input  -57.11 | X-H torsion

> <Gold.Protein.ActiveResidues>
 VAL166  LYS551  ARG553  GLY616  TRP617  ASP618  TYR619  PRO620  LYS621  CYS622 
 ASP623  PHE694  ASN695  SER759  ASP760  ASP761  ALA762  ILE779  LEU786  VAL792 
 PHE793  MET794  SER795  GLU796  ALA797  LYS798  CYS799  TRP800  GLU811  SER814 

> <Gold.Protein.RotatedAtoms>
  151.0105  134.9393  159.8004 H   0  0  0  0  0  0  0  0  0  0  0  0  # atno 6907 bound_to 6896
  152.5301  134.3034  159.9097 H   0  0  0  0  0  0  0  0  0  0  0  0  # atno 6908 bound_to 6896
  151.3040  133.4068  159.2676 H   0  0  0  0  0  0  0  0  0  0  0  0  # atno 6909 bound_to 6896
  146.0903  140.5928  142.8867 H   0  0  0  0  0  0  0  0  0  0  0  0  # atno 7974 bound_to 7965
  156.2548  140.1976  156.6593 H   0  0  0  0  0  0  0  0  0  0  0  0  # atno 8008 bound_to 7997
  154.6477  140.0576  156.9944 H   0  0  0  0  0  0  0  0  0  0  0  0  # atno 8009 bound_to 7997
  155.1466  140.3247  155.4443 H   0  0  0  0  0  0  0  0  0  0  0  0  # atno 8010 bound_to 7997
  140.4152  143.2606  151.8964 H   0  0  0  0  0  0  0  0  0  0  0  0  # atno 10167 bound_to 10162
  156.6290  130.8922  151.2973 H   0  0  0  0  0  0  0  0  0  0  0  0  # atno 10718 bound_to 10713
  153.3044  135.6958  153.7173 H   0  0  0  0  0  0  0  0  0  0  0  0  # atno 10763 bound_to 10752
  153.6074  135.3451  155.2967 H   0  0  0  0  0  0  0  0  0  0  0  0  # atno 10764 bound_to 10752
  154.8559  135.4355  154.2165 H   0  0  0  0  0  0  0  0  0  0  0  0  # atno 10765 bound_to 10752
  141.1651  133.6969  156.7610 H   0  0  0  0  0  0  0  0  0  0  0  0  # atno 11005 bound_to 11000
  144.7355  140.4796  143.6907 LP  0  0  0  0  0  0  0  0  0  0  0  0  # atno 17320 bound_to 7965
  145.6052  139.1507  143.3107 LP  0  0  0  0  0  0  0  0  0  0  0  0  # atno 17321 bound_to 7965
  139.4782  144.5495  151.8407 LP  0  0  0  0  0  0  0  0  0  0  0  0  # atno 17342 bound_to 10162
  140.4594  144.1743  150.5905 LP  0  0  0  0  0  0  0  0  0  0  0  0  # atno 17343 bound_to 10162
  157.7205  130.9553  150.1422 LP  0  0  0  0  0  0  0  0  0  0  0  0  # atno 17370 bound_to 10713
  156.2250  130.3677  149.8511 LP  0  0  0  0  0  0  0  0  0  0  0  0  # atno 17371 bound_to 10713
  140.2534  134.8523  157.3689 LP  0  0  0  0  0  0  0  0  0  0  0  0  # atno 17394 bound_to 11000
  140.1680  134.4644  155.7850 LP  0  0  0  0  0  0  0  0  0  0  0  0  # atno 17395 bound_to 11000

$$$$
