AV-unprocessed.smi:1733|AV-procd|sdf|6978|dock1
  -GOLD-   22720 8193D 1   1.00000     0.00000
 Structure written by MMmdl.
 52 54  0  0  0  0  0  0  0  0  1 V2000
  144.6029  136.6497  152.0514 O   0  0  0  0  0  0  0  0  0  0  0  0
  145.8069  136.4086  151.9677 C   0  0  0  0  0  0  0  0  0  0  0  0
  146.3436  135.2948  151.4384 N   0  0  0  0  0  0  0  0  0  0  0  0
  145.6883  134.1710  150.8632 C   0  0  0  0  0  0  0  0  0  0  0  0
  146.4778  133.0446  150.5507 C   0  0  0  0  0  0  0  0  0  0  0  0
  145.8591  131.9205  149.9686 C   0  0  0  0  0  0  0  0  0  0  0  0
  144.5417  131.8644  149.6823 N   0  0  0  0  0  0  0  0  0  0  0  0
  143.7896  132.9482  149.9686 C   0  0  0  0  0  0  0  0  0  0  0  0
  144.3080  134.1221  150.5515 C   0  0  0  0  0  0  0  0  0  0  0  0
  146.7625  137.2342  152.4198 N   0  0  0  0  0  0  0  0  0  0  0  0
  146.5436  138.5217  153.0749 C   0  0  0  0  0  0  0  0  0  0  0  0
  147.2708  139.6385  152.2956 C   0  0  0  0  0  0  0  0  0  0  0  0
  147.2342  140.9714  153.0656 C   0  0  0  0  0  0  0  0  0  0  0  0
  147.8180  140.7660  154.4024 N   0  0  0  0  0  0  0  0  0  0  0  0
  149.0518  141.1629  154.8043 C   0  0  0  0  0  0  0  0  0  0  0  0
  149.9747  141.3929  154.0213 O   0  0  0  0  0  0  0  0  0  0  0  0
  149.2092  141.2365  156.1372 N   0  0  0  0  0  0  0  0  0  0  0  0
  150.4366  141.6150  156.8307 C   0  0  0  0  0  0  0  0  0  0  0  0
  150.9953  140.3979  157.5919 C   0  0  0  0  0  0  0  0  0  0  0  0
  152.2541  140.7656  158.3944 C   0  0  0  0  0  0  0  0  0  0  0  0
  151.9799  141.9330  159.3552 C   0  0  0  0  0  0  0  0  0  0  0  0
  151.4267  143.1527  158.6015 C   0  0  0  0  0  0  0  0  0  0  0  0
  150.1695  142.7892  157.7947 C   0  0  0  0  0  0  0  0  0  0  0  0
  147.0023  139.8421  155.2001 C   0  0  0  0  0  0  0  0  0  0  0  0
  147.0235  138.4515  154.5401 C   0  0  0  0  0  0  0  0  0  0  0  0
  147.3477  135.2165  151.5057 H   0  0  0  0  0  0  0  0  0  0  0  0
  147.5380  133.0351  150.7567 H   0  0  0  0  0  0  0  0  0  0  0  0
  146.4396  131.0426  149.7252 H   0  0  0  0  0  0  0  0  0  0  0  0
  142.7406  132.8810  149.7199 H   0  0  0  0  0  0  0  0  0  0  0  0
  143.6433  134.9522  150.7337 H   0  0  0  0  0  0  0  0  0  0  0  0
  147.7237  136.9460  152.3091 H   0  0  0  0  0  0  0  0  0  0  0  0
  145.4803  138.7683  153.0887 H   0  0  0  0  0  0  0  0  0  0  0  0
  148.3104  139.3551  152.1230 H   0  0  0  0  0  0  0  0  0  0  0  0
  146.8169  139.7638  151.3119 H   0  0  0  0  0  0  0  0  0  0  0  0
  147.7296  141.7454  152.4795 H   0  0  0  0  0  0  0  0  0  0  0  0
  146.2024  141.3087  153.1743 H   0  0  0  0  0  0  0  0  0  0  0  0
  148.4120  141.0149  156.7155 H   0  0  0  0  0  0  0  0  0  0  0  0
  151.1842  141.9236  156.0972 H   0  0  0  0  0  0  0  0  0  0  0  0
  150.2368  140.0057  158.2711 H   0  0  0  0  0  0  0  0  0  0  0  0
  151.2286  139.5946  156.8920 H   0  0  0  0  0  0  0  0  0  0  0  0
  152.6053  139.8980  158.9538 H   0  0  0  0  0  0  0  0  0  0  0  0
  153.0582  141.0375  157.7094 H   0  0  0  0  0  0  0  0  0  0  0  0
  151.2658  141.6190  160.1179 H   0  0  0  0  0  0  0  0  0  0  0  0
  152.8955  142.2044  159.8812 H   0  0  0  0  0  0  0  0  0  0  0  0
  151.1972  143.9527  159.3060 H   0  0  0  0  0  0  0  0  0  0  0  0
  152.1907  143.5433  157.9280 H   0  0  0  0  0  0  0  0  0  0  0  0
  149.8280  143.6630  157.2383 H   0  0  0  0  0  0  0  0  0  0  0  0
  149.3636  142.5268  158.4817 H   0  0  0  0  0  0  0  0  0  0  0  0
  147.3399  139.7710  156.2352 H   0  0  0  0  0  0  0  0  0  0  0  0
  145.9787  140.2160  155.2510 H   0  0  0  0  0  0  0  0  0  0  0  0
  146.3975  137.7614  155.1067 H   0  0  0  0  0  0  0  0  0  0  0  0
  148.0385  138.0531  154.5806 H   0  0  0  0  0  0  0  0  0  0  0  0
  1  2  2  0  0  0  0
  2  3  1  0  0  0  0
  2 10  1  0  0  0  0
  3  4  1  0  0  0  0
  3 26  1  0  0  0  0
  4  9  1  0  0  0  0
  4  5  2  0  0  0  0
  5  6  1  0  0  0  0
  5 27  1  0  0  0  0
  6  7  2  0  0  0  0
  6 28  1  0  0  0  0
  7  8  1  0  0  0  0
  8  9  2  0  0  0  0
  8 29  1  0  0  0  0
  9 30  1  0  0  0  0
 10 11  1  0  0  0  0
 10 31  1  0  0  0  0
 11 25  1  0  0  0  0
 11 12  1  0  0  0  0
 11 32  1  0  0  0  0
 12 13  1  0  0  0  0
 12 33  1  0  0  0  0
 12 34  1  0  0  0  0
 13 14  1  0  0  0  0
 13 35  1  0  0  0  0
 13 36  1  0  0  0  0
 14 15  1  0  0  0  0
 14 24  1  0  0  0  0
 15 16  2  0  0  0  0
 15 17  1  0  0  0  0
 17 18  1  0  0  0  0
 17 37  1  0  0  0  0
 18 23  1  0  0  0  0
 18 19  1  0  0  0  0
 18 38  1  0  0  0  0
 19 20  1  0  0  0  0
 19 39  1  0  0  0  0
 19 40  1  0  0  0  0
 20 21  1  0  0  0  0
 20 41  1  0  0  0  0
 20 42  1  0  0  0  0
 21 22  1  0  0  0  0
 21 43  1  0  0  0  0
 21 44  1  0  0  0  0
 22 23  1  0  0  0  0
 22 45  1  0  0  0  0
 22 46  1  0  0  0  0
 23 47  1  0  0  0  0
 23 48  1  0  0  0  0
 24 25  1  0  0  0  0
 24 49  1  0  0  0  0
 24 50  1  0  0  0  0
 25 51  1  0  0  0  0
 25 52  1  0  0  0  0
M  END
> <s_m_source_file>
AV-unprocessed.smi

> <i_m_source_file_index>
1733

> <i_lp_mmshare_version>
43012

> <i_f3d_flags>
0

> <s_epik_input>
W2NIXTFbY0hdbltjSF1bY0hdYzFbTkhdQyg9TylbTkhdW0NIXTJbQ0gyXVtDSDJdTihbQ0gyXVtDSDJdMilDKD1PKVtOSF1bQ0hdM1tDSDJdW0NIMl1bQ0gyXVtDSDJdW0NIMl0z

> <s_epik_cmdline>
J2VwaWtfcHl0aG9uJywgJy1waCcsICc3LjAnLCAnLXRuJywgJzgnLCAnLW1hJywgJzIwMCcsICctbWV0YWxfYmluZGluZycsICctaW1hZScsICc8aW5maWxlLm1hZT4nLCAnLW9tYWUnLCAnPG91dGZpbGUubWFlPic=

> <r_epik_Ionization_Penalty>
0.116111

> <r_epik_Ionization_Penalty_Charging>
0

> <r_epik_Ionization_Penalty_Neutral>
0.116111

> <r_epik_State_Penalty>
0.105631

> <r_epik_Charging_Adjusted_Penalty>
0.105631

> <i_epik_Tot_Q>
0

> <i_epik_Tot_abs_Q>
0

> <r_epik_Metal_State_Penalty>
0.0881896

> <b_epik_Metal_Only>
0

> <s_lp_Force_Field>
OPLS_2005

> <r_lp_Energy>
42.5008

> <b_lp_Chiralities_Consistent>
1

> <s_lp_Variant>
AV-unprocessed.smi:1733-1

> <Gold.Version>
5.8.1

> <Gold.Id.Protein>
6NUR|6NUR_protein|mol2

> <Gold.PLP.Fitness>
54.5472

> <Gold.PLP.PLP>
-40.7835

> <Gold.PLP.part.hbond>
-4.9231

> <Gold.PLP.part.metal>
0.0000

> <Gold.PLP.part.buried>
-1.6950

> <Gold.PLP.part.nonpolar>
-34.9860

> <Gold.PLP.part.repulsive>
0.6792

> <Gold.PLP.ligand.clash>
0.0000

> <Gold.PLP.ligand.torsion>
0.3928

> <Gold.PLP.Chemscore.Hbond>
2.9768

> <Gold.PLP.Chemscore.CHOScore>
1.8548

> <Gold.PLP.Chemscore.Metal>
0.0000

> <Gold.Chemscore.Hbonds>
donor molecule, donor type, donor heavy atom, donor atom, acceptor molecule, acceptor atom, score
      L1  H     3    26       P1  7948  0.88
      L1  H    10    31       P1  7948  0.88
      P1  H  7989  7998       L1    16  0.27
      P1  H  8011  8017       L1    16  0.64
      P1  H 10785 10796       L1     7  0.08
      L1  C     6    28       P1 10747  0.75
      L1  C     8    29       P1 10186  1.00

> <Gold.PLP.Chemscore.Internal.Correction>
0.0547

> <Gold.Rescore>
     Score         DG    S(hbond)    S(metal)    S(lipo)     H(rot)  DE(clash)    DE(int)     intcor
     22.68     -24.46       2.80        0.00     109.18       1.23       0.39       1.39       ----

> <Gold.Chemscore.Fitness>
22.6809

> <Gold.Chemscore.DG>
-24.4551

> <Gold.Chemscore.ZeroCoef>
-5.4800

> <Gold.Chemscore.Hbond>
2.7994

> <Gold.Chemscore.Metal>
0.0000

> <Gold.Chemscore.Lipo>
109.1761

> <Gold.Chemscore.Internal_Hbond>
0.0000

> <Gold.Chemscore.DEClash>
0.3871

> <Gold.Chemscore.DEInternal>
1.3871

> <Gold.Chemscore.Rot>
1.2298

> <Gold.Chemscore.Internal.Correction>
   9.000000E+99

> <Gold.Chemscore.Hbonds>
donor molecule, donor type, donor heavy atom, donor atom, acceptor molecule, acceptor atom, score
      L1  H     3    26       P1  7948  0.74
      L1  H    10    31       P1  7948  0.85
      P1  H  7989  7998       L1    16  0.26
      P1  H  8011  8017       L1    16  0.62
      P1  H 10785 10796       L1     7  0.07

> <Gold.Chemscore.Hbond.Weighted>
-9.3498

> <Gold.Chemscore.Metal.Weighted>
-0.0000

> <Gold.Chemscore.Lipo.Weighted>
-12.7736

> <Gold.Chemscore.Internal_Hbond.Weighted>
0.0000

> <Gold.Chemscore.DEClash.Weighted>
0.3871

> <Gold.Chemscore.DEInternal.Weighted>
1.3871

> <Gold.Chemscore.Rot.Weighted>
3.1483

> <Gold.Chemscore.Internal.Correction.Weighted>
   9.000000E+99

> <Gold.Protein.RotatedTorsions>
[ 6907 6896 6895 6894 ] final  174.69 input  -60.11 | X-H torsion
[ 7974 7965 7964 7962 ] final  106.50 input  175.53 | X-H torsion
[ 8008 7997 7996 7995 ] final   66.06 input   59.86 | X-H torsion
[ 10167 10162 10161 10158 ] final  123.21 input  -65.29 | X-H torsion
[ 10718 10713 10712 10709 ] final -169.12 input   66.30 | X-H torsion
[ 10763 10752 10751 10750 ] final -161.41 input  -60.55 | X-H torsion
[ 11005 11000 10999 10996 ] final -109.37 input  -57.11 | X-H torsion

> <Gold.Protein.ActiveResidues>
 VAL166  LYS551  ARG553  GLY616  TRP617  ASP618  TYR619  PRO620  LYS621  CYS622 
 ASP623  PHE694  ASN695  SER759  ASP760  ASP761  ALA762  ILE779  LEU786  VAL792 
 PHE793  MET794  SER795  GLU796  ALA797  LYS798  CYS799  TRP800  GLU811  SER814 

> <Gold.Protein.RotatedAtoms>
  151.7482  133.3326  159.3384 H   0  0  0  0  0  0  0  0  0  0  0  0  # atno 6907 bound_to 6896
  150.7546  134.6216  159.6148 H   0  0  0  0  0  0  0  0  0  0  0  0  # atno 6908 bound_to 6896
  152.3486  134.7039  160.0294 H   0  0  0  0  0  0  0  0  0  0  0  0  # atno 6909 bound_to 6896
  145.3058  139.2555  143.3789 H   0  0  0  0  0  0  0  0  0  0  0  0  # atno 7974 bound_to 7965
  155.6715  140.3497  155.4820 H   0  0  0  0  0  0  0  0  0  0  0  0  # atno 8008 bound_to 7997
  155.9684  140.1151  157.0856 H   0  0  0  0  0  0  0  0  0  0  0  0  # atno 8009 bound_to 7997
  154.4160  140.1162  156.5260 H   0  0  0  0  0  0  0  0  0  0  0  0  # atno 8010 bound_to 7997
  139.5813  144.6987  151.3522 H   0  0  0  0  0  0  0  0  0  0  0  0  # atno 10167 bound_to 10162
  156.7069  130.9218  151.3085 H   0  0  0  0  0  0  0  0  0  0  0  0  # atno 10718 bound_to 10713
  154.7306  135.3045  154.8897 H   0  0  0  0  0  0  0  0  0  0  0  0  # atno 10763 bound_to 10752
  153.9741  135.6738  153.4752 H   0  0  0  0  0  0  0  0  0  0  0  0  # atno 10764 bound_to 10752
  153.0915  135.4957  154.8619 H   0  0  0  0  0  0  0  0  0  0  0  0  # atno 10765 bound_to 10752
  141.0851  133.9153  157.2203 H   0  0  0  0  0  0  0  0  0  0  0  0  # atno 11005 bound_to 11000
  146.3136  140.3583  142.8662 LP  0  0  0  0  0  0  0  0  0  0  0  0  # atno 17320 bound_to 7965
  144.9056  140.7696  143.5839 LP  0  0  0  0  0  0  0  0  0  0  0  0  # atno 17321 bound_to 7965
  140.7091  143.7438  150.7534 LP  0  0  0  0  0  0  0  0  0  0  0  0  # atno 17342 bound_to 10162
  140.0971  143.4822  152.2446 LP  0  0  0  0  0  0  0  0  0  0  0  0  # atno 17343 bound_to 10162
  157.6951  130.9273  150.0622 LP  0  0  0  0  0  0  0  0  0  0  0  0  # atno 17370 bound_to 10713
  156.1688  130.3646  149.9194 LP  0  0  0  0  0  0  0  0  0  0  0  0  # atno 17371 bound_to 10713
  139.9668  135.0139  156.9409 LP  0  0  0  0  0  0  0  0  0  0  0  0  # atno 17394 bound_to 11000
  140.5381  134.0747  155.7334 LP  0  0  0  0  0  0  0  0  0  0  0  0  # atno 17395 bound_to 11000

$$$$
