AV-unprocessed.smi:888|AV-procd|sdf|4055|dock9
  -GOLD-   22720 1543D 1   1.00000     0.00000
 Structure written by MMmdl.
 45 46  0  0  0  0  0  0  0  0  1 V2000
  147.1228  122.2591  149.0840 C   0  0  0  0  0  0  0  0  0  0  0  0
  147.0945  123.7276  149.5208 C   0  0  0  0  0  0  0  0  0  0  0  0
  148.4517  124.2486  149.8803 C   0  0  0  0  0  0  0  0  0  0  0  0
  149.5723  123.5260  149.7622 N   0  0  0  0  0  0  0  0  0  0  0  0
  150.5963  124.3565  150.1725 N   0  0  0  0  0  0  0  0  0  0  0  0
  149.9926  125.5010  150.4892 C   0  0  0  0  0  0  0  0  0  0  0  0
  148.6608  125.5052  150.3264 N   0  0  0  0  0  0  0  0  0  0  0  0
  147.7278  126.5886  150.5756 C   0  0  0  0  0  0  0  0  0  0  0  0
  148.1309  127.4059  151.8099 C   0  0  0  0  0  0  0  0  0  0  0  0
  147.7871  128.8126  151.6246 N   0  0  0  0  0  0  0  0  0  0  0  0
  146.6194  129.4082  151.9206 C   0  0  0  0  0  0  0  0  0  0  0  0
  145.6746  128.7828  152.3977 O   0  0  0  0  0  0  0  0  0  0  0  0
  146.5806  130.7232  151.6438 N   0  0  0  0  0  0  0  0  0  0  0  0
  145.4406  131.6150  151.8642 C   0  0  1  0  0  0  0  0  0  0  0  0
  145.7135  132.4786  153.1096 C   0  0  0  0  0  0  0  0  0  0  0  0
  146.1340  133.8665  152.6066 C   0  0  0  0  0  0  0  0  0  0  0  0
  146.1676  133.7756  151.0781 C   0  0  0  0  0  0  0  0  0  0  0  0
  145.2258  132.6204  150.7021 C   0  0  0  0  0  0  0  0  0  0  0  0
  145.5485  132.0632  149.2986 C   0  0  0  0  0  0  0  0  0  0  0  0
  143.7625  133.1141  150.7016 C   0  0  0  0  0  0  0  0  0  0  0  0
  146.1209  121.9094  148.8346 H   0  0  0  0  0  0  0  0  0  0  0  0
  147.5113  121.6204  149.8779 H   0  0  0  0  0  0  0  0  0  0  0  0
  147.7524  122.1214  148.2048 H   0  0  0  0  0  0  0  0  0  0  0  0
  146.6588  124.3442  148.7348 H   0  0  0  0  0  0  0  0  0  0  0  0
  146.4416  123.8375  150.3872 H   0  0  0  0  0  0  0  0  0  0  0  0
  150.5379  126.3617  150.8482 H   0  0  0  0  0  0  0  0  0  0  0  0
  147.6979  127.2274  149.6916 H   0  0  0  0  0  0  0  0  0  0  0  0
  146.7267  126.1730  150.6953 H   0  0  0  0  0  0  0  0  0  0  0  0
  147.6236  127.0209  152.6960 H   0  0  0  0  0  0  0  0  0  0  0  0
  149.2044  127.3129  151.9833 H   0  0  0  0  0  0  0  0  0  0  0  0
  148.5077  129.3978  151.2268 H   0  0  0  0  0  0  0  0  0  0  0  0
  147.4089  131.1430  151.2480 H   0  0  0  0  0  0  0  0  0  0  0  0
  144.5426  131.0158  152.0274 H   0  0  0  0  0  0  0  0  0  0  0  0
  144.8043  132.5696  153.7052 H   0  0  0  0  0  0  0  0  0  0  0  0
  146.4710  132.0407  153.7616 H   0  0  0  0  0  0  0  0  0  0  0  0
  145.4025  134.6111  152.9228 H   0  0  0  0  0  0  0  0  0  0  0  0
  147.1010  134.1704  153.0083 H   0  0  0  0  0  0  0  0  0  0  0  0
  145.8971  134.7180  150.6005 H   0  0  0  0  0  0  0  0  0  0  0  0
  147.1853  133.5391  150.7639 H   0  0  0  0  0  0  0  0  0  0  0  0
  145.3526  132.8082  148.5268 H   0  0  0  0  0  0  0  0  0  0  0  0
  144.9383  131.1880  149.0729 H   0  0  0  0  0  0  0  0  0  0  0  0
  146.5947  131.7723  149.1998 H   0  0  0  0  0  0  0  0  0  0  0  0
  143.6063  133.8900  149.9515 H   0  0  0  0  0  0  0  0  0  0  0  0
  143.4680  133.5302  151.6653 H   0  0  0  0  0  0  0  0  0  0  0  0
  143.0737  132.2993  150.4763 H   0  0  0  0  0  0  0  0  0  0  0  0
  1  2  1  0  0  0  0
  1 21  1  0  0  0  0
  1 22  1  0  0  0  0
  1 23  1  0  0  0  0
  2  3  1  0  0  0  0
  2 24  1  0  0  0  0
  2 25  1  0  0  0  0
  3  7  1  0  0  0  0
  3  4  2  0  0  0  0
  4  5  1  0  0  0  0
  5  6  2  0  0  0  0
  6  7  1  0  0  0  0
  6 26  1  0  0  0  0
  7  8  1  0  0  0  0
  8  9  1  0  0  0  0
  8 27  1  0  0  0  0
  8 28  1  0  0  0  0
  9 10  1  0  0  0  0
  9 29  1  0  0  0  0
  9 30  1  0  0  0  0
 10 11  1  0  0  0  0
 10 31  1  0  0  0  0
 11 12  2  0  0  0  0
 11 13  1  0  0  0  0
 13 14  1  0  0  0  0
 13 32  1  0  0  0  0
 14 18  1  0  0  0  0
 14 15  1  0  0  0  0
 14 33  1  0  0  0  0
 15 16  1  0  0  0  0
 15 34  1  0  0  0  0
 15 35  1  0  0  0  0
 16 17  1  0  0  0  0
 16 36  1  0  0  0  0
 16 37  1  0  0  0  0
 17 18  1  0  0  0  0
 17 38  1  0  0  0  0
 17 39  1  0  0  0  0
 18 19  1  0  0  0  0
 18 20  1  0  0  0  0
 19 40  1  0  0  0  0
 19 41  1  0  0  0  0
 19 42  1  0  0  0  0
 20 43  1  0  0  0  0
 20 44  1  0  0  0  0
 20 45  1  0  0  0  0
M  END
> <s_m_source_file>
AV-unprocessed.smi

> <i_m_source_file_index>
888

> <i_lp_mmshare_version>
43012

> <i_f3d_flags>
0

> <s_epik_input>
W0NIM11bQ0gyXWMxbm5bY0hdbjFbQ0gyXVtDSDJdW05IXUMoPU8pW05IXVtDQEBIXShDMihbQ0gzXSlbQ0gzXSlbQ0gyXVtDSDJdW0NIMl0y

> <s_epik_cmdline>
J2VwaWtfcHl0aG9uJywgJy1waCcsICc3LjAnLCAnLXRuJywgJzgnLCAnLW1hJywgJzIwMCcsICctbWV0YWxfYmluZGluZycsICctaW1hZScsICc8aW5maWxlLm1hZT4nLCAnLW9tYWUnLCAnPG91dGZpbGUubWFlPic=

> <r_lp_tautomer_probability>
1

> <r_epik_Ionization_Penalty>
0.000379534

> <r_epik_Ionization_Penalty_Charging>
0

> <r_epik_Ionization_Penalty_Neutral>
0.000379534

> <r_epik_State_Penalty>
-0

> <r_epik_Charging_Adjusted_Penalty>
0

> <i_epik_Tot_Q>
0

> <i_epik_Tot_abs_Q>
0

> <r_epik_Metal_State_Penalty>
-0

> <b_epik_Metal_Only>
0

> <s_lp_Force_Field>
OPLS_2005

> <r_lp_Energy>
32.1677

> <b_lp_Chiralities_Consistent>
1

> <s_lp_Variant>
AV-unprocessed.smi:888-2

> <Gold.Version>
5.8.1

> <Gold.Id.Protein>
6NUR|6NUR_protein|mol2

> <Gold.PLP.Fitness>
46.7409

> <Gold.PLP.PLP>
-40.7013

> <Gold.PLP.part.hbond>
-2.0000

> <Gold.PLP.part.metal>
0.0000

> <Gold.PLP.part.buried>
-6.0159

> <Gold.PLP.part.nonpolar>
-32.2409

> <Gold.PLP.part.repulsive>
0.3557

> <Gold.PLP.ligand.clash>
0.0000

> <Gold.PLP.ligand.torsion>
0.9853

> <Gold.PLP.Chemscore.Hbond>
1.6620

> <Gold.PLP.Chemscore.CHOScore>
1.0000

> <Gold.PLP.Chemscore.Metal>
0.0000

> <Gold.Chemscore.Hbonds>
donor molecule, donor type, donor heavy atom, donor atom, acceptor molecule, acceptor atom, score
      L1  H    10    31       P1 10747  0.75
      L1  H    13    32       P1 10747  0.91
      L1  C     6    26       P1 10737  1.00

> <Gold.PLP.Chemscore.Internal.Correction>
0.0242

> <Gold.Rescore>
     Score         DG    S(hbond)    S(metal)    S(lipo)     H(rot)  DE(clash)    DE(int)     intcor
     13.15     -14.29       1.09        0.00      88.67       2.03       0.24       0.90       ----

> <Gold.Chemscore.Fitness>
13.1545

> <Gold.Chemscore.DG>
-14.2909

> <Gold.Chemscore.ZeroCoef>
-5.4800

> <Gold.Chemscore.Hbond>
1.0872

> <Gold.Chemscore.Metal>
0.0000

> <Gold.Chemscore.Lipo>
88.6732

> <Gold.Chemscore.Internal_Hbond>
0.0000

> <Gold.Chemscore.DEClash>
0.2379

> <Gold.Chemscore.DEInternal>
0.8985

> <Gold.Chemscore.Rot>
2.0293

> <Gold.Chemscore.Internal.Correction>
   9.000000E+99

> <Gold.Chemscore.Hbonds>
donor molecule, donor type, donor heavy atom, donor atom, acceptor molecule, acceptor atom, score
      L1  H    10    31       P1 10747  0.09
      L1  H    13    32       P1 10747  0.90

> <Gold.Chemscore.Hbond.Weighted>
-3.6312

> <Gold.Chemscore.Metal.Weighted>
-0.0000

> <Gold.Chemscore.Lipo.Weighted>
-10.3748

> <Gold.Chemscore.Internal_Hbond.Weighted>
0.0000

> <Gold.Chemscore.DEClash.Weighted>
0.2379

> <Gold.Chemscore.DEInternal.Weighted>
0.8985

> <Gold.Chemscore.Rot.Weighted>
5.1950

> <Gold.Chemscore.Internal.Correction.Weighted>
   9.000000E+99

> <Gold.Protein.RotatedTorsions>
[ 6907 6896 6895 6894 ] final  163.83 input  -60.11 | X-H torsion
[ 7974 7965 7964 7962 ] final   96.33 input  175.53 | X-H torsion
[ 8008 7997 7996 7995 ] final   99.82 input   59.86 | X-H torsion
[ 10167 10162 10161 10158 ] final  152.65 input  -65.29 | X-H torsion
[ 10718 10713 10712 10709 ] final -138.67 input   66.30 | X-H torsion
[ 10763 10752 10751 10750 ] final   88.98 input  -60.55 | X-H torsion
[ 11005 11000 10999 10996 ] final    3.19 input  -57.11 | X-H torsion

> <Gold.Protein.ActiveResidues>
 VAL166  LYS551  ARG553  GLY616  TRP617  ASP618  TYR619  PRO620  LYS621  CYS622 
 ASP623  PHE694  ASN695  SER759  ASP760  ASP761  ALA762  ILE779  LEU786  VAL792 
 PHE793  MET794  SER795  GLU796  ALA797  LYS798  CYS799  TRP800  GLU811  SER814 

> <Gold.Protein.RotatedAtoms>
  151.9192  133.3581  159.3890 H   0  0  0  0  0  0  0  0  0  0  0  0  # atno 6907 bound_to 6896
  150.7040  134.4652  159.5409 H   0  0  0  0  0  0  0  0  0  0  0  0  # atno 6908 bound_to 6896
  152.2272  134.8356  160.0529 H   0  0  0  0  0  0  0  0  0  0  0  0  # atno 6909 bound_to 6896
  145.4403  139.2302  143.3096 H   0  0  0  0  0  0  0  0  0  0  0  0  # atno 7974 bound_to 7965
  156.1143  140.3223  155.8116 H   0  0  0  0  0  0  0  0  0  0  0  0  # atno 8008 bound_to 7997
  155.4618  140.0540  157.3007 H   0  0  0  0  0  0  0  0  0  0  0  0  # atno 8009 bound_to 7997
  154.4782  140.2041  155.9842 H   0  0  0  0  0  0  0  0  0  0  0  0  # atno 8010 bound_to 7997
  139.4831  144.5340  151.7676 H   0  0  0  0  0  0  0  0  0  0  0  0  # atno 10167 bound_to 10162
  156.3020  130.7434  151.1488 H   0  0  0  0  0  0  0  0  0  0  0  0  # atno 10718 bound_to 10713
  153.1824  135.4487  155.0045 H   0  0  0  0  0  0  0  0  0  0  0  0  # atno 10763 bound_to 10752
  154.8038  135.3266  154.7484 H   0  0  0  0  0  0  0  0  0  0  0  0  # atno 10764 bound_to 10752
  153.7947  135.6967  153.4920 H   0  0  0  0  0  0  0  0  0  0  0  0  # atno 10765 bound_to 10752
  140.5959  133.9881  155.8109 H   0  0  0  0  0  0  0  0  0  0  0  0  # atno 11005 bound_to 11000
  146.2560  140.5150  142.8873 LP  0  0  0  0  0  0  0  0  0  0  0  0  # atno 17320 bound_to 7965
  144.8126  140.6412  143.6405 LP  0  0  0  0  0  0  0  0  0  0  0  0  # atno 17321 bound_to 7965
  140.4870  144.1367  150.5943 LP  0  0  0  0  0  0  0  0  0  0  0  0  # atno 17342 bound_to 10162
  140.4214  143.2610  151.9710 LP  0  0  0  0  0  0  0  0  0  0  0  0  # atno 17343 bound_to 10162
  157.7370  131.0556  150.5380 LP  0  0  0  0  0  0  0  0  0  0  0  0  # atno 17370 bound_to 10713
  156.5508  130.4231  149.6108 LP  0  0  0  0  0  0  0  0  0  0  0  0  # atno 17371 bound_to 10713
  141.0904  133.9925  157.3245 LP  0  0  0  0  0  0  0  0  0  0  0  0  # atno 17394 bound_to 11000
  139.9254  135.0201  156.8214 LP  0  0  0  0  0  0  0  0  0  0  0  0  # atno 17395 bound_to 11000

$$$$
