AV-unprocessed.smi:1081|AV-procd|sdf|4710|dock1
  -GOLD-   22720 3233D 1   1.00000     0.00000
 Structure written by MMmdl.
 52 54  0  0  0  0  0  0  0  0  1 V2000
  146.8362  139.8351  153.6298 O   0  0  0  0  0  0  0  0  0  0  0  0
  147.5681  138.9291  153.2326 C   0  0  0  0  0  0  0  0  0  0  0  0
  147.1819  138.0131  152.3318 N   0  0  0  0  0  0  0  0  0  0  0  0
  145.8605  137.9520  151.7080 C   0  0  0  0  0  0  0  0  0  0  0  0
  144.9154  136.9218  152.3574 C   0  0  0  0  0  0  0  0  0  0  0  0
  144.4011  137.1855  153.4463 O   0  0  0  0  0  0  0  0  0  0  0  0
  144.6825  135.7498  151.7171 N   0  0  0  0  0  0  0  0  0  0  0  0
  145.3243  135.3148  150.4677 C   0  0  0  0  0  0  0  0  0  0  0  0
  146.2586  134.1292  150.7721 C   0  0  0  0  0  0  0  0  0  0  0  0
  145.4913  132.9833  151.4574 C   0  0  0  0  0  0  0  0  0  0  0  0
  144.6776  133.4889  152.6628 C   0  0  0  0  0  0  0  0  0  0  0  0
  143.8144  134.7025  152.2732 C   0  0  0  0  0  0  0  0  0  0  0  0
  148.8317  138.7094  153.6352 N   0  0  0  0  0  0  0  0  0  0  0  0
  149.6144  139.4316  154.5778 C   0  0  0  0  0  0  0  0  0  0  0  0
  151.0115  139.2883  154.7492 C   0  0  0  0  0  0  0  0  0  0  0  0
  151.6614  140.0624  155.7294 C   0  0  0  0  0  0  0  0  0  0  0  0
  150.9042  140.9576  156.5200 C   0  0  0  0  0  0  0  0  0  0  0  0
  151.5420  141.7435  157.5034 N   0  0  0  0  0  0  0  0  0  0  0  0
  151.2335  143.1738  157.4518 C   0  0  0  0  0  0  0  0  0  0  0  0
  152.2506  143.9914  158.2665 C   0  0  0  0  0  0  0  0  0  0  0  0
  152.3638  143.4613  159.7036 C   0  0  0  0  0  0  0  0  0  0  0  0
  152.6941  141.9615  159.6859 C   0  0  0  0  0  0  0  0  0  0  0  0
  151.6666  141.1796  158.8497 C   0  0  0  0  0  0  0  0  0  0  0  0
  149.5638  141.0823  156.3638 N   0  0  0  0  0  0  0  0  0  0  0  0
  148.9455  140.3402  155.4219 C   0  0  0  0  0  0  0  0  0  0  0  0
  147.8419  137.2965  152.0681 H   0  0  0  0  0  0  0  0  0  0  0  0
  145.4059  138.9436  151.7397 H   0  0  0  0  0  0  0  0  0  0  0  0
  145.9974  137.6937  150.6575 H   0  0  0  0  0  0  0  0  0  0  0  0
  144.5530  135.0089  149.7594 H   0  0  0  0  0  0  0  0  0  0  0  0
  145.8872  136.0978  149.9625 H   0  0  0  0  0  0  0  0  0  0  0  0
  146.7212  133.7699  149.8526 H   0  0  0  0  0  0  0  0  0  0  0  0
  147.0716  134.4632  151.4181 H   0  0  0  0  0  0  0  0  0  0  0  0
  144.8126  132.5272  150.7355 H   0  0  0  0  0  0  0  0  0  0  0  0
  146.1814  132.1992  151.7696 H   0  0  0  0  0  0  0  0  0  0  0  0
  144.0474  132.6882  153.0507 H   0  0  0  0  0  0  0  0  0  0  0  0
  145.3551  133.7693  153.4706 H   0  0  0  0  0  0  0  0  0  0  0  0
  143.2404  135.0390  153.1373 H   0  0  0  0  0  0  0  0  0  0  0  0
  143.0765  134.4126  151.5238 H   0  0  0  0  0  0  0  0  0  0  0  0
  149.2801  137.8940  153.2443 H   0  0  0  0  0  0  0  0  0  0  0  0
  151.6005  138.5989  154.1663 H   0  0  0  0  0  0  0  0  0  0  0  0
  152.7254  139.9503  155.8755 H   0  0  0  0  0  0  0  0  0  0  0  0
  151.2204  143.5461  156.4282 H   0  0  0  0  0  0  0  0  0  0  0  0
  150.2298  143.3263  157.8509 H   0  0  0  0  0  0  0  0  0  0  0  0
  153.2268  143.9439  157.7820 H   0  0  0  0  0  0  0  0  0  0  0  0
  151.9604  145.0424  158.2768 H   0  0  0  0  0  0  0  0  0  0  0  0
  153.1322  144.0103  160.2487 H   0  0  0  0  0  0  0  0  0  0  0  0
  151.4243  143.6255  160.2328 H   0  0  0  0  0  0  0  0  0  0  0  0
  153.6913  141.8128  159.2695 H   0  0  0  0  0  0  0  0  0  0  0  0
  152.7221  141.5710  160.7034 H   0  0  0  0  0  0  0  0  0  0  0  0
  150.6919  141.2029  159.3391 H   0  0  0  0  0  0  0  0  0  0  0  0
  151.9749  140.1348  158.7928 H   0  0  0  0  0  0  0  0  0  0  0  0
  147.8774  140.4802  155.3399 H   0  0  0  0  0  0  0  0  0  0  0  0
  1  2  2  0  0  0  0
  2  3  1  0  0  0  0
  2 13  1  0  0  0  0
  3  4  1  0  0  0  0
  3 26  1  0  0  0  0
  4  5  1  0  0  0  0
  4 27  1  0  0  0  0
  4 28  1  0  0  0  0
  5  6  2  0  0  0  0
  5  7  1  0  0  0  0
  7 12  1  0  0  0  0
  7  8  1  0  0  0  0
  8  9  1  0  0  0  0
  8 29  1  0  0  0  0
  8 30  1  0  0  0  0
  9 10  1  0  0  0  0
  9 31  1  0  0  0  0
  9 32  1  0  0  0  0
 10 11  1  0  0  0  0
 10 33  1  0  0  0  0
 10 34  1  0  0  0  0
 11 12  1  0  0  0  0
 11 35  1  0  0  0  0
 11 36  1  0  0  0  0
 12 37  1  0  0  0  0
 12 38  1  0  0  0  0
 13 14  1  0  0  0  0
 13 39  1  0  0  0  0
 14 25  1  0  0  0  0
 14 15  2  0  0  0  0
 15 16  1  0  0  0  0
 15 40  1  0  0  0  0
 16 17  2  0  0  0  0
 16 41  1  0  0  0  0
 17 18  1  0  0  0  0
 17 24  1  0  0  0  0
 18 23  1  0  0  0  0
 18 19  1  0  0  0  0
 19 20  1  0  0  0  0
 19 42  1  0  0  0  0
 19 43  1  0  0  0  0
 20 21  1  0  0  0  0
 20 44  1  0  0  0  0
 20 45  1  0  0  0  0
 21 22  1  0  0  0  0
 21 46  1  0  0  0  0
 21 47  1  0  0  0  0
 22 23  1  0  0  0  0
 22 48  1  0  0  0  0
 22 49  1  0  0  0  0
 23 50  1  0  0  0  0
 23 51  1  0  0  0  0
 24 25  2  0  0  0  0
 25 52  1  0  0  0  0
M  END
> <s_m_source_file>
AV-unprocessed.smi

> <i_m_source_file_index>
1081

> <i_lp_mmshare_version>
43012

> <i_f3d_flags>
0

> <s_epik_input>
W0NIMl0xW0NIMl1bQ0gyXVtDSDJdW0NIMl1OMUMoPU8pW0NIMl1bTkhdQyg9TylbTkhdYzJbY0hdW2NIXWMobltjSF0yKU4zW0NIMl1bQ0gyXVtDSDJdW0NIMl1bQ0gyXTM=

> <s_epik_cmdline>
J2VwaWtfcHl0aG9uJywgJy1waCcsICc3LjAnLCAnLXRuJywgJzgnLCAnLW1hJywgJzIwMCcsICctbWV0YWxfYmluZGluZycsICctaW1hZScsICc8aW5maWxlLm1hZT4nLCAnLW9tYWUnLCAnPG91dGZpbGUubWFlPic=

> <r_lp_tautomer_probability>
1

> <r_epik_Ionization_Penalty>
0.2566

> <r_epik_Ionization_Penalty_Charging>
0

> <r_epik_Ionization_Penalty_Neutral>
0.2566

> <r_epik_State_Penalty>
0.242651

> <r_epik_Charging_Adjusted_Penalty>
0.242651

> <i_epik_Tot_Q>
0

> <i_epik_Tot_abs_Q>
0

> <r_epik_Metal_State_Penalty>
0.169478

> <b_epik_Metal_Only>
0

> <s_lp_Force_Field>
OPLS_2005

> <r_lp_Energy>
36.1946

> <b_lp_Chiralities_Consistent>
1

> <s_lp_Variant>
AV-unprocessed.smi:1081-1

> <Gold.Version>
5.8.1

> <Gold.Id.Protein>
6NUR|6NUR_protein|mol2

> <Gold.PLP.Fitness>
50.1845

> <Gold.PLP.PLP>
-46.4963

> <Gold.PLP.part.hbond>
-3.0061

> <Gold.PLP.part.metal>
0.0000

> <Gold.PLP.part.buried>
1.8164

> <Gold.PLP.part.nonpolar>
-44.9297

> <Gold.PLP.part.repulsive>
0.5403

> <Gold.PLP.ligand.clash>
0.0000

> <Gold.PLP.ligand.torsion>
0.8468

> <Gold.PLP.Chemscore.Hbond>
1.6435

> <Gold.PLP.Chemscore.CHOScore>
0.0000

> <Gold.PLP.Chemscore.Metal>
0.0000

> <Gold.Chemscore.Hbonds>
donor molecule, donor type, donor heavy atom, donor atom, acceptor molecule, acceptor atom, score
      L1  H     3    26       P1  7948  1.00
      L1  H    13    39       P1  7948  0.59

> <Gold.PLP.Chemscore.Internal.Correction>
0.4512

> <Gold.Rescore>
     Score         DG    S(hbond)    S(metal)    S(lipo)     H(rot)  DE(clash)    DE(int)     intcor
     17.76     -21.23       1.75        0.00     115.63       1.41       1.42       2.05       ----

> <Gold.Chemscore.Fitness>
17.7635

> <Gold.Chemscore.DG>
-21.2338

> <Gold.Chemscore.ZeroCoef>
-5.4800

> <Gold.Chemscore.Hbond>
1.7478

> <Gold.Chemscore.Metal>
0.0000

> <Gold.Chemscore.Lipo>
115.6251

> <Gold.Chemscore.Internal_Hbond>
0.0000

> <Gold.Chemscore.DEClash>
1.4207

> <Gold.Chemscore.DEInternal>
2.0496

> <Gold.Chemscore.Rot>
1.4109

> <Gold.Chemscore.Internal.Correction>
   9.000000E+99

> <Gold.Chemscore.Hbonds>
donor molecule, donor type, donor heavy atom, donor atom, acceptor molecule, acceptor atom, score
      L1  H     3    26       P1  7948  0.93
      L1  H    13    39       P1  7948  0.57

> <Gold.Chemscore.Hbond.Weighted>
-5.8375

> <Gold.Chemscore.Metal.Weighted>
-0.0000

> <Gold.Chemscore.Lipo.Weighted>
-13.5281

> <Gold.Chemscore.Internal_Hbond.Weighted>
0.0000

> <Gold.Chemscore.DEClash.Weighted>
1.4207

> <Gold.Chemscore.DEInternal.Weighted>
2.0496

> <Gold.Chemscore.Rot.Weighted>
3.6118

> <Gold.Chemscore.Internal.Correction.Weighted>
   9.000000E+99

> <Gold.Protein.RotatedTorsions>
[ 6907 6896 6895 6894 ] final  -75.68 input  -60.11 | X-H torsion
[ 7974 7965 7964 7962 ] final   -9.47 input  175.53 | X-H torsion
[ 8008 7997 7996 7995 ] final  -71.28 input   59.86 | X-H torsion
[ 10167 10162 10161 10158 ] final -167.37 input  -65.29 | X-H torsion
[ 10718 10713 10712 10709 ] final   48.42 input   66.30 | X-H torsion
[ 10763 10752 10751 10750 ] final   14.69 input  -60.55 | X-H torsion
[ 11005 11000 10999 10996 ] final -124.95 input  -57.11 | X-H torsion

> <Gold.Protein.ActiveResidues>
 VAL166  LYS551  ARG553  GLY616  TRP617  ASP618  TYR619  PRO620  LYS621  CYS622 
 ASP623  PHE694  ASN695  SER759  ASP760  ASP761  ALA762  ILE779  LEU786  VAL792 
 PHE793  MET794  SER795  GLU796  ALA797  LYS798  CYS799  TRP800  GLU811  SER814 

> <Gold.Protein.RotatedAtoms>
  150.7051  134.4684  159.5413 H   0  0  0  0  0  0  0  0  0  0  0  0  # atno 6907 bound_to 6896
  152.2345  134.8286  160.0478 H   0  0  0  0  0  0  0  0  0  0  0  0  # atno 6908 bound_to 6896
  151.9090  133.3521  159.3894 H   0  0  0  0  0  0  0  0  0  0  0  0  # atno 6909 bound_to 6896
  146.2251  140.2621  142.8352 H   0  0  0  0  0  0  0  0  0  0  0  0  # atno 7974 bound_to 7965
  154.5075  140.0818  156.7924 H   0  0  0  0  0  0  0  0  0  0  0  0  # atno 8008 bound_to 7997
  155.3859  140.3430  155.4231 H   0  0  0  0  0  0  0  0  0  0  0  0  # atno 8009 bound_to 7997
  156.1534  140.1565  156.8720 H   0  0  0  0  0  0  0  0  0  0  0  0  # atno 8010 bound_to 7997
  139.6054  144.0924  152.1787 H   0  0  0  0  0  0  0  0  0  0  0  0  # atno 10167 bound_to 10162
  157.4684  130.8240  149.7961 H   0  0  0  0  0  0  0  0  0  0  0  0  # atno 10718 bound_to 10713
  153.1597  135.6794  153.8760 H   0  0  0  0  0  0  0  0  0  0  0  0  # atno 10763 bound_to 10752
  153.8159  135.3136  155.3406 H   0  0  0  0  0  0  0  0  0  0  0  0  # atno 10764 bound_to 10752
  154.7924  135.4827  154.0171 H   0  0  0  0  0  0  0  0  0  0  0  0  # atno 10765 bound_to 10752
  140.9800  134.0686  157.3775 H   0  0  0  0  0  0  0  0  0  0  0  0  # atno 11005 bound_to 11000
  144.9332  140.7998  143.5676 LP  0  0  0  0  0  0  0  0  0  0  0  0  # atno 17320 bound_to 7965
  145.2566  139.2009  143.4914 LP  0  0  0  0  0  0  0  0  0  0  0  0  # atno 17321 bound_to 7965
  140.0530  144.5917  150.7321 LP  0  0  0  0  0  0  0  0  0  0  0  0  # atno 17342 bound_to 10162
  140.7281  143.2658  151.4050 LP  0  0  0  0  0  0  0  0  0  0  0  0  # atno 17343 bound_to 10162
  156.0061  130.3855  150.2425 LP  0  0  0  0  0  0  0  0  0  0  0  0  # atno 17370 bound_to 10713
  157.0606  131.0089  151.3223 LP  0  0  0  0  0  0  0  0  0  0  0  0  # atno 17371 bound_to 10713
  139.8946  135.0137  156.6961 LP  0  0  0  0  0  0  0  0  0  0  0  0  # atno 17394 bound_to 11000
  140.7200  133.9149  155.8140 LP  0  0  0  0  0  0  0  0  0  0  0  0  # atno 17395 bound_to 11000

$$$$
