AV-unprocessed.smi:178|AV-procd|sdf|1446|dock5
  -GOLD-   2262019233D 1   1.00000     0.00000
 Structure written by MMmdl.
 50 52  0  0  0  0  0  0  0  0  1 V2000
  151.3784  145.4334  159.9346 C   0  0  0  0  0  0  0  0  0  0  0  0
  152.5269  144.6865  159.5737 O   0  0  0  0  0  0  0  0  0  0  0  0
  152.2800  143.2915  159.5447 C   0  0  0  0  0  0  0  0  0  0  0  0
  151.7774  142.9112  158.1434 C   0  0  0  0  0  0  0  0  0  0  0  0
  151.4542  141.4873  158.0236 N   0  0  0  0  0  0  0  0  0  0  0  0
  151.7272  140.6128  159.1615 C   0  0  0  0  0  0  0  0  0  0  0  0
  153.2185  140.2821  159.3073 C   0  0  0  0  0  0  0  0  0  0  0  0
  153.8142  140.8979  160.5016 C   0  0  0  0  0  0  0  0  0  0  0  0
  154.2832  141.3826  161.4417 N   0  0  0  0  0  0  0  0  0  0  0  0
  151.0505  140.9802  156.8219 C   0  0  0  0  0  0  0  0  0  0  0  0
  151.9101  140.1633  156.1551 N   0  0  0  0  0  0  0  0  0  0  0  0
  151.5848  139.6403  154.9709 C   0  0  0  0  0  0  0  0  0  0  0  0
  150.4612  139.7974  154.2726 N   0  0  0  0  0  0  0  0  0  0  0  0
  149.5832  140.6069  154.9291 C   0  0  0  0  0  0  0  0  0  0  0  0
  149.7906  141.2349  156.1934 C   0  0  0  0  0  0  0  0  0  0  0  0
  148.6568  141.9700  156.5279 N   0  0  0  0  0  0  0  0  0  0  0  0
  147.8421  141.7977  155.5247 C   0  0  0  0  0  0  0  0  0  0  0  0
  148.3173  140.9886  154.5204 N   0  0  0  0  0  0  0  0  0  0  0  0
  147.6237  140.6287  153.2932 C   0  0  0  0  0  0  0  0  0  0  0  0
  147.3022  139.1192  153.1873 C   0  0  2  0  0  0  0  0  0  0  0  0
  148.5230  138.3957  153.2005 O   0  0  0  0  0  0  0  0  0  0  0  0
  146.5266  138.7360  151.9359 C   0  0  0  0  0  0  0  0  0  0  0  0
  145.8489  137.4370  152.3527 C   0  0  0  0  0  0  0  0  0  0  0  0
  145.5174  137.6250  153.7222 O   0  0  0  0  0  0  0  0  0  0  0  0
  146.3586  138.6200  154.3044 C   0  0  1  0  0  0  0  0  0  0  0  0
  147.0250  138.0911  155.5847 C   0  0  0  0  0  0  0  0  0  0  0  0
  151.6185  146.4965  159.9372 H   0  0  0  0  0  0  0  0  0  0  0  0
  151.0311  145.1642  160.9330 H   0  0  0  0  0  0  0  0  0  0  0  0
  150.5649  145.2739  159.2257 H   0  0  0  0  0  0  0  0  0  0  0  0
  153.1951  142.7479  159.7836 H   0  0  0  0  0  0  0  0  0  0  0  0
  151.5383  143.0323  160.3006 H   0  0  0  0  0  0  0  0  0  0  0  0
  150.8829  143.4935  157.9205 H   0  0  0  0  0  0  0  0  0  0  0  0
  152.5078  143.2001  157.3870 H   0  0  0  0  0  0  0  0  0  0  0  0
  151.3847  141.1112  160.0689 H   0  0  0  0  0  0  0  0  0  0  0  0
  151.1294  139.7042  159.1005 H   0  0  0  0  0  0  0  0  0  0  0  0
  153.3768  139.2061  159.3748 H   0  0  0  0  0  0  0  0  0  0  0  0
  153.7769  140.6381  158.4421 H   0  0  0  0  0  0  0  0  0  0  0  0
  152.3329  139.0064  154.5183 H   0  0  0  0  0  0  0  0  0  0  0  0
  146.8633  142.2542  155.4917 H   0  0  0  0  0  0  0  0  0  0  0  0
  146.7053  141.2142  153.2342 H   0  0  0  0  0  0  0  0  0  0  0  0
  148.2398  140.9443  152.4503 H   0  0  0  0  0  0  0  0  0  0  0  0
  149.0381  138.6677  152.4560 H   0  0  0  0  0  0  0  0  0  0  0  0
  145.7617  139.4843  151.7240 H   0  0  0  0  0  0  0  0  0  0  0  0
  147.1486  138.6313  151.0456 H   0  0  0  0  0  0  0  0  0  0  0  0
  144.9661  137.2113  151.7543 H   0  0  0  0  0  0  0  0  0  0  0  0
  146.5412  136.5983  152.2683 H   0  0  0  0  0  0  0  0  0  0  0  0
  145.6894  139.4350  154.5835 H   0  0  0  0  0  0  0  0  0  0  0  0
  147.6760  138.8447  156.0281 H   0  0  0  0  0  0  0  0  0  0  0  0
  147.6217  137.1995  155.3911 H   0  0  0  0  0  0  0  0  0  0  0  0
  146.2727  137.8242  156.3274 H   0  0  0  0  0  0  0  0  0  0  0  0
  1  2  1  0  0  0  0
  1 27  1  0  0  0  0
  1 28  1  0  0  0  0
  1 29  1  0  0  0  0
  2  3  1  0  0  0  0
  3  4  1  0  0  0  0
  3 30  1  0  0  0  0
  3 31  1  0  0  0  0
  4  5  1  0  0  0  0
  4 32  1  0  0  0  0
  4 33  1  0  0  0  0
  5  6  1  0  0  0  0
  5 10  1  0  0  0  0
  6  7  1  0  0  0  0
  6 34  1  0  0  0  0
  6 35  1  0  0  0  0
  7  8  1  0  0  0  0
  7 36  1  0  0  0  0
  7 37  1  0  0  0  0
  8  9  3  0  0  0  0
 10 15  1  0  0  0  0
 10 11  2  0  0  0  0
 11 12  1  0  0  0  0
 12 13  2  0  0  0  0
 12 38  1  0  0  0  0
 13 14  1  0  0  0  0
 14 18  1  0  0  0  0
 14 15  2  0  0  0  0
 15 16  1  0  0  0  0
 16 17  2  0  0  0  0
 17 18  1  0  0  0  0
 17 39  1  0  0  0  0
 18 19  1  0  0  0  0
 19 20  1  0  0  0  0
 19 40  1  0  0  0  0
 19 41  1  0  0  0  0
 20 25  1  0  0  0  0
 20 21  1  0  0  0  0
 20 22  1  0  0  0  0
 21 42  1  0  0  0  0
 22 23  1  0  0  0  0
 22 43  1  0  0  0  0
 22 44  1  0  0  0  0
 23 24  1  0  0  0  0
 23 45  1  0  0  0  0
 23 46  1  0  0  0  0
 24 25  1  0  0  0  0
 25 26  1  0  0  0  0
 25 47  1  0  0  0  0
 26 48  1  0  0  0  0
 26 49  1  0  0  0  0
 26 50  1  0  0  0  0
M  END
> <s_m_source_file>
AV-unprocessed.smi

> <i_m_source_file_index>
178

> <i_lp_mmshare_version>
43012

> <i_f3d_flags>
0

> <s_epik_input>
W0NIM11PW0NIMl1bQ0gyXU4oW0NIMl1bQ0gyXUMjTiljKG5bY0hdbjEpYyhjMTIpbltjSF1uMltDSDJdW0NAQF0zKFtPSF0pW0NIMl1bQ0gyXU9bQ0BIXTNbQ0gzXQ==

> <s_epik_cmdline>
J2VwaWtfcHl0aG9uJywgJy1waCcsICc3LjAnLCAnLXRuJywgJzgnLCAnLW1hJywgJzIwMCcsICctbWV0YWxfYmluZGluZycsICctaW1hZScsICc8aW5maWxlLm1hZT4nLCAnLW9tYWUnLCAnPG91dGZpbGUubWFlPic=

> <r_lp_tautomer_probability>
1

> <r_epik_Ionization_Penalty>
0.000885317

> <r_epik_Ionization_Penalty_Charging>
0

> <r_epik_Ionization_Penalty_Neutral>
0.000885317

> <r_epik_State_Penalty>
0.00047273

> <r_epik_Charging_Adjusted_Penalty>
0.00047273

> <i_epik_Tot_Q>
0

> <i_epik_Tot_abs_Q>
0

> <r_epik_Metal_State_Penalty>
-0

> <b_epik_Metal_Only>
0

> <s_lp_Force_Field>
OPLS_2005

> <r_lp_Energy>
29.3608

> <b_lp_Chiralities_Consistent>
1

> <s_lp_Variant>
AV-unprocessed.smi:178-2

> <Gold.Version>
5.8.1

> <Gold.Id.Protein>
6NUR|6NUR_protein|mol2

> <Gold.PLP.Fitness>
45.6545

> <Gold.PLP.PLP>
-46.5623

> <Gold.PLP.part.hbond>
-3.6556

> <Gold.PLP.part.metal>
0.0000

> <Gold.PLP.part.buried>
-2.3274

> <Gold.PLP.part.nonpolar>
-43.0882

> <Gold.PLP.part.repulsive>
2.3042

> <Gold.PLP.ligand.clash>
0.0046

> <Gold.PLP.ligand.torsion>
2.1063

> <Gold.PLP.Chemscore.Hbond>
1.0000

> <Gold.PLP.Chemscore.CHOScore>
0.0000

> <Gold.PLP.Chemscore.Metal>
0.0000

> <Gold.Chemscore.Hbonds>
donor molecule, donor type, donor heavy atom, donor atom, acceptor molecule, acceptor atom, score
      L1  H    21    42       P1  7957  1.00

> <Gold.PLP.Chemscore.Internal.Correction>
0.3094

> <Gold.Rescore>
     Score         DG    S(hbond)    S(metal)    S(lipo)     H(rot)  DE(clash)    DE(int)     intcor
      5.94      -9.43       0.98        0.00      79.58       3.37       0.08       3.41       ----

> <Gold.Chemscore.Fitness>
5.9435

> <Gold.Chemscore.DG>
-9.4339

> <Gold.Chemscore.ZeroCoef>
-5.4800

> <Gold.Chemscore.Hbond>
0.9816

> <Gold.Chemscore.Metal>
0.0000

> <Gold.Chemscore.Lipo>
79.5801

> <Gold.Chemscore.Internal_Hbond>
0.0000

> <Gold.Chemscore.DEClash>
0.0763

> <Gold.Chemscore.DEInternal>
3.4142

> <Gold.Chemscore.Rot>
3.3732

> <Gold.Chemscore.Internal.Correction>
   9.000000E+99

> <Gold.Chemscore.Hbonds>
donor molecule, donor type, donor heavy atom, donor atom, acceptor molecule, acceptor atom, score
      L1  H    21    42       P1  7957  0.84

> <Gold.Chemscore.Hbond.Weighted>
-3.2784

> <Gold.Chemscore.Metal.Weighted>
-0.0000

> <Gold.Chemscore.Lipo.Weighted>
-9.3109

> <Gold.Chemscore.Internal_Hbond.Weighted>
0.0000

> <Gold.Chemscore.DEClash.Weighted>
0.0763

> <Gold.Chemscore.DEInternal.Weighted>
3.4142

> <Gold.Chemscore.Rot.Weighted>
8.6354

> <Gold.Chemscore.Internal.Correction.Weighted>
   9.000000E+99

> <Gold.Protein.RotatedTorsions>
[ 6907 6896 6895 6894 ] final   33.91 input  -60.11 | X-H torsion
[ 7974 7965 7964 7962 ] final  135.33 input  175.53 | X-H torsion
[ 8008 7997 7996 7995 ] final  -63.16 input   59.86 | X-H torsion
[ 10167 10162 10161 10158 ] final  -14.15 input  -65.29 | X-H torsion
[ 10718 10713 10712 10709 ] final  -94.53 input   66.30 | X-H torsion
[ 10763 10752 10751 10750 ] final  -41.36 input  -60.55 | X-H torsion
[ 11005 11000 10999 10996 ] final -105.06 input  -57.11 | X-H torsion

> <Gold.Protein.ActiveResidues>
 VAL166  LYS551  ARG553  GLY616  TRP617  ASP618  TYR619  PRO620  LYS621  CYS622 
 ASP623  PHE694  ASN695  SER759  ASP760  ASP761  ALA762  ILE779  LEU786  VAL792 
 PHE793  MET794  SER795  GLU796  ALA797  LYS798  CYS799  TRP800  GLU811  SER814 

> <Gold.Protein.RotatedAtoms>
  152.0951  134.9380  160.0570 H   0  0  0  0  0  0  0  0  0  0  0  0  # atno 6907 bound_to 6896
  152.0616  133.4060  159.4428 H   0  0  0  0  0  0  0  0  0  0  0  0  # atno 6908 bound_to 6896
  150.6838  134.3114  159.4791 H   0  0  0  0  0  0  0  0  0  0  0  0  # atno 6909 bound_to 6896
  144.9674  139.4643  143.5450 H   0  0  0  0  0  0  0  0  0  0  0  0  # atno 7974 bound_to 7965
  154.4539  140.0980  156.6700 H   0  0  0  0  0  0  0  0  0  0  0  0  # atno 8008 bound_to 7997
  155.5199  140.3478  155.4386 H   0  0  0  0  0  0  0  0  0  0  0  0  # atno 8009 bound_to 7997
  156.0738  140.1356  156.9785 H   0  0  0  0  0  0  0  0  0  0  0  0  # atno 8010 bound_to 7997
  140.7196  143.5351  150.9474 H   0  0  0  0  0  0  0  0  0  0  0  0  # atno 10167 bound_to 10162
  156.0028  130.5071  150.5941 H   0  0  0  0  0  0  0  0  0  0  0  0  # atno 10718 bound_to 10713
  153.9612  135.6739  153.4745 H   0  0  0  0  0  0  0  0  0  0  0  0  # atno 10763 bound_to 10752
  153.0837  135.4910  154.8551 H   0  0  0  0  0  0  0  0  0  0  0  0  # atno 10764 bound_to 10752
  154.7271  135.3130  154.8912 H   0  0  0  0  0  0  0  0  0  0  0  0  # atno 10765 bound_to 10752
  141.1071  133.8776  157.1688 H   0  0  0  0  0  0  0  0  0  0  0  0  # atno 11005 bound_to 11000
  146.3372  139.8864  142.8816 LP  0  0  0  0  0  0  0  0  0  0  0  0  # atno 17320 bound_to 7965
  145.2610  141.0077  143.3826 LP  0  0  0  0  0  0  0  0  0  0  0  0  # atno 17321 bound_to 7965
  139.9072  143.6764  152.3121 LP  0  0  0  0  0  0  0  0  0  0  0  0  # atno 17342 bound_to 10162
  139.7134  144.7616  151.1074 LP  0  0  0  0  0  0  0  0  0  0  0  0  # atno 17343 bound_to 10162
  157.3801  131.0779  151.1484 LP  0  0  0  0  0  0  0  0  0  0  0  0  # atno 17370 bound_to 10713
  157.2210  130.6481  149.5811 LP  0  0  0  0  0  0  0  0  0  0  0  0  # atno 17371 bound_to 10713
  139.9946  135.0051  157.0054 LP  0  0  0  0  0  0  0  0  0  0  0  0  # atno 17394 bound_to 11000
  140.4873  134.1228  155.7227 LP  0  0  0  0  0  0  0  0  0  0  0  0  # atno 17395 bound_to 11000

$$$$
