AV-unprocessed.smi:196|AV-procd|sdf|1535|dock7
  -GOLD-   2262019393D 1   1.00000     0.00000
 Structure written by MMmdl.
 47 50  0  0  0  0  0  0  0  0  1 V2000
  151.0602  141.5182  156.7506 C   0  0  0  0  0  0  0  0  0  0  0  0
  151.6020  140.4890  155.7476 C   0  0  1  0  0  0  0  0  0  0  0  0
  152.5036  139.5877  156.3852 O   0  0  0  0  0  0  0  0  0  0  0  0
  152.4054  138.2939  155.7960 C   0  0  0  0  0  0  0  0  0  0  0  0
  151.4706  138.4541  154.6005 C   0  0  0  0  0  0  0  0  0  0  0  0
  150.5641  139.5981  155.0385 C   0  0  2  0  0  0  0  0  0  0  0  0
  150.0571  140.2486  153.8880 O   0  0  0  0  0  0  0  0  0  0  0  0
  149.3841  139.1568  155.9466 C   0  0  0  0  0  0  0  0  0  0  0  0
  148.6950  137.9637  155.4807 N   0  0  0  0  0  0  0  0  0  0  0  0
  148.8801  136.6746  155.9275 C   0  0  0  0  0  0  0  0  0  0  0  0
  148.1372  135.7721  155.3468 N   0  0  0  0  0  0  0  0  0  0  0  0
  147.3885  136.4924  154.4248 C   0  0  0  0  0  0  0  0  0  0  0  0
  146.3939  136.1465  153.4714 C   0  0  0  0  0  0  0  0  0  0  0  0
  145.9445  134.8764  153.3233 N   0  0  0  0  0  0  0  0  0  0  0  0
  146.7319  133.8321  153.9755 C   0  0  0  0  0  0  0  0  0  0  0  0
  147.4059  133.0654  152.8451 C   0  0  1  0  0  0  0  0  0  0  0  0
  147.7418  131.8235  153.1931 F   0  0  0  0  0  0  0  0  0  0  0  0
  146.3401  133.1027  151.7598 C   0  0  0  0  0  0  0  0  0  0  0  0
  145.7012  134.4962  151.9212 C   0  0  1  0  0  0  0  0  0  0  0  0
  144.2146  134.4819  151.5222 C   0  0  0  0  0  0  0  0  0  0  0  0
  143.8810  134.0851  150.2901 N   0  0  0  0  0  0  0  0  0  0  0  0
  143.3638  134.8286  152.3382 O   0  0  0  0  0  0  0  0  0  0  0  0
  145.8634  137.1474  152.7186 N   0  0  0  0  0  0  0  0  0  0  0  0
  146.2863  138.4045  152.8815 C   0  0  0  0  0  0  0  0  0  0  0  0
  147.2059  138.8723  153.7280 N   0  0  0  0  0  0  0  0  0  0  0  0
  147.7339  137.8711  154.4893 C   0  0  0  0  0  0  0  0  0  0  0  0
  148.3097  133.5789  152.5145 H   0  0  0  0  0  0  0  0  0  0  0  0
  146.2162  135.1888  151.2512 H   0  0  0  0  0  0  0  0  0  0  0  0
  150.3471  142.1908  156.2738 H   0  0  0  0  0  0  0  0  0  0  0  0
  151.8709  142.1261  157.1526 H   0  0  0  0  0  0  0  0  0  0  0  0
  150.5635  141.0396  157.5944 H   0  0  0  0  0  0  0  0  0  0  0  0
  152.1866  141.0180  154.9921 H   0  0  0  0  0  0  0  0  0  0  0  0
  153.3852  137.9138  155.5060 H   0  0  0  0  0  0  0  0  0  0  0  0
  151.9802  137.6071  156.5287 H   0  0  0  0  0  0  0  0  0  0  0  0
  152.0610  138.7534  153.7323 H   0  0  0  0  0  0  0  0  0  0  0  0
  150.9526  137.5339  154.3332 H   0  0  0  0  0  0  0  0  0  0  0  0
  149.9019  139.5979  153.2208 H   0  0  0  0  0  0  0  0  0  0  0  0
  149.7368  138.9691  156.9613 H   0  0  0  0  0  0  0  0  0  0  0  0
  148.6467  139.9567  156.0265 H   0  0  0  0  0  0  0  0  0  0  0  0
  149.5869  136.4240  156.7054 H   0  0  0  0  0  0  0  0  0  0  0  0
  147.4531  134.2043  154.7051 H   0  0  0  0  0  0  0  0  0  0  0  0
  146.0404  133.1828  154.5141 H   0  0  0  0  0  0  0  0  0  0  0  0
  146.7553  132.9443  150.7639 H   0  0  0  0  0  0  0  0  0  0  0  0
  145.6080  132.3135  151.9431 H   0  0  0  0  0  0  0  0  0  0  0  0
  142.9106  134.0760  150.0105 H   0  0  0  0  0  0  0  0  0  0  0  0
  144.6011  133.8021  149.6415 H   0  0  0  0  0  0  0  0  0  0  0  0
  145.8184  139.1412  152.2451 H   0  0  0  0  0  0  0  0  0  0  0  0
  1  2  1  0  0  0  0
  1 29  1  0  0  0  0
  1 30  1  0  0  0  0
  1 31  1  0  0  0  0
  2  6  1  0  0  0  0
  2  3  1  0  0  0  0
  2 32  1  0  0  0  0
  3  4  1  0  0  0  0
  4  5  1  0  0  0  0
  4 33  1  0  0  0  0
  4 34  1  0  0  0  0
  5  6  1  0  0  0  0
  5 35  1  0  0  0  0
  5 36  1  0  0  0  0
  6  7  1  0  0  0  0
  6  8  1  0  0  0  0
  7 37  1  0  0  0  0
  8  9  1  0  0  0  0
  8 38  1  0  0  0  0
  8 39  1  0  0  0  0
  9 26  1  0  0  0  0
  9 10  1  0  0  0  0
 10 11  2  0  0  0  0
 10 40  1  0  0  0  0
 11 12  1  0  0  0  0
 12 26  2  0  0  0  0
 12 13  1  0  0  0  0
 13 14  1  0  0  0  0
 13 23  2  0  0  0  0
 14 19  1  0  0  0  0
 14 15  1  0  0  0  0
 15 16  1  0  0  0  0
 15 41  1  0  0  0  0
 15 42  1  0  0  0  0
 16 27  1  0  0  0  0
 16 17  1  0  0  0  0
 16 18  1  0  0  0  0
 18 19  1  0  0  0  0
 18 43  1  0  0  0  0
 18 44  1  0  0  0  0
 19 28  1  0  0  0  0
 19 20  1  0  0  0  0
 20 21  1  0  0  0  0
 20 22  2  0  0  0  0
 21 45  1  0  0  0  0
 21 46  1  0  0  0  0
 23 24  1  0  0  0  0
 24 25  2  0  0  0  0
 24 47  1  0  0  0  0
 25 26  1  0  0  0  0
M  END
> <s_m_source_file>
AV-unprocessed.smi

> <i_m_source_file_index>
196

> <i_lp_mmshare_version>
43012

> <i_f3d_flags>
0

> <s_epik_input>
W0NIMl0xW0NIMl1PW0NAQEhdKFtDSDNdKVtDQEBdMShbT0hdKVtDSDJdbihbY0hdbjIpYyhjMjMpbltjSF1uYzNONFtDSDJdW0NASF0oRilbQ0gyXVtDQEhdNEMoPU8pW05IMl0=

> <s_epik_cmdline>
J2VwaWtfcHl0aG9uJywgJy1waCcsICc3LjAnLCAnLXRuJywgJzgnLCAnLW1hJywgJzIwMCcsICctbWV0YWxfYmluZGluZycsICctaW1hZScsICc8aW5maWxlLm1hZT4nLCAnLW9tYWUnLCAnPG91dGZpbGUubWFlPic=

> <r_lp_tautomer_probability>
1

> <r_epik_Ionization_Penalty>
0.000857933

> <r_epik_Ionization_Penalty_Charging>
0

> <r_epik_Ionization_Penalty_Neutral>
0.000857933

> <r_epik_State_Penalty>
0.000462053

> <r_epik_Charging_Adjusted_Penalty>
0.000462053

> <i_epik_Tot_Q>
0

> <i_epik_Tot_abs_Q>
0

> <r_epik_Metal_State_Penalty>
-0

> <b_epik_Metal_Only>
0

> <s_lp_Force_Field>
OPLS_2005

> <r_lp_Energy>
46.5275

> <b_lp_Chiralities_Consistent>
1

> <s_lp_Variant>
AV-unprocessed.smi:196-8

> <Gold.Version>
5.8.1

> <Gold.Id.Protein>
6NUR|6NUR_protein|mol2

> <Gold.PLP.Fitness>
40.9223

> <Gold.PLP.PLP>
-31.0475

> <Gold.PLP.part.hbond>
-4.0000

> <Gold.PLP.part.metal>
0.0000

> <Gold.PLP.part.buried>
-2.4059

> <Gold.PLP.part.nonpolar>
-25.3327

> <Gold.PLP.part.repulsive>
0.7400

> <Gold.PLP.ligand.clash>
0.0000

> <Gold.PLP.ligand.torsion>
0.9675

> <Gold.PLP.Chemscore.Hbond>
2.9069

> <Gold.PLP.Chemscore.CHOScore>
1.0000

> <Gold.PLP.Chemscore.Metal>
0.0000

> <Gold.Chemscore.Hbonds>
donor molecule, donor type, donor heavy atom, donor atom, acceptor molecule, acceptor atom, score
      L1  H     7    37       P1  7957  0.38
      L1  H    21    45       P1 10186  1.00
      P1  H  7989  7998       L1     7  0.52
      P1  H  7997  8010       L1     3  1.00
      L1  C    24    47       P1 10175  1.00

> <Gold.PLP.Chemscore.Internal.Correction>
0.0893

> <Gold.Rescore>
     Score         DG    S(hbond)    S(metal)    S(lipo)     H(rot)  DE(clash)    DE(int)     intcor
      9.64     -12.31       2.35        0.00      57.99       3.04       0.26       2.41       ----

> <Gold.Chemscore.Fitness>
9.6402

> <Gold.Chemscore.DG>
-12.3127

> <Gold.Chemscore.ZeroCoef>
-5.4800

> <Gold.Chemscore.Hbond>
2.3454

> <Gold.Chemscore.Metal>
0.0000

> <Gold.Chemscore.Lipo>
57.9893

> <Gold.Chemscore.Internal_Hbond>
0.0000

> <Gold.Chemscore.DEClash>
0.2622

> <Gold.Chemscore.DEInternal>
2.4104

> <Gold.Chemscore.Rot>
3.0413

> <Gold.Chemscore.Internal.Correction>
   9.000000E+99

> <Gold.Chemscore.Hbonds>
donor molecule, donor type, donor heavy atom, donor atom, acceptor molecule, acceptor atom, score
      L1  H     7    37       P1  7957  0.38
      L1  H    21    45       P1 10186  0.96
      P1  H  7989  7998       L1     7  0.02
      P1  H  7997  8010       L1     3  0.57

> <Gold.Chemscore.Hbond.Weighted>
-7.8336

> <Gold.Chemscore.Metal.Weighted>
-0.0000

> <Gold.Chemscore.Lipo.Weighted>
-6.7847

> <Gold.Chemscore.Internal_Hbond.Weighted>
0.0000

> <Gold.Chemscore.DEClash.Weighted>
0.2622

> <Gold.Chemscore.DEInternal.Weighted>
2.4104

> <Gold.Chemscore.Rot.Weighted>
7.7856

> <Gold.Chemscore.Internal.Correction.Weighted>
   9.000000E+99

> <Gold.Protein.RotatedTorsions>
[ 6907 6896 6895 6894 ] final   11.23 input  -60.11 | X-H torsion
[ 7974 7965 7964 7962 ] final -177.41 input  175.53 | X-H torsion
[ 8008 7997 7996 7995 ] final   80.74 input   59.86 | X-H torsion
[ 10167 10162 10161 10158 ] final -149.71 input  -65.29 | X-H torsion
[ 10718 10713 10712 10709 ] final  138.05 input   66.30 | X-H torsion
[ 10763 10752 10751 10750 ] final -154.91 input  -60.55 | X-H torsion
[ 11005 11000 10999 10996 ] final  176.10 input  -57.11 | X-H torsion

> <Gold.Protein.ActiveResidues>
 VAL166  LYS551  ARG553  GLY616  TRP617  ASP618  TYR619  PRO620  LYS621  CYS622 
 ASP623  PHE694  ASN695  SER759  ASP760  ASP761  ALA762  ILE779  LEU786  VAL792 
 PHE793  MET794  SER795  GLU796  ALA797  LYS798  CYS799  TRP800  GLU811  SER814 

> <Gold.Protein.RotatedAtoms>
  151.7511  135.0832  160.0330 H   0  0  0  0  0  0  0  0  0  0  0  0  # atno 6907 bound_to 6896
  152.3416  133.6069  159.5889 H   0  0  0  0  0  0  0  0  0  0  0  0  # atno 6908 bound_to 6896
  150.7483  133.9629  159.3563 H   0  0  0  0  0  0  0  0  0  0  0  0  # atno 6909 bound_to 6896
  144.7128  140.1024  143.6416 H   0  0  0  0  0  0  0  0  0  0  0  0  # atno 7974 bound_to 7965
  155.8877  140.3440  155.5933 H   0  0  0  0  0  0  0  0  0  0  0  0  # atno 8008 bound_to 7997
  155.7647  140.0837  157.2157 H   0  0  0  0  0  0  0  0  0  0  0  0  # atno 8009 bound_to 7997
  154.4030  140.1529  156.2860 H   0  0  0  0  0  0  0  0  0  0  0  0  # atno 8010 bound_to 7997
  139.7419  143.8650  152.2564 H   0  0  0  0  0  0  0  0  0  0  0  0  # atno 10167 bound_to 10162
  157.4295  131.1047  151.0266 H   0  0  0  0  0  0  0  0  0  0  0  0  # atno 10718 bound_to 10713
  154.7825  135.3179  154.7958 H   0  0  0  0  0  0  0  0  0  0  0  0  # atno 10763 bound_to 10752
  153.8666  135.6848  153.4782 H   0  0  0  0  0  0  0  0  0  0  0  0  # atno 10764 bound_to 10752
  153.1466  135.4716  154.9513 H   0  0  0  0  0  0  0  0  0  0  0  0  # atno 10765 bound_to 10752
  140.3694  134.7043  157.4383 H   0  0  0  0  0  0  0  0  0  0  0  0  # atno 11005 bound_to 11000
  145.9526  139.2744  143.1203 LP  0  0  0  0  0  0  0  0  0  0  0  0  # atno 17320 bound_to 7965
  145.9306  140.9051  143.0358 LP  0  0  0  0  0  0  0  0  0  0  0  0  # atno 17321 bound_to 7965
  139.8603  144.7120  150.9108 LP  0  0  0  0  0  0  0  0  0  0  0  0  # atno 17342 bound_to 10162
  140.7787  143.3823  151.1454 LP  0  0  0  0  0  0  0  0  0  0  0  0  # atno 17343 bound_to 10162
  157.1167  130.6044  149.5495 LP  0  0  0  0  0  0  0  0  0  0  0  0  # atno 17370 bound_to 10713
  155.9908  130.4960  150.7273 LP  0  0  0  0  0  0  0  0  0  0  0  0  # atno 17371 bound_to 10713
  140.0563  134.6058  155.8801 LP  0  0  0  0  0  0  0  0  0  0  0  0  # atno 17394 bound_to 11000
  141.1959  133.6589  156.5666 LP  0  0  0  0  0  0  0  0  0  0  0  0  # atno 17395 bound_to 11000

$$$$
