AV-unprocessed.smi:2032|AV-procd|sdf|8256|dock1
  -GOLD-   2272010533D 1   1.00000     0.00000
 Structure written by MMmdl.
 42 43  0  0  0  0  0  0  0  0  3 V2000
  150.7885  141.5709  157.4064 C   0  0  0  0  0  0  0  0  0  0  0  0
  151.0706  140.6685  156.1919 C   0  0  1  0  0  0  0  0  0  0  0  0
  150.8138  139.1746  156.4612 C   0  0  0  0  0  0  0  0  0  0  0  0
  149.3593  138.8753  156.5489 N   0  3  2  0  0  0  0  0  0  0  0  0
  149.0945  137.4548  156.9452 C   0  0  2  0  0  0  0  0  0  0  0  0
  149.5881  136.4137  155.9114 C   0  0  0  0  0  0  0  0  0  0  0  0
  147.5804  137.2612  157.2217 C   0  0  0  0  0  0  0  0  0  0  0  0
  147.2196  137.5106  158.6135 N   0  0  0  0  0  0  0  0  0  0  0  0
  147.9146  137.1026  159.6844 C   0  0  0  0  0  0  0  0  0  0  0  0
  148.9666  136.4773  159.5317 O   0  0  0  0  0  0  0  0  0  0  0  0
  147.3426  137.4374  160.8623 N   0  5  0  0  0  0  0  0  0  0  0  0
  146.5270  136.5704  161.4840 C   0  0  0  0  0  0  0  0  0  0  0  0
  146.8987  135.3291  161.8174 N   0  0  0  0  0  0  0  0  0  0  0  0
  145.8956  134.6039  162.4634 C   0  0  0  0  0  0  0  0  0  0  0  0
  144.7355  135.3119  162.6322 C   0  0  0  0  0  0  0  0  0  0  0  0
  144.8694  136.9209  161.9822 S   0  0  0  0  0  0  0  0  0  0  0  0
  148.6851  139.3475  155.3100 C   0  0  0  0  0  0  0  0  0  0  0  0
  148.9580  140.8446  155.0722 C   0  0  2  0  0  0  0  0  0  0  0  0
  148.3561  141.3339  153.7500 C   0  0  0  0  0  0  0  0  0  0  0  0
  150.3609  141.0820  155.0262 O   0  0  0  0  0  0  0  0  0  0  0  0
  151.4419  141.3101  158.2396 H   0  0  0  0  0  0  0  0  0  0  0  0
  149.7623  141.4811  157.7619 H   0  0  0  0  0  0  0  0  0  0  0  0
  150.9688  142.6181  157.1630 H   0  0  0  0  0  0  0  0  0  0  0  0
  152.1287  140.7843  155.9551 H   0  0  0  0  0  0  0  0  0  0  0  0
  151.2474  138.5827  155.6532 H   0  0  0  0  0  0  0  0  0  0  0  0
  151.3377  138.8812  157.3693 H   0  0  0  0  0  0  0  0  0  0  0  0
  149.6507  137.2639  157.8644 H   0  0  0  0  0  0  0  0  0  0  0  0
  149.3623  135.3954  156.2281 H   0  0  0  0  0  0  0  0  0  0  0  0
  150.6698  136.4475  155.7815 H   0  0  0  0  0  0  0  0  0  0  0  0
  149.1194  136.5631  154.9382 H   0  0  0  0  0  0  0  0  0  0  0  0
  146.9633  137.8998  156.5907 H   0  0  0  0  0  0  0  0  0  0  0  0
  147.2913  136.2372  156.9828 H   0  0  0  0  0  0  0  0  0  0  0  0
  146.3668  138.0244  158.7824 H   0  0  0  0  0  0  0  0  0  0  0  0
  146.0950  133.5878  162.7695 H   0  0  0  0  0  0  0  0  0  0  0  0
  143.8165  134.9889  163.0973 H   0  0  0  0  0  0  0  0  0  0  0  0
  149.0267  138.7548  154.4596 H   0  0  0  0  0  0  0  0  0  0  0  0
  147.6051  139.2234  155.3840 H   0  0  0  0  0  0  0  0  0  0  0  0
  148.5137  141.4285  155.8785 H   0  0  0  0  0  0  0  0  0  0  0  0
  147.2754  141.1899  153.7320 H   0  0  0  0  0  0  0  0  0  0  0  0
  148.7793  140.7975  152.9004 H   0  0  0  0  0  0  0  0  0  0  0  0
  148.5512  142.3966  153.6032 H   0  0  0  0  0  0  0  0  0  0  0  0
  148.9865  139.4434  157.2960 H   0  0  0  0  0  0  0  0  0  0  0  0
  1  2  1  0  0  0  0
  1 21  1  0  0  0  0
  1 22  1  0  0  0  0
  1 23  1  0  0  0  0
  2 20  1  0  0  0  0
  2  3  1  0  0  0  0
  2 24  1  0  0  0  0
  3  4  1  0  0  0  0
  3 25  1  0  0  0  0
  3 26  1  0  0  0  0
  4  5  1  0  0  0  0
  4 17  1  0  0  0  0
  4 42  1  0  0  0  0
  5  6  1  0  0  0  0
  5  7  1  0  0  0  0
  5 27  1  0  0  0  0
  6 28  1  0  0  0  0
  6 29  1  0  0  0  0
  6 30  1  0  0  0  0
  7  8  1  0  0  0  0
  7 31  1  0  0  0  0
  7 32  1  0  0  0  0
  8  9  1  0  0  0  0
  8 33  1  0  0  0  0
  9 10  2  0  0  0  0
  9 11  1  0  0  0  0
 11 12  1  0  0  0  0
 12 16  1  0  0  0  0
 12 13  2  0  0  0  0
 13 14  1  0  0  0  0
 14 15  2  0  0  0  0
 14 34  1  0  0  0  0
 15 16  1  0  0  0  0
 15 35  1  0  0  0  0
 17 18  1  0  0  0  0
 17 36  1  0  0  0  0
 17 37  1  0  0  0  0
 18 19  1  0  0  0  0
 18 20  1  0  0  0  0
 18 38  1  0  0  0  0
 19 39  1  0  0  0  0
 19 40  1  0  0  0  0
 19 41  1  0  0  0  0
M  CHG  1   4   1
M  CHG  1  11  -1
M  END
> <s_m_source_file>
AV-unprocessed.smi

> <i_m_source_file_index>
2032

> <i_lp_mmshare_version>
43012

> <i_f3d_flags>
0

> <s_epik_input>
W0NIM11bQ0BASF0xW0NIMl1OKFtDSDJdW0NASF0oTzEpW0NIM10pW0NASF0oW0NIM10pW0NIMl1bTkhdQyg9TylbTkhdYzJuW2NIXVtjSF1zMg==

> <s_epik_cmdline>
J2VwaWtfcHl0aG9uJywgJy1waCcsICc3LjAnLCAnLXRuJywgJzgnLCAnLW1hJywgJzIwMCcsICctbWV0YWxfYmluZGluZycsICctaW1hZScsICc8aW5maWxlLm1hZT4nLCAnLW9tYWUnLCAnPG91dGZpbGUubWFlPic=

> <r_lp_tautomer_probability>
0.999

> <r_epik_Ionization_Penalty>
6.71699

> <r_epik_Ionization_Penalty_Charging>
5.88592

> <r_epik_Ionization_Penalty_Neutral>
0.831074

> <r_epik_State_Penalty>
6.08365

> <r_epik_Charging_Adjusted_Penalty>
11.9696

> <i_epik_Tot_Q>
0

> <i_epik_Tot_abs_Q>
2

> <r_epik_Metal_State_Penalty>
2.0947

> <b_epik_Metal_Only>
1

> <s_lp_Force_Field>
OPLS_2005

> <r_lp_Energy>
13.0478

> <b_lp_Chiralities_Consistent>
1

> <s_lp_Variant>
AV-unprocessed.smi:2032-26

> <Gold.Version>
5.8.1

> <Gold.Id.Protein>
6NUR|6NUR_protein|mol2

> <Gold.PLP.Fitness>
42.3157

> <Gold.PLP.PLP>
-30.3125

> <Gold.PLP.part.hbond>
-4.0000

> <Gold.PLP.part.metal>
0.0000

> <Gold.PLP.part.buried>
-4.3158

> <Gold.PLP.part.nonpolar>
-22.8368

> <Gold.PLP.part.repulsive>
0.2201

> <Gold.PLP.ligand.clash>
0.0000

> <Gold.PLP.ligand.torsion>
1.8380

> <Gold.PLP.Chemscore.Hbond>
5.1440

> <Gold.PLP.Chemscore.CHOScore>
0.0000

> <Gold.PLP.Chemscore.Metal>
0.0000

> <Gold.Chemscore.Hbonds>
donor molecule, donor type, donor heavy atom, donor atom, acceptor molecule, acceptor atom, score
      P1  H  6931  6943       L1    11  1.01
      P1  H  6934  6947       L1    11  2.00
      P1  H  7989  7998       L1    20  0.67

> <Gold.PLP.Chemscore.Internal.Correction>
0.2472

> <Gold.Rescore>
     Score         DG    S(hbond)    S(metal)    S(lipo)     H(rot)  DE(clash)    DE(int)     intcor
     14.94     -18.20       2.86        0.00      61.58       1.58       0.11       3.15       ----

> <Gold.Chemscore.Fitness>
14.9394

> <Gold.Chemscore.DG>
-18.2046

> <Gold.Chemscore.ZeroCoef>
-5.4800

> <Gold.Chemscore.Hbond>
2.8630

> <Gold.Chemscore.Metal>
0.0000

> <Gold.Chemscore.Lipo>
61.5785

> <Gold.Chemscore.Internal_Hbond>
0.0000

> <Gold.Chemscore.DEClash>
0.1136

> <Gold.Chemscore.DEInternal>
3.1516

> <Gold.Chemscore.Rot>
1.5791

> <Gold.Chemscore.Internal.Correction>
   9.000000E+99

> <Gold.Chemscore.Hbonds>
donor molecule, donor type, donor heavy atom, donor atom, acceptor molecule, acceptor atom, score
      P1  H  6896  6909       L1    10  0.02
      P1  H  6931  6943       L1    11  0.15
      P1  H  6934  6947       L1    11  0.67
      P1  H  7989  7998       L1    20  0.39

> <Gold.Chemscore.Hbond.Weighted>
-9.5624

> <Gold.Chemscore.Metal.Weighted>
-0.0000

> <Gold.Chemscore.Lipo.Weighted>
-7.2047

> <Gold.Chemscore.Internal_Hbond.Weighted>
0.0000

> <Gold.Chemscore.DEClash.Weighted>
0.1136

> <Gold.Chemscore.DEInternal.Weighted>
3.1516

> <Gold.Chemscore.Rot.Weighted>
4.0425

> <Gold.Chemscore.Internal.Correction.Weighted>
   9.000000E+99

> <Gold.Protein.RotatedTorsions>
[ 6907 6896 6895 6894 ] final   58.72 input  -60.11 | X-H torsion
[ 7974 7965 7964 7962 ] final   55.22 input  175.53 | X-H torsion
[ 8008 7997 7996 7995 ] final -145.19 input   59.86 | X-H torsion
[ 10167 10162 10161 10158 ] final  167.97 input  -65.29 | X-H torsion
[ 10718 10713 10712 10709 ] final  -10.17 input   66.30 | X-H torsion
[ 10763 10752 10751 10750 ] final  145.99 input  -60.55 | X-H torsion
[ 11005 11000 10999 10996 ] final  -17.43 input  -57.11 | X-H torsion

> <Gold.Protein.ActiveResidues>
 VAL166  LYS551  ARG553  GLY616  TRP617  ASP618  TYR619  PRO620  LYS621  CYS622 
 ASP623  PHE694  ASN695  SER759  ASP760  ASP761  ALA762  ILE779  LEU786  VAL792 
 PHE793  MET794  SER795  GLU796  ALA797  LYS798  CYS799  TRP800  GLU811  SER814 

> <Gold.Protein.RotatedAtoms>
  152.3850  134.6531  160.0128 H   0  0  0  0  0  0  0  0  0  0  0  0  # atno 6907 bound_to 6896
  151.6783  133.3307  159.3221 H   0  0  0  0  0  0  0  0  0  0  0  0  # atno 6908 bound_to 6896
  150.7778  134.6739  159.6451 H   0  0  0  0  0  0  0  0  0  0  0  0  # atno 6909 bound_to 6896
  145.9527  139.3987  143.0296 H   0  0  0  0  0  0  0  0  0  0  0  0  # atno 7974 bound_to 7965
  155.5392  140.0606  157.2873 H   0  0  0  0  0  0  0  0  0  0  0  0  # atno 8008 bound_to 7997
  154.4458  140.1922  156.0618 H   0  0  0  0  0  0  0  0  0  0  0  0  # atno 8009 bound_to 7997
  156.0597  140.3274  155.7451 H   0  0  0  0  0  0  0  0  0  0  0  0  # atno 8010 bound_to 7997
  139.4957  144.3864  151.9565 H   0  0  0  0  0  0  0  0  0  0  0  0  # atno 10167 bound_to 10162
  156.6773  130.5027  149.5982 H   0  0  0  0  0  0  0  0  0  0  0  0  # atno 10718 bound_to 10713
  154.0145  135.2911  155.3388 H   0  0  0  0  0  0  0  0  0  0  0  0  # atno 10763 bound_to 10752
  154.7083  135.5160  153.8632 H   0  0  0  0  0  0  0  0  0  0  0  0  # atno 10764 bound_to 10752
  153.0708  135.6647  154.0373 H   0  0  0  0  0  0  0  0  0  0  0  0  # atno 10765 bound_to 10752
  140.8167  133.8099  155.9618 H   0  0  0  0  0  0  0  0  0  0  0  0  # atno 11005 bound_to 11000
  145.8149  140.9708  143.0929 LP  0  0  0  0  0  0  0  0  0  0  0  0  # atno 17320 bound_to 7965
  144.6799  139.9967  143.7484 LP  0  0  0  0  0  0  0  0  0  0  0  0  # atno 17321 bound_to 7965
  140.3301  144.3326  150.5989 LP  0  0  0  0  0  0  0  0  0  0  0  0  # atno 17342 bound_to 10162
  140.5652  143.2187  151.7696 LP  0  0  0  0  0  0  0  0  0  0  0  0  # atno 17343 bound_to 10162
  156.1894  130.6550  151.1043 LP  0  0  0  0  0  0  0  0  0  0  0  0  # atno 17370 bound_to 10713
  157.7056  131.0758  150.6678 LP  0  0  0  0  0  0  0  0  0  0  0  0  # atno 17371 bound_to 10713
  140.9141  134.2224  157.4967 LP  0  0  0  0  0  0  0  0  0  0  0  0  # atno 17394 bound_to 11000
  139.8710  134.9763  156.4917 LP  0  0  0  0  0  0  0  0  0  0  0  0  # atno 17395 bound_to 11000

$$$$
