AV-unprocessed.smi:915|AV-procd|sdf|4157|dock2
  -GOLD-   22720 2 63D 1   1.00000     0.00000
 Structure written by MMmdl.
 33 34  0  0  0  0  0  0  0  0  2 V2000
  153.4252  143.2179  163.4262 C   0  0  0  0  0  0  0  0  0  0  0  0
  152.8721  142.4203  162.2399 C   0  0  0  0  0  0  0  0  0  0  0  0
  152.3212  143.3074  161.1652 C   0  0  0  0  0  0  0  0  0  0  0  0
  152.2951  144.6763  161.1558 C   0  0  0  0  0  0  0  0  0  0  0  0
  151.5551  145.2916  159.7067 S   0  0  0  0  0  0  0  0  0  0  0  0
  151.2905  143.6424  159.1354 C   0  0  0  0  0  0  0  0  0  0  0  0
  150.6905  143.3806  157.9528 N   0  5  0  0  0  0  0  0  0  0  0  0
  150.7420  142.1965  157.2909 C   0  0  0  0  0  0  0  0  0  0  0  0
  151.3304  141.1689  157.6339 O   0  0  0  0  0  0  0  0  0  0  0  0
  150.0558  142.2058  156.1405 N   0  0  0  0  0  0  0  0  0  0  0  0
  149.9284  141.0757  155.2286 C   0  0  0  0  0  0  0  0  0  0  0  0
  148.4539  140.7894  154.9022 C   0  0  1  0  0  0  0  0  0  0  0  0
  147.7834  141.9367  154.1344 C   0  0  0  0  0  0  0  0  0  0  0  0
  146.5740  141.3440  153.4105 C   0  0  0  0  0  0  0  0  0  0  0  0
  147.0560  140.0468  152.7612 C   0  0  0  0  0  0  0  0  0  0  0  0
  148.2445  139.2886  153.8969 S   0  0  0  0  0  0  0  0  0  0  0  0
  151.7537  142.7448  160.0204 N   0  0  0  0  0  0  0  0  0  0  0  0
  153.8184  142.5509  164.1934 H   0  0  0  0  0  0  0  0  0  0  0  0
  152.6480  143.8307  163.8842 H   0  0  0  0  0  0  0  0  0  0  0  0
  154.2332  143.8794  163.1126 H   0  0  0  0  0  0  0  0  0  0  0  0
  153.6626  141.7880  161.8344 H   0  0  0  0  0  0  0  0  0  0  0  0
  152.0970  141.7400  162.5941 H   0  0  0  0  0  0  0  0  0  0  0  0
  152.6622  145.3580  161.9079 H   0  0  0  0  0  0  0  0  0  0  0  0
  149.5788  143.0583  155.8862 H   0  0  0  0  0  0  0  0  0  0  0  0
  150.4728  141.3018  154.3105 H   0  0  0  0  0  0  0  0  0  0  0  0
  150.3961  140.1944  155.6707 H   0  0  0  0  0  0  0  0  0  0  0  0
  147.9001  140.6303  155.8286 H   0  0  0  0  0  0  0  0  0  0  0  0
  147.4978  142.7528  154.7990 H   0  0  0  0  0  0  0  0  0  0  0  0
  148.4748  142.3478  153.3975 H   0  0  0  0  0  0  0  0  0  0  0  0
  145.7873  141.1232  154.1330 H   0  0  0  0  0  0  0  0  0  0  0  0
  146.1585  142.0344  152.6762 H   0  0  0  0  0  0  0  0  0  0  0  0
  146.2347  139.3655  152.5382 H   0  0  0  0  0  0  0  0  0  0  0  0
  147.5721  140.2662  151.8260 H   0  0  0  0  0  0  0  0  0  0  0  0
  1  2  1  0  0  0  0
  1 18  1  0  0  0  0
  1 19  1  0  0  0  0
  1 20  1  0  0  0  0
  2  3  1  0  0  0  0
  2 21  1  0  0  0  0
  2 22  1  0  0  0  0
  3 17  1  0  0  0  0
  3  4  2  0  0  0  0
  4  5  1  0  0  0  0
  4 23  1  0  0  0  0
  5  6  1  0  0  0  0
  6  7  1  0  0  0  0
  6 17  2  0  0  0  0
  7  8  1  0  0  0  0
  8  9  2  0  0  0  0
  8 10  1  0  0  0  0
 10 11  1  0  0  0  0
 10 24  1  0  0  0  0
 11 12  1  0  0  0  0
 11 25  1  0  0  0  0
 11 26  1  0  0  0  0
 12 16  1  0  0  0  0
 12 13  1  0  0  0  0
 12 27  1  0  0  0  0
 13 14  1  0  0  0  0
 13 28  1  0  0  0  0
 13 29  1  0  0  0  0
 14 15  1  0  0  0  0
 14 30  1  0  0  0  0
 14 31  1  0  0  0  0
 15 16  1  0  0  0  0
 15 32  1  0  0  0  0
 15 33  1  0  0  0  0
M  CHG  1   7  -1
M  END
> <s_m_source_file>
AV-unprocessed.smi

> <i_m_source_file_index>
915

> <i_lp_mmshare_version>
43012

> <i_f3d_flags>
0

> <s_epik_input>
W0NIM11bQ0gyXWMxW2NIXXNjKG4xKVtOSF1DKD1PKVtOSF1bQ0gyXVtDQEBIXTJbQ0gyXVtDSDJdW0NIMl1TMg==

> <s_epik_cmdline>
J2VwaWtfcHl0aG9uJywgJy1waCcsICc3LjAnLCAnLXRuJywgJzgnLCAnLW1hJywgJzIwMCcsICctbWV0YWxfYmluZGluZycsICctaW1hZScsICc8aW5maWxlLm1hZT4nLCAnLW9tYWUnLCAnPG91dGZpbGUubWFlPic=

> <r_lp_tautomer_probability>
0.999

> <r_epik_Ionization_Penalty>
8.73043

> <r_epik_Ionization_Penalty_Charging>
6.79141

> <r_epik_Ionization_Penalty_Neutral>
1.93902

> <r_epik_State_Penalty>
6.79158

> <r_epik_Charging_Adjusted_Penalty>
13.583

> <i_epik_Tot_Q>
-1

> <i_epik_Tot_abs_Q>
1

> <r_epik_Metal_State_Penalty>
2.71141

> <b_epik_Metal_Only>
1

> <s_lp_Force_Field>
OPLS_2005

> <r_lp_Energy>
9.1846

> <b_lp_Chiralities_Consistent>
1

> <s_lp_Variant>
AV-unprocessed.smi:915-4

> <Gold.Version>
5.8.1

> <Gold.Id.Protein>
6NUR|6NUR_protein|mol2

> <Gold.PLP.Fitness>
42.0380

> <Gold.PLP.PLP>
-39.2271

> <Gold.PLP.part.hbond>
-1.0181

> <Gold.PLP.part.metal>
0.0000

> <Gold.PLP.part.buried>
-2.2540

> <Gold.PLP.part.nonpolar>
-35.3687

> <Gold.PLP.part.repulsive>
0.2859

> <Gold.PLP.ligand.clash>
0.0000

> <Gold.PLP.ligand.torsion>
0.1090

> <Gold.PLP.Chemscore.Hbond>
1.0000

> <Gold.PLP.Chemscore.CHOScore>
0.0000

> <Gold.PLP.Chemscore.Metal>
0.0000

> <Gold.Chemscore.Hbonds>
donor molecule, donor type, donor heavy atom, donor atom, acceptor molecule, acceptor atom, score
      L1  H    10    24       P1  8028  1.00

> <Gold.PLP.Chemscore.Internal.Correction>
0.0288

> <Gold.Rescore>
     Score         DG    S(hbond)    S(metal)    S(lipo)     H(rot)  DE(clash)    DE(int)     intcor
     15.42     -17.59       1.00        0.00     104.08       1.33       0.79       1.38       ----

> <Gold.Chemscore.Fitness>
15.4248

> <Gold.Chemscore.DG>
-17.5916

> <Gold.Chemscore.ZeroCoef>
-5.4800

> <Gold.Chemscore.Hbond>
1.0000

> <Gold.Chemscore.Metal>
0.0000

> <Gold.Chemscore.Lipo>
104.0823

> <Gold.Chemscore.Internal_Hbond>
0.0000

> <Gold.Chemscore.DEClash>
0.7910

> <Gold.Chemscore.DEInternal>
1.3757

> <Gold.Chemscore.Rot>
1.3305

> <Gold.Chemscore.Internal.Correction>
   9.000000E+99

> <Gold.Chemscore.Hbonds>
donor molecule, donor type, donor heavy atom, donor atom, acceptor molecule, acceptor atom, score
      L1  H    10    24       P1  8028  1.00

> <Gold.Chemscore.Hbond.Weighted>
-3.3400

> <Gold.Chemscore.Metal.Weighted>
-0.0000

> <Gold.Chemscore.Lipo.Weighted>
-12.1776

> <Gold.Chemscore.Internal_Hbond.Weighted>
0.0000

> <Gold.Chemscore.DEClash.Weighted>
0.7910

> <Gold.Chemscore.DEInternal.Weighted>
1.3757

> <Gold.Chemscore.Rot.Weighted>
3.4060

> <Gold.Chemscore.Internal.Correction.Weighted>
   9.000000E+99

> <Gold.Protein.RotatedTorsions>
[ 6907 6896 6895 6894 ] final  -29.14 input  -60.11 | X-H torsion
[ 7974 7965 7964 7962 ] final   34.73 input  175.53 | X-H torsion
[ 8008 7997 7996 7995 ] final   37.25 input   59.86 | X-H torsion
[ 10167 10162 10161 10158 ] final -125.90 input  -65.29 | X-H torsion
[ 10718 10713 10712 10709 ] final -108.08 input   66.30 | X-H torsion
[ 10763 10752 10751 10750 ] final  -62.01 input  -60.55 | X-H torsion
[ 11005 11000 10999 10996 ] final -138.52 input  -57.11 | X-H torsion

> <Gold.Protein.ActiveResidues>
 VAL166  LYS551  ARG553  GLY616  TRP617  ASP618  TYR619  PRO620  LYS621  CYS622 
 ASP623  PHE694  ASN695  SER759  ASP760  ASP761  ALA762  ILE779  LEU786  VAL792 
 PHE793  MET794  SER795  GLU796  ALA797  LYS798  CYS799  TRP800  GLU811  SER814 

> <Gold.Protein.RotatedAtoms>
  151.1233  135.0091  159.8548 H   0  0  0  0  0  0  0  0  0  0  0  0  # atno 6907 bound_to 6896
  152.5448  134.1697  159.8602 H   0  0  0  0  0  0  0  0  0  0  0  0  # atno 6908 bound_to 6896
  151.1757  133.4711  159.2627 H   0  0  0  0  0  0  0  0  0  0  0  0  # atno 6909 bound_to 6896
  146.1332  139.6231  142.9212 H   0  0  0  0  0  0  0  0  0  0  0  0  # atno 7974 bound_to 7965
  155.2006  140.3315  155.4344 H   0  0  0  0  0  0  0  0  0  0  0  0  # atno 8008 bound_to 7997
  156.2408  140.1894  156.7043 H   0  0  0  0  0  0  0  0  0  0  0  0  # atno 8009 bound_to 7997
  154.6144  140.0604  156.9521 H   0  0  0  0  0  0  0  0  0  0  0  0  # atno 8010 bound_to 7997
  139.9772  143.5781  152.2391 H   0  0  0  0  0  0  0  0  0  0  0  0  # atno 10167 bound_to 10162
  156.0468  130.5695  150.7911 H   0  0  0  0  0  0  0  0  0  0  0  0  # atno 10718 bound_to 10713
  154.2933  135.6249  153.5394 H   0  0  0  0  0  0  0  0  0  0  0  0  # atno 10763 bound_to 10752
  152.9849  135.5661  154.5365 H   0  0  0  0  0  0  0  0  0  0  0  0  # atno 10764 bound_to 10752
  154.4981  135.2870  155.1419 H   0  0  0  0  0  0  0  0  0  0  0  0  # atno 10765 bound_to 10752
  140.8608  134.2171  157.4708 H   0  0  0  0  0  0  0  0  0  0  0  0  # atno 11005 bound_to 11000
  145.5214  141.0431  143.2433 LP  0  0  0  0  0  0  0  0  0  0  0  0  # atno 17320 bound_to 7965
  144.7712  139.6730  143.7194 LP  0  0  0  0  0  0  0  0  0  0  0  0  # atno 17321 bound_to 7965
  139.6437  144.7656  151.2288 LP  0  0  0  0  0  0  0  0  0  0  0  0  # atno 17342 bound_to 10162
  140.7501  143.6275  150.8454 LP  0  0  0  0  0  0  0  0  0  0  0  0  # atno 17343 bound_to 10162
  157.5351  131.0938  150.9903 LP  0  0  0  0  0  0  0  0  0  0  0  0  # atno 17370 bound_to 10713
  157.0199  130.5670  149.5330 LP  0  0  0  0  0  0  0  0  0  0  0  0  # atno 17371 bound_to 10713
  139.8707  134.9729  156.4788 LP  0  0  0  0  0  0  0  0  0  0  0  0  # atno 17394 bound_to 11000
  140.8684  133.8006  155.9339 LP  0  0  0  0  0  0  0  0  0  0  0  0  # atno 17395 bound_to 11000

$$$$
