AV-unprocessed.smi:158|AV-procd|sdf|1331|dock3
  -GOLD-   2262019 23D 1   1.00000     0.00000
 Structure written by MMmdl.
 31 33  0  0  0  0  0  0  0  0  1 V2000
  154.8339  138.6258  162.4633 N   0  0  0  0  0  0  0  0  0  0  0  0
  154.4493  139.0631  161.2560 C   0  0  0  0  0  0  0  0  0  0  0  0
  154.5919  138.2349  160.1954 N   0  0  0  0  0  0  0  0  0  0  0  0
  154.2179  138.6332  158.9737 C   0  0  0  0  0  0  0  0  0  0  0  0
  154.4403  137.5013  157.6924 Cl  0  0  0  0  0  0  0  0  0  0  0  0
  153.6899  139.8128  158.6331 N   0  0  0  0  0  0  0  0  0  0  0  0
  153.5441  140.6538  159.6971 C   0  0  0  0  0  0  0  0  0  0  0  0
  153.8998  140.3505  161.0393 C   0  0  0  0  0  0  0  0  0  0  0  0
  153.6140  141.4307  161.8617 N   0  0  0  0  0  0  0  0  0  0  0  0
  153.1166  142.3211  161.0462 C   0  0  0  0  0  0  0  0  0  0  0  0
  153.0392  141.9402  159.7240 N   0  0  0  0  0  0  0  0  0  0  0  0
  152.5217  142.7626  158.5833 C   0  0  2  0  0  0  0  0  0  0  0  0
  152.4060  144.0949  158.9951 O   0  0  0  0  0  0  0  0  0  0  0  0
  151.0770  144.5661  158.7718 C   0  0  2  0  0  0  0  0  0  0  0  0
  150.7219  145.6530  159.7996 C   0  0  0  0  0  0  0  0  0  0  0  0
  149.3211  145.7902  159.9112 O   0  0  0  0  0  0  0  0  0  0  0  0
  150.2277  143.2950  158.8505 C   0  0  1  0  0  0  0  0  0  0  0  0
  148.9748  143.4048  158.2058 O   0  0  0  0  0  0  0  0  0  0  0  0
  151.1278  142.2821  158.1654 C   0  0  1  0  0  0  0  0  0  0  0  0
  151.0485  142.3858  156.8363 F   0  0  0  0  0  0  0  0  0  0  0  0
  153.2768  142.6512  157.8039 H   0  0  0  0  0  0  0  0  0  0  0  0
  151.0475  144.9773  157.7608 H   0  0  0  0  0  0  0  0  0  0  0  0
  150.0678  143.0048  159.8886 H   0  0  0  0  0  0  0  0  0  0  0  0
  150.9378  141.2443  158.4425 H   0  0  0  0  0  0  0  0  0  0  0  0
  154.7361  139.2262  163.2695 H   0  0  0  0  0  0  0  0  0  0  0  0
  155.2176  137.6974  162.5650 H   0  0  0  0  0  0  0  0  0  0  0  0
  152.7918  143.2924  161.3902 H   0  0  0  0  0  0  0  0  0  0  0  0
  151.1446  145.4295  160.7787 H   0  0  0  0  0  0  0  0  0  0  0  0
  151.1322  146.6124  159.4836 H   0  0  0  0  0  0  0  0  0  0  0  0
  148.9629  145.9232  159.0467 H   0  0  0  0  0  0  0  0  0  0  0  0
  149.0771  143.9649  157.4511 H   0  0  0  0  0  0  0  0  0  0  0  0
  1  2  1  0  0  0  0
  1 25  1  0  0  0  0
  1 26  1  0  0  0  0
  2  8  1  0  0  0  0
  2  3  2  0  0  0  0
  3  4  1  0  0  0  0
  4  5  1  0  0  0  0
  4  6  2  0  0  0  0
  6  7  1  0  0  0  0
  7 11  1  0  0  0  0
  7  8  2  0  0  0  0
  8  9  1  0  0  0  0
  9 10  2  0  0  0  0
 10 11  1  0  0  0  0
 10 27  1  0  0  0  0
 11 12  1  0  0  0  0
 12 21  1  0  0  0  0
 12 19  1  0  0  0  0
 12 13  1  0  0  0  0
 13 14  1  0  0  0  0
 14 22  1  0  0  0  0
 14 15  1  0  0  0  0
 14 17  1  0  0  0  0
 15 16  1  0  0  0  0
 15 28  1  0  0  0  0
 15 29  1  0  0  0  0
 16 30  1  0  0  0  0
 17 23  1  0  0  0  0
 17 18  1  0  0  0  0
 17 19  1  0  0  0  0
 18 31  1  0  0  0  0
 19 24  1  0  0  0  0
 19 20  1  0  0  0  0
M  END
> <s_m_source_file>
AV-unprocessed.smi

> <i_m_source_file_index>
158

> <i_lp_mmshare_version>
43012

> <i_f3d_flags>
0

> <s_epik_input>
Q2xjKG4xKW5jKFtOSDJdKWMoYzEyKW5bY0hdbjJbQ0BASF0zT1tDQEhdKFtDSDJdW09IXSlbQ0BASF0oW09IXSlbQ0BASF0zRg==

> <s_epik_cmdline>
J2VwaWtfcHl0aG9uJywgJy1waCcsICc3LjAnLCAnLXRuJywgJzgnLCAnLW1hJywgJzIwMCcsICctbWV0YWxfYmluZGluZycsICctaW1hZScsICc8aW5maWxlLm1hZT4nLCAnLW9tYWUnLCAnPG91dGZpbGUubWFlPic=

> <r_lp_tautomer_probability>
1

> <r_epik_Ionization_Penalty>
6.51543e-05

> <r_epik_Ionization_Penalty_Charging>
0

> <r_epik_Ionization_Penalty_Neutral>
6.51543e-05

> <r_epik_State_Penalty>
-0

> <r_epik_Charging_Adjusted_Penalty>
0

> <i_epik_Tot_Q>
0

> <i_epik_Tot_abs_Q>
0

> <r_epik_Metal_State_Penalty>
-0

> <b_epik_Metal_Only>
0

> <s_epik_Chemistry_Notes>
This compound contains an acetal/aminal-like group ( X-CH(R)-Y where X, Y are N, S, or O) that may be acid/base labile, releasing an aldehyde.

> <s_lp_Force_Field>
OPLS_2005

> <r_lp_Energy>
33.8646

> <b_lp_Chiralities_Consistent>
1

> <s_lp_Variant>
AV-unprocessed.smi:158-9

> <Gold.Version>
5.8.1

> <Gold.Id.Protein>
6NUR|6NUR_protein|mol2

> <Gold.PLP.Fitness>
43.0876

> <Gold.PLP.PLP>
-35.1404

> <Gold.PLP.part.hbond>
-4.6738

> <Gold.PLP.part.metal>
0.0000

> <Gold.PLP.part.buried>
-3.3614

> <Gold.PLP.part.nonpolar>
-25.3014

> <Gold.PLP.part.repulsive>
0.0120

> <Gold.PLP.ligand.clash>
0.0000

> <Gold.PLP.ligand.torsion>
0.5297

> <Gold.PLP.Chemscore.Hbond>
3.0000

> <Gold.PLP.Chemscore.CHOScore>
0.0000

> <Gold.PLP.Chemscore.Metal>
0.0000

> <Gold.Chemscore.Hbonds>
donor molecule, donor type, donor heavy atom, donor atom, acceptor molecule, acceptor atom, score
      L1  H    16    30       P1  8029  0.94
      L1  H    18    31       P1  8028  0.70
      P1  H  7997  8008       L1     6  0.80

> <Gold.PLP.Chemscore.Internal.Correction>
0.0066

> <Gold.Rescore>
     Score         DG    S(hbond)    S(metal)    S(lipo)     H(rot)  DE(clash)    DE(int)     intcor
     10.09     -11.75       2.61        0.00      47.50       3.12       0.75       0.91       ----

> <Gold.Chemscore.Fitness>
10.0878

> <Gold.Chemscore.DG>
-11.7524

> <Gold.Chemscore.ZeroCoef>
-5.4800

> <Gold.Chemscore.Hbond>
2.6077

> <Gold.Chemscore.Metal>
0.0000

> <Gold.Chemscore.Lipo>
47.5018

> <Gold.Chemscore.Internal_Hbond>
0.0000

> <Gold.Chemscore.DEClash>
0.7536

> <Gold.Chemscore.DEInternal>
0.9110

> <Gold.Chemscore.Rot>
3.1230

> <Gold.Chemscore.Internal.Correction>
   9.000000E+99

> <Gold.Chemscore.Hbonds>
donor molecule, donor type, donor heavy atom, donor atom, acceptor molecule, acceptor atom, score
      L1  H    16    30       P1  8029  0.90
      L1  H    18    31       P1  8028  0.07
      P1  H  7997  8008       L1     6  0.12

> <Gold.Chemscore.Hbond.Weighted>
-8.7097

> <Gold.Chemscore.Metal.Weighted>
-0.0000

> <Gold.Chemscore.Lipo.Weighted>
-5.5577

> <Gold.Chemscore.Internal_Hbond.Weighted>
0.0000

> <Gold.Chemscore.DEClash.Weighted>
0.7536

> <Gold.Chemscore.DEInternal.Weighted>
0.9110

> <Gold.Chemscore.Rot.Weighted>
7.9950

> <Gold.Chemscore.Internal.Correction.Weighted>
   9.000000E+99

> <Gold.Protein.RotatedTorsions>
[ 6907 6896 6895 6894 ] final  -99.38 input  -60.11 | X-H torsion
[ 7974 7965 7964 7962 ] final -135.41 input  175.53 | X-H torsion
[ 8008 7997 7996 7995 ] final  -92.68 input   59.86 | X-H torsion
[ 10167 10162 10161 10158 ] final   74.85 input  -65.29 | X-H torsion
[ 10718 10713 10712 10709 ] final  -23.02 input   66.30 | X-H torsion
[ 10763 10752 10751 10750 ] final  167.11 input  -60.55 | X-H torsion
[ 11005 11000 10999 10996 ] final -101.78 input  -57.11 | X-H torsion

> <Gold.Protein.ActiveResidues>
 VAL166  LYS551  ARG553  GLY616  TRP617  ASP618  TYR619  PRO620  LYS621  CYS622 
 ASP623  PHE694  ASN695  SER759  ASP760  ASP761  ALA762  ILE779  LEU786  VAL792 
 PHE793  MET794  SER795  GLU796  ALA797  LYS798  CYS799  TRP800  GLU811  SER814 

> <Gold.Protein.RotatedAtoms>
  150.7078  134.1049  159.3978 H   0  0  0  0  0  0  0  0  0  0  0  0  # atno 6907 bound_to 6896
  151.9035  135.0366  160.0518 H   0  0  0  0  0  0  0  0  0  0  0  0  # atno 6908 bound_to 6896
  152.2394  133.5087  159.5298 H   0  0  0  0  0  0  0  0  0  0  0  0  # atno 6909 bound_to 6896
  144.9017  140.6779  143.5081 H   0  0  0  0  0  0  0  0  0  0  0  0  # atno 7974 bound_to 7965
  154.7262  140.0506  157.0684 H   0  0  0  0  0  0  0  0  0  0  0  0  # atno 8008 bound_to 7997
  155.0362  140.3163  155.4721 H   0  0  0  0  0  0  0  0  0  0  0  0  # atno 8009 bound_to 7997
  156.2829  140.2141  156.5485 H   0  0  0  0  0  0  0  0  0  0  0  0  # atno 8010 bound_to 7997
  140.0093  144.5626  150.7672 H   0  0  0  0  0  0  0  0  0  0  0  0  # atno 10167 bound_to 10162
  156.4966  130.4578  149.6725 H   0  0  0  0  0  0  0  0  0  0  0  0  # atno 10718 bound_to 10713
  154.3491  135.2753  155.2382 H   0  0  0  0  0  0  0  0  0  0  0  0  # atno 10763 bound_to 10752
  154.4619  135.5905  153.6265 H   0  0  0  0  0  0  0  0  0  0  0  0  # atno 10764 bound_to 10752
  152.9851  135.6067  154.3699 H   0  0  0  0  0  0  0  0  0  0  0  0  # atno 10765 bound_to 10752
  141.1217  133.8505  157.1275 H   0  0  0  0  0  0  0  0  0  0  0  0  # atno 11005 bound_to 11000
  145.3605  139.1683  143.4385 LP  0  0  0  0  0  0  0  0  0  0  0  0  # atno 17320 bound_to 7965
  146.3112  140.3667  142.8670 LP  0  0  0  0  0  0  0  0  0  0  0  0  # atno 17321 bound_to 7965
  140.7388  143.2783  151.3676 LP  0  0  0  0  0  0  0  0  0  0  0  0  # atno 17342 bound_to 10162
  139.6216  144.0895  152.2397 LP  0  0  0  0  0  0  0  0  0  0  0  0  # atno 17343 bound_to 10162
  156.3374  130.7364  151.2303 LP  0  0  0  0  0  0  0  0  0  0  0  0  # atno 17370 bound_to 10713
  157.7468  131.0413  150.4640 LP  0  0  0  0  0  0  0  0  0  0  0  0  # atno 17371 bound_to 10713
  140.0179  134.9959  157.0532 LP  0  0  0  0  0  0  0  0  0  0  0  0  # atno 17394 bound_to 11000
  140.4488  134.1604  155.7180 LP  0  0  0  0  0  0  0  0  0  0  0  0  # atno 17395 bound_to 11000

$$$$
