AV-unprocessed.smi:2952|AV-procd|sdf|11291|dock7
  -GOLD-   2272016183D 1   1.00000     0.00000
 Structure written by MMmdl.
 38 40  0  0  0  0  0  0  0  0  1 V2000
  153.8888  138.9718  157.6446 O   0  0  0  0  0  0  0  0  0  0  0  0
  152.9473  139.0377  158.6947 C   0  0  0  0  0  0  0  0  0  0  0  0
  151.5342  139.3329  158.1644 C   0  0  0  0  0  0  0  0  0  0  0  0
  151.3704  140.7208  157.7512 N   0  0  0  0  0  0  0  0  0  0  0  0
  150.9553  141.2135  156.5549 C   0  0  0  0  0  0  0  0  0  0  0  0
  150.5702  140.3237  155.4030 C   0  0  0  0  0  0  0  0  0  0  0  0
  149.1595  140.4061  155.0248 N   0  0  0  0  0  0  0  0  0  0  0  0
  148.7802  139.3704  154.0661 C   0  0  0  0  0  0  0  0  0  0  0  0
  147.2989  139.4771  153.6660 C   0  0  0  0  0  0  0  0  0  0  0  0
  147.0387  140.7759  153.1423 O   0  0  0  0  0  0  0  0  0  0  0  0
  147.3554  141.8141  154.0642 C   0  0  0  0  0  0  0  0  0  0  0  0
  148.8374  141.7133  154.4654 C   0  0  0  0  0  0  0  0  0  0  0  0
  150.9284  142.5454  156.4598 N   0  0  0  0  0  0  0  0  0  0  0  0
  151.3427  142.9524  157.7116 C   0  0  0  0  0  0  0  0  0  0  0  0
  151.5150  144.2494  158.2457 C   0  0  0  0  0  0  0  0  0  0  0  0
  151.9575  144.4208  159.5739 C   0  0  0  0  0  0  0  0  0  0  0  0
  152.2337  143.3004  160.3847 C   0  0  0  0  0  0  0  0  0  0  0  0
  152.7754  143.5222  162.0073 Cl  0  0  0  0  0  0  0  0  0  0  0  0
  152.0688  141.9999  159.8706 C   0  0  0  0  0  0  0  0  0  0  0  0
  151.6266  141.8346  158.5446 C   0  0  0  0  0  0  0  0  0  0  0  0
  153.4666  138.5986  156.8858 H   0  0  0  0  0  0  0  0  0  0  0  0
  152.9609  138.0938  159.2400 H   0  0  0  0  0  0  0  0  0  0  0  0
  153.2558  139.8156  159.3934 H   0  0  0  0  0  0  0  0  0  0  0  0
  151.3343  138.6983  157.3006 H   0  0  0  0  0  0  0  0  0  0  0  0
  150.7758  139.0703  158.9010 H   0  0  0  0  0  0  0  0  0  0  0  0
  151.1917  140.6122  154.5547 H   0  0  0  0  0  0  0  0  0  0  0  0
  150.8173  139.2870  155.6260 H   0  0  0  0  0  0  0  0  0  0  0  0
  149.3986  139.4519  153.1712 H   0  0  0  0  0  0  0  0  0  0  0  0
  148.9663  138.3808  154.4842 H   0  0  0  0  0  0  0  0  0  0  0  0
  147.0557  138.7314  152.9090 H   0  0  0  0  0  0  0  0  0  0  0  0
  146.6526  139.2865  154.5241 H   0  0  0  0  0  0  0  0  0  0  0  0
  147.1527  142.7789  153.5991 H   0  0  0  0  0  0  0  0  0  0  0  0
  146.7114  141.7391  154.9418 H   0  0  0  0  0  0  0  0  0  0  0  0
  149.0684  142.4935  155.1916 H   0  0  0  0  0  0  0  0  0  0  0  0
  149.4614  141.9057  153.5912 H   0  0  0  0  0  0  0  0  0  0  0  0
  151.3070  145.1136  157.6323 H   0  0  0  0  0  0  0  0  0  0  0  0
  152.0861  145.4173  159.9704 H   0  0  0  0  0  0  0  0  0  0  0  0
  152.2791  141.1389  160.4874 H   0  0  0  0  0  0  0  0  0  0  0  0
  1  2  1  0  0  0  0
  1 21  1  0  0  0  0
  2  3  1  0  0  0  0
  2 22  1  0  0  0  0
  2 23  1  0  0  0  0
  3  4  1  0  0  0  0
  3 24  1  0  0  0  0
  3 25  1  0  0  0  0
  4 20  1  0  0  0  0
  4  5  1  0  0  0  0
  5  6  1  0  0  0  0
  5 13  2  0  0  0  0
  6  7  1  0  0  0  0
  6 26  1  0  0  0  0
  6 27  1  0  0  0  0
  7 12  1  0  0  0  0
  7  8  1  0  0  0  0
  8  9  1  0  0  0  0
  8 28  1  0  0  0  0
  8 29  1  0  0  0  0
  9 10  1  0  0  0  0
  9 30  1  0  0  0  0
  9 31  1  0  0  0  0
 10 11  1  0  0  0  0
 11 12  1  0  0  0  0
 11 32  1  0  0  0  0
 11 33  1  0  0  0  0
 12 34  1  0  0  0  0
 12 35  1  0  0  0  0
 13 14  1  0  0  0  0
 14 20  2  0  0  0  0
 14 15  1  0  0  0  0
 15 16  2  0  0  0  0
 15 36  1  0  0  0  0
 16 17  1  0  0  0  0
 16 37  1  0  0  0  0
 17 18  1  0  0  0  0
 17 19  2  0  0  0  0
 19 20  1  0  0  0  0
 19 38  1  0  0  0  0
M  END
> <s_m_source_file>
AV-unprocessed.smi

> <i_m_source_file_index>
2952

> <i_lp_mmshare_version>
43012

> <i_f3d_flags>
0

> <s_epik_input>
W2NIXTFbY0hdYyhDbClbY0hdYyhjMTIpbihbQ0gyXVtDSDJdW09IXSljKG4yKVtDSDJdTjNbQ0gyXVtDSDJdT1tDSDJdW0NIMl0z

> <s_epik_cmdline>
J2VwaWtfcHl0aG9uJywgJy1waCcsICc3LjAnLCAnLXRuJywgJzgnLCAnLW1hJywgJzIwMCcsICctbWV0YWxfYmluZGluZycsICctaW1hZScsICc8aW5maWxlLm1hZT4nLCAnLW9tYWUnLCAnPG91dGZpbGUubWFlPic=

> <r_epik_Ionization_Penalty>
0.0905371

> <r_epik_Ionization_Penalty_Charging>
0

> <r_epik_Ionization_Penalty_Neutral>
0.0905371

> <r_epik_State_Penalty>
0.0787939

> <r_epik_Charging_Adjusted_Penalty>
0.0787939

> <i_epik_Tot_Q>
0

> <i_epik_Tot_abs_Q>
0

> <r_epik_Metal_State_Penalty>
8.42675e-05

> <b_epik_Metal_Only>
0

> <s_lp_Force_Field>
OPLS_2005

> <r_lp_Energy>
22.7724

> <b_lp_Chiralities_Consistent>
1

> <s_lp_Variant>
AV-unprocessed.smi:2952-1

> <Gold.Version>
5.8.1

> <Gold.Id.Protein>
6NUR|6NUR_protein|mol2

> <Gold.PLP.Fitness>
46.6136

> <Gold.PLP.PLP>
-43.9036

> <Gold.PLP.part.hbond>
-0.8384

> <Gold.PLP.part.metal>
0.0000

> <Gold.PLP.part.buried>
-3.1518

> <Gold.PLP.part.nonpolar>
-39.3489

> <Gold.PLP.part.repulsive>
0.3776

> <Gold.PLP.ligand.clash>
0.0000

> <Gold.PLP.ligand.torsion>
0.1490

> <Gold.PLP.Chemscore.Hbond>
1.0000

> <Gold.PLP.Chemscore.CHOScore>
0.0000

> <Gold.PLP.Chemscore.Metal>
0.0000

> <Gold.Chemscore.Hbonds>
donor molecule, donor type, donor heavy atom, donor atom, acceptor molecule, acceptor atom, score
      P1  H  7997  8010       L1     1  0.81

> <Gold.PLP.Chemscore.Internal.Correction>
0.0080

> <Gold.Rescore>
     Score         DG    S(hbond)    S(metal)    S(lipo)     H(rot)  DE(clash)    DE(int)     intcor
     15.74     -15.96       0.71        0.00     115.94       2.13       0.06       0.17       ----

> <Gold.Chemscore.Fitness>
15.7365

> <Gold.Chemscore.DG>
-15.9634

> <Gold.Chemscore.ZeroCoef>
-5.4800

> <Gold.Chemscore.Hbond>
0.7065

> <Gold.Chemscore.Metal>
0.0000

> <Gold.Chemscore.Lipo>
115.9434

> <Gold.Chemscore.Internal_Hbond>
0.0000

> <Gold.Chemscore.DEClash>
0.0598

> <Gold.Chemscore.DEInternal>
0.1672

> <Gold.Chemscore.Rot>
2.1256

> <Gold.Chemscore.Internal.Correction>
   9.000000E+99

> <Gold.Chemscore.Hbonds>
donor molecule, donor type, donor heavy atom, donor atom, acceptor molecule, acceptor atom, score
      P1  H  7997  8010       L1     1  0.53

> <Gold.Chemscore.Hbond.Weighted>
-2.3596

> <Gold.Chemscore.Metal.Weighted>
-0.0000

> <Gold.Chemscore.Lipo.Weighted>
-13.5654

> <Gold.Chemscore.Internal_Hbond.Weighted>
0.0000

> <Gold.Chemscore.DEClash.Weighted>
0.0598

> <Gold.Chemscore.DEInternal.Weighted>
0.1672

> <Gold.Chemscore.Rot.Weighted>
5.4415

> <Gold.Chemscore.Internal.Correction.Weighted>
   9.000000E+99

> <Gold.Protein.RotatedTorsions>
[ 6907 6896 6895 6894 ] final -151.96 input  -60.11 | X-H torsion
[ 7974 7965 7964 7962 ] final   51.35 input  175.53 | X-H torsion
[ 8008 7997 7996 7995 ] final   14.41 input   59.86 | X-H torsion
[ 10167 10162 10161 10158 ] final   -8.77 input  -65.29 | X-H torsion
[ 10718 10713 10712 10709 ] final  -88.77 input   66.30 | X-H torsion
[ 10763 10752 10751 10750 ] final    3.90 input  -60.55 | X-H torsion
[ 11005 11000 10999 10996 ] final -152.28 input  -57.11 | X-H torsion

> <Gold.Protein.ActiveResidues>
 VAL166  LYS551  ARG553  GLY616  TRP617  ASP618  TYR619  PRO620  LYS621  CYS622 
 ASP623  PHE694  ASN695  SER759  ASP760  ASP761  ALA762  ILE779  LEU786  VAL792 
 PHE793  MET794  SER795  GLU796  ALA797  LYS798  CYS799  TRP800  GLU811  SER814 

> <Gold.Protein.RotatedAtoms>
  151.2207  133.4504  159.2600 H   0  0  0  0  0  0  0  0  0  0  0  0  # atno 6907 bound_to 6896
  151.0887  134.9903  159.8402 H   0  0  0  0  0  0  0  0  0  0  0  0  # atno 6908 bound_to 6896
  152.5432  134.2142  159.8815 H   0  0  0  0  0  0  0  0  0  0  0  0  # atno 6909 bound_to 6896
  145.9922  139.4351  143.0066 H   0  0  0  0  0  0  0  0  0  0  0  0  # atno 7974 bound_to 7965
  154.8481  140.2925  155.5616 H   0  0  0  0  0  0  0  0  0  0  0  0  # atno 8008 bound_to 7997
  156.3015  140.2501  156.3367 H   0  0  0  0  0  0  0  0  0  0  0  0  # atno 8009 bound_to 7997
  154.9051  140.0390  157.1904 H   0  0  0  0  0  0  0  0  0  0  0  0  # atno 8010 bound_to 7997
  140.7068  143.5932  150.8872 H   0  0  0  0  0  0  0  0  0  0  0  0  # atno 10167 bound_to 10162
  155.9983  130.4848  150.5070 H   0  0  0  0  0  0  0  0  0  0  0  0  # atno 10718 bound_to 10713
  153.2777  135.6938  153.7417 H   0  0  0  0  0  0  0  0  0  0  0  0  # atno 10763 bound_to 10752
  153.6416  135.3392  155.3074 H   0  0  0  0  0  0  0  0  0  0  0  0  # atno 10764 bound_to 10752
  154.8485  135.4433  154.1820 H   0  0  0  0  0  0  0  0  0  0  0  0  # atno 10765 bound_to 10752
  140.7206  134.3732  157.5184 H   0  0  0  0  0  0  0  0  0  0  0  0  # atno 11005 bound_to 11000
  145.7613  140.9934  143.1198 LP  0  0  0  0  0  0  0  0  0  0  0  0  # atno 17320 bound_to 7965
  144.6892  139.9333  143.7472 LP  0  0  0  0  0  0  0  0  0  0  0  0  # atno 17321 bound_to 7965
  139.9657  143.6113  152.2989 LP  0  0  0  0  0  0  0  0  0  0  0  0  # atno 17342 bound_to 10162
  139.6682  144.7661  151.1834 LP  0  0  0  0  0  0  0  0  0  0  0  0  # atno 17343 bound_to 10162
  157.3048  131.0652  151.2043 LP  0  0  0  0  0  0  0  0  0  0  0  0  # atno 17370 bound_to 10713
  157.3009  130.6842  149.6164 LP  0  0  0  0  0  0  0  0  0  0  0  0  # atno 17371 bound_to 10713
  139.8849  134.8952  156.2675 LP  0  0  0  0  0  0  0  0  0  0  0  0  # atno 17394 bound_to 11000
  141.0007  133.7153  156.0956 LP  0  0  0  0  0  0  0  0  0  0  0  0  # atno 17395 bound_to 11000

$$$$
