AV-unprocessed.smi:34|AV-procd|sdf|233|dock1
  -GOLD-   2262015563D 1   1.00000     0.00000
 Structure written by MMmdl.
 54 58  0  0  0  0  0  0  0  0  2 V2000
  152.8092  140.3240  157.7536 O   0  0  0  0  0  0  0  0  0  0  0  0
  152.0793  141.2872  157.5100 C   0  0  0  0  0  0  0  0  0  0  0  0
  151.2692  141.4684  156.4363 N   0  5  0  0  0  0  0  0  0  0  0  0
  150.5252  140.4505  155.9772 C   0  0  0  0  0  0  0  0  0  0  0  0
  149.9314  140.5304  154.7593 N   0  0  0  0  0  0  0  0  0  0  0  0
  149.1780  139.5214  154.3080 C   0  0  0  0  0  0  0  0  0  0  0  0
  148.8835  138.3629  154.9046 N   0  0  0  0  0  0  0  0  0  0  0  0
  149.4694  138.2689  156.1327 C   0  0  0  0  0  0  0  0  0  0  0  0
  150.2948  139.2662  156.7304 C   0  0  0  0  0  0  0  0  0  0  0  0
  150.7275  138.8610  157.9840 N   0  0  0  0  0  0  0  0  0  0  0  0
  150.1612  137.6613  158.0881 C   0  0  0  0  0  0  0  0  0  0  0  0
  149.4051  137.2363  157.0565 N   0  0  0  0  0  0  0  0  0  0  0  0
  148.6683  135.9380  156.9695 C   0  0  2  0  0  0  0  0  0  0  0  0
  149.5348  134.9545  156.4837 O   0  0  0  0  0  0  0  0  0  0  0  0
  148.8852  134.1464  155.4955 C   0  0  2  0  0  0  0  0  0  0  0  0
  149.5124  134.3993  154.1174 C   0  0  0  0  0  0  0  0  0  0  0  0
  148.6553  133.8977  153.1047 O   0  0  0  0  0  0  0  0  0  0  0  0
  148.1935  132.6339  153.1800 C   0  0  0  0  0  0  0  0  0  0  0  0
  148.6728  131.7752  153.9236 O   0  0  0  0  0  0  0  0  0  0  0  0
  147.0397  132.3812  152.2702 C   0  0  0  0  0  0  0  0  0  0  0  0
  146.5543  133.4337  151.4595 C   0  0  0  0  0  0  0  0  0  0  0  0
  145.4671  133.2259  150.5886 C   0  0  0  0  0  0  0  0  0  0  0  0
  144.8522  131.9625  150.5175 C   0  0  0  0  0  0  0  0  0  0  0  0
  145.3263  130.9069  151.3180 C   0  0  0  0  0  0  0  0  0  0  0  0
  146.4138  131.1125  152.1894 C   0  0  0  0  0  0  0  0  0  0  0  0
  147.4169  134.5756  155.5429 C   0  0  1  0  0  0  0  0  0  0  0  0
  146.8063  133.8366  156.4738 F   0  0  0  0  0  0  0  0  0  0  0  0
  147.5124  136.0287  155.9781 C   0  0  1  0  0  0  0  0  0  0  0  0
  146.2954  136.4563  156.5558 O   0  0  0  0  0  0  0  0  0  0  0  0
  152.0919  142.4632  158.4499 C   0  0  0  0  0  0  0  0  0  0  0  0
  152.6183  142.3126  159.7532 C   0  0  0  0  0  0  0  0  0  0  0  0
  152.6160  143.3935  160.6565 C   0  0  0  0  0  0  0  0  0  0  0  0
  152.0789  144.6353  160.2689 C   0  0  0  0  0  0  0  0  0  0  0  0
  151.5398  144.7939  158.9786 C   0  0  0  0  0  0  0  0  0  0  0  0
  151.5410  143.7133  158.0751 C   0  0  0  0  0  0  0  0  0  0  0  0
  148.7459  139.6631  153.3284 H   0  0  0  0  0  0  0  0  0  0  0  0
  150.2990  137.0563  158.9722 H   0  0  0  0  0  0  0  0  0  0  0  0
  148.3610  135.6978  157.9889 H   0  0  0  0  0  0  0  0  0  0  0  0
  148.9886  133.0908  155.7506 H   0  0  0  0  0  0  0  0  0  0  0  0
  149.6476  135.4701  153.9613 H   0  0  0  0  0  0  0  0  0  0  0  0
  150.4995  133.9412  154.0575 H   0  0  0  0  0  0  0  0  0  0  0  0
  147.0108  134.4124  151.4961 H   0  0  0  0  0  0  0  0  0  0  0  0
  145.1060  134.0374  149.9738 H   0  0  0  0  0  0  0  0  0  0  0  0
  144.0192  131.8032  149.8488 H   0  0  0  0  0  0  0  0  0  0  0  0
  144.8556  129.9362  151.2637 H   0  0  0  0  0  0  0  0  0  0  0  0
  146.7545  130.2804  152.7881 H   0  0  0  0  0  0  0  0  0  0  0  0
  146.8818  134.4319  154.6035 H   0  0  0  0  0  0  0  0  0  0  0  0
  147.7908  136.6651  155.1365 H   0  0  0  0  0  0  0  0  0  0  0  0
  146.1871  137.3783  156.3779 H   0  0  0  0  0  0  0  0  0  0  0  0
  153.0330  141.3655  160.0672 H   0  0  0  0  0  0  0  0  0  0  0  0
  153.0256  143.2684  161.6478 H   0  0  0  0  0  0  0  0  0  0  0  0
  152.0764  145.4637  160.9615 H   0  0  0  0  0  0  0  0  0  0  0  0
  151.1214  145.7441  158.6813 H   0  0  0  0  0  0  0  0  0  0  0  0
  151.1117  143.8533  157.0934 H   0  0  0  0  0  0  0  0  0  0  0  0
  1  2  2  0  0  0  0
  2  3  1  0  0  0  0
  2 30  1  0  0  0  0
  3  4  1  0  0  0  0
  4  9  1  0  0  0  0
  4  5  2  0  0  0  0
  5  6  1  0  0  0  0
  6  7  2  0  0  0  0
  6 36  1  0  0  0  0
  7  8  1  0  0  0  0
  8 12  1  0  0  0  0
  8  9  2  0  0  0  0
  9 10  1  0  0  0  0
 10 11  2  0  0  0  0
 11 12  1  0  0  0  0
 11 37  1  0  0  0  0
 12 13  1  0  0  0  0
 13 28  1  0  0  0  0
 13 14  1  0  0  0  0
 13 38  1  0  0  0  0
 14 15  1  0  0  0  0
 15 16  1  0  0  0  0
 15 26  1  0  0  0  0
 15 39  1  0  0  0  0
 16 17  1  0  0  0  0
 16 40  1  0  0  0  0
 16 41  1  0  0  0  0
 17 18  1  0  0  0  0
 18 19  2  0  0  0  0
 18 20  1  0  0  0  0
 20 25  1  0  0  0  0
 20 21  2  0  0  0  0
 21 22  1  0  0  0  0
 21 42  1  0  0  0  0
 22 23  2  0  0  0  0
 22 43  1  0  0  0  0
 23 24  1  0  0  0  0
 23 44  1  0  0  0  0
 24 25  2  0  0  0  0
 24 45  1  0  0  0  0
 25 46  1  0  0  0  0
 26 27  1  0  0  0  0
 26 28  1  0  0  0  0
 26 47  1  0  0  0  0
 28 29  1  0  0  0  0
 28 48  1  0  0  0  0
 29 49  1  0  0  0  0
 30 35  1  0  0  0  0
 30 31  2  0  0  0  0
 31 32  1  0  0  0  0
 31 50  1  0  0  0  0
 32 33  2  0  0  0  0
 32 51  1  0  0  0  0
 33 34  1  0  0  0  0
 33 52  1  0  0  0  0
 34 35  2  0  0  0  0
 34 53  1  0  0  0  0
 35 54  1  0  0  0  0
M  CHG  1   3  -1
M  END
> <s_m_source_file>
AV-unprocessed.smi

> <i_m_source_file_index>
34

> <i_lp_mmshare_version>
43012

> <i_f3d_flags>
0

> <s_epik_input>
W2NIXTFbY0hdW2NIXVtjSF1bY0hdYzFDKD1PKVtOSF1jKG5bY0hdbjIpYyhjMjMpbltjSF1uM1tDQEBIXTRPW0NASF0oW0NAQEhdKEYpW0NASF00W09IXSlbQ0gyXU9DKD1PKWM1W2NIXVtjSF1bY0hdW2NIXVtjSF01

> <s_epik_cmdline>
J2VwaWtfcHl0aG9uJywgJy1waCcsICc3LjAnLCAnLXRuJywgJzgnLCAnLW1hJywgJzIwMCcsICctbWV0YWxfYmluZGluZycsICctaW1hZScsICc8aW5maWxlLm1hZT4nLCAnLW9tYWUnLCAnPG91dGZpbGUubWFlPic=

> <r_lp_tautomer_probability>
1

> <r_epik_Ionization_Penalty>
4.33227

> <r_epik_Ionization_Penalty_Charging>
3.41027

> <r_epik_Ionization_Penalty_Neutral>
0.922001

> <r_epik_State_Penalty>
3.41358

> <r_epik_Charging_Adjusted_Penalty>
6.82385

> <i_epik_Tot_Q>
-1

> <i_epik_Tot_abs_Q>
1

> <r_epik_Metal_State_Penalty>
0.496292

> <b_epik_Metal_Only>
1

> <s_epik_Chemistry_Notes>
This compound has an ester and may undergo hydrolysis at high or low pH. This compound contains an acetal/aminal-like group ( X-CH(R)-Y where X, Y are N, S, or O) that may be acid/base labile, releasing an aldehyde.

> <s_lp_Force_Field>
OPLS_2005

> <r_lp_Energy>
46.7296

> <b_lp_Chiralities_Consistent>
1

> <s_lp_Variant>
AV-unprocessed.smi:34-19

> <Gold.Version>
5.8.1

> <Gold.Id.Protein>
6NUR|6NUR_protein|mol2

> <Gold.PLP.Fitness>
59.0106

> <Gold.PLP.PLP>
-52.0697

> <Gold.PLP.part.hbond>
-2.0000

> <Gold.PLP.part.metal>
0.0000

> <Gold.PLP.part.buried>
-7.1031

> <Gold.PLP.part.nonpolar>
-42.5833

> <Gold.PLP.part.repulsive>
0.9105

> <Gold.PLP.ligand.clash>
0.0000

> <Gold.PLP.ligand.torsion>
1.4702

> <Gold.PLP.Chemscore.Hbond>
1.9913

> <Gold.PLP.Chemscore.CHOScore>
1.0000

> <Gold.PLP.Chemscore.Metal>
0.0000

> <Gold.Chemscore.Hbonds>
donor molecule, donor type, donor heavy atom, donor atom, acceptor molecule, acceptor atom, score
      P1  H  7989  7998       L1     5  0.64
      P1  H  7997  8008       L1     1  0.91
      L1  C     6    36       P1  7957  1.00

> <Gold.PLP.Chemscore.Internal.Correction>
0.9077

> <Gold.Rescore>
     Score         DG    S(hbond)    S(metal)    S(lipo)     H(rot)  DE(clash)    DE(int)     intcor
     10.36     -18.62       1.48        0.00     129.00       2.69       0.18       8.08       ----

> <Gold.Chemscore.Fitness>
10.3581

> <Gold.Chemscore.DG>
-18.6222

> <Gold.Chemscore.ZeroCoef>
-5.4800

> <Gold.Chemscore.Hbond>
1.4811

> <Gold.Chemscore.Metal>
0.0000

> <Gold.Chemscore.Lipo>
128.9993

> <Gold.Chemscore.Internal_Hbond>
0.0000

> <Gold.Chemscore.DEClash>
0.1820

> <Gold.Chemscore.DEInternal>
8.0821

> <Gold.Chemscore.Rot>
2.6944

> <Gold.Chemscore.Internal.Correction>
   9.000000E+99

> <Gold.Chemscore.Hbonds>
donor molecule, donor type, donor heavy atom, donor atom, acceptor molecule, acceptor atom, score
      P1  H  7989  7998       L1     5  0.18
      P1  H  7997  8008       L1     1  0.87

> <Gold.Chemscore.Hbond.Weighted>
-4.9469

> <Gold.Chemscore.Metal.Weighted>
-0.0000

> <Gold.Chemscore.Lipo.Weighted>
-15.0929

> <Gold.Chemscore.Internal_Hbond.Weighted>
0.0000

> <Gold.Chemscore.DEClash.Weighted>
0.1820

> <Gold.Chemscore.DEInternal.Weighted>
8.0821

> <Gold.Chemscore.Rot.Weighted>
6.8975

> <Gold.Chemscore.Internal.Correction.Weighted>
   9.000000E+99

> <Gold.Protein.RotatedTorsions>
[ 6907 6896 6895 6894 ] final    8.99 input  -60.11 | X-H torsion
[ 7974 7965 7964 7962 ] final  -69.16 input  175.53 | X-H torsion
[ 8008 7997 7996 7995 ] final  -78.14 input   59.86 | X-H torsion
[ 10167 10162 10161 10158 ] final -164.04 input  -65.29 | X-H torsion
[ 10718 10713 10712 10709 ] final  -39.99 input   66.30 | X-H torsion
[ 10763 10752 10751 10750 ] final  -79.04 input  -60.55 | X-H torsion
[ 11005 11000 10999 10996 ] final  -90.35 input  -57.11 | X-H torsion

> <Gold.Protein.ActiveResidues>
 VAL166  LYS551  ARG553  GLY616  TRP617  ASP618  TYR619  PRO620  LYS621  CYS622 
 ASP623  PHE694  ASN695  SER759  ASP760  ASP761  ALA762  ILE779  LEU786  VAL792 
 PHE793  MET794  SER795  GLU796  ALA797  LYS798  CYS799  TRP800  GLU811  SER814 

> <Gold.Protein.RotatedAtoms>
  151.7149  135.0905  160.0273 H   0  0  0  0  0  0  0  0  0  0  0  0  # atno 6907 bound_to 6896
  152.3638  133.6327  159.6044 H   0  0  0  0  0  0  0  0  0  0  0  0  # atno 6908 bound_to 6896
  150.7623  133.9296  159.3464 H   0  0  0  0  0  0  0  0  0  0  0  0  # atno 6909 bound_to 6896
  145.7073  140.9093  143.0699 H   0  0  0  0  0  0  0  0  0  0  0  0  # atno 7974 bound_to 7965
  154.5661  140.0699  156.8894 H   0  0  0  0  0  0  0  0  0  0  0  0  # atno 8008 bound_to 7997
  155.2720  140.3366  155.4246 H   0  0  0  0  0  0  0  0  0  0  0  0  # atno 8009 bound_to 7997
  156.2082  140.1748  156.7739 H   0  0  0  0  0  0  0  0  0  0  0  0  # atno 8010 bound_to 7997
  139.6278  144.0498  152.1990 H   0  0  0  0  0  0  0  0  0  0  0  0  # atno 10167 bound_to 10162
  156.2863  130.4223  149.8285 H   0  0  0  0  0  0  0  0  0  0  0  0  # atno 10718 bound_to 10713
  154.5335  135.5709  153.6779 H   0  0  0  0  0  0  0  0  0  0  0  0  # atno 10763 bound_to 10752
  152.9945  135.6210  154.2597 H   0  0  0  0  0  0  0  0  0  0  0  0  # atno 10764 bound_to 10752
  154.2524  135.2858  155.2791 H   0  0  0  0  0  0  0  0  0  0  0  0  # atno 10765 bound_to 10752
  141.1567  133.7687  156.9725 H   0  0  0  0  0  0  0  0  0  0  0  0  # atno 11005 bound_to 11000
  144.6952  139.9027  143.7459 LP  0  0  0  0  0  0  0  0  0  0  0  0  # atno 17320 bound_to 7965
  146.0744  139.3732  143.0503 LP  0  0  0  0  0  0  0  0  0  0  0  0  # atno 17321 bound_to 7965
  140.0156  144.6191  150.7610 LP  0  0  0  0  0  0  0  0  0  0  0  0  # atno 17342 bound_to 10162
  140.7421  143.2827  151.3551 LP  0  0  0  0  0  0  0  0  0  0  0  0  # atno 17343 bound_to 10162
  156.5714  130.8426  151.3357 LP  0  0  0  0  0  0  0  0  0  0  0  0  # atno 17370 bound_to 10713
  157.7329  130.9723  150.1953 LP  0  0  0  0  0  0  0  0  0  0  0  0  # atno 17371 bound_to 10713
  140.1120  134.9471  157.2079 LP  0  0  0  0  0  0  0  0  0  0  0  0  # atno 17394 bound_to 11000
  140.3182  134.2946  155.7252 LP  0  0  0  0  0  0  0  0  0  0  0  0  # atno 17395 bound_to 11000

$$$$
