AV-unprocessed.smi:2736|AV-procd|sdf|10546|dock6
  -GOLD-   2272014593D 1   1.00000     0.00000
 Structure written by MMmdl.
 38 40  0  0  0  0  0  0  0  0  1 V2000
  152.5144  143.5023  161.9226 C   0  0  0  0  0  0  0  0  0  0  0  0
  152.7673  142.4181  160.9553 N   0  0  0  0  0  0  0  0  0  0  0  0
  151.9476  142.3204  159.8615 C   0  0  0  0  0  0  0  0  0  0  0  0
  151.0048  143.0751  159.6209 O   0  0  0  0  0  0  0  0  0  0  0  0
  152.2832  141.2084  158.9647 C   0  0  0  0  0  0  0  0  0  0  0  0
  153.3079  140.3525  159.2016 C   0  0  0  0  0  0  0  0  0  0  0  0
  153.4014  139.3886  158.2037 N   0  0  0  0  0  0  0  0  0  0  0  0
  152.3963  139.7249  157.3952 C   0  0  0  0  0  0  0  0  0  0  0  0
  151.6772  140.7998  157.7766 N   0  0  0  0  0  0  0  0  0  0  0  0
  150.5341  141.3552  157.0675 C   0  0  0  0  0  0  0  0  0  0  0  0
  149.4164  140.3178  156.8378 C   0  0  1  0  0  0  0  0  0  0  0  0
  148.5785  140.2454  157.9766 O   0  0  0  0  0  0  0  0  0  0  0  0
  148.6454  140.6145  155.5536 C   0  0  0  0  0  0  0  0  0  0  0  0
  147.7922  141.7408  155.4874 C   0  0  0  0  0  0  0  0  0  0  0  0
  147.0764  142.0309  154.3105 C   0  0  0  0  0  0  0  0  0  0  0  0
  147.2106  141.2009  153.1833 C   0  0  0  0  0  0  0  0  0  0  0  0
  148.0661  140.0851  153.2332 C   0  0  0  0  0  0  0  0  0  0  0  0
  148.7863  139.7901  154.4082 C   0  0  0  0  0  0  0  0  0  0  0  0
  149.8404  138.4189  154.4041 Cl  0  0  0  0  0  0  0  0  0  0  0  0
  154.0925  140.5435  160.3684 N   0  0  0  0  0  0  0  0  0  0  0  0
  155.2000  139.6234  160.6425 C   0  0  0  0  0  0  0  0  0  0  0  0
  153.8202  141.5665  161.2418 C   0  0  0  0  0  0  0  0  0  0  0  0
  154.5032  141.7151  162.2594 O   0  0  0  0  0  0  0  0  0  0  0  0
  151.7466  144.2154  161.6210 H   0  0  0  0  0  0  0  0  0  0  0  0
  153.4198  144.0873  162.0928 H   0  0  0  0  0  0  0  0  0  0  0  0
  152.1997  143.0852  162.8805 H   0  0  0  0  0  0  0  0  0  0  0  0
  152.1727  139.1693  156.4963 H   0  0  0  0  0  0  0  0  0  0  0  0
  150.1573  142.2272  157.6005 H   0  0  0  0  0  0  0  0  0  0  0  0
  150.8910  141.7282  156.1066 H   0  0  0  0  0  0  0  0  0  0  0  0
  149.8658  139.3285  156.7562 H   0  0  0  0  0  0  0  0  0  0  0  0
  147.7019  140.0377  157.6907 H   0  0  0  0  0  0  0  0  0  0  0  0
  147.6818  142.3950  156.3399 H   0  0  0  0  0  0  0  0  0  0  0  0
  146.4252  142.8919  154.2726 H   0  0  0  0  0  0  0  0  0  0  0  0
  146.6624  141.4225  152.2795 H   0  0  0  0  0  0  0  0  0  0  0  0
  148.1726  139.4544  152.3629 H   0  0  0  0  0  0  0  0  0  0  0  0
  156.1395  140.1694  160.7382 H   0  0  0  0  0  0  0  0  0  0  0  0
  155.3378  138.8817  159.8561 H   0  0  0  0  0  0  0  0  0  0  0  0
  155.0236  139.0816  161.5728 H   0  0  0  0  0  0  0  0  0  0  0  0
  1  2  1  0  0  0  0
  1 24  1  0  0  0  0
  1 25  1  0  0  0  0
  1 26  1  0  0  0  0
  2 22  1  0  0  0  0
  2  3  1  0  0  0  0
  3  4  2  0  0  0  0
  3  5  1  0  0  0  0
  5  9  1  0  0  0  0
  5  6  2  0  0  0  0
  6  7  1  0  0  0  0
  6 20  1  0  0  0  0
  7  8  2  0  0  0  0
  8  9  1  0  0  0  0
  8 27  1  0  0  0  0
  9 10  1  0  0  0  0
 10 11  1  0  0  0  0
 10 28  1  0  0  0  0
 10 29  1  0  0  0  0
 11 12  1  0  0  0  0
 11 13  1  0  0  0  0
 11 30  1  0  0  0  0
 12 31  1  0  0  0  0
 13 18  1  0  0  0  0
 13 14  2  0  0  0  0
 14 15  1  0  0  0  0
 14 32  1  0  0  0  0
 15 16  2  0  0  0  0
 15 33  1  0  0  0  0
 16 17  1  0  0  0  0
 16 34  1  0  0  0  0
 17 18  2  0  0  0  0
 17 35  1  0  0  0  0
 18 19  1  0  0  0  0
 20 21  1  0  0  0  0
 20 22  1  0  0  0  0
 21 36  1  0  0  0  0
 21 37  1  0  0  0  0
 21 38  1  0  0  0  0
 22 23  2  0  0  0  0
M  END
> <s_m_source_file>
AV-unprocessed.smi

> <i_m_source_file_index>
2736

> <i_lp_mmshare_version>
43012

> <i_f3d_flags>
0

> <s_epik_input>
Tz1jMW4oW0NIM10pYyg9TyluKFtDSDNdKWMoYzEyKW5bY0hdbjJbQ0gyXVtDQEhdKFtPSF0pYzNbY0hdW2NIXVtjSF1bY0hdYzNDbA==

> <s_epik_cmdline>
J2VwaWtfcHl0aG9uJywgJy1waCcsICc3LjAnLCAnLXRuJywgJzgnLCAnLW1hJywgJzIwMCcsICctbWV0YWxfYmluZGluZycsICctaW1hZScsICc8aW5maWxlLm1hZT4nLCAnLW9tYWUnLCAnPG91dGZpbGUubWFlPic=

> <r_lp_tautomer_probability>
1

> <r_epik_Ionization_Penalty>
1.63404e-06

> <r_epik_Ionization_Penalty_Charging>
3.74189e-09

> <r_epik_Ionization_Penalty_Neutral>
1.63029e-06

> <r_epik_State_Penalty>
-0

> <r_epik_Charging_Adjusted_Penalty>
3.74189e-09

> <i_epik_Tot_Q>
0

> <i_epik_Tot_abs_Q>
0

> <r_epik_Metal_State_Penalty>
-0

> <b_epik_Metal_Only>
0

> <s_lp_Force_Field>
OPLS_2005

> <r_lp_Energy>
36.7388

> <b_lp_Chiralities_Consistent>
1

> <s_lp_Variant>
AV-unprocessed.smi:2736-2

> <Gold.Version>
5.8.1

> <Gold.Id.Protein>
6NUR|6NUR_protein|mol2

> <Gold.PLP.Fitness>
45.6603

> <Gold.PLP.PLP>
-43.6299

> <Gold.PLP.part.hbond>
-3.0057

> <Gold.PLP.part.metal>
0.0000

> <Gold.PLP.part.buried>
-0.6816

> <Gold.PLP.part.nonpolar>
-39.0605

> <Gold.PLP.part.repulsive>
0.0232

> <Gold.PLP.ligand.clash>
0.0000

> <Gold.PLP.ligand.torsion>
0.4995

> <Gold.PLP.Chemscore.Hbond>
1.0000

> <Gold.PLP.Chemscore.CHOScore>
0.0000

> <Gold.PLP.Chemscore.Metal>
0.0000

> <Gold.Chemscore.Hbonds>
donor molecule, donor type, donor heavy atom, donor atom, acceptor molecule, acceptor atom, score
      P1  H  7997  8010       L1     7  1.00

> <Gold.PLP.Chemscore.Internal.Correction>
0.0295

> <Gold.Rescore>
     Score         DG    S(hbond)    S(metal)    S(lipo)     H(rot)  DE(clash)    DE(int)     intcor
      7.70      -8.60       0.02        0.00      73.13       2.15       0.60       0.30       ----

> <Gold.Chemscore.Fitness>
7.6986

> <Gold.Chemscore.DG>
-8.6004

> <Gold.Chemscore.ZeroCoef>
-5.4800

> <Gold.Chemscore.Hbond>
0.0184

> <Gold.Chemscore.Metal>
0.0000

> <Gold.Chemscore.Lipo>
73.1315

> <Gold.Chemscore.Internal_Hbond>
0.0000

> <Gold.Chemscore.DEClash>
0.5999

> <Gold.Chemscore.DEInternal>
0.3019

> <Gold.Chemscore.Rot>
2.1474

> <Gold.Chemscore.Internal.Correction>
   9.000000E+99

> <Gold.Chemscore.Hbonds>
donor molecule, donor type, donor heavy atom, donor atom, acceptor molecule, acceptor atom, score
      P1  H  7997  8010       L1     7  0.08

> <Gold.Chemscore.Hbond.Weighted>
-0.0614

> <Gold.Chemscore.Metal.Weighted>
-0.0000

> <Gold.Chemscore.Lipo.Weighted>
-8.5564

> <Gold.Chemscore.Internal_Hbond.Weighted>
0.0000

> <Gold.Chemscore.DEClash.Weighted>
0.5999

> <Gold.Chemscore.DEInternal.Weighted>
0.3019

> <Gold.Chemscore.Rot.Weighted>
5.4974

> <Gold.Chemscore.Internal.Correction.Weighted>
   9.000000E+99

> <Gold.Protein.RotatedTorsions>
[ 6907 6896 6895 6894 ] final  -24.39 input  -60.11 | X-H torsion
[ 7974 7965 7964 7962 ] final  104.42 input  175.53 | X-H torsion
[ 8008 7997 7996 7995 ] final   15.47 input   59.86 | X-H torsion
[ 10167 10162 10161 10158 ] final   63.13 input  -65.29 | X-H torsion
[ 10718 10713 10712 10709 ] final -110.43 input   66.30 | X-H torsion
[ 10763 10752 10751 10750 ] final   16.53 input  -60.55 | X-H torsion
[ 11005 11000 10999 10996 ] final  135.28 input  -57.11 | X-H torsion

> <Gold.Protein.ActiveResidues>
 VAL166  LYS551  ARG553  GLY616  TRP617  ASP618  TYR619  PRO620  LYS621  CYS622 
 ASP623  PHE694  ASN695  SER759  ASP760  ASP761  ALA762  ILE779  LEU786  VAL792 
 PHE793  MET794  SER795  GLU796  ALA797  LYS798  CYS799  TRP800  GLU811  SER814 

> <Gold.Protein.RotatedAtoms>
  151.1902  135.0399  159.8828 H   0  0  0  0  0  0  0  0  0  0  0  0  # atno 6907 bound_to 6896
  152.5440  134.0965  159.8309 H   0  0  0  0  0  0  0  0  0  0  0  0  # atno 6908 bound_to 6896
  151.1093  133.5138  159.2638 H   0  0  0  0  0  0  0  0  0  0  0  0  # atno 6909 bound_to 6896
  145.3330  139.2482  143.3650 H   0  0  0  0  0  0  0  0  0  0  0  0  # atno 7974 bound_to 7965
  154.8631  140.2947  155.5527 H   0  0  0  0  0  0  0  0  0  0  0  0  # atno 8008 bound_to 7997
  156.3020  140.2474  156.3541 H   0  0  0  0  0  0  0  0  0  0  0  0  # atno 8009 bound_to 7997
  154.8897  140.0395  157.1820 H   0  0  0  0  0  0  0  0  0  0  0  0  # atno 8010 bound_to 7997
  140.1364  144.4595  150.6835 H   0  0  0  0  0  0  0  0  0  0  0  0  # atno 10167 bound_to 10162
  156.0590  130.5815  150.8236 H   0  0  0  0  0  0  0  0  0  0  0  0  # atno 10718 bound_to 10713
  153.1422  135.6762  153.9009 H   0  0  0  0  0  0  0  0  0  0  0  0  # atno 10763 bound_to 10752
  153.8462  135.3099  155.3431 H   0  0  0  0  0  0  0  0  0  0  0  0  # atno 10764 bound_to 10752
  154.7796  135.4895  153.9902 H   0  0  0  0  0  0  0  0  0  0  0  0  # atno 10765 bound_to 10752
  139.9969  134.9494  156.9984 H   0  0  0  0  0  0  0  0  0  0  0  0  # atno 11005 bound_to 11000
  146.3038  140.3911  142.8694 LP  0  0  0  0  0  0  0  0  0  0  0  0  # atno 17320 bound_to 7965
  144.8849  140.7449  143.5963 LP  0  0  0  0  0  0  0  0  0  0  0  0  # atno 17321 bound_to 7965
  140.6786  143.2316  151.5442 LP  0  0  0  0  0  0  0  0  0  0  0  0  # atno 17342 bound_to 10162
  139.5494  144.2436  152.1502 LP  0  0  0  0  0  0  0  0  0  0  0  0  # atno 17343 bound_to 10162
  157.5584  131.0945  150.9595 LP  0  0  0  0  0  0  0  0  0  0  0  0  # atno 17370 bound_to 10713
  156.9838  130.5537  149.5298 LP  0  0  0  0  0  0  0  0  0  0  0  0  # atno 17371 bound_to 10713
  140.4801  134.1298  155.7215 LP  0  0  0  0  0  0  0  0  0  0  0  0  # atno 17394 bound_to 11000
  141.1611  133.8790  157.1844 LP  0  0  0  0  0  0  0  0  0  0  0  0  # atno 17395 bound_to 11000

$$$$
