AV-unprocessed.smi:1008|AV-procd|sdf|4410|dock7
  -GOLD-   22720 2353D 1   1.00000     0.00000
 Structure written by MMmdl.
 23 23  0  0  0  0  0  0  0  0  1 V2000
  147.1544  142.7226  153.7710 C   0  0  0  0  0  0  0  0  0  0  0  0
  147.7890  141.3539  153.5973 C   0  0  0  0  0  0  0  0  0  0  0  0
  147.0196  140.4127  152.8999 N   0  0  0  0  0  0  0  0  0  0  0  0
  147.4843  139.2211  152.7086 C   0  0  0  0  0  0  0  0  0  0  0  0
  146.8380  138.1996  152.0436 N   0  0  0  0  0  0  0  0  0  0  0  0
  148.7432  138.8528  153.1834 N   0  0  0  0  0  0  0  0  0  0  0  0
  149.5611  139.6894  153.8611 C   0  0  0  0  0  0  0  0  0  0  0  0
  150.6643  139.3057  154.2471 O   0  0  0  0  0  0  0  0  0  0  0  0
  149.0271  141.0453  154.0775 C   0  0  0  0  0  0  0  0  0  0  0  0
  149.8919  142.0334  154.8553 C   0  0  0  0  0  0  0  0  0  0  0  0
  149.7580  141.8492  156.3737 C   0  0  0  0  0  0  0  0  0  0  0  0
  150.3041  142.9661  157.0405 O   0  0  0  0  0  0  0  0  0  0  0  0
  149.0707  137.9132  153.0141 H   0  0  0  0  0  0  0  0  0  0  0  0
  147.8288  143.5073  153.4273 H   0  0  0  0  0  0  0  0  0  0  0  0
  146.9189  142.9013  154.8203 H   0  0  0  0  0  0  0  0  0  0  0  0
  146.2288  142.8057  153.2003 H   0  0  0  0  0  0  0  0  0  0  0  0
  145.9187  138.2982  151.6371 H   0  0  0  0  0  0  0  0  0  0  0  0
  147.2303  137.2786  151.9121 H   0  0  0  0  0  0  0  0  0  0  0  0
  150.9368  141.9269  154.5650 H   0  0  0  0  0  0  0  0  0  0  0  0
  149.6214  143.0530  154.5762 H   0  0  0  0  0  0  0  0  0  0  0  0
  148.7117  141.7417  156.6608 H   0  0  0  0  0  0  0  0  0  0  0  0
  150.2813  140.9504  156.7012 H   0  0  0  0  0  0  0  0  0  0  0  0
  150.0162  143.7503  156.5988 H   0  0  0  0  0  0  0  0  0  0  0  0
  1  2  1  0  0  0  0
  1 14  1  0  0  0  0
  1 15  1  0  0  0  0
  1 16  1  0  0  0  0
  2  9  2  0  0  0  0
  2  3  1  0  0  0  0
  3  4  2  0  0  0  0
  4  5  1  0  0  0  0
  4  6  1  0  0  0  0
  5 17  1  0  0  0  0
  5 18  1  0  0  0  0
  6 13  1  0  0  0  0
  6  7  1  0  0  0  0
  7  8  2  0  0  0  0
  7  9  1  0  0  0  0
  9 10  1  0  0  0  0
 10 11  1  0  0  0  0
 10 19  1  0  0  0  0
 10 20  1  0  0  0  0
 11 12  1  0  0  0  0
 11 21  1  0  0  0  0
 11 22  1  0  0  0  0
 12 23  1  0  0  0  0
M  END
> <s_m_source_file>
AV-unprocessed.smi

> <i_m_source_file_index>
1008

> <i_lp_mmshare_version>
43012

> <i_f3d_flags>
0

> <s_epik_input>
W0NIM11jMW5jKFtOSDJdKVtuSF1jKD1PKWMxW0NIMl1bQ0gyXVtPSF0=

> <s_epik_cmdline>
J2VwaWtfcHl0aG9uJywgJy1waCcsICc3LjAnLCAnLXRuJywgJzgnLCAnLW1hJywgJzIwMCcsICctbWV0YWxfYmluZGluZycsICctaW1hZScsICc8aW5maWxlLm1hZT4nLCAnLW9tYWUnLCAnPG91dGZpbGUubWFlPic=

> <r_lp_tautomer_probability>
0.878315

> <r_epik_Ionization_Penalty>
0.000554322

> <r_epik_Ionization_Penalty_Charging>
3.57358e-05

> <r_epik_Ionization_Penalty_Neutral>
0.000518586

> <r_epik_State_Penalty>
0.0663044

> <r_epik_Charging_Adjusted_Penalty>
0.0663402

> <i_epik_Tot_Q>
0

> <i_epik_Tot_abs_Q>
0

> <r_epik_Metal_State_Penalty>
0.196169

> <b_epik_Metal_Only>
0

> <s_lp_Force_Field>
OPLS_2005

> <r_lp_Energy>
7.47934

> <b_lp_Chiralities_Consistent>
1

> <s_lp_Variant>
AV-unprocessed.smi:1008-1

> <Gold.Version>
5.8.1

> <Gold.Id.Protein>
6NUR|6NUR_protein|mol2

> <Gold.PLP.Fitness>
32.4599

> <Gold.PLP.PLP>
-21.4954

> <Gold.PLP.part.hbond>
-5.0000

> <Gold.PLP.part.metal>
0.0000

> <Gold.PLP.part.buried>
1.4905

> <Gold.PLP.part.nonpolar>
-18.9036

> <Gold.PLP.part.repulsive>
0.5295

> <Gold.PLP.ligand.clash>
0.0000

> <Gold.PLP.ligand.torsion>
0.3740

> <Gold.PLP.Chemscore.Hbond>
3.9040

> <Gold.PLP.Chemscore.CHOScore>
0.0000

> <Gold.PLP.Chemscore.Metal>
0.0000

> <Gold.Chemscore.Hbonds>
donor molecule, donor type, donor heavy atom, donor atom, acceptor molecule, acceptor atom, score
      L1  H     5    18       P1  7948  0.88
      L1  H     6    13       P1  7948  0.94
      L1  H    12    23       P1  8028  1.00
      P1  H  7989  7998       L1     8  0.70

> <Gold.PLP.Chemscore.Internal.Correction>
0.0006

> <Gold.Rescore>
     Score         DG    S(hbond)    S(metal)    S(lipo)     H(rot)  DE(clash)    DE(int)     intcor
     12.96     -14.43       3.12        0.00      32.46       2.06       1.27       0.19       ----

> <Gold.Chemscore.Fitness>
12.9629

> <Gold.Chemscore.DG>
-14.4263

> <Gold.Chemscore.ZeroCoef>
-5.4800

> <Gold.Chemscore.Hbond>
3.1199

> <Gold.Chemscore.Metal>
0.0000

> <Gold.Chemscore.Lipo>
32.4637

> <Gold.Chemscore.Internal_Hbond>
0.0000

> <Gold.Chemscore.DEClash>
1.2734

> <Gold.Chemscore.DEInternal>
0.1899

> <Gold.Chemscore.Rot>
2.0595

> <Gold.Chemscore.Internal.Correction>
   9.000000E+99

> <Gold.Chemscore.Hbonds>
donor molecule, donor type, donor heavy atom, donor atom, acceptor molecule, acceptor atom, score
      L1  H     5    18       P1  7948  0.84
      L1  H     6    13       P1  7948  0.88
      L1  H    12    23       P1  8028  0.98
      P1  H  7989  7998       L1     8  0.07

> <Gold.Chemscore.Hbond.Weighted>
-10.4204

> <Gold.Chemscore.Metal.Weighted>
-0.0000

> <Gold.Chemscore.Lipo.Weighted>
-3.7982

> <Gold.Chemscore.Internal_Hbond.Weighted>
0.0000

> <Gold.Chemscore.DEClash.Weighted>
1.2734

> <Gold.Chemscore.DEInternal.Weighted>
0.1899

> <Gold.Chemscore.Rot.Weighted>
5.2724

> <Gold.Chemscore.Internal.Correction.Weighted>
   9.000000E+99

> <Gold.Protein.RotatedTorsions>
[ 6907 6896 6895 6894 ] final  123.91 input  -60.11 | X-H torsion
[ 7974 7965 7964 7962 ] final  168.95 input  175.53 | X-H torsion
[ 8008 7997 7996 7995 ] final -170.69 input   59.86 | X-H torsion
[ 10167 10162 10161 10158 ] final   59.33 input  -65.29 | X-H torsion
[ 10718 10713 10712 10709 ] final   -7.17 input   66.30 | X-H torsion
[ 10763 10752 10751 10750 ] final    1.02 input  -60.55 | X-H torsion
[ 11005 11000 10999 10996 ] final  134.50 input  -57.11 | X-H torsion

> <Gold.Protein.ActiveResidues>
 VAL166  LYS551  ARG553  GLY616  TRP617  ASP618  TYR619  PRO620  LYS621  CYS622 
 ASP623  PHE694  ASN695  SER759  ASP760  ASP761  ALA762  ILE779  LEU786  VAL792 
 PHE793  MET794  SER795  GLU796  ALA797  LYS798  CYS799  TRP800  GLU811  SER814 

> <Gold.Protein.RotatedAtoms>
  152.4122  133.6981  159.6407 H   0  0  0  0  0  0  0  0  0  0  0  0  # atno 6907 bound_to 6896
  150.8001  133.8604  159.3239 H   0  0  0  0  0  0  0  0  0  0  0  0  # atno 6908 bound_to 6896
  151.6343  135.1021  160.0180 H   0  0  0  0  0  0  0  0  0  0  0  0  # atno 6909 bound_to 6896
  144.7371  139.8983  143.6407 H   0  0  0  0  0  0  0  0  0  0  0  0  # atno 7974 bound_to 7965
  155.9216  140.1075  157.1202 H   0  0  0  0  0  0  0  0  0  0  0  0  # atno 8008 bound_to 7997
  154.4055  140.1255  156.4752 H   0  0  0  0  0  0  0  0  0  0  0  0  # atno 8009 bound_to 7997
  155.7188  140.3470  155.5009 H   0  0  0  0  0  0  0  0  0  0  0  0  # atno 8010 bound_to 7997
  140.1775  144.4215  150.6631 H   0  0  0  0  0  0  0  0  0  0  0  0  # atno 10167 bound_to 10162
  156.7211  130.5151  149.5868 H   0  0  0  0  0  0  0  0  0  0  0  0  # atno 10718 bound_to 10713
  153.3133  135.6964  153.7096 H   0  0  0  0  0  0  0  0  0  0  0  0  # atno 10763 bound_to 10752
  153.5964  135.3470  155.2930 H   0  0  0  0  0  0  0  0  0  0  0  0  # atno 10764 bound_to 10752
  154.8580  135.4330  154.2277 H   0  0  0  0  0  0  0  0  0  0  0  0  # atno 10765 bound_to 10752
  139.9919  134.9512  156.9876 H   0  0  0  0  0  0  0  0  0  0  0  0  # atno 11005 bound_to 11000
  146.1091  139.4093  143.0299 LP  0  0  0  0  0  0  0  0  0  0  0  0  # atno 17320 bound_to 7965
  145.7469  140.9987  143.1271 LP  0  0  0  0  0  0  0  0  0  0  0  0  # atno 17321 bound_to 7965
  140.6541  143.2233  151.6009 LP  0  0  0  0  0  0  0  0  0  0  0  0  # atno 17342 bound_to 10162
  139.5310  144.2915  152.1148 LP  0  0  0  0  0  0  0  0  0  0  0  0  # atno 17343 bound_to 10162
  156.1594  130.6363  151.0699 LP  0  0  0  0  0  0  0  0  0  0  0  0  # atno 17370 bound_to 10713
  157.6897  131.0814  150.7141 LP  0  0  0  0  0  0  0  0  0  0  0  0  # atno 17371 bound_to 10713
  140.4892  134.1211  155.7230 LP  0  0  0  0  0  0  0  0  0  0  0  0  # atno 17394 bound_to 11000
  141.1573  133.8859  157.1943 LP  0  0  0  0  0  0  0  0  0  0  0  0  # atno 17395 bound_to 11000

$$$$
