AV-unprocessed.smi:2822|AV-procd|sdf|10868|dock9
  -GOLD-   2272015313D 1   1.00000     0.00000
 Structure written by MMmdl.
 40 42  0  0  0  0  0  0  0  0  2 V2000
  151.3973  138.1182  158.5898 Cl  0  0  0  0  0  0  0  0  0  0  0  0
  152.1235  138.2918  157.0298 C   0  0  0  0  0  0  0  0  0  0  0  0
  153.4375  137.8284  156.8147 C   0  0  0  0  0  0  0  0  0  0  0  0
  154.0761  137.9268  155.6300 N   0  0  0  0  0  0  0  0  0  0  0  0
  153.4129  138.5002  154.6047 C   0  0  0  0  0  0  0  0  0  0  0  0
  152.0982  138.9966  154.7111 C   0  0  0  0  0  0  0  0  0  0  0  0
  151.4300  138.8927  155.9539 C   0  0  0  0  0  0  0  0  0  0  0  0
  150.1203  139.3569  156.1498 N   0  0  0  0  0  0  0  0  0  0  0  0
  149.6025  140.4855  155.3918 C   0  0  0  0  0  0  0  0  0  0  0  0
  149.5448  141.7579  156.2486 C   0  0  2  0  0  0  0  0  0  0  0  0
  150.9520  142.2724  156.6034 C   0  0  0  0  0  0  0  0  0  0  0  0
  150.8656  143.4595  157.4854 N   0  3  2  0  0  0  0  0  0  0  0  0
  152.2011  144.0153  157.8209 C   0  0  0  0  0  0  0  0  0  0  0  0
  152.0721  145.2989  158.6570 C   0  0  0  0  0  0  0  0  0  0  0  0
  151.2455  145.0449  159.9242 C   0  0  0  0  0  0  0  0  0  0  0  0
  149.8830  144.4448  159.5517 C   0  0  0  0  0  0  0  0  0  0  0  0
  150.0472  143.1734  158.6952 C   0  0  1  0  0  0  0  0  0  0  0  0
  148.6794  142.5966  158.2811 C   0  0  0  0  0  0  0  0  0  0  0  0
  148.8655  141.4500  157.4612 O   0  0  0  0  0  0  0  0  0  0  0  0
  153.9923  137.3653  157.6175 H   0  0  0  0  0  0  0  0  0  0  0  0
  153.9466  138.5654  153.6680 H   0  0  0  0  0  0  0  0  0  0  0  0
  151.6318  139.4418  153.8454 H   0  0  0  0  0  0  0  0  0  0  0  0
  149.6122  139.0499  156.9674 H   0  0  0  0  0  0  0  0  0  0  0  0
  150.2197  140.6525  154.5081 H   0  0  0  0  0  0  0  0  0  0  0  0
  148.5985  140.2369  155.0461 H   0  0  0  0  0  0  0  0  0  0  0  0
  149.0009  142.5328  155.7041 H   0  0  0  0  0  0  0  0  0  0  0  0
  151.5256  141.4884  157.1007 H   0  0  0  0  0  0  0  0  0  0  0  0
  151.4917  142.5354  155.6926 H   0  0  0  0  0  0  0  0  0  0  0  0
  152.7808  143.2698  158.3674 H   0  0  0  0  0  0  0  0  0  0  0  0
  152.7481  144.2321  156.9025 H   0  0  0  0  0  0  0  0  0  0  0  0
  153.0614  145.6704  158.9260 H   0  0  0  0  0  0  0  0  0  0  0  0
  151.5992  146.0803  158.0606 H   0  0  0  0  0  0  0  0  0  0  0  0
  151.7820  144.3621  160.5845 H   0  0  0  0  0  0  0  0  0  0  0  0
  151.1094  145.9738  160.4790 H   0  0  0  0  0  0  0  0  0  0  0  0
  149.3227  144.2155  160.4589 H   0  0  0  0  0  0  0  0  0  0  0  0
  149.2971  145.1859  159.0060 H   0  0  0  0  0  0  0  0  0  0  0  0
  150.5711  142.4200  159.2862 H   0  0  0  0  0  0  0  0  0  0  0  0
  148.1118  142.3034  159.1647 H   0  0  0  0  0  0  0  0  0  0  0  0
  148.0806  143.3400  157.7519 H   0  0  0  0  0  0  0  0  0  0  0  0
  150.3756  144.1737  156.9656 H   0  0  0  0  0  0  0  0  0  0  0  0
  1  2  1  0  0  0  0
  2  7  1  0  0  0  0
  2  3  2  0  0  0  0
  3  4  1  0  0  0  0
  3 20  1  0  0  0  0
  4  5  2  0  0  0  0
  5  6  1  0  0  0  0
  5 21  1  0  0  0  0
  6  7  2  0  0  0  0
  6 22  1  0  0  0  0
  7  8  1  0  0  0  0
  8  9  1  0  0  0  0
  8 23  1  0  0  0  0
  9 10  1  0  0  0  0
  9 24  1  0  0  0  0
  9 25  1  0  0  0  0
 10 19  1  0  0  0  0
 10 11  1  0  0  0  0
 10 26  1  0  0  0  0
 11 12  1  0  0  0  0
 11 27  1  0  0  0  0
 11 28  1  0  0  0  0
 12 17  1  0  0  0  0
 12 13  1  0  0  0  0
 12 40  1  0  0  0  0
 13 14  1  0  0  0  0
 13 29  1  0  0  0  0
 13 30  1  0  0  0  0
 14 15  1  0  0  0  0
 14 31  1  0  0  0  0
 14 32  1  0  0  0  0
 15 16  1  0  0  0  0
 15 33  1  0  0  0  0
 15 34  1  0  0  0  0
 16 17  1  0  0  0  0
 16 35  1  0  0  0  0
 16 36  1  0  0  0  0
 17 18  1  0  0  0  0
 17 37  1  0  0  0  0
 18 19  1  0  0  0  0
 18 38  1  0  0  0  0
 18 39  1  0  0  0  0
M  CHG  1  12   1
M  END
> <s_m_source_file>
AV-unprocessed.smi

> <i_m_source_file_index>
2822

> <i_lp_mmshare_version>
43012

> <i_f3d_flags>
0

> <s_epik_input>
Q2xjMVtjSF1uW2NIXVtjSF1jMVtOSF1bQ0gyXVtDQEhdKFtDSDJdMilPW0NIMl1bQ0BASF0oTjIzKVtDSDJdW0NIMl1bQ0gyXVtDSDJdMw==

> <s_epik_cmdline>
J2VwaWtfcHl0aG9uJywgJy1waCcsICc3LjAnLCAnLXRuJywgJzgnLCAnLW1hJywgJzIwMCcsICctbWV0YWxfYmluZGluZycsICctaW1hZScsICc8aW5maWxlLm1hZT4nLCAnLW9tYWUnLCAnPG91dGZpbGUubWFlPic=

> <r_lp_tautomer_probability>
0.999999

> <r_epik_Ionization_Penalty>
0.88937

> <r_epik_Ionization_Penalty_Charging>
0.0803403

> <r_epik_Ionization_Penalty_Neutral>
0.80903

> <r_epik_State_Penalty>
0.931884

> <r_epik_Charging_Adjusted_Penalty>
1.01222

> <i_epik_Tot_Q>
1

> <i_epik_Tot_abs_Q>
1

> <r_epik_Metal_State_Penalty>
0.0782275

> <b_epik_Metal_Only>
0

> <s_lp_Force_Field>
OPLS_2005

> <r_lp_Energy>
28.742

> <b_lp_Chiralities_Consistent>
1

> <s_lp_Variant>
AV-unprocessed.smi:2822-9

> <Gold.Version>
5.8.1

> <Gold.Id.Protein>
6NUR|6NUR_protein|mol2

> <Gold.PLP.Fitness>
41.3068

> <Gold.PLP.PLP>
-35.9537

> <Gold.PLP.part.hbond>
-3.0000

> <Gold.PLP.part.metal>
0.0000

> <Gold.PLP.part.buried>
-3.8143

> <Gold.PLP.part.nonpolar>
-29.1690

> <Gold.PLP.part.repulsive>
0.1163

> <Gold.PLP.ligand.clash>
0.0000

> <Gold.PLP.ligand.torsion>
0.3236

> <Gold.PLP.Chemscore.Hbond>
2.0000

> <Gold.PLP.Chemscore.CHOScore>
0.0000

> <Gold.PLP.Chemscore.Metal>
0.0000

> <Gold.Chemscore.Hbonds>
donor molecule, donor type, donor heavy atom, donor atom, acceptor molecule, acceptor atom, score
      L1  H    12    40       P1  8028  2.00

> <Gold.PLP.Chemscore.Internal.Correction>
0.0003

> <Gold.Rescore>
     Score         DG    S(hbond)    S(metal)    S(lipo)     H(rot)  DE(clash)    DE(int)     intcor
     18.12     -18.33       0.96        0.00     108.06       1.17       0.04       0.17       ----

> <Gold.Chemscore.Fitness>
18.1212

> <Gold.Chemscore.DG>
-18.3306

> <Gold.Chemscore.ZeroCoef>
-5.4800

> <Gold.Chemscore.Hbond>
0.9585

> <Gold.Chemscore.Metal>
0.0000

> <Gold.Chemscore.Lipo>
108.0556

> <Gold.Chemscore.Internal_Hbond>
0.0000

> <Gold.Chemscore.DEClash>
0.0422

> <Gold.Chemscore.DEInternal>
0.1672

> <Gold.Chemscore.Rot>
1.1693

> <Gold.Chemscore.Internal.Correction>
   9.000000E+99

> <Gold.Chemscore.Hbonds>
donor molecule, donor type, donor heavy atom, donor atom, acceptor molecule, acceptor atom, score
      L1  H    12    40       P1  8028  0.86

> <Gold.Chemscore.Hbond.Weighted>
-3.2014

> <Gold.Chemscore.Metal.Weighted>
-0.0000

> <Gold.Chemscore.Lipo.Weighted>
-12.6425

> <Gold.Chemscore.Internal_Hbond.Weighted>
0.0000

> <Gold.Chemscore.DEClash.Weighted>
0.0422

> <Gold.Chemscore.DEInternal.Weighted>
0.1672

> <Gold.Chemscore.Rot.Weighted>
2.9934

> <Gold.Chemscore.Internal.Correction.Weighted>
   9.000000E+99

> <Gold.Protein.RotatedTorsions>
[ 6907 6896 6895 6894 ] final  143.37 input  -60.11 | X-H torsion
[ 7974 7965 7964 7962 ] final  -69.72 input  175.53 | X-H torsion
[ 8008 7997 7996 7995 ] final  -16.33 input   59.86 | X-H torsion
[ 10167 10162 10161 10158 ] final   96.43 input  -65.29 | X-H torsion
[ 10718 10713 10712 10709 ] final  -72.58 input   66.30 | X-H torsion
[ 10763 10752 10751 10750 ] final -101.80 input  -60.55 | X-H torsion
[ 11005 11000 10999 10996 ] final -138.86 input  -57.11 | X-H torsion

> <Gold.Protein.ActiveResidues>
 VAL166  LYS551  ARG553  GLY616  TRP617  ASP618  TYR619  PRO620  LYS621  CYS622 
 ASP623  PHE694  ASN695  SER759  ASP760  ASP761  ALA762  ILE779  LEU786  VAL792 
 PHE793  MET794  SER795  GLU796  ALA797  LYS798  CYS799  TRP800  GLU811  SER814 

> <Gold.Protein.RotatedAtoms>
  152.2072  133.4884  159.5089 H   0  0  0  0  0  0  0  0  0  0  0  0  # atno 6907 bound_to 6896
  150.6982  134.1515  159.4151 H   0  0  0  0  0  0  0  0  0  0  0  0  # atno 6908 bound_to 6896
  151.9433  135.0203  160.0588 H   0  0  0  0  0  0  0  0  0  0  0  0  # atno 6909 bound_to 6896
  145.7002  140.9119  143.0735 H   0  0  0  0  0  0  0  0  0  0  0  0  # atno 7974 bound_to 7965
  154.5062  140.2172  155.9247 H   0  0  0  0  0  0  0  0  0  0  0  0  # atno 8008 bound_to 7997
  156.1496  140.3164  155.8593 H   0  0  0  0  0  0  0  0  0  0  0  0  # atno 8009 bound_to 7997
  155.3965  140.0481  157.3029 H   0  0  0  0  0  0  0  0  0  0  0  0  # atno 8010 bound_to 7997
  139.7895  144.6857  150.9911 H   0  0  0  0  0  0  0  0  0  0  0  0  # atno 10167 bound_to 10162
  156.0314  130.4375  150.2615 H   0  0  0  0  0  0  0  0  0  0  0  0  # atno 10718 bound_to 10713
  154.7685  135.4884  153.9602 H   0  0  0  0  0  0  0  0  0  0  0  0  # atno 10763 bound_to 10752
  153.1338  135.6758  153.9143 H   0  0  0  0  0  0  0  0  0  0  0  0  # atno 10764 bound_to 10752
  153.8838  135.3129  155.3424 H   0  0  0  0  0  0  0  0  0  0  0  0  # atno 10765 bound_to 10752
  140.8576  134.2209  157.4726 H   0  0  0  0  0  0  0  0  0  0  0  0  # atno 11005 bound_to 11000
  144.6971  139.8938  143.7454 LP  0  0  0  0  0  0  0  0  0  0  0  0  # atno 17320 bound_to 7965
  146.0804  139.3792  143.0468 LP  0  0  0  0  0  0  0  0  0  0  0  0  # atno 17321 bound_to 7965
  140.7820  143.4396  151.0572 LP  0  0  0  0  0  0  0  0  0  0  0  0  # atno 17342 bound_to 10162
  139.8073  143.8000  152.3168 LP  0  0  0  0  0  0  0  0  0  0  0  0  # atno 17343 bound_to 10162
  157.0716  131.0118  151.3188 LP  0  0  0  0  0  0  0  0  0  0  0  0  # atno 17370 bound_to 10713
  157.4995  130.7871  149.7589 LP  0  0  0  0  0  0  0  0  0  0  0  0  # atno 17371 bound_to 10713
  139.8706  134.9714  156.4734 LP  0  0  0  0  0  0  0  0  0  0  0  0  # atno 17394 bound_to 11000
  140.8720  133.7981  155.9374 LP  0  0  0  0  0  0  0  0  0  0  0  0  # atno 17395 bound_to 11000

$$$$
