AV-unprocessed.smi:2757|AV-procd|sdf|10620|dock1
  -GOLD-   2272015 63D 1   1.00000     0.00000
 Structure written by MMmdl.
 32 33  0  0  0  0  0  0  0  0  2 V2000
  152.3011  130.0866  155.8293 C   0  0  0  0  0  0  0  0  0  0  0  0
  151.2516  130.8887  155.2203 N   0  0  0  0  0  0  0  0  0  0  0  0
  150.2674  130.3916  154.4566 C   0  0  0  0  0  0  0  0  0  0  0  0
  150.1461  129.1949  154.1923 O   0  0  0  0  0  0  0  0  0  0  0  0
  149.3070  131.4092  153.9147 C   0  0  0  0  0  0  0  0  0  0  0  0
  149.4755  132.7960  154.1996 C   0  0  0  0  0  0  0  0  0  0  0  0
  148.4311  133.3941  153.5551 C   0  0  0  0  0  0  0  0  0  0  0  0
  147.7047  132.3999  152.9337 N   0  0  0  0  0  0  0  0  0  0  0  0
  146.5044  132.5375  152.1225 C   0  0  2  0  0  0  0  0  0  0  0  0
  145.9320  131.1648  151.7138 C   0  0  0  0  0  0  0  0  0  0  0  0
  144.6787  131.3472  150.8444 C   0  0  0  0  0  0  0  0  0  0  0  0
  144.9768  132.2457  149.6321 C   0  0  0  0  0  0  0  0  0  0  0  0
  145.5300  133.5472  150.0668 N   0  3  0  0  0  0  0  0  0  0  0  0
  146.7614  133.4106  150.8757 C   0  0  0  0  0  0  0  0  0  0  0  0
  148.2470  131.1806  153.1500 N   0  0  0  0  0  0  0  0  0  0  0  0
  152.9556  130.7217  156.4263 H   0  0  0  0  0  0  0  0  0  0  0  0
  152.9058  129.5965  155.0652 H   0  0  0  0  0  0  0  0  0  0  0  0
  151.8782  129.3223  156.4826 H   0  0  0  0  0  0  0  0  0  0  0  0
  151.2749  131.8855  155.3799 H   0  0  0  0  0  0  0  0  0  0  0  0
  150.2421  133.2784  154.7883 H   0  0  0  0  0  0  0  0  0  0  0  0
  148.1484  134.4345  153.4897 H   0  0  0  0  0  0  0  0  0  0  0  0
  145.7589  133.0421  152.7396 H   0  0  0  0  0  0  0  0  0  0  0  0
  146.6760  130.5945  151.1559 H   0  0  0  0  0  0  0  0  0  0  0  0
  145.6891  130.5773  152.5998 H   0  0  0  0  0  0  0  0  0  0  0  0
  144.3140  130.3761  150.5084 H   0  0  0  0  0  0  0  0  0  0  0  0
  143.8796  131.7883  151.4417 H   0  0  0  0  0  0  0  0  0  0  0  0
  145.6890  131.7586  148.9647 H   0  0  0  0  0  0  0  0  0  0  0  0
  144.0671  132.4192  149.0566 H   0  0  0  0  0  0  0  0  0  0  0  0
  145.7349  134.1053  149.2502 H   0  0  0  0  0  0  0  0  0  0  0  0
  147.1012  134.4038  151.1706 H   0  0  0  0  0  0  0  0  0  0  0  0
  147.5454  132.9781  150.2523 H   0  0  0  0  0  0  0  0  0  0  0  0
  144.8329  134.0242  150.6207 H   0  0  0  0  0  0  0  0  0  0  0  0
  1  2  1  0  0  0  0
  1 16  1  0  0  0  0
  1 17  1  0  0  0  0
  1 18  1  0  0  0  0
  2  3  1  0  0  0  0
  2 19  1  0  0  0  0
  3  4  2  0  0  0  0
  3  5  1  0  0  0  0
  5 15  2  0  0  0  0
  5  6  1  0  0  0  0
  6  7  2  0  0  0  0
  6 20  1  0  0  0  0
  7  8  1  0  0  0  0
  7 21  1  0  0  0  0
  8  9  1  0  0  0  0
  8 15  1  0  0  0  0
  9 14  1  0  0  0  0
  9 10  1  0  0  0  0
  9 22  1  0  0  0  0
 10 11  1  0  0  0  0
 10 23  1  0  0  0  0
 10 24  1  0  0  0  0
 11 12  1  0  0  0  0
 11 25  1  0  0  0  0
 11 26  1  0  0  0  0
 12 13  1  0  0  0  0
 12 27  1  0  0  0  0
 12 28  1  0  0  0  0
 13 14  1  0  0  0  0
 13 29  1  0  0  0  0
 13 32  1  0  0  0  0
 14 30  1  0  0  0  0
 14 31  1  0  0  0  0
M  CHG  1  13   1
M  END
> <s_m_source_file>
AV-unprocessed.smi

> <i_m_source_file_index>
2757

> <i_lp_mmshare_version>
43012

> <i_f3d_flags>
0

> <s_epik_input>
W0NIM11bTkhdQyg9TyljMVtjSF1bY0hdbihuMSlbQ0BASF0yW0NIMl1bQ0gyXVtDSDJdW05IXVtDSDJdMg==

> <s_epik_cmdline>
J2VwaWtfcHl0aG9uJywgJy1waCcsICc3LjAnLCAnLXRuJywgJzgnLCAnLW1hJywgJzIwMCcsICctbWV0YWxfYmluZGluZycsICctaW1hZScsICc8aW5maWxlLm1hZT4nLCAnLW9tYWUnLCAnPG91dGZpbGUubWFlPic=

> <r_lp_tautomer_probability>
1

> <r_epik_Ionization_Penalty>
0.000652722

> <r_epik_Ionization_Penalty_Charging>
0.000651447

> <r_epik_Ionization_Penalty_Neutral>
1.27533e-06

> <r_epik_State_Penalty>
0.000412577

> <r_epik_Charging_Adjusted_Penalty>
0.00106402

> <i_epik_Tot_Q>
1

> <i_epik_Tot_abs_Q>
1

> <r_epik_Metal_State_Penalty>
-0

> <b_epik_Metal_Only>
0

> <s_lp_Force_Field>
OPLS_2005

> <r_lp_Energy>
20.0976

> <b_lp_Chiralities_Consistent>
1

> <s_lp_Variant>
AV-unprocessed.smi:2757-1

> <Gold.Version>
5.8.1

> <Gold.Id.Protein>
6NUR|6NUR_protein|mol2

> <Gold.PLP.Fitness>
36.1504

> <Gold.PLP.PLP>
-30.1880

> <Gold.PLP.part.hbond>
-1.0000

> <Gold.PLP.part.metal>
0.0000

> <Gold.PLP.part.buried>
-3.8535

> <Gold.PLP.part.nonpolar>
-25.4710

> <Gold.PLP.part.repulsive>
0.7218

> <Gold.PLP.ligand.clash>
0.0000

> <Gold.PLP.ligand.torsion>
0.0283

> <Gold.PLP.Chemscore.Hbond>
1.0000

> <Gold.PLP.Chemscore.CHOScore>
1.0000

> <Gold.PLP.Chemscore.Metal>
0.0000

> <Gold.Chemscore.Hbonds>
donor molecule, donor type, donor heavy atom, donor atom, acceptor molecule, acceptor atom, score
      L1  H    13    29       P1  7921  1.00
      L1  C     7    21       P1  7948  0.96

> <Gold.PLP.Chemscore.Internal.Correction>
0.0191

> <Gold.Rescore>
     Score         DG    S(hbond)    S(metal)    S(lipo)     H(rot)  DE(clash)    DE(int)     intcor
     13.72     -13.80       0.95        0.00      65.79       1.00       0.04       0.03       ----

> <Gold.Chemscore.Fitness>
13.7205

> <Gold.Chemscore.DG>
-13.7960

> <Gold.Chemscore.ZeroCoef>
-5.4800

> <Gold.Chemscore.Hbond>
0.9516

> <Gold.Chemscore.Metal>
0.0000

> <Gold.Chemscore.Lipo>
65.7920

> <Gold.Chemscore.Internal_Hbond>
0.0000

> <Gold.Chemscore.DEClash>
0.0407

> <Gold.Chemscore.DEInternal>
0.0347

> <Gold.Chemscore.Rot>
1.0000

> <Gold.Chemscore.Internal.Correction>
   9.000000E+99

> <Gold.Chemscore.Hbonds>
donor molecule, donor type, donor heavy atom, donor atom, acceptor molecule, acceptor atom, score
      L1  H    13    29       P1  7921  0.55

> <Gold.Chemscore.Hbond.Weighted>
-3.1783

> <Gold.Chemscore.Metal.Weighted>
-0.0000

> <Gold.Chemscore.Lipo.Weighted>
-7.6977

> <Gold.Chemscore.Internal_Hbond.Weighted>
0.0000

> <Gold.Chemscore.DEClash.Weighted>
0.0407

> <Gold.Chemscore.DEInternal.Weighted>
0.0347

> <Gold.Chemscore.Rot.Weighted>
2.5600

> <Gold.Chemscore.Internal.Correction.Weighted>
   9.000000E+99

> <Gold.Protein.RotatedTorsions>
[ 6907 6896 6895 6894 ] final  -29.81 input  -60.11 | X-H torsion
[ 7974 7965 7964 7962 ] final -110.46 input  175.53 | X-H torsion
[ 8008 7997 7996 7995 ] final -148.41 input   59.86 | X-H torsion
[ 10167 10162 10161 10158 ] final   61.77 input  -65.29 | X-H torsion
[ 10718 10713 10712 10709 ] final   -1.61 input   66.30 | X-H torsion
[ 10763 10752 10751 10750 ] final    5.36 input  -60.55 | X-H torsion
[ 11005 11000 10999 10996 ] final  -94.33 input  -57.11 | X-H torsion

> <Gold.Protein.ActiveResidues>
 VAL166  LYS551  ARG553  GLY616  TRP617  ASP618  TYR619  PRO620  LYS621  CYS622 
 ASP623  PHE694  ASN695  SER759  ASP760  ASP761  ALA762  ILE779  LEU786  VAL792 
 PHE793  MET794  SER795  GLU796  ALA797  LYS798  CYS799  TRP800  GLU811  SER814 

> <Gold.Protein.RotatedAtoms>
  151.1140  135.0043  159.8507 H   0  0  0  0  0  0  0  0  0  0  0  0  # atno 6907 bound_to 6896
  152.5444  134.1801  159.8642 H   0  0  0  0  0  0  0  0  0  0  0  0  # atno 6908 bound_to 6896
  151.1854  133.4655  159.2627 H   0  0  0  0  0  0  0  0  0  0  0  0  # atno 6909 bound_to 6896
  145.1680  140.8911  143.3552 H   0  0  0  0  0  0  0  0  0  0  0  0  # atno 7974 bound_to 7965
  155.5912  140.0653  157.2758 H   0  0  0  0  0  0  0  0  0  0  0  0  # atno 8008 bound_to 7997
  154.4304  140.1835  156.1123 H   0  0  0  0  0  0  0  0  0  0  0  0  # atno 8009 bound_to 7997
  156.0231  140.3314  155.7063 H   0  0  0  0  0  0  0  0  0  0  0  0  # atno 8010 bound_to 7997
  140.1511  144.4461  150.6758 H   0  0  0  0  0  0  0  0  0  0  0  0  # atno 10167 bound_to 10162
  156.8031  130.5399  149.5719 H   0  0  0  0  0  0  0  0  0  0  0  0  # atno 10718 bound_to 10713
  153.2604  135.6922  153.7585 H   0  0  0  0  0  0  0  0  0  0  0  0  # atno 10763 bound_to 10752
  153.6646  135.3354  155.3137 H   0  0  0  0  0  0  0  0  0  0  0  0  # atno 10764 bound_to 10752
  154.8428  135.4485  154.1592 H   0  0  0  0  0  0  0  0  0  0  0  0  # atno 10765 bound_to 10752
  141.1473  133.7949  157.0284 H   0  0  0  0  0  0  0  0  0  0  0  0  # atno 11005 bound_to 11000
  145.0262  139.3380  143.6047 LP  0  0  0  0  0  0  0  0  0  0  0  0  # atno 17320 bound_to 7965
  146.3473  139.9582  142.8720 LP  0  0  0  0  0  0  0  0  0  0  0  0  # atno 17321 bound_to 7965
  140.6702  143.2283  151.5645 LP  0  0  0  0  0  0  0  0  0  0  0  0  # atno 17342 bound_to 10162
  139.5425  144.2609  152.1379 LP  0  0  0  0  0  0  0  0  0  0  0  0  # atno 17343 bound_to 10162
  156.1089  130.6025  151.0015 LP  0  0  0  0  0  0  0  0  0  0  0  0  # atno 17370 bound_to 10713
  157.6543  131.0892  150.7981 LP  0  0  0  0  0  0  0  0  0  0  0  0  # atno 17371 bound_to 10713
  140.0770  134.9670  157.1562 LP  0  0  0  0  0  0  0  0  0  0  0  0  # atno 17394 bound_to 11000
  140.3630  134.2474  155.7185 LP  0  0  0  0  0  0  0  0  0  0  0  0  # atno 17395 bound_to 11000

$$$$
