AV-unprocessed.smi:2217|AV-procd|sdf|8975|dock4
  -GOLD-   2272012193D 1   1.00000     0.00000
 Structure written by MMmdl.
 45 48  0  0  0  0  0  0  0  0  1 V2000
  143.9055  132.2279  150.3021 C   0  0  0  0  0  0  0  0  0  0  0  0
  144.6456  133.4252  150.8603 C   0  0  0  0  0  0  0  0  0  0  0  0
  144.9924  134.5153  150.0401 C   0  0  0  0  0  0  0  0  0  0  0  0
  145.6861  135.5998  150.6105 C   0  0  0  0  0  0  0  0  0  0  0  0
  146.0178  135.5739  151.9840 C   0  0  0  0  0  0  0  0  0  0  0  0
  146.7305  136.7221  152.4406 N   0  0  0  0  0  0  0  0  0  0  0  0
  147.5147  136.9151  153.5226 C   0  0  0  0  0  0  0  0  0  0  0  0
  147.7217  136.0083  154.3271 O   0  0  0  0  0  0  0  0  0  0  0  0
  148.0438  138.1403  153.6597 N   0  0  0  0  0  0  0  0  0  0  0  0
  148.8523  138.5836  154.7875 C   0  0  1  0  0  0  0  0  0  0  0  0
  150.3157  138.8003  154.4045 C   0  0  2  0  0  0  0  0  0  0  0  0
  151.5915  138.1191  154.7498 C   0  0  0  0  0  0  0  0  0  0  0  0
  152.4274  139.3818  155.0863 C   0  0  0  0  0  0  0  0  0  0  0  0
  151.4862  140.4815  155.1270 O   0  0  0  0  0  0  0  0  0  0  0  0
  150.2623  139.8680  155.4786 C   0  0  1  0  0  0  0  0  0  0  0  0
  148.8160  140.1428  155.0168 C   0  0  0  0  0  0  0  0  0  0  0  0
  147.8342  140.6584  156.0785 C   0  0  0  0  0  0  0  0  0  0  0  0
  147.1379  141.9064  155.5314 C   0  0  0  0  0  0  0  0  0  0  0  0
  147.2556  141.7799  154.0195 C   0  0  0  0  0  0  0  0  0  0  0  0
  148.6033  141.0940  153.8197 C   0  0  0  0  0  0  0  0  0  0  0  0
  145.6788  134.5157  152.7641 N   0  0  0  0  0  0  0  0  0  0  0  0
  145.0132  133.4764  152.2182 C   0  0  0  0  0  0  0  0  0  0  0  0
  143.4752  132.4503  149.3252 H   0  0  0  0  0  0  0  0  0  0  0  0
  143.0958  131.9335  150.9706 H   0  0  0  0  0  0  0  0  0  0  0  0
  144.5858  131.3831  150.1937 H   0  0  0  0  0  0  0  0  0  0  0  0
  144.7350  134.5237  148.9910 H   0  0  0  0  0  0  0  0  0  0  0  0
  145.9606  136.4431  149.9934 H   0  0  0  0  0  0  0  0  0  0  0  0
  146.6776  137.5164  151.8195 H   0  0  0  0  0  0  0  0  0  0  0  0
  147.8291  138.8281  152.9513 H   0  0  0  0  0  0  0  0  0  0  0  0
  148.7234  137.9879  155.6963 H   0  0  0  0  0  0  0  0  0  0  0  0
  150.3887  139.2227  153.3974 H   0  0  0  0  0  0  0  0  0  0  0  0
  151.4812  137.4597  155.6119 H   0  0  0  0  0  0  0  0  0  0  0  0
  152.0064  137.5517  153.9164 H   0  0  0  0  0  0  0  0  0  0  0  0
  152.9254  139.2719  156.0505 H   0  0  0  0  0  0  0  0  0  0  0  0
  153.1890  139.5803  154.3318 H   0  0  0  0  0  0  0  0  0  0  0  0
  150.3056  139.4752  156.5012 H   0  0  0  0  0  0  0  0  0  0  0  0
  147.0852  139.8970  156.2973 H   0  0  0  0  0  0  0  0  0  0  0  0
  148.3315  140.8812  157.0232 H   0  0  0  0  0  0  0  0  0  0  0  0
  146.1045  141.9942  155.8675 H   0  0  0  0  0  0  0  0  0  0  0  0
  147.6726  142.7975  155.8632 H   0  0  0  0  0  0  0  0  0  0  0  0
  146.4580  141.1392  153.6410 H   0  0  0  0  0  0  0  0  0  0  0  0
  147.1882  142.7396  153.5065 H   0  0  0  0  0  0  0  0  0  0  0  0
  149.3888  141.8504  153.8065 H   0  0  0  0  0  0  0  0  0  0  0  0
  148.6382  140.5954  152.8511 H   0  0  0  0  0  0  0  0  0  0  0  0
  144.7700  132.6628  152.8857 H   0  0  0  0  0  0  0  0  0  0  0  0
  1  2  1  0  0  0  0
  1 23  1  0  0  0  0
  1 24  1  0  0  0  0
  1 25  1  0  0  0  0
  2 22  1  0  0  0  0
  2  3  2  0  0  0  0
  3  4  1  0  0  0  0
  3 26  1  0  0  0  0
  4  5  2  0  0  0  0
  4 27  1  0  0  0  0
  5  6  1  0  0  0  0
  5 21  1  0  0  0  0
  6  7  1  0  0  0  0
  6 28  1  0  0  0  0
  7  8  2  0  0  0  0
  7  9  1  0  0  0  0
  9 10  1  0  0  0  0
  9 29  1  0  0  0  0
 10 16  1  0  0  0  0
 10 11  1  0  0  0  0
 10 30  1  0  0  0  0
 11 15  1  0  0  0  0
 11 12  1  0  0  0  0
 11 31  1  0  0  0  0
 12 13  1  0  0  0  0
 12 32  1  0  0  0  0
 12 33  1  0  0  0  0
 13 14  1  0  0  0  0
 13 34  1  0  0  0  0
 13 35  1  0  0  0  0
 14 15  1  0  0  0  0
 15 16  1  0  0  0  0
 15 36  1  0  0  0  0
 16 20  1  0  0  0  0
 16 17  1  0  0  0  0
 17 18  1  0  0  0  0
 17 37  1  0  0  0  0
 17 38  1  0  0  0  0
 18 19  1  0  0  0  0
 18 39  1  0  0  0  0
 18 40  1  0  0  0  0
 19 20  1  0  0  0  0
 19 41  1  0  0  0  0
 19 42  1  0  0  0  0
 20 43  1  0  0  0  0
 20 44  1  0  0  0  0
 21 22  2  0  0  0  0
 22 45  1  0  0  0  0
M  END
> <s_m_source_file>
AV-unprocessed.smi

> <i_m_source_file_index>
2217

> <i_lp_mmshare_version>
43012

> <i_f3d_flags>
0

> <s_epik_input>
W0NIM11jMVtjSF1bY0hdYyhuW2NIXTEpW05IXUMoPU8pW05IXVtDQEBIXTJbQ0BASF0oW0NIMl1bQ0gyXU8zKVtDQEhdM0MyNFtDSDJdW0NIMl1bQ0gyXVtDSDJdNA==

> <s_epik_cmdline>
J2VwaWtfcHl0aG9uJywgJy1waCcsICc3LjAnLCAnLXRuJywgJzgnLCAnLW1hJywgJzIwMCcsICctbWV0YWxfYmluZGluZycsICctaW1hZScsICc8aW5maWxlLm1hZT4nLCAnLW9tYWUnLCAnPG91dGZpbGUubWFlPic=

> <r_lp_tautomer_probability>
1

> <r_epik_Ionization_Penalty>
6.14796e-05

> <r_epik_Ionization_Penalty_Charging>
0

> <r_epik_Ionization_Penalty_Neutral>
6.14796e-05

> <r_epik_State_Penalty>
-0

> <r_epik_Charging_Adjusted_Penalty>
0

> <i_epik_Tot_Q>
0

> <i_epik_Tot_abs_Q>
0

> <r_epik_Metal_State_Penalty>
-0

> <b_epik_Metal_Only>
0

> <s_lp_Force_Field>
OPLS_2005

> <r_lp_Energy>
79.3106

> <b_lp_Chiralities_Consistent>
1

> <s_lp_Variant>
AV-unprocessed.smi:2217-8

> <Gold.Version>
5.8.1

> <Gold.Id.Protein>
6NUR|6NUR_protein|mol2

> <Gold.PLP.Fitness>
40.0461

> <Gold.PLP.PLP>
-34.4083

> <Gold.PLP.part.hbond>
-3.0000

> <Gold.PLP.part.metal>
0.0000

> <Gold.PLP.part.buried>
2.7315

> <Gold.PLP.part.nonpolar>
-34.2474

> <Gold.PLP.part.repulsive>
0.9738

> <Gold.PLP.ligand.clash>
0.0000

> <Gold.PLP.ligand.torsion>
0.3101

> <Gold.PLP.Chemscore.Hbond>
0.9920

> <Gold.PLP.Chemscore.CHOScore>
1.0000

> <Gold.PLP.Chemscore.Metal>
0.0000

> <Gold.Chemscore.Hbonds>
donor molecule, donor type, donor heavy atom, donor atom, acceptor molecule, acceptor atom, score
      P1  H  7989  7998       L1    14  0.66

> <Gold.PLP.Chemscore.Internal.Correction>
0.2821

> <Gold.Rescore>
     Score         DG    S(hbond)    S(metal)    S(lipo)     H(rot)  DE(clash)    DE(int)     intcor
     13.65     -16.22       0.73        0.00      92.79       1.00       2.03       0.53       ----

> <Gold.Chemscore.Fitness>
13.6492

> <Gold.Chemscore.DG>
-16.2164

> <Gold.Chemscore.ZeroCoef>
-5.4800

> <Gold.Chemscore.Hbond>
0.7304

> <Gold.Chemscore.Metal>
0.0000

> <Gold.Chemscore.Lipo>
92.7949

> <Gold.Chemscore.Internal_Hbond>
0.0000

> <Gold.Chemscore.DEClash>
2.0337

> <Gold.Chemscore.DEInternal>
0.5334

> <Gold.Chemscore.Rot>
1.0000

> <Gold.Chemscore.Internal.Correction>
   9.000000E+99

> <Gold.Chemscore.Hbonds>
donor molecule, donor type, donor heavy atom, donor atom, acceptor molecule, acceptor atom, score
      P1  H  7989  7998       L1    14  0.08

> <Gold.Chemscore.Hbond.Weighted>
-2.4394

> <Gold.Chemscore.Metal.Weighted>
-0.0000

> <Gold.Chemscore.Lipo.Weighted>
-10.8570

> <Gold.Chemscore.Internal_Hbond.Weighted>
0.0000

> <Gold.Chemscore.DEClash.Weighted>
2.0337

> <Gold.Chemscore.DEInternal.Weighted>
0.5334

> <Gold.Chemscore.Rot.Weighted>
2.5600

> <Gold.Chemscore.Internal.Correction.Weighted>
   9.000000E+99

> <Gold.Protein.RotatedTorsions>
[ 6907 6896 6895 6894 ] final  -85.55 input  -60.11 | X-H torsion
[ 7974 7965 7964 7962 ] final  146.45 input  175.53 | X-H torsion
[ 8008 7997 7996 7995 ] final -121.83 input   59.86 | X-H torsion
[ 10167 10162 10161 10158 ] final -103.29 input  -65.29 | X-H torsion
[ 10718 10713 10712 10709 ] final   86.50 input   66.30 | X-H torsion
[ 10763 10752 10751 10750 ] final  -82.06 input  -60.55 | X-H torsion
[ 11005 11000 10999 10996 ] final   -6.56 input  -57.11 | X-H torsion

> <Gold.Protein.ActiveResidues>
 VAL166  LYS551  ARG553  GLY616  TRP617  ASP618  TYR619  PRO620  LYS621  CYS622 
 ASP623  PHE694  ASN695  SER759  ASP760  ASP761  ALA762  ILE779  LEU786  VAL792 
 PHE793  MET794  SER795  GLU796  ALA797  LYS798  CYS799  TRP800  GLU811  SER814 

> <Gold.Protein.RotatedAtoms>
  150.6870  134.3187  159.4776 H   0  0  0  0  0  0  0  0  0  0  0  0  # atno 6907 bound_to 6896
  152.1065  134.9302  160.0577 H   0  0  0  0  0  0  0  0  0  0  0  0  # atno 6908 bound_to 6896
  152.0562  133.4006  159.4435 H   0  0  0  0  0  0  0  0  0  0  0  0  # atno 6909 bound_to 6896
  144.8670  139.5906  143.5904 H   0  0  0  0  0  0  0  0  0  0  0  0  # atno 7974 bound_to 7965
  155.1544  140.0404  157.2828 H   0  0  0  0  0  0  0  0  0  0  0  0  # atno 8008 bound_to 7997
  154.6381  140.2540  155.7327 H   0  0  0  0  0  0  0  0  0  0  0  0  # atno 8009 bound_to 7997
  156.2519  140.2861  156.0762 H   0  0  0  0  0  0  0  0  0  0  0  0  # atno 8010 bound_to 7997
  140.2215  143.3672  152.0965 H   0  0  0  0  0  0  0  0  0  0  0  0  # atno 10167 bound_to 10162
  157.6929  131.0218  150.2982 H   0  0  0  0  0  0  0  0  0  0  0  0  # atno 10718 bound_to 10713
  154.5712  135.5604  153.7097 H   0  0  0  0  0  0  0  0  0  0  0  0  # atno 10763 bound_to 10752
  153.0049  135.6297  154.2112 H   0  0  0  0  0  0  0  0  0  0  0  0  # atno 10764 bound_to 10752
  154.2051  135.2876  155.2957 H   0  0  0  0  0  0  0  0  0  0  0  0  # atno 10765 bound_to 10752
  140.7033  133.8971  155.8699 H   0  0  0  0  0  0  0  0  0  0  0  0  # atno 11005 bound_to 11000
  146.2903  139.7120  142.9166 LP  0  0  0  0  0  0  0  0  0  0  0  0  # atno 17320 bound_to 7965
  145.4202  141.0405  143.2968 LP  0  0  0  0  0  0  0  0  0  0  0  0  # atno 17321 bound_to 7965
  139.5142  144.6945  151.5669 LP  0  0  0  0  0  0  0  0  0  0  0  0  # atno 17342 bound_to 10162
  140.6251  143.9184  150.6558 LP  0  0  0  0  0  0  0  0  0  0  0  0  # atno 17343 bound_to 10162
  156.3502  130.3829  149.7335 LP  0  0  0  0  0  0  0  0  0  0  0  0  # atno 17370 bound_to 10713
  156.4816  130.8043  151.3057 LP  0  0  0  0  0  0  0  0  0  0  0  0  # atno 17371 bound_to 10713
  141.0145  134.0974  157.4186 LP  0  0  0  0  0  0  0  0  0  0  0  0  # atno 17394 bound_to 11000
  139.8891  135.0102  156.6658 LP  0  0  0  0  0  0  0  0  0  0  0  0  # atno 17395 bound_to 11000

$$$$
