AV-unprocessed.smi:1386|AV-procd|sdf|5639|dock10
  -GOLD-   22720 5253D 1   1.00000     0.00000
 Structure written by MMmdl.
 35 36  0  0  0  0  0  0  0  0  1 V2000
  148.7096  141.3088  157.2622 C   0  0  0  0  0  0  0  0  0  0  0  0
  150.0967  141.2773  156.6072 C   0  0  1  0  0  0  0  0  0  0  0  0
  150.0266  141.6532  155.1129 C   0  0  0  0  0  0  0  0  0  0  0  0
  148.8258  141.1530  154.4672 N   0  0  0  0  0  0  0  0  0  0  0  0
  147.7176  141.8879  154.0666 C   0  0  0  0  0  0  0  0  0  0  0  0
  146.8285  140.9911  153.5189 C   0  0  0  0  0  0  0  0  0  0  0  0
  147.3696  139.7084  153.5614 N   0  0  0  0  0  0  0  0  0  0  0  0
  148.5549  139.8847  154.1298 C   0  0  0  0  0  0  0  0  0  0  0  0
  150.9869  142.1930  157.3203 N   0  0  0  0  0  0  0  0  0  0  0  0
  151.4367  142.0382  158.5785 C   0  0  0  0  0  0  0  0  0  0  0  0
  151.0508  141.1241  159.3086 O   0  0  0  0  0  0  0  0  0  0  0  0
  152.3403  142.9698  158.9746 N   0  0  0  0  0  0  0  0  0  0  0  0
  153.0700  142.9712  160.2532 C   0  0  0  0  0  0  0  0  0  0  0  0
  152.2987  143.8307  161.2690 C   0  0  0  0  0  0  0  0  0  0  0  0
  152.1967  145.5616  160.7151 S   0  0  0  0  0  0  0  0  0  0  0  0
  151.6067  145.3062  159.0119 C   0  0  0  0  0  0  0  0  0  0  0  0
  152.4642  144.2578  158.2822 C   0  0  0  0  0  0  0  0  0  0  0  0
  148.0272  140.6173  156.7673 H   0  0  0  0  0  0  0  0  0  0  0  0
  148.2680  142.3048  157.2126 H   0  0  0  0  0  0  0  0  0  0  0  0
  148.7650  141.0202  158.3123 H   0  0  0  0  0  0  0  0  0  0  0  0
  150.4660  140.2535  156.6860 H   0  0  0  0  0  0  0  0  0  0  0  0
  150.0440  142.7374  154.9961 H   0  0  0  0  0  0  0  0  0  0  0  0
  150.8980  141.2670  154.5817 H   0  0  0  0  0  0  0  0  0  0  0  0
  147.6508  142.9564  154.2102 H   0  0  0  0  0  0  0  0  0  0  0  0
  145.8493  141.1692  153.0993 H   0  0  0  0  0  0  0  0  0  0  0  0
  149.2385  139.0689  154.3146 H   0  0  0  0  0  0  0  0  0  0  0  0
  151.3380  142.9802  156.7948 H   0  0  0  0  0  0  0  0  0  0  0  0
  153.2296  141.9703  160.6547 H   0  0  0  0  0  0  0  0  0  0  0  0
  154.0724  143.3767  160.1091 H   0  0  0  0  0  0  0  0  0  0  0  0
  151.2896  143.4428  161.4083 H   0  0  0  0  0  0  0  0  0  0  0  0
  152.7890  143.8032  162.2420 H   0  0  0  0  0  0  0  0  0  0  0  0
  150.5625  144.9920  159.0403 H   0  0  0  0  0  0  0  0  0  0  0  0
  151.6390  146.2591  158.4834 H   0  0  0  0  0  0  0  0  0  0  0  0
  153.5078  144.5746  158.2571 H   0  0  0  0  0  0  0  0  0  0  0  0
  152.1596  144.1869  157.2368 H   0  0  0  0  0  0  0  0  0  0  0  0
  1  2  1  0  0  0  0
  1 18  1  0  0  0  0
  1 19  1  0  0  0  0
  1 20  1  0  0  0  0
  2  3  1  0  0  0  0
  2  9  1  0  0  0  0
  2 21  1  0  0  0  0
  3  4  1  0  0  0  0
  3 22  1  0  0  0  0
  3 23  1  0  0  0  0
  4  8  1  0  0  0  0
  4  5  1  0  0  0  0
  5  6  2  0  0  0  0
  5 24  1  0  0  0  0
  6  7  1  0  0  0  0
  6 25  1  0  0  0  0
  7  8  2  0  0  0  0
  8 26  1  0  0  0  0
  9 10  1  0  0  0  0
  9 27  1  0  0  0  0
 10 11  2  0  0  0  0
 10 12  1  0  0  0  0
 12 17  1  0  0  0  0
 12 13  1  0  0  0  0
 13 14  1  0  0  0  0
 13 28  1  0  0  0  0
 13 29  1  0  0  0  0
 14 15  1  0  0  0  0
 14 30  1  0  0  0  0
 14 31  1  0  0  0  0
 15 16  1  0  0  0  0
 16 17  1  0  0  0  0
 16 32  1  0  0  0  0
 16 33  1  0  0  0  0
 17 34  1  0  0  0  0
 17 35  1  0  0  0  0
M  END
> <s_m_source_file>
AV-unprocessed.smi

> <i_m_source_file_index>
1386

> <i_lp_mmshare_version>
43012

> <i_f3d_flags>
0

> <s_epik_input>
W2NIXTFuW2NIXVtjSF1uMVtDSDJdW0NAQEhdKFtDSDNdKVtOSF1DKD1PKU4yW0NIMl1bQ0gyXVNbQ0gyXVtDSDJdMg==

> <s_epik_cmdline>
J2VwaWtfcHl0aG9uJywgJy1waCcsICc3LjAnLCAnLXRuJywgJzgnLCAnLW1hJywgJzIwMCcsICctbWV0YWxfYmluZGluZycsICctaW1hZScsICc8aW5maWxlLm1hZT4nLCAnLW9tYWUnLCAnPG91dGZpbGUubWFlPic=

> <r_lp_tautomer_probability>
1

> <r_epik_Ionization_Penalty>
0.622677

> <r_epik_Ionization_Penalty_Charging>
0.62263

> <r_epik_Ionization_Penalty_Neutral>
4.67019e-05

> <r_epik_State_Penalty>
0.63879

> <r_epik_Charging_Adjusted_Penalty>
1.26142

> <i_epik_Tot_Q>
0

> <i_epik_Tot_abs_Q>
0

> <r_epik_Metal_State_Penalty>
0.307117

> <b_epik_Metal_Only>
0

> <s_lp_Force_Field>
OPLS_2005

> <r_lp_Energy>
24.3831

> <b_lp_Chiralities_Consistent>
1

> <s_lp_Variant>
AV-unprocessed.smi:1386-4

> <Gold.Version>
5.8.1

> <Gold.Id.Protein>
6NUR|6NUR_protein|mol2

> <Gold.PLP.Fitness>
42.8304

> <Gold.PLP.PLP>
-39.2453

> <Gold.PLP.part.hbond>
-0.6323

> <Gold.PLP.part.metal>
0.0000

> <Gold.PLP.part.buried>
-2.6191

> <Gold.PLP.part.nonpolar>
-36.2662

> <Gold.PLP.part.repulsive>
0.2260

> <Gold.PLP.ligand.clash>
1.2648

> <Gold.PLP.ligand.torsion>
0.5679

> <Gold.PLP.Chemscore.Hbond>
0.0000

> <Gold.PLP.Chemscore.CHOScore>
1.9756

> <Gold.PLP.Chemscore.Metal>
0.0000

> <Gold.Chemscore.Hbonds>
donor molecule, donor type, donor heavy atom, donor atom, acceptor molecule, acceptor atom, score
      L1  C     5    24       P1  8028  0.95
      L1  C     6    25       P1 10175  0.97

> <Gold.PLP.Chemscore.Internal.Correction>
0.0589

> <Gold.Rescore>
     Score         DG    S(hbond)    S(metal)    S(lipo)     H(rot)  DE(clash)    DE(int)     intcor
     11.94     -12.52       0.00        0.00      95.00       1.59       0.21       0.37       ----

> <Gold.Chemscore.Fitness>
11.9432

> <Gold.Chemscore.DG>
-12.5241

> <Gold.Chemscore.ZeroCoef>
-5.4800

> <Gold.Chemscore.Hbond>
0.0000

> <Gold.Chemscore.Metal>
0.0000

> <Gold.Chemscore.Lipo>
94.9971

> <Gold.Chemscore.Internal_Hbond>
0.0000

> <Gold.Chemscore.DEClash>
0.2146

> <Gold.Chemscore.DEInternal>
0.3663

> <Gold.Chemscore.Rot>
1.5901

> <Gold.Chemscore.Internal.Correction>
   9.000000E+99

> <Gold.Chemscore.Hbond.Weighted>
-0.0000

> <Gold.Chemscore.Metal.Weighted>
-0.0000

> <Gold.Chemscore.Lipo.Weighted>
-11.1147

> <Gold.Chemscore.Internal_Hbond.Weighted>
0.0000

> <Gold.Chemscore.DEClash.Weighted>
0.2146

> <Gold.Chemscore.DEInternal.Weighted>
0.3663

> <Gold.Chemscore.Rot.Weighted>
4.0706

> <Gold.Chemscore.Internal.Correction.Weighted>
   9.000000E+99

> <Gold.Protein.RotatedTorsions>
[ 6907 6896 6895 6894 ] final   43.82 input  -60.11 | X-H torsion
[ 7974 7965 7964 7962 ] final   -1.91 input  175.53 | X-H torsion
[ 8008 7997 7996 7995 ] final   -3.41 input   59.86 | X-H torsion
[ 10167 10162 10161 10158 ] final  170.43 input  -65.29 | X-H torsion
[ 10718 10713 10712 10709 ] final -165.25 input   66.30 | X-H torsion
[ 10763 10752 10751 10750 ] final  174.68 input  -60.55 | X-H torsion
[ 11005 11000 10999 10996 ] final  160.19 input  -57.11 | X-H torsion

> <Gold.Protein.ActiveResidues>
 VAL166  LYS551  ARG553  GLY616  TRP617  ASP618  TYR619  PRO620  LYS621  CYS622 
 ASP623  PHE694  ASN695  SER759  ASP760  ASP761  ALA762  ILE779  LEU786  VAL792 
 PHE793  MET794  SER795  GLU796  ALA797  LYS798  CYS799  TRP800  GLU811  SER814 

> <Gold.Protein.RotatedAtoms>
  152.2250  134.8377  160.0480 H   0  0  0  0  0  0  0  0  0  0  0  0  # atno 6907 bound_to 6896
  151.9146  133.3565  159.3884 H   0  0  0  0  0  0  0  0  0  0  0  0  # atno 6908 bound_to 6896
  150.7010  134.4622  159.5430 H   0  0  0  0  0  0  0  0  0  0  0  0  # atno 6909 bound_to 6896
  146.2411  140.1492  142.8334 H   0  0  0  0  0  0  0  0  0  0  0  0  # atno 7974 bound_to 7965
  154.6252  140.2510  155.7500 H   0  0  0  0  0  0  0  0  0  0  0  0  # atno 8008 bound_to 7997
  156.2449  140.2918  156.0498 H   0  0  0  0  0  0  0  0  0  0  0  0  # atno 8009 bound_to 7997
  155.1833  140.0389  157.2876 H   0  0  0  0  0  0  0  0  0  0  0  0  # atno 8010 bound_to 7997
  139.5018  144.3598  151.9837 H   0  0  0  0  0  0  0  0  0  0  0  0  # atno 10167 bound_to 10162
  156.6507  130.9006  151.3012 H   0  0  0  0  0  0  0  0  0  0  0  0  # atno 10718 bound_to 10713
  154.4572  135.2766  155.1739 H   0  0  0  0  0  0  0  0  0  0  0  0  # atno 10763 bound_to 10752
  154.3541  135.6143  153.5661 H   0  0  0  0  0  0  0  0  0  0  0  0  # atno 10764 bound_to 10752
  152.9852  135.5818  154.4928 H   0  0  0  0  0  0  0  0  0  0  0  0  # atno 10765 bound_to 10752
  140.2035  134.8320  157.3044 H   0  0  0  0  0  0  0  0  0  0  0  0  # atno 11005 bound_to 11000
  145.0182  140.8771  143.5183 LP  0  0  0  0  0  0  0  0  0  0  0  0  # atno 17320 bound_to 7965
  145.1536  139.2500  143.5428 LP  0  0  0  0  0  0  0  0  0  0  0  0  # atno 17321 bound_to 7965
  140.3034  144.3621  150.6054 LP  0  0  0  0  0  0  0  0  0  0  0  0  # atno 17342 bound_to 10162
  140.5855  143.2170  151.7349 LP  0  0  0  0  0  0  0  0  0  0  0  0  # atno 17343 bound_to 10162
  157.7142  130.9476  150.1194 LP  0  0  0  0  0  0  0  0  0  0  0  0  # atno 17370 bound_to 10713
  156.2086  130.3665  149.8698 LP  0  0  0  0  0  0  0  0  0  0  0  0  # atno 17371 bound_to 10713
  140.2028  134.4234  155.7653 LP  0  0  0  0  0  0  0  0  0  0  0  0  # atno 17394 bound_to 11000
  141.2227  133.7080  156.8211 LP  0  0  0  0  0  0  0  0  0  0  0  0  # atno 17395 bound_to 11000

$$$$
