AV-unprocessed.smi:1492|AV-procd|sdf|6042|dock5
  -GOLD-   22720 6153D 1   1.00000     0.00000
 Structure written by MMmdl.
 53 54  0  0  0  0  0  0  0  0  2 V2000
  150.3221  133.2668  154.8791 C   0  0  0  0  0  0  0  0  0  0  0  0
  149.3800  133.7107  153.7431 C   0  0  0  0  0  0  0  0  0  0  0  0
  147.9696  134.2625  154.1403 C   0  0  1  0  0  0  0  0  0  0  0  0
  147.1964  133.1516  154.8938 C   0  0  0  0  0  0  0  0  0  0  0  0
  148.1409  135.4857  155.0976 C   0  0  0  0  0  0  0  0  0  0  0  0
  149.0622  136.4888  154.5672 N   0  0  0  0  0  0  0  0  0  0  0  0
  148.8151  137.7987  154.4163 C   0  0  0  0  0  0  0  0  0  0  0  0
  147.7074  138.3049  154.5825 O   0  0  0  0  0  0  0  0  0  0  0  0
  150.0086  138.6853  154.0499 C   0  0  0  0  0  0  0  0  0  0  0  0
  150.3371  139.8069  155.0371 C   0  0  0  0  0  0  0  0  0  0  0  0
  149.6209  140.9567  155.1236 C   0  0  0  0  0  0  0  0  0  0  0  0
  148.4039  141.2746  154.2736 C   0  0  0  0  0  0  0  0  0  0  0  0
  149.9719  141.9522  156.0184 N   0  0  0  0  0  0  0  0  0  0  0  0
  151.0894  141.7474  156.8107 C   0  0  0  0  0  0  0  0  0  0  0  0
  151.3991  142.9039  157.7352 C   0  0  0  0  0  0  0  0  0  0  0  0
  151.8422  140.6901  156.7928 N   0  0  0  0  0  0  0  0  0  0  0  0
  151.5231  139.6462  155.9106 C   0  0  0  0  0  0  0  0  0  0  0  0
  152.2248  138.6370  155.8602 O   0  0  0  0  0  0  0  0  0  0  0  0
  147.2184  134.6949  152.8973 N   0  3  0  0  0  0  0  0  0  0  0  0
  146.9294  133.6346  151.8881 C   0  0  0  0  0  0  0  0  0  0  0  0
  146.3009  134.2354  150.6185 C   0  0  0  0  0  0  0  0  0  0  0  0
  145.1282  134.9638  150.9479 O   0  0  0  0  0  0  0  0  0  0  0  0
  145.4153  136.0430  151.8234 C   0  0  0  0  0  0  0  0  0  0  0  0
  145.9817  135.4942  153.1411 C   0  0  0  0  0  0  0  0  0  0  0  0
  149.4044  142.7870  156.0603 H   0  0  0  0  0  0  0  0  0  0  0  0
  151.2433  132.8606  154.4610 H   0  0  0  0  0  0  0  0  0  0  0  0
  149.8828  132.4823  155.4939 H   0  0  0  0  0  0  0  0  0  0  0  0
  150.6147  134.0852  155.5331 H   0  0  0  0  0  0  0  0  0  0  0  0
  149.9018  134.4461  153.1294 H   0  0  0  0  0  0  0  0  0  0  0  0
  149.2665  132.8247  153.1204 H   0  0  0  0  0  0  0  0  0  0  0  0
  147.7085  132.8595  155.8100 H   0  0  0  0  0  0  0  0  0  0  0  0
  147.0815  132.2523  154.2887 H   0  0  0  0  0  0  0  0  0  0  0  0
  146.2023  133.4731  155.2019 H   0  0  0  0  0  0  0  0  0  0  0  0
  147.1839  135.9845  155.2476 H   0  0  0  0  0  0  0  0  0  0  0  0
  148.4276  135.1811  156.1035 H   0  0  0  0  0  0  0  0  0  0  0  0
  149.9994  136.1725  154.3652 H   0  0  0  0  0  0  0  0  0  0  0  0
  150.8729  138.0341  153.9223 H   0  0  0  0  0  0  0  0  0  0  0  0
  149.8376  139.1183  153.0631 H   0  0  0  0  0  0  0  0  0  0  0  0
  148.6531  141.2169  153.2136 H   0  0  0  0  0  0  0  0  0  0  0  0
  148.0233  142.2771  154.4735 H   0  0  0  0  0  0  0  0  0  0  0  0
  147.6016  140.5659  154.4795 H   0  0  0  0  0  0  0  0  0  0  0  0
  152.3074  142.7130  158.3082 H   0  0  0  0  0  0  0  0  0  0  0  0
  150.5791  143.0594  158.4368 H   0  0  0  0  0  0  0  0  0  0  0  0
  151.5452  143.8199  157.1620 H   0  0  0  0  0  0  0  0  0  0  0  0
  147.8337  133.1230  151.5667 H   0  0  0  0  0  0  0  0  0  0  0  0
  146.2612  132.8848  152.3126 H   0  0  0  0  0  0  0  0  0  0  0  0
  147.0108  134.8825  150.1029 H   0  0  0  0  0  0  0  0  0  0  0  0
  146.0363  133.4406  149.9207 H   0  0  0  0  0  0  0  0  0  0  0  0
  146.1135  136.7381  151.3573 H   0  0  0  0  0  0  0  0  0  0  0  0
  144.4952  136.5962  152.0123 H   0  0  0  0  0  0  0  0  0  0  0  0
  145.2204  134.8781  153.6194 H   0  0  0  0  0  0  0  0  0  0  0  0
  146.1702  136.3400  153.7988 H   0  0  0  0  0  0  0  0  0  0  0  0
  147.8538  135.3258  152.4299 H   0  0  0  0  0  0  0  0  0  0  0  0
  1  2  1  0  0  0  0
  1 26  1  0  0  0  0
  1 27  1  0  0  0  0
  1 28  1  0  0  0  0
  2  3  1  0  0  0  0
  2 29  1  0  0  0  0
  2 30  1  0  0  0  0
  3  4  1  0  0  0  0
  3  5  1  0  0  0  0
  3 19  1  0  0  0  0
  4 31  1  0  0  0  0
  4 32  1  0  0  0  0
  4 33  1  0  0  0  0
  5  6  1  0  0  0  0
  5 34  1  0  0  0  0
  5 35  1  0  0  0  0
  6  7  1  0  0  0  0
  6 36  1  0  0  0  0
  7  8  2  0  0  0  0
  7  9  1  0  0  0  0
  9 37  1  0  0  0  0
  9 38  1  0  0  0  0
  9 10  1  0  0  0  0
 10 17  1  0  0  0  0
 10 11  2  0  0  0  0
 11 12  1  0  0  0  0
 11 13  1  0  0  0  0
 12 39  1  0  0  0  0
 12 40  1  0  0  0  0
 12 41  1  0  0  0  0
 13 25  1  0  0  0  0
 13 14  1  0  0  0  0
 14 15  1  0  0  0  0
 14 16  2  0  0  0  0
 15 42  1  0  0  0  0
 15 43  1  0  0  0  0
 15 44  1  0  0  0  0
 16 17  1  0  0  0  0
 17 18  2  0  0  0  0
 19 24  1  0  0  0  0
 19 20  1  0  0  0  0
 19 53  1  0  0  0  0
 20 21  1  0  0  0  0
 20 45  1  0  0  0  0
 20 46  1  0  0  0  0
 21 22  1  0  0  0  0
 21 47  1  0  0  0  0
 21 48  1  0  0  0  0
 22 23  1  0  0  0  0
 23 24  1  0  0  0  0
 23 49  1  0  0  0  0
 23 50  1  0  0  0  0
 24 51  1  0  0  0  0
 24 52  1  0  0  0  0
M  CHG  1  19   1
M  END
> <s_m_source_file>
AV-unprocessed.smi

> <i_m_source_file_index>
1492

> <i_lp_mmshare_version>
43012

> <i_f3d_flags>
0

> <s_epik_input>
W0NIMl0xW0NIMl1PW0NIMl1bQ0gyXU4xW0NAQF0oW0NIM10pKFtDSDJdW0NIM10pW0NIMl1bTkhdQyg9TylbQ0gyXWMyYyhbQ0gzXSluYyhbQ0gzXSlbbkhdYzI9Tw==

> <s_epik_cmdline>
J2VwaWtfcHl0aG9uJywgJy1waCcsICc3LjAnLCAnLXRuJywgJzgnLCAnLW1hJywgJzIwMCcsICctbWV0YWxfYmluZGluZycsICctaW1hZScsICc8aW5maWxlLm1hZT4nLCAnLW9tYWUnLCAnPG91dGZpbGUubWFlPic=

> <r_lp_tautomer_probability>
0.156392

> <r_epik_Ionization_Penalty>
0.523233

> <r_epik_Ionization_Penalty_Charging>
0.523147

> <r_epik_Ionization_Penalty_Neutral>
8.52784e-05

> <r_epik_State_Penalty>
1.66677

> <r_epik_Charging_Adjusted_Penalty>
2.18991

> <i_epik_Tot_Q>
1

> <i_epik_Tot_abs_Q>
1

> <r_epik_Metal_State_Penalty>
1.84524

> <b_epik_Metal_Only>
0

> <s_lp_Force_Field>
OPLS_2005

> <r_lp_Energy>
37.6543

> <b_lp_Chiralities_Consistent>
1

> <s_lp_Variant>
AV-unprocessed.smi:1492-7

> <Gold.Version>
5.8.1

> <Gold.Id.Protein>
6NUR|6NUR_protein|mol2

> <Gold.PLP.Fitness>
45.4840

> <Gold.PLP.PLP>
-37.0185

> <Gold.PLP.part.hbond>
-3.0000

> <Gold.PLP.part.metal>
0.0000

> <Gold.PLP.part.buried>
-2.1655

> <Gold.PLP.part.nonpolar>
-30.3609

> <Gold.PLP.part.repulsive>
0.4291

> <Gold.PLP.ligand.clash>
0.0000

> <Gold.PLP.ligand.torsion>
0.4008

> <Gold.PLP.Chemscore.Hbond>
3.0000

> <Gold.PLP.Chemscore.CHOScore>
0.0000

> <Gold.PLP.Chemscore.Metal>
0.0000

> <Gold.Chemscore.Hbonds>
donor molecule, donor type, donor heavy atom, donor atom, acceptor molecule, acceptor atom, score
      L1  H    13    25       P1  8028  0.98
      L1  H    19    53       P1  7948  1.89

> <Gold.PLP.Chemscore.Internal.Correction>
0.2671

> <Gold.Rescore>
     Score         DG    S(hbond)    S(metal)    S(lipo)     H(rot)  DE(clash)    DE(int)     intcor
     15.13     -15.66       1.99        0.00      78.25       2.19       0.06       0.46       ----

> <Gold.Chemscore.Fitness>
15.1307

> <Gold.Chemscore.DG>
-15.6564

> <Gold.Chemscore.ZeroCoef>
-5.4800

> <Gold.Chemscore.Hbond>
1.9862

> <Gold.Chemscore.Metal>
0.0000

> <Gold.Chemscore.Lipo>
78.2508

> <Gold.Chemscore.Internal_Hbond>
0.0000

> <Gold.Chemscore.DEClash>
0.0635

> <Gold.Chemscore.DEInternal>
0.4622

> <Gold.Chemscore.Rot>
2.1926

> <Gold.Chemscore.Internal.Correction>
   9.000000E+99

> <Gold.Chemscore.Hbonds>
donor molecule, donor type, donor heavy atom, donor atom, acceptor molecule, acceptor atom, score
      L1  H    13    25       P1  8028  0.90
      L1  H    19    53       P1  7948  0.90

> <Gold.Chemscore.Hbond.Weighted>
-6.6340

> <Gold.Chemscore.Metal.Weighted>
-0.0000

> <Gold.Chemscore.Lipo.Weighted>
-9.1553

> <Gold.Chemscore.Internal_Hbond.Weighted>
0.0000

> <Gold.Chemscore.DEClash.Weighted>
0.0635

> <Gold.Chemscore.DEInternal.Weighted>
0.4622

> <Gold.Chemscore.Rot.Weighted>
5.6129

> <Gold.Chemscore.Internal.Correction.Weighted>
   9.000000E+99

> <Gold.Protein.RotatedTorsions>
[ 6907 6896 6895 6894 ] final  127.94 input  -60.11 | X-H torsion
[ 7974 7965 7964 7962 ] final   99.85 input  175.53 | X-H torsion
[ 8008 7997 7996 7995 ] final   67.57 input   59.86 | X-H torsion
[ 10167 10162 10161 10158 ] final   59.50 input  -65.29 | X-H torsion
[ 10718 10713 10712 10709 ] final -133.85 input   66.30 | X-H torsion
[ 10763 10752 10751 10750 ] final   35.75 input  -60.55 | X-H torsion
[ 11005 11000 10999 10996 ] final   23.08 input  -57.11 | X-H torsion

> <Gold.Protein.ActiveResidues>
 VAL166  LYS551  ARG553  GLY616  TRP617  ASP618  TYR619  PRO620  LYS621  CYS622 
 ASP623  PHE694  ASN695  SER759  ASP760  ASP761  ALA762  ILE779  LEU786  VAL792 
 PHE793  MET794  SER795  GLU796  ALA797  LYS798  CYS799  TRP800  GLU811  SER814 

> <Gold.Protein.RotatedAtoms>
  152.3766  133.6489  159.6127 H   0  0  0  0  0  0  0  0  0  0  0  0  # atno 6907 bound_to 6896
  150.7708  133.9183  159.3399 H   0  0  0  0  0  0  0  0  0  0  0  0  # atno 6908 bound_to 6896
  151.6997  135.0933  160.0300 H   0  0  0  0  0  0  0  0  0  0  0  0  # atno 6909 bound_to 6896
  145.3934  139.2359  143.3339 H   0  0  0  0  0  0  0  0  0  0  0  0  # atno 7974 bound_to 7965
  155.6950  140.3496  155.4909 H   0  0  0  0  0  0  0  0  0  0  0  0  # atno 8008 bound_to 7997
  155.9491  140.1116  157.1014 H   0  0  0  0  0  0  0  0  0  0  0  0  # atno 8009 bound_to 7997
  154.4118  140.1198  156.5014 H   0  0  0  0  0  0  0  0  0  0  0  0  # atno 8010 bound_to 7997
  140.1757  144.4232  150.6639 H   0  0  0  0  0  0  0  0  0  0  0  0  # atno 10167 bound_to 10162
  156.2492  130.7143  151.1035 H   0  0  0  0  0  0  0  0  0  0  0  0  # atno 10718 bound_to 10713
  153.0106  135.6325  154.1876 H   0  0  0  0  0  0  0  0  0  0  0  0  # atno 10763 bound_to 10752
  154.1618  135.2823  155.3108 H   0  0  0  0  0  0  0  0  0  0  0  0  # atno 10764 bound_to 10752
  154.5975  135.5598  153.7401 H   0  0  0  0  0  0  0  0  0  0  0  0  # atno 10765 bound_to 10752
  140.3735  134.1997  155.7666 H   0  0  0  0  0  0  0  0  0  0  0  0  # atno 11005 bound_to 11000
  146.2786  140.4621  142.8785 LP  0  0  0  0  0  0  0  0  0  0  0  0  # atno 17320 bound_to 7965
  144.8424  140.6877  143.6221 LP  0  0  0  0  0  0  0  0  0  0  0  0  # atno 17321 bound_to 7965
  140.6553  143.2236  151.5984 LP  0  0  0  0  0  0  0  0  0  0  0  0  # atno 17342 bound_to 10162
  139.5318  144.2894  152.1164 LP  0  0  0  0  0  0  0  0  0  0  0  0  # atno 17343 bound_to 10162
  157.7207  131.0683  150.6145 LP  0  0  0  0  0  0  0  0  0  0  0  0  # atno 17370 bound_to 10713
  156.6224  130.4409  149.5817 LP  0  0  0  0  0  0  0  0  0  0  0  0  # atno 17371 bound_to 10713
  141.1947  133.8123  157.0747 LP  0  0  0  0  0  0  0  0  0  0  0  0  # atno 17394 bound_to 11000
  140.0533  134.9794  157.1176 LP  0  0  0  0  0  0  0  0  0  0  0  0  # atno 17395 bound_to 11000

$$$$
