AV-unprocessed.smi:3348|AV-procd|sdf|12924|dock4
  -GOLD-   2272019343D 1   1.00000     0.00000
 Structure written by MMmdl.
 46 47  0  0  0  0  0  0  0  0  1 V2000
  151.6251  138.2733  153.9048 C   0  0  0  0  0  0  0  0  0  0  0  0
  150.6978  139.4674  154.1896 C   0  0  1  0  0  0  0  0  0  0  0  0
  149.2231  139.1702  153.8200 C   0  0  0  0  0  0  0  0  0  0  0  0
  148.3510  140.3229  153.9603 N   0  0  0  0  0  0  0  0  0  0  0  0
  147.0025  140.4168  153.6864 C   0  0  0  0  0  0  0  0  0  0  0  0
  146.6148  141.6911  153.9862 C   0  0  0  0  0  0  0  0  0  0  0  0
  147.8107  142.3085  154.4473 C   0  0  0  0  0  0  0  0  0  0  0  0
  148.8473  141.4860  154.4349 N   0  0  0  0  0  0  0  0  0  0  0  0
  150.8381  139.8533  155.5974 N   0  0  0  0  0  0  0  0  0  0  0  0
  151.2070  141.2479  155.8371 C   0  0  0  0  0  0  0  0  0  0  0  0
  150.5852  141.7655  157.1447 C   0  0  0  0  0  0  0  0  0  0  0  0
  151.5177  141.7724  158.2193 O   0  0  0  0  0  0  0  0  0  0  0  0
  151.1109  142.4937  159.3774 C   0  0  2  0  0  0  0  0  0  0  0  0
  150.6232  143.8781  158.9107 C   0  0  0  0  0  0  0  0  0  0  0  0
  150.2671  144.7791  160.1017 C   0  0  0  0  0  0  0  0  0  0  0  0
  151.4586  144.9158  161.0604 C   0  0  0  0  0  0  0  0  0  0  0  0
  151.9536  143.5386  161.5298 C   0  0  0  0  0  0  0  0  0  0  0  0
  152.3111  142.6204  160.3431 C   0  0  1  0  0  0  0  0  0  0  0  0
  152.7902  141.2492  160.8459 C   0  0  0  0  0  0  0  0  0  0  0  0
  151.6460  138.0222  152.8441 H   0  0  0  0  0  0  0  0  0  0  0  0
  151.3080  137.3851  154.4522 H   0  0  0  0  0  0  0  0  0  0  0  0
  152.6511  138.4969  154.1988 H   0  0  0  0  0  0  0  0  0  0  0  0
  151.0407  140.2958  153.5683 H   0  0  0  0  0  0  0  0  0  0  0  0
  149.1595  138.8196  152.7887 H   0  0  0  0  0  0  0  0  0  0  0  0
  148.8149  138.3759  154.4455 H   0  0  0  0  0  0  0  0  0  0  0  0
  146.4380  139.5790  153.3043 H   0  0  0  0  0  0  0  0  0  0  0  0
  145.6269  142.1171  153.8919 H   0  0  0  0  0  0  0  0  0  0  0  0
  147.9549  143.3223  154.7904 H   0  0  0  0  0  0  0  0  0  0  0  0
  149.9848  139.6353  156.1020 H   0  0  0  0  0  0  0  0  0  0  0  0
  152.2908  141.3624  155.8461 H   0  0  0  0  0  0  0  0  0  0  0  0
  150.8379  141.8734  155.0255 H   0  0  0  0  0  0  0  0  0  0  0  0
  150.1834  142.7696  157.0027 H   0  0  0  0  0  0  0  0  0  0  0  0
  149.7391  141.1375  157.4260 H   0  0  0  0  0  0  0  0  0  0  0  0
  150.2945  141.9906  159.8997 H   0  0  0  0  0  0  0  0  0  0  0  0
  151.4002  144.3576  158.3139 H   0  0  0  0  0  0  0  0  0  0  0  0
  149.7571  143.7705  158.2572 H   0  0  0  0  0  0  0  0  0  0  0  0
  149.9610  145.7631  159.7456 H   0  0  0  0  0  0  0  0  0  0  0  0
  149.4121  144.3615  160.6346 H   0  0  0  0  0  0  0  0  0  0  0  0
  152.2710  145.4458  160.5618 H   0  0  0  0  0  0  0  0  0  0  0  0
  151.1754  145.5226  161.9208 H   0  0  0  0  0  0  0  0  0  0  0  0
  152.8219  143.6667  162.1771 H   0  0  0  0  0  0  0  0  0  0  0  0
  151.1823  143.0670  162.1405 H   0  0  0  0  0  0  0  0  0  0  0  0
  153.1371  143.0818  159.7997 H   0  0  0  0  0  0  0  0  0  0  0  0
  151.9985  140.7253  161.3825 H   0  0  0  0  0  0  0  0  0  0  0  0
  153.6385  141.3541  161.5226 H   0  0  0  0  0  0  0  0  0  0  0  0
  153.1099  140.6132  160.0203 H   0  0  0  0  0  0  0  0  0  0  0  0
  1  2  1  0  0  0  0
  1 20  1  0  0  0  0
  1 21  1  0  0  0  0
  1 22  1  0  0  0  0
  2  3  1  0  0  0  0
  2  9  1  0  0  0  0
  2 23  1  0  0  0  0
  3  4  1  0  0  0  0
  3 24  1  0  0  0  0
  3 25  1  0  0  0  0
  4  8  1  0  0  0  0
  4  5  1  0  0  0  0
  5  6  2  0  0  0  0
  5 26  1  0  0  0  0
  6  7  1  0  0  0  0
  6 27  1  0  0  0  0
  7  8  2  0  0  0  0
  7 28  1  0  0  0  0
  9 10  1  0  0  0  0
  9 29  1  0  0  0  0
 10 11  1  0  0  0  0
 10 30  1  0  0  0  0
 10 31  1  0  0  0  0
 11 12  1  0  0  0  0
 11 32  1  0  0  0  0
 11 33  1  0  0  0  0
 12 13  1  0  0  0  0
 13 18  1  0  0  0  0
 13 14  1  0  0  0  0
 13 34  1  0  0  0  0
 14 15  1  0  0  0  0
 14 35  1  0  0  0  0
 14 36  1  0  0  0  0
 15 16  1  0  0  0  0
 15 37  1  0  0  0  0
 15 38  1  0  0  0  0
 16 17  1  0  0  0  0
 16 39  1  0  0  0  0
 16 40  1  0  0  0  0
 17 18  1  0  0  0  0
 17 41  1  0  0  0  0
 17 42  1  0  0  0  0
 18 19  1  0  0  0  0
 18 43  1  0  0  0  0
 19 44  1  0  0  0  0
 19 45  1  0  0  0  0
 19 46  1  0  0  0  0
M  END
> <s_m_source_file>
AV-unprocessed.smi

> <i_m_source_file_index>
3348

> <i_lp_mmshare_version>
43012

> <i_f3d_flags>
0

> <s_epik_input>
bjFbY0hdW2NIXVtjSF1uMVtDSDJdW0NAQEhdKFtDSDNdKVtOSF1bQ0gyXVtDSDJdT1tDQEBIXTJbQ0gyXVtDSDJdW0NIMl1bQ0gyXVtDQEhdMltDSDNd

> <s_epik_cmdline>
J2VwaWtfcHl0aG9uJywgJy1waCcsICc3LjAnLCAnLXRuJywgJzgnLCAnLW1hJywgJzIwMCcsICctbWV0YWxfYmluZGluZycsICctaW1hZScsICc8aW5maWxlLm1hZT4nLCAnLW9tYWUnLCAnPG91dGZpbGUubWFlPic=

> <r_lp_tautomer_probability>
1

> <r_epik_Ionization_Penalty>
2.46945

> <r_epik_Ionization_Penalty_Charging>
0

> <r_epik_Ionization_Penalty_Neutral>
2.46945

> <r_epik_State_Penalty>
2.6322

> <r_epik_Charging_Adjusted_Penalty>
2.6322

> <i_epik_Tot_Q>
0

> <i_epik_Tot_abs_Q>
0

> <r_epik_Metal_State_Penalty>
2.63217

> <b_epik_Metal_Only>
0

> <s_lp_Force_Field>
OPLS_2005

> <r_lp_Energy>
18.9542

> <b_lp_Chiralities_Consistent>
1

> <s_lp_Variant>
AV-unprocessed.smi:3348-10

> <Gold.Version>
5.8.1

> <Gold.Id.Protein>
6NUR|6NUR_protein|mol2

> <Gold.PLP.Fitness>
46.5082

> <Gold.PLP.PLP>
-46.0983

> <Gold.PLP.part.hbond>
0.0000

> <Gold.PLP.part.metal>
0.0000

> <Gold.PLP.part.buried>
-4.1024

> <Gold.PLP.part.nonpolar>
-41.7772

> <Gold.PLP.part.repulsive>
0.1631

> <Gold.PLP.ligand.clash>
0.0000

> <Gold.PLP.ligand.torsion>
1.3304

> <Gold.PLP.Chemscore.Hbond>
0.0000

> <Gold.PLP.Chemscore.CHOScore>
1.0000

> <Gold.PLP.Chemscore.Metal>
0.0000

> <Gold.Chemscore.Hbonds>
donor molecule, donor type, donor heavy atom, donor atom, acceptor molecule, acceptor atom, score
      L1  C     7    28       P1  8028  0.55

> <Gold.PLP.Chemscore.Internal.Correction>
0.0708

> <Gold.Rescore>
     Score         DG    S(hbond)    S(metal)    S(lipo)     H(rot)  DE(clash)    DE(int)     intcor
     13.11     -15.99       0.00        0.00     127.53       1.72       0.19       2.69       ----

> <Gold.Chemscore.Fitness>
13.1063

> <Gold.Chemscore.DG>
-15.9886

> <Gold.Chemscore.ZeroCoef>
-5.4800

> <Gold.Chemscore.Hbond>
0.0000

> <Gold.Chemscore.Metal>
0.0000

> <Gold.Chemscore.Lipo>
127.5313

> <Gold.Chemscore.Internal_Hbond>
0.0000

> <Gold.Chemscore.DEClash>
0.1932

> <Gold.Chemscore.DEInternal>
2.6891

> <Gold.Chemscore.Rot>
1.7237

> <Gold.Chemscore.Internal.Correction>
   9.000000E+99

> <Gold.Chemscore.Hbond.Weighted>
-0.0000

> <Gold.Chemscore.Metal.Weighted>
-0.0000

> <Gold.Chemscore.Lipo.Weighted>
-14.9212

> <Gold.Chemscore.Internal_Hbond.Weighted>
0.0000

> <Gold.Chemscore.DEClash.Weighted>
0.1932

> <Gold.Chemscore.DEInternal.Weighted>
2.6891

> <Gold.Chemscore.Rot.Weighted>
4.4126

> <Gold.Chemscore.Internal.Correction.Weighted>
   9.000000E+99

> <Gold.Protein.RotatedTorsions>
[ 6907 6896 6895 6894 ] final  128.83 input  -60.11 | X-H torsion
[ 7974 7965 7964 7962 ] final -166.93 input  175.53 | X-H torsion
[ 8008 7997 7996 7995 ] final  -79.53 input   59.86 | X-H torsion
[ 10167 10162 10161 10158 ] final   37.93 input  -65.29 | X-H torsion
[ 10718 10713 10712 10709 ] final  -55.76 input   66.30 | X-H torsion
[ 10763 10752 10751 10750 ] final   59.54 input  -60.55 | X-H torsion
[ 11005 11000 10999 10996 ] final -168.40 input  -57.11 | X-H torsion

> <Gold.Protein.ActiveResidues>
 VAL166  LYS551  ARG553  GLY616  TRP617  ASP618  TYR619  PRO620  LYS621  CYS622 
 ASP623  PHE694  ASN695  SER759  ASP760  ASP761  ALA762  ILE779  LEU786  VAL792 
 PHE793  MET794  SER795  GLU796  ALA797  LYS798  CYS799  TRP800  GLU811  SER814 

> <Gold.Protein.RotatedAtoms>
  152.3682  133.6384  159.6066 H   0  0  0  0  0  0  0  0  0  0  0  0  # atno 6907 bound_to 6896
  150.7649  133.9313  159.3436 H   0  0  0  0  0  0  0  0  0  0  0  0  # atno 6908 bound_to 6896
  151.7140  135.0908  160.0324 H   0  0  0  0  0  0  0  0  0  0  0  0  # atno 6909 bound_to 6896
  144.7234  140.2594  143.6267 H   0  0  0  0  0  0  0  0  0  0  0  0  # atno 7974 bound_to 7965
  154.5794  140.0677  156.9081 H   0  0  0  0  0  0  0  0  0  0  0  0  # atno 8008 bound_to 7997
  155.2490  140.3350  155.4266 H   0  0  0  0  0  0  0  0  0  0  0  0  # atno 8009 bound_to 7997
  156.2178  140.1786  156.7533 H   0  0  0  0  0  0  0  0  0  0  0  0  # atno 8010 bound_to 7997
  140.3986  144.1755  150.6133 H   0  0  0  0  0  0  0  0  0  0  0  0  # atno 10167 bound_to 10162
  156.1342  130.4157  150.0214 H   0  0  0  0  0  0  0  0  0  0  0  0  # atno 10718 bound_to 10713
  152.9897  135.5568  154.5730 H   0  0  0  0  0  0  0  0  0  0  0  0  # atno 10763 bound_to 10752
  154.5126  135.2803  155.1332 H   0  0  0  0  0  0  0  0  0  0  0  0  # atno 10764 bound_to 10752
  154.2717  135.6361  153.5366 H   0  0  0  0  0  0  0  0  0  0  0  0  # atno 10765 bound_to 10752
  140.5424  134.5510  157.5103 H   0  0  0  0  0  0  0  0  0  0  0  0  # atno 11005 bound_to 11000
  145.8151  139.2019  143.1970 LP  0  0  0  0  0  0  0  0  0  0  0  0  # atno 17320 bound_to 7965
  146.0563  140.8018  142.9757 LP  0  0  0  0  0  0  0  0  0  0  0  0  # atno 17321 bound_to 7965
  140.4764  143.2394  151.9017 LP  0  0  0  0  0  0  0  0  0  0  0  0  # atno 17342 bound_to 10162
  139.4785  144.5315  151.8659 LP  0  0  0  0  0  0  0  0  0  0  0  0  # atno 17343 bound_to 10162
  156.8118  130.9327  151.3644 LP  0  0  0  0  0  0  0  0  0  0  0  0  # atno 17370 bound_to 10713
  157.6517  130.8890  149.9646 LP  0  0  0  0  0  0  0  0  0  0  0  0  # atno 17371 bound_to 10713
  139.9497  134.7638  156.0477 LP  0  0  0  0  0  0  0  0  0  0  0  0  # atno 17394 bound_to 11000
  141.1219  133.6610  156.3238 LP  0  0  0  0  0  0  0  0  0  0  0  0  # atno 17395 bound_to 11000

$$$$
