AV-unprocessed.smi:3162|AV-procd|sdf|12069|dock6
  -GOLD-   2272017503D 1   1.00000     0.00000
 Structure written by MMmdl.
 36 36  0  0  0  0  0  0  0  0  1 V2000
  147.8935  141.5434  154.2706 C   0  0  0  0  0  0  0  0  0  0  0  0
  147.2095  140.6918  153.1891 C   0  0  0  0  0  0  0  0  0  0  0  0
  147.3480  139.1668  153.3944 C   0  0  2  0  0  0  0  0  0  0  0  0
  148.7708  138.7891  153.2918 N   0  0  0  0  0  0  0  0  0  0  0  0
  149.5280  138.7999  154.5424 C   0  0  1  0  0  0  0  0  0  0  0  0
  150.2820  137.4655  154.6989 C   0  0  0  0  0  0  0  0  0  0  0  0
  150.4757  140.0163  154.5010 C   0  0  0  0  0  0  0  0  0  0  0  0
  150.7621  140.5541  155.8190 N   0  0  0  0  0  0  0  0  0  0  0  0
  150.5625  141.8363  156.2851 C   0  0  0  0  0  0  0  0  0  0  0  0
  150.9758  141.8695  157.5870 C   0  0  0  0  0  0  0  0  0  0  0  0
  150.9738  143.0258  158.5448 C   0  0  0  0  0  0  0  0  0  0  0  0
  151.4150  140.5367  157.8285 C   0  0  0  0  0  0  0  0  0  0  0  0
  151.2837  139.7519  156.7715 N   0  0  0  0  0  0  0  0  0  0  0  0
  146.4477  138.3748  152.4278 C   0  0  0  0  0  0  0  0  0  0  0  0
  145.9391  139.0366  151.3852 N   0  0  0  0  0  0  0  0  0  0  0  0
  146.2010  137.1874  152.6312 O   0  0  0  0  0  0  0  0  0  0  0  0
  147.8245  142.6037  154.0266 H   0  0  0  0  0  0  0  0  0  0  0  0
  148.9508  141.2925  154.3590 H   0  0  0  0  0  0  0  0  0  0  0  0
  147.4312  141.4035  155.2478 H   0  0  0  0  0  0  0  0  0  0  0  0
  146.1563  140.9687  153.1233 H   0  0  0  0  0  0  0  0  0  0  0  0
  147.6460  140.9585  152.2256 H   0  0  0  0  0  0  0  0  0  0  0  0
  147.0259  138.9476  154.4144 H   0  0  0  0  0  0  0  0  0  0  0  0
  148.8975  137.9101  152.8104 H   0  0  0  0  0  0  0  0  0  0  0  0
  148.8553  138.9337  155.3908 H   0  0  0  0  0  0  0  0  0  0  0  0
  150.8289  137.4284  155.6412 H   0  0  0  0  0  0  0  0  0  0  0  0
  151.0023  137.3207  153.8931 H   0  0  0  0  0  0  0  0  0  0  0  0
  149.6035  136.6131  154.6926 H   0  0  0  0  0  0  0  0  0  0  0  0
  151.4215  139.7461  154.0287 H   0  0  0  0  0  0  0  0  0  0  0  0
  150.0431  140.8144  153.8953 H   0  0  0  0  0  0  0  0  0  0  0  0
  150.1493  142.6119  155.6571 H   0  0  0  0  0  0  0  0  0  0  0  0
  150.8152  142.6987  159.5726 H   0  0  0  0  0  0  0  0  0  0  0  0
  150.1865  143.7432  158.3122 H   0  0  0  0  0  0  0  0  0  0  0  0
  151.9197  143.5673  158.5216 H   0  0  0  0  0  0  0  0  0  0  0  0
  151.8216  140.1181  158.7374 H   0  0  0  0  0  0  0  0  0  0  0  0
  145.3462  138.5560  150.7242 H   0  0  0  0  0  0  0  0  0  0  0  0
  146.1527  140.0154  151.2603 H   0  0  0  0  0  0  0  0  0  0  0  0
  1  2  1  0  0  0  0
  1 17  1  0  0  0  0
  1 18  1  0  0  0  0
  1 19  1  0  0  0  0
  2  3  1  0  0  0  0
  2 20  1  0  0  0  0
  2 21  1  0  0  0  0
  3  4  1  0  0  0  0
  3 14  1  0  0  0  0
  3 22  1  0  0  0  0
  4  5  1  0  0  0  0
  4 23  1  0  0  0  0
  5  6  1  0  0  0  0
  5  7  1  0  0  0  0
  5 24  1  0  0  0  0
  6 25  1  0  0  0  0
  6 26  1  0  0  0  0
  6 27  1  0  0  0  0
  7  8  1  0  0  0  0
  7 28  1  0  0  0  0
  7 29  1  0  0  0  0
  8 13  1  0  0  0  0
  8  9  1  0  0  0  0
  9 10  2  0  0  0  0
  9 30  1  0  0  0  0
 10 11  1  0  0  0  0
 10 12  1  0  0  0  0
 11 31  1  0  0  0  0
 11 32  1  0  0  0  0
 11 33  1  0  0  0  0
 12 13  2  0  0  0  0
 12 34  1  0  0  0  0
 14 15  1  0  0  0  0
 14 16  2  0  0  0  0
 15 35  1  0  0  0  0
 15 36  1  0  0  0  0
M  END
> <s_m_source_file>
AV-unprocessed.smi

> <i_m_source_file_index>
3162

> <i_lp_mmshare_version>
43012

> <i_f3d_flags>
0

> <s_epik_input>
W0NIM11bQ0gyXVtDQEBIXShDKD1PKVtOSDJdKVtOSF1bQ0BIXShbQ0gzXSlbQ0gyXW4xW2NIXWMoW0NIM10pW2NIXW4x

> <s_epik_cmdline>
J2VwaWtfcHl0aG9uJywgJy1waCcsICc3LjAnLCAnLXRuJywgJzgnLCAnLW1hJywgJzIwMCcsICctbWV0YWxfYmluZGluZycsICctaW1hZScsICc8aW5maWxlLm1hZT4nLCAnLW9tYWUnLCAnPG91dGZpbGUubWFlPic=

> <r_lp_tautomer_probability>
1

> <r_epik_Ionization_Penalty>
1.04167

> <r_epik_Ionization_Penalty_Charging>
0

> <r_epik_Ionization_Penalty_Neutral>
1.04167

> <r_epik_State_Penalty>
1.09367

> <r_epik_Charging_Adjusted_Penalty>
1.09367

> <i_epik_Tot_Q>
0

> <i_epik_Tot_abs_Q>
0

> <r_epik_Metal_State_Penalty>
1.09362

> <b_epik_Metal_Only>
0

> <s_lp_Force_Field>
OPLS_2005

> <r_lp_Energy>
3.23366

> <b_lp_Chiralities_Consistent>
1

> <s_lp_Variant>
AV-unprocessed.smi:3162-7

> <Gold.Version>
5.8.1

> <Gold.Id.Protein>
6NUR|6NUR_protein|mol2

> <Gold.PLP.Fitness>
37.6801

> <Gold.PLP.PLP>
-32.3087

> <Gold.PLP.part.hbond>
-4.0000

> <Gold.PLP.part.metal>
0.0000

> <Gold.PLP.part.buried>
-2.0525

> <Gold.PLP.part.nonpolar>
-28.4872

> <Gold.PLP.part.repulsive>
0.9853

> <Gold.PLP.ligand.clash>
0.0000

> <Gold.PLP.ligand.torsion>
1.8449

> <Gold.PLP.Chemscore.Hbond>
1.9760

> <Gold.PLP.Chemscore.CHOScore>
1.0000

> <Gold.PLP.Chemscore.Metal>
0.0000

> <Gold.Chemscore.Hbonds>
donor molecule, donor type, donor heavy atom, donor atom, acceptor molecule, acceptor atom, score
      L1  H     4    23       P1  7948  1.00
      L1  H    15    35       P1 10171  0.91
      L1  C     9    30       P1  8028  1.00

> <Gold.PLP.Chemscore.Internal.Correction>
0.1332

> <Gold.Rescore>
     Score         DG    S(hbond)    S(metal)    S(lipo)     H(rot)  DE(clash)    DE(int)     intcor
     11.13     -13.81       1.95        0.00      68.84       2.43       0.95       1.73       ----

> <Gold.Chemscore.Fitness>
11.1295

> <Gold.Chemscore.DG>
-13.8142

> <Gold.Chemscore.ZeroCoef>
-5.4800

> <Gold.Chemscore.Hbond>
1.9486

> <Gold.Chemscore.Metal>
0.0000

> <Gold.Chemscore.Lipo>
68.8368

> <Gold.Chemscore.Internal_Hbond>
0.0000

> <Gold.Chemscore.DEClash>
0.9509

> <Gold.Chemscore.DEInternal>
1.7338

> <Gold.Chemscore.Rot>
2.4328

> <Gold.Chemscore.Internal.Correction>
   9.000000E+99

> <Gold.Chemscore.Hbonds>
donor molecule, donor type, donor heavy atom, donor atom, acceptor molecule, acceptor atom, score
      L1  H     4    23       P1  7948  1.00
      L1  H    15    35       P1 10171  0.90

> <Gold.Chemscore.Hbond.Weighted>
-6.5082

> <Gold.Chemscore.Metal.Weighted>
-0.0000

> <Gold.Chemscore.Lipo.Weighted>
-8.0539

> <Gold.Chemscore.Internal_Hbond.Weighted>
0.0000

> <Gold.Chemscore.DEClash.Weighted>
0.9509

> <Gold.Chemscore.DEInternal.Weighted>
1.7338

> <Gold.Chemscore.Rot.Weighted>
6.2279

> <Gold.Chemscore.Internal.Correction.Weighted>
   9.000000E+99

> <Gold.Protein.RotatedTorsions>
[ 6907 6896 6895 6894 ] final   81.35 input  -60.11 | X-H torsion
[ 7974 7965 7964 7962 ] final  154.50 input  175.53 | X-H torsion
[ 8008 7997 7996 7995 ] final  132.31 input   59.86 | X-H torsion
[ 10167 10162 10161 10158 ] final  -60.09 input  -65.29 | X-H torsion
[ 10718 10713 10712 10709 ] final   64.25 input   66.30 | X-H torsion
[ 10763 10752 10751 10750 ] final -167.13 input  -60.55 | X-H torsion
[ 11005 11000 10999 10996 ] final  160.91 input  -57.11 | X-H torsion

> <Gold.Protein.ActiveResidues>
 VAL166  LYS551  ARG553  GLY616  TRP617  ASP618  TYR619  PRO620  LYS621  CYS622 
 ASP623  PHE694  ASN695  SER759  ASP760  ASP761  ALA762  ILE779  LEU786  VAL792 
 PHE793  MET794  SER795  GLU796  ALA797  LYS798  CYS799  TRP800  GLU811  SER814 

> <Gold.Protein.RotatedAtoms>
  152.5265  134.3217  159.9150 H   0  0  0  0  0  0  0  0  0  0  0  0  # atno 6907 bound_to 6896
  151.3166  133.4051  159.2659 H   0  0  0  0  0  0  0  0  0  0  0  0  # atno 6908 bound_to 6896
  150.9993  134.9326  159.8002 H   0  0  0  0  0  0  0  0  0  0  0  0  # atno 6909 bound_to 6896
  144.8084  139.6943  143.6152 H   0  0  0  0  0  0  0  0  0  0  0  0  # atno 7974 bound_to 7965
  156.2981  140.2549  156.3069 H   0  0  0  0  0  0  0  0  0  0  0  0  # atno 8008 bound_to 7997
  154.9364  140.0397  157.2093 H   0  0  0  0  0  0  0  0  0  0  0  0  # atno 8009 bound_to 7997
  154.8169  140.2853  155.5818 H   0  0  0  0  0  0  0  0  0  0  0  0  # atno 8010 bound_to 7997
  140.6094  143.2382  151.5746 H   0  0  0  0  0  0  0  0  0  0  0  0  # atno 10167 bound_to 10162
  157.6027  130.9149  149.9821 H   0  0  0  0  0  0  0  0  0  0  0  0  # atno 10718 bound_to 10713
  154.6763  135.2947  154.9674 H   0  0  0  0  0  0  0  0  0  0  0  0  # atno 10763 bound_to 10752
  154.0684  135.6621  153.4825 H   0  0  0  0  0  0  0  0  0  0  0  0  # atno 10764 bound_to 10752
  153.0518  135.5169  154.7784 H   0  0  0  0  0  0  0  0  0  0  0  0  # atno 10765 bound_to 10752
  140.2106  134.8270  157.3116 H   0  0  0  0  0  0  0  0  0  0  0  0  # atno 11005 bound_to 11000
  146.2379  139.5943  142.9511 LP  0  0  0  0  0  0  0  0  0  0  0  0  # atno 17320 bound_to 7965
  145.5382  141.0422  143.2345 LP  0  0  0  0  0  0  0  0  0  0  0  0  # atno 17321 bound_to 7965
  139.5349  144.2809  152.1230 LP  0  0  0  0  0  0  0  0  0  0  0  0  # atno 17342 bound_to 10162
  140.2005  144.4663  150.6434 LP  0  0  0  0  0  0  0  0  0  0  0  0  # atno 17343 bound_to 10162
  156.1104  130.3650  150.0059 LP  0  0  0  0  0  0  0  0  0  0  0  0  # atno 17370 bound_to 10713
  156.8158  130.9341  151.3643 LP  0  0  0  0  0  0  0  0  0  0  0  0  # atno 17371 bound_to 10713
  140.1955  134.4319  155.7691 LP  0  0  0  0  0  0  0  0  0  0  0  0  # atno 17394 bound_to 11000
  141.2226  133.7047  156.8098 LP  0  0  0  0  0  0  0  0  0  0  0  0  # atno 17395 bound_to 11000

$$$$
