AV-unprocessed.smi:1047|AV-procd|sdf|4580|dock6
  -GOLD-   22720 3 43D 1   1.00000     0.00000
 Structure written by MMmdl.
 58 60  0  0  0  0  0  0  0  0  4 V2000
  145.9405  133.3049  150.4386 C   0  0  0  0  0  0  0  0  0  0  0  0
  144.6388  133.9491  150.9367 C   0  0  0  0  0  0  0  0  0  0  0  0
  144.8520  135.3039  151.5046 N   0  3  1  0  0  0  0  0  0  0  0  0
  143.5758  135.9813  151.8374 C   0  0  0  0  0  0  0  0  0  0  0  0
  143.8393  137.4031  152.3612 C   0  0  0  0  0  0  0  0  0  0  0  0
  144.6979  137.3458  153.4943 O   0  0  0  0  0  0  0  0  0  0  0  0
  145.9611  136.7674  153.1838 C   0  0  1  0  0  0  0  0  0  0  0  0
  146.8721  136.8625  154.4199 C   0  0  0  0  0  0  0  0  0  0  0  0
  148.2247  137.3506  154.0792 N   0  3  0  0  0  0  0  0  0  0  0  0
  149.1433  137.4359  155.2320 C   0  0  0  0  0  0  0  0  0  0  0  0
  150.5067  138.0179  154.8145 C   0  0  2  0  0  0  0  0  0  0  0  0
  151.3008  136.9785  154.2801 O   0  0  0  0  0  0  0  0  0  0  0  0
  151.2957  138.6648  155.9703 C   0  0  0  0  0  0  0  0  0  0  0  0
  151.0018  140.0957  156.1340 N   0  0  0  0  0  0  0  0  0  0  0  0
  150.2506  140.9177  155.3511 C   0  0  0  0  0  0  0  0  0  0  0  0
  150.2831  142.1595  155.9081 N   0  3  0  0  0  0  0  0  0  0  0  0
  151.0704  142.1330  157.0608 C   0  0  0  0  0  0  0  0  0  0  0  0
  151.3994  143.1408  157.9592 C   0  0  0  0  0  0  0  0  0  0  0  0
  152.2323  142.7901  159.0454 C   0  0  0  0  0  0  0  0  0  0  0  0
  152.6128  143.8696  160.0448 C   0  0  0  0  0  0  0  0  0  0  0  0
  152.7045  141.4615  159.2033 C   0  0  0  0  0  0  0  0  0  0  0  0
  153.5987  141.0951  160.3757 C   0  0  0  0  0  0  0  0  0  0  0  0
  152.3595  140.4507  158.2776 C   0  0  0  0  0  0  0  0  0  0  0  0
  151.5384  140.8126  157.2114 C   0  0  0  0  0  0  0  0  0  0  0  0
  145.7657  135.3233  152.6742 C   0  0  0  0  0  0  0  0  0  0  0  0
  145.7319  132.3588  149.9387 H   0  0  0  0  0  0  0  0  0  0  0  0
  146.6306  133.0911  151.2543 H   0  0  0  0  0  0  0  0  0  0  0  0
  146.4520  133.9493  149.7231 H   0  0  0  0  0  0  0  0  0  0  0  0
  143.9576  134.0248  150.0880 H   0  0  0  0  0  0  0  0  0  0  0  0
  144.1484  133.3069  151.6698 H   0  0  0  0  0  0  0  0  0  0  0  0
  142.9405  136.0311  150.9520 H   0  0  0  0  0  0  0  0  0  0  0  0
  143.0362  135.4002  152.5870 H   0  0  0  0  0  0  0  0  0  0  0  0
  144.2821  138.0288  151.5845 H   0  0  0  0  0  0  0  0  0  0  0  0
  142.9013  137.8758  152.6531 H   0  0  0  0  0  0  0  0  0  0  0  0
  146.4237  137.3576  152.3901 H   0  0  0  0  0  0  0  0  0  0  0  0
  146.4223  137.5290  155.1570 H   0  0  0  0  0  0  0  0  0  0  0  0
  146.9587  135.8819  154.8898 H   0  0  0  0  0  0  0  0  0  0  0  0
  148.6305  136.7261  153.3957 H   0  0  0  0  0  0  0  0  0  0  0  0
  148.6738  138.0738  155.9811 H   0  0  0  0  0  0  0  0  0  0  0  0
  149.2697  136.4508  155.6837 H   0  0  0  0  0  0  0  0  0  0  0  0
  150.3577  138.7621  154.0309 H   0  0  0  0  0  0  0  0  0  0  0  0
  150.9803  136.7610  153.4175 H   0  0  0  0  0  0  0  0  0  0  0  0
  151.1205  138.1451  156.9123 H   0  0  0  0  0  0  0  0  0  0  0  0
  152.3665  138.5859  155.7762 H   0  0  0  0  0  0  0  0  0  0  0  0
  149.7253  140.6366  154.4494 H   0  0  0  0  0  0  0  0  0  0  0  0
  151.0355  144.1503  157.8329 H   0  0  0  0  0  0  0  0  0  0  0  0
  153.6969  143.9555  160.1250 H   0  0  0  0  0  0  0  0  0  0  0  0
  152.2095  143.6370  161.0307 H   0  0  0  0  0  0  0  0  0  0  0  0
  152.2244  144.8439  159.7469 H   0  0  0  0  0  0  0  0  0  0  0  0
  153.8136  140.0262  160.3956 H   0  0  0  0  0  0  0  0  0  0  0  0
  153.1220  141.3547  161.3210 H   0  0  0  0  0  0  0  0  0  0  0  0
  154.5489  141.6256  160.3093 H   0  0  0  0  0  0  0  0  0  0  0  0
  152.7231  139.4416  158.4021 H   0  0  0  0  0  0  0  0  0  0  0  0
  145.3523  134.6905  153.4611 H   0  0  0  0  0  0  0  0  0  0  0  0
  146.7350  134.9053  152.4037 H   0  0  0  0  0  0  0  0  0  0  0  0
  148.1462  138.2693  153.6676 H   0  0  0  0  0  0  0  0  0  0  0  0
  145.2853  135.8561  150.7778 H   0  0  0  0  0  0  0  0  0  0  0  0
  149.8068  142.9662  155.5242 H   0  0  0  0  0  0  0  0  0  0  0  0
  1  2  1  0  0  0  0
  1 26  1  0  0  0  0
  1 27  1  0  0  0  0
  1 28  1  0  0  0  0
  2  3  1  0  0  0  0
  2 29  1  0  0  0  0
  2 30  1  0  0  0  0
  3 25  1  0  0  0  0
  3  4  1  0  0  0  0
  3 57  1  0  0  0  0
  4  5  1  0  0  0  0
  4 31  1  0  0  0  0
  4 32  1  0  0  0  0
  5  6  1  0  0  0  0
  5 33  1  0  0  0  0
  5 34  1  0  0  0  0
  6  7  1  0  0  0  0
  7  8  1  0  0  0  0
  7 25  1  0  0  0  0
  7 35  1  0  0  0  0
  8  9  1  0  0  0  0
  8 36  1  0  0  0  0
  8 37  1  0  0  0  0
  9 10  1  0  0  0  0
  9 38  1  0  0  0  0
  9 56  1  0  0  0  0
 10 11  1  0  0  0  0
 10 39  1  0  0  0  0
 10 40  1  0  0  0  0
 11 12  1  0  0  0  0
 11 13  1  0  0  0  0
 11 41  1  0  0  0  0
 12 42  1  0  0  0  0
 13 14  1  0  0  0  0
 13 43  1  0  0  0  0
 13 44  1  0  0  0  0
 14 24  1  0  0  0  0
 14 15  1  0  0  0  0
 15 16  2  0  0  0  0
 15 45  1  0  0  0  0
 16 17  1  0  0  0  0
 16 58  1  0  0  0  0
 17 24  2  0  0  0  0
 17 18  1  0  0  0  0
 18 19  2  0  0  0  0
 18 46  1  0  0  0  0
 19 20  1  0  0  0  0
 19 21  1  0  0  0  0
 20 47  1  0  0  0  0
 20 48  1  0  0  0  0
 20 49  1  0  0  0  0
 21 22  1  0  0  0  0
 21 23  2  0  0  0  0
 22 50  1  0  0  0  0
 22 51  1  0  0  0  0
 22 52  1  0  0  0  0
 23 24  1  0  0  0  0
 23 53  1  0  0  0  0
 25 54  1  0  0  0  0
 25 55  1  0  0  0  0
M  CHG  1   3   1
M  CHG  1   9   1
M  CHG  1  16   1
M  END
> <s_m_source_file>
AV-unprocessed.smi

> <i_m_source_file_index>
1047

> <i_lp_mmshare_version>
43012

> <i_f3d_flags>
0

> <s_epik_input>
W0NIM11bQ0gyXU4xW0NIMl1bQ0gyXU9bQ0BIXShbQ0gyXTEpW0NIMl1bTkhdW0NIMl1bQ0BIXShbT0hdKVtDSDJdbihbY0hdbjIpYyhjMjMpW2NIXWMoW0NIM10pYyhbY0hdMylbQ0gzXQ==

> <s_epik_cmdline>
J2VwaWtfcHl0aG9uJywgJy1waCcsICc3LjAnLCAnLXRuJywgJzgnLCAnLW1hJywgJzIwMCcsICctbWV0YWxfYmluZGluZycsICctaW1hZScsICc8aW5maWxlLm1hZT4nLCAnLW9tYWUnLCAnPG91dGZpbGUubWFlPic=

> <r_epik_Ionization_Penalty>
1.6114

> <r_epik_Ionization_Penalty_Charging>
1.61139

> <r_epik_Ionization_Penalty_Neutral>
5.04732e-06

> <r_epik_State_Penalty>
1.63724

> <r_epik_Charging_Adjusted_Penalty>
3.24864

> <i_epik_Tot_Q>
3

> <i_epik_Tot_abs_Q>
3

> <r_epik_Metal_State_Penalty>
5.64594

> <b_epik_Metal_Only>
0

> <s_lp_Force_Field>
OPLS_2005

> <r_lp_Energy>
43.5462

> <b_lp_Chiralities_Consistent>
1

> <s_lp_Variant>
AV-unprocessed.smi:1047-21

> <Gold.Version>
5.8.1

> <Gold.Id.Protein>
6NUR|6NUR_protein|mol2

> <Gold.PLP.Fitness>
61.8552

> <Gold.PLP.PLP>
-46.7097

> <Gold.PLP.part.hbond>
-3.8622

> <Gold.PLP.part.metal>
0.0000

> <Gold.PLP.part.buried>
-4.0064

> <Gold.PLP.part.nonpolar>
-38.3039

> <Gold.PLP.part.repulsive>
0.2492

> <Gold.PLP.ligand.clash>
0.0000

> <Gold.PLP.ligand.torsion>
1.3267

> <Gold.PLP.Chemscore.Hbond>
5.8613

> <Gold.PLP.Chemscore.CHOScore>
0.0000

> <Gold.PLP.Chemscore.Metal>
0.0000

> <Gold.Chemscore.Hbonds>
donor molecule, donor type, donor heavy atom, donor atom, acceptor molecule, acceptor atom, score
      L1  H     9    38       P1  7948  2.00
      L1  H    12    42       P1  7949  0.86
      L1  H    16    58       P1  8028  2.00
      P1  H 10752 10763       L1    12  0.77

> <Gold.PLP.Chemscore.Internal.Correction>
0.2151

> <Gold.Rescore>
     Score         DG    S(hbond)    S(metal)    S(lipo)     H(rot)  DE(clash)    DE(int)     intcor
     19.85     -21.71       2.69        0.00     122.98       2.78       0.31       1.55       ----

> <Gold.Chemscore.Fitness>
19.8509

> <Gold.Chemscore.DG>
-21.7142

> <Gold.Chemscore.ZeroCoef>
-5.4800

> <Gold.Chemscore.Hbond>
2.6869

> <Gold.Chemscore.Metal>
0.0000

> <Gold.Chemscore.Lipo>
122.9833

> <Gold.Chemscore.Internal_Hbond>
0.0000

> <Gold.Chemscore.DEClash>
0.3105

> <Gold.Chemscore.DEInternal>
1.5528

> <Gold.Chemscore.Rot>
2.7848

> <Gold.Chemscore.Internal.Correction>
   9.000000E+99

> <Gold.Chemscore.Hbonds>
donor molecule, donor type, donor heavy atom, donor atom, acceptor molecule, acceptor atom, score
      L1  H     9    38       P1  7948  0.97
      L1  H    12    42       P1  7949  0.21
      L1  H    16    58       P1  8028  0.95
      P1  H 10752 10763       L1    12  0.17

> <Gold.Chemscore.Hbond.Weighted>
-8.9742

> <Gold.Chemscore.Metal.Weighted>
-0.0000

> <Gold.Chemscore.Lipo.Weighted>
-14.3890

> <Gold.Chemscore.Internal_Hbond.Weighted>
0.0000

> <Gold.Chemscore.DEClash.Weighted>
0.3105

> <Gold.Chemscore.DEInternal.Weighted>
1.5528

> <Gold.Chemscore.Rot.Weighted>
7.1291

> <Gold.Chemscore.Internal.Correction.Weighted>
   9.000000E+99

> <Gold.Protein.RotatedTorsions>
[ 6907 6896 6895 6894 ] final -116.21 input  -60.11 | X-H torsion
[ 7974 7965 7964 7962 ] final  -23.79 input  175.53 | X-H torsion
[ 8008 7997 7996 7995 ] final -115.79 input   59.86 | X-H torsion
[ 10167 10162 10161 10158 ] final -136.53 input  -65.29 | X-H torsion
[ 10718 10713 10712 10709 ] final  -33.09 input   66.30 | X-H torsion
[ 10763 10752 10751 10750 ] final   46.35 input  -60.55 | X-H torsion
[ 11005 11000 10999 10996 ] final  -20.65 input  -57.11 | X-H torsion

> <Gold.Protein.ActiveResidues>
 VAL166  LYS551  ARG553  GLY616  TRP617  ASP618  TYR619  PRO620  LYS621  CYS622 
 ASP623  PHE694  ASN695  SER759  ASP760  ASP761  ALA762  ILE779  LEU786  VAL792 
 PHE793  MET794  SER795  GLU796  ALA797  LYS798  CYS799  TRP800  GLU811  SER814 

> <Gold.Protein.RotatedAtoms>
  150.8038  133.8548  159.3215 H   0  0  0  0  0  0  0  0  0  0  0  0  # atno 6907 bound_to 6896
  151.6353  135.1017  160.0139 H   0  0  0  0  0  0  0  0  0  0  0  0  # atno 6908 bound_to 6896
  152.4127  133.6950  159.6447 H   0  0  0  0  0  0  0  0  0  0  0  0  # atno 6909 bound_to 6896
  146.1595  140.4664  142.8577 H   0  0  0  0  0  0  0  0  0  0  0  0  # atno 7974 bound_to 7965
  155.0577  140.0393  157.2566 H   0  0  0  0  0  0  0  0  0  0  0  0  # atno 8008 bound_to 7997
  154.7085  140.2688  155.6627 H   0  0  0  0  0  0  0  0  0  0  0  0  # atno 8009 bound_to 7997
  156.2782  140.2726  156.1719 H   0  0  0  0  0  0  0  0  0  0  0  0  # atno 8010 bound_to 7997
  139.8668  143.7007  152.2644 H   0  0  0  0  0  0  0  0  0  0  0  0  # atno 10167 bound_to 10162
  156.3669  130.4333  149.7577 H   0  0  0  0  0  0  0  0  0  0  0  0  # atno 10718 bound_to 10713
  152.9812  135.6011  154.3586 H   0  0  0  0  0  0  0  0  0  0  0  0  # atno 10763 bound_to 10752
  154.3269  135.2769  155.2493 H   0  0  0  0  0  0  0  0  0  0  0  0  # atno 10764 bound_to 10752
  154.4634  135.5960  153.6327 H   0  0  0  0  0  0  0  0  0  0  0  0  # atno 10765 bound_to 10752
  140.8485  133.7874  155.9939 H   0  0  0  0  0  0  0  0  0  0  0  0  # atno 11005 bound_to 11000
  144.8007  140.6208  143.6480 LP  0  0  0  0  0  0  0  0  0  0  0  0  # atno 17320 bound_to 7965
  145.4625  139.1511  143.3858 LP  0  0  0  0  0  0  0  0  0  0  0  0  # atno 17321 bound_to 7965
  139.7321  144.7580  151.0785 LP  0  0  0  0  0  0  0  0  0  0  0  0  # atno 17342 bound_to 10162
  140.7767  143.5075  150.9693 LP  0  0  0  0  0  0  0  0  0  0  0  0  # atno 17343 bound_to 10162
  156.4720  130.8001  151.3018 LP  0  0  0  0  0  0  0  0  0  0  0  0  # atno 17370 bound_to 10713
  157.7480  131.0033  150.3032 LP  0  0  0  0  0  0  0  0  0  0  0  0  # atno 17371 bound_to 10713
  140.8817  134.2603  157.5141 LP  0  0  0  0  0  0  0  0  0  0  0  0  # atno 17394 bound_to 11000
  139.8704  134.9618  156.4408 LP  0  0  0  0  0  0  0  0  0  0  0  0  # atno 17395 bound_to 11000

$$$$
