AV-unprocessed.smi:2156|AV-procd|sdf|8779|dock3
  -GOLD-   2272011563D 1   1.00000     0.00000
 Structure written by MMmdl.
 34 34  0  0  0  0  0  0  0  0  1 V2000
  152.0773  144.3860  157.6918 C   0  0  0  0  0  0  0  0  0  0  0  0
  151.7163  144.1796  159.1668 C   0  0  0  0  0  0  0  0  0  0  0  0
  152.7273  143.2818  159.9014 C   0  0  0  0  0  0  0  0  0  0  0  0
  152.4837  141.7712  159.7089 C   0  0  2  0  0  0  0  0  0  0  0  0
  153.5441  140.9322  160.4351 C   0  0  0  0  0  0  0  0  0  0  0  0
  152.4899  141.4210  158.2894 N   0  0  0  0  0  0  0  0  0  0  0  0
  151.4355  140.9936  157.5766 C   0  0  0  0  0  0  0  0  0  0  0  0
  150.3070  140.8575  158.0516 O   0  0  0  0  0  0  0  0  0  0  0  0
  151.7043  140.7053  156.0927 C   0  0  0  0  0  0  0  0  0  0  0  0
  150.4760  140.5098  155.3090 N   0  0  0  0  0  0  0  0  0  0  0  0
  149.5199  141.5137  155.2448 C   0  0  0  0  0  0  0  0  0  0  0  0
  148.3624  141.3976  154.5520 C   0  0  0  0  0  0  0  0  0  0  0  0
  148.0596  140.1726  153.8198 C   0  0  0  0  0  0  0  0  0  0  0  0
  147.0406  139.9730  153.1625 O   0  0  0  0  0  0  0  0  0  0  0  0
  149.0441  139.1851  153.9115 N   0  0  0  0  0  0  0  0  0  0  0  0
  150.2382  139.2974  154.6253 C   0  0  0  0  0  0  0  0  0  0  0  0
  151.0375  138.3620  154.6447 O   0  0  0  0  0  0  0  0  0  0  0  0
  148.8769  138.3175  153.4230 H   0  0  0  0  0  0  0  0  0  0  0  0
  151.3476  145.0296  157.2006 H   0  0  0  0  0  0  0  0  0  0  0  0
  152.0985  143.4370  157.1556 H   0  0  0  0  0  0  0  0  0  0  0  0
  153.0568  144.8535  157.5865 H   0  0  0  0  0  0  0  0  0  0  0  0
  151.6625  145.1493  159.6628 H   0  0  0  0  0  0  0  0  0  0  0  0
  150.7175  143.7473  159.2263 H   0  0  0  0  0  0  0  0  0  0  0  0
  153.7385  143.5336  159.5784 H   0  0  0  0  0  0  0  0  0  0  0  0
  152.6852  143.5114  160.9670 H   0  0  0  0  0  0  0  0  0  0  0  0
  151.5183  141.5220  160.1528 H   0  0  0  0  0  0  0  0  0  0  0  0
  153.5472  141.1435  161.5049 H   0  0  0  0  0  0  0  0  0  0  0  0
  154.5448  141.1375  160.0532 H   0  0  0  0  0  0  0  0  0  0  0  0
  153.3520  139.8658  160.3127 H   0  0  0  0  0  0  0  0  0  0  0  0
  153.3734  141.5095  157.8086 H   0  0  0  0  0  0  0  0  0  0  0  0
  152.2806  141.5374  155.6859 H   0  0  0  0  0  0  0  0  0  0  0  0
  152.3544  139.8329  155.9999 H   0  0  0  0  0  0  0  0  0  0  0  0
  149.6995  142.4374  155.7763 H   0  0  0  0  0  0  0  0  0  0  0  0
  147.6561  142.2151  154.5407 H   0  0  0  0  0  0  0  0  0  0  0  0
  1  2  1  0  0  0  0
  1 19  1  0  0  0  0
  1 20  1  0  0  0  0
  1 21  1  0  0  0  0
  2  3  1  0  0  0  0
  2 22  1  0  0  0  0
  2 23  1  0  0  0  0
  3  4  1  0  0  0  0
  3 24  1  0  0  0  0
  3 25  1  0  0  0  0
  4  5  1  0  0  0  0
  4  6  1  0  0  0  0
  4 26  1  0  0  0  0
  5 27  1  0  0  0  0
  5 28  1  0  0  0  0
  5 29  1  0  0  0  0
  6  7  1  0  0  0  0
  6 30  1  0  0  0  0
  7  8  2  0  0  0  0
  7  9  1  0  0  0  0
  9 10  1  0  0  0  0
  9 31  1  0  0  0  0
  9 32  1  0  0  0  0
 10 16  1  0  0  0  0
 10 11  1  0  0  0  0
 11 12  2  0  0  0  0
 11 33  1  0  0  0  0
 12 13  1  0  0  0  0
 12 34  1  0  0  0  0
 13 14  2  0  0  0  0
 13 15  1  0  0  0  0
 15 18  1  0  0  0  0
 15 16  1  0  0  0  0
 16 17  2  0  0  0  0
M  END
> <s_m_source_file>
AV-unprocessed.smi

> <i_m_source_file_index>
2156

> <i_lp_mmshare_version>
43012

> <i_f3d_flags>
0

> <s_epik_input>
W0NIM11bQ0gyXVtDSDJdW0NASF0oW0NIM10pW05IXUMoPU8pW0NIMl1uMVtjSF1bY0hdYyg9TylbbkhdYzE9Tw==

> <s_epik_cmdline>
J2VwaWtfcHl0aG9uJywgJy1waCcsICc3LjAnLCAnLXRuJywgJzgnLCAnLW1hJywgJzIwMCcsICctbWV0YWxfYmluZGluZycsICctaW1hZScsICc8aW5maWxlLm1hZT4nLCAnLW9tYWUnLCAnPG91dGZpbGUubWFlPic=

> <r_lp_tautomer_probability>
0.999537

> <r_epik_Ionization_Penalty>
0.00324917

> <r_epik_Ionization_Penalty_Charging>
0.00324916

> <r_epik_Ionization_Penalty_Neutral>
1.93017e-08

> <r_epik_State_Penalty>
0.00229371

> <r_epik_Charging_Adjusted_Penalty>
0.00554286

> <i_epik_Tot_Q>
0

> <i_epik_Tot_abs_Q>
0

> <r_epik_Metal_State_Penalty>
0.364744

> <b_epik_Metal_Only>
0

> <s_lp_Force_Field>
OPLS_2005

> <r_lp_Energy>
3.31869

> <b_lp_Chiralities_Consistent>
1

> <s_lp_Variant>
AV-unprocessed.smi:2156-1

> <Gold.Version>
5.8.1

> <Gold.Id.Protein>
6NUR|6NUR_protein|mol2

> <Gold.PLP.Fitness>
40.0897

> <Gold.PLP.PLP>
-37.5620

> <Gold.PLP.part.hbond>
-1.0000

> <Gold.PLP.part.metal>
0.0000

> <Gold.PLP.part.buried>
-1.7225

> <Gold.PLP.part.nonpolar>
-33.9399

> <Gold.PLP.part.repulsive>
0.5527

> <Gold.PLP.ligand.clash>
0.0000

> <Gold.PLP.ligand.torsion>
0.2655

> <Gold.PLP.Chemscore.Hbond>
0.0000

> <Gold.PLP.Chemscore.CHOScore>
1.0000

> <Gold.PLP.Chemscore.Metal>
0.0000

> <Gold.Chemscore.Hbonds>
donor molecule, donor type, donor heavy atom, donor atom, acceptor molecule, acceptor atom, score
      L1  C    11    33       P1  8028  1.00

> <Gold.PLP.Chemscore.Internal.Correction>
0.0588

> <Gold.Rescore>
     Score         DG    S(hbond)    S(metal)    S(lipo)     H(rot)  DE(clash)    DE(int)     intcor
      9.14      -9.48       0.00        0.00      82.21       2.19       0.03       0.31       ----

> <Gold.Chemscore.Fitness>
9.1390

> <Gold.Chemscore.DG>
-9.4794

> <Gold.Chemscore.ZeroCoef>
-5.4800

> <Gold.Chemscore.Hbond>
0.0000

> <Gold.Chemscore.Metal>
0.0000

> <Gold.Chemscore.Lipo>
82.2072

> <Gold.Chemscore.Internal_Hbond>
0.0000

> <Gold.Chemscore.DEClash>
0.0275

> <Gold.Chemscore.DEInternal>
0.3129

> <Gold.Chemscore.Rot>
2.1949

> <Gold.Chemscore.Internal.Correction>
   9.000000E+99

> <Gold.Chemscore.Hbond.Weighted>
-0.0000

> <Gold.Chemscore.Metal.Weighted>
-0.0000

> <Gold.Chemscore.Lipo.Weighted>
-9.6182

> <Gold.Chemscore.Internal_Hbond.Weighted>
0.0000

> <Gold.Chemscore.DEClash.Weighted>
0.0275

> <Gold.Chemscore.DEInternal.Weighted>
0.3129

> <Gold.Chemscore.Rot.Weighted>
5.6188

> <Gold.Chemscore.Internal.Correction.Weighted>
   9.000000E+99

> <Gold.Protein.RotatedTorsions>
[ 6907 6896 6895 6894 ] final  117.29 input  -60.11 | X-H torsion
[ 7974 7965 7964 7962 ] final -159.89 input  175.53 | X-H torsion
[ 8008 7997 7996 7995 ] final   -7.39 input   59.86 | X-H torsion
[ 10167 10162 10161 10158 ] final  -46.78 input  -65.29 | X-H torsion
[ 10718 10713 10712 10709 ] final  100.07 input   66.30 | X-H torsion
[ 10763 10752 10751 10750 ] final  -65.41 input  -60.55 | X-H torsion
[ 11005 11000 10999 10996 ] final   13.47 input  -57.11 | X-H torsion

> <Gold.Protein.ActiveResidues>
 VAL166  LYS551  ARG553  GLY616  TRP617  ASP618  TYR619  PRO620  LYS621  CYS622 
 ASP623  PHE694  ASN695  SER759  ASP760  ASP761  ALA762  ILE779  LEU786  VAL792 
 PHE793  MET794  SER795  GLU796  ALA797  LYS798  CYS799  TRP800  GLU811  SER814 

> <Gold.Protein.RotatedAtoms>
  152.4621  133.7845  159.6868 H   0  0  0  0  0  0  0  0  0  0  0  0  # atno 6907 bound_to 6896
  150.8570  133.7691  159.3012 H   0  0  0  0  0  0  0  0  0  0  0  0  # atno 6908 bound_to 6896
  151.5268  135.1071  159.9944 H   0  0  0  0  0  0  0  0  0  0  0  0  # atno 6909 bound_to 6896
  144.7448  140.3621  143.6094 H   0  0  0  0  0  0  0  0  0  0  0  0  # atno 7974 bound_to 7965
  154.5843  140.2408  155.8009 H   0  0  0  0  0  0  0  0  0  0  0  0  # atno 8008 bound_to 7997
  156.2202  140.3000  155.9889 H   0  0  0  0  0  0  0  0  0  0  0  0  # atno 8009 bound_to 7997
  155.2485  140.0410  157.2974 H   0  0  0  0  0  0  0  0  0  0  0  0  # atno 8010 bound_to 7997
  140.6803  143.2815  151.3831 H   0  0  0  0  0  0  0  0  0  0  0  0  # atno 10167 bound_to 10162
  157.6862  131.0688  150.5044 H   0  0  0  0  0  0  0  0  0  0  0  0  # atno 10718 bound_to 10713
  154.3447  135.6149  153.5613 H   0  0  0  0  0  0  0  0  0  0  0  0  # atno 10763 bound_to 10752
  152.9802  135.5778  154.4813 H   0  0  0  0  0  0  0  0  0  0  0  0  # atno 10764 bound_to 10752
  154.4523  135.2853  155.1749 H   0  0  0  0  0  0  0  0  0  0  0  0  # atno 10765 bound_to 10752
  140.4804  134.0941  155.7750 H   0  0  0  0  0  0  0  0  0  0  0  0  # atno 11005 bound_to 11000
  145.7166  139.1699  143.2508 LP  0  0  0  0  0  0  0  0  0  0  0  0  # atno 17320 bound_to 7965
  146.1307  140.7188  142.9413 LP  0  0  0  0  0  0  0  0  0  0  0  0  # atno 17321 bound_to 7965
  139.6121  144.1076  152.2309 LP  0  0  0  0  0  0  0  0  0  0  0  0  # atno 17342 bound_to 10162
  140.0494  144.5945  150.7348 LP  0  0  0  0  0  0  0  0  0  0  0  0  # atno 17343 bound_to 10162
  156.5364  130.4197  149.6176 LP  0  0  0  0  0  0  0  0  0  0  0  0  # atno 17370 bound_to 10713
  156.3024  130.7184  151.2058 LP  0  0  0  0  0  0  0  0  0  0  0  0  # atno 17371 bound_to 10713
  141.1534  133.8928  157.2040 LP  0  0  0  0  0  0  0  0  0  0  0  0  # atno 17394 bound_to 11000
  139.9830  135.0092  156.9795 LP  0  0  0  0  0  0  0  0  0  0  0  0  # atno 17395 bound_to 11000

$$$$
