AV-unprocessed.smi:912|AV-procd|sdf|4144|dock6
  -GOLD-   22720 2 53D 1   1.00000     0.00000
 Structure written by MMmdl.
 27 27  0  0  0  0  0  0  0  0  2 V2000
  146.4951  129.6057  151.9171 C   0  0  0  0  0  0  0  0  0  0  0  0
  147.3629  130.7824  151.9187 N   0  0  0  0  0  0  0  0  0  0  0  0
  146.8424  132.0261  152.5188 C   0  0  1  0  0  0  0  0  0  0  0  0
  146.4206  131.6351  153.9601 C   0  0  0  0  0  0  0  0  0  0  0  0
  147.9018  133.1626  152.5331 C   0  0  0  0  0  0  0  0  0  0  0  0
  149.0698  132.9258  151.9253 N   0  0  0  0  0  0  0  0  0  0  0  0
  147.6725  134.2407  153.0788 O   0  0  0  0  0  0  0  0  0  0  0  0
  145.6143  132.5569  151.7489 C   0  0  0  0  0  0  0  0  0  0  0  0
  144.8435  133.6531  152.2193 C   0  0  0  0  0  0  0  0  0  0  0  0
  143.7279  134.0960  151.4800 C   0  0  0  0  0  0  0  0  0  0  0  0
  143.3917  133.4757  150.3301 N   0  3  0  0  0  0  0  0  0  0  0  0
  144.0836  132.4259  149.8410 C   0  0  0  0  0  0  0  0  0  0  0  0
  145.2079  131.9401  150.5379 C   0  0  0  0  0  0  0  0  0  0  0  0
  146.9682  128.8187  151.3299 H   0  0  0  0  0  0  0  0  0  0  0  0
  145.5251  129.8118  151.4654 H   0  0  0  0  0  0  0  0  0  0  0  0
  146.3378  129.2031  152.9174 H   0  0  0  0  0  0  0  0  0  0  0  0
  147.5554  130.9832  150.9476 H   0  0  0  0  0  0  0  0  0  0  0  0
  146.0252  132.4809  154.5226 H   0  0  0  0  0  0  0  0  0  0  0  0
  147.2525  131.2422  154.5451 H   0  0  0  0  0  0  0  0  0  0  0  0
  145.6439  130.8693  153.9485 H   0  0  0  0  0  0  0  0  0  0  0  0
  149.7763  133.6465  151.8943 H   0  0  0  0  0  0  0  0  0  0  0  0
  149.2320  132.0335  151.4812 H   0  0  0  0  0  0  0  0  0  0  0  0
  145.0858  134.1637  153.1393 H   0  0  0  0  0  0  0  0  0  0  0  0
  143.0974  134.9222  151.7746 H   0  0  0  0  0  0  0  0  0  0  0  0
  143.7183  132.0064  148.9150 H   0  0  0  0  0  0  0  0  0  0  0  0
  145.7464  131.0921  150.1415 H   0  0  0  0  0  0  0  0  0  0  0  0
  142.5798  133.8119  149.8113 H   0  0  0  0  0  0  0  0  0  0  0  0
  1  2  1  0  0  0  0
  1 14  1  0  0  0  0
  1 15  1  0  0  0  0
  1 16  1  0  0  0  0
  2  3  1  0  0  0  0
  2 17  1  0  0  0  0
  3  4  1  0  0  0  0
  3  5  1  0  0  0  0
  3  8  1  0  0  0  0
  4 18  1  0  0  0  0
  4 19  1  0  0  0  0
  4 20  1  0  0  0  0
  5  6  1  0  0  0  0
  5  7  2  0  0  0  0
  6 21  1  0  0  0  0
  6 22  1  0  0  0  0
  8 13  1  0  0  0  0
  8  9  2  0  0  0  0
  9 10  1  0  0  0  0
  9 23  1  0  0  0  0
 10 11  2  0  0  0  0
 10 24  1  0  0  0  0
 11 12  1  0  0  0  0
 11 27  1  0  0  0  0
 12 13  2  0  0  0  0
 12 25  1  0  0  0  0
 13 26  1  0  0  0  0
M  CHG  1  11   1
M  END
> <s_m_source_file>
AV-unprocessed.smi

> <i_m_source_file_index>
912

> <i_lp_mmshare_version>
43012

> <i_f3d_flags>
0

> <s_epik_input>
W0NIM11bTkhdW0NAQF0oW0NIM10pKEMoPU8pW05IMl0pYzFbY0hdW2NIXW5bY0hdW2NIXTE=

> <s_epik_cmdline>
J2VwaWtfcHl0aG9uJywgJy1waCcsICc3LjAnLCAnLXRuJywgJzgnLCAnLW1hJywgJzIwMCcsICctbWV0YWxfYmluZGluZycsICctaW1hZScsICc8aW5maWxlLm1hZT4nLCAnLW9tYWUnLCAnPG91dGZpbGUubWFlPic=

> <r_epik_Ionization_Penalty>
0.562542

> <r_epik_Ionization_Penalty_Charging>
0.554844

> <r_epik_Ionization_Penalty_Neutral>
0.00769834

> <r_epik_State_Penalty>
1.39075

> <r_epik_Charging_Adjusted_Penalty>
1.94559

> <i_epik_Tot_Q>
1

> <i_epik_Tot_abs_Q>
1

> <r_epik_Metal_State_Penalty>
1.55563

> <b_epik_Metal_Only>
0

> <s_lp_Force_Field>
OPLS_2005

> <r_lp_Energy>
17.994

> <b_lp_Chiralities_Consistent>
1

> <s_lp_Variant>
AV-unprocessed.smi:912-5

> <Gold.Version>
5.8.1

> <Gold.Id.Protein>
6NUR|6NUR_protein|mol2

> <Gold.PLP.Fitness>
33.4461

> <Gold.PLP.PLP>
-22.7088

> <Gold.PLP.part.hbond>
-2.6822

> <Gold.PLP.part.metal>
0.0000

> <Gold.PLP.part.buried>
-1.8639

> <Gold.PLP.part.nonpolar>
-17.9805

> <Gold.PLP.part.repulsive>
0.1823

> <Gold.PLP.ligand.clash>
0.0000

> <Gold.PLP.ligand.torsion>
0.1190

> <Gold.PLP.Chemscore.Hbond>
3.6480

> <Gold.PLP.Chemscore.CHOScore>
0.0000

> <Gold.PLP.Chemscore.Metal>
0.0000

> <Gold.Chemscore.Hbonds>
donor molecule, donor type, donor heavy atom, donor atom, acceptor molecule, acceptor atom, score
      L1  H     2    17       P1 10747  0.50
      L1  H     6    22       P1 10747  1.00
      L1  H    11    27       P1 10186  2.00

> <Gold.PLP.Chemscore.Internal.Correction>
0.0313

> <Gold.Rescore>
     Score         DG    S(hbond)    S(metal)    S(lipo)     H(rot)  DE(clash)    DE(int)     intcor
     14.62     -16.15       2.69        0.00      54.22       1.82       0.09       1.45       ----

> <Gold.Chemscore.Fitness>
14.6206

> <Gold.Chemscore.DG>
-16.1540

> <Gold.Chemscore.ZeroCoef>
-5.4800

> <Gold.Chemscore.Hbond>
2.6936

> <Gold.Chemscore.Metal>
0.0000

> <Gold.Chemscore.Lipo>
54.2152

> <Gold.Chemscore.Internal_Hbond>
0.0000

> <Gold.Chemscore.DEClash>
0.0873

> <Gold.Chemscore.DEInternal>
1.4461

> <Gold.Chemscore.Rot>
1.8226

> <Gold.Chemscore.Internal.Correction>
   9.000000E+99

> <Gold.Chemscore.Hbonds>
donor molecule, donor type, donor heavy atom, donor atom, acceptor molecule, acceptor atom, score
      L1  H     2    17       P1 10747  0.47
      L1  H     6    22       P1 10747  0.59
      L1  H    11    27       P1 10186  0.99

> <Gold.Chemscore.Hbond.Weighted>
-8.9967

> <Gold.Chemscore.Metal.Weighted>
-0.0000

> <Gold.Chemscore.Lipo.Weighted>
-6.3432

> <Gold.Chemscore.Internal_Hbond.Weighted>
0.0000

> <Gold.Chemscore.DEClash.Weighted>
0.0873

> <Gold.Chemscore.DEInternal.Weighted>
1.4461

> <Gold.Chemscore.Rot.Weighted>
4.6659

> <Gold.Chemscore.Internal.Correction.Weighted>
   9.000000E+99

> <Gold.Protein.RotatedTorsions>
[ 6907 6896 6895 6894 ] final   90.80 input  -60.11 | X-H torsion
[ 7974 7965 7964 7962 ] final    6.82 input  175.53 | X-H torsion
[ 8008 7997 7996 7995 ] final    6.17 input   59.86 | X-H torsion
[ 10167 10162 10161 10158 ] final   59.02 input  -65.29 | X-H torsion
[ 10718 10713 10712 10709 ] final    1.98 input   66.30 | X-H torsion
[ 10763 10752 10751 10750 ] final -145.17 input  -60.55 | X-H torsion
[ 11005 11000 10999 10996 ] final -155.91 input  -57.11 | X-H torsion

> <Gold.Protein.ActiveResidues>
 VAL166  LYS551  ARG553  GLY616  TRP617  ASP618  TYR619  PRO620  LYS621  CYS622 
 ASP623  PHE694  ASN695  SER759  ASP760  ASP761  ALA762  ILE779  LEU786  VAL792 
 PHE793  MET794  SER795  GLU796  ALA797  LYS798  CYS799  TRP800  GLU811  SER814 

> <Gold.Protein.RotatedAtoms>
  152.5447  134.1755  159.8614 H   0  0  0  0  0  0  0  0  0  0  0  0  # atno 6907 bound_to 6896
  151.1762  133.4746  159.2601 H   0  0  0  0  0  0  0  0  0  0  0  0  # atno 6908 bound_to 6896
  151.1225  135.0098  159.8600 H   0  0  0  0  0  0  0  0  0  0  0  0  # atno 6909 bound_to 6896
  146.2432  140.0176  142.8401 H   0  0  0  0  0  0  0  0  0  0  0  0  # atno 7974 bound_to 7965
  154.7376  140.2742  155.6401 H   0  0  0  0  0  0  0  0  0  0  0  0  # atno 8008 bound_to 7997
  156.2865  140.2703  156.2019 H   0  0  0  0  0  0  0  0  0  0  0  0  # atno 8009 bound_to 7997
  155.0301  140.0371  157.2460 H   0  0  0  0  0  0  0  0  0  0  0  0  # atno 8010 bound_to 7997
  140.1809  144.4183  150.6616 H   0  0  0  0  0  0  0  0  0  0  0  0  # atno 10167 bound_to 10162
  156.8563  130.5571  149.5666 H   0  0  0  0  0  0  0  0  0  0  0  0  # atno 10718 bound_to 10713
  154.8395  135.3420  154.6463 H   0  0  0  0  0  0  0  0  0  0  0  0  # atno 10763 bound_to 10752
  153.7075  135.6966  153.5051 H   0  0  0  0  0  0  0  0  0  0  0  0  # atno 10764 bound_to 10752
  153.2477  135.4364  155.0718 H   0  0  0  0  0  0  0  0  0  0  0  0  # atno 10765 bound_to 10752
  140.6813  134.4141  157.5226 H   0  0  0  0  0  0  0  0  0  0  0  0  # atno 11005 bound_to 11000
  145.1271  140.9496  143.4566 LP  0  0  0  0  0  0  0  0  0  0  0  0  # atno 17320 bound_to 7965
  145.0424  139.3249  143.5970 LP  0  0  0  0  0  0  0  0  0  0  0  0  # atno 17321 bound_to 7965
  140.6520  143.2227  151.6055 LP  0  0  0  0  0  0  0  0  0  0  0  0  # atno 17342 bound_to 10162
  139.5296  144.2954  152.1117 LP  0  0  0  0  0  0  0  0  0  0  0  0  # atno 17343 bound_to 10162
  156.0801  130.5813  150.9546 LP  0  0  0  0  0  0  0  0  0  0  0  0  # atno 17370 bound_to 10713
  157.6275  131.0924  150.8505 LP  0  0  0  0  0  0  0  0  0  0  0  0  # atno 17371 bound_to 10713
  139.8951  134.8691  156.2147 LP  0  0  0  0  0  0  0  0  0  0  0  0  # atno 17394 bound_to 11000
  141.0315  133.6986  156.1439 LP  0  0  0  0  0  0  0  0  0  0  0  0  # atno 17395 bound_to 11000

$$$$
