AV-unprocessed.smi:3303|AV-procd|sdf|12674|dock6
  -GOLD-   2272019 13D 1   1.00000     0.00000
 Structure written by MMmdl.
 44 45  0  0  0  0  0  0  0  0  2 V2000
  151.6572  138.1274  154.9998 C   0  0  0  0  0  0  0  0  0  0  0  0
  150.8309  139.3957  154.7282 C   0  0  1  0  0  0  0  0  0  0  0  0
  149.3427  139.0756  154.4834 C   0  0  0  0  0  0  0  0  0  0  0  0
  148.6250  140.2916  154.0994 N   0  0  0  0  0  0  0  0  0  0  0  0
  147.2735  139.9721  153.6565 C   0  0  0  0  0  0  0  0  0  0  0  0
  148.6573  141.3420  155.1290 C   0  0  1  0  0  0  0  0  0  0  0  0
  147.8074  141.0329  156.3835 C   0  0  0  0  0  0  0  0  0  0  0  0
  150.1276  141.6979  155.4540 C   0  0  0  0  0  0  0  0  0  0  0  0
  151.0027  140.4765  155.8168 C   0  0  1  0  0  0  0  0  0  0  0  0
  150.7020  139.9401  157.1656 N   0  3  0  0  0  0  0  0  0  0  0  0
  151.5115  140.4976  158.2683 C   0  0  0  0  0  0  0  0  0  0  0  0
  151.7541  141.9988  158.0638 C   0  0  0  0  0  0  0  0  0  0  0  0
  152.0315  142.7157  159.3714 C   0  0  0  0  0  0  0  0  0  0  0  0
  151.9599  144.1227  159.4535 C   0  0  0  0  0  0  0  0  0  0  0  0
  152.2175  144.7354  160.6953 C   0  0  0  0  0  0  0  0  0  0  0  0
  152.5336  143.9219  161.8003 C   0  0  0  0  0  0  0  0  0  0  0  0
  152.5787  142.5259  161.6145 C   0  0  0  0  0  0  0  0  0  0  0  0
  152.3326  141.9283  160.4284 N   0  0  0  0  0  0  0  0  0  0  0  0
  151.3011  137.5924  155.8805 H   0  0  0  0  0  0  0  0  0  0  0  0
  152.7090  138.3687  155.1556 H   0  0  0  0  0  0  0  0  0  0  0  0
  151.6005  137.4396  154.1555 H   0  0  0  0  0  0  0  0  0  0  0  0
  151.2206  139.8175  153.7996 H   0  0  0  0  0  0  0  0  0  0  0  0
  149.2638  138.3490  153.6733 H   0  0  0  0  0  0  0  0  0  0  0  0
  148.8880  138.6151  155.3608 H   0  0  0  0  0  0  0  0  0  0  0  0
  146.7401  140.8772  153.3637 H   0  0  0  0  0  0  0  0  0  0  0  0
  146.7005  139.4686  154.4357 H   0  0  0  0  0  0  0  0  0  0  0  0
  147.3065  139.3130  152.7885 H   0  0  0  0  0  0  0  0  0  0  0  0
  148.2180  142.2314  154.6752 H   0  0  0  0  0  0  0  0  0  0  0  0
  147.9410  141.8086  157.1381 H   0  0  0  0  0  0  0  0  0  0  0  0
  148.0598  140.0806  156.8466 H   0  0  0  0  0  0  0  0  0  0  0  0
  146.7434  141.0085  156.1481 H   0  0  0  0  0  0  0  0  0  0  0  0
  150.5600  142.1667  154.5686 H   0  0  0  0  0  0  0  0  0  0  0  0
  150.1712  142.4658  156.2255 H   0  0  0  0  0  0  0  0  0  0  0  0
  152.0489  140.7861  155.8191 H   0  0  0  0  0  0  0  0  0  0  0  0
  149.7230  140.0921  157.3624 H   0  0  0  0  0  0  0  0  0  0  0  0
  150.9968  140.3317  159.2156 H   0  0  0  0  0  0  0  0  0  0  0  0
  152.4676  139.9780  158.3236 H   0  0  0  0  0  0  0  0  0  0  0  0
  152.5994  142.1532  157.3912 H   0  0  0  0  0  0  0  0  0  0  0  0
  150.8895  142.4555  157.5802 H   0  0  0  0  0  0  0  0  0  0  0  0
  151.7122  144.7206  158.5886 H   0  0  0  0  0  0  0  0  0  0  0  0
  152.1722  145.8094  160.7988 H   0  0  0  0  0  0  0  0  0  0  0  0
  152.7366  144.3573  162.7677 H   0  0  0  0  0  0  0  0  0  0  0  0
  152.8171  141.8720  162.4405 H   0  0  0  0  0  0  0  0  0  0  0  0
  150.8722  138.9448  157.1405 H   0  0  0  0  0  0  0  0  0  0  0  0
  1  2  1  0  0  0  0
  1 19  1  0  0  0  0
  1 20  1  0  0  0  0
  1 21  1  0  0  0  0
  2  9  1  0  0  0  0
  2  3  1  0  0  0  0
  2 22  1  0  0  0  0
  3  4  1  0  0  0  0
  3 23  1  0  0  0  0
  3 24  1  0  0  0  0
  4  5  1  0  0  0  0
  4  6  1  0  0  0  0
  5 25  1  0  0  0  0
  5 26  1  0  0  0  0
  5 27  1  0  0  0  0
  6  7  1  0  0  0  0
  6  8  1  0  0  0  0
  6 28  1  0  0  0  0
  7 29  1  0  0  0  0
  7 30  1  0  0  0  0
  7 31  1  0  0  0  0
  8  9  1  0  0  0  0
  8 32  1  0  0  0  0
  8 33  1  0  0  0  0
  9 10  1  0  0  0  0
  9 34  1  0  0  0  0
 10 11  1  0  0  0  0
 10 35  1  0  0  0  0
 10 44  1  0  0  0  0
 11 12  1  0  0  0  0
 11 36  1  0  0  0  0
 11 37  1  0  0  0  0
 12 13  1  0  0  0  0
 12 38  1  0  0  0  0
 12 39  1  0  0  0  0
 13 18  1  0  0  0  0
 13 14  2  0  0  0  0
 14 15  1  0  0  0  0
 14 40  1  0  0  0  0
 15 16  2  0  0  0  0
 15 41  1  0  0  0  0
 16 17  1  0  0  0  0
 16 42  1  0  0  0  0
 17 18  2  0  0  0  0
 17 43  1  0  0  0  0
M  CHG  1  10   1
M  END
> <s_m_source_file>
AV-unprocessed.smi

> <i_m_source_file_index>
3303

> <i_lp_mmshare_version>
43012

> <i_f3d_flags>
0

> <s_epik_input>
W0NIM11bQ0BASF0xW0NIMl1OKFtDSDNdKVtDQEBIXShbQ0gzXSlbQ0gyXVtDQEhdMVtOSF1bQ0gyXVtDSDJdYzJbY0hdW2NIXVtjSF1bY0hdbjI=

> <s_epik_cmdline>
J2VwaWtfcHl0aG9uJywgJy1waCcsICc3LjAnLCAnLXRuJywgJzgnLCAnLW1hJywgJzIwMCcsICctbWV0YWxfYmluZGluZycsICctaW1hZScsICc8aW5maWxlLm1hZT4nLCAnLW9tYWUnLCAnPG91dGZpbGUubWFlPic=

> <r_epik_Ionization_Penalty>
1.37325

> <r_epik_Ionization_Penalty_Charging>
0.000251572

> <r_epik_Ionization_Penalty_Neutral>
1.373

> <r_epik_State_Penalty>
1.46343

> <r_epik_Charging_Adjusted_Penalty>
1.46368

> <i_epik_Tot_Q>
1

> <i_epik_Tot_abs_Q>
1

> <r_epik_Metal_State_Penalty>
1.46331

> <b_epik_Metal_Only>
0

> <s_lp_Force_Field>
OPLS_2005

> <r_lp_Energy>
24.8067

> <b_lp_Chiralities_Consistent>
1

> <s_lp_Variant>
AV-unprocessed.smi:3303-18

> <Gold.Version>
5.8.1

> <Gold.Id.Protein>
6NUR|6NUR_protein|mol2

> <Gold.PLP.Fitness>
38.9754

> <Gold.PLP.PLP>
-40.6933

> <Gold.PLP.part.hbond>
0.0000

> <Gold.PLP.part.metal>
0.0000

> <Gold.PLP.part.buried>
-5.1733

> <Gold.PLP.part.nonpolar>
-34.3728

> <Gold.PLP.part.repulsive>
0.3097

> <Gold.PLP.ligand.clash>
0.0000

> <Gold.PLP.ligand.torsion>
0.8648

> <Gold.PLP.Chemscore.Hbond>
0.0000

> <Gold.PLP.Chemscore.CHOScore>
0.0000

> <Gold.PLP.Chemscore.Metal>
0.0000

> <Gold.PLP.Chemscore.Internal.Correction>
0.0117

> <Gold.Rescore>
     Score         DG    S(hbond)    S(metal)    S(lipo)     H(rot)  DE(clash)    DE(int)     intcor
     15.39     -16.42       0.00        0.00     122.62       1.33       0.10       0.94       ----

> <Gold.Chemscore.Fitness>
15.3897

> <Gold.Chemscore.DG>
-16.4220

> <Gold.Chemscore.ZeroCoef>
-5.4800

> <Gold.Chemscore.Hbond>
0.0000

> <Gold.Chemscore.Metal>
0.0000

> <Gold.Chemscore.Lipo>
122.6184

> <Gold.Chemscore.Internal_Hbond>
0.0000

> <Gold.Chemscore.DEClash>
0.0962

> <Gold.Chemscore.DEInternal>
0.9361

> <Gold.Chemscore.Rot>
1.3298

> <Gold.Chemscore.Internal.Correction>
   9.000000E+99

> <Gold.Chemscore.Hbond.Weighted>
-0.0000

> <Gold.Chemscore.Metal.Weighted>
-0.0000

> <Gold.Chemscore.Lipo.Weighted>
-14.3463

> <Gold.Chemscore.Internal_Hbond.Weighted>
0.0000

> <Gold.Chemscore.DEClash.Weighted>
0.0962

> <Gold.Chemscore.DEInternal.Weighted>
0.9361

> <Gold.Chemscore.Rot.Weighted>
3.4043

> <Gold.Chemscore.Internal.Correction.Weighted>
   9.000000E+99

> <Gold.Protein.RotatedTorsions>
[ 6907 6896 6895 6894 ] final   37.25 input  -60.11 | X-H torsion
[ 7974 7965 7964 7962 ] final   90.76 input  175.53 | X-H torsion
[ 8008 7997 7996 7995 ] final  163.03 input   59.86 | X-H torsion
[ 10167 10162 10161 10158 ] final  -74.87 input  -65.29 | X-H torsion
[ 10718 10713 10712 10709 ] final   10.94 input   66.30 | X-H torsion
[ 10763 10752 10751 10750 ] final -174.38 input  -60.55 | X-H torsion
[ 11005 11000 10999 10996 ] final  157.32 input  -57.11 | X-H torsion

> <Gold.Protein.ActiveResidues>
 VAL166  LYS551  ARG553  GLY616  TRP617  ASP618  TYR619  PRO620  LYS621  CYS622 
 ASP623  PHE694  ASN695  SER759  ASP760  ASP761  ALA762  ILE779  LEU786  VAL792 
 PHE793  MET794  SER795  GLU796  ALA797  LYS798  CYS799  TRP800  GLU811  SER814 

> <Gold.Protein.RotatedAtoms>
  152.1407  134.9065  160.0553 H   0  0  0  0  0  0  0  0  0  0  0  0  # atno 6907 bound_to 6896
  152.0134  133.3865  159.4237 H   0  0  0  0  0  0  0  0  0  0  0  0  # atno 6908 bound_to 6896
  150.6865  134.3627  159.5001 H   0  0  0  0  0  0  0  0  0  0  0  0  # atno 6909 bound_to 6896
  145.5148  139.2277  143.2704 H   0  0  0  0  0  0  0  0  0  0  0  0  # atno 7974 bound_to 7965
  156.1987  140.1734  156.7944 H   0  0  0  0  0  0  0  0  0  0  0  0  # atno 8008 bound_to 7997
  154.5563  140.0708  156.8780 H   0  0  0  0  0  0  0  0  0  0  0  0  # atno 8009 bound_to 7997
  155.2932  140.3356  155.4254 H   0  0  0  0  0  0  0  0  0  0  0  0  # atno 8010 bound_to 7997
  140.4990  143.2365  151.7783 H   0  0  0  0  0  0  0  0  0  0  0  0  # atno 10167 bound_to 10162
  156.9883  130.6032  149.5683 H   0  0  0  0  0  0  0  0  0  0  0  0  # atno 10718 bound_to 10713
  154.5969  135.2850  155.0577 H   0  0  0  0  0  0  0  0  0  0  0  0  # atno 10763 bound_to 10752
  154.1857  135.6449  153.5050 H   0  0  0  0  0  0  0  0  0  0  0  0  # atno 10764 bound_to 10752
  153.0142  135.5434  154.6674 H   0  0  0  0  0  0  0  0  0  0  0  0  # atno 10765 bound_to 10752
  140.1759  134.8510  157.2745 H   0  0  0  0  0  0  0  0  0  0  0  0  # atno 11005 bound_to 11000
  146.2144  140.5956  142.9045 LP  0  0  0  0  0  0  0  0  0  0  0  0  # atno 17320 bound_to 7965
  144.7708  140.5633  143.6671 LP  0  0  0  0  0  0  0  0  0  0  0  0  # atno 17321 bound_to 7965
  139.4868  144.4547  151.9612 LP  0  0  0  0  0  0  0  0  0  0  0  0  # atno 17342 bound_to 10162
  140.3636  144.2943  150.5930 LP  0  0  0  0  0  0  0  0  0  0  0  0  # atno 17343 bound_to 10162
  156.0217  130.5312  150.8294 LP  0  0  0  0  0  0  0  0  0  0  0  0  # atno 17370 bound_to 10713
  157.5477  131.0943  150.9739 LP  0  0  0  0  0  0  0  0  0  0  0  0  # atno 17371 bound_to 10713
  140.2324  134.3894  155.7516 LP  0  0  0  0  0  0  0  0  0  0  0  0  # atno 17394 bound_to 11000
  141.2220  133.7222  156.8661 LP  0  0  0  0  0  0  0  0  0  0  0  0  # atno 17395 bound_to 11000

$$$$
