AV-unprocessed.smi:1570|AV-procd|sdf|6323|dock3
  -GOLD-   22720 6533D 1   1.00000     0.00000
 Structure written by MMmdl.
 52 54  0  0  0  0  0  0  0  0  2 V2000
  153.7063  141.8444  162.1479 C   0  0  0  0  0  0  0  0  0  0  0  0
  154.2841  141.2377  160.8631 C   0  0  0  0  0  0  0  0  0  0  0  0
  153.2960  141.2403  159.7873 N   0  0  0  0  0  0  0  0  0  0  0  0
  152.7480  140.1555  159.1922 C   0  0  0  0  0  0  0  0  0  0  0  0
  153.0037  138.9794  159.4514 O   0  0  0  0  0  0  0  0  0  0  0  0
  151.8535  140.5866  158.2711 N   0  0  0  0  0  0  0  0  0  0  0  0
  151.0341  139.7457  157.3990 C   0  0  0  0  0  0  0  0  0  0  0  0
  151.5105  139.8033  155.9331 C   0  0  1  0  0  0  0  0  0  0  0  0
  152.8421  139.3292  155.8828 O   0  0  0  0  0  0  0  0  0  0  0  0
  150.6577  138.9004  155.0185 C   0  0  0  0  0  0  0  0  0  0  0  0
  149.3743  139.5405  154.6325 N   0  3  1  0  0  0  0  0  0  0  0  0
  148.6218  138.7546  153.6280 C   0  0  0  0  0  0  0  0  0  0  0  0
  147.3622  139.5192  153.1812 C   0  0  1  0  0  0  0  0  0  0  0  0
  146.5063  138.6997  152.2092 C   0  0  0  0  0  0  0  0  0  0  0  0
  146.5612  139.8233  154.3203 O   0  0  0  0  0  0  0  0  0  0  0  0
  147.2199  140.5848  155.3324 C   0  0  2  0  0  0  0  0  0  0  0  0
  147.4533  142.0454  154.9066 C   0  0  0  0  0  0  0  0  0  0  0  0
  148.5029  139.8639  155.7892 C   0  0  0  0  0  0  0  0  0  0  0  0
  151.8170  141.9887  158.2886 C   0  0  0  0  0  0  0  0  0  0  0  0
  151.0516  142.9066  157.5477 C   0  0  0  0  0  0  0  0  0  0  0  0
  151.2513  144.2811  157.8161 C   0  0  0  0  0  0  0  0  0  0  0  0
  152.1871  144.7026  158.7958 C   0  0  0  0  0  0  0  0  0  0  0  0
  152.9422  143.7581  159.5295 C   0  0  0  0  0  0  0  0  0  0  0  0
  152.7253  142.3992  159.2424 C   0  0  0  0  0  0  0  0  0  0  0  0
  154.4495  141.8429  162.9452 H   0  0  0  0  0  0  0  0  0  0  0  0
  152.8417  141.2792  162.4976 H   0  0  0  0  0  0  0  0  0  0  0  0
  153.3912  142.8765  161.9904 H   0  0  0  0  0  0  0  0  0  0  0  0
  155.1671  141.7953  160.5497 H   0  0  0  0  0  0  0  0  0  0  0  0
  154.6235  140.2187  161.0548 H   0  0  0  0  0  0  0  0  0  0  0  0
  150.9922  138.7187  157.7628 H   0  0  0  0  0  0  0  0  0  0  0  0
  150.0105  140.1178  157.4653 H   0  0  0  0  0  0  0  0  0  0  0  0
  151.4853  140.8315  155.5742 H   0  0  0  0  0  0  0  0  0  0  0  0
  152.8454  138.4111  156.1076 H   0  0  0  0  0  0  0  0  0  0  0  0
  151.2379  138.6559  154.1270 H   0  0  0  0  0  0  0  0  0  0  0  0
  150.4431  137.9490  155.5081 H   0  0  0  0  0  0  0  0  0  0  0  0
  149.2554  138.5605  152.7616 H   0  0  0  0  0  0  0  0  0  0  0  0
  148.3509  137.7858  154.0512 H   0  0  0  0  0  0  0  0  0  0  0  0
  147.6529  140.4418  152.6783 H   0  0  0  0  0  0  0  0  0  0  0  0
  147.0659  138.4497  151.3074 H   0  0  0  0  0  0  0  0  0  0  0  0
  145.6198  139.2570  151.9054 H   0  0  0  0  0  0  0  0  0  0  0  0
  146.1723  137.7675  152.6656 H   0  0  0  0  0  0  0  0  0  0  0  0
  146.5360  140.6117  156.1813 H   0  0  0  0  0  0  0  0  0  0  0  0
  147.8364  142.6340  155.7406 H   0  0  0  0  0  0  0  0  0  0  0  0
  146.5218  142.5079  154.5794 H   0  0  0  0  0  0  0  0  0  0  0  0
  148.1743  142.1312  154.0941 H   0  0  0  0  0  0  0  0  0  0  0  0
  148.2362  138.9383  156.3024 H   0  0  0  0  0  0  0  0  0  0  0  0
  149.0298  140.4812  156.5160 H   0  0  0  0  0  0  0  0  0  0  0  0
  150.3368  142.5836  156.8058 H   0  0  0  0  0  0  0  0  0  0  0  0
  150.6828  145.0194  157.2699 H   0  0  0  0  0  0  0  0  0  0  0  0
  152.3235  145.7572  158.9853 H   0  0  0  0  0  0  0  0  0  0  0  0
  153.6525  144.0727  160.2798 H   0  0  0  0  0  0  0  0  0  0  0  0
  149.6158  140.4144  154.1864 H   0  0  0  0  0  0  0  0  0  0  0  0
  1  2  1  0  0  0  0
  1 25  1  0  0  0  0
  1 26  1  0  0  0  0
  1 27  1  0  0  0  0
  2  3  1  0  0  0  0
  2 28  1  0  0  0  0
  2 29  1  0  0  0  0
  3 24  1  0  0  0  0
  3  4  1  0  0  0  0
  4  5  2  0  0  0  0
  4  6  1  0  0  0  0
  6  7  1  0  0  0  0
  6 19  1  0  0  0  0
  7  8  1  0  0  0  0
  7 30  1  0  0  0  0
  7 31  1  0  0  0  0
  8  9  1  0  0  0  0
  8 10  1  0  0  0  0
  8 32  1  0  0  0  0
  9 33  1  0  0  0  0
 10 11  1  0  0  0  0
 10 34  1  0  0  0  0
 10 35  1  0  0  0  0
 11 18  1  0  0  0  0
 11 12  1  0  0  0  0
 11 52  1  0  0  0  0
 12 13  1  0  0  0  0
 12 36  1  0  0  0  0
 12 37  1  0  0  0  0
 13 14  1  0  0  0  0
 13 15  1  0  0  0  0
 13 38  1  0  0  0  0
 14 39  1  0  0  0  0
 14 40  1  0  0  0  0
 14 41  1  0  0  0  0
 15 16  1  0  0  0  0
 16 17  1  0  0  0  0
 16 18  1  0  0  0  0
 16 42  1  0  0  0  0
 17 43  1  0  0  0  0
 17 44  1  0  0  0  0
 17 45  1  0  0  0  0
 18 46  1  0  0  0  0
 18 47  1  0  0  0  0
 19 24  2  0  0  0  0
 19 20  1  0  0  0  0
 20 21  2  0  0  0  0
 20 48  1  0  0  0  0
 21 22  1  0  0  0  0
 21 49  1  0  0  0  0
 22 23  2  0  0  0  0
 22 50  1  0  0  0  0
 23 24  1  0  0  0  0
 23 51  1  0  0  0  0
M  CHG  1  11   1
M  END
> <s_m_source_file>
AV-unprocessed.smi

> <i_m_source_file_index>
1570

> <i_lp_mmshare_version>
43012

> <i_f3d_flags>
0

> <s_epik_input>
W2NIXTFbY0hdW2NIXVtjSF1jKGMxMiluKFtDSDJdW0NIM10pYyg9TyluMltDSDJdW0NASF0oW09IXSlbQ0gyXU4zW0NIMl1bQ0BASF0oW0NIM10pT1tDQEBIXShbQ0gzXSlbQ0gyXTM=

> <s_epik_cmdline>
J2VwaWtfcHl0aG9uJywgJy1waCcsICc3LjAnLCAnLXRuJywgJzgnLCAnLW1hJywgJzIwMCcsICctbWV0YWxfYmluZGluZycsICctaW1hZScsICc8aW5maWxlLm1hZT4nLCAnLW9tYWUnLCAnPG91dGZpbGUubWFlPic=

> <r_epik_Ionization_Penalty>
0.706332

> <r_epik_Ionization_Penalty_Charging>
0.706318

> <r_epik_Ionization_Penalty_Neutral>
1.42224e-05

> <r_epik_State_Penalty>
0.729493

> <r_epik_Charging_Adjusted_Penalty>
1.43581

> <i_epik_Tot_Q>
1

> <i_epik_Tot_abs_Q>
1

> <r_epik_Metal_State_Penalty>
0.729493

> <b_epik_Metal_Only>
0

> <s_lp_Force_Field>
OPLS_2005

> <r_lp_Energy>
55.371

> <b_lp_Chiralities_Consistent>
1

> <s_lp_Variant>
AV-unprocessed.smi:1570-12

> <Gold.Version>
5.8.1

> <Gold.Id.Protein>
6NUR|6NUR_protein|mol2

> <Gold.PLP.Fitness>
52.3084

> <Gold.PLP.PLP>
-49.7539

> <Gold.PLP.part.hbond>
-1.0000

> <Gold.PLP.part.metal>
0.0000

> <Gold.PLP.part.buried>
-0.3885

> <Gold.PLP.part.nonpolar>
-48.3886

> <Gold.PLP.part.repulsive>
0.1865

> <Gold.PLP.ligand.clash>
0.0000

> <Gold.PLP.ligand.torsion>
0.3419

> <Gold.PLP.Chemscore.Hbond>
1.0000

> <Gold.PLP.Chemscore.CHOScore>
0.0000

> <Gold.PLP.Chemscore.Metal>
0.0000

> <Gold.Chemscore.Hbonds>
donor molecule, donor type, donor heavy atom, donor atom, acceptor molecule, acceptor atom, score
      P1  H  7997  8008       L1     9  1.00

> <Gold.PLP.Chemscore.Internal.Correction>
0.2384

> <Gold.Rescore>
     Score         DG    S(hbond)    S(metal)    S(lipo)     H(rot)  DE(clash)    DE(int)     intcor
     18.32     -20.34       0.99        0.00     145.42       2.13       0.73       1.30       ----

> <Gold.Chemscore.Fitness>
18.3204

> <Gold.Chemscore.DG>
-20.3418

> <Gold.Chemscore.ZeroCoef>
-5.4800

> <Gold.Chemscore.Hbond>
0.9882

> <Gold.Chemscore.Metal>
0.0000

> <Gold.Chemscore.Lipo>
145.4246

> <Gold.Chemscore.Internal_Hbond>
0.0000

> <Gold.Chemscore.DEClash>
0.7252

> <Gold.Chemscore.DEInternal>
1.2961

> <Gold.Chemscore.Rot>
2.1303

> <Gold.Chemscore.Internal.Correction>
   9.000000E+99

> <Gold.Chemscore.Hbonds>
donor molecule, donor type, donor heavy atom, donor atom, acceptor molecule, acceptor atom, score
      P1  H  7997  8008       L1     9  0.88

> <Gold.Chemscore.Hbond.Weighted>
-3.3006

> <Gold.Chemscore.Metal.Weighted>
-0.0000

> <Gold.Chemscore.Lipo.Weighted>
-17.0147

> <Gold.Chemscore.Internal_Hbond.Weighted>
0.0000

> <Gold.Chemscore.DEClash.Weighted>
0.7252

> <Gold.Chemscore.DEInternal.Weighted>
1.2961

> <Gold.Chemscore.Rot.Weighted>
5.4535

> <Gold.Chemscore.Internal.Correction.Weighted>
   9.000000E+99

> <Gold.Protein.RotatedTorsions>
[ 6907 6896 6895 6894 ] final  152.02 input  -60.11 | X-H torsion
[ 7974 7965 7964 7962 ] final  -27.88 input  175.53 | X-H torsion
[ 8008 7997 7996 7995 ] final  -35.67 input   59.86 | X-H torsion
[ 10167 10162 10161 10158 ] final -179.54 input  -65.29 | X-H torsion
[ 10718 10713 10712 10709 ] final  -47.46 input   66.30 | X-H torsion
[ 10763 10752 10751 10750 ] final  -34.52 input  -60.55 | X-H torsion
[ 11005 11000 10999 10996 ] final  166.17 input  -57.11 | X-H torsion

> <Gold.Protein.ActiveResidues>
 VAL166  LYS551  ARG553  GLY616  TRP617  ASP618  TYR619  PRO620  LYS621  CYS622 
 ASP623  PHE694  ASN695  SER759  ASP760  ASP761  ALA762  ILE779  LEU786  VAL792 
 PHE793  MET794  SER795  GLU796  ALA797  LYS798  CYS799  TRP800  GLU811  SER814 

> <Gold.Protein.RotatedAtoms>
  152.0925  133.4208  159.4549 H   0  0  0  0  0  0  0  0  0  0  0  0  # atno 6907 bound_to 6896
  150.6862  134.2855  159.4654 H   0  0  0  0  0  0  0  0  0  0  0  0  # atno 6908 bound_to 6896
  152.0708  134.9534  160.0625 H   0  0  0  0  0  0  0  0  0  0  0  0  # atno 6909 bound_to 6896
  146.1327  140.5209  142.8686 H   0  0  0  0  0  0  0  0  0  0  0  0  # atno 7974 bound_to 7965
  154.4090  140.1651  156.2249 H   0  0  0  0  0  0  0  0  0  0  0  0  # atno 8008 bound_to 7997
  155.9332  140.3413  155.6243 H   0  0  0  0  0  0  0  0  0  0  0  0  # atno 8009 bound_to 7997
  155.7080  140.0753  157.2373 H   0  0  0  0  0  0  0  0  0  0  0  0  # atno 8010 bound_to 7997
  139.5382  144.2438  152.0839 H   0  0  0  0  0  0  0  0  0  0  0  0  # atno 10167 bound_to 10162
  156.2082  130.4159  149.9150 H   0  0  0  0  0  0  0  0  0  0  0  0  # atno 10718 bound_to 10713
  153.8480  135.6851  153.4795 H   0  0  0  0  0  0  0  0  0  0  0  0  # atno 10763 bound_to 10752
  153.1414  135.4656  154.9499 H   0  0  0  0  0  0  0  0  0  0  0  0  # atno 10764 bound_to 10752
  154.7815  135.3270  154.7927 H   0  0  0  0  0  0  0  0  0  0  0  0  # atno 10765 bound_to 10752
  140.2637  134.7882  157.3613 H   0  0  0  0  0  0  0  0  0  0  0  0  # atno 11005 bound_to 11000
  144.7707  140.5632  143.6672 LP  0  0  0  0  0  0  0  0  0  0  0  0  # atno 17320 bound_to 7965
  145.5224  139.1476  143.3545 LP  0  0  0  0  0  0  0  0  0  0  0  0  # atno 17321 bound_to 7965
  140.1912  144.4750  150.6478 LP  0  0  0  0  0  0  0  0  0  0  0  0  # atno 17342 bound_to 10162
  140.6599  143.2249  151.5881 LP  0  0  0  0  0  0  0  0  0  0  0  0  # atno 17343 bound_to 10162
  156.6837  130.8868  151.3579 LP  0  0  0  0  0  0  0  0  0  0  0  0  # atno 17370 bound_to 10713
  157.7024  130.9347  150.0825 LP  0  0  0  0  0  0  0  0  0  0  0  0  # atno 17371 bound_to 10713
  140.1440  134.4935  155.8010 LP  0  0  0  0  0  0  0  0  0  0  0  0  # atno 17394 bound_to 11000
  141.2187  133.6836  156.7261 LP  0  0  0  0  0  0  0  0  0  0  0  0  # atno 17395 bound_to 11000

$$$$
