AV-unprocessed.smi:35|AV-procd|sdf|273|dock3
  -GOLD-   2262016 43D 1   1.00000     0.00000
 Structure written by MMmdl.
 28 29  0  0  0  0  0  0  0  0  2 V2000
  152.5925  136.7189  159.2321 O   0  0  0  0  0  0  0  0  0  0  0  0
  152.1435  137.4076  158.3175 C   0  0  0  0  0  0  0  0  0  0  0  0
  152.9157  137.8737  157.2933 N   0  5  0  0  0  0  0  0  0  0  0  0
  152.4135  138.6416  156.2817 C   0  0  0  0  0  0  0  0  0  0  0  0
  153.0948  139.0414  155.3375 O   0  0  0  0  0  0  0  0  0  0  0  0
  151.0354  138.9888  156.3034 N   0  0  0  0  0  0  0  0  0  0  0  0
  150.4613  139.8394  155.1913 C   0  0  2  0  0  0  0  0  0  0  0  0
  149.5835  140.7674  155.7453 O   0  0  0  0  0  0  0  0  0  0  0  0
  148.6007  141.0888  154.7744 C   0  0  2  0  0  0  0  0  0  0  0  0
  147.3723  141.7107  155.4565 C   0  0  0  0  0  0  0  0  0  0  0  0
  147.7768  142.5450  156.5213 O   0  0  0  0  0  0  0  0  0  0  0  0
  148.3157  139.7304  154.1238 C   0  0  1  0  0  0  0  0  0  0  0  0
  147.8587  139.9125  152.7979 O   0  0  0  0  0  0  0  0  0  0  0  0
  149.6724  139.0294  154.1376 C   0  0  2  0  0  0  0  0  0  0  0  0
  149.5177  137.6564  154.4498 O   0  0  0  0  0  0  0  0  0  0  0  0
  150.2219  138.5140  157.3178 C   0  0  0  0  0  0  0  0  0  0  0  0
  150.7230  137.7485  158.3082 C   0  0  0  0  0  0  0  0  0  0  0  0
  149.4451  137.1344  159.6926 Br  0  0  0  0  0  0  0  0  0  0  0  0
  151.2947  140.3961  154.7592 H   0  0  0  0  0  0  0  0  0  0  0  0
  149.0358  141.7707  154.0402 H   0  0  0  0  0  0  0  0  0  0  0  0
  146.8240  142.3311  154.7470 H   0  0  0  0  0  0  0  0  0  0  0  0
  146.6853  140.9423  155.8129 H   0  0  0  0  0  0  0  0  0  0  0  0
  147.8900  143.4224  156.1890 H   0  0  0  0  0  0  0  0  0  0  0  0
  147.5819  139.1761  154.7122 H   0  0  0  0  0  0  0  0  0  0  0  0
  148.5774  140.2355  152.2762 H   0  0  0  0  0  0  0  0  0  0  0  0
  150.1950  139.1281  153.1847 H   0  0  0  0  0  0  0  0  0  0  0  0
  149.2311  137.2055  153.6697 H   0  0  0  0  0  0  0  0  0  0  0  0
  149.1678  138.7488  157.3177 H   0  0  0  0  0  0  0  0  0  0  0  0
  1  2  2  0  0  0  0
  2 17  1  0  0  0  0
  2  3  1  0  0  0  0
  3  4  1  0  0  0  0
  4  5  2  0  0  0  0
  4  6  1  0  0  0  0
  6  7  1  0  0  0  0
  6 16  1  0  0  0  0
  7 14  1  0  0  0  0
  7  8  1  0  0  0  0
  7 19  1  0  0  0  0
  8  9  1  0  0  0  0
  9 10  1  0  0  0  0
  9 12  1  0  0  0  0
  9 20  1  0  0  0  0
 10 11  1  0  0  0  0
 10 21  1  0  0  0  0
 10 22  1  0  0  0  0
 11 23  1  0  0  0  0
 12 13  1  0  0  0  0
 12 14  1  0  0  0  0
 12 24  1  0  0  0  0
 13 25  1  0  0  0  0
 14 15  1  0  0  0  0
 14 26  1  0  0  0  0
 15 27  1  0  0  0  0
 16 17  2  0  0  0  0
 16 28  1  0  0  0  0
 17 18  1  0  0  0  0
M  CHG  1   3  -1
M  END
> <s_m_source_file>
AV-unprocessed.smi

> <i_m_source_file_index>
35

> <i_lp_mmshare_version>
43012

> <i_f3d_flags>
0

> <s_epik_input>
Tz1jMVtuSF1jKD1PKW4oW2NIXWMxQnIpW0NAQEhdMk9bQ0BASF0oW0NIMl1bT0hdKVtDQEBIXShbT0hdKVtDQEhdMltPSF0=

> <s_epik_cmdline>
J2VwaWtfcHl0aG9uJywgJy1waCcsICc3LjAnLCAnLXRuJywgJzgnLCAnLW1hJywgJzIwMCcsICctbWV0YWxfYmluZGluZycsICctaW1hZScsICc8aW5maWxlLm1hZT4nLCAnLW9tYWUnLCAnPG91dGZpbGUubWFlPic=

> <r_epik_Ionization_Penalty>
1.06112

> <r_epik_Ionization_Penalty_Charging>
2.1796e-09

> <r_epik_Ionization_Penalty_Neutral>
1.06112

> <r_epik_State_Penalty>
1.11484

> <r_epik_Charging_Adjusted_Penalty>
1.11484

> <i_epik_Tot_Q>
-1

> <i_epik_Tot_abs_Q>
1

> <r_epik_Metal_State_Penalty>
0.0032876

> <b_epik_Metal_Only>
0

> <s_epik_Chemistry_Notes>
This compound contains an acetal/aminal-like group ( X-CH(R)-Y where X, Y are N, S, or O) that may be acid/base labile, releasing an aldehyde.

> <s_lp_Force_Field>
OPLS_2005

> <r_lp_Energy>
42.5644

> <b_lp_Chiralities_Consistent>
1

> <s_lp_Variant>
AV-unprocessed.smi:35-27

> <Gold.Version>
5.8.1

> <Gold.Id.Protein>
6NUR|6NUR_protein|mol2

> <Gold.PLP.Fitness>
36.5151

> <Gold.PLP.PLP>
-23.1751

> <Gold.PLP.part.hbond>
-4.5270

> <Gold.PLP.part.metal>
0.0000

> <Gold.PLP.part.buried>
-2.9109

> <Gold.PLP.part.nonpolar>
-16.4956

> <Gold.PLP.part.repulsive>
0.0589

> <Gold.PLP.ligand.clash>
0.0000

> <Gold.PLP.ligand.torsion>
0.7649

> <Gold.PLP.Chemscore.Hbond>
4.8873

> <Gold.PLP.Chemscore.CHOScore>
0.0000

> <Gold.PLP.Chemscore.Metal>
0.0000

> <Gold.Chemscore.Hbonds>
donor molecule, donor type, donor heavy atom, donor atom, acceptor molecule, acceptor atom, score
      L1  H    11    23       P1  8028  0.75
      L1  H    13    25       P1  7957  0.98
      L1  H    15    27       P1  7948  0.94
      P1  H  6896  6909       L1     1  0.96
      P1  H  7997  8010       L1     5  1.00

> <Gold.PLP.Chemscore.Internal.Correction>
0.2081

> <Gold.Rescore>
     Score         DG    S(hbond)    S(metal)    S(lipo)     H(rot)  DE(clash)    DE(int)     intcor
     12.15     -12.99       3.74        0.00      36.66       3.63       0.04       0.80       ----

> <Gold.Chemscore.Fitness>
12.1517

> <Gold.Chemscore.DG>
-12.9945

> <Gold.Chemscore.ZeroCoef>
-5.4800

> <Gold.Chemscore.Hbond>
3.7450

> <Gold.Chemscore.Metal>
0.0000

> <Gold.Chemscore.Lipo>
36.6582

> <Gold.Chemscore.Internal_Hbond>
0.0000

> <Gold.Chemscore.DEClash>
0.0402

> <Gold.Chemscore.DEInternal>
0.8026

> <Gold.Chemscore.Rot>
3.6261

> <Gold.Chemscore.Internal.Correction>
   9.000000E+99

> <Gold.Chemscore.Hbonds>
donor molecule, donor type, donor heavy atom, donor atom, acceptor molecule, acceptor atom, score
      L1  H    11    23       P1  8028  0.09
      L1  H    13    25       P1  7957  0.87
      L1  H    15    27       P1  7948  0.89
      P1  H  6896  6909       L1     1  0.91
      P1  H  7997  8010       L1     5  0.81

> <Gold.Chemscore.Hbond.Weighted>
-12.5083

> <Gold.Chemscore.Metal.Weighted>
-0.0000

> <Gold.Chemscore.Lipo.Weighted>
-4.2890

> <Gold.Chemscore.Internal_Hbond.Weighted>
0.0000

> <Gold.Chemscore.DEClash.Weighted>
0.0402

> <Gold.Chemscore.DEInternal.Weighted>
0.8026

> <Gold.Chemscore.Rot.Weighted>
9.2828

> <Gold.Chemscore.Internal.Correction.Weighted>
   9.000000E+99

> <Gold.Protein.RotatedTorsions>
[ 6907 6896 6895 6894 ] final  149.61 input  -60.11 | X-H torsion
[ 7974 7965 7964 7962 ] final  153.81 input  175.53 | X-H torsion
[ 8008 7997 7996 7995 ] final  105.29 input   59.86 | X-H torsion
[ 10167 10162 10161 10158 ] final  133.39 input  -65.29 | X-H torsion
[ 10718 10713 10712 10709 ] final -168.71 input   66.30 | X-H torsion
[ 10763 10752 10751 10750 ] final  119.27 input  -60.55 | X-H torsion
[ 11005 11000 10999 10996 ] final   -9.92 input  -57.11 | X-H torsion

> <Gold.Protein.ActiveResidues>
 VAL166  LYS551  ARG553  GLY616  TRP617  ASP618  TYR619  PRO620  LYS621  CYS622 
 ASP623  PHE694  ASN695  SER759  ASP760  ASP761  ALA762  ILE779  LEU786  VAL792 
 PHE793  MET794  SER795  GLU796  ALA797  LYS798  CYS799  TRP800  GLU811  SER814 

> <Gold.Protein.RotatedAtoms>
  152.1257  133.4379  159.4696 H   0  0  0  0  0  0  0  0  0  0  0  0  # atno 6907 bound_to 6896
  150.6875  134.2481  159.4509 H   0  0  0  0  0  0  0  0  0  0  0  0  # atno 6908 bound_to 6896
  152.0361  134.9738  160.0624 H   0  0  0  0  0  0  0  0  0  0  0  0  # atno 6909 bound_to 6896
  144.8130  139.6850  143.6133 H   0  0  0  0  0  0  0  0  0  0  0  0  # atno 7974 bound_to 7965
  156.1647  140.3133  155.8867 H   0  0  0  0  0  0  0  0  0  0  0  0  # atno 8008 bound_to 7997
  155.3711  140.0482  157.3062 H   0  0  0  0  0  0  0  0  0  0  0  0  # atno 8009 bound_to 7997
  154.5180  140.2188  155.9039 H   0  0  0  0  0  0  0  0  0  0  0  0  # atno 8010 bound_to 7997
  139.5299  144.6618  151.4988 H   0  0  0  0  0  0  0  0  0  0  0  0  # atno 10167 bound_to 10162
  156.7009  130.9196  151.3079 H   0  0  0  0  0  0  0  0  0  0  0  0  # atno 10718 bound_to 10713
  153.5804  135.3485  155.2873 H   0  0  0  0  0  0  0  0  0  0  0  0  # atno 10763 bound_to 10752
  154.8668  135.4181  154.2626 H   0  0  0  0  0  0  0  0  0  0  0  0  # atno 10764 bound_to 10752
  153.3411  135.7050  153.6936 H   0  0  0  0  0  0  0  0  0  0  0  0  # atno 10765 bound_to 10752
  140.7392  133.8684  155.8954 H   0  0  0  0  0  0  0  0  0  0  0  0  # atno 11005 bound_to 11000
  146.2430  139.6040  142.9478 LP  0  0  0  0  0  0  0  0  0  0  0  0  # atno 17320 bound_to 7965
  145.5280  141.0428  143.2398 LP  0  0  0  0  0  0  0  0  0  0  0  0  # atno 17321 bound_to 7965
  140.6470  143.8774  150.6747 LP  0  0  0  0  0  0  0  0  0  0  0  0  # atno 17342 bound_to 10162
  140.2127  143.3871  152.1705 LP  0  0  0  0  0  0  0  0  0  0  0  0  # atno 17343 bound_to 10162
  157.6973  130.9296  150.0683 LP  0  0  0  0  0  0  0  0  0  0  0  0  # atno 17370 bound_to 10713
  156.1730  130.3647  149.9139 LP  0  0  0  0  0  0  0  0  0  0  0  0  # atno 17371 bound_to 10713
  140.9852  134.1353  157.4459 LP  0  0  0  0  0  0  0  0  0  0  0  0  # atno 17394 bound_to 11000
  139.8809  135.0023  156.6118 LP  0  0  0  0  0  0  0  0  0  0  0  0  # atno 17395 bound_to 11000

$$$$
