AV-unprocessed.smi:2639|AV-procd|sdf|10266|dock3
  -GOLD-   2272014273D 1   1.00000     0.00000
 Structure written by MMmdl.
 44 45  0  0  0  0  0  0  0  0  2 V2000
  144.4077  135.4088  153.2892 C   0  0  0  0  0  0  0  0  0  0  0  0
  145.4227  135.4389  152.1177 C   0  0  1  0  0  0  0  0  0  0  0  0
  144.6825  135.9200  150.8345 C   0  0  0  0  0  0  0  0  0  0  0  0
  145.5347  135.9678  149.7079 O   0  0  0  0  0  0  0  0  0  0  0  0
  146.5146  136.3750  152.4301 N   0  0  0  0  0  0  0  0  0  0  0  0
  146.4414  137.6568  152.8265 C   0  0  0  0  0  0  0  0  0  0  0  0
  145.3871  138.2654  153.0050 O   0  0  0  0  0  0  0  0  0  0  0  0
  147.6690  138.1704  153.0171 N   0  0  0  0  0  0  0  0  0  0  0  0
  148.0258  139.4892  153.4096 C   0  0  0  0  0  0  0  0  0  0  0  0
  149.1366  139.6376  154.2700 C   0  0  0  0  0  0  0  0  0  0  0  0
  149.5366  140.9278  154.6735 C   0  0  0  0  0  0  0  0  0  0  0  0
  148.8641  142.0105  154.2278 N   0  3  0  0  0  0  0  0  0  0  0  0
  147.8071  141.9203  153.3923 C   0  0  0  0  0  0  0  0  0  0  0  0
  147.3608  140.6565  152.9551 C   0  0  0  0  0  0  0  0  0  0  0  0
  146.0660  134.0204  151.9170 C   0  0  0  0  0  0  0  0  0  0  0  0
  145.1066  132.9903  151.2605 C   0  0  0  0  0  0  0  0  0  0  0  0
  145.7824  131.6295  151.0274 C   0  0  0  0  0  0  0  0  0  0  0  0
  146.3470  131.0552  152.3324 C   0  0  0  0  0  0  0  0  0  0  0  0
  147.3142  132.0495  152.9858 C   0  0  0  0  0  0  0  0  0  0  0  0
  146.6415  133.4107  153.2242 C   0  0  0  0  0  0  0  0  0  0  0  0
  143.7012  134.5856  153.1782 H   0  0  0  0  0  0  0  0  0  0  0  0
  143.8188  136.3246  153.3417 H   0  0  0  0  0  0  0  0  0  0  0  0
  144.8970  135.2965  154.2565 H   0  0  0  0  0  0  0  0  0  0  0  0
  143.8542  135.2570  150.5852 H   0  0  0  0  0  0  0  0  0  0  0  0
  144.2416  136.9065  150.9773 H   0  0  0  0  0  0  0  0  0  0  0  0
  145.4512  136.8182  149.3043 H   0  0  0  0  0  0  0  0  0  0  0  0
  147.4418  135.9889  152.3291 H   0  0  0  0  0  0  0  0  0  0  0  0
  148.4382  137.5242  152.9188 H   0  0  0  0  0  0  0  0  0  0  0  0
  149.6765  138.7713  154.6246 H   0  0  0  0  0  0  0  0  0  0  0  0
  150.3697  141.1245  155.3328 H   0  0  0  0  0  0  0  0  0  0  0  0
  147.3560  142.8556  153.0943 H   0  0  0  0  0  0  0  0  0  0  0  0
  146.5271  140.6093  152.2712 H   0  0  0  0  0  0  0  0  0  0  0  0
  146.9040  134.1371  151.2282 H   0  0  0  0  0  0  0  0  0  0  0  0
  144.2225  132.8446  151.8818 H   0  0  0  0  0  0  0  0  0  0  0  0
  144.7495  133.3530  150.2978 H   0  0  0  0  0  0  0  0  0  0  0  0
  145.0669  130.9299  150.5942 H   0  0  0  0  0  0  0  0  0  0  0  0
  146.5859  131.7406  150.2981 H   0  0  0  0  0  0  0  0  0  0  0  0
  145.5308  130.8292  153.0196 H   0  0  0  0  0  0  0  0  0  0  0  0
  146.8580  130.1124  152.1350 H   0  0  0  0  0  0  0  0  0  0  0  0
  147.6786  131.6454  153.9307 H   0  0  0  0  0  0  0  0  0  0  0  0
  148.1896  132.1817  152.3485 H   0  0  0  0  0  0  0  0  0  0  0  0
  147.3831  134.0737  153.6673 H   0  0  0  0  0  0  0  0  0  0  0  0
  145.8515  133.2930  153.9668 H   0  0  0  0  0  0  0  0  0  0  0  0
  149.1705  142.9356  154.5309 H   0  0  0  0  0  0  0  0  0  0  0  0
  1  2  1  0  0  0  0
  1 21  1  0  0  0  0
  1 22  1  0  0  0  0
  1 23  1  0  0  0  0
  2  3  1  0  0  0  0
  2  5  1  0  0  0  0
  2 15  1  0  0  0  0
  3  4  1  0  0  0  0
  3 24  1  0  0  0  0
  3 25  1  0  0  0  0
  4 26  1  0  0  0  0
  5  6  1  0  0  0  0
  5 27  1  0  0  0  0
  6  7  2  0  0  0  0
  6  8  1  0  0  0  0
  8  9  1  0  0  0  0
  8 28  1  0  0  0  0
  9 14  1  0  0  0  0
  9 10  2  0  0  0  0
 10 11  1  0  0  0  0
 10 29  1  0  0  0  0
 11 12  2  0  0  0  0
 11 30  1  0  0  0  0
 12 13  1  0  0  0  0
 12 44  1  0  0  0  0
 13 14  2  0  0  0  0
 13 31  1  0  0  0  0
 14 32  1  0  0  0  0
 15 20  1  0  0  0  0
 15 16  1  0  0  0  0
 15 33  1  0  0  0  0
 16 17  1  0  0  0  0
 16 34  1  0  0  0  0
 16 35  1  0  0  0  0
 17 18  1  0  0  0  0
 17 36  1  0  0  0  0
 17 37  1  0  0  0  0
 18 19  1  0  0  0  0
 18 38  1  0  0  0  0
 18 39  1  0  0  0  0
 19 20  1  0  0  0  0
 19 40  1  0  0  0  0
 19 41  1  0  0  0  0
 20 42  1  0  0  0  0
 20 43  1  0  0  0  0
M  CHG  1  12   1
M  END
> <s_m_source_file>
AV-unprocessed.smi

> <i_m_source_file_index>
2639

> <i_lp_mmshare_version>
43012

> <i_f3d_flags>
0

> <s_epik_input>
W0NIMl0xW0NIMl1bQ0gyXVtDSDJdW0NIMl1bQ0hdMVtDQF0oW0NIM10pKFtDSDJdW09IXSlbTkhdQyg9TylbTkhdYzJbY0hdW2NIXW5bY0hdW2NIXTI=

> <s_epik_cmdline>
J2VwaWtfcHl0aG9uJywgJy1waCcsICc3LjAnLCAnLXRuJywgJzgnLCAnLW1hJywgJzIwMCcsICctbWV0YWxfYmluZGluZycsICctaW1hZScsICc8aW5maWxlLm1hZT4nLCAnLW9tYWUnLCAnPG91dGZpbGUubWFlPic=

> <r_epik_Ionization_Penalty>
1.0096

> <r_epik_Ionization_Penalty_Charging>
1.00958

> <r_epik_Ionization_Penalty_Neutral>
2.00022e-05

> <r_epik_State_Penalty>
1.05889

> <r_epik_Charging_Adjusted_Penalty>
2.06847

> <i_epik_Tot_Q>
1

> <i_epik_Tot_abs_Q>
1

> <r_epik_Metal_State_Penalty>
1.15945

> <b_epik_Metal_Only>
0

> <s_lp_Force_Field>
OPLS_2005

> <r_lp_Energy>
30.6605

> <b_lp_Chiralities_Consistent>
1

> <s_lp_Variant>
AV-unprocessed.smi:2639-3

> <Gold.Version>
5.8.1

> <Gold.Id.Protein>
6NUR|6NUR_protein|mol2

> <Gold.PLP.Fitness>
47.1018

> <Gold.PLP.PLP>
-33.3809

> <Gold.PLP.part.hbond>
-5.0000

> <Gold.PLP.part.metal>
0.0000

> <Gold.PLP.part.buried>
-2.6730

> <Gold.PLP.part.nonpolar>
-25.4750

> <Gold.PLP.part.repulsive>
1.3781

> <Gold.PLP.ligand.clash>
0.0000

> <Gold.PLP.ligand.torsion>
0.5611

> <Gold.PLP.Chemscore.Hbond>
4.9280

> <Gold.PLP.Chemscore.CHOScore>
0.0000

> <Gold.PLP.Chemscore.Metal>
0.0000

> <Gold.Chemscore.Hbonds>
donor molecule, donor type, donor heavy atom, donor atom, acceptor molecule, acceptor atom, score
      L1  H     4    26       P1 10171  0.06
      L1  H     5    27       P1  7948  0.94
      L1  H     8    28       P1  7948  0.78
      L1  H    12    44       P1  8028  1.59

> <Gold.PLP.Chemscore.Internal.Correction>
0.0589

> <Gold.Rescore>
     Score         DG    S(hbond)    S(metal)    S(lipo)     H(rot)  DE(clash)    DE(int)     intcor
     20.44     -23.22       3.95        0.00      83.02       2.02       0.18       2.59       ----

> <Gold.Chemscore.Fitness>
20.4447

> <Gold.Chemscore.DG>
-23.2231

> <Gold.Chemscore.ZeroCoef>
-5.4800

> <Gold.Chemscore.Hbond>
3.9498

> <Gold.Chemscore.Metal>
0.0000

> <Gold.Chemscore.Lipo>
83.0158

> <Gold.Chemscore.Internal_Hbond>
0.0000

> <Gold.Chemscore.DEClash>
0.1842

> <Gold.Chemscore.DEInternal>
2.5942

> <Gold.Chemscore.Rot>
2.0165

> <Gold.Chemscore.Internal.Correction>
   9.000000E+99

> <Gold.Chemscore.Hbonds>
donor molecule, donor type, donor heavy atom, donor atom, acceptor molecule, acceptor atom, score
      L1  H     4    26       P1 10171  0.08
      L1  H     5    27       P1  7948  0.89
      L1  H     8    28       P1  7948  0.78
      L1  H    12    44       P1  8028  0.75

> <Gold.Chemscore.Hbond.Weighted>
-13.1924

> <Gold.Chemscore.Metal.Weighted>
-0.0000

> <Gold.Chemscore.Lipo.Weighted>
-9.7129

> <Gold.Chemscore.Internal_Hbond.Weighted>
0.0000

> <Gold.Chemscore.DEClash.Weighted>
0.1842

> <Gold.Chemscore.DEInternal.Weighted>
2.5942

> <Gold.Chemscore.Rot.Weighted>
5.1622

> <Gold.Chemscore.Internal.Correction.Weighted>
   9.000000E+99

> <Gold.Protein.RotatedTorsions>
[ 6907 6896 6895 6894 ] final -164.64 input  -60.11 | X-H torsion
[ 7974 7965 7964 7962 ] final  -55.96 input  175.53 | X-H torsion
[ 8008 7997 7996 7995 ] final  -66.32 input   59.86 | X-H torsion
[ 10167 10162 10161 10158 ] final  103.64 input  -65.29 | X-H torsion
[ 10718 10713 10712 10709 ] final  -80.70 input   66.30 | X-H torsion
[ 10763 10752 10751 10750 ] final -108.45 input  -60.55 | X-H torsion
[ 11005 11000 10999 10996 ] final -150.66 input  -57.11 | X-H torsion

> <Gold.Protein.ActiveResidues>
 VAL166  LYS551  ARG553  GLY616  TRP617  ASP618  TYR619  PRO620  LYS621  CYS622 
 ASP623  PHE694  ASN695  SER759  ASP760  ASP761  ALA762  ILE779  LEU786  VAL792 
 PHE793  MET794  SER795  GLU796  ALA797  LYS798  CYS799  TRP800  GLU811  SER814 

> <Gold.Protein.RotatedAtoms>
  151.4150  133.3715  159.2748 H   0  0  0  0  0  0  0  0  0  0  0  0  # atno 6907 bound_to 6896
  150.9335  134.8750  159.7577 H   0  0  0  0  0  0  0  0  0  0  0  0  # atno 6908 bound_to 6896
  152.5039  134.4097  159.9496 H   0  0  0  0  0  0  0  0  0  0  0  0  # atno 6909 bound_to 6896
  145.8681  140.8236  142.9902 H   0  0  0  0  0  0  0  0  0  0  0  0  # atno 7974 bound_to 7965
  154.4727  140.0915  156.7184 H   0  0  0  0  0  0  0  0  0  0  0  0  # atno 8008 bound_to 7997
  155.4681  140.3463  155.4303 H   0  0  0  0  0  0  0  0  0  0  0  0  # atno 8009 bound_to 7997
  156.1065  140.1436  156.9385 H   0  0  0  0  0  0  0  0  0  0  0  0  # atno 8010 bound_to 7997
  139.7245  144.7050  151.0819 H   0  0  0  0  0  0  0  0  0  0  0  0  # atno 10167 bound_to 10162
  156.0065  130.4582  150.3840 H   0  0  0  0  0  0  0  0  0  0  0  0  # atno 10718 bound_to 10713
  154.8136  135.4637  154.0583 H   0  0  0  0  0  0  0  0  0  0  0  0  # atno 10763 bound_to 10752
  153.1994  135.6866  153.8257 H   0  0  0  0  0  0  0  0  0  0  0  0  # atno 10764 bound_to 10752
  153.7747  135.3265  155.3334 H   0  0  0  0  0  0  0  0  0  0  0  0  # atno 10765 bound_to 10752
  140.7378  134.3548  157.5154 H   0  0  0  0  0  0  0  0  0  0  0  0  # atno 11005 bound_to 11000
  144.6726  140.1198  143.7450 LP  0  0  0  0  0  0  0  0  0  0  0  0  # atno 17320 bound_to 7965
  145.9169  139.2521  143.1404 LP  0  0  0  0  0  0  0  0  0  0  0  0  # atno 17321 bound_to 7965
  140.7760  143.5122  150.9638 LP  0  0  0  0  0  0  0  0  0  0  0  0  # atno 17342 bound_to 10162
  139.8810  143.7072  152.3157 LP  0  0  0  0  0  0  0  0  0  0  0  0  # atno 17343 bound_to 10162
  157.1918  131.0417  151.2696 LP  0  0  0  0  0  0  0  0  0  0  0  0  # atno 17370 bound_to 10713
  157.4054  130.7356  149.6798 LP  0  0  0  0  0  0  0  0  0  0  0  0  # atno 17371 bound_to 10713
  139.8812  134.9061  156.2914 LP  0  0  0  0  0  0  0  0  0  0  0  0  # atno 17394 bound_to 11000
  140.9864  133.7236  156.0748 LP  0  0  0  0  0  0  0  0  0  0  0  0  # atno 17395 bound_to 11000

$$$$
