AV-unprocessed.smi:503|AV-procd|sdf|2746|dock7
  -GOLD-   2262023213D 1   1.00000     0.00000
 Structure written by MMmdl.
 44 45  0  0  0  0  0  0  0  0  1 V2000
  148.6570  143.1961  158.9492 O   0  0  0  0  0  0  0  0  0  0  0  0
  149.4346  143.0229  158.0096 C   0  0  0  0  0  0  0  0  0  0  0  0
  150.8597  143.5932  158.0482 C   0  0  0  0  0  0  0  0  0  0  0  0
  151.5392  143.3866  159.3383 N   0  0  0  0  0  0  0  0  0  0  0  0
  152.3178  142.2201  159.4725 C   0  0  0  0  0  0  0  0  0  0  0  0
  152.9834  141.9087  160.6014 C   0  0  0  0  0  0  0  0  0  0  0  0
  153.8661  140.6738  160.6961 C   0  0  0  0  0  0  0  0  0  0  0  0
  154.9590  140.8069  159.9440 F   0  0  0  0  0  0  0  0  0  0  0  0
  154.2507  140.4889  161.9583 F   0  0  0  0  0  0  0  0  0  0  0  0
  153.2136  139.5811  160.2973 F   0  0  0  0  0  0  0  0  0  0  0  0
  152.8892  142.8624  161.6893 C   0  0  0  0  0  0  0  0  0  0  0  0
  152.1597  143.9894  161.5730 C   0  0  0  0  0  0  0  0  0  0  0  0
  151.4269  144.3049  160.3446 C   0  0  0  0  0  0  0  0  0  0  0  0
  150.7557  145.3303  160.2271 O   0  0  0  0  0  0  0  0  0  0  0  0
  149.1029  142.3551  156.8940 N   0  0  0  0  0  0  0  0  0  0  0  0
  147.8080  141.7327  156.6259 C   0  0  0  0  0  0  0  0  0  0  0  0
  148.0207  140.2315  156.3337 C   0  0  0  0  0  0  0  0  0  0  0  0
  146.7853  139.4742  155.8059 C   0  0  0  0  0  0  0  0  0  0  0  0
  146.8046  139.1966  154.2885 C   0  0  0  0  0  0  0  0  0  0  0  0
  146.6418  140.4132  153.3543 C   0  0  0  0  0  0  0  0  0  0  0  0
  147.8394  141.3855  153.3436 C   0  0  0  0  0  0  0  0  0  0  0  0
  147.6536  142.6760  154.1654 C   0  0  0  0  0  0  0  0  0  0  0  0
  147.0164  142.5290  155.5615 C   0  0  0  0  0  0  0  0  0  0  0  0
  151.4452  143.1519  157.2391 H   0  0  0  0  0  0  0  0  0  0  0  0
  150.8067  144.6570  157.8125 H   0  0  0  0  0  0  0  0  0  0  0  0
  152.3478  141.5974  158.5901 H   0  0  0  0  0  0  0  0  0  0  0  0
  153.4104  142.6685  162.6152 H   0  0  0  0  0  0  0  0  0  0  0  0
  152.1119  144.6769  162.4049 H   0  0  0  0  0  0  0  0  0  0  0  0
  149.8033  142.2685  156.1716 H   0  0  0  0  0  0  0  0  0  0  0  0
  147.2172  141.7772  157.5432 H   0  0  0  0  0  0  0  0  0  0  0  0
  148.8702  140.0752  155.6704 H   0  0  0  0  0  0  0  0  0  0  0  0
  148.3259  139.7637  157.2710 H   0  0  0  0  0  0  0  0  0  0  0  0
  146.7607  138.5038  156.3029 H   0  0  0  0  0  0  0  0  0  0  0  0
  145.8580  139.9627  156.1048 H   0  0  0  0  0  0  0  0  0  0  0  0
  147.7177  138.6592  154.0293 H   0  0  0  0  0  0  0  0  0  0  0  0
  145.9919  138.5029  154.0702 H   0  0  0  0  0  0  0  0  0  0  0  0
  146.5326  140.0198  152.3430 H   0  0  0  0  0  0  0  0  0  0  0  0
  145.7061  140.9365  153.5515 H   0  0  0  0  0  0  0  0  0  0  0  0
  148.7530  140.8702  153.6355 H   0  0  0  0  0  0  0  0  0  0  0  0
  148.0219  141.6891  152.3122 H   0  0  0  0  0  0  0  0  0  0  0  0
  148.6124  143.1890  154.2480 H   0  0  0  0  0  0  0  0  0  0  0  0
  147.0166  143.3474  153.5885 H   0  0  0  0  0  0  0  0  0  0  0  0
  146.0084  142.1286  155.4696 H   0  0  0  0  0  0  0  0  0  0  0  0
  146.8594  143.5363  155.9497 H   0  0  0  0  0  0  0  0  0  0  0  0
  1  2  2  0  0  0  0
  2  3  1  0  0  0  0
  2 15  1  0  0  0  0
  3  4  1  0  0  0  0
  3 24  1  0  0  0  0
  3 25  1  0  0  0  0
  4 13  1  0  0  0  0
  4  5  1  0  0  0  0
  5  6  2  0  0  0  0
  5 26  1  0  0  0  0
  6  7  1  0  0  0  0
  6 11  1  0  0  0  0
  7  8  1  0  0  0  0
  7  9  1  0  0  0  0
  7 10  1  0  0  0  0
 11 12  2  0  0  0  0
 11 27  1  0  0  0  0
 12 13  1  0  0  0  0
 12 28  1  0  0  0  0
 13 14  2  0  0  0  0
 15 16  1  0  0  0  0
 15 29  1  0  0  0  0
 16 23  1  0  0  0  0
 16 17  1  0  0  0  0
 16 30  1  0  0  0  0
 17 18  1  0  0  0  0
 17 31  1  0  0  0  0
 17 32  1  0  0  0  0
 18 19  1  0  0  0  0
 18 33  1  0  0  0  0
 18 34  1  0  0  0  0
 19 20  1  0  0  0  0
 19 35  1  0  0  0  0
 19 36  1  0  0  0  0
 20 21  1  0  0  0  0
 20 37  1  0  0  0  0
 20 38  1  0  0  0  0
 21 22  1  0  0  0  0
 21 39  1  0  0  0  0
 21 40  1  0  0  0  0
 22 23  1  0  0  0  0
 22 41  1  0  0  0  0
 22 42  1  0  0  0  0
 23 43  1  0  0  0  0
 23 44  1  0  0  0  0
M  END
> <s_m_source_file>
AV-unprocessed.smi

> <i_m_source_file_index>
503

> <i_lp_mmshare_version>
43012

> <i_f3d_flags>
0

> <s_epik_input>
Tz1jMVtjSF1bY0hdYyhDKEYpKEYpRilbY0hdbjFbQ0gyXUMoPU8pW05IXVtDSF0yW0NIMl1bQ0gyXVtDSDJdW0NIMl1bQ0gyXVtDSDJdW0NIMl0y

> <s_epik_cmdline>
J2VwaWtfcHl0aG9uJywgJy1waCcsICc3LjAnLCAnLXRuJywgJzgnLCAnLW1hJywgJzIwMCcsICctbWV0YWxfYmluZGluZycsICctaW1hZScsICc8aW5maWxlLm1hZT4nLCAnLW9tYWUnLCAnPG91dGZpbGUubWFlPic=

> <r_lp_tautomer_probability>
1

> <r_epik_Ionization_Penalty>
3.93819e-08

> <r_epik_Ionization_Penalty_Charging>
1.9167e-08

> <r_epik_Ionization_Penalty_Neutral>
2.02148e-08

> <r_epik_State_Penalty>
-0

> <r_epik_Charging_Adjusted_Penalty>
1.9167e-08

> <i_epik_Tot_Q>
0

> <i_epik_Tot_abs_Q>
0

> <r_epik_Metal_State_Penalty>
-0

> <b_epik_Metal_Only>
0

> <s_lp_Force_Field>
OPLS_2005

> <r_lp_Energy>
31.4462

> <b_lp_Chiralities_Consistent>
1

> <s_lp_Variant>
AV-unprocessed.smi:503-1

> <Gold.Version>
5.8.1

> <Gold.Id.Protein>
6NUR|6NUR_protein|mol2

> <Gold.PLP.Fitness>
42.4202

> <Gold.PLP.PLP>
-44.3449

> <Gold.PLP.part.hbond>
-1.5629

> <Gold.PLP.part.metal>
0.0000

> <Gold.PLP.part.buried>
-1.3319

> <Gold.PLP.part.nonpolar>
-41.8146

> <Gold.PLP.part.repulsive>
0.3206

> <Gold.PLP.ligand.clash>
0.0196

> <Gold.PLP.ligand.torsion>
0.9968

> <Gold.PLP.Chemscore.Hbond>
0.0000

> <Gold.PLP.Chemscore.CHOScore>
0.0000

> <Gold.PLP.Chemscore.Metal>
0.0000

> <Gold.PLP.Chemscore.Internal.Correction>
0.0886

> <Gold.Rescore>
     Score         DG    S(hbond)    S(metal)    S(lipo)     H(rot)  DE(clash)    DE(int)     intcor
     11.35     -12.83       0.00        0.00      95.96       1.51       0.19       1.29       ----

> <Gold.Chemscore.Fitness>
11.3493

> <Gold.Chemscore.DG>
-12.8338

> <Gold.Chemscore.ZeroCoef>
-5.4800

> <Gold.Chemscore.Hbond>
0.0000

> <Gold.Chemscore.Metal>
0.0000

> <Gold.Chemscore.Lipo>
95.9591

> <Gold.Chemscore.Internal_Hbond>
0.0000

> <Gold.Chemscore.DEClash>
0.1911

> <Gold.Chemscore.DEInternal>
1.2933

> <Gold.Chemscore.Rot>
1.5131

> <Gold.Chemscore.Internal.Correction>
   9.000000E+99

> <Gold.Chemscore.Hbond.Weighted>
-0.0000

> <Gold.Chemscore.Metal.Weighted>
-0.0000

> <Gold.Chemscore.Lipo.Weighted>
-11.2272

> <Gold.Chemscore.Internal_Hbond.Weighted>
0.0000

> <Gold.Chemscore.DEClash.Weighted>
0.1911

> <Gold.Chemscore.DEInternal.Weighted>
1.2933

> <Gold.Chemscore.Rot.Weighted>
3.8734

> <Gold.Chemscore.Internal.Correction.Weighted>
   9.000000E+99

> <Gold.Protein.RotatedTorsions>
[ 6907 6896 6895 6894 ] final   96.55 input  -60.11 | X-H torsion
[ 7974 7965 7964 7962 ] final  -34.61 input  175.53 | X-H torsion
[ 8008 7997 7996 7995 ] final   92.46 input   59.86 | X-H torsion
[ 10167 10162 10161 10158 ] final -144.86 input  -65.29 | X-H torsion
[ 10718 10713 10712 10709 ] final  -98.37 input   66.30 | X-H torsion
[ 10763 10752 10751 10750 ] final  118.36 input  -60.55 | X-H torsion
[ 11005 11000 10999 10996 ] final    0.89 input  -57.11 | X-H torsion

> <Gold.Protein.ActiveResidues>
 VAL166  LYS551  ARG553  GLY616  TRP617  ASP618  TYR619  PRO620  LYS621  CYS622 
 ASP623  PHE694  ASN695  SER759  ASP760  ASP761  ALA762  ILE779  LEU786  VAL792 
 PHE793  MET794  SER795  GLU796  ALA797  LYS798  CYS799  TRP800  GLU811  SER814 

> <Gold.Protein.RotatedAtoms>
  152.5434  134.0869  159.8259 H   0  0  0  0  0  0  0  0  0  0  0  0  # atno 6907 bound_to 6896
  151.0964  133.5269  159.2619 H   0  0  0  0  0  0  0  0  0  0  0  0  # atno 6908 bound_to 6896
  151.2041  135.0463  159.8938 H   0  0  0  0  0  0  0  0  0  0  0  0  # atno 6909 bound_to 6896
  146.0815  140.6060  142.8906 H   0  0  0  0  0  0  0  0  0  0  0  0  # atno 7974 bound_to 7965
  156.0356  140.3325  155.7187 H   0  0  0  0  0  0  0  0  0  0  0  0  # atno 8008 bound_to 7997
  155.5820  140.0638  157.2798 H   0  0  0  0  0  0  0  0  0  0  0  0  # atno 8009 bound_to 7997
  154.4371  140.1842  156.0974 H   0  0  0  0  0  0  0  0  0  0  0  0  # atno 8010 bound_to 7997
  139.7859  143.8034  152.2644 H   0  0  0  0  0  0  0  0  0  0  0  0  # atno 10167 bound_to 10162
  156.0106  130.5235  150.6512 H   0  0  0  0  0  0  0  0  0  0  0  0  # atno 10718 bound_to 10713
  153.5665  135.3510  155.2820 H   0  0  0  0  0  0  0  0  0  0  0  0  # atno 10763 bound_to 10752
  154.8688  135.4149  154.2773 H   0  0  0  0  0  0  0  0  0  0  0  0  # atno 10764 bound_to 10752
  153.3530  135.7056  153.6843 H   0  0  0  0  0  0  0  0  0  0  0  0  # atno 10765 bound_to 10752
  140.6215  133.9657  155.8227 H   0  0  0  0  0  0  0  0  0  0  0  0  # atno 11005 bound_to 11000
  144.7296  140.4632  143.6947 LP  0  0  0  0  0  0  0  0  0  0  0  0  # atno 17320 bound_to 7965
  145.6209  139.1524  143.3023 LP  0  0  0  0  0  0  0  0  0  0  0  0  # atno 17321 bound_to 7965
  139.8111  144.7335  150.9696 LP  0  0  0  0  0  0  0  0  0  0  0  0  # atno 17342 bound_to 10162
  140.7819  143.4250  151.0783 LP  0  0  0  0  0  0  0  0  0  0  0  0  # atno 17343 bound_to 10162
  157.4273  131.0845  151.1073 LP  0  0  0  0  0  0  0  0  0  0  0  0  # atno 17370 bound_to 10713
  157.1656  130.6245  149.5624 LP  0  0  0  0  0  0  0  0  0  0  0  0  # atno 17371 bound_to 10713
  141.0739  134.0165  157.3487 LP  0  0  0  0  0  0  0  0  0  0  0  0  # atno 17394 bound_to 11000
  139.9151  135.0196  156.7850 LP  0  0  0  0  0  0  0  0  0  0  0  0  # atno 17395 bound_to 11000

$$$$
