AV-unprocessed.smi:1069|AV-procd|sdf|4675|dock4
  -GOLD-   22720 3193D 1   1.00000     0.00000
 Structure written by MMmdl.
 54 55  0  0  0  0  0  0  0  0  1 V2000
  152.0423  139.8664  157.7841 C   0  0  0  0  0  0  0  0  0  0  0  0
  150.8807  139.3634  156.9111 C   0  0  0  0  0  0  0  0  0  0  0  0
  151.1696  137.9459  156.3821 C   0  0  0  0  0  0  0  0  0  0  0  0
  150.6018  140.3537  155.7598 C   0  0  0  0  0  0  0  0  0  0  0  0
  151.4858  140.5326  154.9199 O   0  0  0  0  0  0  0  0  0  0  0  0
  149.3973  140.9729  155.6722 N   0  0  0  0  0  0  0  0  0  0  0  0
  148.9856  141.7348  154.4868 C   0  0  0  0  0  0  0  0  0  0  0  0
  147.8828  140.9450  153.7575 C   0  0  0  0  0  0  0  0  0  0  0  0
  146.6949  140.6306  154.6940 C   0  0  0  0  0  0  0  0  0  0  0  0
  145.7738  139.7172  154.0243 N   0  0  0  0  0  0  0  0  0  0  0  0
  146.0686  138.4707  153.6295 C   0  0  0  0  0  0  0  0  0  0  0  0
  147.1765  137.9572  153.7788 O   0  0  0  0  0  0  0  0  0  0  0  0
  145.0057  137.8839  153.0533 N   0  0  0  0  0  0  0  0  0  0  0  0
  144.8875  136.5727  152.5172 C   0  0  0  0  0  0  0  0  0  0  0  0
  145.9713  135.6838  152.6612 C   0  0  0  0  0  0  0  0  0  0  0  0
  145.9383  134.4275  152.1700 N   0  0  0  0  0  0  0  0  0  0  0  0
  144.8162  134.0292  151.5567 C   0  0  0  0  0  0  0  0  0  0  0  0
  144.8387  132.6512  150.8725 C   0  0  0  0  0  0  0  0  0  0  0  0
  145.0187  131.5182  151.9101 C   0  0  0  0  0  0  0  0  0  0  0  0
  146.0346  132.5321  149.8985 C   0  0  0  0  0  0  0  0  0  0  0  0
  143.5235  132.4399  150.1008 C   0  0  0  0  0  0  0  0  0  0  0  0
  143.7502  134.8065  151.3256 N   0  0  0  0  0  0  0  0  0  0  0  0
  143.7694  136.0660  151.8117 C   0  0  0  0  0  0  0  0  0  0  0  0
  147.1732  140.0367  156.0403 C   0  0  0  0  0  0  0  0  0  0  0  0
  148.3025  140.8875  156.6461 C   0  0  0  0  0  0  0  0  0  0  0  0
  151.8435  140.8614  158.1837 H   0  0  0  0  0  0  0  0  0  0  0  0
  152.9736  139.9169  157.2180 H   0  0  0  0  0  0  0  0  0  0  0  0
  152.2078  139.2020  158.6326 H   0  0  0  0  0  0  0  0  0  0  0  0
  149.9880  139.2620  157.5265 H   0  0  0  0  0  0  0  0  0  0  0  0
  150.3696  137.5948  155.7290 H   0  0  0  0  0  0  0  0  0  0  0  0
  151.2529  137.2350  157.2046 H   0  0  0  0  0  0  0  0  0  0  0  0
  152.1033  137.9055  155.8197 H   0  0  0  0  0  0  0  0  0  0  0  0
  148.6106  142.7130  154.7913 H   0  0  0  0  0  0  0  0  0  0  0  0
  149.8091  141.9355  153.8006 H   0  0  0  0  0  0  0  0  0  0  0  0
  147.5363  141.5053  152.8883 H   0  0  0  0  0  0  0  0  0  0  0  0
  148.3083  140.0154  153.3756 H   0  0  0  0  0  0  0  0  0  0  0  0
  146.1791  141.5714  154.8971 H   0  0  0  0  0  0  0  0  0  0  0  0
  144.8391  140.0594  153.8564 H   0  0  0  0  0  0  0  0  0  0  0  0
  144.1768  138.4547  152.9754 H   0  0  0  0  0  0  0  0  0  0  0  0
  146.8772  135.9825  153.1679 H   0  0  0  0  0  0  0  0  0  0  0  0
  145.0830  130.5429  151.4265 H   0  0  0  0  0  0  0  0  0  0  0  0
  144.1830  131.4670  152.6091 H   0  0  0  0  0  0  0  0  0  0  0  0
  145.9299  131.6550  152.4935 H   0  0  0  0  0  0  0  0  0  0  0  0
  146.9821  132.7046  150.4103 H   0  0  0  0  0  0  0  0  0  0  0  0
  145.9669  133.2472  149.0779 H   0  0  0  0  0  0  0  0  0  0  0  0
  146.0822  131.5403  149.4473 H   0  0  0  0  0  0  0  0  0  0  0  0
  143.5052  131.4701  149.6027 H   0  0  0  0  0  0  0  0  0  0  0  0
  143.3853  133.2054  149.3366 H   0  0  0  0  0  0  0  0  0  0  0  0
  142.6620  132.4833  150.7679 H   0  0  0  0  0  0  0  0  0  0  0  0
  142.8866  136.6493  151.6060 H   0  0  0  0  0  0  0  0  0  0  0  0
  146.3410  139.9729  156.7421 H   0  0  0  0  0  0  0  0  0  0  0  0
  147.5320  139.0169  155.8918 H   0  0  0  0  0  0  0  0  0  0  0  0
  148.6040  140.4980  157.6164 H   0  0  0  0  0  0  0  0  0  0  0  0
  147.9315  141.8921  156.8548 H   0  0  0  0  0  0  0  0  0  0  0  0
  1  2  1  0  0  0  0
  1 26  1  0  0  0  0
  1 27  1  0  0  0  0
  1 28  1  0  0  0  0
  2  3  1  0  0  0  0
  2  4  1  0  0  0  0
  2 29  1  0  0  0  0
  3 30  1  0  0  0  0
  3 31  1  0  0  0  0
  3 32  1  0  0  0  0
  4  5  2  0  0  0  0
  4  6  1  0  0  0  0
  6 25  1  0  0  0  0
  6  7  1  0  0  0  0
  7  8  1  0  0  0  0
  7 33  1  0  0  0  0
  7 34  1  0  0  0  0
  8  9  1  0  0  0  0
  8 35  1  0  0  0  0
  8 36  1  0  0  0  0
  9 10  1  0  0  0  0
  9 24  1  0  0  0  0
  9 37  1  0  0  0  0
 10 11  1  0  0  0  0
 10 38  1  0  0  0  0
 11 12  2  0  0  0  0
 11 13  1  0  0  0  0
 13 14  1  0  0  0  0
 13 39  1  0  0  0  0
 14 23  1  0  0  0  0
 14 15  2  0  0  0  0
 15 16  1  0  0  0  0
 15 40  1  0  0  0  0
 16 17  2  0  0  0  0
 17 18  1  0  0  0  0
 17 22  1  0  0  0  0
 18 19  1  0  0  0  0
 18 20  1  0  0  0  0
 18 21  1  0  0  0  0
 19 41  1  0  0  0  0
 19 42  1  0  0  0  0
 19 43  1  0  0  0  0
 20 44  1  0  0  0  0
 20 45  1  0  0  0  0
 20 46  1  0  0  0  0
 21 47  1  0  0  0  0
 21 48  1  0  0  0  0
 21 49  1  0  0  0  0
 22 23  2  0  0  0  0
 23 50  1  0  0  0  0
 24 25  1  0  0  0  0
 24 51  1  0  0  0  0
 24 52  1  0  0  0  0
 25 53  1  0  0  0  0
 25 54  1  0  0  0  0
M  END
> <s_m_source_file>
AV-unprocessed.smi

> <i_m_source_file_index>
1069

> <i_lp_mmshare_version>
43012

> <i_f3d_flags>
0

> <s_epik_input>
W0NIM11bQ0hdKFtDSDNdKUMoPU8pTjFbQ0gyXVtDSDJdW0NIXShbQ0gyXVtDSDJdMSlbTkhdQyg9TylbTkhdYzJbY0hdbmMoQyhbQ0gzXSkoW0NIM10pW0NIM10pbltjSF0y

> <s_epik_cmdline>
J2VwaWtfcHl0aG9uJywgJy1waCcsICc3LjAnLCAnLXRuJywgJzgnLCAnLW1hJywgJzIwMCcsICctbWV0YWxfYmluZGluZycsICctaW1hZScsICc8aW5maWxlLm1hZT4nLCAnLW9tYWUnLCAnPG91dGZpbGUubWFlPic=

> <r_lp_tautomer_probability>
1

> <r_epik_Ionization_Penalty>
2.58562e-05

> <r_epik_Ionization_Penalty_Charging>
0

> <r_epik_Ionization_Penalty_Neutral>
2.58562e-05

> <r_epik_State_Penalty>
-0

> <r_epik_Charging_Adjusted_Penalty>
0

> <i_epik_Tot_Q>
0

> <i_epik_Tot_abs_Q>
0

> <r_epik_Metal_State_Penalty>
-0

> <b_epik_Metal_Only>
0

> <s_lp_Force_Field>
OPLS_2005

> <r_lp_Energy>
23.7976

> <b_lp_Chiralities_Consistent>
1

> <s_lp_Variant>
AV-unprocessed.smi:1069-1

> <Gold.Version>
5.8.1

> <Gold.Id.Protein>
6NUR|6NUR_protein|mol2

> <Gold.PLP.Fitness>
45.8452

> <Gold.PLP.PLP>
-33.8255

> <Gold.PLP.part.hbond>
-3.0000

> <Gold.PLP.part.metal>
0.0000

> <Gold.PLP.part.buried>
-1.8218

> <Gold.PLP.part.nonpolar>
-29.2929

> <Gold.PLP.part.repulsive>
0.7344

> <Gold.PLP.ligand.clash>
0.0000

> <Gold.PLP.ligand.torsion>
0.1234

> <Gold.PLP.Chemscore.Hbond>
2.7288

> <Gold.PLP.Chemscore.CHOScore>
1.2850

> <Gold.PLP.Chemscore.Metal>
0.0000

> <Gold.Chemscore.Hbonds>
donor molecule, donor type, donor heavy atom, donor atom, acceptor molecule, acceptor atom, score
      L1  H    10    38       P1 10175  0.83
      L1  H    13    39       P1 10175  0.61
      P1  H  7989  7998       L1     5  0.74
      L1  C    15    40       P1  7948  0.77
      L1  C    23    50       P1 10171  0.16

> <Gold.PLP.Chemscore.Internal.Correction>
0.2252

> <Gold.Rescore>
     Score         DG    S(hbond)    S(metal)    S(lipo)     H(rot)  DE(clash)    DE(int)     intcor
     18.22     -20.82       2.72        0.00      82.67       1.34       0.20       2.40       ----

> <Gold.Chemscore.Fitness>
18.2245

> <Gold.Chemscore.DG>
-20.8244

> <Gold.Chemscore.ZeroCoef>
-5.4800

> <Gold.Chemscore.Hbond>
2.7225

> <Gold.Chemscore.Metal>
0.0000

> <Gold.Chemscore.Lipo>
82.6745

> <Gold.Chemscore.Internal_Hbond>
0.0000

> <Gold.Chemscore.DEClash>
0.2037

> <Gold.Chemscore.DEInternal>
2.3962

> <Gold.Chemscore.Rot>
1.3366

> <Gold.Chemscore.Internal.Correction>
   9.000000E+99

> <Gold.Chemscore.Hbonds>
donor molecule, donor type, donor heavy atom, donor atom, acceptor molecule, acceptor atom, score
      L1  H    10    38       P1 10175  0.83
      L1  H    13    39       P1 10175  0.61
      P1  H  7989  7998       L1     5  0.71

> <Gold.Chemscore.Hbond.Weighted>
-9.0932

> <Gold.Chemscore.Metal.Weighted>
-0.0000

> <Gold.Chemscore.Lipo.Weighted>
-9.6729

> <Gold.Chemscore.Internal_Hbond.Weighted>
0.0000

> <Gold.Chemscore.DEClash.Weighted>
0.2037

> <Gold.Chemscore.DEInternal.Weighted>
2.3962

> <Gold.Chemscore.Rot.Weighted>
3.4217

> <Gold.Chemscore.Internal.Correction.Weighted>
   9.000000E+99

> <Gold.Protein.RotatedTorsions>
[ 6907 6896 6895 6894 ] final -134.07 input  -60.11 | X-H torsion
[ 7974 7965 7964 7962 ] final   45.54 input  175.53 | X-H torsion
[ 8008 7997 7996 7995 ] final   -4.03 input   59.86 | X-H torsion
[ 10167 10162 10161 10158 ] final   66.99 input  -65.29 | X-H torsion
[ 10718 10713 10712 10709 ] final  -30.16 input   66.30 | X-H torsion
[ 10763 10752 10751 10750 ] final   -2.81 input  -60.55 | X-H torsion
[ 11005 11000 10999 10996 ] final  -66.85 input  -57.11 | X-H torsion

> <Gold.Protein.ActiveResidues>
 VAL166  LYS551  ARG553  GLY616  TRP617  ASP618  TYR619  PRO620  LYS621  CYS622 
 ASP623  PHE694  ASN695  SER759  ASP760  ASP761  ALA762  ILE779  LEU786  VAL792 
 PHE793  MET794  SER795  GLU796  ALA797  LYS798  CYS799  TRP800  GLU811  SER814 

> <Gold.Protein.RotatedAtoms>
  150.9815  133.6241  159.2721 H   0  0  0  0  0  0  0  0  0  0  0  0  # atno 6907 bound_to 6896
  151.3494  135.0880  159.9407 H   0  0  0  0  0  0  0  0  0  0  0  0  # atno 6908 bound_to 6896
  152.5217  133.9410  159.7681 H   0  0  0  0  0  0  0  0  0  0  0  0  # atno 6909 bound_to 6896
  146.0471  139.4953  142.9742 H   0  0  0  0  0  0  0  0  0  0  0  0  # atno 7974 bound_to 7965
  154.6186  140.2494  155.7578 H   0  0  0  0  0  0  0  0  0  0  0  0  # atno 8008 bound_to 7997
  156.2413  140.2931  156.0402 H   0  0  0  0  0  0  0  0  0  0  0  0  # atno 8009 bound_to 7997
  155.1935  140.0392  157.2895 H   0  0  0  0  0  0  0  0  0  0  0  0  # atno 8010 bound_to 7997
  140.0944  144.4959  150.7077 H   0  0  0  0  0  0  0  0  0  0  0  0  # atno 10167 bound_to 10162
  156.4033  130.4394  149.7306 H   0  0  0  0  0  0  0  0  0  0  0  0  # atno 10718 bound_to 10713
  153.3630  135.6991  153.6697 H   0  0  0  0  0  0  0  0  0  0  0  0  # atno 10763 bound_to 10752
  153.5378  135.3579  155.2705 H   0  0  0  0  0  0  0  0  0  0  0  0  # atno 10764 bound_to 10752
  154.8671  135.4196  154.2891 H   0  0  0  0  0  0  0  0  0  0  0  0  # atno 10765 bound_to 10752
  141.1493  133.6707  156.6203 H   0  0  0  0  0  0  0  0  0  0  0  0  # atno 11005 bound_to 11000
  145.6787  141.0197  143.1618 LP  0  0  0  0  0  0  0  0  0  0  0  0  # atno 17320 bound_to 7965
  144.7103  139.8396  143.7416 LP  0  0  0  0  0  0  0  0  0  0  0  0  # atno 17321 bound_to 7965
  140.7011  143.2435  151.4861 LP  0  0  0  0  0  0  0  0  0  0  0  0  # atno 17342 bound_to 10162
  139.5706  144.1937  152.1831 LP  0  0  0  0  0  0  0  0  0  0  0  0  # atno 17343 bound_to 10162
  156.4313  130.7816  151.2836 LP  0  0  0  0  0  0  0  0  0  0  0  0  # atno 17370 bound_to 10713
  157.7504  131.0153  150.3499 LP  0  0  0  0  0  0  0  0  0  0  0  0  # atno 17371 bound_to 10713
  140.3546  134.7740  157.4491 LP  0  0  0  0  0  0  0  0  0  0  0  0  # atno 17394 bound_to 11000
  140.0833  134.5700  155.8517 LP  0  0  0  0  0  0  0  0  0  0  0  0  # atno 17395 bound_to 11000

$$$$
