AV-unprocessed.smi:1399|AV-procd|sdf|5683|dock8
  -GOLD-   22720 5303D 1   1.00000     0.00000
 Structure written by MMmdl.
 38 39  0  0  0  0  0  0  0  0  2 V2000
  142.0461  141.4696  154.7349 N   0  0  0  0  0  0  0  0  0  0  0  0
  142.7898  141.3200  155.8332 C   0  0  0  0  0  0  0  0  0  0  0  0
  142.5010  141.8612  156.8990 O   0  0  0  0  0  0  0  0  0  0  0  0
  144.0447  140.4505  155.7056 C   0  0  0  0  0  0  0  0  0  0  0  0
  145.0374  140.9986  154.7453 N   0  3  2  0  0  0  0  0  0  0  0  0
  146.2220  140.1163  154.5909 C   0  0  0  0  0  0  0  0  0  0  0  0
  147.1558  140.6283  153.4792 C   0  0  0  0  0  0  0  0  0  0  0  0
  147.5859  142.0874  153.7103 C   0  0  2  0  0  0  0  0  0  0  0  0
  148.5165  142.1790  154.8362 N   0  0  0  0  0  0  0  0  0  0  0  0
  149.4699  141.2880  155.1458 C   0  0  0  0  0  0  0  0  0  0  0  0
  149.6840  140.2621  154.5012 O   0  0  0  0  0  0  0  0  0  0  0  0
  150.1487  141.6668  156.2406 N   0  0  0  0  0  0  0  0  0  0  0  0
  151.2130  140.9761  156.8722 C   0  0  0  0  0  0  0  0  0  0  0  0
  151.9302  139.8251  156.4314 C   0  0  0  0  0  0  0  0  0  0  0  0
  152.8601  139.4751  157.3089 N   0  0  0  0  0  0  0  0  0  0  0  0
  152.7433  140.3858  158.3012 N   0  0  0  0  0  0  0  0  0  0  0  0
  151.7534  141.3165  158.0764 C   0  0  0  0  0  0  0  0  0  0  0  0
  146.3488  142.9699  153.9520 C   0  0  0  0  0  0  0  0  0  0  0  0
  145.4365  142.3985  155.0522 C   0  0  0  0  0  0  0  0  0  0  0  0
  153.3399  140.3588  159.1160 H   0  0  0  0  0  0  0  0  0  0  0  0
  141.2124  142.0393  154.7699 H   0  0  0  0  0  0  0  0  0  0  0  0
  142.3161  141.0220  153.8708 H   0  0  0  0  0  0  0  0  0  0  0  0
  144.5102  140.3019  156.6814 H   0  0  0  0  0  0  0  0  0  0  0  0
  143.7086  139.4699  155.3661 H   0  0  0  0  0  0  0  0  0  0  0  0
  146.7570  140.0533  155.5400 H   0  0  0  0  0  0  0  0  0  0  0  0
  145.8985  139.1045  154.3441 H   0  0  0  0  0  0  0  0  0  0  0  0
  148.0323  139.9839  153.3976 H   0  0  0  0  0  0  0  0  0  0  0  0
  146.6387  140.5567  152.5213 H   0  0  0  0  0  0  0  0  0  0  0  0
  148.0758  142.4391  152.8011 H   0  0  0  0  0  0  0  0  0  0  0  0
  148.4252  142.9877  155.4330 H   0  0  0  0  0  0  0  0  0  0  0  0
  149.8749  142.5385  156.6697 H   0  0  0  0  0  0  0  0  0  0  0  0
  151.8170  139.2394  155.5313 H   0  0  0  0  0  0  0  0  0  0  0  0
  151.5294  142.1123  158.7715 H   0  0  0  0  0  0  0  0  0  0  0  0
  146.6529  143.9862  154.2060 H   0  0  0  0  0  0  0  0  0  0  0  0
  145.7789  143.0478  153.0251 H   0  0  0  0  0  0  0  0  0  0  0  0
  144.5531  143.0309  155.1424 H   0  0  0  0  0  0  0  0  0  0  0  0
  145.9426  142.4308  156.0183 H   0  0  0  0  0  0  0  0  0  0  0  0
  144.5757  141.0138  153.8465 H   0  0  0  0  0  0  0  0  0  0  0  0
  1  2  1  0  0  0  0
  1 21  1  0  0  0  0
  1 22  1  0  0  0  0
  2  3  2  0  0  0  0
  2  4  1  0  0  0  0
  4  5  1  0  0  0  0
  4 23  1  0  0  0  0
  4 24  1  0  0  0  0
  5 19  1  0  0  0  0
  5  6  1  0  0  0  0
  5 38  1  0  0  0  0
  6  7  1  0  0  0  0
  6 25  1  0  0  0  0
  6 26  1  0  0  0  0
  7  8  1  0  0  0  0
  7 27  1  0  0  0  0
  7 28  1  0  0  0  0
  8  9  1  0  0  0  0
  8 18  1  0  0  0  0
  8 29  1  0  0  0  0
  9 10  1  0  0  0  0
  9 30  1  0  0  0  0
 10 11  2  0  0  0  0
 10 12  1  0  0  0  0
 12 13  1  0  0  0  0
 12 31  1  0  0  0  0
 13 17  2  0  0  0  0
 13 14  1  0  0  0  0
 14 15  2  0  0  0  0
 14 32  1  0  0  0  0
 15 16  1  0  0  0  0
 16 20  1  0  0  0  0
 16 17  1  0  0  0  0
 17 33  1  0  0  0  0
 18 19  1  0  0  0  0
 18 34  1  0  0  0  0
 18 35  1  0  0  0  0
 19 36  1  0  0  0  0
 19 37  1  0  0  0  0
M  CHG  1   5   1
M  END
> <s_m_source_file>
AV-unprocessed.smi

> <i_m_source_file_index>
1399

> <i_lp_mmshare_version>
43012

> <i_f3d_flags>
0

> <s_epik_input>
W05IMl1DKD1PKVtDSDJdTjFbQ0gyXVtDSDJdW0NIXShbQ0gyXVtDSDJdMSlbTkhdQyg9TylbTkhdYzJbY0hdbltuSF1bY0hdMg==

> <s_epik_cmdline>
J2VwaWtfcHl0aG9uJywgJy1waCcsICc3LjAnLCAnLXRuJywgJzgnLCAnLW1hJywgJzIwMCcsICctbWV0YWxfYmluZGluZycsICctaW1hZScsICc8aW5maWxlLm1hZT4nLCAnLW9tYWUnLCAnPG91dGZpbGUubWFlPic=

> <r_lp_tautomer_probability>
0.5

> <r_epik_Ionization_Penalty>
0.838927

> <r_epik_Ionization_Penalty_Charging>
0.838844

> <r_epik_Ionization_Penalty_Neutral>
8.28742e-05

> <r_epik_State_Penalty>
0.8734

> <r_epik_Charging_Adjusted_Penalty>
1.71224

> <i_epik_Tot_Q>
1

> <i_epik_Tot_abs_Q>
1

> <r_epik_Metal_State_Penalty>
0.890702

> <b_epik_Metal_Only>
0

> <s_lp_Force_Field>
OPLS_2005

> <r_lp_Energy>
14.6422

> <b_lp_Chiralities_Consistent>
1

> <s_lp_Variant>
AV-unprocessed.smi:1399-3

> <Gold.Version>
5.8.1

> <Gold.Id.Protein>
6NUR|6NUR_protein|mol2

> <Gold.PLP.Fitness>
43.5479

> <Gold.PLP.PLP>
-28.0145

> <Gold.PLP.part.hbond>
-6.0000

> <Gold.PLP.part.metal>
0.0000

> <Gold.PLP.part.buried>
-2.9025

> <Gold.PLP.part.nonpolar>
-18.8007

> <Gold.PLP.part.repulsive>
0.7946

> <Gold.PLP.ligand.clash>
0.0000

> <Gold.PLP.ligand.torsion>
0.3434

> <Gold.PLP.Chemscore.Hbond>
5.3972

> <Gold.PLP.Chemscore.CHOScore>
0.0000

> <Gold.PLP.Chemscore.Metal>
0.0000

> <Gold.Chemscore.Hbonds>
donor molecule, donor type, donor heavy atom, donor atom, acceptor molecule, acceptor atom, score
      L1  H     1    22       P1 10175  0.65
      L1  H     5    38       P1 10175  2.00
      L1  H     9    30       P1  8028  0.90
      P1  H  7989  7998       L1    11  0.35
      P1  H  7997  8010       L1    15  0.75

> <Gold.PLP.Chemscore.Internal.Correction>
0.0286

> <Gold.Rescore>
     Score         DG    S(hbond)    S(metal)    S(lipo)     H(rot)  DE(clash)    DE(int)     intcor
     15.93     -19.33       3.97        0.00      50.66       2.09       0.43       2.97       ----

> <Gold.Chemscore.Fitness>
15.9341

> <Gold.Chemscore.DG>
-19.3285

> <Gold.Chemscore.ZeroCoef>
-5.4800

> <Gold.Chemscore.Hbond>
3.9710

> <Gold.Chemscore.Metal>
0.0000

> <Gold.Chemscore.Lipo>
50.6568

> <Gold.Chemscore.Internal_Hbond>
0.0000

> <Gold.Chemscore.DEClash>
0.4290

> <Gold.Chemscore.DEInternal>
2.9654

> <Gold.Chemscore.Rot>
2.0865

> <Gold.Chemscore.Internal.Correction>
   9.000000E+99

> <Gold.Chemscore.Hbonds>
donor molecule, donor type, donor heavy atom, donor atom, acceptor molecule, acceptor atom, score
      L1  H     1    22       P1 10175  0.05
      L1  H     5    38       P1 10175  0.78
      L1  H     9    30       P1  8028  0.88
      P1  H  7989  7998       L1    11  0.08
      P1  H  7997  8010       L1    15  0.06

> <Gold.Chemscore.Hbond.Weighted>
-13.2632

> <Gold.Chemscore.Metal.Weighted>
-0.0000

> <Gold.Chemscore.Lipo.Weighted>
-5.9268

> <Gold.Chemscore.Internal_Hbond.Weighted>
0.0000

> <Gold.Chemscore.DEClash.Weighted>
0.4290

> <Gold.Chemscore.DEInternal.Weighted>
2.9654

> <Gold.Chemscore.Rot.Weighted>
5.3415

> <Gold.Chemscore.Internal.Correction.Weighted>
   9.000000E+99

> <Gold.Protein.RotatedTorsions>
[ 6907 6896 6895 6894 ] final    5.50 input  -60.11 | X-H torsion
[ 7974 7965 7964 7962 ] final -157.91 input  175.53 | X-H torsion
[ 8008 7997 7996 7995 ] final   54.11 input   59.86 | X-H torsion
[ 10167 10162 10161 10158 ] final -113.42 input  -65.29 | X-H torsion
[ 10718 10713 10712 10709 ] final  168.52 input   66.30 | X-H torsion
[ 10763 10752 10751 10750 ] final   62.35 input  -60.55 | X-H torsion
[ 11005 11000 10999 10996 ] final  157.97 input  -57.11 | X-H torsion

> <Gold.Protein.ActiveResidues>
 VAL166  LYS551  ARG553  GLY616  TRP617  ASP618  TYR619  PRO620  LYS621  CYS622 
 ASP623  PHE694  ASN695  SER759  ASP760  ASP761  ALA762  ILE779  LEU786  VAL792 
 PHE793  MET794  SER795  GLU796  ALA797  LYS798  CYS799  TRP800  GLU811  SER814 

> <Gold.Protein.RotatedAtoms>
  151.6585  135.0992  160.0174 H   0  0  0  0  0  0  0  0  0  0  0  0  # atno 6907 bound_to 6896
  152.3960  133.6743  159.6285 H   0  0  0  0  0  0  0  0  0  0  0  0  # atno 6908 bound_to 6896
  150.7867  133.8790  159.3321 H   0  0  0  0  0  0  0  0  0  0  0  0  # atno 6909 bound_to 6896
  144.7528  140.3903  143.6035 H   0  0  0  0  0  0  0  0  0  0  0  0  # atno 7974 bound_to 7965
  155.4793  140.3468  155.4337 H   0  0  0  0  0  0  0  0  0  0  0  0  # atno 8008 bound_to 7997
  156.1049  140.1445  156.9446 H   0  0  0  0  0  0  0  0  0  0  0  0  # atno 8009 bound_to 7997
  154.4718  140.0898  156.7141 H   0  0  0  0  0  0  0  0  0  0  0  0  # atno 8010 bound_to 7997
  140.1120  143.4519  152.1746 H   0  0  0  0  0  0  0  0  0  0  0  0  # atno 10167 bound_to 10162
  157.0360  131.0273  151.2729 H   0  0  0  0  0  0  0  0  0  0  0  0  # atno 10718 bound_to 10713
  152.9980  135.5468  154.6179 H   0  0  0  0  0  0  0  0  0  0  0  0  # atno 10763 bound_to 10752
  154.5485  135.2825  155.1033 H   0  0  0  0  0  0  0  0  0  0  0  0  # atno 10764 bound_to 10752
  154.2282  135.6438  153.5219 H   0  0  0  0  0  0  0  0  0  0  0  0  # atno 10765 bound_to 10752
  140.1820  134.8469  157.2814 H   0  0  0  0  0  0  0  0  0  0  0  0  # atno 11005 bound_to 11000
  145.6884  139.1633  143.2661 LP  0  0  0  0  0  0  0  0  0  0  0  0  # atno 17320 bound_to 7965
  146.1500  140.6938  142.9326 LP  0  0  0  0  0  0  0  0  0  0  0  0  # atno 17321 bound_to 7965
  139.5614  144.7408  151.4145 LP  0  0  0  0  0  0  0  0  0  0  0  0  # atno 17342 bound_to 10162
  140.6920  143.7839  150.7269 LP  0  0  0  0  0  0  0  0  0  0  0  0  # atno 17343 bound_to 10162
  157.5141  130.7957  149.7737 LP  0  0  0  0  0  0  0  0  0  0  0  0  # atno 17370 bound_to 10713
  156.0054  130.3858  150.2451 LP  0  0  0  0  0  0  0  0  0  0  0  0  # atno 17371 bound_to 10713
  140.2256  134.3970  155.7545 LP  0  0  0  0  0  0  0  0  0  0  0  0  # atno 17394 bound_to 11000
  141.2223  133.7188  156.8560 LP  0  0  0  0  0  0  0  0  0  0  0  0  # atno 17395 bound_to 11000

$$$$
