AV-unprocessed.smi:1567|AV-procd|sdf|6307|dock5
  -GOLD-   22720 6503D 1   1.00000     0.00000
 Structure written by MMmdl.
 42 44  0  0  0  0  0  0  0  0  1 V2000
  150.1206  140.5466  153.8455 O   0  0  0  0  0  0  0  0  0  0  0  0
  150.0152  139.4344  154.7069 C   0  0  0  0  0  0  0  0  0  0  0  0
  151.4176  138.9631  155.1197 C   0  0  0  0  0  0  0  0  0  0  0  0
  151.6314  138.8925  156.6430 C   0  0  0  0  0  0  0  0  0  0  0  0
  151.7627  140.2395  157.2999 C   0  0  0  0  0  0  0  0  0  0  0  0
  151.4351  141.3582  156.6510 N   0  0  0  0  0  0  0  0  0  0  0  0
  151.6813  142.3421  157.5870 C   0  0  0  0  0  0  0  0  0  0  0  0
  151.5450  143.7461  157.5005 C   0  0  0  0  0  0  0  0  0  0  0  0
  151.8591  144.5630  158.6063 C   0  0  0  0  0  0  0  0  0  0  0  0
  152.3114  143.9887  159.8117 C   0  0  0  0  0  0  0  0  0  0  0  0
  152.4526  142.5917  159.9188 C   0  0  0  0  0  0  0  0  0  0  0  0
  152.1392  141.7804  158.8114 C   0  0  0  0  0  0  0  0  0  0  0  0
  152.1637  140.4061  158.5883 N   0  0  0  0  0  0  0  0  0  0  0  0
  152.5379  139.3929  159.5672 C   0  0  0  0  0  0  0  0  0  0  0  0
  153.4684  138.3101  158.9877 C   0  0  1  0  0  0  0  0  0  0  0  0
  154.5788  138.9161  158.3528 O   0  0  0  0  0  0  0  0  0  0  0  0
  153.8854  137.3120  160.0586 C   0  0  0  0  0  0  0  0  0  0  0  0
  153.5764  137.5526  161.4162 C   0  0  0  0  0  0  0  0  0  0  0  0
  153.9538  136.6266  162.4075 C   0  0  0  0  0  0  0  0  0  0  0  0
  153.6544  136.8662  163.7059 F   0  0  0  0  0  0  0  0  0  0  0  0
  154.6411  135.4515  162.0486 C   0  0  0  0  0  0  0  0  0  0  0  0
  154.9466  135.2020  160.6973 C   0  0  0  0  0  0  0  0  0  0  0  0
  154.5683  136.1262  159.7035 C   0  0  0  0  0  0  0  0  0  0  0  0
  154.8622  135.8649  158.4069 F   0  0  0  0  0  0  0  0  0  0  0  0
  149.7989  140.2984  152.9922 H   0  0  0  0  0  0  0  0  0  0  0  0
  149.4359  139.7273  155.5822 H   0  0  0  0  0  0  0  0  0  0  0  0
  149.4679  138.6421  154.1951 H   0  0  0  0  0  0  0  0  0  0  0  0
  151.6186  137.9847  154.6808 H   0  0  0  0  0  0  0  0  0  0  0  0
  152.1584  139.6408  154.6936 H   0  0  0  0  0  0  0  0  0  0  0  0
  150.7862  138.3785  157.1017 H   0  0  0  0  0  0  0  0  0  0  0  0
  152.5035  138.2736  156.8456 H   0  0  0  0  0  0  0  0  0  0  0  0
  151.1991  144.1950  156.5813 H   0  0  0  0  0  0  0  0  0  0  0  0
  151.7523  145.6350  158.5294 H   0  0  0  0  0  0  0  0  0  0  0  0
  152.5505  144.6210  160.6543 H   0  0  0  0  0  0  0  0  0  0  0  0
  152.8014  142.1503  160.8404 H   0  0  0  0  0  0  0  0  0  0  0  0
  153.0232  139.8883  160.4088 H   0  0  0  0  0  0  0  0  0  0  0  0
  151.6317  138.9460  159.9763 H   0  0  0  0  0  0  0  0  0  0  0  0
  152.9361  137.7708  158.2074 H   0  0  0  0  0  0  0  0  0  0  0  0
  155.3671  138.6324  158.7902 H   0  0  0  0  0  0  0  0  0  0  0  0
  153.0447  138.4484  161.7026 H   0  0  0  0  0  0  0  0  0  0  0  0
  154.9307  134.7410  162.8088 H   0  0  0  0  0  0  0  0  0  0  0  0
  155.4703  134.2985  160.4219 H   0  0  0  0  0  0  0  0  0  0  0  0
  1  2  1  0  0  0  0
  1 25  1  0  0  0  0
  2  3  1  0  0  0  0
  2 26  1  0  0  0  0
  2 27  1  0  0  0  0
  3  4  1  0  0  0  0
  3 28  1  0  0  0  0
  3 29  1  0  0  0  0
  4  5  1  0  0  0  0
  4 30  1  0  0  0  0
  4 31  1  0  0  0  0
  5 13  1  0  0  0  0
  5  6  2  0  0  0  0
  6  7  1  0  0  0  0
  7 12  2  0  0  0  0
  7  8  1  0  0  0  0
  8  9  2  0  0  0  0
  8 32  1  0  0  0  0
  9 10  1  0  0  0  0
  9 33  1  0  0  0  0
 10 11  2  0  0  0  0
 10 34  1  0  0  0  0
 11 12  1  0  0  0  0
 11 35  1  0  0  0  0
 12 13  1  0  0  0  0
 13 14  1  0  0  0  0
 14 15  1  0  0  0  0
 14 36  1  0  0  0  0
 14 37  1  0  0  0  0
 15 16  1  0  0  0  0
 15 17  1  0  0  0  0
 15 38  1  0  0  0  0
 16 39  1  0  0  0  0
 17 23  1  0  0  0  0
 17 18  2  0  0  0  0
 18 19  1  0  0  0  0
 18 40  1  0  0  0  0
 19 20  1  0  0  0  0
 19 21  2  0  0  0  0
 21 22  1  0  0  0  0
 21 41  1  0  0  0  0
 22 23  2  0  0  0  0
 22 42  1  0  0  0  0
 23 24  1  0  0  0  0
M  END
> <s_m_source_file>
AV-unprocessed.smi

> <i_m_source_file_index>
1567

> <i_lp_mmshare_version>
43012

> <i_f3d_flags>
0

> <s_epik_input>
W09IXVtDSDJdW0NIMl1bQ0gyXWMobjEpbihjKGMxMilbY0hdW2NIXVtjSF1bY0hdMilbQ0gyXVtDQEhdKFtPSF0pYzNbY0hdYyhGKVtjSF1bY0hdYzNG

> <s_epik_cmdline>
J2VwaWtfcHl0aG9uJywgJy1waCcsICc3LjAnLCAnLXRuJywgJzgnLCAnLW1hJywgJzIwMCcsICctbWV0YWxfYmluZGluZycsICctaW1hZScsICc8aW5maWxlLm1hZT4nLCAnLW9tYWUnLCAnPG91dGZpbGUubWFlPic=

> <r_epik_Ionization_Penalty>
0.182562

> <r_epik_Ionization_Penalty_Charging>
0

> <r_epik_Ionization_Penalty_Neutral>
0.182562

> <r_epik_State_Penalty>
0.172086

> <r_epik_Charging_Adjusted_Penalty>
0.172086

> <i_epik_Tot_Q>
0

> <i_epik_Tot_abs_Q>
0

> <r_epik_Metal_State_Penalty>
0.000199649

> <b_epik_Metal_Only>
0

> <s_lp_Force_Field>
OPLS_2005

> <r_lp_Energy>
10.1612

> <b_lp_Chiralities_Consistent>
1

> <s_lp_Variant>
AV-unprocessed.smi:1567-2

> <Gold.Version>
5.8.1

> <Gold.Id.Protein>
6NUR|6NUR_protein|mol2

> <Gold.PLP.Fitness>
55.4197

> <Gold.PLP.PLP>
-49.0179

> <Gold.PLP.part.hbond>
-2.5596

> <Gold.PLP.part.metal>
0.0000

> <Gold.PLP.part.buried>
-4.5484

> <Gold.PLP.part.nonpolar>
-40.8510

> <Gold.PLP.part.repulsive>
0.0326

> <Gold.PLP.ligand.clash>
0.0000

> <Gold.PLP.ligand.torsion>
0.8746

> <Gold.PLP.Chemscore.Hbond>
2.6880

> <Gold.PLP.Chemscore.CHOScore>
0.0000

> <Gold.PLP.Chemscore.Metal>
0.0000

> <Gold.Chemscore.Hbonds>
donor molecule, donor type, donor heavy atom, donor atom, acceptor molecule, acceptor atom, score
      L1  H     1    25       P1  7957  1.00
      P1  H  7989  7998       L1     1  0.62
      P1  H  7997  8009       L1    16  1.00

> <Gold.PLP.Chemscore.Internal.Correction>
0.0871

> <Gold.Rescore>
     Score         DG    S(hbond)    S(metal)    S(lipo)     H(rot)  DE(clash)    DE(int)     intcor
     18.06     -20.71       2.54        0.00     128.35       3.23       0.10       2.55       ----

> <Gold.Chemscore.Fitness>
18.0580

> <Gold.Chemscore.DG>
-20.7054

> <Gold.Chemscore.ZeroCoef>
-5.4800

> <Gold.Chemscore.Hbond>
2.5365

> <Gold.Chemscore.Metal>
0.0000

> <Gold.Chemscore.Lipo>
128.3548

> <Gold.Chemscore.Internal_Hbond>
0.0000

> <Gold.Chemscore.DEClash>
0.0998

> <Gold.Chemscore.DEInternal>
2.5476

> <Gold.Chemscore.Rot>
3.2281

> <Gold.Chemscore.Internal.Correction>
   9.000000E+99

> <Gold.Chemscore.Hbonds>
donor molecule, donor type, donor heavy atom, donor atom, acceptor molecule, acceptor atom, score
      L1  H     1    25       P1  7957  1.00
      P1  H  7989  7998       L1     1  0.12
      P1  H  7997  8009       L1    16  0.34

> <Gold.Chemscore.Hbond.Weighted>
-8.4718

> <Gold.Chemscore.Metal.Weighted>
-0.0000

> <Gold.Chemscore.Lipo.Weighted>
-15.0175

> <Gold.Chemscore.Internal_Hbond.Weighted>
0.0000

> <Gold.Chemscore.DEClash.Weighted>
0.0998

> <Gold.Chemscore.DEInternal.Weighted>
2.5476

> <Gold.Chemscore.Rot.Weighted>
8.2639

> <Gold.Chemscore.Internal.Correction.Weighted>
   9.000000E+99

> <Gold.Protein.RotatedTorsions>
[ 6907 6896 6895 6894 ] final  -82.88 input  -60.11 | X-H torsion
[ 7974 7965 7964 7962 ] final  -23.22 input  175.53 | X-H torsion
[ 8008 7997 7996 7995 ] final  118.51 input   59.86 | X-H torsion
[ 10167 10162 10161 10158 ] final   74.71 input  -65.29 | X-H torsion
[ 10718 10713 10712 10709 ] final -126.83 input   66.30 | X-H torsion
[ 10763 10752 10751 10750 ] final  -41.96 input  -60.55 | X-H torsion
[ 11005 11000 10999 10996 ] final  176.65 input  -57.11 | X-H torsion

> <Gold.Protein.ActiveResidues>
 VAL166  LYS551  ARG553  GLY616  TRP617  ASP618  TYR619  PRO620  LYS621  CYS622 
 ASP623  PHE694  ASN695  SER759  ASP760  ASP761  ALA762  ILE779  LEU786  VAL792 
 PHE793  MET794  SER795  GLU796  ALA797  LYS798  CYS799  TRP800  GLU811  SER814 

> <Gold.Protein.RotatedAtoms>
  150.6892  134.3598  159.4945 H   0  0  0  0  0  0  0  0  0  0  0  0  # atno 6907 bound_to 6896
  152.1428  134.9046  160.0562 H   0  0  0  0  0  0  0  0  0  0  0  0  # atno 6908 bound_to 6896
  152.0173  133.3850  159.4281 H   0  0  0  0  0  0  0  0  0  0  0  0  # atno 6909 bound_to 6896
  146.1629  140.4586  142.8564 H   0  0  0  0  0  0  0  0  0  0  0  0  # atno 7974 bound_to 7965
  156.2550  140.2873  156.0845 H   0  0  0  0  0  0  0  0  0  0  0  0  # atno 8008 bound_to 7997
  155.1530  140.0398  157.2843 H   0  0  0  0  0  0  0  0  0  0  0  0  # atno 8009 bound_to 7997
  154.6447  140.2530  155.7288 H   0  0  0  0  0  0  0  0  0  0  0  0  # atno 8010 bound_to 7997
  140.0108  144.5615  150.7660 H   0  0  0  0  0  0  0  0  0  0  0  0  # atno 10167 bound_to 10162
  156.1801  130.6726  151.0293 H   0  0  0  0  0  0  0  0  0  0  0  0  # atno 10718 bound_to 10713
  153.9711  135.6728  153.4747 H   0  0  0  0  0  0  0  0  0  0  0  0  # atno 10763 bound_to 10752
  153.0792  135.4932  154.8465 H   0  0  0  0  0  0  0  0  0  0  0  0  # atno 10764 bound_to 10752
  154.7218  135.3119  154.8995 H   0  0  0  0  0  0  0  0  0  0  0  0  # atno 10765 bound_to 10752
  140.3755  134.6993  157.4419 H   0  0  0  0  0  0  0  0  0  0  0  0  # atno 11005 bound_to 11000
  144.8052  140.6287  143.6451 LP  0  0  0  0  0  0  0  0  0  0  0  0  # atno 17320 bound_to 7965
  145.4541  139.1520  143.3902 LP  0  0  0  0  0  0  0  0  0  0  0  0  # atno 17321 bound_to 7965
  140.7382  143.2775  151.3697 LP  0  0  0  0  0  0  0  0  0  0  0  0  # atno 17342 bound_to 10162
  139.6206  144.0914  152.2388 LP  0  0  0  0  0  0  0  0  0  0  0  0  # atno 17343 bound_to 10162
  157.6862  131.0824  150.7235 LP  0  0  0  0  0  0  0  0  0  0  0  0  # atno 17370 bound_to 10713
  156.7292  130.4704  149.5503 LP  0  0  0  0  0  0  0  0  0  0  0  0  # atno 17371 bound_to 10713
  140.0519  134.6119  155.8852 LP  0  0  0  0  0  0  0  0  0  0  0  0  # atno 17394 bound_to 11000
  141.1941  133.6581  156.5578 LP  0  0  0  0  0  0  0  0  0  0  0  0  # atno 17395 bound_to 11000

$$$$
