AV-unprocessed.smi:1868|AV-procd|sdf|7588|dock9
  -GOLD-   22720 9303D 1   1.00000     0.00000
 Structure written by MMmdl.
 48 50  0  0  0  0  0  0  0  0  3 V2000
  147.9727  141.3414  153.5976 C   0  0  0  0  0  0  0  0  0  0  0  0
  149.0589  141.1671  154.6053 C   0  0  0  0  0  0  0  0  0  0  0  0
  149.4906  142.1114  155.4880 N   0  3  0  0  0  0  0  0  0  0  0  0
  150.5176  141.5886  156.2750 C   0  0  0  0  0  0  0  0  0  0  0  0
  151.2627  142.1623  157.3004 C   0  0  0  0  0  0  0  0  0  0  0  0
  152.2425  141.3466  157.9034 C   0  0  0  0  0  0  0  0  0  0  0  0
  152.4514  140.0168  157.4827 C   0  0  0  0  0  0  0  0  0  0  0  0
  151.6900  139.4459  156.4413 C   0  0  0  0  0  0  0  0  0  0  0  0
  150.7235  140.2597  155.8508 C   0  0  0  0  0  0  0  0  0  0  0  0
  149.8040  140.0440  154.8184 N   0  0  0  0  0  0  0  0  0  0  0  0
  149.7618  138.7311  154.1552 C   0  0  0  0  0  0  0  0  0  0  0  0
  149.3694  137.5829  155.1072 C   0  0  2  0  0  0  0  0  0  0  0  0
  149.9593  136.3816  154.6466 O   0  0  0  0  0  0  0  0  0  0  0  0
  147.8378  137.4058  155.1687 C   0  0  0  0  0  0  0  0  0  0  0  0
  147.2626  136.8222  153.9285 N   0  3  2  0  0  0  0  0  0  0  0  0
  146.4108  137.7959  153.1972 C   0  0  0  0  0  0  0  0  0  0  0  0
  145.9384  137.2233  151.8503 C   0  0  0  0  0  0  0  0  0  0  0  0
  145.1865  135.8958  152.0407 C   0  0  1  0  0  0  0  0  0  0  0  0
  144.7361  135.2991  150.6999 C   0  0  0  0  0  0  0  0  0  0  0  0
  146.0762  134.9204  152.8289 C   0  0  0  0  0  0  0  0  0  0  0  0
  146.5453  135.5391  154.1566 C   0  0  0  0  0  0  0  0  0  0  0  0
  147.5213  142.3299  153.6875 H   0  0  0  0  0  0  0  0  0  0  0  0
  147.1956  140.5917  153.7469 H   0  0  0  0  0  0  0  0  0  0  0  0
  148.3729  141.2335  152.5894 H   0  0  0  0  0  0  0  0  0  0  0  0
  151.1038  143.1802  157.6255 H   0  0  0  0  0  0  0  0  0  0  0  0
  152.8451  141.7485  158.7051 H   0  0  0  0  0  0  0  0  0  0  0  0
  153.2104  139.4224  157.9706 H   0  0  0  0  0  0  0  0  0  0  0  0
  151.8571  138.4264  156.1277 H   0  0  0  0  0  0  0  0  0  0  0  0
  149.0695  138.7945  153.3149 H   0  0  0  0  0  0  0  0  0  0  0  0
  150.7466  138.5459  153.7247 H   0  0  0  0  0  0  0  0  0  0  0  0
  149.7720  137.8004  156.0955 H   0  0  0  0  0  0  0  0  0  0  0  0
  149.5839  136.1549  153.8097 H   0  0  0  0  0  0  0  0  0  0  0  0
  147.5607  136.7771  156.0165 H   0  0  0  0  0  0  0  0  0  0  0  0
  147.3881  138.3822  155.3585 H   0  0  0  0  0  0  0  0  0  0  0  0
  145.5524  138.0662  153.8143 H   0  0  0  0  0  0  0  0  0  0  0  0
  146.9714  138.7135  153.0151 H   0  0  0  0  0  0  0  0  0  0  0  0
  145.2960  137.9484  151.3491 H   0  0  0  0  0  0  0  0  0  0  0  0
  146.7994  137.0716  151.1975 H   0  0  0  0  0  0  0  0  0  0  0  0
  144.2911  136.0931  152.6322 H   0  0  0  0  0  0  0  0  0  0  0  0
  145.5886  135.0777  150.0569 H   0  0  0  0  0  0  0  0  0  0  0  0
  144.0840  135.9882  150.1624 H   0  0  0  0  0  0  0  0  0  0  0  0
  144.1821  134.3720  150.8493 H   0  0  0  0  0  0  0  0  0  0  0  0
  145.5313  133.9970  153.0285 H   0  0  0  0  0  0  0  0  0  0  0  0
  146.9447  134.6419  152.2300 H   0  0  0  0  0  0  0  0  0  0  0  0
  147.1905  134.8245  154.6653 H   0  0  0  0  0  0  0  0  0  0  0  0
  145.6892  135.7105  154.8111 H   0  0  0  0  0  0  0  0  0  0  0  0
  148.0418  136.6225  153.3180 H   0  0  0  0  0  0  0  0  0  0  0  0
  149.1077  143.0463  155.5468 H   0  0  0  0  0  0  0  0  0  0  0  0
  1  2  1  0  0  0  0
  1 22  1  0  0  0  0
  1 23  1  0  0  0  0
  1 24  1  0  0  0  0
  2 10  1  0  0  0  0
  2  3  2  0  0  0  0
  3  4  1  0  0  0  0
  3 48  1  0  0  0  0
  4  9  2  0  0  0  0
  4  5  1  0  0  0  0
  5  6  2  0  0  0  0
  5 25  1  0  0  0  0
  6  7  1  0  0  0  0
  6 26  1  0  0  0  0
  7  8  2  0  0  0  0
  7 27  1  0  0  0  0
  8  9  1  0  0  0  0
  8 28  1  0  0  0  0
  9 10  1  0  0  0  0
 10 11  1  0  0  0  0
 11 12  1  0  0  0  0
 11 29  1  0  0  0  0
 11 30  1  0  0  0  0
 12 13  1  0  0  0  0
 12 14  1  0  0  0  0
 12 31  1  0  0  0  0
 13 32  1  0  0  0  0
 14 15  1  0  0  0  0
 14 33  1  0  0  0  0
 14 34  1  0  0  0  0
 15 21  1  0  0  0  0
 15 16  1  0  0  0  0
 15 47  1  0  0  0  0
 16 17  1  0  0  0  0
 16 35  1  0  0  0  0
 16 36  1  0  0  0  0
 17 18  1  0  0  0  0
 17 37  1  0  0  0  0
 17 38  1  0  0  0  0
 18 19  1  0  0  0  0
 18 20  1  0  0  0  0
 18 39  1  0  0  0  0
 19 40  1  0  0  0  0
 19 41  1  0  0  0  0
 19 42  1  0  0  0  0
 20 21  1  0  0  0  0
 20 43  1  0  0  0  0
 20 44  1  0  0  0  0
 21 45  1  0  0  0  0
 21 46  1  0  0  0  0
M  CHG  1   3   1
M  CHG  1  15   1
M  END
> <s_m_source_file>
AV-unprocessed.smi

> <i_m_source_file_index>
1868

> <i_lp_mmshare_version>
43012

> <i_f3d_flags>
0

> <s_epik_input>
W2NIXTFbY0hdW2NIXVtjSF1jKGMxMiluKGMobjIpW0NIM10pW0NIMl1bQ0BIXShbT0hdKVtDSDJdTjNbQ0gyXVtDSDJdW0NIXShbQ0gzXSlbQ0gyXVtDSDJdMw==

> <s_epik_cmdline>
J2VwaWtfcHl0aG9uJywgJy1waCcsICc3LjAnLCAnLXRuJywgJzgnLCAnLW1hJywgJzIwMCcsICctbWV0YWxfYmluZGluZycsICctaW1hZScsICc8aW5maWxlLm1hZT4nLCAnLW9tYWUnLCAnPG91dGZpbGUubWFlPic=

> <r_epik_Ionization_Penalty>
1.10901

> <r_epik_Ionization_Penalty_Charging>
1.10901

> <r_epik_Ionization_Penalty_Neutral>
6.90208e-07

> <r_epik_State_Penalty>
1.18788

> <r_epik_Charging_Adjusted_Penalty>
2.29689

> <i_epik_Tot_Q>
2

> <i_epik_Tot_abs_Q>
2

> <r_epik_Metal_State_Penalty>
5.19353

> <b_epik_Metal_Only>
0

> <s_lp_Force_Field>
OPLS_2005

> <r_lp_Energy>
30.2902

> <b_lp_Chiralities_Consistent>
1

> <s_lp_Variant>
AV-unprocessed.smi:1868-5

> <Gold.Version>
5.8.1

> <Gold.Id.Protein>
6NUR|6NUR_protein|mol2

> <Gold.PLP.Fitness>
49.3319

> <Gold.PLP.PLP>
-36.5926

> <Gold.PLP.part.hbond>
-3.0000

> <Gold.PLP.part.metal>
0.0000

> <Gold.PLP.part.buried>
-2.5392

> <Gold.PLP.part.nonpolar>
-31.8356

> <Gold.PLP.part.repulsive>
0.1699

> <Gold.PLP.ligand.clash>
0.0000

> <Gold.PLP.ligand.torsion>
1.1525

> <Gold.PLP.Chemscore.Hbond>
5.0000

> <Gold.PLP.Chemscore.CHOScore>
0.0000

> <Gold.PLP.Chemscore.Metal>
0.0000

> <Gold.Chemscore.Hbonds>
donor molecule, donor type, donor heavy atom, donor atom, acceptor molecule, acceptor atom, score
      L1  H     3    48       P1  8028  2.00
      L1  H    13    32       P1  7948  1.00
      L1  H    15    47       P1  7948  2.00

> <Gold.PLP.Chemscore.Internal.Correction>
0.0443

> <Gold.Rescore>
     Score         DG    S(hbond)    S(metal)    S(lipo)     H(rot)  DE(clash)    DE(int)     intcor
     18.43     -19.89       2.87        0.00      84.68       1.99       0.18       1.28       ----

> <Gold.Chemscore.Fitness>
18.4327

> <Gold.Chemscore.DG>
-19.8922

> <Gold.Chemscore.ZeroCoef>
-5.4800

> <Gold.Chemscore.Hbond>
2.8712

> <Gold.Chemscore.Metal>
0.0000

> <Gold.Chemscore.Lipo>
84.6788

> <Gold.Chemscore.Internal_Hbond>
0.0000

> <Gold.Chemscore.DEClash>
0.1796

> <Gold.Chemscore.DEInternal>
1.2800

> <Gold.Chemscore.Rot>
1.9863

> <Gold.Chemscore.Internal.Correction>
   9.000000E+99

> <Gold.Chemscore.Hbonds>
donor molecule, donor type, donor heavy atom, donor atom, acceptor molecule, acceptor atom, score
      L1  H     3    48       P1  8028  1.00
      L1  H    13    32       P1  7948  0.52
      L1  H    15    47       P1  7948  1.00

> <Gold.Chemscore.Hbond.Weighted>
-9.5899

> <Gold.Chemscore.Metal.Weighted>
-0.0000

> <Gold.Chemscore.Lipo.Weighted>
-9.9074

> <Gold.Chemscore.Internal_Hbond.Weighted>
0.0000

> <Gold.Chemscore.DEClash.Weighted>
0.1796

> <Gold.Chemscore.DEInternal.Weighted>
1.2800

> <Gold.Chemscore.Rot.Weighted>
5.0850

> <Gold.Chemscore.Internal.Correction.Weighted>
   9.000000E+99

> <Gold.Protein.RotatedTorsions>
[ 6907 6896 6895 6894 ] final   12.51 input  -60.11 | X-H torsion
[ 7974 7965 7964 7962 ] final  162.19 input  175.53 | X-H torsion
[ 8008 7997 7996 7995 ] final  -42.89 input   59.86 | X-H torsion
[ 10167 10162 10161 10158 ] final -164.86 input  -65.29 | X-H torsion
[ 10718 10713 10712 10709 ] final  -78.84 input   66.30 | X-H torsion
[ 10763 10752 10751 10750 ] final  122.41 input  -60.55 | X-H torsion
[ 11005 11000 10999 10996 ] final   22.54 input  -57.11 | X-H torsion

> <Gold.Protein.ActiveResidues>
 VAL166  LYS551  ARG553  GLY616  TRP617  ASP618  TYR619  PRO620  LYS621  CYS622 
 ASP623  PHE694  ASN695  SER759  ASP760  ASP761  ALA762  ILE779  LEU786  VAL792 
 PHE793  MET794  SER795  GLU796  ALA797  LYS798  CYS799  TRP800  GLU811  SER814 

> <Gold.Protein.RotatedAtoms>
  151.7716  135.0785  160.0360 H   0  0  0  0  0  0  0  0  0  0  0  0  # atno 6907 bound_to 6896
  152.3285  133.5927  159.5801 H   0  0  0  0  0  0  0  0  0  0  0  0  # atno 6908 bound_to 6896
  150.7409  133.9820  159.3621 H   0  0  0  0  0  0  0  0  0  0  0  0  # atno 6909 bound_to 6896
  144.7648  139.8005  143.6319 H   0  0  0  0  0  0  0  0  0  0  0  0  # atno 7974 bound_to 7965
  154.3998  140.1462  156.3429 H   0  0  0  0  0  0  0  0  0  0  0  0  # atno 8008 bound_to 7997
  155.8339  140.3464  155.5568 H   0  0  0  0  0  0  0  0  0  0  0  0  # atno 8009 bound_to 7997
  155.8158  140.0890  157.1868 H   0  0  0  0  0  0  0  0  0  0  0  0  # atno 8010 bound_to 7997
  139.6221  144.0603  152.1942 H   0  0  0  0  0  0  0  0  0  0  0  0  # atno 10167 bound_to 10162
  156.0107  130.4529  150.3558 H   0  0  0  0  0  0  0  0  0  0  0  0  # atno 10718 bound_to 10713
  153.6294  135.3399  155.3037 H   0  0  0  0  0  0  0  0  0  0  0  0  # atno 10763 bound_to 10752
  154.8583  135.4292  154.2122 H   0  0  0  0  0  0  0  0  0  0  0  0  # atno 10764 bound_to 10752
  153.3014  135.7025  153.7273 H   0  0  0  0  0  0  0  0  0  0  0  0  # atno 10765 bound_to 10752
  140.3794  134.1936  155.7664 H   0  0  0  0  0  0  0  0  0  0  0  0  # atno 11005 bound_to 11000
  146.1746  139.4911  142.9905 LP  0  0  0  0  0  0  0  0  0  0  0  0  # atno 17320 bound_to 7965
  145.6503  141.0264  143.1764 LP  0  0  0  0  0  0  0  0  0  0  0  0  # atno 17321 bound_to 7965
  140.0248  144.6126  150.7537 LP  0  0  0  0  0  0  0  0  0  0  0  0  # atno 17342 bound_to 10162
  140.7388  143.2784  151.3673 LP  0  0  0  0  0  0  0  0  0  0  0  0  # atno 17343 bound_to 10162
  157.1648  131.0354  151.2823 LP  0  0  0  0  0  0  0  0  0  0  0  0  # atno 17370 bound_to 10713
  157.4280  130.7474  149.6966 LP  0  0  0  0  0  0  0  0  0  0  0  0  # atno 17371 bound_to 10713
  141.1928  133.8164  157.0824 LP  0  0  0  0  0  0  0  0  0  0  0  0  # atno 17394 bound_to 11000
  140.0490  134.9815  157.1101 LP  0  0  0  0  0  0  0  0  0  0  0  0  # atno 17395 bound_to 11000

$$$$
