AV-unprocessed.smi:1545|AV-procd|sdf|6217|dock9
  -GOLD-   22720 6393D 1   1.00000     0.00000
 Structure written by MMmdl.
 41 43  0  0  0  0  0  0  0  0  1 V2000
  154.3791  136.2703  157.0243 O   0  0  0  0  0  0  0  0  0  0  0  0
  153.4165  136.4822  158.0341 C   0  0  0  0  0  0  0  0  0  0  0  0
  153.6495  137.8373  158.7183 C   0  0  0  0  0  0  0  0  0  0  0  0
  152.6394  138.8137  158.3536 N   0  0  0  0  0  0  0  0  0  0  0  0
  152.4504  140.1417  158.7189 C   0  0  0  0  0  0  0  0  0  0  0  0
  153.2468  140.8068  159.5534 N   0  0  0  0  0  0  0  0  0  0  0  0
  152.6489  142.0522  159.5997 C   0  0  0  0  0  0  0  0  0  0  0  0
  153.0094  143.2167  160.3148 C   0  0  0  0  0  0  0  0  0  0  0  0
  152.2326  144.3890  160.2088 C   0  0  0  0  0  0  0  0  0  0  0  0
  151.0864  144.4145  159.3879 C   0  0  0  0  0  0  0  0  0  0  0  0
  150.7097  143.2663  158.6650 C   0  0  0  0  0  0  0  0  0  0  0  0
  151.4886  142.0984  158.7729 C   0  0  0  0  0  0  0  0  0  0  0  0
  151.3980  140.8272  158.2134 N   0  0  0  0  0  0  0  0  0  0  0  0
  150.3753  140.3522  157.2906 C   0  0  0  0  0  0  0  0  0  0  0  0
  150.6396  140.7953  155.8378 C   0  0  1  0  0  0  0  0  0  0  0  0
  151.7768  140.1241  155.3304 O   0  0  0  0  0  0  0  0  0  0  0  0
  149.4144  140.5848  154.9626 C   0  0  0  0  0  0  0  0  0  0  0  0
  149.1420  139.3175  154.4012 C   0  0  0  0  0  0  0  0  0  0  0  0
  148.0020  139.1281  153.5960 C   0  0  0  0  0  0  0  0  0  0  0  0
  147.1278  140.2039  153.3484 C   0  0  0  0  0  0  0  0  0  0  0  0
  147.3923  141.4683  153.9087 C   0  0  0  0  0  0  0  0  0  0  0  0
  146.5500  142.5024  153.6740 F   0  0  0  0  0  0  0  0  0  0  0  0
  148.5317  141.6581  154.7147 C   0  0  0  0  0  0  0  0  0  0  0  0
  154.8447  137.0792  156.8772 H   0  0  0  0  0  0  0  0  0  0  0  0
  152.4378  136.4808  157.5539 H   0  0  0  0  0  0  0  0  0  0  0  0
  153.4229  135.6595  158.7501 H   0  0  0  0  0  0  0  0  0  0  0  0
  153.7040  137.7307  159.8024 H   0  0  0  0  0  0  0  0  0  0  0  0
  154.6097  138.2400  158.3956 H   0  0  0  0  0  0  0  0  0  0  0  0
  151.9185  138.4403  157.7538 H   0  0  0  0  0  0  0  0  0  0  0  0
  153.8842  143.2073  160.9477 H   0  0  0  0  0  0  0  0  0  0  0  0
  152.5168  145.2728  160.7612 H   0  0  0  0  0  0  0  0  0  0  0  0
  150.4958  145.3160  159.3146 H   0  0  0  0  0  0  0  0  0  0  0  0
  149.8302  143.2819  158.0385 H   0  0  0  0  0  0  0  0  0  0  0  0
  150.3250  139.2646  157.3550 H   0  0  0  0  0  0  0  0  0  0  0  0
  149.4053  140.7194  157.6283 H   0  0  0  0  0  0  0  0  0  0  0  0
  150.8816  141.8589  155.8343 H   0  0  0  0  0  0  0  0  0  0  0  0
  152.4642  140.1679  155.9774 H   0  0  0  0  0  0  0  0  0  0  0  0
  149.8060  138.4862  154.5886 H   0  0  0  0  0  0  0  0  0  0  0  0
  147.7979  138.1572  153.1689 H   0  0  0  0  0  0  0  0  0  0  0  0
  146.2538  140.0590  152.7305 H   0  0  0  0  0  0  0  0  0  0  0  0
  148.7242  142.6311  155.1421 H   0  0  0  0  0  0  0  0  0  0  0  0
  1  2  1  0  0  0  0
  1 24  1  0  0  0  0
  2  3  1  0  0  0  0
  2 25  1  0  0  0  0
  2 26  1  0  0  0  0
  3  4  1  0  0  0  0
  3 27  1  0  0  0  0
  3 28  1  0  0  0  0
  4  5  1  0  0  0  0
  4 29  1  0  0  0  0
  5 13  1  0  0  0  0
  5  6  2  0  0  0  0
  6  7  1  0  0  0  0
  7 12  2  0  0  0  0
  7  8  1  0  0  0  0
  8  9  2  0  0  0  0
  8 30  1  0  0  0  0
  9 10  1  0  0  0  0
  9 31  1  0  0  0  0
 10 11  2  0  0  0  0
 10 32  1  0  0  0  0
 11 12  1  0  0  0  0
 11 33  1  0  0  0  0
 12 13  1  0  0  0  0
 13 14  1  0  0  0  0
 14 15  1  0  0  0  0
 14 34  1  0  0  0  0
 14 35  1  0  0  0  0
 15 16  1  0  0  0  0
 15 17  1  0  0  0  0
 15 36  1  0  0  0  0
 16 37  1  0  0  0  0
 17 23  1  0  0  0  0
 17 18  2  0  0  0  0
 18 19  1  0  0  0  0
 18 38  1  0  0  0  0
 19 20  2  0  0  0  0
 19 39  1  0  0  0  0
 20 21  1  0  0  0  0
 20 40  1  0  0  0  0
 21 22  1  0  0  0  0
 21 23  2  0  0  0  0
 23 41  1  0  0  0  0
M  END
> <s_m_source_file>
AV-unprocessed.smi

> <i_m_source_file_index>
1545

> <i_lp_mmshare_version>
43012

> <i_f3d_flags>
0

> <s_epik_input>
W09IXVtDSDJdW0NIMl1bTkhdYyhuMSluKGMoYzEyKVtjSF1bY0hdW2NIXVtjSF0yKVtDSDJdW0NASF0oW09IXSljM1tjSF1bY0hdW2NIXWMoRilbY0hdMw==

> <s_epik_cmdline>
J2VwaWtfcHl0aG9uJywgJy1waCcsICc3LjAnLCAnLXRuJywgJzgnLCAnLW1hJywgJzIwMCcsICctbWV0YWxfYmluZGluZycsICctaW1hZScsICc8aW5maWxlLm1hZT4nLCAnLW9tYWUnLCAnPG91dGZpbGUubWFlPic=

> <r_epik_Ionization_Penalty>
1.30972

> <r_epik_Ionization_Penalty_Charging>
0

> <r_epik_Ionization_Penalty_Neutral>
1.30972

> <r_epik_State_Penalty>
1.38438

> <r_epik_Charging_Adjusted_Penalty>
1.38438

> <i_epik_Tot_Q>
0

> <i_epik_Tot_abs_Q>
0

> <r_epik_Metal_State_Penalty>
0.00551145

> <b_epik_Metal_Only>
0

> <s_lp_Force_Field>
OPLS_2005

> <r_lp_Energy>
10.2352

> <b_lp_Chiralities_Consistent>
1

> <s_lp_Variant>
AV-unprocessed.smi:1545-4

> <Gold.Version>
5.8.1

> <Gold.Id.Protein>
6NUR|6NUR_protein|mol2

> <Gold.PLP.Fitness>
50.3884

> <Gold.PLP.PLP>
-47.2747

> <Gold.PLP.part.hbond>
-2.0000

> <Gold.PLP.part.metal>
0.0000

> <Gold.PLP.part.buried>
-6.7471

> <Gold.PLP.part.nonpolar>
-39.4998

> <Gold.PLP.part.repulsive>
0.0778

> <Gold.PLP.ligand.clash>
0.0000

> <Gold.PLP.ligand.torsion>
1.2871

> <Gold.PLP.Chemscore.Hbond>
1.8800

> <Gold.PLP.Chemscore.CHOScore>
0.0000

> <Gold.PLP.Chemscore.Metal>
0.0000

> <Gold.Chemscore.Hbonds>
donor molecule, donor type, donor heavy atom, donor atom, acceptor molecule, acceptor atom, score
      P1  H  7989  7998       L1    16  0.70
      P1  H 10752 10764       L1     1  1.00

> <Gold.PLP.Chemscore.Internal.Correction>
0.0480

> <Gold.Rescore>
     Score         DG    S(hbond)    S(metal)    S(lipo)     H(rot)  DE(clash)    DE(int)     intcor
     15.59     -16.81       1.61        0.00     118.18       3.08       0.02       1.20       ----

> <Gold.Chemscore.Fitness>
15.5884

> <Gold.Chemscore.DG>
-16.8112

> <Gold.Chemscore.ZeroCoef>
-5.4800

> <Gold.Chemscore.Hbond>
1.6142

> <Gold.Chemscore.Metal>
0.0000

> <Gold.Chemscore.Lipo>
118.1844

> <Gold.Chemscore.Internal_Hbond>
0.0000

> <Gold.Chemscore.DEClash>
0.0183

> <Gold.Chemscore.DEInternal>
1.2045

> <Gold.Chemscore.Rot>
3.0812

> <Gold.Chemscore.Internal.Correction>
   9.000000E+99

> <Gold.Chemscore.Hbonds>
donor molecule, donor type, donor heavy atom, donor atom, acceptor molecule, acceptor atom, score
      P1  H  7989  7998       L1    16  0.10
      P1  H 10752 10764       L1     1  0.68

> <Gold.Chemscore.Hbond.Weighted>
-5.3914

> <Gold.Chemscore.Metal.Weighted>
-0.0000

> <Gold.Chemscore.Lipo.Weighted>
-13.8276

> <Gold.Chemscore.Internal_Hbond.Weighted>
0.0000

> <Gold.Chemscore.DEClash.Weighted>
0.0183

> <Gold.Chemscore.DEInternal.Weighted>
1.2045

> <Gold.Chemscore.Rot.Weighted>
7.8878

> <Gold.Chemscore.Internal.Correction.Weighted>
   9.000000E+99

> <Gold.Protein.RotatedTorsions>
[ 6907 6896 6895 6894 ] final -138.68 input  -60.11 | X-H torsion
[ 7974 7965 7964 7962 ] final  -30.69 input  175.53 | X-H torsion
[ 8008 7997 7996 7995 ] final -152.97 input   59.86 | X-H torsion
[ 10167 10162 10161 10158 ] final   -5.80 input  -65.29 | X-H torsion
[ 10718 10713 10712 10709 ] final   43.27 input   66.30 | X-H torsion
[ 10763 10752 10751 10750 ] final   38.95 input  -60.55 | X-H torsion
[ 11005 11000 10999 10996 ] final  136.58 input  -57.11 | X-H torsion

> <Gold.Protein.ActiveResidues>
 VAL166  LYS551  ARG553  GLY616  TRP617  ASP618  TYR619  PRO620  LYS621  CYS622 
 ASP623  PHE694  ASN695  SER759  ASP760  ASP761  ALA762  ILE779  LEU786  VAL792 
 PHE793  MET794  SER795  GLU796  ALA797  LYS798  CYS799  TRP800  GLU811  SER814 

> <Gold.Protein.RotatedAtoms>
  151.0381  133.5730  159.2653 H   0  0  0  0  0  0  0  0  0  0  0  0  # atno 6907 bound_to 6896
  151.2787  135.0706  159.9171 H   0  0  0  0  0  0  0  0  0  0  0  0  # atno 6908 bound_to 6896
  152.5358  134.0099  159.7987 H   0  0  0  0  0  0  0  0  0  0  0  0  # atno 6909 bound_to 6896
  146.1124  140.5573  142.8772 H   0  0  0  0  0  0  0  0  0  0  0  0  # atno 7974 bound_to 7965
  155.6635  140.0725  157.2545 H   0  0  0  0  0  0  0  0  0  0  0  0  # atno 8008 bound_to 7997
  154.4137  140.1712  156.1853 H   0  0  0  0  0  0  0  0  0  0  0  0  # atno 8009 bound_to 7997
  155.9677  140.3364  155.6550 H   0  0  0  0  0  0  0  0  0  0  0  0  # atno 8010 bound_to 7997
  140.6975  143.6267  150.8561 H   0  0  0  0  0  0  0  0  0  0  0  0  # atno 10167 bound_to 10162
  157.4140  130.7931  149.7456 H   0  0  0  0  0  0  0  0  0  0  0  0  # atno 10718 bound_to 10713
  152.9983  135.6235  154.2386 H   0  0  0  0  0  0  0  0  0  0  0  0  # atno 10763 bound_to 10752
  154.2127  135.2799  155.2954 H   0  0  0  0  0  0  0  0  0  0  0  0  # atno 10764 bound_to 10752
  154.5593  135.5710  153.7051 H   0  0  0  0  0  0  0  0  0  0  0  0  # atno 10765 bound_to 10752
  140.0056  134.9460  157.0167 H   0  0  0  0  0  0  0  0  0  0  0  0  # atno 11005 bound_to 11000
  144.7523  140.5221  143.6793 LP  0  0  0  0  0  0  0  0  0  0  0  0  # atno 17320 bound_to 7965
  145.5637  139.1480  143.3327 LP  0  0  0  0  0  0  0  0  0  0  0  0  # atno 17321 bound_to 7965
  139.9986  143.5769  152.2884 LP  0  0  0  0  0  0  0  0  0  0  0  0  # atno 17342 bound_to 10162
  139.6450  144.7657  151.2262 LP  0  0  0  0  0  0  0  0  0  0  0  0  # atno 17343 bound_to 10162
  155.9859  130.3979  150.3237 LP  0  0  0  0  0  0  0  0  0  0  0  0  # atno 17370 bound_to 10713
  157.1378  131.0288  151.2941 LP  0  0  0  0  0  0  0  0  0  0  0  0  # atno 17371 bound_to 10713
  140.4647  134.1447  155.7195 LP  0  0  0  0  0  0  0  0  0  0  0  0  # atno 17394 bound_to 11000
  141.1674  133.8676  157.1673 LP  0  0  0  0  0  0  0  0  0  0  0  0  # atno 17395 bound_to 11000

$$$$
