AV-unprocessed.smi:1542|AV-procd|sdf|6203|dock2
  -GOLD-   22720 6373D 1   1.00000     0.00000
 Structure written by MMmdl.
 45 47  0  0  0  0  0  0  0  0  1 V2000
  151.6118  136.7227  154.0531 O   0  0  0  0  0  0  0  0  0  0  0  0
  151.0609  138.0212  154.0999 C   0  0  0  0  0  0  0  0  0  0  0  0
  151.8490  138.8878  155.0907 C   0  0  0  0  0  0  0  0  0  0  0  0
  151.3336  138.7452  156.5299 C   0  0  0  0  0  0  0  0  0  0  0  0
  151.5418  139.9904  157.3404 C   0  0  0  0  0  0  0  0  0  0  0  0
  152.1685  139.9495  158.5166 N   0  0  0  0  0  0  0  0  0  0  0  0
  152.2199  141.2792  158.8819 C   0  0  0  0  0  0  0  0  0  0  0  0
  152.7697  141.8927  160.0301 C   0  0  0  0  0  0  0  0  0  0  0  0
  152.7208  143.2935  160.1838 C   0  0  0  0  0  0  0  0  0  0  0  0
  152.1267  144.0988  159.1912 C   0  0  0  0  0  0  0  0  0  0  0  0
  151.5726  143.5069  158.0399 C   0  0  0  0  0  0  0  0  0  0  0  0
  151.6140  142.1065  157.8946 C   0  0  0  0  0  0  0  0  0  0  0  0
  151.1624  141.2242  156.9146 N   0  0  0  0  0  0  0  0  0  0  0  0
  150.4673  141.5858  155.6807 C   0  0  0  0  0  0  0  0  0  0  0  0
  148.9228  141.4181  155.7254 C   0  0  0  0  0  0  0  0  0  0  0  0
  148.4063  142.3047  156.7008 O   0  0  0  0  0  0  0  0  0  0  0  0
  148.2445  141.7582  154.3748 C   0  0  0  0  0  0  0  0  0  0  0  0
  146.7344  141.4591  154.3628 C   0  0  0  0  0  0  0  0  0  0  0  0
  146.4483  140.0059  154.7639 C   0  0  0  0  0  0  0  0  0  0  0  0
  147.0575  139.6873  156.1358 C   0  0  0  0  0  0  0  0  0  0  0  0
  148.5698  139.9748  156.1570 C   0  0  0  0  0  0  0  0  0  0  0  0
  151.2471  136.2675  153.3094 H   0  0  0  0  0  0  0  0  0  0  0  0
  151.0892  138.4554  153.1001 H   0  0  0  0  0  0  0  0  0  0  0  0
  150.0143  137.9521  154.3979 H   0  0  0  0  0  0  0  0  0  0  0  0
  152.9039  138.6122  155.0539 H   0  0  0  0  0  0  0  0  0  0  0  0
  151.7913  139.9340  154.7873 H   0  0  0  0  0  0  0  0  0  0  0  0
  150.2822  138.4666  156.5202 H   0  0  0  0  0  0  0  0  0  0  0  0
  151.8534  137.9240  157.0251 H   0  0  0  0  0  0  0  0  0  0  0  0
  153.2336  141.2843  160.7922 H   0  0  0  0  0  0  0  0  0  0  0  0
  153.1448  143.7522  161.0650 H   0  0  0  0  0  0  0  0  0  0  0  0
  152.0968  145.1715  159.3136 H   0  0  0  0  0  0  0  0  0  0  0  0
  151.1217  144.1248  157.2785 H   0  0  0  0  0  0  0  0  0  0  0  0
  150.7133  142.6237  155.4534 H   0  0  0  0  0  0  0  0  0  0  0  0
  150.8884  141.0064  154.8587 H   0  0  0  0  0  0  0  0  0  0  0  0
  148.3126  143.1589  156.3072 H   0  0  0  0  0  0  0  0  0  0  0  0
  148.4005  142.8066  154.1186 H   0  0  0  0  0  0  0  0  0  0  0  0
  148.7146  141.1744  153.5832 H   0  0  0  0  0  0  0  0  0  0  0  0
  146.2166  142.1361  155.0433 H   0  0  0  0  0  0  0  0  0  0  0  0
  146.3282  141.6547  153.3701 H   0  0  0  0  0  0  0  0  0  0  0  0
  145.3724  139.8299  154.7837 H   0  0  0  0  0  0  0  0  0  0  0  0
  146.8594  139.3299  154.0131 H   0  0  0  0  0  0  0  0  0  0  0  0
  146.5565  140.2759  156.9049 H   0  0  0  0  0  0  0  0  0  0  0  0
  146.8776  138.6415  156.3862 H   0  0  0  0  0  0  0  0  0  0  0  0
  149.0650  139.2705  155.4871 H   0  0  0  0  0  0  0  0  0  0  0  0
  148.9661  139.7711  157.1529 H   0  0  0  0  0  0  0  0  0  0  0  0
  1  2  1  0  0  0  0
  1 22  1  0  0  0  0
  2  3  1  0  0  0  0
  2 23  1  0  0  0  0
  2 24  1  0  0  0  0
  3  4  1  0  0  0  0
  3 25  1  0  0  0  0
  3 26  1  0  0  0  0
  4  5  1  0  0  0  0
  4 27  1  0  0  0  0
  4 28  1  0  0  0  0
  5 13  1  0  0  0  0
  5  6  2  0  0  0  0
  6  7  1  0  0  0  0
  7 12  2  0  0  0  0
  7  8  1  0  0  0  0
  8  9  2  0  0  0  0
  8 29  1  0  0  0  0
  9 10  1  0  0  0  0
  9 30  1  0  0  0  0
 10 11  2  0  0  0  0
 10 31  1  0  0  0  0
 11 12  1  0  0  0  0
 11 32  1  0  0  0  0
 12 13  1  0  0  0  0
 13 14  1  0  0  0  0
 14 15  1  0  0  0  0
 14 33  1  0  0  0  0
 14 34  1  0  0  0  0
 15 21  1  0  0  0  0
 15 16  1  0  0  0  0
 15 17  1  0  0  0  0
 16 35  1  0  0  0  0
 17 18  1  0  0  0  0
 17 36  1  0  0  0  0
 17 37  1  0  0  0  0
 18 19  1  0  0  0  0
 18 38  1  0  0  0  0
 18 39  1  0  0  0  0
 19 20  1  0  0  0  0
 19 40  1  0  0  0  0
 19 41  1  0  0  0  0
 20 21  1  0  0  0  0
 20 42  1  0  0  0  0
 20 43  1  0  0  0  0
 21 44  1  0  0  0  0
 21 45  1  0  0  0  0
M  END
> <s_m_source_file>
AV-unprocessed.smi

> <i_m_source_file_index>
1542

> <i_lp_mmshare_version>
43012

> <i_f3d_flags>
0

> <s_epik_input>
W09IXVtDSDJdW0NIMl1bQ0gyXWMobjEpbihjKGMxMilbY0hdW2NIXVtjSF1bY0hdMilbQ0gyXUMzKFtPSF0pW0NIMl1bQ0gyXVtDSDJdW0NIMl1bQ0gyXTM=

> <s_epik_cmdline>
J2VwaWtfcHl0aG9uJywgJy1waCcsICc3LjAnLCAnLXRuJywgJzgnLCAnLW1hJywgJzIwMCcsICctbWV0YWxfYmluZGluZycsICctaW1hZScsICc8aW5maWxlLm1hZT4nLCAnLW9tYWUnLCAnPG91dGZpbGUubWFlPic=

> <r_epik_Ionization_Penalty>
0.294093

> <r_epik_Ionization_Penalty_Charging>
0

> <r_epik_Ionization_Penalty_Neutral>
0.294093

> <r_epik_State_Penalty>
0.287281

> <r_epik_Charging_Adjusted_Penalty>
0.287281

> <i_epik_Tot_Q>
0

> <i_epik_Tot_abs_Q>
0

> <r_epik_Metal_State_Penalty>
0.000369578

> <b_epik_Metal_Only>
0

> <s_lp_Force_Field>
OPLS_2005

> <r_lp_Energy>
13.7601

> <b_lp_Chiralities_Consistent>
1

> <s_lp_Variant>
AV-unprocessed.smi:1542-1

> <Gold.Version>
5.8.1

> <Gold.Id.Protein>
6NUR|6NUR_protein|mol2

> <Gold.PLP.Fitness>
51.8494

> <Gold.PLP.PLP>
-43.8897

> <Gold.PLP.part.hbond>
-3.0000

> <Gold.PLP.part.metal>
0.0000

> <Gold.PLP.part.buried>
-5.8225

> <Gold.PLP.part.nonpolar>
-35.8052

> <Gold.PLP.part.repulsive>
0.0000

> <Gold.PLP.ligand.clash>
0.0000

> <Gold.PLP.ligand.torsion>
0.7199

> <Gold.PLP.Chemscore.Hbond>
3.0000

> <Gold.PLP.Chemscore.CHOScore>
0.0000

> <Gold.PLP.Chemscore.Metal>
0.0000

> <Gold.Chemscore.Hbonds>
donor molecule, donor type, donor heavy atom, donor atom, acceptor molecule, acceptor atom, score
      L1  H     1    22       P1  7949  1.00
      L1  H    16    35       P1  8028  1.00
      P1  H 10752 10764       L1     1  1.00

> <Gold.PLP.Chemscore.Internal.Correction>
0.3995

> <Gold.Rescore>
     Score         DG    S(hbond)    S(metal)    S(lipo)     H(rot)  DE(clash)    DE(int)     intcor
     19.12     -20.38       2.47        0.00     116.89       2.74       0.42       0.84       ----

> <Gold.Chemscore.Fitness>
19.1159

> <Gold.Chemscore.DG>
-20.3760

> <Gold.Chemscore.ZeroCoef>
-5.4800

> <Gold.Chemscore.Hbond>
2.4690

> <Gold.Chemscore.Metal>
0.0000

> <Gold.Chemscore.Lipo>
116.8929

> <Gold.Chemscore.Internal_Hbond>
0.0000

> <Gold.Chemscore.DEClash>
0.4201

> <Gold.Chemscore.DEInternal>
0.8400

> <Gold.Chemscore.Rot>
2.7449

> <Gold.Chemscore.Internal.Correction>
   9.000000E+99

> <Gold.Chemscore.Hbonds>
donor molecule, donor type, donor heavy atom, donor atom, acceptor molecule, acceptor atom, score
      L1  H     1    22       P1  7949  0.52
      L1  H    16    35       P1  8028  0.65
      P1  H 10752 10764       L1     1  0.25

> <Gold.Chemscore.Hbond.Weighted>
-8.2465

> <Gold.Chemscore.Metal.Weighted>
-0.0000

> <Gold.Chemscore.Lipo.Weighted>
-13.6765

> <Gold.Chemscore.Internal_Hbond.Weighted>
0.0000

> <Gold.Chemscore.DEClash.Weighted>
0.4201

> <Gold.Chemscore.DEInternal.Weighted>
0.8400

> <Gold.Chemscore.Rot.Weighted>
7.0269

> <Gold.Chemscore.Internal.Correction.Weighted>
   9.000000E+99

> <Gold.Protein.RotatedTorsions>
[ 6907 6896 6895 6894 ] final    9.16 input  -60.11 | X-H torsion
[ 7974 7965 7964 7962 ] final  167.31 input  175.53 | X-H torsion
[ 8008 7997 7996 7995 ] final  -56.38 input   59.86 | X-H torsion
[ 10167 10162 10161 10158 ] final   95.29 input  -65.29 | X-H torsion
[ 10718 10713 10712 10709 ] final  103.64 input   66.30 | X-H torsion
[ 10763 10752 10751 10750 ] final  -65.98 input  -60.55 | X-H torsion
[ 11005 11000 10999 10996 ] final  -53.96 input  -57.11 | X-H torsion

> <Gold.Protein.ActiveResidues>
 VAL166  LYS551  ARG553  GLY616  TRP617  ASP618  TYR619  PRO620  LYS621  CYS622 
 ASP623  PHE694  ASN695  SER759  ASP760  ASP761  ALA762  ILE779  LEU786  VAL792 
 PHE793  MET794  SER795  GLU796  ALA797  LYS798  CYS799  TRP800  GLU811  SER814 

> <Gold.Protein.RotatedAtoms>
  151.7176  135.0900  160.0278 H   0  0  0  0  0  0  0  0  0  0  0  0  # atno 6907 bound_to 6896
  152.3622  133.6307  159.6032 H   0  0  0  0  0  0  0  0  0  0  0  0  # atno 6908 bound_to 6896
  150.7612  133.9322  159.3472 H   0  0  0  0  0  0  0  0  0  0  0  0  # atno 6909 bound_to 6896
  144.7429  139.8743  143.6391 H   0  0  0  0  0  0  0  0  0  0  0  0  # atno 7974 bound_to 7965
  154.4228  140.1131  156.5628 H   0  0  0  0  0  0  0  0  0  0  0  0  # atno 8008 bound_to 7997
  155.6293  140.3495  155.4658 H   0  0  0  0  0  0  0  0  0  0  0  0  # atno 8009 bound_to 7997
  155.9961  140.1189  157.0582 H   0  0  0  0  0  0  0  0  0  0  0  0  # atno 8010 bound_to 7997
  139.8003  144.6816  150.9774 H   0  0  0  0  0  0  0  0  0  0  0  0  # atno 10167 bound_to 10162
  157.6766  131.0784  150.5586 H   0  0  0  0  0  0  0  0  0  0  0  0  # atno 10718 bound_to 10713
  154.3530  135.6132  153.5652 H   0  0  0  0  0  0  0  0  0  0  0  0  # atno 10763 bound_to 10752
  152.9797  135.5797  154.4721 H   0  0  0  0  0  0  0  0  0  0  0  0  # atno 10764 bound_to 10752
  154.4446  135.2851  155.1801 H   0  0  0  0  0  0  0  0  0  0  0  0  # atno 10765 bound_to 10752
  141.1002  133.6619  156.4250 H   0  0  0  0  0  0  0  0  0  0  0  0  # atno 11005 bound_to 11000
  146.1258  139.4284  143.0200 LP  0  0  0  0  0  0  0  0  0  0  0  0  # atno 17320 bound_to 7965
  145.7237  141.0066  143.1388 LP  0  0  0  0  0  0  0  0  0  0  0  0  # atno 17321 bound_to 7965
  140.7820  143.4289  151.0725 LP  0  0  0  0  0  0  0  0  0  0  0  0  # atno 17342 bound_to 10162
  139.7961  143.8150  152.3157 LP  0  0  0  0  0  0  0  0  0  0  0  0  # atno 17343 bound_to 10162
  156.5889  130.4324  149.5945 LP  0  0  0  0  0  0  0  0  0  0  0  0  # atno 17370 bound_to 10713
  156.2600  130.6956  151.1722 LP  0  0  0  0  0  0  0  0  0  0  0  0  # atno 17371 bound_to 10713
  140.5040  134.6458  157.5259 LP  0  0  0  0  0  0  0  0  0  0  0  0  # atno 17394 bound_to 11000
  139.9851  134.7074  155.9788 LP  0  0  0  0  0  0  0  0  0  0  0  0  # atno 17395 bound_to 11000

$$$$
