AV-unprocessed.smi:2567|AV-procd|sdf|10084|dock1
  -GOLD-   2272014113D 1   1.00000     0.00000
 Structure written by MMmdl.
 33 34  0  0  0  0  0  0  0  0  3 V2000
  148.4090  132.6486  156.1187 C   0  0  0  0  0  0  0  0  0  0  0  0
  149.0197  133.0574  154.7659 C   0  0  0  0  0  0  0  0  0  0  0  0
  150.0482  134.1799  155.0199 C   0  0  0  0  0  0  0  0  0  0  0  0
  149.7523  131.8693  154.1160 C   0  0  0  0  0  0  0  0  0  0  0  0
  147.9134  133.5467  153.8358 C   0  0  0  0  0  0  0  0  0  0  0  0
  147.0021  134.4923  154.1354 N   0  5  0  0  0  0  0  0  0  0  0  0
  146.1903  134.6802  153.1160 N   0  0  0  0  0  0  0  0  0  0  0  0
  146.6172  133.8384  152.1641 C   0  0  0  0  0  0  0  0  0  0  0  0
  145.9591  133.6707  150.8107 C   0  0  2  0  0  0  0  0  0  0  0  0
  144.5973  134.3909  150.7644 C   0  0  0  0  0  0  0  0  0  0  0  0
  143.9653  134.2040  149.4442 N   0  3  0  0  0  0  0  0  0  0  0  0
  143.8520  132.7751  149.0939 C   0  0  0  0  0  0  0  0  0  0  0  0
  145.2297  132.0991  149.1905 C   0  0  0  0  0  0  0  0  0  0  0  0
  145.7656  132.2931  150.4941 O   0  0  0  0  0  0  0  0  0  0  0  0
  147.6663  133.1257  152.5968 N   0  0  0  0  0  0  0  0  0  0  0  0
  149.1751  132.3024  156.8132 H   0  0  0  0  0  0  0  0  0  0  0  0
  147.6864  131.8403  155.9998 H   0  0  0  0  0  0  0  0  0  0  0  0
  147.8909  133.4858  156.5874 H   0  0  0  0  0  0  0  0  0  0  0  0
  149.5817  135.0512  155.4815 H   0  0  0  0  0  0  0  0  0  0  0  0
  150.5157  134.5101  154.0915 H   0  0  0  0  0  0  0  0  0  0  0  0
  150.8449  133.8462  155.6855 H   0  0  0  0  0  0  0  0  0  0  0  0
  150.5559  131.5007  154.7539 H   0  0  0  0  0  0  0  0  0  0  0  0
  150.1923  132.1510  153.1586 H   0  0  0  0  0  0  0  0  0  0  0  0
  149.0730  131.0361  153.9324 H   0  0  0  0  0  0  0  0  0  0  0  0
  146.6298  134.1080  150.0686 H   0  0  0  0  0  0  0  0  0  0  0  0
  143.9345  133.9996  151.5380 H   0  0  0  0  0  0  0  0  0  0  0  0
  144.7192  135.4578  150.9544 H   0  0  0  0  0  0  0  0  0  0  0  0
  143.0471  134.6248  149.4488 H   0  0  0  0  0  0  0  0  0  0  0  0
  143.1477  132.2938  149.7736 H   0  0  0  0  0  0  0  0  0  0  0  0
  143.4456  132.6795  148.0868 H   0  0  0  0  0  0  0  0  0  0  0  0
  145.1378  131.0293  149.0017 H   0  0  0  0  0  0  0  0  0  0  0  0
  145.9143  132.4976  148.4401 H   0  0  0  0  0  0  0  0  0  0  0  0
  144.5358  134.6633  148.7487 H   0  0  0  0  0  0  0  0  0  0  0  0
  1  2  1  0  0  0  0
  1 16  1  0  0  0  0
  1 17  1  0  0  0  0
  1 18  1  0  0  0  0
  2  3  1  0  0  0  0
  2  4  1  0  0  0  0
  2  5  1  0  0  0  0
  3 19  1  0  0  0  0
  3 20  1  0  0  0  0
  3 21  1  0  0  0  0
  4 22  1  0  0  0  0
  4 23  1  0  0  0  0
  4 24  1  0  0  0  0
  5 15  2  0  0  0  0
  5  6  1  0  0  0  0
  6  7  1  0  0  0  0
  7  8  2  0  0  0  0
  8  9  1  0  0  0  0
  8 15  1  0  0  0  0
  9 14  1  0  0  0  0
  9 10  1  0  0  0  0
  9 25  1  0  0  0  0
 10 11  1  0  0  0  0
 10 26  1  0  0  0  0
 10 27  1  0  0  0  0
 11 12  1  0  0  0  0
 11 28  1  0  0  0  0
 11 33  1  0  0  0  0
 12 13  1  0  0  0  0
 12 29  1  0  0  0  0
 12 30  1  0  0  0  0
 13 14  1  0  0  0  0
 13 31  1  0  0  0  0
 13 32  1  0  0  0  0
M  CHG  1   6  -1
M  CHG  1  11   1
M  END
> <s_m_source_file>
AV-unprocessed.smi

> <i_m_source_file_index>
2567

> <i_lp_mmshare_version>
43012

> <i_f3d_flags>
0

> <s_epik_input>
W0NIM11DKFtDSDNdKShbQ0gzXSljMW5bbkhdYyhuMSlbQ0BASF0yW0NIMl1bTkhdW0NIMl1bQ0gyXU8y

> <s_epik_cmdline>
J2VwaWtfcHl0aG9uJywgJy1waCcsICc3LjAnLCAnLXRuJywgJzgnLCAnLW1hJywgJzIwMCcsICctbWV0YWxfYmluZGluZycsICctaW1hZScsICc8aW5maWxlLm1hZT4nLCAnLW9tYWUnLCAnPG91dGZpbGUubWFlPic=

> <r_lp_tautomer_probability>
0.948284

> <r_epik_Ionization_Penalty>
5.01189

> <r_epik_Ionization_Penalty_Charging>
5.01189

> <r_epik_Ionization_Penalty_Neutral>
8.99859e-14

> <r_epik_State_Penalty>
2.75157

> <r_epik_Charging_Adjusted_Penalty>
7.76346

> <i_epik_Tot_Q>
0

> <i_epik_Tot_abs_Q>
2

> <r_epik_Metal_State_Penalty>
0.54282

> <b_epik_Metal_Only>
1

> <s_lp_Force_Field>
OPLS_2005

> <r_lp_Energy>
6.85935

> <b_lp_Chiralities_Consistent>
1

> <s_lp_Variant>
AV-unprocessed.smi:2567-9

> <Gold.Version>
5.8.1

> <Gold.Id.Protein>
6NUR|6NUR_protein|mol2

> <Gold.PLP.Fitness>
33.1870

> <Gold.PLP.PLP>
-25.0350

> <Gold.PLP.part.hbond>
-2.0000

> <Gold.PLP.part.metal>
0.0000

> <Gold.PLP.part.buried>
-5.0329

> <Gold.PLP.part.nonpolar>
-18.5309

> <Gold.PLP.part.repulsive>
0.5919

> <Gold.PLP.ligand.clash>
0.0000

> <Gold.PLP.ligand.torsion>
0.4319

> <Gold.PLP.Chemscore.Hbond>
3.0000

> <Gold.PLP.Chemscore.CHOScore>
0.0000

> <Gold.PLP.Chemscore.Metal>
0.0000

> <Gold.Chemscore.Hbonds>
donor molecule, donor type, donor heavy atom, donor atom, acceptor molecule, acceptor atom, score
      L1  H    11    28       P1 10186  1.95
      L1  H    11    33       P1  7921  1.00

> <Gold.PLP.Chemscore.Internal.Correction>
0.0159

> <Gold.Rescore>
     Score         DG    S(hbond)    S(metal)    S(lipo)     H(rot)  DE(clash)    DE(int)     intcor
     15.33     -15.72       1.93        0.00      59.72       1.25       0.06       0.33       ----

> <Gold.Chemscore.Fitness>
15.3292

> <Gold.Chemscore.DG>
-15.7236

> <Gold.Chemscore.ZeroCoef>
-5.4800

> <Gold.Chemscore.Hbond>
1.9321

> <Gold.Chemscore.Metal>
0.0000

> <Gold.Chemscore.Lipo>
59.7161

> <Gold.Chemscore.Internal_Hbond>
0.0000

> <Gold.Chemscore.DEClash>
0.0609

> <Gold.Chemscore.DEInternal>
0.3335

> <Gold.Chemscore.Rot>
1.2486

> <Gold.Chemscore.Internal.Correction>
   9.000000E+99

> <Gold.Chemscore.Hbonds>
donor molecule, donor type, donor heavy atom, donor atom, acceptor molecule, acceptor atom, score
      L1  H    11    28       P1 10186  0.84
      L1  H    11    33       P1  7921  0.96

> <Gold.Chemscore.Hbond.Weighted>
-6.4533

> <Gold.Chemscore.Metal.Weighted>
-0.0000

> <Gold.Chemscore.Lipo.Weighted>
-6.9868

> <Gold.Chemscore.Internal_Hbond.Weighted>
0.0000

> <Gold.Chemscore.DEClash.Weighted>
0.0609

> <Gold.Chemscore.DEInternal.Weighted>
0.3335

> <Gold.Chemscore.Rot.Weighted>
3.1964

> <Gold.Chemscore.Internal.Correction.Weighted>
   9.000000E+99

> <Gold.Protein.RotatedTorsions>
[ 6907 6896 6895 6894 ] final  -57.69 input  -60.11 | X-H torsion
[ 7974 7965 7964 7962 ] final   42.16 input  175.53 | X-H torsion
[ 8008 7997 7996 7995 ] final   93.81 input   59.86 | X-H torsion
[ 10167 10162 10161 10158 ] final    2.30 input  -65.29 | X-H torsion
[ 10718 10713 10712 10709 ] final  108.00 input   66.30 | X-H torsion
[ 10763 10752 10751 10750 ] final  -29.94 input  -60.55 | X-H torsion
[ 11005 11000 10999 10996 ] final  143.77 input  -57.11 | X-H torsion

> <Gold.Protein.ActiveResidues>
 VAL166  LYS551  ARG553  GLY616  TRP617  ASP618  TYR619  PRO620  LYS621  CYS622 
 ASP623  PHE694  ASN695  SER759  ASP760  ASP761  ALA762  ILE779  LEU786  VAL792 
 PHE793  MET794  SER795  GLU796  ALA797  LYS798  CYS799  TRP800  GLU811  SER814 

> <Gold.Protein.RotatedAtoms>
  150.8066  134.7195  159.6649 H   0  0  0  0  0  0  0  0  0  0  0  0  # atno 6907 bound_to 6896
  152.4185  134.5994  160.0006 H   0  0  0  0  0  0  0  0  0  0  0  0  # atno 6908 bound_to 6896
  151.6216  133.3301  159.3125 H   0  0  0  0  0  0  0  0  0  0  0  0  # atno 6909 bound_to 6896
  146.0763  139.5332  142.9565 H   0  0  0  0  0  0  0  0  0  0  0  0  # atno 7974 bound_to 7965
  156.0510  140.3308  155.7351 H   0  0  0  0  0  0  0  0  0  0  0  0  # atno 8008 bound_to 7997
  155.5601  140.0618  157.2848 H   0  0  0  0  0  0  0  0  0  0  0  0  # atno 8009 bound_to 7997
  154.4436  140.1879  156.0762 H   0  0  0  0  0  0  0  0  0  0  0  0  # atno 8010 bound_to 7997
  140.6641  143.7225  150.7794 H   0  0  0  0  0  0  0  0  0  0  0  0  # atno 10167 bound_to 10162
  157.6605  131.0884  150.6240 H   0  0  0  0  0  0  0  0  0  0  0  0  # atno 10718 bound_to 10713
  153.7728  135.6911  153.4903 H   0  0  0  0  0  0  0  0  0  0  0  0  # atno 10763 bound_to 10752
  153.1863  135.4487  155.0091 H   0  0  0  0  0  0  0  0  0  0  0  0  # atno 10764 bound_to 10752
  154.8111  135.3378  154.7237 H   0  0  0  0  0  0  0  0  0  0  0  0  # atno 10765 bound_to 10752
  140.0579  134.9220  157.1133 H   0  0  0  0  0  0  0  0  0  0  0  0  # atno 11005 bound_to 11000
  145.6300  141.0306  143.1868 LP  0  0  0  0  0  0  0  0  0  0  0  0  # atno 17320 bound_to 7965
  144.7264  139.7863  143.7363 LP  0  0  0  0  0  0  0  0  0  0  0  0  # atno 17321 bound_to 7965
  140.0899  143.4887  152.2484 LP  0  0  0  0  0  0  0  0  0  0  0  0  # atno 17342 bound_to 10162
  139.5884  144.7540  151.3461 LP  0  0  0  0  0  0  0  0  0  0  0  0  # atno 17343 bound_to 10162
  156.6543  130.4494  149.5709 LP  0  0  0  0  0  0  0  0  0  0  0  0  # atno 17370 bound_to 10713
  156.2114  130.6681  151.1274 LP  0  0  0  0  0  0  0  0  0  0  0  0  # atno 17371 bound_to 10713
  140.3815  134.2282  155.7171 LP  0  0  0  0  0  0  0  0  0  0  0  0  # atno 17394 bound_to 11000
  141.1960  133.8092  157.0689 LP  0  0  0  0  0  0  0  0  0  0  0  0  # atno 17395 bound_to 11000

$$$$
