AV-unprocessed.smi:86|AV-procd|sdf|814|dock9
  -GOLD-   2262017213D 1   1.00000     0.00000
 Structure written by MMmdl.
 51 55  0  0  0  0  0  0  0  0  1 V2000
  153.3286  136.8571  165.4579 O   0  0  0  0  0  0  0  0  0  0  0  0
  153.3776  136.2558  164.1795 C   0  0  0  0  0  0  0  0  0  0  0  0
  154.7692  135.6772  163.8520 C   0  0  0  0  0  0  0  0  0  0  0  0
  155.8015  136.8186  163.9058 C   0  0  0  0  0  0  0  0  0  0  0  0
  155.3550  138.0473  163.2668 N   0  0  0  0  0  0  0  0  0  0  0  0
  155.2875  139.2975  163.8376 C   0  0  0  0  0  0  0  0  0  0  0  0
  154.8444  140.2422  163.0547 N   0  0  0  0  0  0  0  0  0  0  0  0
  154.5814  139.5985  161.8502 C   0  0  0  0  0  0  0  0  0  0  0  0
  154.0807  140.0154  160.5813 C   0  0  0  0  0  0  0  0  0  0  0  0
  153.7323  141.2922  160.2809 N   0  0  0  0  0  0  0  0  0  0  0  0
  153.1770  142.2039  161.2793 C   0  0  0  0  0  0  0  0  0  0  0  0
  152.8135  143.4418  160.4633 C   0  0  2  0  0  0  0  0  0  0  0  0
  151.7758  144.4202  161.0237 C   0  0  0  0  0  0  0  0  0  0  0  0
  151.5139  145.5289  159.9792 C   0  0  0  0  0  0  0  0  0  0  0  0
  151.1504  144.9791  158.5756 C   0  0  2  0  0  0  0  0  0  0  0  0
  149.8330  144.4664  158.5984 O   0  0  0  0  0  0  0  0  0  0  0  0
  152.1292  143.8848  158.0831 C   0  0  0  0  0  0  0  0  0  0  0  0
  152.3150  142.8161  159.1692 C   0  0  1  0  0  0  0  0  0  0  0  0
  153.3291  141.6948  158.9350 C   0  0  0  0  0  0  0  0  0  0  0  0
  153.9304  139.0585  159.6275 N   0  0  0  0  0  0  0  0  0  0  0  0
  154.2599  137.7891  159.8810 C   0  0  0  0  0  0  0  0  0  0  0  0
  154.7457  137.2630  161.0059 N   0  0  0  0  0  0  0  0  0  0  0  0
  154.8878  138.2126  161.9741 C   0  0  0  0  0  0  0  0  0  0  0  0
  155.1730  134.4061  164.6129 C   0  0  0  0  0  0  0  0  0  0  0  0
  154.9693  133.5724  163.4508 O   0  0  0  0  0  0  0  0  0  0  0  0
  154.8444  134.7535  162.6279 C   0  0  0  0  0  0  0  0  0  0  0  0
  154.1989  136.8521  165.8260 H   0  0  0  0  0  0  0  0  0  0  0  0
  152.6133  135.4790  164.1619 H   0  0  0  0  0  0  0  0  0  0  0  0
  153.0860  137.0044  163.4422 H   0  0  0  0  0  0  0  0  0  0  0  0
  156.0689  137.0428  164.9391 H   0  0  0  0  0  0  0  0  0  0  0  0
  156.7312  136.5161  163.4221 H   0  0  0  0  0  0  0  0  0  0  0  0
  155.5758  139.4902  164.8606 H   0  0  0  0  0  0  0  0  0  0  0  0
  152.2903  141.7621  161.7364 H   0  0  0  0  0  0  0  0  0  0  0  0
  153.8990  142.4326  162.0639 H   0  0  0  0  0  0  0  0  0  0  0  0
  153.7357  143.9911  160.2611 H   0  0  0  0  0  0  0  0  0  0  0  0
  150.8481  143.8957  161.2556 H   0  0  0  0  0  0  0  0  0  0  0  0
  152.1324  144.8573  161.9568 H   0  0  0  0  0  0  0  0  0  0  0  0
  150.7341  146.2030  160.3357 H   0  0  0  0  0  0  0  0  0  0  0  0
  152.4147  146.1373  159.8889 H   0  0  0  0  0  0  0  0  0  0  0  0
  151.1516  145.8031  157.8614 H   0  0  0  0  0  0  0  0  0  0  0  0
  149.2470  145.1310  158.2695 H   0  0  0  0  0  0  0  0  0  0  0  0
  151.7698  143.4343  157.1571 H   0  0  0  0  0  0  0  0  0  0  0  0
  153.0937  144.3387  157.8521 H   0  0  0  0  0  0  0  0  0  0  0  0
  151.3497  142.3429  159.3608 H   0  0  0  0  0  0  0  0  0  0  0  0
  154.2032  142.0560  158.3920 H   0  0  0  0  0  0  0  0  0  0  0  0
  152.8797  140.8778  158.3700 H   0  0  0  0  0  0  0  0  0  0  0  0
  154.1125  137.0961  159.0658 H   0  0  0  0  0  0  0  0  0  0  0  0
  156.2144  134.3966  164.9383 H   0  0  0  0  0  0  0  0  0  0  0  0
  154.5111  134.1444  165.4389 H   0  0  0  0  0  0  0  0  0  0  0  0
  153.9413  134.7467  162.0169 H   0  0  0  0  0  0  0  0  0  0  0  0
  155.7294  134.9033  162.0092 H   0  0  0  0  0  0  0  0  0  0  0  0
  1  2  1  0  0  0  0
  1 27  1  0  0  0  0
  2  3  1  0  0  0  0
  2 28  1  0  0  0  0
  2 29  1  0  0  0  0
  3 26  1  0  0  0  0
  3  4  1  0  0  0  0
  3 24  1  0  0  0  0
  4  5  1  0  0  0  0
  4 30  1  0  0  0  0
  4 31  1  0  0  0  0
  5 23  1  0  0  0  0
  5  6  1  0  0  0  0
  6  7  2  0  0  0  0
  6 32  1  0  0  0  0
  7  8  1  0  0  0  0
  8 23  2  0  0  0  0
  8  9  1  0  0  0  0
  9 10  1  0  0  0  0
  9 20  2  0  0  0  0
 10 19  1  0  0  0  0
 10 11  1  0  0  0  0
 11 12  1  0  0  0  0
 11 33  1  0  0  0  0
 11 34  1  0  0  0  0
 12 18  1  0  0  0  0
 12 13  1  0  0  0  0
 12 35  1  0  0  0  0
 13 14  1  0  0  0  0
 13 36  1  0  0  0  0
 13 37  1  0  0  0  0
 14 15  1  0  0  0  0
 14 38  1  0  0  0  0
 14 39  1  0  0  0  0
 15 16  1  0  0  0  0
 15 17  1  0  0  0  0
 15 40  1  0  0  0  0
 16 41  1  0  0  0  0
 17 18  1  0  0  0  0
 17 42  1  0  0  0  0
 17 43  1  0  0  0  0
 18 19  1  0  0  0  0
 18 44  1  0  0  0  0
 19 45  1  0  0  0  0
 19 46  1  0  0  0  0
 20 21  1  0  0  0  0
 21 22  2  0  0  0  0
 21 47  1  0  0  0  0
 22 23  1  0  0  0  0
 24 25  1  0  0  0  0
 24 48  1  0  0  0  0
 24 49  1  0  0  0  0
 25 26  1  0  0  0  0
 26 50  1  0  0  0  0
 26 51  1  0  0  0  0
M  END
> <s_m_source_file>
AV-unprocessed.smi

> <i_m_source_file_index>
86

> <i_lp_mmshare_version>
43012

> <i_f3d_flags>
0

> <s_epik_input>
W0NIMl0xT1tDSDJdQzEoW0NIMl1bT0hdKVtDSDJdbihbY0hdbjIpYyhjMjMpbltjSF1uYzNOKFtDSDJdNClbQ0gyXVtDQEBIXShbQ0BIXTQ1KVtDSDJdW0NASF0oW09IXSlbQ0gyXVtDSDJdNQ==

> <s_epik_cmdline>
J2VwaWtfcHl0aG9uJywgJy1waCcsICc3LjAnLCAnLXRuJywgJzgnLCAnLW1hJywgJzIwMCcsICctbWV0YWxfYmluZGluZycsICctaW1hZScsICc8aW5maWxlLm1hZT4nLCAnLW9tYWUnLCAnPG91dGZpbGUubWFlPic=

> <r_lp_tautomer_probability>
1

> <r_epik_Ionization_Penalty>
0.00425795

> <r_epik_Ionization_Penalty_Charging>
0

> <r_epik_Ionization_Penalty_Neutral>
0.00425795

> <r_epik_State_Penalty>
0.00299946

> <r_epik_Charging_Adjusted_Penalty>
0.00299946

> <i_epik_Tot_Q>
0

> <i_epik_Tot_abs_Q>
0

> <r_epik_Metal_State_Penalty>
-0

> <b_epik_Metal_Only>
0

> <s_lp_Force_Field>
OPLS_2005

> <r_lp_Energy>
55.6071

> <b_lp_Chiralities_Consistent>
1

> <s_lp_Variant>
AV-unprocessed.smi:86-3

> <Gold.Version>
5.8.1

> <Gold.Id.Protein>
6NUR|6NUR_protein|mol2

> <Gold.PLP.Fitness>
56.2547

> <Gold.PLP.PLP>
-53.9487

> <Gold.PLP.part.hbond>
-3.4799

> <Gold.PLP.part.metal>
0.0000

> <Gold.PLP.part.buried>
-6.8578

> <Gold.PLP.part.nonpolar>
-44.5162

> <Gold.PLP.part.repulsive>
0.0046

> <Gold.PLP.ligand.clash>
0.0000

> <Gold.PLP.ligand.torsion>
0.5829

> <Gold.PLP.Chemscore.Hbond>
0.9982

> <Gold.PLP.Chemscore.CHOScore>
0.0000

> <Gold.PLP.Chemscore.Metal>
0.0000

> <Gold.Chemscore.Hbonds>
donor molecule, donor type, donor heavy atom, donor atom, acceptor molecule, acceptor atom, score
      L1  H    16    41       P1  8029  1.00
      P1  H  6924  6935       L1     1  0.17

> <Gold.PLP.Chemscore.Internal.Correction>
0.4771

> <Gold.Rescore>
     Score         DG    S(hbond)    S(metal)    S(lipo)     H(rot)  DE(clash)    DE(int)     intcor
     14.39     -17.24       1.23        0.00     125.99       2.76       1.63       1.22       ----

> <Gold.Chemscore.Fitness>
14.3895

> <Gold.Chemscore.DG>
-17.2403

> <Gold.Chemscore.ZeroCoef>
-5.4800

> <Gold.Chemscore.Hbond>
1.2254

> <Gold.Chemscore.Metal>
0.0000

> <Gold.Chemscore.Lipo>
125.9883

> <Gold.Chemscore.Internal_Hbond>
0.0000

> <Gold.Chemscore.DEClash>
1.6342

> <Gold.Chemscore.DEInternal>
1.2165

> <Gold.Chemscore.Rot>
2.7630

> <Gold.Chemscore.Internal.Correction>
   9.000000E+99

> <Gold.Chemscore.Hbonds>
donor molecule, donor type, donor heavy atom, donor atom, acceptor molecule, acceptor atom, score
      L1  H    16    41       P1  8029  0.60
      P1  H  6924  6935       L1     1  0.17

> <Gold.Chemscore.Hbond.Weighted>
-4.0930

> <Gold.Chemscore.Metal.Weighted>
-0.0000

> <Gold.Chemscore.Lipo.Weighted>
-14.7406

> <Gold.Chemscore.Internal_Hbond.Weighted>
0.0000

> <Gold.Chemscore.DEClash.Weighted>
1.6342

> <Gold.Chemscore.DEInternal.Weighted>
1.2165

> <Gold.Chemscore.Rot.Weighted>
7.0734

> <Gold.Chemscore.Internal.Correction.Weighted>
   9.000000E+99

> <Gold.Protein.RotatedTorsions>
[ 6907 6896 6895 6894 ] final  -75.44 input  -60.11 | X-H torsion
[ 7974 7965 7964 7962 ] final  135.06 input  175.53 | X-H torsion
[ 8008 7997 7996 7995 ] final  -88.84 input   59.86 | X-H torsion
[ 10167 10162 10161 10158 ] final -147.37 input  -65.29 | X-H torsion
[ 10718 10713 10712 10709 ] final   87.11 input   66.30 | X-H torsion
[ 10763 10752 10751 10750 ] final  137.04 input  -60.55 | X-H torsion
[ 11005 11000 10999 10996 ] final  -81.58 input  -57.11 | X-H torsion

> <Gold.Protein.ActiveResidues>
 VAL166  LYS551  ARG553  GLY616  TRP617  ASP618  TYR619  PRO620  LYS621  CYS622 
 ASP623  PHE694  ASN695  SER759  ASP760  ASP761  ALA762  ILE779  LEU786  VAL792 
 PHE793  MET794  SER795  GLU796  ALA797  LYS798  CYS799  TRP800  GLU811  SER814 

> <Gold.Protein.RotatedAtoms>
  150.7059  134.4721  159.5429 H   0  0  0  0  0  0  0  0  0  0  0  0  # atno 6907 bound_to 6896
  152.2375  134.8258  160.0474 H   0  0  0  0  0  0  0  0  0  0  0  0  # atno 6908 bound_to 6896
  151.9052  133.3512  159.3881 H   0  0  0  0  0  0  0  0  0  0  0  0  # atno 6909 bound_to 6896
  144.9701  139.4615  143.5437 H   0  0  0  0  0  0  0  0  0  0  0  0  # atno 7974 bound_to 7965
  154.6795  140.0549  157.0251 H   0  0  0  0  0  0  0  0  0  0  0  0  # atno 8008 bound_to 7997
  155.0971  140.3225  155.4538 H   0  0  0  0  0  0  0  0  0  0  0  0  # atno 8009 bound_to 7997
  156.2689  140.2037  156.6098 H   0  0  0  0  0  0  0  0  0  0  0  0  # atno 8010 bound_to 7997
  139.7628  143.8352  152.2610 H   0  0  0  0  0  0  0  0  0  0  0  0  # atno 10167 bound_to 10162
  157.6936  131.0242  150.3073 H   0  0  0  0  0  0  0  0  0  0  0  0  # atno 10718 bound_to 10713
  153.8664  135.3061  155.3440 H   0  0  0  0  0  0  0  0  0  0  0  0  # atno 10763 bound_to 10752
  154.7826  135.4827  153.9879 H   0  0  0  0  0  0  0  0  0  0  0  0  # atno 10764 bound_to 10752
  153.1432  135.6828  153.9091 H   0  0  0  0  0  0  0  0  0  0  0  0  # atno 10765 bound_to 10752
  141.1666  133.7203  156.8444 H   0  0  0  0  0  0  0  0  0  0  0  0  # atno 11005 bound_to 11000
  146.3379  139.8907  142.8809 LP  0  0  0  0  0  0  0  0  0  0  0  0  # atno 17320 bound_to 7965
  145.2572  141.0064  143.3847 LP  0  0  0  0  0  0  0  0  0  0  0  0  # atno 17321 bound_to 7965
  139.8363  144.7230  150.9387 LP  0  0  0  0  0  0  0  0  0  0  0  0  # atno 17342 bound_to 10162
  140.7808  143.4024  151.1128 LP  0  0  0  0  0  0  0  0  0  0  0  0  # atno 17343 bound_to 10162
  156.3580  130.3842  149.7274 LP  0  0  0  0  0  0  0  0  0  0  0  0  # atno 17370 bound_to 10713
  156.4730  130.8005  151.3023 LP  0  0  0  0  0  0  0  0  0  0  0  0  # atno 17371 bound_to 10713
  140.1960  134.8931  157.3115 LP  0  0  0  0  0  0  0  0  0  0  0  0  # atno 17394 bound_to 11000
  140.2239  134.3990  155.7553 LP  0  0  0  0  0  0  0  0  0  0  0  0  # atno 17395 bound_to 11000

$$$$
