AV-unprocessed.smi:2146|AV-procd|sdf|8738|dock4
  -GOLD-   2272011513D 1   1.00000     0.00000
 Structure written by MMmdl.
 44 45  0  0  0  0  0  0  0  0  1 V2000
  149.4321  140.8845  157.2153 C   0  0  0  0  0  0  0  0  0  0  0  0
  150.8296  140.5212  157.7786 C   0  0  2  0  0  0  0  0  0  0  0  0
  150.8251  139.0246  158.2081 C   0  0  0  0  0  0  0  0  0  0  0  0
  149.5230  138.5533  158.6719 N   0  0  0  0  0  0  0  0  0  0  0  0
  149.3002  137.3838  159.2902 C   0  0  0  0  0  0  0  0  0  0  0  0
  150.1912  136.5668  159.5276 O   0  0  0  0  0  0  0  0  0  0  0  0
  147.8418  137.0977  159.6759 C   0  0  0  0  0  0  0  0  0  0  0  0
  147.6848  135.9126  160.5358 N   0  0  0  0  0  0  0  0  0  0  0  0
  147.5682  134.6644  159.8931 C   0  0  0  0  0  0  0  0  0  0  0  0
  147.4365  133.5041  160.5638 C   0  0  0  0  0  0  0  0  0  0  0  0
  147.2647  132.1792  159.8375 C   0  0  0  0  0  0  0  0  0  0  0  0
  146.1509  132.2042  159.1072 F   0  0  0  0  0  0  0  0  0  0  0  0
  148.2919  131.9385  159.0224 F   0  0  0  0  0  0  0  0  0  0  0  0
  147.1706  131.1684  160.7022 F   0  0  0  0  0  0  0  0  0  0  0  0
  147.3852  133.5966  162.0098 C   0  0  0  0  0  0  0  0  0  0  0  0
  147.4901  134.7829  162.6398 C   0  0  0  0  0  0  0  0  0  0  0  0
  147.6574  136.0339  161.8968 C   0  0  0  0  0  0  0  0  0  0  0  0
  147.7649  137.1224  162.4622 O   0  0  0  0  0  0  0  0  0  0  0  0
  151.2687  141.4380  158.8567 N   0  0  0  0  0  0  0  0  0  0  0  0
  152.5512  141.0427  159.4509 C   0  0  0  0  0  0  0  0  0  0  0  0
  153.0254  142.0104  160.5489 C   0  0  0  0  0  0  0  0  0  0  0  0
  153.1172  143.3267  160.0220 O   0  0  0  0  0  0  0  0  0  0  0  0
  151.8746  143.7812  159.5048 C   0  0  0  0  0  0  0  0  0  0  0  0
  151.3938  142.8266  158.3984 C   0  0  0  0  0  0  0  0  0  0  0  0
  149.0936  140.1811  156.4556 H   0  0  0  0  0  0  0  0  0  0  0  0
  149.4243  141.8557  156.7226 H   0  0  0  0  0  0  0  0  0  0  0  0
  148.6806  140.8999  158.0054 H   0  0  0  0  0  0  0  0  0  0  0  0
  151.5371  140.6168  156.9536 H   0  0  0  0  0  0  0  0  0  0  0  0
  151.1233  138.3642  157.3952 H   0  0  0  0  0  0  0  0  0  0  0  0
  151.5461  138.8681  159.0110 H   0  0  0  0  0  0  0  0  0  0  0  0
  148.7344  139.1630  158.5107 H   0  0  0  0  0  0  0  0  0  0  0  0
  147.4207  137.9765  160.1675 H   0  0  0  0  0  0  0  0  0  0  0  0
  147.2650  136.9828  158.7574 H   0  0  0  0  0  0  0  0  0  0  0  0
  147.5978  134.7092  158.8140 H   0  0  0  0  0  0  0  0  0  0  0  0
  147.2656  132.6997  162.5994 H   0  0  0  0  0  0  0  0  0  0  0  0
  147.4510  134.8138  163.7188 H   0  0  0  0  0  0  0  0  0  0  0  0
  152.4778  140.0597  159.9106 H   0  0  0  0  0  0  0  0  0  0  0  0
  153.3136  140.9749  158.6733 H   0  0  0  0  0  0  0  0  0  0  0  0
  152.3406  141.9965  161.3983 H   0  0  0  0  0  0  0  0  0  0  0  0
  154.0037  141.7082  160.9225 H   0  0  0  0  0  0  0  0  0  0  0  0
  151.1380  143.8460  160.3073 H   0  0  0  0  0  0  0  0  0  0  0  0
  152.0025  144.7876  159.1062 H   0  0  0  0  0  0  0  0  0  0  0  0
  152.0826  142.8766  157.5535 H   0  0  0  0  0  0  0  0  0  0  0  0
  150.4351  143.2040  158.0480 H   0  0  0  0  0  0  0  0  0  0  0  0
  1  2  1  0  0  0  0
  1 25  1  0  0  0  0
  1 26  1  0  0  0  0
  1 27  1  0  0  0  0
  2  3  1  0  0  0  0
  2 19  1  0  0  0  0
  2 28  1  0  0  0  0
  3  4  1  0  0  0  0
  3 29  1  0  0  0  0
  3 30  1  0  0  0  0
  4  5  1  0  0  0  0
  4 31  1  0  0  0  0
  5  6  2  0  0  0  0
  5  7  1  0  0  0  0
  7  8  1  0  0  0  0
  7 32  1  0  0  0  0
  7 33  1  0  0  0  0
  8 17  1  0  0  0  0
  8  9  1  0  0  0  0
  9 10  2  0  0  0  0
  9 34  1  0  0  0  0
 10 11  1  0  0  0  0
 10 15  1  0  0  0  0
 11 12  1  0  0  0  0
 11 13  1  0  0  0  0
 11 14  1  0  0  0  0
 15 16  2  0  0  0  0
 15 35  1  0  0  0  0
 16 17  1  0  0  0  0
 16 36  1  0  0  0  0
 17 18  2  0  0  0  0
 19 24  1  0  0  0  0
 19 20  1  0  0  0  0
 20 21  1  0  0  0  0
 20 37  1  0  0  0  0
 20 38  1  0  0  0  0
 21 22  1  0  0  0  0
 21 39  1  0  0  0  0
 21 40  1  0  0  0  0
 22 23  1  0  0  0  0
 23 24  1  0  0  0  0
 23 41  1  0  0  0  0
 23 42  1  0  0  0  0
 24 43  1  0  0  0  0
 24 44  1  0  0  0  0
M  END
> <s_m_source_file>
AV-unprocessed.smi

> <i_m_source_file_index>
2146

> <i_lp_mmshare_version>
43012

> <i_f3d_flags>
0

> <s_epik_input>
W0NIMl0xW0NIMl1PW0NIMl1bQ0gyXU4xW0NASF0oW0NIM10pW0NIMl1bTkhdQyg9TylbQ0gyXW4yW2NIXWMoQyhGKShGKUYpW2NIXVtjSF1jMj1P

> <s_epik_cmdline>
J2VwaWtfcHl0aG9uJywgJy1waCcsICc3LjAnLCAnLXRuJywgJzgnLCAnLW1hJywgJzIwMCcsICctbWV0YWxfYmluZGluZycsICctaW1hZScsICc8aW5maWxlLm1hZT4nLCAnLW9tYWUnLCAnPG91dGZpbGUubWFlPic=

> <r_lp_tautomer_probability>
1

> <r_epik_Ionization_Penalty>
0.237382

> <r_epik_Ionization_Penalty_Charging>
1.80451e-08

> <r_epik_Ionization_Penalty_Neutral>
0.237382

> <r_epik_State_Penalty>
0.228245

> <r_epik_Charging_Adjusted_Penalty>
0.228245

> <i_epik_Tot_Q>
0

> <i_epik_Tot_abs_Q>
0

> <r_epik_Metal_State_Penalty>
0.22822

> <b_epik_Metal_Only>
0

> <s_lp_Force_Field>
OPLS_2005

> <r_lp_Energy>
40.571

> <b_lp_Chiralities_Consistent>
1

> <s_lp_Variant>
AV-unprocessed.smi:2146-1

> <Gold.Version>
5.8.1

> <Gold.Id.Protein>
6NUR|6NUR_protein|mol2

> <Gold.PLP.Fitness>
47.5412

> <Gold.PLP.PLP>
-42.5311

> <Gold.PLP.part.hbond>
-3.0000

> <Gold.PLP.part.metal>
0.0000

> <Gold.PLP.part.buried>
-5.5646

> <Gold.PLP.part.nonpolar>
-34.9725

> <Gold.PLP.part.repulsive>
0.1655

> <Gold.PLP.ligand.clash>
0.0000

> <Gold.PLP.ligand.torsion>
0.9902

> <Gold.PLP.Chemscore.Hbond>
2.2960

> <Gold.PLP.Chemscore.CHOScore>
0.0000

> <Gold.PLP.Chemscore.Metal>
0.0000

> <Gold.Chemscore.Hbonds>
donor molecule, donor type, donor heavy atom, donor atom, acceptor molecule, acceptor atom, score
      P1  H  6896  6909       L1     6  1.00
      P1  H  6931  6943       L1    18  0.93

> <Gold.PLP.Chemscore.Internal.Correction>
0.1026

> <Gold.Rescore>
     Score         DG    S(hbond)    S(metal)    S(lipo)     H(rot)  DE(clash)    DE(int)     intcor
     17.82     -18.60       2.68        0.00      81.58       2.10       0.00       0.78       ----

> <Gold.Chemscore.Fitness>
17.8216

> <Gold.Chemscore.DG>
-18.6046

> <Gold.Chemscore.ZeroCoef>
-5.4800

> <Gold.Chemscore.Hbond>
2.6843

> <Gold.Chemscore.Metal>
0.0000

> <Gold.Chemscore.Lipo>
81.5814

> <Gold.Chemscore.Internal_Hbond>
0.0000

> <Gold.Chemscore.DEClash>
0.0000

> <Gold.Chemscore.DEInternal>
0.7830

> <Gold.Chemscore.Rot>
2.1039

> <Gold.Chemscore.Internal.Correction>
   9.000000E+99

> <Gold.Chemscore.Hbonds>
donor molecule, donor type, donor heavy atom, donor atom, acceptor molecule, acceptor atom, score
      P1  H  6896  6909       L1     6  1.00
      P1  H  6931  6943       L1    18  0.88
      P1  H  6934  6947       L1    18  0.01

> <Gold.Chemscore.Hbond.Weighted>
-8.9655

> <Gold.Chemscore.Metal.Weighted>
-0.0000

> <Gold.Chemscore.Lipo.Weighted>
-9.5450

> <Gold.Chemscore.Internal_Hbond.Weighted>
0.0000

> <Gold.Chemscore.DEClash.Weighted>
0.0000

> <Gold.Chemscore.DEInternal.Weighted>
0.7830

> <Gold.Chemscore.Rot.Weighted>
5.3860

> <Gold.Chemscore.Internal.Correction.Weighted>
   9.000000E+99

> <Gold.Protein.RotatedTorsions>
[ 6907 6896 6895 6894 ] final   84.79 input  -60.11 | X-H torsion
[ 7974 7965 7964 7962 ] final   81.90 input  175.53 | X-H torsion
[ 8008 7997 7996 7995 ] final  -21.36 input   59.86 | X-H torsion
[ 10167 10162 10161 10158 ] final    4.01 input  -65.29 | X-H torsion
[ 10718 10713 10712 10709 ] final   77.38 input   66.30 | X-H torsion
[ 10763 10752 10751 10750 ] final -106.06 input  -60.55 | X-H torsion
[ 11005 11000 10999 10996 ] final  -37.71 input  -57.11 | X-H torsion

> <Gold.Protein.ActiveResidues>
 VAL166  LYS551  ARG553  GLY616  TRP617  ASP618  TYR619  PRO620  LYS621  CYS622 
 ASP623  PHE694  ASN695  SER759  ASP760  ASP761  ALA762  ILE779  LEU786  VAL792 
 PHE793  MET794  SER795  GLU796  ALA797  LYS798  CYS799  TRP800  GLU811  SER814 

> <Gold.Protein.RotatedAtoms>
  152.5360  134.2687  159.8962 H   0  0  0  0  0  0  0  0  0  0  0  0  # atno 6907 bound_to 6896
  151.2644  133.4279  159.2625 H   0  0  0  0  0  0  0  0  0  0  0  0  # atno 6908 bound_to 6896
  151.0424  134.9631  159.8225 H   0  0  0  0  0  0  0  0  0  0  0  0  # atno 6909 bound_to 6896
  145.6321  139.2407  143.2079 H   0  0  0  0  0  0  0  0  0  0  0  0  # atno 7974 bound_to 7965
  154.4710  140.2037  155.9994 H   0  0  0  0  0  0  0  0  0  0  0  0  # atno 8008 bound_to 7997
  156.1011  140.3243  155.7914 H   0  0  0  0  0  0  0  0  0  0  0  0  # atno 8009 bound_to 7997
  155.4795  140.0537  157.2960 H   0  0  0  0  0  0  0  0  0  0  0  0  # atno 8010 bound_to 7997
  140.6556  143.7434  150.7649 H   0  0  0  0  0  0  0  0  0  0  0  0  # atno 10167 bound_to 10162
  157.6708  130.9819  150.1633 H   0  0  0  0  0  0  0  0  0  0  0  0  # atno 10718 bound_to 10713
  154.7987  135.4726  154.0224 H   0  0  0  0  0  0  0  0  0  0  0  0  # atno 10763 bound_to 10752
  153.1746  135.6830  153.8568 H   0  0  0  0  0  0  0  0  0  0  0  0  # atno 10764 bound_to 10752
  153.8138  135.3213  155.3381 H   0  0  0  0  0  0  0  0  0  0  0  0  # atno 10765 bound_to 10752
  140.9973  133.6974  156.1957 H   0  0  0  0  0  0  0  0  0  0  0  0  # atno 11005 bound_to 11000
  146.1348  140.7137  142.9395 LP  0  0  0  0  0  0  0  0  0  0  0  0  # atno 17320 bound_to 7965
  144.7189  140.4307  143.7023 LP  0  0  0  0  0  0  0  0  0  0  0  0  # atno 17321 bound_to 7965
  140.1093  143.4714  152.2379 LP  0  0  0  0  0  0  0  0  0  0  0  0  # atno 17342 bound_to 10162
  139.5779  144.7496  151.3717 LP  0  0  0  0  0  0  0  0  0  0  0  0  # atno 17343 bound_to 10162
  156.2404  130.3690  149.8343 LP  0  0  0  0  0  0  0  0  0  0  0  0  # atno 17370 bound_to 10713
  156.6145  130.8600  151.3461 LP  0  0  0  0  0  0  0  0  0  0  0  0  # atno 17371 bound_to 10713
  140.6946  134.4629  157.5588 LP  0  0  0  0  0  0  0  0  0  0  0  0  # atno 17394 bound_to 11000
  139.9021  134.8532  156.1854 LP  0  0  0  0  0  0  0  0  0  0  0  0  # atno 17395 bound_to 11000

$$$$
