AV-unprocessed.smi:234|AV-procd|sdf|1793|dock4
  -GOLD-   2262020353D 1   1.00000     0.00000
 Structure written by MMmdl.
 59 62  0  0  0  0  0  0  0  0  1 V2000
  144.2168  132.9943  149.9979 C   0  0  0  0  0  0  0  0  0  0  0  0
  144.3753  134.4516  150.4363 C   0  0  0  0  0  0  0  0  0  0  0  0
  143.7577  134.6193  151.7020 O   0  0  0  0  0  0  0  0  0  0  0  0
  143.5395  135.9841  152.0394 C   0  0  2  0  0  0  0  0  0  0  0  0
  144.7157  136.5809  152.8183 C   0  0  0  0  0  0  0  0  0  0  0  0
  144.0094  136.0811  154.0866 C   0  0  1  0  0  0  0  0  0  0  0  0
  144.1100  136.9929  155.2315 N   0  0  0  0  0  0  0  0  0  0  0  0
  143.2329  136.7535  156.3728 C   0  0  0  0  0  0  0  0  0  0  0  0
  145.3446  137.4070  155.6121 C   0  0  0  0  0  0  0  0  0  0  0  0
  146.3140  136.4972  155.8989 N   0  0  0  0  0  0  0  0  0  0  0  0
  147.5263  136.9052  156.2846 C   0  0  0  0  0  0  0  0  0  0  0  0
  147.9749  138.1513  156.4478 N   0  0  0  0  0  0  0  0  0  0  0  0
  147.0053  139.0676  156.1644 C   0  0  0  0  0  0  0  0  0  0  0  0
  145.6733  138.7834  155.7512 C   0  0  0  0  0  0  0  0  0  0  0  0
  144.9724  139.9676  155.5593 N   0  0  0  0  0  0  0  0  0  0  0  0
  145.8420  140.8995  155.8400 C   0  0  0  0  0  0  0  0  0  0  0  0
  147.0923  140.4485  156.2001 N   0  0  0  0  0  0  0  0  0  0  0  0
  148.2458  141.2651  156.5461 C   0  0  0  0  0  0  0  0  0  0  0  0
  149.3630  141.2427  155.4736 C   0  0  1  0  0  0  0  0  0  0  0  0
  148.9551  142.0595  154.3887 O   0  0  0  0  0  0  0  0  0  0  0  0
  150.6896  141.7917  156.0102 C   0  0  0  0  0  0  0  0  0  0  0  0
  151.6080  140.5755  156.0478 C   0  0  0  0  0  0  0  0  0  0  0  0
  151.1531  139.8020  154.9521 O   0  0  0  0  0  0  0  0  0  0  0  0
  149.7339  139.8130  154.9993 C   0  0  2  0  0  0  0  0  0  0  0  0
  149.1433  139.3405  153.6604 C   0  0  0  0  0  0  0  0  0  0  0  0
  142.6655  136.1547  153.3084 C   0  0  0  0  0  0  0  0  0  0  0  0
  141.8849  137.4789  153.3548 C   0  0  0  0  0  0  0  0  0  0  0  0
  141.6520  135.0387  153.5771 C   0  0  0  0  0  0  0  0  0  0  0  0
  144.6781  132.8282  149.0243 H   0  0  0  0  0  0  0  0  0  0  0  0
  143.1639  132.7220  149.9205 H   0  0  0  0  0  0  0  0  0  0  0  0
  144.6873  132.3177  150.7119 H   0  0  0  0  0  0  0  0  0  0  0  0
  145.4336  134.7094  150.4879 H   0  0  0  0  0  0  0  0  0  0  0  0
  143.9110  135.1124  149.7029 H   0  0  0  0  0  0  0  0  0  0  0  0
  143.2023  136.5884  151.1954 H   0  0  0  0  0  0  0  0  0  0  0  0
  145.6850  136.1191  152.6298 H   0  0  0  0  0  0  0  0  0  0  0  0
  144.7688  137.6681  152.7406 H   0  0  0  0  0  0  0  0  0  0  0  0
  144.2878  135.0522  154.3224 H   0  0  0  0  0  0  0  0  0  0  0  0
  143.7960  136.5329  157.2813 H   0  0  0  0  0  0  0  0  0  0  0  0
  142.5688  135.9095  156.1900 H   0  0  0  0  0  0  0  0  0  0  0  0
  142.6162  137.6328  156.5594 H   0  0  0  0  0  0  0  0  0  0  0  0
  148.2390  136.1205  156.4920 H   0  0  0  0  0  0  0  0  0  0  0  0
  145.5975  141.9504  155.7816 H   0  0  0  0  0  0  0  0  0  0  0  0
  147.9015  142.2866  156.7139 H   0  0  0  0  0  0  0  0  0  0  0  0
  148.6375  140.9160  157.5025 H   0  0  0  0  0  0  0  0  0  0  0  0
  148.8707  142.9476  154.7010 H   0  0  0  0  0  0  0  0  0  0  0  0
  151.1132  142.5324  155.3296 H   0  0  0  0  0  0  0  0  0  0  0  0
  150.6000  142.2663  156.9879 H   0  0  0  0  0  0  0  0  0  0  0  0
  152.6613  140.8385  155.9475 H   0  0  0  0  0  0  0  0  0  0  0  0
  151.4778  140.0145  156.9749 H   0  0  0  0  0  0  0  0  0  0  0  0
  149.4554  139.0949  155.7714 H   0  0  0  0  0  0  0  0  0  0  0  0
  148.0535  139.3675  153.6775 H   0  0  0  0  0  0  0  0  0  0  0  0
  149.4434  138.3141  153.4494 H   0  0  0  0  0  0  0  0  0  0  0  0
  149.4840  139.9583  152.8292 H   0  0  0  0  0  0  0  0  0  0  0  0
  141.3647  137.6105  154.3037 H   0  0  0  0  0  0  0  0  0  0  0  0
  141.1340  137.5227  152.5654 H   0  0  0  0  0  0  0  0  0  0  0  0
  142.5349  138.3442  153.2243 H   0  0  0  0  0  0  0  0  0  0  0  0
  141.0978  135.2067  154.5006 H   0  0  0  0  0  0  0  0  0  0  0  0
  142.1372  134.0668  153.6703 H   0  0  0  0  0  0  0  0  0  0  0  0
  140.9247  134.9609  152.7685 H   0  0  0  0  0  0  0  0  0  0  0  0
  1  2  1  0  0  0  0
  1 29  1  0  0  0  0
  1 30  1  0  0  0  0
  1 31  1  0  0  0  0
  2  3  1  0  0  0  0
  2 32  1  0  0  0  0
  2 33  1  0  0  0  0
  3  4  1  0  0  0  0
  4 26  1  0  0  0  0
  4  5  1  0  0  0  0
  4 34  1  0  0  0  0
  5  6  1  0  0  0  0
  5 35  1  0  0  0  0
  5 36  1  0  0  0  0
  6  7  1  0  0  0  0
  6 26  1  0  0  0  0
  6 37  1  0  0  0  0
  7  8  1  0  0  0  0
  7  9  1  0  0  0  0
  8 38  1  0  0  0  0
  8 39  1  0  0  0  0
  8 40  1  0  0  0  0
  9 14  1  0  0  0  0
  9 10  2  0  0  0  0
 10 11  1  0  0  0  0
 11 12  2  0  0  0  0
 11 41  1  0  0  0  0
 12 13  1  0  0  0  0
 13 17  1  0  0  0  0
 13 14  2  0  0  0  0
 14 15  1  0  0  0  0
 15 16  2  0  0  0  0
 16 17  1  0  0  0  0
 16 42  1  0  0  0  0
 17 18  1  0  0  0  0
 18 19  1  0  0  0  0
 18 43  1  0  0  0  0
 18 44  1  0  0  0  0
 19 24  1  0  0  0  0
 19 20  1  0  0  0  0
 19 21  1  0  0  0  0
 20 45  1  0  0  0  0
 21 22  1  0  0  0  0
 21 46  1  0  0  0  0
 21 47  1  0  0  0  0
 22 23  1  0  0  0  0
 22 48  1  0  0  0  0
 22 49  1  0  0  0  0
 23 24  1  0  0  0  0
 24 25  1  0  0  0  0
 24 50  1  0  0  0  0
 25 51  1  0  0  0  0
 25 52  1  0  0  0  0
 25 53  1  0  0  0  0
 26 27  1  0  0  0  0
 26 28  1  0  0  0  0
 27 54  1  0  0  0  0
 27 55  1  0  0  0  0
 27 56  1  0  0  0  0
 28 57  1  0  0  0  0
 28 58  1  0  0  0  0
 28 59  1  0  0  0  0
M  END
> <s_m_source_file>
AV-unprocessed.smi

> <i_m_source_file_index>
234

> <i_lp_mmshare_version>
43012

> <i_f3d_flags>
0

> <s_epik_input>
W0NIM11bQ0gyXU9bQ0BASF0oQzEoW0NIM10pW0NIM10pW0NIMl1bQ0BIXTFOKFtDSDNdKWMobltjSF1uMiljKGMyMyluW2NIXW4zW0NIMl1bQ0BAXTQoW09IXSlbQ0gyXVtDSDJdT1tDQEhdNFtDSDNd

> <s_epik_cmdline>
J2VwaWtfcHl0aG9uJywgJy1waCcsICc3LjAnLCAnLXRuJywgJzgnLCAnLW1hJywgJzIwMCcsICctbWV0YWxfYmluZGluZycsICctaW1hZScsICc8aW5maWxlLm1hZT4nLCAnLW9tYWUnLCAnPG91dGZpbGUubWFlPic=

> <r_lp_tautomer_probability>
1

> <r_epik_Ionization_Penalty>
0.00349132

> <r_epik_Ionization_Penalty_Charging>
0

> <r_epik_Ionization_Penalty_Neutral>
0.00349132

> <r_epik_State_Penalty>
0.00242418

> <r_epik_Charging_Adjusted_Penalty>
0.00242418

> <i_epik_Tot_Q>
0

> <i_epik_Tot_abs_Q>
0

> <r_epik_Metal_State_Penalty>
-0

> <b_epik_Metal_Only>
0

> <s_lp_Force_Field>
OPLS_2005

> <r_lp_Energy>
48.0221

> <b_lp_Chiralities_Consistent>
1

> <s_lp_Variant>
AV-unprocessed.smi:234-9

> <Gold.Version>
5.8.1

> <Gold.Id.Protein>
6NUR|6NUR_protein|mol2

> <Gold.PLP.Fitness>
38.3879

> <Gold.PLP.PLP>
-32.7006

> <Gold.PLP.part.hbond>
-3.0000

> <Gold.PLP.part.metal>
0.0000

> <Gold.PLP.part.buried>
-4.0966

> <Gold.PLP.part.nonpolar>
-25.5560

> <Gold.PLP.part.repulsive>
0.3789

> <Gold.PLP.ligand.clash>
0.0000

> <Gold.PLP.ligand.torsion>
1.1691

> <Gold.PLP.Chemscore.Hbond>
2.2697

> <Gold.PLP.Chemscore.CHOScore>
0.0000

> <Gold.PLP.Chemscore.Metal>
0.0000

> <Gold.Chemscore.Hbonds>
donor molecule, donor type, donor heavy atom, donor atom, acceptor molecule, acceptor atom, score
      L1  H    20    45       P1  8028  1.00
      P1  H  7989  7998       L1    23  1.00
      P1  H  8011  8017       L1    20  0.16

> <Gold.PLP.Chemscore.Internal.Correction>
1.2164

> <Gold.Rescore>
     Score         DG    S(hbond)    S(metal)    S(lipo)     H(rot)  DE(clash)    DE(int)     intcor
     10.13     -13.53       1.74        0.00      76.49       2.62       1.04       2.37       ----

> <Gold.Chemscore.Fitness>
10.1258

> <Gold.Chemscore.DG>
-13.5299

> <Gold.Chemscore.ZeroCoef>
-5.4800

> <Gold.Chemscore.Hbond>
1.7402

> <Gold.Chemscore.Metal>
0.0000

> <Gold.Chemscore.Lipo>
76.4941

> <Gold.Chemscore.Internal_Hbond>
0.0000

> <Gold.Chemscore.DEClash>
1.0358

> <Gold.Chemscore.DEInternal>
2.3683

> <Gold.Chemscore.Rot>
2.6219

> <Gold.Chemscore.Internal.Correction>
   9.000000E+99

> <Gold.Chemscore.Hbonds>
donor molecule, donor type, donor heavy atom, donor atom, acceptor molecule, acceptor atom, score
      L1  H    20    45       P1  8028  0.97
      P1  H  7989  7998       L1    23  0.21
      P1  H  8011  8017       L1    20  0.04

> <Gold.Chemscore.Hbond.Weighted>
-5.8122

> <Gold.Chemscore.Metal.Weighted>
-0.0000

> <Gold.Chemscore.Lipo.Weighted>
-8.9498

> <Gold.Chemscore.Internal_Hbond.Weighted>
0.0000

> <Gold.Chemscore.DEClash.Weighted>
1.0358

> <Gold.Chemscore.DEInternal.Weighted>
2.3683

> <Gold.Chemscore.Rot.Weighted>
6.7121

> <Gold.Chemscore.Internal.Correction.Weighted>
   9.000000E+99

> <Gold.Protein.RotatedTorsions>
[ 6907 6896 6895 6894 ] final -149.34 input  -60.11 | X-H torsion
[ 7974 7965 7964 7962 ] final   62.47 input  175.53 | X-H torsion
[ 8008 7997 7996 7995 ] final  101.63 input   59.86 | X-H torsion
[ 10167 10162 10161 10158 ] final  129.45 input  -65.29 | X-H torsion
[ 10718 10713 10712 10709 ] final -151.51 input   66.30 | X-H torsion
[ 10763 10752 10751 10750 ] final -137.19 input  -60.55 | X-H torsion
[ 11005 11000 10999 10996 ] final   43.00 input  -57.11 | X-H torsion

> <Gold.Protein.ActiveResidues>
 VAL166  LYS551  ARG553  GLY616  TRP617  ASP618  TYR619  PRO620  LYS621  CYS622 
 ASP623  PHE694  ASN695  SER759  ASP760  ASP761  ALA762  ILE779  LEU786  VAL792 
 PHE793  MET794  SER795  GLU796  ALA797  LYS798  CYS799  TRP800  GLU811  SER814 

> <Gold.Protein.RotatedAtoms>
  151.1827  133.4715  159.2593 H   0  0  0  0  0  0  0  0  0  0  0  0  # atno 6907 bound_to 6896
  151.1243  135.0096  159.8563 H   0  0  0  0  0  0  0  0  0  0  0  0  # atno 6908 bound_to 6896
  152.5457  134.1736  159.8660 H   0  0  0  0  0  0  0  0  0  0  0  0  # atno 6909 bound_to 6896
  145.8730  139.3391  143.0751 H   0  0  0  0  0  0  0  0  0  0  0  0  # atno 7974 bound_to 7965
  156.1318  140.3194  155.8360 H   0  0  0  0  0  0  0  0  0  0  0  0  # atno 8008 bound_to 7997
  155.4318  140.0519  157.3035 H   0  0  0  0  0  0  0  0  0  0  0  0  # atno 8009 bound_to 7997
  154.4905  140.2090  155.9572 H   0  0  0  0  0  0  0  0  0  0  0  0  # atno 8010 bound_to 7997
  139.5477  144.6787  151.4421 H   0  0  0  0  0  0  0  0  0  0  0  0  # atno 10167 bound_to 10162
  156.4602  130.8209  151.2440 H   0  0  0  0  0  0  0  0  0  0  0  0  # atno 10718 bound_to 10713
  154.8667  135.3650  154.5183 H   0  0  0  0  0  0  0  0  0  0  0  0  # atno 10763 bound_to 10752
  153.5814  135.7018  153.5466 H   0  0  0  0  0  0  0  0  0  0  0  0  # atno 10764 bound_to 10752
  153.3454  135.4086  155.1567 H   0  0  0  0  0  0  0  0  0  0  0  0  # atno 10765 bound_to 10752
  140.1686  134.4251  155.8271 H   0  0  0  0  0  0  0  0  0  0  0  0  # atno 11005 bound_to 11000
  145.9114  140.9177  143.0452 LP  0  0  0  0  0  0  0  0  0  0  0  0  # atno 17320 bound_to 7965
  144.6726  140.1165  143.7452 LP  0  0  0  0  0  0  0  0  0  0  0  0  # atno 17321 bound_to 7965
  140.6730  143.8251  150.7023 LP  0  0  0  0  0  0  0  0  0  0  0  0  # atno 17342 bound_to 10162
  140.1681  143.4218  152.2020 LP  0  0  0  0  0  0  0  0  0  0  0  0  # atno 17343 bound_to 10162
  157.7498  131.0109  150.3326 LP  0  0  0  0  0  0  0  0  0  0  0  0  # atno 17370 bound_to 10713
  156.3724  130.3866  149.7165 LP  0  0  0  0  0  0  0  0  0  0  0  0  # atno 17371 bound_to 10713
  141.2215  133.6945  156.7722 LP  0  0  0  0  0  0  0  0  0  0  0  0  # atno 17394 bound_to 11000
  140.2404  134.8617  157.3568 LP  0  0  0  0  0  0  0  0  0  0  0  0  # atno 17395 bound_to 11000

$$$$
