AV-unprocessed.smi:2425|AV-procd|sdf|9575|dock7
  -GOLD-   2272013203D 1   1.00000     0.00000
 Structure written by MMmdl.
 35 36  0  0  0  0  0  0  0  0  3 V2000
  153.0200  142.8894  161.8956 C   0  0  0  0  0  0  0  0  0  0  0  0
  152.9655  142.1093  160.5738 C   0  0  0  0  0  0  0  0  0  0  0  0
  152.2282  142.8467  159.4457 C   0  0  0  0  0  0  0  0  0  0  0  0
  151.6134  141.8885  158.5141 N   0  0  0  0  0  0  0  0  0  0  0  0
  152.1569  140.7540  158.0445 C   0  0  0  0  0  0  0  0  0  0  0  0
  153.2877  140.3657  158.3373 O   0  0  0  0  0  0  0  0  0  0  0  0
  151.3110  140.1242  157.2115 N   0  0  0  0  0  0  0  0  0  0  0  0
  151.5131  138.9166  156.4829 C   0  0  0  0  0  0  0  0  0  0  0  0
  152.4304  137.9255  156.9110 C   0  0  0  0  0  0  0  0  0  0  0  0
  152.5426  136.7330  156.1723 C   0  0  0  0  0  0  0  0  0  0  0  0
  151.8073  136.4707  155.0742 N   0  0  0  0  0  0  0  0  0  0  0  0
  150.9218  137.4061  154.6738 C   0  0  0  0  0  0  0  0  0  0  0  0
  150.7274  138.6437  155.3291 C   0  0  0  0  0  0  0  0  0  0  0  0
  149.7282  139.5899  154.7971 N   0  3  0  0  0  0  0  0  0  0  0  0
  149.9539  140.7931  154.8770 O   0  0  0  0  0  0  0  0  0  0  0  0
  148.7236  139.1185  154.2749 O   0  5  0  0  0  0  0  0  0  0  0  0
  151.1774  143.9064  159.8357 C   0  0  0  0  0  0  0  0  0  0  0  0
  151.6474  144.7792  158.6694 C   0  0  0  0  0  0  0  0  0  0  0  0
  152.9541  143.9825  158.6879 C   0  0  0  0  0  0  0  0  0  0  0  0
  153.5845  142.3361  162.6463 H   0  0  0  0  0  0  0  0  0  0  0  0
  152.0228  143.0650  162.2992 H   0  0  0  0  0  0  0  0  0  0  0  0
  153.5047  143.8570  161.7638 H   0  0  0  0  0  0  0  0  0  0  0  0
  153.9884  141.8975  160.2606 H   0  0  0  0  0  0  0  0  0  0  0  0
  152.5147  141.1333  160.7539 H   0  0  0  0  0  0  0  0  0  0  0  0
  150.6809  142.1165  158.2020 H   0  0  0  0  0  0  0  0  0  0  0  0
  150.4559  140.6175  156.9995 H   0  0  0  0  0  0  0  0  0  0  0  0
  153.0337  138.0470  157.7975 H   0  0  0  0  0  0  0  0  0  0  0  0
  153.2343  135.9630  156.4803 H   0  0  0  0  0  0  0  0  0  0  0  0
  150.3519  137.1569  153.7907 H   0  0  0  0  0  0  0  0  0  0  0  0
  150.1380  143.5818  159.7722 H   0  0  0  0  0  0  0  0  0  0  0  0
  151.3854  144.3663  160.8034 H   0  0  0  0  0  0  0  0  0  0  0  0
  151.0670  144.6213  157.7590 H   0  0  0  0  0  0  0  0  0  0  0  0
  151.7551  145.8383  158.9052 H   0  0  0  0  0  0  0  0  0  0  0  0
  153.7209  144.4665  159.2950 H   0  0  0  0  0  0  0  0  0  0  0  0
  153.3425  143.7331  157.7001 H   0  0  0  0  0  0  0  0  0  0  0  0
  1  2  1  0  0  0  0
  1 20  1  0  0  0  0
  1 21  1  0  0  0  0
  1 22  1  0  0  0  0
  2  3  1  0  0  0  0
  2 23  1  0  0  0  0
  2 24  1  0  0  0  0
  3 19  1  0  0  0  0
  3  4  1  0  0  0  0
  3 17  1  0  0  0  0
  4  5  1  0  0  0  0
  4 25  1  0  0  0  0
  5  6  2  0  0  0  0
  5  7  1  0  0  0  0
  7  8  1  0  0  0  0
  7 26  1  0  0  0  0
  8 13  1  0  0  0  0
  8  9  2  0  0  0  0
  9 10  1  0  0  0  0
  9 27  1  0  0  0  0
 10 11  2  0  0  0  0
 10 28  1  0  0  0  0
 11 12  1  0  0  0  0
 12 13  2  0  0  0  0
 12 29  1  0  0  0  0
 13 14  1  0  0  0  0
 14 15  2  0  0  0  0
 14 16  1  0  0  0  0
 17 18  1  0  0  0  0
 17 30  1  0  0  0  0
 17 31  1  0  0  0  0
 18 19  1  0  0  0  0
 18 32  1  0  0  0  0
 18 33  1  0  0  0  0
 19 34  1  0  0  0  0
 19 35  1  0  0  0  0
M  CHG  1  14   1
M  CHG  1  16  -1
M  END
> <s_m_source_file>
AV-unprocessed.smi

> <i_m_source_file_index>
2425

> <i_lp_mmshare_version>
43012

> <i_f3d_flags>
0

> <s_epik_input>
W0NIMl0xW0NIMl1bQ0gyXUMxKFtDSDJdW0NIM10pW05IXUMoPU8pW05IXWMyW2NIXVtjSF1uW2NIXWMyW04rXSg9TylbTy1d

> <s_epik_cmdline>
J2VwaWtfcHl0aG9uJywgJy1waCcsICc3LjAnLCAnLXRuJywgJzgnLCAnLW1hJywgJzIwMCcsICctbWV0YWxfYmluZGluZycsICctaW1hZScsICc8aW5maWxlLm1hZT4nLCAnLW9tYWUnLCAnPG91dGZpbGUubWFlPic=

> <r_lp_tautomer_probability>
1

> <r_epik_Ionization_Penalty>
0.00016416

> <r_epik_Ionization_Penalty_Charging>
0

> <r_epik_Ionization_Penalty_Neutral>
0.00016416

> <r_epik_State_Penalty>
-0

> <r_epik_Charging_Adjusted_Penalty>
0

> <i_epik_Tot_Q>
0

> <i_epik_Tot_abs_Q>
2

> <r_epik_Metal_State_Penalty>
-0

> <b_epik_Metal_Only>
0

> <s_lp_Force_Field>
OPLS_2005

> <r_lp_Energy>
29.2252

> <b_lp_Chiralities_Consistent>
1

> <s_lp_Variant>
AV-unprocessed.smi:2425-1

> <Gold.Version>
5.8.1

> <Gold.Id.Protein>
6NUR|6NUR_protein|mol2

> <Gold.PLP.Fitness>
43.9667

> <Gold.PLP.PLP>
-35.7739

> <Gold.PLP.part.hbond>
-3.0000

> <Gold.PLP.part.metal>
0.0000

> <Gold.PLP.part.buried>
-2.7435

> <Gold.PLP.part.nonpolar>
-30.6090

> <Gold.PLP.part.repulsive>
0.6924

> <Gold.PLP.ligand.clash>
0.0000

> <Gold.PLP.ligand.torsion>
1.4159

> <Gold.PLP.Chemscore.Hbond>
2.4562

> <Gold.PLP.Chemscore.CHOScore>
1.0902

> <Gold.PLP.Chemscore.Metal>
0.0000

> <Gold.Chemscore.Hbonds>
donor molecule, donor type, donor heavy atom, donor atom, acceptor molecule, acceptor atom, score
      P1  H  7989  7998       L1    15  0.49
      P1  H  7997  8010       L1     6  0.82
      P1  H 10752 10764       L1    11  0.71
      L1  C    12    29       P1  7948  0.86
      L1  C    12    29       P1  7949  0.23

> <Gold.PLP.Chemscore.Internal.Correction>
0.3857

> <Gold.Rescore>
     Score         DG    S(hbond)    S(metal)    S(lipo)     H(rot)  DE(clash)    DE(int)     intcor
     13.65     -20.12       1.91        0.00      97.36       1.23       0.81       5.65       ----

> <Gold.Chemscore.Fitness>
13.6518

> <Gold.Chemscore.DG>
-20.1167

> <Gold.Chemscore.ZeroCoef>
-5.4800

> <Gold.Chemscore.Hbond>
1.9132

> <Gold.Chemscore.Metal>
0.0000

> <Gold.Chemscore.Lipo>
97.3562

> <Gold.Chemscore.Internal_Hbond>
0.0000

> <Gold.Chemscore.DEClash>
0.8127

> <Gold.Chemscore.DEInternal>
5.6522

> <Gold.Chemscore.Rot>
1.2282

> <Gold.Chemscore.Internal.Correction>
   9.000000E+99

> <Gold.Chemscore.Hbonds>
donor molecule, donor type, donor heavy atom, donor atom, acceptor molecule, acceptor atom, score
      P1  H  7989  7998       L1    15  0.11
      P1  H  7997  8010       L1     6  0.81
      P1  H 10752 10764       L1    11  0.12

> <Gold.Chemscore.Hbond.Weighted>
-6.3902

> <Gold.Chemscore.Metal.Weighted>
-0.0000

> <Gold.Chemscore.Lipo.Weighted>
-11.3907

> <Gold.Chemscore.Internal_Hbond.Weighted>
0.0000

> <Gold.Chemscore.DEClash.Weighted>
0.8127

> <Gold.Chemscore.DEInternal.Weighted>
5.6522

> <Gold.Chemscore.Rot.Weighted>
3.1441

> <Gold.Chemscore.Internal.Correction.Weighted>
   9.000000E+99

> <Gold.Protein.RotatedTorsions>
[ 6907 6896 6895 6894 ] final  -34.45 input  -60.11 | X-H torsion
[ 7974 7965 7964 7962 ] final  115.30 input  175.53 | X-H torsion
[ 8008 7997 7996 7995 ] final   24.41 input   59.86 | X-H torsion
[ 10167 10162 10161 10158 ] final   -3.79 input  -65.29 | X-H torsion
[ 10718 10713 10712 10709 ] final   26.11 input   66.30 | X-H torsion
[ 10763 10752 10751 10750 ] final  -82.09 input  -60.55 | X-H torsion
[ 11005 11000 10999 10996 ] final  177.58 input  -57.11 | X-H torsion

> <Gold.Protein.ActiveResidues>
 VAL166  LYS551  ARG553  GLY616  TRP617  ASP618  TYR619  PRO620  LYS621  CYS622 
 ASP623  PHE694  ASN695  SER759  ASP760  ASP761  ALA762  ILE779  LEU786  VAL792 
 PHE793  MET794  SER795  GLU796  ALA797  LYS798  CYS799  TRP800  GLU811  SER814 

> <Gold.Protein.RotatedAtoms>
  151.0524  134.9682  159.8218 H   0  0  0  0  0  0  0  0  0  0  0  0  # atno 6907 bound_to 6896
  152.5383  134.2520  159.8912 H   0  0  0  0  0  0  0  0  0  0  0  0  # atno 6908 bound_to 6896
  151.2536  133.4294  159.2646 H   0  0  0  0  0  0  0  0  0  0  0  0  # atno 6909 bound_to 6896
  145.1937  139.2987  143.4355 H   0  0  0  0  0  0  0  0  0  0  0  0  # atno 7974 bound_to 7965
  154.9959  140.3119  155.4887 H   0  0  0  0  0  0  0  0  0  0  0  0  # atno 8008 bound_to 7997
  156.2932  140.2241  156.5006 H   0  0  0  0  0  0  0  0  0  0  0  0  # atno 8009 bound_to 7997
  154.7662  140.0455  157.1002 H   0  0  0  0  0  0  0  0  0  0  0  0  # atno 8010 bound_to 7997
  140.6903  143.6498  150.8360 H   0  0  0  0  0  0  0  0  0  0  0  0  # atno 10167 bound_to 10162
  157.2024  130.6896  149.6194 H   0  0  0  0  0  0  0  0  0  0  0  0  # atno 10718 bound_to 10713
  154.5715  135.5603  153.7099 H   0  0  0  0  0  0  0  0  0  0  0  0  # atno 10763 bound_to 10752
  153.0050  135.6298  154.2108 H   0  0  0  0  0  0  0  0  0  0  0  0  # atno 10764 bound_to 10752
  154.2047  135.2876  155.2958 H   0  0  0  0  0  0  0  0  0  0  0  0  # atno 10765 bound_to 10752
  140.3857  134.6907  157.4478 H   0  0  0  0  0  0  0  0  0  0  0  0  # atno 11005 bound_to 11000
  146.3431  140.2158  142.8590 LP  0  0  0  0  0  0  0  0  0  0  0  0  # atno 17320 bound_to 7965
  145.0016  140.8636  143.5278 LP  0  0  0  0  0  0  0  0  0  0  0  0  # atno 17321 bound_to 7965
  140.0210  143.5542  152.2800 LP  0  0  0  0  0  0  0  0  0  0  0  0  # atno 17342 bound_to 10162
  139.6300  144.7643  151.2556 LP  0  0  0  0  0  0  0  0  0  0  0  0  # atno 17343 bound_to 10162
  155.9699  130.4578  150.5976 LP  0  0  0  0  0  0  0  0  0  0  0  0  # atno 17370 bound_to 10713
  157.3754  131.0772  151.1522 LP  0  0  0  0  0  0  0  0  0  0  0  0  # atno 17371 bound_to 10713
  140.0444  134.6220  155.8939 LP  0  0  0  0  0  0  0  0  0  0  0  0  # atno 17394 bound_to 11000
  141.1908  133.6569  156.5428 LP  0  0  0  0  0  0  0  0  0  0  0  0  # atno 17395 bound_to 11000

$$$$
