AV-unprocessed.smi:214|AV-procd|sdf|1649|dock10
  -GOLD-   2262020 33D 1   1.00000     0.00000
 Structure written by MMmdl.
 47 50  0  0  0  0  0  0  0  0  1 V2000
  152.2292  145.1547  160.5551 C   0  0  0  0  0  0  0  0  0  0  0  0
  151.6302  144.4518  159.4253 N   0  0  0  0  0  0  0  0  0  0  0  0
  150.2632  144.7943  159.0173 C   0  0  0  0  0  0  0  0  0  0  0  0
  149.2732  144.7806  160.1887 C   0  0  0  0  0  0  0  0  0  0  0  0
  149.5669  144.2492  161.2608 O   0  0  0  0  0  0  0  0  0  0  0  0
  148.1001  145.3911  159.9668 N   0  0  0  0  0  0  0  0  0  0  0  0
  147.0344  145.5068  160.9094 C   0  0  0  0  0  0  0  0  0  0  0  0
  146.6813  144.2807  161.7235 C   0  0  0  0  0  0  0  0  0  0  0  0
  145.7593  144.7415  160.6286 C   0  0  0  0  0  0  0  0  0  0  0  0
  152.0165  143.1587  159.3244 C   0  0  0  0  0  0  0  0  0  0  0  0
  153.1636  142.8023  159.9550 N   0  0  0  0  0  0  0  0  0  0  0  0
  153.6011  141.5416  159.8910 C   0  0  0  0  0  0  0  0  0  0  0  0
  153.0486  140.4974  159.2710 N   0  0  0  0  0  0  0  0  0  0  0  0
  151.8830  140.8447  158.6546 C   0  0  0  0  0  0  0  0  0  0  0  0
  151.2985  142.1431  158.6291 C   0  0  0  0  0  0  0  0  0  0  0  0
  150.1082  142.1098  157.9116 N   0  0  0  0  0  0  0  0  0  0  0  0
  150.0021  140.8676  157.5260 C   0  0  0  0  0  0  0  0  0  0  0  0
  151.0200  140.0359  157.9354 N   0  0  0  0  0  0  0  0  0  0  0  0
  151.1461  138.6149  157.6473 C   0  0  0  0  0  0  0  0  0  0  0  0
  151.3689  138.2837  156.1563 C   0  0  0  0  0  0  0  0  0  0  0  0
  151.3759  136.7622  155.9245 C   0  0  0  0  0  0  0  0  0  0  0  0
  151.4505  136.4492  154.5482 O   0  0  0  0  0  0  0  0  0  0  0  0
  150.5120  139.0805  155.1626 C   0  0  0  0  0  0  0  0  0  0  0  0
  151.6649  139.4417  154.3736 O   0  0  0  0  0  0  0  0  0  0  0  0
  152.5170  139.0330  155.4639 C   0  0  0  0  0  0  0  0  0  0  0  0
  153.3099  145.2360  160.4341 H   0  0  0  0  0  0  0  0  0  0  0  0
  152.0251  144.6304  161.4901 H   0  0  0  0  0  0  0  0  0  0  0  0
  151.8321  146.1662  160.6449 H   0  0  0  0  0  0  0  0  0  0  0  0
  150.2236  145.7937  158.5813 H   0  0  0  0  0  0  0  0  0  0  0  0
  149.9307  144.0952  158.2482 H   0  0  0  0  0  0  0  0  0  0  0  0
  147.9485  145.8051  159.0585 H   0  0  0  0  0  0  0  0  0  0  0  0
  146.9163  146.4635  161.4162 H   0  0  0  0  0  0  0  0  0  0  0  0
  147.2508  143.3698  161.5485 H   0  0  0  0  0  0  0  0  0  0  0  0
  146.3594  144.4378  162.7510 H   0  0  0  0  0  0  0  0  0  0  0  0
  144.8210  145.2062  160.9243 H   0  0  0  0  0  0  0  0  0  0  0  0
  145.7150  144.1394  159.7230 H   0  0  0  0  0  0  0  0  0  0  0  0
  154.5263  141.3410  160.4111 H   0  0  0  0  0  0  0  0  0  0  0  0
  149.1674  140.5190  156.9352 H   0  0  0  0  0  0  0  0  0  0  0  0
  151.9647  138.2187  158.2492 H   0  0  0  0  0  0  0  0  0  0  0  0
  150.2480  138.1202  158.0195 H   0  0  0  0  0  0  0  0  0  0  0  0
  152.2357  136.3053  156.4158 H   0  0  0  0  0  0  0  0  0  0  0  0
  150.4962  136.2835  156.3553 H   0  0  0  0  0  0  0  0  0  0  0  0
  150.5715  136.3956  154.2048 H   0  0  0  0  0  0  0  0  0  0  0  0
  149.7937  138.4769  154.6067 H   0  0  0  0  0  0  0  0  0  0  0  0
  150.0292  139.9570  155.5978 H   0  0  0  0  0  0  0  0  0  0  0  0
  152.8906  139.8946  156.0191 H   0  0  0  0  0  0  0  0  0  0  0  0
  153.3380  138.3914  155.1422 H   0  0  0  0  0  0  0  0  0  0  0  0
  1  2  1  0  0  0  0
  1 26  1  0  0  0  0
  1 27  1  0  0  0  0
  1 28  1  0  0  0  0
  2  3  1  0  0  0  0
  2 10  1  0  0  0  0
  3  4  1  0  0  0  0
  3 29  1  0  0  0  0
  3 30  1  0  0  0  0
  4  5  2  0  0  0  0
  4  6  1  0  0  0  0
  6  7  1  0  0  0  0
  6 31  1  0  0  0  0
  7  9  1  0  0  0  0
  7  8  1  0  0  0  0
  7 32  1  0  0  0  0
  8  9  1  0  0  0  0
  8 33  1  0  0  0  0
  8 34  1  0  0  0  0
  9 35  1  0  0  0  0
  9 36  1  0  0  0  0
 10 15  1  0  0  0  0
 10 11  2  0  0  0  0
 11 12  1  0  0  0  0
 12 13  2  0  0  0  0
 12 37  1  0  0  0  0
 13 14  1  0  0  0  0
 14 18  1  0  0  0  0
 14 15  2  0  0  0  0
 15 16  1  0  0  0  0
 16 17  2  0  0  0  0
 17 18  1  0  0  0  0
 17 38  1  0  0  0  0
 18 19  1  0  0  0  0
 19 20  1  0  0  0  0
 19 39  1  0  0  0  0
 19 40  1  0  0  0  0
 20 25  1  0  0  0  0
 20 21  1  0  0  0  0
 20 23  1  0  0  0  0
 21 22  1  0  0  0  0
 21 41  1  0  0  0  0
 21 42  1  0  0  0  0
 22 43  1  0  0  0  0
 23 24  1  0  0  0  0
 23 44  1  0  0  0  0
 23 45  1  0  0  0  0
 24 25  1  0  0  0  0
 25 46  1  0  0  0  0
 25 47  1  0  0  0  0
M  END
> <s_m_source_file>
AV-unprocessed.smi

> <i_m_source_file_index>
214

> <i_lp_mmshare_version>
43012

> <i_f3d_flags>
0

> <s_epik_input>
W0NIMl0xW0NIMl1bQ0hdMVtOSF1DKD1PKVtDSDJdTihbQ0gzXSljKG5bY0hdbjIpYyhjMjMpbltjSF1uM1tDSDJdQzQoW0NIMl1bT0hdKVtDSDJdT1tDSDJdNA==

> <s_epik_cmdline>
J2VwaWtfcHl0aG9uJywgJy1waCcsICc3LjAnLCAnLXRuJywgJzgnLCAnLW1hJywgJzIwMCcsICctbWV0YWxfYmluZGluZycsICctaW1hZScsICc8aW5maWxlLm1hZT4nLCAnLW9tYWUnLCAnPG91dGZpbGUubWFlPic=

> <r_lp_tautomer_probability>
1

> <r_epik_Ionization_Penalty>
0.000508869

> <r_epik_Ionization_Penalty_Charging>
0

> <r_epik_Ionization_Penalty_Neutral>
0.000508869

> <r_epik_State_Penalty>
0.000243319

> <r_epik_Charging_Adjusted_Penalty>
0.000243319

> <i_epik_Tot_Q>
0

> <i_epik_Tot_abs_Q>
0

> <r_epik_Metal_State_Penalty>
-0

> <b_epik_Metal_Only>
0

> <s_lp_Force_Field>
OPLS_2005

> <r_lp_Energy>
39.3286

> <b_lp_Chiralities_Consistent>
1

> <s_lp_Variant>
AV-unprocessed.smi:214-1

> <Gold.Version>
5.8.1

> <Gold.Id.Protein>
6NUR|6NUR_protein|mol2

> <Gold.PLP.Fitness>
55.8188

> <Gold.PLP.PLP>
-46.5780

> <Gold.PLP.part.hbond>
-4.9043

> <Gold.PLP.part.metal>
0.0000

> <Gold.PLP.part.buried>
-8.1353

> <Gold.PLP.part.nonpolar>
-34.6930

> <Gold.PLP.part.repulsive>
0.6371

> <Gold.PLP.ligand.clash>
0.0000

> <Gold.PLP.ligand.torsion>
0.9362

> <Gold.PLP.Chemscore.Hbond>
3.3468

> <Gold.PLP.Chemscore.CHOScore>
0.0000

> <Gold.PLP.Chemscore.Metal>
0.0000

> <Gold.Chemscore.Hbonds>
donor molecule, donor type, donor heavy atom, donor atom, acceptor molecule, acceptor atom, score
      L1  H     6    31       P1  8029  1.00
      P1  H  6933  6944       L1     5  0.24
      P1  H  7989  7998       L1    24  1.00
      P1  H 10752 10764       L1    22  1.00

> <Gold.PLP.Chemscore.Internal.Correction>
1.0727

> <Gold.Rescore>
     Score         DG    S(hbond)    S(metal)    S(lipo)     H(rot)  DE(clash)    DE(int)     intcor
      9.97     -16.13       3.24        0.00      71.00       3.31       1.15       5.02       ----

> <Gold.Chemscore.Fitness>
9.9672

> <Gold.Chemscore.DG>
-16.1313

> <Gold.Chemscore.ZeroCoef>
-5.4800

> <Gold.Chemscore.Hbond>
3.2353

> <Gold.Chemscore.Metal>
0.0000

> <Gold.Chemscore.Lipo>
70.9993

> <Gold.Chemscore.Internal_Hbond>
0.0000

> <Gold.Chemscore.DEClash>
1.1465

> <Gold.Chemscore.DEInternal>
5.0175

> <Gold.Chemscore.Rot>
3.3052

> <Gold.Chemscore.Internal.Correction>
   9.000000E+99

> <Gold.Chemscore.Hbonds>
donor molecule, donor type, donor heavy atom, donor atom, acceptor molecule, acceptor atom, score
      L1  H     6    31       P1  8029  1.00
      P1  H  6933  6944       L1     5  0.18
      P1  H  7989  7998       L1    24  0.95
      P1  H 10752 10764       L1    22  0.77

> <Gold.Chemscore.Hbond.Weighted>
-10.8057

> <Gold.Chemscore.Metal.Weighted>
-0.0000

> <Gold.Chemscore.Lipo.Weighted>
-8.3069

> <Gold.Chemscore.Internal_Hbond.Weighted>
0.0000

> <Gold.Chemscore.DEClash.Weighted>
1.1465

> <Gold.Chemscore.DEInternal.Weighted>
5.0175

> <Gold.Chemscore.Rot.Weighted>
8.4614

> <Gold.Chemscore.Internal.Correction.Weighted>
   9.000000E+99

> <Gold.Protein.RotatedTorsions>
[ 6907 6896 6895 6894 ] final -163.10 input  -60.11 | X-H torsion
[ 7974 7965 7964 7962 ] final  162.56 input  175.53 | X-H torsion
[ 8008 7997 7996 7995 ] final  -62.00 input   59.86 | X-H torsion
[ 10167 10162 10161 10158 ] final  104.70 input  -65.29 | X-H torsion
[ 10718 10713 10712 10709 ] final  136.14 input   66.30 | X-H torsion
[ 10763 10752 10751 10750 ] final  -86.34 input  -60.55 | X-H torsion
[ 11005 11000 10999 10996 ] final -113.57 input  -57.11 | X-H torsion

> <Gold.Protein.ActiveResidues>
 VAL166  LYS551  ARG553  GLY616  TRP617  ASP618  TYR619  PRO620  LYS621  CYS622 
 ASP623  PHE694  ASN695  SER759  ASP760  ASP761  ALA762  ILE779  LEU786  VAL792 
 PHE793  MET794  SER795  GLU796  ALA797  LYS798  CYS799  TRP800  GLU811  SER814 

> <Gold.Protein.RotatedAtoms>
  151.3907  133.3790  159.2720 H   0  0  0  0  0  0  0  0  0  0  0  0  # atno 6907 bound_to 6896
  150.9507  134.8908  159.7681 H   0  0  0  0  0  0  0  0  0  0  0  0  # atno 6908 bound_to 6896
  152.5110  134.3862  159.9420 H   0  0  0  0  0  0  0  0  0  0  0  0  # atno 6909 bound_to 6896
  144.7631  139.8057  143.6325 H   0  0  0  0  0  0  0  0  0  0  0  0  # atno 7974 bound_to 7965
  154.4476  140.1005  156.6518 H   0  0  0  0  0  0  0  0  0  0  0  0  # atno 8008 bound_to 7997
  155.5389  140.3483  155.4424 H   0  0  0  0  0  0  0  0  0  0  0  0  # atno 8009 bound_to 7997
  156.0611  140.1326  156.9929 H   0  0  0  0  0  0  0  0  0  0  0  0  # atno 8010 bound_to 7997
  139.7155  144.7069  151.0957 H   0  0  0  0  0  0  0  0  0  0  0  0  # atno 10167 bound_to 10162
  157.4498  131.1065  151.0047 H   0  0  0  0  0  0  0  0  0  0  0  0  # atno 10718 bound_to 10713
  154.6213  135.5453  153.7578 H   0  0  0  0  0  0  0  0  0  0  0  0  # atno 10763 bound_to 10752
  153.0240  135.6413  154.1436 H   0  0  0  0  0  0  0  0  0  0  0  0  # atno 10764 bound_to 10752
  154.1370  135.2910  155.3150 H   0  0  0  0  0  0  0  0  0  0  0  0  # atno 10765 bound_to 10752
  141.0606  133.9541  157.2674 H   0  0  0  0  0  0  0  0  0  0  0  0  # atno 11005 bound_to 11000
  146.1713  139.4864  142.9926 LP  0  0  0  0  0  0  0  0  0  0  0  0  # atno 17320 bound_to 7965
  145.6556  141.0253  143.1736 LP  0  0  0  0  0  0  0  0  0  0  0  0  # atno 17321 bound_to 7965
  140.7743  143.5235  150.9508 LP  0  0  0  0  0  0  0  0  0  0  0  0  # atno 17342 bound_to 10162
  139.8921  143.6940  152.3144 LP  0  0  0  0  0  0  0  0  0  0  0  0  # atno 17343 bound_to 10162
  157.0881  130.5931  149.5434 LP  0  0  0  0  0  0  0  0  0  0  0  0  # atno 17370 bound_to 10713
  155.9982  130.5055  150.7563 LP  0  0  0  0  0  0  0  0  0  0  0  0  # atno 17371 bound_to 10713
  139.9429  135.0188  156.8764 LP  0  0  0  0  0  0  0  0  0  0  0  0  # atno 17394 bound_to 11000
  140.5876  134.0292  155.7487 LP  0  0  0  0  0  0  0  0  0  0  0  0  # atno 17395 bound_to 11000

$$$$
