AV-unprocessed.smi:1346|AV-procd|sdf|5512|dock1
  -GOLD-   22720 5 93D 1   1.00000     0.00000
 Structure written by MMmdl.
 47 48  0  0  0  0  0  0  0  0  1 V2000
  144.2568  144.4504  153.1641 C   0  0  0  0  0  0  0  0  0  0  0  0
  144.5586  143.5375  154.3179 C   0  0  0  0  0  0  0  0  0  0  0  0
  143.9369  143.7208  155.4703 N   0  0  0  0  0  0  0  0  0  0  0  0
  144.4229  142.7310  156.3296 O   0  0  0  0  0  0  0  0  0  0  0  0
  145.3318  141.9833  155.6541 C   0  0  0  0  0  0  0  0  0  0  0  0
  145.9628  140.8643  156.4118 C   0  0  0  0  0  0  0  0  0  0  0  0
  145.4666  142.4406  154.3713 C   0  0  0  0  0  0  0  0  0  0  0  0
  146.3554  141.9206  153.2696 C   0  0  0  0  0  0  0  0  0  0  0  0
  147.5235  141.1328  153.8637 C   0  0  0  0  0  0  0  0  0  0  0  0
  147.5861  139.9140  153.7045 O   0  0  0  0  0  0  0  0  0  0  0  0
  148.4448  141.8417  154.5351 N   0  0  0  0  0  0  0  0  0  0  0  0
  149.6543  141.2947  155.1394 C   0  0  0  0  0  0  0  0  0  0  0  0
  149.6330  141.4546  156.6657 C   0  0  0  0  0  0  0  0  0  0  0  0
  150.9357  141.2201  157.1791 O   0  0  0  0  0  0  0  0  0  0  0  0
  151.2217  141.9041  158.3911 C   0  0  2  0  0  0  0  0  0  0  0  0
  151.0635  143.4211  158.1548 C   0  0  0  0  0  0  0  0  0  0  0  0
  151.4925  144.2324  159.3859 C   0  0  0  0  0  0  0  0  0  0  0  0
  152.9325  143.8918  159.7941 C   0  0  0  0  0  0  0  0  0  0  0  0
  153.0943  142.3837  160.0381 C   0  0  0  0  0  0  0  0  0  0  0  0
  152.6681  141.5551  158.8092 C   0  0  1  0  0  0  0  0  0  0  0  0
  152.8335  140.0519  159.0855 C   0  0  0  0  0  0  0  0  0  0  0  0
  144.4368  143.9552  152.2095 H   0  0  0  0  0  0  0  0  0  0  0  0
  144.8829  145.3421  153.1989 H   0  0  0  0  0  0  0  0  0  0  0  0
  143.2151  144.7727  153.1734 H   0  0  0  0  0  0  0  0  0  0  0  0
  146.7881  140.4246  155.8521 H   0  0  0  0  0  0  0  0  0  0  0  0
  145.2355  140.0775  156.6127 H   0  0  0  0  0  0  0  0  0  0  0  0
  146.3537  141.2158  157.3667 H   0  0  0  0  0  0  0  0  0  0  0  0
  145.8000  141.2744  152.5889 H   0  0  0  0  0  0  0  0  0  0  0  0
  146.7519  142.7297  152.6555 H   0  0  0  0  0  0  0  0  0  0  0  0
  148.3054  142.8382  154.6173 H   0  0  0  0  0  0  0  0  0  0  0  0
  149.6956  140.2350  154.8869 H   0  0  0  0  0  0  0  0  0  0  0  0
  150.5508  141.7483  154.7138 H   0  0  0  0  0  0  0  0  0  0  0  0
  149.2689  142.4481  156.9299 H   0  0  0  0  0  0  0  0  0  0  0  0
  148.9450  140.7313  157.1053 H   0  0  0  0  0  0  0  0  0  0  0  0
  150.5424  141.5784  159.1819 H   0  0  0  0  0  0  0  0  0  0  0  0
  151.6664  143.7202  157.2962 H   0  0  0  0  0  0  0  0  0  0  0  0
  150.0317  143.6660  157.9030 H   0  0  0  0  0  0  0  0  0  0  0  0
  151.4073  145.2992  159.1767 H   0  0  0  0  0  0  0  0  0  0  0  0
  150.8161  144.0239  160.2159 H   0  0  0  0  0  0  0  0  0  0  0  0
  153.6214  144.2128  159.0115 H   0  0  0  0  0  0  0  0  0  0  0  0
  153.2056  144.4456  160.6929 H   0  0  0  0  0  0  0  0  0  0  0  0
  154.1323  142.1667  160.2929 H   0  0  0  0  0  0  0  0  0  0  0  0
  152.4983  142.0918  160.9040 H   0  0  0  0  0  0  0  0  0  0  0  0
  153.3323  141.8156  157.9835 H   0  0  0  0  0  0  0  0  0  0  0  0
  152.1799  139.7236  159.8942 H   0  0  0  0  0  0  0  0  0  0  0  0
  153.8595  139.8159  159.3696 H   0  0  0  0  0  0  0  0  0  0  0  0
  152.5949  139.4573  158.2031 H   0  0  0  0  0  0  0  0  0  0  0  0
  1  2  1  0  0  0  0
  1 22  1  0  0  0  0
  1 23  1  0  0  0  0
  1 24  1  0  0  0  0
  2  7  1  0  0  0  0
  2  3  2  0  0  0  0
  3  4  1  0  0  0  0
  4  5  1  0  0  0  0
  5  6  1  0  0  0  0
  5  7  2  0  0  0  0
  6 25  1  0  0  0  0
  6 26  1  0  0  0  0
  6 27  1  0  0  0  0
  7  8  1  0  0  0  0
  8  9  1  0  0  0  0
  8 28  1  0  0  0  0
  8 29  1  0  0  0  0
  9 10  2  0  0  0  0
  9 11  1  0  0  0  0
 11 12  1  0  0  0  0
 11 30  1  0  0  0  0
 12 13  1  0  0  0  0
 12 31  1  0  0  0  0
 12 32  1  0  0  0  0
 13 14  1  0  0  0  0
 13 33  1  0  0  0  0
 13 34  1  0  0  0  0
 14 15  1  0  0  0  0
 15 20  1  0  0  0  0
 15 16  1  0  0  0  0
 15 35  1  0  0  0  0
 16 17  1  0  0  0  0
 16 36  1  0  0  0  0
 16 37  1  0  0  0  0
 17 18  1  0  0  0  0
 17 38  1  0  0  0  0
 17 39  1  0  0  0  0
 18 19  1  0  0  0  0
 18 40  1  0  0  0  0
 18 41  1  0  0  0  0
 19 20  1  0  0  0  0
 19 42  1  0  0  0  0
 19 43  1  0  0  0  0
 20 21  1  0  0  0  0
 20 44  1  0  0  0  0
 21 45  1  0  0  0  0
 21 46  1  0  0  0  0
 21 47  1  0  0  0  0
M  END
> <s_m_source_file>
AV-unprocessed.smi

> <i_m_source_file_index>
1346

> <i_lp_mmshare_version>
43012

> <i_f3d_flags>
0

> <s_epik_input>
W0NIM11jMW5vYyhbQ0gzXSljMVtDSDJdQyg9TylbTkhdW0NIMl1bQ0gyXU9bQ0BASF0yW0NIMl1bQ0gyXVtDSDJdW0NIMl1bQ0BIXTJbQ0gzXQ==

> <s_epik_cmdline>
J2VwaWtfcHl0aG9uJywgJy1waCcsICc3LjAnLCAnLXRuJywgJzgnLCAnLW1hJywgJzIwMCcsICctbWV0YWxfYmluZGluZycsICctaW1hZScsICc8aW5maWxlLm1hZT4nLCAnLW9tYWUnLCAnPG91dGZpbGUubWFlPic=

> <r_lp_tautomer_probability>
1

> <r_epik_Ionization_Penalty>
3.26154e-08

> <r_epik_Ionization_Penalty_Charging>
0

> <r_epik_Ionization_Penalty_Neutral>
3.26154e-08

> <r_epik_State_Penalty>
-0

> <r_epik_Charging_Adjusted_Penalty>
0

> <i_epik_Tot_Q>
0

> <i_epik_Tot_abs_Q>
0

> <r_epik_Metal_State_Penalty>
-0

> <b_epik_Metal_Only>
0

> <s_lp_Force_Field>
OPLS_2005

> <r_lp_Energy>
5.71646

> <b_lp_Chiralities_Consistent>
1

> <s_lp_Variant>
AV-unprocessed.smi:1346-1

> <Gold.Version>
5.8.1

> <Gold.Id.Protein>
6NUR|6NUR_protein|mol2

> <Gold.PLP.Fitness>
44.0843

> <Gold.PLP.PLP>
-42.1105

> <Gold.PLP.part.hbond>
-1.0000

> <Gold.PLP.part.metal>
0.0000

> <Gold.PLP.part.buried>
-8.6868

> <Gold.PLP.part.nonpolar>
-34.1890

> <Gold.PLP.part.repulsive>
0.8980

> <Gold.PLP.ligand.clash>
0.0000

> <Gold.PLP.ligand.torsion>
0.6167

> <Gold.PLP.Chemscore.Hbond>
1.0000

> <Gold.PLP.Chemscore.CHOScore>
0.0000

> <Gold.PLP.Chemscore.Metal>
0.0000

> <Gold.Chemscore.Hbonds>
donor molecule, donor type, donor heavy atom, donor atom, acceptor molecule, acceptor atom, score
      L1  H    11    30       P1  8028  0.56

> <Gold.PLP.Chemscore.Internal.Correction>
0.2072

> <Gold.Rescore>
     Score         DG    S(hbond)    S(metal)    S(lipo)     H(rot)  DE(clash)    DE(int)     intcor
     15.52     -17.61       0.99        0.00     113.46       1.74       0.24       1.85       ----

> <Gold.Chemscore.Fitness>
15.5156

> <Gold.Chemscore.DG>
-17.6132

> <Gold.Chemscore.ZeroCoef>
-5.4800

> <Gold.Chemscore.Hbond>
0.9881

> <Gold.Chemscore.Metal>
0.0000

> <Gold.Chemscore.Lipo>
113.4622

> <Gold.Chemscore.Internal_Hbond>
0.0000

> <Gold.Chemscore.DEClash>
0.2427

> <Gold.Chemscore.DEInternal>
1.8549

> <Gold.Chemscore.Rot>
1.7352

> <Gold.Chemscore.Internal.Correction>
   9.000000E+99

> <Gold.Chemscore.Hbonds>
donor molecule, donor type, donor heavy atom, donor atom, acceptor molecule, acceptor atom, score
      L1  H    11    30       P1  8028  0.54

> <Gold.Chemscore.Hbond.Weighted>
-3.3001

> <Gold.Chemscore.Metal.Weighted>
-0.0000

> <Gold.Chemscore.Lipo.Weighted>
-13.2751

> <Gold.Chemscore.Internal_Hbond.Weighted>
0.0000

> <Gold.Chemscore.DEClash.Weighted>
0.2427

> <Gold.Chemscore.DEInternal.Weighted>
1.8549

> <Gold.Chemscore.Rot.Weighted>
4.4420

> <Gold.Chemscore.Internal.Correction.Weighted>
   9.000000E+99

> <Gold.Protein.RotatedTorsions>
[ 6907 6896 6895 6894 ] final   18.67 input  -60.11 | X-H torsion
[ 7974 7965 7964 7962 ] final   76.26 input  175.53 | X-H torsion
[ 8008 7997 7996 7995 ] final  157.00 input   59.86 | X-H torsion
[ 10167 10162 10161 10158 ] final  -94.14 input  -65.29 | X-H torsion
[ 10718 10713 10712 10709 ] final   21.44 input   66.30 | X-H torsion
[ 10763 10752 10751 10750 ] final   71.77 input  -60.55 | X-H torsion
[ 11005 11000 10999 10996 ] final   71.87 input  -57.11 | X-H torsion

> <Gold.Protein.ActiveResidues>
 VAL166  LYS551  ARG553  GLY616  TRP617  ASP618  TYR619  PRO620  LYS621  CYS622 
 ASP623  PHE694  ASN695  SER759  ASP760  ASP761  ALA762  ILE779  LEU786  VAL792 
 PHE793  MET794  SER795  GLU796  ALA797  LYS798  CYS799  TRP800  GLU811  SER814 

> <Gold.Protein.RotatedAtoms>
  151.8688  135.0497  160.0476 H   0  0  0  0  0  0  0  0  0  0  0  0  # atno 6907 bound_to 6896
  152.2604  133.5288  159.5387 H   0  0  0  0  0  0  0  0  0  0  0  0  # atno 6908 bound_to 6896
  150.7114  134.0753  159.3921 H   0  0  0  0  0  0  0  0  0  0  0  0  # atno 6909 bound_to 6896
  145.7050  139.2595  143.1683 H   0  0  0  0  0  0  0  0  0  0  0  0  # atno 7974 bound_to 7965
  156.2389  140.1897  156.7042 H   0  0  0  0  0  0  0  0  0  0  0  0  # atno 8008 bound_to 7997
  154.6160  140.0615  156.9581 H   0  0  0  0  0  0  0  0  0  0  0  0  # atno 8009 bound_to 7997
  155.1939  140.3286  155.4356 H   0  0  0  0  0  0  0  0  0  0  0  0  # atno 8010 bound_to 7997
  140.3175  143.3069  152.0082 H   0  0  0  0  0  0  0  0  0  0  0  0  # atno 10167 bound_to 10162
  157.1385  130.6622  149.5973 H   0  0  0  0  0  0  0  0  0  0  0  0  # atno 10718 bound_to 10713
  153.0419  135.5124  154.7644 H   0  0  0  0  0  0  0  0  0  0  0  0  # atno 10763 bound_to 10752
  154.6575  135.2934  154.9912 H   0  0  0  0  0  0  0  0  0  0  0  0  # atno 10764 bound_to 10752
  154.0774  135.6669  153.4885 H   0  0  0  0  0  0  0  0  0  0  0  0  # atno 10765 bound_to 10752
  139.9521  134.7209  156.0839 H   0  0  0  0  0  0  0  0  0  0  0  0  # atno 11005 bound_to 11000
  146.0763  140.7813  142.9663 LP  0  0  0  0  0  0  0  0  0  0  0  0  # atno 17320 bound_to 7965
  144.6957  140.3420  143.7197 LP  0  0  0  0  0  0  0  0  0  0  0  0  # atno 17321 bound_to 7965
  139.4881  144.6337  151.7018 LP  0  0  0  0  0  0  0  0  0  0  0  0  # atno 17342 bound_to 10162
  140.5513  144.0420  150.6128 LP  0  0  0  0  0  0  0  0  0  0  0  0  # atno 17343 bound_to 10162
  155.9793  130.4786  150.6709 LP  0  0  0  0  0  0  0  0  0  0  0  0  # atno 17370 bound_to 10713
  157.4329  131.0851  151.1021 LP  0  0  0  0  0  0  0  0  0  0  0  0  # atno 17371 bound_to 10713
  141.1185  133.6620  156.3155 LP  0  0  0  0  0  0  0  0  0  0  0  0  # atno 17394 bound_to 11000
  140.5695  134.5854  157.5454 LP  0  0  0  0  0  0  0  0  0  0  0  0  # atno 17395 bound_to 11000

$$$$
