AV-unprocessed.smi:3195|AV-procd|sdf|12218|dock3
  -GOLD-   2272018 53D 1   1.00000     0.00000
 Structure written by MMmdl.
 29 30  0  0  0  0  0  0  0  0  2 V2000
  152.9598  139.0035  154.7171 C   0  0  0  0  0  0  0  0  0  0  0  0
  151.5318  139.2596  155.2270 C   0  0  2  0  0  0  0  0  0  0  0  0
  151.5330  140.3948  156.2812 C   0  0  0  0  0  0  0  0  0  0  0  0
  150.6986  141.2992  156.1817 O   0  0  0  0  0  0  0  0  0  0  0  0
  152.5153  140.2140  157.2543 N   0  0  0  0  0  0  0  0  0  0  0  0
  152.6161  140.9496  158.3280 C   0  0  0  0  0  0  0  0  0  0  0  0
  151.7467  142.0153  158.6190 N   0  0  0  0  0  0  0  0  0  0  0  0
  151.8612  142.7922  159.7522 C   0  0  0  0  0  0  0  0  0  0  0  0
  152.8190  142.5729  160.6543 C   0  0  0  0  0  0  0  0  0  0  0  0
  153.7568  141.4920  160.4302 C   0  0  0  0  0  0  0  0  0  0  0  0
  153.6905  140.6713  159.2980 C   0  0  0  0  0  0  0  0  0  0  0  0
  154.5245  139.7488  159.1449 O   0  5  0  0  0  0  0  0  0  0  0  0
  150.8374  137.9753  155.7092 C   0  0  0  0  0  0  0  0  0  0  0  0
  149.3586  138.2825  155.5434 C   0  0  0  0  0  0  0  0  0  0  0  0
  149.3325  139.3313  154.4279 C   0  0  0  0  0  0  0  0  0  0  0  0
  150.6982  139.6120  154.1232 O   0  0  0  0  0  0  0  0  0  0  0  0
  153.6077  138.6471  155.5185 H   0  0  0  0  0  0  0  0  0  0  0  0
  153.4054  139.9102  154.3056 H   0  0  0  0  0  0  0  0  0  0  0  0
  152.9666  138.2520  153.9271 H   0  0  0  0  0  0  0  0  0  0  0  0
  151.1231  143.5753  159.8416 H   0  0  0  0  0  0  0  0  0  0  0  0
  152.8949  143.1908  161.5366 H   0  0  0  0  0  0  0  0  0  0  0  0
  154.5287  141.3240  161.1674 H   0  0  0  0  0  0  0  0  0  0  0  0
  150.9926  142.2508  157.9911 H   0  0  0  0  0  0  0  0  0  0  0  0
  151.1056  137.1421  155.0582 H   0  0  0  0  0  0  0  0  0  0  0  0
  151.0953  137.6814  156.7273 H   0  0  0  0  0  0  0  0  0  0  0  0
  148.7792  137.3925  155.2958 H   0  0  0  0  0  0  0  0  0  0  0  0
  148.9514  138.7043  156.4630 H   0  0  0  0  0  0  0  0  0  0  0  0
  148.8215  138.9683  153.5359 H   0  0  0  0  0  0  0  0  0  0  0  0
  148.8302  140.2408  154.7599 H   0  0  0  0  0  0  0  0  0  0  0  0
  1  2  1  0  0  0  0
  1 17  1  0  0  0  0
  1 18  1  0  0  0  0
  1 19  1  0  0  0  0
  2 16  1  0  0  0  0
  2  3  1  0  0  0  0
  2 13  1  0  0  0  0
  3  4  2  0  0  0  0
  3  5  1  0  0  0  0
  5  6  2  0  0  0  0
  6 11  1  0  0  0  0
  6  7  1  0  0  0  0
  7 23  1  0  0  0  0
  7  8  1  0  0  0  0
  8 20  1  0  0  0  0
  8  9  2  0  0  0  0
  9 21  1  0  0  0  0
  9 10  1  0  0  0  0
 10 11  2  0  0  0  0
 10 22  1  0  0  0  0
 11 12  1  0  0  0  0
 13 14  1  0  0  0  0
 13 24  1  0  0  0  0
 13 25  1  0  0  0  0
 14 15  1  0  0  0  0
 14 26  1  0  0  0  0
 14 27  1  0  0  0  0
 15 16  1  0  0  0  0
 15 28  1  0  0  0  0
 15 29  1  0  0  0  0
M  CHG  1  12  -1
M  END
> <s_m_source_file>
AV-unprocessed.smi

> <i_m_source_file_index>
3195

> <i_lp_mmshare_version>
43012

> <i_f3d_flags>
0

> <s_epik_input>
TzFbQ0gyXVtDSDJdW0NIMl1bQ0BAXTEoW0NIM10pQyg9TylbTkhdYzJuW2NIXVtjSF1bY0hdYzJbT0hd

> <s_epik_cmdline>
J2VwaWtfcHl0aG9uJywgJy1waCcsICc3LjAnLCAnLXRuJywgJzgnLCAnLW1hJywgJzIwMCcsICctbWV0YWxfYmluZGluZycsICctaW1hZScsICc8aW5maWxlLm1hZT4nLCAnLW9tYWUnLCAnPG91dGZpbGUubWFlPic=

> <r_epik_Ionization_Penalty>
0.780444

> <r_epik_Ionization_Penalty_Charging>
0.780444

> <r_epik_Ionization_Penalty_Neutral>
6.55423e-13

> <r_epik_State_Penalty>
1.40445

> <r_epik_Charging_Adjusted_Penalty>
2.18489

> <i_epik_Tot_Q>
-1

> <i_epik_Tot_abs_Q>
1

> <r_epik_Metal_State_Penalty>
1.36467

> <b_epik_Metal_Only>
0

> <s_lp_Force_Field>
OPLS_2005

> <r_lp_Energy>
50.4107

> <b_lp_Chiralities_Consistent>
1

> <s_lp_Variant>
AV-unprocessed.smi:3195-6

> <Gold.Version>
5.8.1

> <Gold.Id.Protein>
6NUR|6NUR_protein|mol2

> <Gold.PLP.Fitness>
37.6538

> <Gold.PLP.PLP>
-29.6459

> <Gold.PLP.part.hbond>
-3.0000

> <Gold.PLP.part.metal>
0.0000

> <Gold.PLP.part.buried>
-2.0859

> <Gold.PLP.part.nonpolar>
-23.5546

> <Gold.PLP.part.repulsive>
0.3100

> <Gold.PLP.ligand.clash>
0.0000

> <Gold.PLP.ligand.torsion>
0.5367

> <Gold.PLP.Chemscore.Hbond>
3.0000

> <Gold.PLP.Chemscore.CHOScore>
0.0000

> <Gold.PLP.Chemscore.Metal>
0.0000

> <Gold.Chemscore.Hbonds>
donor molecule, donor type, donor heavy atom, donor atom, acceptor molecule, acceptor atom, score
      P1  H  7989  7998       L1    16  0.95
      P1  H  7997  8009       L1    12  2.00

> <Gold.PLP.Chemscore.Internal.Correction>
0.0814

> <Gold.Rescore>
     Score         DG    S(hbond)    S(metal)    S(lipo)     H(rot)  DE(clash)    DE(int)     intcor
     13.06     -15.19       1.29        0.00      68.08       1.00       0.04       2.09       ----

> <Gold.Chemscore.Fitness>
13.0565

> <Gold.Chemscore.DG>
-15.1850

> <Gold.Chemscore.ZeroCoef>
-5.4800

> <Gold.Chemscore.Hbond>
1.2872

> <Gold.Chemscore.Metal>
0.0000

> <Gold.Chemscore.Lipo>
68.0841

> <Gold.Chemscore.Internal_Hbond>
0.0000

> <Gold.Chemscore.DEClash>
0.0419

> <Gold.Chemscore.DEInternal>
2.0866

> <Gold.Chemscore.Rot>
1.0000

> <Gold.Chemscore.Internal.Correction>
   9.000000E+99

> <Gold.Chemscore.Hbonds>
donor molecule, donor type, donor heavy atom, donor atom, acceptor molecule, acceptor atom, score
      P1  H  7989  7998       L1    16  0.22
      P1  H  7997  8009       L1    12  0.25

> <Gold.Chemscore.Hbond.Weighted>
-4.2992

> <Gold.Chemscore.Metal.Weighted>
-0.0000

> <Gold.Chemscore.Lipo.Weighted>
-7.9658

> <Gold.Chemscore.Internal_Hbond.Weighted>
0.0000

> <Gold.Chemscore.DEClash.Weighted>
0.0419

> <Gold.Chemscore.DEInternal.Weighted>
2.0866

> <Gold.Chemscore.Rot.Weighted>
2.5600

> <Gold.Chemscore.Internal.Correction.Weighted>
   9.000000E+99

> <Gold.Protein.RotatedTorsions>
[ 6907 6896 6895 6894 ] final  -99.06 input  -60.11 | X-H torsion
[ 7974 7965 7964 7962 ] final  -44.27 input  175.53 | X-H torsion
[ 8008 7997 7996 7995 ] final  125.87 input   59.86 | X-H torsion
[ 10167 10162 10161 10158 ] final   19.43 input  -65.29 | X-H torsion
[ 10718 10713 10712 10709 ] final   16.88 input   66.30 | X-H torsion
[ 10763 10752 10751 10750 ] final   20.75 input  -60.55 | X-H torsion
[ 11005 11000 10999 10996 ] final -158.82 input  -57.11 | X-H torsion

> <Gold.Protein.ActiveResidues>
 VAL166  LYS551  ARG553  GLY616  TRP617  ASP618  TYR619  PRO620  LYS621  CYS622 
 ASP623  PHE694  ASN695  SER759  ASP760  ASP761  ALA762  ILE779  LEU786  VAL792 
 PHE793  MET794  SER795  GLU796  ALA797  LYS798  CYS799  TRP800  GLU811  SER814 

> <Gold.Protein.RotatedAtoms>
  150.7067  134.1098  159.3995 H   0  0  0  0  0  0  0  0  0  0  0  0  # atno 6907 bound_to 6896
  151.9085  135.0346  160.0521 H   0  0  0  0  0  0  0  0  0  0  0  0  # atno 6908 bound_to 6896
  152.2356  133.5058  159.5277 H   0  0  0  0  0  0  0  0  0  0  0  0  # atno 6909 bound_to 6896
  145.9937  140.7152  142.9304 H   0  0  0  0  0  0  0  0  0  0  0  0  # atno 7974 bound_to 7965
  156.2847  140.2706  156.2019 H   0  0  0  0  0  0  0  0  0  0  0  0  # atno 8008 bound_to 7997
  155.0353  140.0386  157.2507 H   0  0  0  0  0  0  0  0  0  0  0  0  # atno 8009 bound_to 7997
  154.7320  140.2708  155.6453 H   0  0  0  0  0  0  0  0  0  0  0  0  # atno 8010 bound_to 7997
  140.5580  143.9390  150.6622 H   0  0  0  0  0  0  0  0  0  0  0  0  # atno 10167 bound_to 10162
  157.0742  130.6361  149.5812 H   0  0  0  0  0  0  0  0  0  0  0  0  # atno 10718 bound_to 10713
  153.1052  135.6683  153.9600 H   0  0  0  0  0  0  0  0  0  0  0  0  # atno 10763 bound_to 10752
  153.9159  135.3020  155.3449 H   0  0  0  0  0  0  0  0  0  0  0  0  # atno 10764 bound_to 10752
  154.7473  135.5051  153.9302 H   0  0  0  0  0  0  0  0  0  0  0  0  # atno 10765 bound_to 10752
  140.6494  134.4466  157.5235 H   0  0  0  0  0  0  0  0  0  0  0  0  # atno 11005 bound_to 11000
  144.6897  140.3114  143.7247 LP  0  0  0  0  0  0  0  0  0  0  0  0  # atno 17320 bound_to 7965
  145.7592  139.1819  143.2277 LP  0  0  0  0  0  0  0  0  0  0  0  0  # atno 17321 bound_to 7965
  140.2833  143.3374  152.1131 LP  0  0  0  0  0  0  0  0  0  0  0  0  # atno 17342 bound_to 10162
  139.5057  144.6799  151.6035 LP  0  0  0  0  0  0  0  0  0  0  0  0  # atno 17343 bound_to 10162
  155.9942  130.5005  150.7409 LP  0  0  0  0  0  0  0  0  0  0  0  0  # atno 17370 bound_to 10713
  157.4853  131.0906  151.0489 LP  0  0  0  0  0  0  0  0  0  0  0  0  # atno 17371 bound_to 10713
  139.9051  134.8467  156.1738 LP  0  0  0  0  0  0  0  0  0  0  0  0  # atno 17394 bound_to 11000
  141.0548  133.6871  156.1839 LP  0  0  0  0  0  0  0  0  0  0  0  0  # atno 17395 bound_to 11000

$$$$
