AV-unprocessed.smi:1394|AV-procd|sdf|5665|dock4
  -GOLD-   22720 5283D 1   1.00000     0.00000
 Structure written by MMmdl.
 41 42  0  0  0  0  0  0  0  0  1 V2000
  146.0863  140.0737  157.2169 C   0  0  0  0  0  0  0  0  0  0  0  0
  146.2961  141.3355  156.3600 C   0  0  2  0  0  0  0  0  0  0  0  0
  144.9472  141.8550  155.8222 C   0  0  0  0  0  0  0  0  0  0  0  0
  145.1196  143.1210  154.9699 C   0  0  0  0  0  0  0  0  0  0  0  0
  146.0958  142.8745  153.8122 C   0  0  0  0  0  0  0  0  0  0  0  0
  147.4507  142.3732  154.3323 C   0  0  0  0  0  0  0  0  0  0  0  0
  147.2977  141.1057  155.2004 C   0  0  1  0  0  0  0  0  0  0  0  0
  148.6005  140.7086  155.7304 N   0  0  0  0  0  0  0  0  0  0  0  0
  149.7571  140.7211  155.0513 C   0  0  0  0  0  0  0  0  0  0  0  0
  149.8501  141.0981  153.8821 O   0  0  0  0  0  0  0  0  0  0  0  0
  150.9916  140.2470  155.8319 C   0  0  0  0  0  0  0  0  0  0  0  0
  151.3502  141.1223  156.9612 N   0  0  0  0  0  0  0  0  0  0  0  0
  150.7737  142.4049  156.9782 C   0  0  0  0  0  0  0  0  0  0  0  0
  151.0276  143.2796  157.9607 C   0  0  0  0  0  0  0  0  0  0  0  0
  151.9182  142.8748  159.0209 C   0  0  0  0  0  0  0  0  0  0  0  0
  152.4930  141.6497  159.0287 C   0  0  0  0  0  0  0  0  0  0  0  0
  153.4315  141.2030  160.1473 C   0  0  0  0  0  0  0  0  0  0  0  0
  153.1959  141.8939  161.2636 F   0  0  0  0  0  0  0  0  0  0  0  0
  153.2571  139.9082  160.4143 F   0  0  0  0  0  0  0  0  0  0  0  0
  154.7123  141.3834  159.8207 F   0  0  0  0  0  0  0  0  0  0  0  0
  152.2094  140.6945  157.9378 C   0  0  0  0  0  0  0  0  0  0  0  0
  152.7124  139.5703  157.8980 O   0  0  0  0  0  0  0  0  0  0  0  0
  145.7023  139.2483  156.6167 H   0  0  0  0  0  0  0  0  0  0  0  0
  145.3727  140.2604  158.0195 H   0  0  0  0  0  0  0  0  0  0  0  0
  147.0145  139.7424  157.6826 H   0  0  0  0  0  0  0  0  0  0  0  0
  146.7071  142.1077  157.0128 H   0  0  0  0  0  0  0  0  0  0  0  0
  144.4661  141.0794  155.2248 H   0  0  0  0  0  0  0  0  0  0  0  0
  144.2721  142.0669  156.6519 H   0  0  0  0  0  0  0  0  0  0  0  0
  144.1531  143.4418  154.5801 H   0  0  0  0  0  0  0  0  0  0  0  0
  145.4881  143.9364  155.5935 H   0  0  0  0  0  0  0  0  0  0  0  0
  145.6724  142.1407  153.1251 H   0  0  0  0  0  0  0  0  0  0  0  0
  146.2335  143.7920  153.2397 H   0  0  0  0  0  0  0  0  0  0  0  0
  148.1106  142.1738  153.4870 H   0  0  0  0  0  0  0  0  0  0  0  0
  147.9274  143.1633  154.9143 H   0  0  0  0  0  0  0  0  0  0  0  0
  146.9097  140.2997  154.5740 H   0  0  0  0  0  0  0  0  0  0  0  0
  148.6191  140.3880  156.6877 H   0  0  0  0  0  0  0  0  0  0  0  0
  150.8011  139.2316  156.1820 H   0  0  0  0  0  0  0  0  0  0  0  0
  151.8353  140.1555  155.1451 H   0  0  0  0  0  0  0  0  0  0  0  0
  150.1235  142.6306  156.1454 H   0  0  0  0  0  0  0  0  0  0  0  0
  150.5787  144.2620  157.9581 H   0  0  0  0  0  0  0  0  0  0  0  0
  152.1190  143.5760  159.8171 H   0  0  0  0  0  0  0  0  0  0  0  0
  1  2  1  0  0  0  0
  1 23  1  0  0  0  0
  1 24  1  0  0  0  0
  1 25  1  0  0  0  0
  2  7  1  0  0  0  0
  2  3  1  0  0  0  0
  2 26  1  0  0  0  0
  3  4  1  0  0  0  0
  3 27  1  0  0  0  0
  3 28  1  0  0  0  0
  4  5  1  0  0  0  0
  4 29  1  0  0  0  0
  4 30  1  0  0  0  0
  5  6  1  0  0  0  0
  5 31  1  0  0  0  0
  5 32  1  0  0  0  0
  6  7  1  0  0  0  0
  6 33  1  0  0  0  0
  6 34  1  0  0  0  0
  7  8  1  0  0  0  0
  7 35  1  0  0  0  0
  8  9  1  0  0  0  0
  8 36  1  0  0  0  0
  9 10  2  0  0  0  0
  9 11  1  0  0  0  0
 11 12  1  0  0  0  0
 11 37  1  0  0  0  0
 11 38  1  0  0  0  0
 12 21  1  0  0  0  0
 12 13  1  0  0  0  0
 13 14  2  0  0  0  0
 13 39  1  0  0  0  0
 14 15  1  0  0  0  0
 14 40  1  0  0  0  0
 15 16  2  0  0  0  0
 15 41  1  0  0  0  0
 16 17  1  0  0  0  0
 16 21  1  0  0  0  0
 17 18  1  0  0  0  0
 17 19  1  0  0  0  0
 17 20  1  0  0  0  0
 21 22  2  0  0  0  0
M  END
> <s_m_source_file>
AV-unprocessed.smi

> <i_m_source_file_index>
1394

> <i_lp_mmshare_version>
43012

> <i_f3d_flags>
0

> <s_epik_input>
W0NIM11bQ0BASF0xW0NIMl1bQ0gyXVtDSDJdW0NIMl1bQ0BIXTFbTkhdQyg9TylbQ0gyXW4yW2NIXVtjSF1bY0hdYyhDKEYpKEYpRiljMj1P

> <s_epik_cmdline>
J2VwaWtfcHl0aG9uJywgJy1waCcsICc3LjAnLCAnLXRuJywgJzgnLCAnLW1hJywgJzIwMCcsICctbWV0YWxfYmluZGluZycsICctaW1hZScsICc8aW5maWxlLm1hZT4nLCAnLW9tYWUnLCAnPG91dGZpbGUubWFlPic=

> <r_lp_tautomer_probability>
1

> <r_epik_Ionization_Penalty>
2.11487e-08

> <r_epik_Ionization_Penalty_Charging>
2.10183e-09

> <r_epik_Ionization_Penalty_Neutral>
1.90469e-08

> <r_epik_State_Penalty>
-0

> <r_epik_Charging_Adjusted_Penalty>
2.10183e-09

> <i_epik_Tot_Q>
0

> <i_epik_Tot_abs_Q>
0

> <r_epik_Metal_State_Penalty>
-0

> <b_epik_Metal_Only>
0

> <s_lp_Force_Field>
OPLS_2005

> <r_lp_Energy>
20.2228

> <b_lp_Chiralities_Consistent>
1

> <s_lp_Variant>
AV-unprocessed.smi:1394-1

> <Gold.Version>
5.8.1

> <Gold.Id.Protein>
6NUR|6NUR_protein|mol2

> <Gold.PLP.Fitness>
47.4901

> <Gold.PLP.PLP>
-40.5432

> <Gold.PLP.part.hbond>
-2.7156

> <Gold.PLP.part.metal>
0.0000

> <Gold.PLP.part.buried>
-2.3794

> <Gold.PLP.part.nonpolar>
-37.4329

> <Gold.PLP.part.repulsive>
1.5427

> <Gold.PLP.ligand.clash>
0.0000

> <Gold.PLP.ligand.torsion>
1.4757

> <Gold.PLP.Chemscore.Hbond>
2.2160

> <Gold.PLP.Chemscore.CHOScore>
0.9714

> <Gold.PLP.Chemscore.Metal>
0.0000

> <Gold.Chemscore.Hbonds>
donor molecule, donor type, donor heavy atom, donor atom, acceptor molecule, acceptor atom, score
      P1  H  7989  7998       L1    10  0.37
      P1  H  7997  8010       L1    22  0.75
      P1  H  8011  8017       L1    10  0.83
      L1  C    13    39       P1  8028  0.98

> <Gold.PLP.Chemscore.Internal.Correction>
0.3362

> <Gold.Rescore>
     Score         DG    S(hbond)    S(metal)    S(lipo)     H(rot)  DE(clash)    DE(int)     intcor
      9.87     -16.62       1.79        0.00      77.41       1.52       1.05       5.69       ----

> <Gold.Chemscore.Fitness>
9.8716

> <Gold.Chemscore.DG>
-16.6156

> <Gold.Chemscore.ZeroCoef>
-5.4800

> <Gold.Chemscore.Hbond>
1.7907

> <Gold.Chemscore.Metal>
0.0000

> <Gold.Chemscore.Lipo>
77.4075

> <Gold.Chemscore.Internal_Hbond>
0.0000

> <Gold.Chemscore.DEClash>
1.0499

> <Gold.Chemscore.DEInternal>
5.6942

> <Gold.Chemscore.Rot>
1.5242

> <Gold.Chemscore.Internal.Correction>
   9.000000E+99

> <Gold.Chemscore.Hbonds>
donor molecule, donor type, donor heavy atom, donor atom, acceptor molecule, acceptor atom, score
      P1  H  7989  7998       L1    10  0.18
      P1  H  7997  8010       L1    22  0.15
      P1  H  8011  8017       L1    10  0.78

> <Gold.Chemscore.Hbond.Weighted>
-5.9808

> <Gold.Chemscore.Metal.Weighted>
-0.0000

> <Gold.Chemscore.Lipo.Weighted>
-9.0567

> <Gold.Chemscore.Internal_Hbond.Weighted>
0.0000

> <Gold.Chemscore.DEClash.Weighted>
1.0499

> <Gold.Chemscore.DEInternal.Weighted>
5.6942

> <Gold.Chemscore.Rot.Weighted>
3.9019

> <Gold.Chemscore.Internal.Correction.Weighted>
   9.000000E+99

> <Gold.Protein.RotatedTorsions>
[ 6907 6896 6895 6894 ] final  167.09 input  -60.11 | X-H torsion
[ 7974 7965 7964 7962 ] final -154.50 input  175.53 | X-H torsion
[ 8008 7997 7996 7995 ] final   45.99 input   59.86 | X-H torsion
[ 10167 10162 10161 10158 ] final   37.49 input  -65.29 | X-H torsion
[ 10718 10713 10712 10709 ] final  164.77 input   66.30 | X-H torsion
[ 10763 10752 10751 10750 ] final    9.58 input  -60.55 | X-H torsion
[ 11005 11000 10999 10996 ] final  159.21 input  -57.11 | X-H torsion

> <Gold.Protein.ActiveResidues>
 VAL166  LYS551  ARG553  GLY616  TRP617  ASP618  TYR619  PRO620  LYS621  CYS622 
 ASP623  PHE694  ASN695  SER759  ASP760  ASP761  ALA762  ILE779  LEU786  VAL792 
 PHE793  MET794  SER795  GLU796  ALA797  LYS798  CYS799  TRP800  GLU811  SER814 

> <Gold.Protein.RotatedAtoms>
  151.8687  133.3471  159.3727 H   0  0  0  0  0  0  0  0  0  0  0  0  # atno 6907 bound_to 6896
  150.7159  134.5134  159.5628 H   0  0  0  0  0  0  0  0  0  0  0  0  # atno 6908 bound_to 6896
  152.2663  134.7981  160.0473 H   0  0  0  0  0  0  0  0  0  0  0  0  # atno 6909 bound_to 6896
  144.7686  140.4379  143.5923 H   0  0  0  0  0  0  0  0  0  0  0  0  # atno 7974 bound_to 7965
  155.3450  140.3410  155.4239 H   0  0  0  0  0  0  0  0  0  0  0  0  # atno 8008 bound_to 7997
  156.1793  140.1658  156.8339 H   0  0  0  0  0  0  0  0  0  0  0  0  # atno 8009 bound_to 7997
  154.5316  140.0744  156.8338 H   0  0  0  0  0  0  0  0  0  0  0  0  # atno 8010 bound_to 7997
  140.4028  144.1700  150.6134 H   0  0  0  0  0  0  0  0  0  0  0  0  # atno 10167 bound_to 10162
  157.0897  131.0414  151.2542 H   0  0  0  0  0  0  0  0  0  0  0  0  # atno 10718 bound_to 10713
  153.2125  135.6871  153.8097 H   0  0  0  0  0  0  0  0  0  0  0  0  # atno 10763 bound_to 10752
  153.7324  135.3250  155.3289 H   0  0  0  0  0  0  0  0  0  0  0  0  # atno 10764 bound_to 10752
  154.8229  135.4639  154.0938 H   0  0  0  0  0  0  0  0  0  0  0  0  # atno 10765 bound_to 10752
  140.1939  134.8387  157.2943 H   0  0  0  0  0  0  0  0  0  0  0  0  # atno 11005 bound_to 11000
  145.6392  139.1547  143.2925 LP  0  0  0  0  0  0  0  0  0  0  0  0  # atno 17320 bound_to 7965
  146.1815  140.6490  142.9187 LP  0  0  0  0  0  0  0  0  0  0  0  0  # atno 17321 bound_to 7965
  140.4722  143.2409  151.9073 LP  0  0  0  0  0  0  0  0  0  0  0  0  # atno 17342 bound_to 10162
  139.4784  144.5358  151.8601 LP  0  0  0  0  0  0  0  0  0  0  0  0  # atno 17343 bound_to 10162
  157.4731  130.7721  149.7342 LP  0  0  0  0  0  0  0  0  0  0  0  0  # atno 17370 bound_to 10713
  155.9901  130.3947  150.3042 LP  0  0  0  0  0  0  0  0  0  0  0  0  # atno 17371 bound_to 10713
  140.2128  134.4117  155.7604 LP  0  0  0  0  0  0  0  0  0  0  0  0  # atno 17394 bound_to 11000
  141.2227  133.7127  156.8366 LP  0  0  0  0  0  0  0  0  0  0  0  0  # atno 17395 bound_to 11000

$$$$
