AV-unprocessed.smi:1799|AV-procd|sdf|7262|dock5
  -GOLD-   22720 8513D 1   1.00000     0.00000
 Structure written by MMmdl.
 40 41  0  0  0  0  0  0  0  0  3 V2000
  146.3847  137.4046  153.4223 C   0  0  0  0  0  0  0  0  0  0  0  0
  147.1196  138.7374  153.1576 C   0  0  0  0  0  0  0  0  0  0  0  0
  146.7268  139.1790  151.7345 C   0  0  0  0  0  0  0  0  0  0  0  0
  146.6870  139.8579  154.1399 C   0  0  0  0  0  0  0  0  0  0  0  0
  147.3460  139.8018  155.5271 C   0  0  0  0  0  0  0  0  0  0  0  0
  146.7588  138.7589  156.3649 N   0  0  0  0  0  0  0  0  0  0  0  0
  147.0337  138.5201  157.6548 C   0  0  0  0  0  0  0  0  0  0  0  0
  147.8265  139.2433  158.2615 O   0  0  0  0  0  0  0  0  0  0  0  0
  146.3812  137.4468  158.1543 N   0  5  0  0  0  0  0  0  0  0  0  0
  146.7726  136.9078  159.3208 C   0  0  0  0  0  0  0  0  0  0  0  0
  147.4101  137.6184  160.2649 N   0  0  0  0  0  0  0  0  0  0  0  0
  147.7217  136.8712  161.3928 N   0  0  0  0  0  0  0  0  0  0  0  0
  147.3016  135.6120  161.2728 C   0  0  0  0  0  0  0  0  0  0  0  0
  146.4852  135.2253  159.7729 S   0  0  0  0  0  0  0  0  0  0  0  0
  148.8749  139.6835  155.3760 C   0  0  0  0  0  0  0  0  0  0  0  0
  149.3549  138.5477  154.4388 C   0  0  0  0  0  0  0  0  0  0  0  0
  150.8309  138.8174  154.0874 C   0  0  0  0  0  0  0  0  0  0  0  0
  149.3126  137.1608  155.1185 C   0  0  0  0  0  0  0  0  0  0  0  0
  148.5991  138.5536  153.1545 N   0  3  0  0  0  0  0  0  0  0  0  0
  145.3112  137.5164  153.2651 H   0  0  0  0  0  0  0  0  0  0  0  0
  146.5021  137.0311  154.4342 H   0  0  0  0  0  0  0  0  0  0  0  0
  146.7291  136.6217  152.7456 H   0  0  0  0  0  0  0  0  0  0  0  0
  145.6538  139.3575  151.6535 H   0  0  0  0  0  0  0  0  0  0  0  0
  146.9889  138.4215  150.9945 H   0  0  0  0  0  0  0  0  0  0  0  0
  147.2330  140.1014  151.4467 H   0  0  0  0  0  0  0  0  0  0  0  0
  146.9521  140.8225  153.7043 H   0  0  0  0  0  0  0  0  0  0  0  0
  145.6004  139.8776  154.2397 H   0  0  0  0  0  0  0  0  0  0  0  0
  147.1297  140.7492  156.0239 H   0  0  0  0  0  0  0  0  0  0  0  0
  146.0926  138.1432  155.9218 H   0  0  0  0  0  0  0  0  0  0  0  0
  147.4705  134.9075  162.0732 H   0  0  0  0  0  0  0  0  0  0  0  0
  149.2249  140.6354  154.9738 H   0  0  0  0  0  0  0  0  0  0  0  0
  149.3560  139.5957  156.3508 H   0  0  0  0  0  0  0  0  0  0  0  0
  151.4523  138.8556  154.9833 H   0  0  0  0  0  0  0  0  0  0  0  0
  150.9529  139.7674  153.5656 H   0  0  0  0  0  0  0  0  0  0  0  0
  151.2373  138.0380  153.4413 H   0  0  0  0  0  0  0  0  0  0  0  0
  149.9770  137.1334  155.9832 H   0  0  0  0  0  0  0  0  0  0  0  0
  149.6385  136.3754  154.4360 H   0  0  0  0  0  0  0  0  0  0  0  0
  148.3316  136.8801  155.4861 H   0  0  0  0  0  0  0  0  0  0  0  0
  148.8249  137.7159  152.6376 H   0  0  0  0  0  0  0  0  0  0  0  0
  148.9635  139.3403  152.6369 H   0  0  0  0  0  0  0  0  0  0  0  0
  1  2  1  0  0  0  0
  1 20  1  0  0  0  0
  1 21  1  0  0  0  0
  1 22  1  0  0  0  0
  2 19  1  0  0  0  0
  2  3  1  0  0  0  0
  2  4  1  0  0  0  0
  3 23  1  0  0  0  0
  3 24  1  0  0  0  0
  3 25  1  0  0  0  0
  4  5  1  0  0  0  0
  4 26  1  0  0  0  0
  4 27  1  0  0  0  0
  5  6  1  0  0  0  0
  5 15  1  0  0  0  0
  5 28  1  0  0  0  0
  6  7  1  0  0  0  0
  6 29  1  0  0  0  0
  7  8  2  0  0  0  0
  7  9  1  0  0  0  0
  9 10  1  0  0  0  0
 10 14  1  0  0  0  0
 10 11  2  0  0  0  0
 11 12  1  0  0  0  0
 12 13  2  0  0  0  0
 13 14  1  0  0  0  0
 13 30  1  0  0  0  0
 15 16  1  0  0  0  0
 15 31  1  0  0  0  0
 15 32  1  0  0  0  0
 16 17  1  0  0  0  0
 16 18  1  0  0  0  0
 16 19  1  0  0  0  0
 17 33  1  0  0  0  0
 17 34  1  0  0  0  0
 17 35  1  0  0  0  0
 18 36  1  0  0  0  0
 18 37  1  0  0  0  0
 18 38  1  0  0  0  0
 19 39  1  0  0  0  0
 19 40  1  0  0  0  0
M  CHG  1   9  -1
M  CHG  1  19   1
M  END
> <s_m_source_file>
AV-unprocessed.smi

> <i_m_source_file_index>
1799

> <i_lp_mmshare_version>
43012

> <i_f3d_flags>
0

> <s_epik_input>
W0NIM11DMShbQ0gzXSlbQ0gyXVtDSF0oW0NIMl1DKFtDSDNdKShbQ0gzXSlbTkhdMSlbTkhdQyg9TylbTkhdYzJubltjSF1zMg==

> <s_epik_cmdline>
J2VwaWtfcHl0aG9uJywgJy1waCcsICc3LjAnLCAnLXRuJywgJzgnLCAnLW1hJywgJzIwMCcsICctbWV0YWxfYmluZGluZycsICctaW1hZScsICc8aW5maWxlLm1hZT4nLCAnLW9tYWUnLCAnPG91dGZpbGUubWFlPic=

> <r_lp_tautomer_probability>
1

> <r_epik_Ionization_Penalty>
4.14205

> <r_epik_Ionization_Penalty_Charging>
4.10837

> <r_epik_Ionization_Penalty_Neutral>
0.0336815

> <r_epik_State_Penalty>
4.10769

> <r_epik_Charging_Adjusted_Penalty>
8.21606

> <i_epik_Tot_Q>
0

> <i_epik_Tot_abs_Q>
2

> <r_epik_Metal_State_Penalty>
0.655549

> <b_epik_Metal_Only>
1

> <s_lp_Force_Field>
OPLS_2005

> <r_lp_Energy>
17.9013

> <b_lp_Chiralities_Consistent>
1

> <s_lp_Variant>
AV-unprocessed.smi:1799-2

> <Gold.Version>
5.8.1

> <Gold.Id.Protein>
6NUR|6NUR_protein|mol2

> <Gold.PLP.Fitness>
35.4544

> <Gold.PLP.PLP>
-22.3657

> <Gold.PLP.part.hbond>
-6.4184

> <Gold.PLP.part.metal>
0.0000

> <Gold.PLP.part.buried>
-1.1306

> <Gold.PLP.part.nonpolar>
-15.2599

> <Gold.PLP.part.repulsive>
0.0710

> <Gold.PLP.ligand.clash>
0.0000

> <Gold.PLP.ligand.torsion>
0.2023

> <Gold.PLP.Chemscore.Hbond>
4.4920

> <Gold.PLP.Chemscore.CHOScore>
0.0000

> <Gold.PLP.Chemscore.Metal>
0.0000

> <Gold.Chemscore.Hbonds>
donor molecule, donor type, donor heavy atom, donor atom, acceptor molecule, acceptor atom, score
      L1  H    19    39       P1  7948  2.00
      L1  H    19    40       P1  7957  0.99
      P1  H  6931  6943       L1    12  0.45
      P1  H  6934  6947       L1    11  0.98

> <Gold.PLP.Chemscore.Internal.Correction>
0.0172

> <Gold.Rescore>
     Score         DG    S(hbond)    S(metal)    S(lipo)     H(rot)  DE(clash)    DE(int)     intcor
     16.88     -18.86       2.79        0.00      56.61       1.00       0.13       1.85       ----

> <Gold.Chemscore.Fitness>
16.8808

> <Gold.Chemscore.DG>
-18.8574

> <Gold.Chemscore.ZeroCoef>
-5.4800

> <Gold.Chemscore.Hbond>
2.7887

> <Gold.Chemscore.Metal>
0.0000

> <Gold.Chemscore.Lipo>
56.6086

> <Gold.Chemscore.Internal_Hbond>
0.0000

> <Gold.Chemscore.DEClash>
0.1264

> <Gold.Chemscore.DEInternal>
1.8501

> <Gold.Chemscore.Rot>
1.0000

> <Gold.Chemscore.Internal.Correction>
   9.000000E+99

> <Gold.Chemscore.Hbonds>
donor molecule, donor type, donor heavy atom, donor atom, acceptor molecule, acceptor atom, score
      L1  H    19    39       P1  7948  1.00
      L1  H    19    40       P1  7957  0.94
      P1  H  6931  6943       L1    12  0.02
      P1  H  6934  6947       L1    11  0.27

> <Gold.Chemscore.Hbond.Weighted>
-9.3142

> <Gold.Chemscore.Metal.Weighted>
-0.0000

> <Gold.Chemscore.Lipo.Weighted>
-6.6232

> <Gold.Chemscore.Internal_Hbond.Weighted>
0.0000

> <Gold.Chemscore.DEClash.Weighted>
0.1264

> <Gold.Chemscore.DEInternal.Weighted>
1.8501

> <Gold.Chemscore.Rot.Weighted>
2.5600

> <Gold.Chemscore.Internal.Correction.Weighted>
   9.000000E+99

> <Gold.Protein.RotatedTorsions>
[ 6907 6896 6895 6894 ] final   38.73 input  -60.11 | X-H torsion
[ 7974 7965 7964 7962 ] final  -74.41 input  175.53 | X-H torsion
[ 8008 7997 7996 7995 ] final   -3.45 input   59.86 | X-H torsion
[ 10167 10162 10161 10158 ] final   51.50 input  -65.29 | X-H torsion
[ 10718 10713 10712 10709 ] final   43.88 input   66.30 | X-H torsion
[ 10763 10752 10751 10750 ] final -110.09 input  -60.55 | X-H torsion
[ 11005 11000 10999 10996 ] final  151.81 input  -57.11 | X-H torsion

> <Gold.Protein.ActiveResidues>
 VAL166  LYS551  ARG553  GLY616  TRP617  ASP618  TYR619  PRO620  LYS621  CYS622 
 ASP623  PHE694  ASN695  SER759  ASP760  ASP761  ALA762  ILE779  LEU786  VAL792 
 PHE793  MET794  SER795  GLU796  ALA797  LYS798  CYS799  TRP800  GLU811  SER814 

> <Gold.Protein.RotatedAtoms>
  152.1603  134.8918  160.0541 H   0  0  0  0  0  0  0  0  0  0  0  0  # atno 6907 bound_to 6896
  151.9916  133.3788  159.4155 H   0  0  0  0  0  0  0  0  0  0  0  0  # atno 6908 bound_to 6896
  150.6887  134.3853  159.5096 H   0  0  0  0  0  0  0  0  0  0  0  0  # atno 6909 bound_to 6896
  145.6394  140.9315  143.1044 H   0  0  0  0  0  0  0  0  0  0  0  0  # atno 7974 bound_to 7965
  154.6248  140.2509  155.7505 H   0  0  0  0  0  0  0  0  0  0  0  0  # atno 8008 bound_to 7997
  156.2447  140.2919  156.0492 H   0  0  0  0  0  0  0  0  0  0  0  0  # atno 8009 bound_to 7997
  155.1839  140.0389  157.2878 H   0  0  0  0  0  0  0  0  0  0  0  0  # atno 8010 bound_to 7997
  140.2612  144.3370  150.6317 H   0  0  0  0  0  0  0  0  0  0  0  0  # atno 10167 bound_to 10162
  157.4207  130.7967  149.7513 H   0  0  0  0  0  0  0  0  0  0  0  0  # atno 10718 bound_to 10713
  154.8229  135.4577  154.0833 H   0  0  0  0  0  0  0  0  0  0  0  0  # atno 10763 bound_to 10752
  153.2171  135.6889  153.8051 H   0  0  0  0  0  0  0  0  0  0  0  0  # atno 10764 bound_to 10752
  153.7481  135.3302  155.3293 H   0  0  0  0  0  0  0  0  0  0  0  0  # atno 10765 bound_to 10752
  140.1252  134.8838  157.2128 H   0  0  0  0  0  0  0  0  0  0  0  0  # atno 11005 bound_to 11000
  144.7163  139.8186  143.7397 LP  0  0  0  0  0  0  0  0  0  0  0  0  # atno 17320 bound_to 7965
  146.1293  139.4325  143.0179 LP  0  0  0  0  0  0  0  0  0  0  0  0  # atno 17321 bound_to 7965
  140.5964  143.2167  151.7156 LP  0  0  0  0  0  0  0  0  0  0  0  0  # atno 17342 bound_to 10162
  139.5016  144.3860  152.0328 LP  0  0  0  0  0  0  0  0  0  0  0  0  # atno 17343 bound_to 10162
  155.9880  130.3963  150.3140 LP  0  0  0  0  0  0  0  0  0  0  0  0  # atno 17370 bound_to 10713
  157.1288  131.0266  151.2978 LP  0  0  0  0  0  0  0  0  0  0  0  0  # atno 17371 bound_to 10713
  140.2913  134.3237  155.7314 LP  0  0  0  0  0  0  0  0  0  0  0  0  # atno 17394 bound_to 11000
  141.2160  133.7536  156.9507 LP  0  0  0  0  0  0  0  0  0  0  0  0  # atno 17395 bound_to 11000

$$$$
