AV-unprocessed.smi:505|AV-procd|sdf|2749|dock1
  -GOLD-   2262023213D 1   1.00000     0.00000
 Structure written by MMmdl.
 36 37  0  0  0  0  0  0  0  0  2 V2000
  151.9161  145.6865  160.0336 C   0  0  0  0  0  0  0  0  0  0  0  0
  151.0768  144.8992  159.2074 O   0  0  0  0  0  0  0  0  0  0  0  0
  151.4725  143.5384  159.1733 C   0  0  0  0  0  0  0  0  0  0  0  0
  151.3809  143.0301  157.7295 C   0  0  0  0  0  0  0  0  0  0  0  0
  150.9079  141.6509  157.6748 N   0  0  0  0  0  0  0  0  0  0  0  0
  149.8767  141.1629  156.9423 C   0  0  0  0  0  0  0  0  0  0  0  0
  149.1433  142.0017  156.1116 N   0  0  0  0  0  0  0  0  0  0  0  0
  148.0139  141.7570  155.2336 C   0  0  0  0  0  0  0  0  0  0  0  0
  148.2983  140.6346  154.2255 C   0  0  0  0  0  0  0  0  0  0  0  0
  149.2663  141.0599  153.2898 O   0  0  0  0  0  0  0  0  0  0  0  0
  149.6543  139.8550  157.0821 N   0  0  0  0  0  0  0  0  0  0  0  0
  150.6438  139.4736  157.9784 C   0  0  0  0  0  0  0  0  0  0  0  0
  151.4168  140.5333  158.3408 C   0  0  0  0  0  0  0  0  0  0  0  0
  152.5680  140.4382  159.2632 C   0  0  0  0  0  0  0  0  0  0  0  0
  153.2418  141.4287  159.5397 O   0  0  0  0  0  0  0  0  0  0  0  0
  152.7567  139.1603  159.7222 N   0  5  0  0  0  0  0  0  0  0  0  0
  151.9980  138.0589  159.3875 C   0  0  0  0  0  0  0  0  0  0  0  0
  152.2391  136.9406  159.8439 O   0  0  0  0  0  0  0  0  0  0  0  0
  150.9429  138.1949  158.5232 N   0  0  0  0  0  0  0  0  0  0  0  0
  150.1182  137.0419  158.1511 C   0  0  0  0  0  0  0  0  0  0  0  0
  151.5741  146.7213  160.0228 H   0  0  0  0  0  0  0  0  0  0  0  0
  152.9477  145.6692  159.6798 H   0  0  0  0  0  0  0  0  0  0  0  0
  151.8939  145.3355  161.0661 H   0  0  0  0  0  0  0  0  0  0  0  0
  152.4954  143.4401  159.5408 H   0  0  0  0  0  0  0  0  0  0  0  0
  150.8300  142.9433  159.8240 H   0  0  0  0  0  0  0  0  0  0  0  0
  150.7213  143.6624  157.1364 H   0  0  0  0  0  0  0  0  0  0  0  0
  152.3565  143.0961  157.2477 H   0  0  0  0  0  0  0  0  0  0  0  0
  149.4784  142.9536  156.0794 H   0  0  0  0  0  0  0  0  0  0  0  0
  147.1700  141.4713  155.8622 H   0  0  0  0  0  0  0  0  0  0  0  0
  147.7285  142.6791  154.7265 H   0  0  0  0  0  0  0  0  0  0  0  0
  148.6182  139.7153  154.7174 H   0  0  0  0  0  0  0  0  0  0  0  0
  147.3881  140.4010  153.6728 H   0  0  0  0  0  0  0  0  0  0  0  0
  149.3768  140.3800  152.6429 H   0  0  0  0  0  0  0  0  0  0  0  0
  149.6883  136.5756  159.0389 H   0  0  0  0  0  0  0  0  0  0  0  0
  150.7197  136.2957  157.6307 H   0  0  0  0  0  0  0  0  0  0  0  0
  149.2906  137.3110  157.4950 H   0  0  0  0  0  0  0  0  0  0  0  0
  1  2  1  0  0  0  0
  1 21  1  0  0  0  0
  1 22  1  0  0  0  0
  1 23  1  0  0  0  0
  2  3  1  0  0  0  0
  3  4  1  0  0  0  0
  3 24  1  0  0  0  0
  3 25  1  0  0  0  0
  4  5  1  0  0  0  0
  4 26  1  0  0  0  0
  4 27  1  0  0  0  0
  5 13  1  0  0  0  0
  5  6  1  0  0  0  0
  6  7  1  0  0  0  0
  6 11  2  0  0  0  0
  7  8  1  0  0  0  0
  7 28  1  0  0  0  0
  8  9  1  0  0  0  0
  8 29  1  0  0  0  0
  8 30  1  0  0  0  0
  9 10  1  0  0  0  0
  9 31  1  0  0  0  0
  9 32  1  0  0  0  0
 10 33  1  0  0  0  0
 11 12  1  0  0  0  0
 12 19  1  0  0  0  0
 12 13  2  0  0  0  0
 13 14  1  0  0  0  0
 14 15  2  0  0  0  0
 14 16  1  0  0  0  0
 16 17  1  0  0  0  0
 17 18  2  0  0  0  0
 17 19  1  0  0  0  0
 19 20  1  0  0  0  0
 20 34  1  0  0  0  0
 20 35  1  0  0  0  0
 20 36  1  0  0  0  0
M  CHG  1  16  -1
M  END
> <s_m_source_file>
AV-unprocessed.smi

> <i_m_source_file_index>
505

> <i_lp_mmshare_version>
43012

> <i_f3d_flags>
0

> <s_epik_input>
W09IXVtDSDJdW0NIMl1bTkhdYyhuMSluKFtDSDJdW0NIMl1PW0NIM10pYyhjMTIpYyg9TylbbkhdYyg9TyluMltDSDNd

> <s_epik_cmdline>
J2VwaWtfcHl0aG9uJywgJy1waCcsICc3LjAnLCAnLXRuJywgJzgnLCAnLW1hJywgJzIwMCcsICctbWV0YWxfYmluZGluZycsICctaW1hZScsICc8aW5maWxlLm1hZT4nLCAnLW9tYWUnLCAnPG91dGZpbGUubWFlPic=

> <r_lp_tautomer_probability>
1

> <r_epik_Ionization_Penalty>
5.9232

> <r_epik_Ionization_Penalty_Charging>
1.43987e-08

> <r_epik_Ionization_Penalty_Neutral>
5.9232

> <r_epik_State_Penalty>
5.92302

> <r_epik_Charging_Adjusted_Penalty>
5.92302

> <i_epik_Tot_Q>
-1

> <i_epik_Tot_abs_Q>
1

> <r_epik_Metal_State_Penalty>
1.88194

> <b_epik_Metal_Only>
1

> <s_lp_Force_Field>
OPLS_2005

> <r_lp_Energy>
27.5321

> <b_lp_Chiralities_Consistent>
1

> <s_lp_Variant>
AV-unprocessed.smi:505-2

> <Gold.Version>
5.8.1

> <Gold.Id.Protein>
6NUR|6NUR_protein|mol2

> <Gold.PLP.Fitness>
44.1974

> <Gold.PLP.PLP>
-34.4239

> <Gold.PLP.part.hbond>
-4.5018

> <Gold.PLP.part.metal>
0.0000

> <Gold.PLP.part.buried>
-7.2058

> <Gold.PLP.part.nonpolar>
-23.4781

> <Gold.PLP.part.repulsive>
0.2043

> <Gold.PLP.ligand.clash>
0.0000

> <Gold.PLP.ligand.torsion>
0.6449

> <Gold.PLP.Chemscore.Hbond>
3.6709

> <Gold.PLP.Chemscore.CHOScore>
0.0000

> <Gold.PLP.Chemscore.Metal>
0.0000

> <Gold.Chemscore.Hbonds>
donor molecule, donor type, donor heavy atom, donor atom, acceptor molecule, acceptor atom, score
      L1  H     7    28       P1  8028  0.82
      L1  H    10    33       P1  7957  0.93
      P1  H  6896  6909       L1    18  1.00
      P1  H  7989  7998       L1    10  0.01
      P1  H  8011  8017       L1    10  0.90

> <Gold.PLP.Chemscore.Internal.Correction>
0.0506

> <Gold.Rescore>
     Score         DG    S(hbond)    S(metal)    S(lipo)     H(rot)  DE(clash)    DE(int)     intcor
     12.51     -14.39       3.09        0.00      54.11       3.02       0.02       1.86       ----

> <Gold.Chemscore.Fitness>
12.5069

> <Gold.Chemscore.DG>
-14.3912

> <Gold.Chemscore.ZeroCoef>
-5.4800

> <Gold.Chemscore.Hbond>
3.0858

> <Gold.Chemscore.Metal>
0.0000

> <Gold.Chemscore.Lipo>
54.1100

> <Gold.Chemscore.Internal_Hbond>
0.0000

> <Gold.Chemscore.DEClash>
0.0202

> <Gold.Chemscore.DEInternal>
1.8640

> <Gold.Chemscore.Rot>
3.0181

> <Gold.Chemscore.Internal.Correction>
   9.000000E+99

> <Gold.Chemscore.Hbonds>
donor molecule, donor type, donor heavy atom, donor atom, acceptor molecule, acceptor atom, score
      L1  H     7    28       P1  8028  0.81
      L1  H    10    33       P1  7957  0.84
      P1  H  6896  6909       L1    18  1.00
      P1  H  8011  8017       L1    10  0.18

> <Gold.Chemscore.Hbond.Weighted>
-10.3067

> <Gold.Chemscore.Metal.Weighted>
-0.0000

> <Gold.Chemscore.Lipo.Weighted>
-6.3309

> <Gold.Chemscore.Internal_Hbond.Weighted>
0.0000

> <Gold.Chemscore.DEClash.Weighted>
0.0202

> <Gold.Chemscore.DEInternal.Weighted>
1.8640

> <Gold.Chemscore.Rot.Weighted>
7.7264

> <Gold.Chemscore.Internal.Correction.Weighted>
   9.000000E+99

> <Gold.Protein.RotatedTorsions>
[ 6907 6896 6895 6894 ] final  134.60 input  -60.11 | X-H torsion
[ 7974 7965 7964 7962 ] final   -5.25 input  175.53 | X-H torsion
[ 8008 7997 7996 7995 ] final  141.97 input   59.86 | X-H torsion
[ 10167 10162 10161 10158 ] final -146.18 input  -65.29 | X-H torsion
[ 10718 10713 10712 10709 ] final  -57.18 input   66.30 | X-H torsion
[ 10763 10752 10751 10750 ] final -158.81 input  -60.55 | X-H torsion
[ 11005 11000 10999 10996 ] final  141.44 input  -57.11 | X-H torsion

> <Gold.Protein.ActiveResidues>
 VAL166  LYS551  ARG553  GLY616  TRP617  ASP618  TYR619  PRO620  LYS621  CYS622 
 ASP623  PHE694  ASN695  SER759  ASP760  ASP761  ALA762  ILE779  LEU786  VAL792 
 PHE793  MET794  SER795  GLU796  ALA797  LYS798  CYS799  TRP800  GLU811  SER814 

> <Gold.Protein.RotatedAtoms>
  152.3095  133.5738  159.5671 H   0  0  0  0  0  0  0  0  0  0  0  0  # atno 6907 bound_to 6896
  150.7316  134.0173  159.3698 H   0  0  0  0  0  0  0  0  0  0  0  0  # atno 6908 bound_to 6896
  151.8067  135.0693  160.0458 H   0  0  0  0  0  0  0  0  0  0  0  0  # atno 6909 bound_to 6896
  146.2356  140.1993  142.8333 H   0  0  0  0  0  0  0  0  0  0  0  0  # atno 7974 bound_to 7965
  156.2957  140.2301  156.4651 H   0  0  0  0  0  0  0  0  0  0  0  0  # atno 8008 bound_to 7997
  154.7984  140.0450  157.1275 H   0  0  0  0  0  0  0  0  0  0  0  0  # atno 8009 bound_to 7997
  154.9563  140.3048  155.5055 H   0  0  0  0  0  0  0  0  0  0  0  0  # atno 8010 bound_to 7997
  139.7737  143.8200  152.2628 H   0  0  0  0  0  0  0  0  0  0  0  0  # atno 10167 bound_to 10162
  156.1230  130.4164  150.0406 H   0  0  0  0  0  0  0  0  0  0  0  0  # atno 10718 bound_to 10713
  154.7526  135.3096  154.8529 H   0  0  0  0  0  0  0  0  0  0  0  0  # atno 10763 bound_to 10752
  153.9312  135.6785  153.4749 H   0  0  0  0  0  0  0  0  0  0  0  0  # atno 10764 bound_to 10752
  153.1122  135.4861  154.8983 H   0  0  0  0  0  0  0  0  0  0  0  0  # atno 10765 bound_to 10752
  140.0401  134.9309  157.0827 H   0  0  0  0  0  0  0  0  0  0  0  0  # atno 11005 bound_to 11000
  144.9795  140.8445  143.5406 LP  0  0  0  0  0  0  0  0  0  0  0  0  # atno 17320 bound_to 7965
  145.1984  139.2264  143.5205 LP  0  0  0  0  0  0  0  0  0  0  0  0  # atno 17321 bound_to 7965
  139.8242  144.7282  150.9533 LP  0  0  0  0  0  0  0  0  0  0  0  0  # atno 17342 bound_to 10162
  140.7815  143.4130  151.0962 LP  0  0  0  0  0  0  0  0  0  0  0  0  # atno 17343 bound_to 10162
  156.8339  130.9402  151.3635 LP  0  0  0  0  0  0  0  0  0  0  0  0  # atno 17370 bound_to 10713
  157.6413  130.8808  149.9454 LP  0  0  0  0  0  0  0  0  0  0  0  0  # atno 17371 bound_to 10713
  140.4083  134.2009  155.7163 LP  0  0  0  0  0  0  0  0  0  0  0  0  # atno 17394 bound_to 11000
  141.1878  133.8272  157.1017 LP  0  0  0  0  0  0  0  0  0  0  0  0  # atno 17395 bound_to 11000

$$$$
