AV-unprocessed.smi:1934|AV-procd|sdf|7825|dock7
  -GOLD-   22720 9573D 1   1.00000     0.00000
 Structure written by MMmdl.
 46 47  0  0  0  0  0  0  0  0  2 V2000
  150.3216  141.9173  156.3326 C   0  0  0  0  0  0  0  0  0  0  0  0
  150.0848  140.6834  155.5125 C   0  0  0  0  0  0  0  0  0  0  0  0
  148.8672  140.2468  154.9146 C   0  0  0  0  0  0  0  0  0  0  0  0
  149.2340  139.0816  154.2980 C   0  0  0  0  0  0  0  0  0  0  0  0
  148.4714  138.2310  153.5603 N   0  0  0  0  0  0  0  0  0  0  0  0
  147.1352  138.0818  153.5618 C   0  0  0  0  0  0  0  0  0  0  0  0
  146.3474  138.6838  154.2918 O   0  0  0  0  0  0  0  0  0  0  0  0
  146.7481  137.1717  152.6565 N   0  0  0  0  0  0  0  0  0  0  0  0
  145.3648  136.7883  152.3997 C   0  0  0  0  0  0  0  0  0  0  0  0
  145.1298  136.4927  150.9062 C   0  0  0  0  0  0  0  0  0  0  0  0
  145.1052  135.0365  150.6197 N   0  3  1  0  0  0  0  0  0  0  0  0
  146.2438  134.3177  151.2474 C   0  0  0  0  0  0  0  0  0  0  0  0
  146.2829  132.8472  150.8024 C   0  0  0  0  0  0  0  0  0  0  0  0
  144.9532  132.1434  151.1074 C   0  0  0  0  0  0  0  0  0  0  0  0
  143.7608  132.9188  150.5167 C   0  0  2  0  0  0  0  0  0  0  0  0
  143.6483  132.7688  148.9896 C   0  0  0  0  0  0  0  0  0  0  0  0
  143.8037  134.3973  150.9561 C   0  0  0  0  0  0  0  0  0  0  0  0
  150.5761  138.8626  154.5241 N   0  0  0  0  0  0  0  0  0  0  0  0
  151.4322  137.7753  154.0896 C   0  0  0  0  0  0  0  0  0  0  0  0
  151.0957  139.8544  155.2788 N   0  0  0  0  0  0  0  0  0  0  0  0
  149.4494  142.5712  156.3220 H   0  0  0  0  0  0  0  0  0  0  0  0
  151.1677  142.4884  155.9497 H   0  0  0  0  0  0  0  0  0  0  0  0
  150.5332  141.6625  157.3711 H   0  0  0  0  0  0  0  0  0  0  0  0
  147.9005  140.7261  154.9443 H   0  0  0  0  0  0  0  0  0  0  0  0
  148.9838  137.6457  152.9171 H   0  0  0  0  0  0  0  0  0  0  0  0
  147.4589  136.7212  152.0984 H   0  0  0  0  0  0  0  0  0  0  0  0
  145.1067  135.9325  153.0243 H   0  0  0  0  0  0  0  0  0  0  0  0
  144.7223  137.6085  152.7207 H   0  0  0  0  0  0  0  0  0  0  0  0
  144.1721  136.9337  150.6257 H   0  0  0  0  0  0  0  0  0  0  0  0
  145.8839  136.9758  150.2827 H   0  0  0  0  0  0  0  0  0  0  0  0
  147.1836  134.7965  150.9697 H   0  0  0  0  0  0  0  0  0  0  0  0
  146.1629  134.3832  152.3339 H   0  0  0  0  0  0  0  0  0  0  0  0
  146.4985  132.7907  149.7349 H   0  0  0  0  0  0  0  0  0  0  0  0
  147.0995  132.3288  151.3058 H   0  0  0  0  0  0  0  0  0  0  0  0
  144.9702  131.1200  150.7309 H   0  0  0  0  0  0  0  0  0  0  0  0
  144.8320  132.0681  152.1889 H   0  0  0  0  0  0  0  0  0  0  0  0
  142.8529  132.4815  150.9340 H   0  0  0  0  0  0  0  0  0  0  0  0
  144.5052  133.2003  148.4725 H   0  0  0  0  0  0  0  0  0  0  0  0
  142.7533  133.2654  148.6137 H   0  0  0  0  0  0  0  0  0  0  0  0
  143.5825  131.7188  148.7032 H   0  0  0  0  0  0  0  0  0  0  0  0
  143.6438  134.4646  152.0335 H   0  0  0  0  0  0  0  0  0  0  0  0
  142.9788  134.9350  150.4897 H   0  0  0  0  0  0  0  0  0  0  0  0
  150.9567  137.2089  153.2890 H   0  0  0  0  0  0  0  0  0  0  0  0
  151.6293  137.1075  154.9285 H   0  0  0  0  0  0  0  0  0  0  0  0
  152.3785  138.1725  153.7205 H   0  0  0  0  0  0  0  0  0  0  0  0
  145.2310  134.9414  149.6221 H   0  0  0  0  0  0  0  0  0  0  0  0
  1  2  1  0  0  0  0
  1 21  1  0  0  0  0
  1 22  1  0  0  0  0
  1 23  1  0  0  0  0
  2 20  2  0  0  0  0
  2  3  1  0  0  0  0
  3  4  2  0  0  0  0
  3 24  1  0  0  0  0
  4  5  1  0  0  0  0
  4 18  1  0  0  0  0
  5  6  1  0  0  0  0
  5 25  1  0  0  0  0
  6  7  2  0  0  0  0
  6  8  1  0  0  0  0
  8  9  1  0  0  0  0
  8 26  1  0  0  0  0
  9 10  1  0  0  0  0
  9 27  1  0  0  0  0
  9 28  1  0  0  0  0
 10 11  1  0  0  0  0
 10 29  1  0  0  0  0
 10 30  1  0  0  0  0
 11 17  1  0  0  0  0
 11 12  1  0  0  0  0
 11 46  1  0  0  0  0
 12 13  1  0  0  0  0
 12 31  1  0  0  0  0
 12 32  1  0  0  0  0
 13 14  1  0  0  0  0
 13 33  1  0  0  0  0
 13 34  1  0  0  0  0
 14 15  1  0  0  0  0
 14 35  1  0  0  0  0
 14 36  1  0  0  0  0
 15 16  1  0  0  0  0
 15 17  1  0  0  0  0
 15 37  1  0  0  0  0
 16 38  1  0  0  0  0
 16 39  1  0  0  0  0
 16 40  1  0  0  0  0
 17 41  1  0  0  0  0
 17 42  1  0  0  0  0
 18 19  1  0  0  0  0
 18 20  1  0  0  0  0
 19 43  1  0  0  0  0
 19 44  1  0  0  0  0
 19 45  1  0  0  0  0
M  CHG  1  11   1
M  END
> <s_m_source_file>
AV-unprocessed.smi

> <i_m_source_file_index>
1934

> <i_lp_mmshare_version>
43012

> <i_f3d_flags>
0

> <s_epik_input>
W0NIM11jMVtjSF1jKG4objEpW0NIM10pW05IXUMoPU8pW05IXVtDSDJdW0NIMl1OMltDSDJdW0NIMl1bQ0gyXVtDQEBIXShbQ0gzXSlbQ0gyXTI=

> <s_epik_cmdline>
J2VwaWtfcHl0aG9uJywgJy1waCcsICc3LjAnLCAnLXRuJywgJzgnLCAnLW1hJywgJzIwMCcsICctbWV0YWxfYmluZGluZycsICctaW1hZScsICc8aW5maWxlLm1hZT4nLCAnLW9tYWUnLCAnPG91dGZpbGUubWFlPic=

> <r_lp_tautomer_probability>
1

> <r_epik_Ionization_Penalty>
0.00202955

> <r_epik_Ionization_Penalty_Charging>
0.00195276

> <r_epik_Ionization_Penalty_Neutral>
7.67968e-05

> <r_epik_State_Penalty>
0.00133177

> <r_epik_Charging_Adjusted_Penalty>
0.00328452

> <i_epik_Tot_Q>
1

> <i_epik_Tot_abs_Q>
1

> <r_epik_Metal_State_Penalty>
-0

> <b_epik_Metal_Only>
0

> <s_lp_Force_Field>
OPLS_2005

> <r_lp_Energy>
20.4325

> <b_lp_Chiralities_Consistent>
1

> <s_lp_Variant>
AV-unprocessed.smi:1934-3

> <Gold.Version>
5.8.1

> <Gold.Id.Protein>
6NUR|6NUR_protein|mol2

> <Gold.PLP.Fitness>
44.9662

> <Gold.PLP.PLP>
-36.7686

> <Gold.PLP.part.hbond>
-4.7339

> <Gold.PLP.part.metal>
0.0000

> <Gold.PLP.part.buried>
2.9106

> <Gold.PLP.part.nonpolar>
-36.3053

> <Gold.PLP.part.repulsive>
0.3364

> <Gold.PLP.ligand.clash>
0.0000

> <Gold.PLP.ligand.torsion>
0.6905

> <Gold.PLP.Chemscore.Hbond>
3.1705

> <Gold.PLP.Chemscore.CHOScore>
0.0000

> <Gold.PLP.Chemscore.Metal>
0.0000

> <Gold.Chemscore.Hbonds>
donor molecule, donor type, donor heavy atom, donor atom, acceptor molecule, acceptor atom, score
      L1  H     5    25       P1  7948  0.98
      L1  H     8    26       P1  7948  1.00
      L1  H    11    46       P1  7921  0.62
      P1  H  7989  7998       L1    20  0.23

> <Gold.PLP.Chemscore.Internal.Correction>
0.0672

> <Gold.Rescore>
     Score         DG    S(hbond)    S(metal)    S(lipo)     H(rot)  DE(clash)    DE(int)     intcor
     19.39     -21.55       2.83        0.00      88.94       1.48       1.29       0.87       ----

> <Gold.Chemscore.Fitness>
19.3906

> <Gold.Chemscore.DG>
-21.5492

> <Gold.Chemscore.ZeroCoef>
-5.4800

> <Gold.Chemscore.Hbond>
2.8329

> <Gold.Chemscore.Metal>
0.0000

> <Gold.Chemscore.Lipo>
88.9385

> <Gold.Chemscore.Internal_Hbond>
0.0000

> <Gold.Chemscore.DEClash>
1.2927

> <Gold.Chemscore.DEInternal>
0.8659

> <Gold.Chemscore.Rot>
1.4838

> <Gold.Chemscore.Internal.Correction>
   9.000000E+99

> <Gold.Chemscore.Hbonds>
donor molecule, donor type, donor heavy atom, donor atom, acceptor molecule, acceptor atom, score
      L1  H     5    25       P1  7948  0.92
      L1  H     8    26       P1  7948  0.94
      L1  H    11    46       P1  7921  0.60

> <Gold.Chemscore.Hbond.Weighted>
-9.4618

> <Gold.Chemscore.Metal.Weighted>
-0.0000

> <Gold.Chemscore.Lipo.Weighted>
-10.4058

> <Gold.Chemscore.Internal_Hbond.Weighted>
0.0000

> <Gold.Chemscore.DEClash.Weighted>
1.2927

> <Gold.Chemscore.DEInternal.Weighted>
0.8659

> <Gold.Chemscore.Rot.Weighted>
3.7985

> <Gold.Chemscore.Internal.Correction.Weighted>
   9.000000E+99

> <Gold.Protein.RotatedTorsions>
[ 6907 6896 6895 6894 ] final  167.86 input  -60.11 | X-H torsion
[ 7974 7965 7964 7962 ] final   36.05 input  175.53 | X-H torsion
[ 8008 7997 7996 7995 ] final   21.97 input   59.86 | X-H torsion
[ 10167 10162 10161 10158 ] final -161.07 input  -65.29 | X-H torsion
[ 10718 10713 10712 10709 ] final  119.82 input   66.30 | X-H torsion
[ 10763 10752 10751 10750 ] final  -85.16 input  -60.55 | X-H torsion
[ 11005 11000 10999 10996 ] final   66.93 input  -57.11 | X-H torsion

> <Gold.Protein.ActiveResidues>
 VAL166  LYS551  ARG553  GLY616  TRP617  ASP618  TYR619  PRO620  LYS621  CYS622 
 ASP623  PHE694  ASN695  SER759  ASP760  ASP761  ALA762  ILE779  LEU786  VAL792 
 PHE793  MET794  SER795  GLU796  ALA797  LYS798  CYS799  TRP800  GLU811  SER814 

> <Gold.Protein.RotatedAtoms>
  151.8566  133.3449  159.3690 H   0  0  0  0  0  0  0  0  0  0  0  0  # atno 6907 bound_to 6896
  150.7191  134.5247  159.5680 H   0  0  0  0  0  0  0  0  0  0  0  0  # atno 6908 bound_to 6896
  152.2751  134.7890  160.0458 H   0  0  0  0  0  0  0  0  0  0  0  0  # atno 6909 bound_to 6896
  146.1239  139.6066  142.9271 H   0  0  0  0  0  0  0  0  0  0  0  0  # atno 7974 bound_to 7965
  154.9586  140.3075  155.5041 H   0  0  0  0  0  0  0  0  0  0  0  0  # atno 8008 bound_to 7997
  156.2979  140.2305  156.4608 H   0  0  0  0  0  0  0  0  0  0  0  0  # atno 8009 bound_to 7997
  154.7986  140.0435  157.1244 H   0  0  0  0  0  0  0  0  0  0  0  0  # atno 8010 bound_to 7997
  139.6492  144.0115  152.2149 H   0  0  0  0  0  0  0  0  0  0  0  0  # atno 10167 bound_to 10162
  157.5935  131.1061  150.7949 H   0  0  0  0  0  0  0  0  0  0  0  0  # atno 10718 bound_to 10713
  154.6079  135.5495  153.7442 H   0  0  0  0  0  0  0  0  0  0  0  0  # atno 10763 bound_to 10752
  153.0182  135.6382  154.1621 H   0  0  0  0  0  0  0  0  0  0  0  0  # atno 10764 bound_to 10752
  154.1559  135.2900  155.3102 H   0  0  0  0  0  0  0  0  0  0  0  0  # atno 10765 bound_to 10752
  139.9802  134.6757  156.0278 H   0  0  0  0  0  0  0  0  0  0  0  0  # atno 11005 bound_to 11000
  145.5406  141.0421  143.2332 LP  0  0  0  0  0  0  0  0  0  0  0  0  # atno 17320 bound_to 7965
  144.7624  139.6926  143.7229 LP  0  0  0  0  0  0  0  0  0  0  0  0  # atno 17321 bound_to 7965
  139.9824  144.6419  150.7888 LP  0  0  0  0  0  0  0  0  0  0  0  0  # atno 17342 bound_to 10162
  140.7530  143.3000  151.3106 LP  0  0  0  0  0  0  0  0  0  0  0  0  # atno 17343 bound_to 10162
  156.8365  130.5033  149.5325 LP  0  0  0  0  0  0  0  0  0  0  0  0  # atno 17370 bound_to 10713
  156.0993  130.5957  150.9867 LP  0  0  0  0  0  0  0  0  0  0  0  0  # atno 17371 bound_to 10713
  141.1474  133.6553  156.3910 LP  0  0  0  0  0  0  0  0  0  0  0  0  # atno 17394 bound_to 11000
  140.5113  134.6392  157.5285 LP  0  0  0  0  0  0  0  0  0  0  0  0  # atno 17395 bound_to 11000

$$$$
