AV-unprocessed.smi:3090|AV-procd|sdf|11775|dock2
  -GOLD-   2272017153D 1   1.00000     0.00000
 Structure written by MMmdl.
 22 22  0  0  0  0  0  0  0  0  2 V2000
  152.0989  142.6352  158.1912 C   0  0  0  0  0  0  0  0  0  0  0  0
  151.5832  141.6918  157.2225 N   0  0  0  0  0  0  0  0  0  0  0  0
  150.4547  141.7937  156.4385 C   0  0  0  0  0  0  0  0  0  0  0  0
  150.3754  140.6578  155.6804 C   0  0  0  0  0  0  0  0  0  0  0  0
  149.3453  140.2639  154.6548 C   0  0  1  0  0  0  0  0  0  0  0  0
  149.5669  140.9209  153.4224 O   0  0  0  0  0  0  0  0  0  0  0  0
  149.3771  138.7451  154.4097 C   0  0  0  0  0  0  0  0  0  0  0  0
  150.1157  138.4036  153.1814 N   0  3  0  0  0  0  0  0  0  0  0  0
  151.5231  139.9160  156.0828 C   0  0  0  0  0  0  0  0  0  0  0  0
  152.2423  140.5361  157.0036 N   0  0  0  0  0  0  0  0  0  0  0  0
  151.4515  143.5111  158.2423 H   0  0  0  0  0  0  0  0  0  0  0  0
  153.1011  142.9522  157.9011 H   0  0  0  0  0  0  0  0  0  0  0  0
  152.1408  142.1681  159.1755 H   0  0  0  0  0  0  0  0  0  0  0  0
  149.8074  142.6575  156.4830 H   0  0  0  0  0  0  0  0  0  0  0  0
  148.3501  140.5485  154.9991 H   0  0  0  0  0  0  0  0  0  0  0  0
  149.3890  140.3120  152.7210 H   0  0  0  0  0  0  0  0  0  0  0  0
  149.8287  138.2247  155.2555 H   0  0  0  0  0  0  0  0  0  0  0  0
  148.3612  138.3621  154.3060 H   0  0  0  0  0  0  0  0  0  0  0  0
  150.1855  139.2195  152.5902 H   0  0  0  0  0  0  0  0  0  0  0  0
  149.6216  137.6718  152.6907 H   0  0  0  0  0  0  0  0  0  0  0  0
  151.8534  138.9490  155.7323 H   0  0  0  0  0  0  0  0  0  0  0  0
  151.0413  138.0802  153.4231 H   0  0  0  0  0  0  0  0  0  0  0  0
  1  2  1  0  0  0  0
  1 11  1  0  0  0  0
  1 12  1  0  0  0  0
  1 13  1  0  0  0  0
  2 10  1  0  0  0  0
  2  3  1  0  0  0  0
  3  4  2  0  0  0  0
  3 14  1  0  0  0  0
  4  5  1  0  0  0  0
  4  9  1  0  0  0  0
  5  6  1  0  0  0  0
  5  7  1  0  0  0  0
  5 15  1  0  0  0  0
  6 16  1  0  0  0  0
  7  8  1  0  0  0  0
  7 17  1  0  0  0  0
  7 18  1  0  0  0  0
  8 19  1  0  0  0  0
  8 20  1  0  0  0  0
  8 22  1  0  0  0  0
  9 10  2  0  0  0  0
  9 21  1  0  0  0  0
M  CHG  1   8   1
M  END
> <s_m_source_file>
AV-unprocessed.smi

> <i_m_source_file_index>
3090

> <i_lp_mmshare_version>
43012

> <i_f3d_flags>
0

> <s_epik_input>
W0NIM11uMVtjSF1jKFtjSF1uMSlbQ0BIXShbT0hdKVtDSDJdW05IMl0=

> <s_epik_cmdline>
J2VwaWtfcHl0aG9uJywgJy1waCcsICc3LjAnLCAnLXRuJywgJzgnLCAnLW1hJywgJzIwMCcsICctbWV0YWxfYmluZGluZycsICctaW1hZScsICc8aW5maWxlLm1hZT4nLCAnLW9tYWUnLCAnPG91dGZpbGUubWFlPic=

> <r_lp_tautomer_probability>
1

> <r_epik_Ionization_Penalty>
0.014056

> <r_epik_Ionization_Penalty_Charging>
0.0140431

> <r_epik_Ionization_Penalty_Neutral>
1.29738e-05

> <r_epik_State_Penalty>
0.0109628

> <r_epik_Charging_Adjusted_Penalty>
0.0250059

> <i_epik_Tot_Q>
1

> <i_epik_Tot_abs_Q>
1

> <r_epik_Metal_State_Penalty>
0.0109636

> <b_epik_Metal_Only>
0

> <s_lp_Force_Field>
OPLS_2005

> <r_lp_Energy>
1.35566

> <b_lp_Chiralities_Consistent>
1

> <s_lp_Variant>
AV-unprocessed.smi:3090-2

> <Gold.Version>
5.8.1

> <Gold.Id.Protein>
6NUR|6NUR_protein|mol2

> <Gold.PLP.Fitness>
37.2096

> <Gold.PLP.PLP>
-20.1997

> <Gold.PLP.part.hbond>
-6.0487

> <Gold.PLP.part.metal>
0.0000

> <Gold.PLP.part.buried>
-0.0286

> <Gold.PLP.part.nonpolar>
-12.6684

> <Gold.PLP.part.repulsive>
0.0992

> <Gold.PLP.ligand.clash>
0.0000

> <Gold.PLP.ligand.torsion>
1.0804

> <Gold.PLP.Chemscore.Hbond>
5.3894

> <Gold.PLP.Chemscore.CHOScore>
1.0000

> <Gold.PLP.Chemscore.Metal>
0.0000

> <Gold.Chemscore.Hbonds>
donor molecule, donor type, donor heavy atom, donor atom, acceptor molecule, acceptor atom, score
      L1  H     6    16       P1  7957  0.86
      L1  H     8    19       P1  7957  0.93
      L1  H     8    20       P1  7948  2.00
      P1  H  7989  7998       L1     6  0.24
      P1  H  7997  8008       L1    10  0.52
      P1  H  8011  8017       L1     6  0.80
      L1  C     3    14       P1  8028  1.00

> <Gold.PLP.Chemscore.Internal.Correction>
0.0024

> <Gold.Rescore>
     Score         DG    S(hbond)    S(metal)    S(lipo)     H(rot)  DE(clash)    DE(int)     intcor
     14.10     -15.23       2.94        0.00      42.15       1.96       0.15       0.98       ----

> <Gold.Chemscore.Fitness>
14.1039

> <Gold.Chemscore.DG>
-15.2267

> <Gold.Chemscore.ZeroCoef>
-5.4800

> <Gold.Chemscore.Hbond>
2.9403

> <Gold.Chemscore.Metal>
0.0000

> <Gold.Chemscore.Lipo>
42.1464

> <Gold.Chemscore.Internal_Hbond>
0.0000

> <Gold.Chemscore.DEClash>
0.1462

> <Gold.Chemscore.DEInternal>
0.9766

> <Gold.Chemscore.Rot>
1.9551

> <Gold.Chemscore.Internal.Correction>
   9.000000E+99

> <Gold.Chemscore.Hbonds>
donor molecule, donor type, donor heavy atom, donor atom, acceptor molecule, acceptor atom, score
      L1  H     6    16       P1  7957  0.84
      L1  H     8    19       P1  7957  0.59
      L1  H     8    20       P1  7948  0.55
      P1  H  7989  7998       L1     6  0.01
      P1  H  7997  8008       L1    10  0.31
      P1  H  8011  8017       L1     6  0.12

> <Gold.Chemscore.Hbond.Weighted>
-9.8206

> <Gold.Chemscore.Metal.Weighted>
-0.0000

> <Gold.Chemscore.Lipo.Weighted>
-4.9311

> <Gold.Chemscore.Internal_Hbond.Weighted>
0.0000

> <Gold.Chemscore.DEClash.Weighted>
0.1462

> <Gold.Chemscore.DEInternal.Weighted>
0.9766

> <Gold.Chemscore.Rot.Weighted>
5.0051

> <Gold.Chemscore.Internal.Correction.Weighted>
   9.000000E+99

> <Gold.Protein.RotatedTorsions>
[ 6907 6896 6895 6894 ] final   52.09 input  -60.11 | X-H torsion
[ 7974 7965 7964 7962 ] final -105.26 input  175.53 | X-H torsion
[ 8008 7997 7996 7995 ] final  -53.57 input   59.86 | X-H torsion
[ 10167 10162 10161 10158 ] final  -24.17 input  -65.29 | X-H torsion
[ 10718 10713 10712 10709 ] final -135.08 input   66.30 | X-H torsion
[ 10763 10752 10751 10750 ] final -176.21 input  -60.55 | X-H torsion
[ 11005 11000 10999 10996 ] final  102.75 input  -57.11 | X-H torsion

> <Gold.Protein.ActiveResidues>
 VAL166  LYS551  ARG553  GLY616  TRP617  ASP618  TYR619  PRO620  LYS621  CYS622 
 ASP623  PHE694  ASN695  SER759  ASP760  ASP761  ALA762  ILE779  LEU786  VAL792 
 PHE793  MET794  SER795  GLU796  ALA797  LYS798  CYS799  TRP800  GLU811  SER814 

> <Gold.Protein.RotatedAtoms>
  152.3196  134.7397  160.0316 H   0  0  0  0  0  0  0  0  0  0  0  0  # atno 6907 bound_to 6896
  151.7850  133.3348  159.3490 H   0  0  0  0  0  0  0  0  0  0  0  0  # atno 6908 bound_to 6896
  150.7363  134.5827  159.5991 H   0  0  0  0  0  0  0  0  0  0  0  0  # atno 6909 bound_to 6896
  145.2326  140.9176  143.3195 H   0  0  0  0  0  0  0  0  0  0  0  0  # atno 7974 bound_to 7965
  154.4137  140.1197  156.5175 H   0  0  0  0  0  0  0  0  0  0  0  0  # atno 8008 bound_to 7997
  155.6736  140.3496  155.4808 H   0  0  0  0  0  0  0  0  0  0  0  0  # atno 8009 bound_to 7997
  155.9612  140.1123  157.0884 H   0  0  0  0  0  0  0  0  0  0  0  0  # atno 8010 bound_to 7997
  140.7288  143.4377  151.0704 H   0  0  0  0  0  0  0  0  0  0  0  0  # atno 10167 bound_to 10162
  156.2623  130.7217  151.1155 H   0  0  0  0  0  0  0  0  0  0  0  0  # atno 10718 bound_to 10713
  154.5752  135.2831  155.0788 H   0  0  0  0  0  0  0  0  0  0  0  0  # atno 10763 bound_to 10752
  154.2146  135.6402  153.5129 H   0  0  0  0  0  0  0  0  0  0  0  0  # atno 10764 bound_to 10752
  153.0070  135.5500  154.6387 H   0  0  0  0  0  0  0  0  0  0  0  0  # atno 10765 bound_to 10752
  139.8779  134.9236  156.5105 H   0  0  0  0  0  0  0  0  0  0  0  0  # atno 11005 bound_to 11000
  144.9662  139.3928  143.6331 LP  0  0  0  0  0  0  0  0  0  0  0  0  # atno 17320 bound_to 7965
  146.3349  139.8738  142.8835 LP  0  0  0  0  0  0  0  0  0  0  0  0  # atno 17321 bound_to 7965
  139.8041  143.8043  152.3165 LP  0  0  0  0  0  0  0  0  0  0  0  0  # atno 17342 bound_to 10162
  139.8069  144.7351  150.9749 LP  0  0  0  0  0  0  0  0  0  0  0  0  # atno 17343 bound_to 10162
  157.7255  131.0653  150.5951 LP  0  0  0  0  0  0  0  0  0  0  0  0  # atno 17370 bound_to 10713
  156.6040  130.4362  149.5886 LP  0  0  0  0  0  0  0  0  0  0  0  0  # atno 17371 bound_to 10713
  140.8524  133.8122  155.9182 LP  0  0  0  0  0  0  0  0  0  0  0  0  # atno 17394 bound_to 11000
  140.9131  134.2235  157.4973 LP  0  0  0  0  0  0  0  0  0  0  0  0  # atno 17395 bound_to 11000

$$$$
