AV-unprocessed.smi:1007|AV-procd|sdf|4400|dock6
  -GOLD-   22720 2333D 1   1.00000     0.00000
 Structure written by MMmdl.
 56 58  0  0  0  0  0  0  0  0  2 V2000
  143.9290  145.4362  156.2246 C   0  0  0  0  0  0  0  0  0  0  0  0
  144.8430  144.5161  156.7957 O   0  0  0  0  0  0  0  0  0  0  0  0
  144.2761  143.2293  156.9781 C   0  0  0  0  0  0  0  0  0  0  0  0
  143.7249  142.7310  155.6331 C   0  0  0  0  0  0  0  0  0  0  0  0
  144.6664  141.8248  154.9282 N   0  3  0  0  0  0  0  0  0  0  0  0
  145.0709  140.6378  155.7291 C   0  0  0  0  0  0  0  0  0  0  0  0
  146.0132  139.7295  154.9110 C   0  0  0  0  0  0  0  0  0  0  0  0
  147.2043  140.4218  154.4194 N   0  0  0  0  0  0  0  0  0  0  0  0
  148.1621  140.7302  155.4913 C   0  0  0  0  0  0  0  0  0  0  0  0
  149.5908  141.1261  155.0565 C   0  0  2  0  0  0  0  0  0  0  0  0
  149.7812  140.8516  153.6821 O   0  0  0  0  0  0  0  0  0  0  0  0
  150.7127  140.5116  155.9194 C   0  0  0  0  0  0  0  0  0  0  0  0
  151.0602  141.3488  157.0530 N   0  0  0  0  0  0  0  0  0  0  0  0
  150.7269  142.6399  157.2436 C   0  0  0  0  0  0  0  0  0  0  0  0
  151.1550  143.2204  158.3609 N   0  0  0  0  0  0  0  0  0  0  0  0
  151.8512  142.1867  158.9634 C   0  0  0  0  0  0  0  0  0  0  0  0
  152.5563  142.1459  160.1862 C   0  0  0  0  0  0  0  0  0  0  0  0
  153.2024  140.9632  160.6112 C   0  0  0  0  0  0  0  0  0  0  0  0
  153.9493  140.9641  161.9333 C   0  0  0  0  0  0  0  0  0  0  0  0
  153.1481  139.7957  159.8079 C   0  0  0  0  0  0  0  0  0  0  0  0
  153.8316  138.5125  160.2461 C   0  0  0  0  0  0  0  0  0  0  0  0
  152.4491  139.8194  158.5830 C   0  0  0  0  0  0  0  0  0  0  0  0
  151.8107  141.0024  158.1709 C   0  0  0  0  0  0  0  0  0  0  0  0
  146.7709  141.5773  153.6304 C   0  0  0  0  0  0  0  0  0  0  0  0
  145.8617  142.5432  154.4152 C   0  0  0  0  0  0  0  0  0  0  0  0
  144.4113  146.4067  156.1074 H   0  0  0  0  0  0  0  0  0  0  0  0
  143.0532  145.5703  156.8610 H   0  0  0  0  0  0  0  0  0  0  0  0
  143.5986  145.1036  155.2396 H   0  0  0  0  0  0  0  0  0  0  0  0
  145.0468  142.5405  157.3276 H   0  0  0  0  0  0  0  0  0  0  0  0
  143.5017  143.2522  157.7450 H   0  0  0  0  0  0  0  0  0  0  0  0
  142.7884  142.2055  155.8250 H   0  0  0  0  0  0  0  0  0  0  0  0
  143.4772  143.5747  154.9874 H   0  0  0  0  0  0  0  0  0  0  0  0
  145.5479  140.9582  156.6559 H   0  0  0  0  0  0  0  0  0  0  0  0
  144.1929  140.0600  156.0143 H   0  0  0  0  0  0  0  0  0  0  0  0
  146.3063  138.8657  155.5088 H   0  0  0  0  0  0  0  0  0  0  0  0
  145.4618  139.3258  154.0605 H   0  0  0  0  0  0  0  0  0  0  0  0
  147.7643  141.4884  156.1655 H   0  0  0  0  0  0  0  0  0  0  0  0
  148.2670  139.8337  156.1039 H   0  0  0  0  0  0  0  0  0  0  0  0
  149.6567  142.2114  155.1426 H   0  0  0  0  0  0  0  0  0  0  0  0
  149.0917  140.2718  153.3954 H   0  0  0  0  0  0  0  0  0  0  0  0
  150.4040  139.5364  156.2976 H   0  0  0  0  0  0  0  0  0  0  0  0
  151.6134  140.3453  155.3270 H   0  0  0  0  0  0  0  0  0  0  0  0
  150.1339  143.1836  156.5225 H   0  0  0  0  0  0  0  0  0  0  0  0
  152.5969  143.0352  160.7979 H   0  0  0  0  0  0  0  0  0  0  0  0
  155.0012  140.7242  161.7782 H   0  0  0  0  0  0  0  0  0  0  0  0
  153.5222  140.2273  162.6138 H   0  0  0  0  0  0  0  0  0  0  0  0
  153.8976  141.9388  162.4195 H   0  0  0  0  0  0  0  0  0  0  0  0
  153.7079  137.7225  159.5047 H   0  0  0  0  0  0  0  0  0  0  0  0
  153.4092  138.1579  161.1865 H   0  0  0  0  0  0  0  0  0  0  0  0
  154.9005  138.6757  160.3852 H   0  0  0  0  0  0  0  0  0  0  0  0
  152.4000  138.9377  157.9614 H   0  0  0  0  0  0  0  0  0  0  0  0
  147.6302  142.1131  153.2302 H   0  0  0  0  0  0  0  0  0  0  0  0
  146.2259  141.2203  152.7554 H   0  0  0  0  0  0  0  0  0  0  0  0
  145.5447  143.3512  153.7547 H   0  0  0  0  0  0  0  0  0  0  0  0
  146.4037  143.0073  155.2401 H   0  0  0  0  0  0  0  0  0  0  0  0
  144.1776  141.4783  154.1146 H   0  0  0  0  0  0  0  0  0  0  0  0
  1  2  1  0  0  0  0
  1 26  1  0  0  0  0
  1 27  1  0  0  0  0
  1 28  1  0  0  0  0
  2  3  1  0  0  0  0
  3  4  1  0  0  0  0
  3 29  1  0  0  0  0
  3 30  1  0  0  0  0
  4  5  1  0  0  0  0
  4 31  1  0  0  0  0
  4 32  1  0  0  0  0
  5 25  1  0  0  0  0
  5  6  1  0  0  0  0
  5 56  1  0  0  0  0
  6  7  1  0  0  0  0
  6 33  1  0  0  0  0
  6 34  1  0  0  0  0
  7  8  1  0  0  0  0
  7 35  1  0  0  0  0
  7 36  1  0  0  0  0
  8  9  1  0  0  0  0
  8 24  1  0  0  0  0
  9 10  1  0  0  0  0
  9 37  1  0  0  0  0
  9 38  1  0  0  0  0
 10 11  1  0  0  0  0
 10 12  1  0  0  0  0
 10 39  1  0  0  0  0
 11 40  1  0  0  0  0
 12 13  1  0  0  0  0
 12 41  1  0  0  0  0
 12 42  1  0  0  0  0
 13 23  1  0  0  0  0
 13 14  1  0  0  0  0
 14 15  2  0  0  0  0
 14 43  1  0  0  0  0
 15 16  1  0  0  0  0
 16 23  2  0  0  0  0
 16 17  1  0  0  0  0
 17 18  2  0  0  0  0
 17 44  1  0  0  0  0
 18 19  1  0  0  0  0
 18 20  1  0  0  0  0
 19 45  1  0  0  0  0
 19 46  1  0  0  0  0
 19 47  1  0  0  0  0
 20 21  1  0  0  0  0
 20 22  2  0  0  0  0
 21 48  1  0  0  0  0
 21 49  1  0  0  0  0
 21 50  1  0  0  0  0
 22 23  1  0  0  0  0
 22 51  1  0  0  0  0
 24 25  1  0  0  0  0
 24 52  1  0  0  0  0
 24 53  1  0  0  0  0
 25 54  1  0  0  0  0
 25 55  1  0  0  0  0
M  CHG  1   5   1
M  END
> <s_m_source_file>
AV-unprocessed.smi

> <i_m_source_file_index>
1007

> <i_lp_mmshare_version>
43012

> <i_f3d_flags>
0

> <s_epik_input>
W0NIM11PW0NIMl1bQ0gyXU4xW0NIMl1bQ0gyXU4oW0NIMl1bQ0gyXTEpW0NIMl1bQ0BIXShbT0hdKVtDSDJdbihbY0hdbjIpYyhjMjMpW2NIXWMoW0NIM10pYyhbY0hdMylbQ0gzXQ==

> <s_epik_cmdline>
J2VwaWtfcHl0aG9uJywgJy1waCcsICc3LjAnLCAnLXRuJywgJzgnLCAnLW1hJywgJzIwMCcsICctbWV0YWxfYmluZGluZycsICctaW1hZScsICc8aW5maWxlLm1hZT4nLCAnLW9tYWUnLCAnPG91dGZpbGUubWFlPic=

> <r_epik_Ionization_Penalty>
0.186009

> <r_epik_Ionization_Penalty_Charging>
0.0613973

> <r_epik_Ionization_Penalty_Neutral>
0.124612

> <r_epik_State_Penalty>
1.21927

> <r_epik_Charging_Adjusted_Penalty>
1.28067

> <i_epik_Tot_Q>
1

> <i_epik_Tot_abs_Q>
1

> <r_epik_Metal_State_Penalty>
1.13901

> <b_epik_Metal_Only>
0

> <s_lp_Force_Field>
OPLS_2005

> <r_lp_Energy>
39.6127

> <b_lp_Chiralities_Consistent>
1

> <s_lp_Variant>
AV-unprocessed.smi:1007-3

> <Gold.Version>
5.8.1

> <Gold.Id.Protein>
6NUR|6NUR_protein|mol2

> <Gold.PLP.Fitness>
54.4166

> <Gold.PLP.PLP>
-44.1349

> <Gold.PLP.part.hbond>
-3.7251

> <Gold.PLP.part.metal>
0.0000

> <Gold.PLP.part.buried>
-3.9187

> <Gold.PLP.part.nonpolar>
-36.6682

> <Gold.PLP.part.repulsive>
0.3522

> <Gold.PLP.ligand.clash>
0.0000

> <Gold.PLP.ligand.torsion>
1.6114

> <Gold.PLP.Chemscore.Hbond>
3.3840

> <Gold.PLP.Chemscore.CHOScore>
1.0000

> <Gold.PLP.Chemscore.Metal>
0.0000

> <Gold.Chemscore.Hbonds>
donor molecule, donor type, donor heavy atom, donor atom, acceptor molecule, acceptor atom, score
      L1  H     5    56       P1 10175  2.00
      P1  H  7989  7998       L1    11  0.40
      P1  H  8011  8017       L1    11  0.93
      L1  C    14    43       P1  8028  1.00

> <Gold.PLP.Chemscore.Internal.Correction>
0.3525

> <Gold.Rescore>
     Score         DG    S(hbond)    S(metal)    S(lipo)     H(rot)  DE(clash)    DE(int)     intcor
     14.57     -16.31       1.30        0.00     111.49       2.56       0.26       1.48       ----

> <Gold.Chemscore.Fitness>
14.5654

> <Gold.Chemscore.DG>
-16.3118

> <Gold.Chemscore.ZeroCoef>
-5.4800

> <Gold.Chemscore.Hbond>
1.2993

> <Gold.Chemscore.Metal>
0.0000

> <Gold.Chemscore.Lipo>
111.4885

> <Gold.Chemscore.Internal_Hbond>
0.0000

> <Gold.Chemscore.DEClash>
0.2614

> <Gold.Chemscore.DEInternal>
1.4849

> <Gold.Chemscore.Rot>
2.5594

> <Gold.Chemscore.Internal.Correction>
   9.000000E+99

> <Gold.Chemscore.Hbonds>
donor molecule, donor type, donor heavy atom, donor atom, acceptor molecule, acceptor atom, score
      L1  H     5    56       P1 10175  0.25
      L1  H    11    40       P1  7957  0.02
      P1  H  7989  7998       L1    11  0.18
      P1  H  8011  8017       L1    11  0.46

> <Gold.Chemscore.Hbond.Weighted>
-4.3398

> <Gold.Chemscore.Metal.Weighted>
-0.0000

> <Gold.Chemscore.Lipo.Weighted>
-13.0442

> <Gold.Chemscore.Internal_Hbond.Weighted>
0.0000

> <Gold.Chemscore.DEClash.Weighted>
0.2614

> <Gold.Chemscore.DEInternal.Weighted>
1.4849

> <Gold.Chemscore.Rot.Weighted>
6.5522

> <Gold.Chemscore.Internal.Correction.Weighted>
   9.000000E+99

> <Gold.Protein.RotatedTorsions>
[ 6907 6896 6895 6894 ] final   55.45 input  -60.11 | X-H torsion
[ 7974 7965 7964 7962 ] final  -54.87 input  175.53 | X-H torsion
[ 8008 7997 7996 7995 ] final -112.75 input   59.86 | X-H torsion
[ 10167 10162 10161 10158 ] final -172.96 input  -65.29 | X-H torsion
[ 10718 10713 10712 10709 ] final  -36.66 input   66.30 | X-H torsion
[ 10763 10752 10751 10750 ] final    5.36 input  -60.55 | X-H torsion
[ 11005 11000 10999 10996 ] final   61.82 input  -57.11 | X-H torsion

> <Gold.Protein.ActiveResidues>
 VAL166  LYS551  ARG553  GLY616  TRP617  ASP618  TYR619  PRO620  LYS621  CYS622 
 ASP623  PHE694  ASN695  SER759  ASP760  ASP761  ALA762  ILE779  LEU786  VAL792 
 PHE793  MET794  SER795  GLU796  ALA797  LYS798  CYS799  TRP800  GLU811  SER814 

> <Gold.Protein.RotatedAtoms>
  152.3540  134.6966  160.0227 H   0  0  0  0  0  0  0  0  0  0  0  0  # atno 6907 bound_to 6896
  151.7311  133.3312  159.3348 H   0  0  0  0  0  0  0  0  0  0  0  0  # atno 6908 bound_to 6896
  150.7559  134.6296  159.6224 H   0  0  0  0  0  0  0  0  0  0  0  0  # atno 6909 bound_to 6896
  145.8806  140.8147  142.9842 H   0  0  0  0  0  0  0  0  0  0  0  0  # atno 7974 bound_to 7965
  155.0100  140.0393  157.2395 H   0  0  0  0  0  0  0  0  0  0  0  0  # atno 8008 bound_to 7997
  154.7469  140.2759  155.6302 H   0  0  0  0  0  0  0  0  0  0  0  0  # atno 8009 bound_to 7997
  156.2876  140.2654  156.2211 H   0  0  0  0  0  0  0  0  0  0  0  0  # atno 8010 bound_to 7997
  139.5715  144.1631  152.1390 H   0  0  0  0  0  0  0  0  0  0  0  0  # atno 10167 bound_to 10162
  156.3243  130.4270  149.7931 H   0  0  0  0  0  0  0  0  0  0  0  0  # atno 10718 bound_to 10713
  153.2603  135.6922  153.7585 H   0  0  0  0  0  0  0  0  0  0  0  0  # atno 10763 bound_to 10752
  153.6647  135.3354  155.3138 H   0  0  0  0  0  0  0  0  0  0  0  0  # atno 10764 bound_to 10752
  154.8428  135.4485  154.1591 H   0  0  0  0  0  0  0  0  0  0  0  0  # atno 10765 bound_to 10752
  140.0135  134.6261  155.9745 H   0  0  0  0  0  0  0  0  0  0  0  0  # atno 11005 bound_to 11000
  144.6727  140.1378  143.7439 LP  0  0  0  0  0  0  0  0  0  0  0  0  # atno 17320 bound_to 7965
  145.9028  139.2440  143.1483 LP  0  0  0  0  0  0  0  0  0  0  0  0  # atno 17321 bound_to 7965
  140.1165  144.5411  150.6891 LP  0  0  0  0  0  0  0  0  0  0  0  0  # atno 17342 bound_to 10162
  140.6999  143.2428  151.4894 LP  0  0  0  0  0  0  0  0  0  0  0  0  # atno 17343 bound_to 10162
  156.5228  130.8222  151.3209 LP  0  0  0  0  0  0  0  0  0  0  0  0  # atno 17370 bound_to 10713
  157.7418  130.9877  150.2470 LP  0  0  0  0  0  0  0  0  0  0  0  0  # atno 17371 bound_to 10713
  141.1727  133.6538  156.4711 LP  0  0  0  0  0  0  0  0  0  0  0  0  # atno 17394 bound_to 11000
  140.4513  134.6926  157.5041 LP  0  0  0  0  0  0  0  0  0  0  0  0  # atno 17395 bound_to 11000

$$$$
