AV-unprocessed.smi:290|AV-procd|sdf|2234|dock4
  -GOLD-   2262022103D 1   1.00000     0.00000
 Structure written by MMmdl.
 59 62  0  0  0  0  0  0  0  0  2 V2000
  151.7844  140.3916  157.7605 C   0  0  0  0  0  0  0  0  0  0  0  0
  151.9145  140.2000  156.2416 C   0  0  1  0  0  0  0  0  0  0  0  0
  153.0842  139.4246  155.9956 O   0  0  0  0  0  0  0  0  0  0  0  0
  152.9035  138.7060  154.7889 C   0  0  0  0  0  0  0  0  0  0  0  0
  151.4586  138.2450  154.9014 C   0  0  0  0  0  0  0  0  0  0  0  0
  150.7559  139.4505  155.5231 C   0  0  2  0  0  0  0  0  0  0  0  0
  150.2999  140.2782  154.4662 O   0  0  0  0  0  0  0  0  0  0  0  0
  149.5331  139.0696  156.3988 C   0  0  0  0  0  0  0  0  0  0  0  0
  148.6046  138.1657  155.7357 N   0  0  0  0  0  0  0  0  0  0  0  0
  148.2269  136.9145  156.1634 C   0  0  0  0  0  0  0  0  0  0  0  0
  147.3811  136.2960  155.3870 N   0  0  0  0  0  0  0  0  0  0  0  0
  147.1397  137.1901  154.3484 C   0  0  0  0  0  0  0  0  0  0  0  0
  146.3350  137.1711  153.1682 C   0  0  0  0  0  0  0  0  0  0  0  0
  145.5264  136.1504  152.7747 N   0  0  0  0  0  0  0  0  0  0  0  0
  144.1253  136.4053  152.4825 C   0  0  0  0  0  0  0  0  0  0  0  0
  143.7856  135.4633  151.3352 C   0  0  0  0  0  0  0  0  0  0  0  0
  144.7205  134.2605  151.5418 C   0  0  1  0  0  0  0  0  0  0  0  0
  144.9320  133.5004  150.2716 N   0  3  1  0  0  0  0  0  0  0  0  0
  145.8939  132.3759  150.3736 C   0  0  0  0  0  0  0  0  0  0  0  0
  143.6600  133.0659  149.6324 C   0  0  0  0  0  0  0  0  0  0  0  0
  143.8787  132.6043  148.1822 C   0  0  0  0  0  0  0  0  0  0  0  0
  142.6958  132.0158  147.6841 O   0  0  0  0  0  0  0  0  0  0  0  0
  145.9920  134.9224  152.1355 C   0  0  2  0  0  0  0  0  0  0  0  0
  146.7232  134.0335  153.1653 C   0  0  0  0  0  0  0  0  0  0  0  0
  146.3811  138.2700  152.3699 N   0  0  0  0  0  0  0  0  0  0  0  0
  147.1457  139.3162  152.6924 C   0  0  0  0  0  0  0  0  0  0  0  0
  147.9380  139.4720  153.7528 N   0  0  0  0  0  0  0  0  0  0  0  0
  147.9064  138.3737  154.5590 C   0  0  0  0  0  0  0  0  0  0  0  0
  144.2802  133.5979  152.2894 H   0  0  0  0  0  0  0  0  0  0  0  0
  146.6561  135.1959  151.3167 H   0  0  0  0  0  0  0  0  0  0  0  0
  150.9075  140.9881  158.0126 H   0  0  0  0  0  0  0  0  0  0  0  0
  152.6564  140.9121  158.1570 H   0  0  0  0  0  0  0  0  0  0  0  0
  151.7115  139.4368  158.2813 H   0  0  0  0  0  0  0  0  0  0  0  0
  152.0718  141.1796  155.7857 H   0  0  0  0  0  0  0  0  0  0  0  0
  153.0412  139.3715  153.9352 H   0  0  0  0  0  0  0  0  0  0  0  0
  153.6065  137.8776  154.7029 H   0  0  0  0  0  0  0  0  0  0  0  0
  151.0339  137.9263  153.9485 H   0  0  0  0  0  0  0  0  0  0  0  0
  151.4184  137.3946  155.5833 H   0  0  0  0  0  0  0  0  0  0  0  0
  150.0438  141.1133  154.8269 H   0  0  0  0  0  0  0  0  0  0  0  0
  149.8603  138.5838  157.3183 H   0  0  0  0  0  0  0  0  0  0  0  0
  148.9848  139.9632  156.6997 H   0  0  0  0  0  0  0  0  0  0  0  0
  148.6051  136.4687  157.0721 H   0  0  0  0  0  0  0  0  0  0  0  0
  143.5328  136.1701  153.3672 H   0  0  0  0  0  0  0  0  0  0  0  0
  143.9323  137.4428  152.2059 H   0  0  0  0  0  0  0  0  0  0  0  0
  142.7274  135.2030  151.3304 H   0  0  0  0  0  0  0  0  0  0  0  0
  144.0135  135.9551  150.3880 H   0  0  0  0  0  0  0  0  0  0  0  0
  145.5758  131.6581  151.1308 H   0  0  0  0  0  0  0  0  0  0  0  0
  146.8952  132.7280  150.6186 H   0  0  0  0  0  0  0  0  0  0  0  0
  145.9791  131.8426  149.4272 H   0  0  0  0  0  0  0  0  0  0  0  0
  143.2130  132.2629  150.2208 H   0  0  0  0  0  0  0  0  0  0  0  0
  142.9182  133.8633  149.6256 H   0  0  0  0  0  0  0  0  0  0  0  0
  144.1818  133.4248  147.5323 H   0  0  0  0  0  0  0  0  0  0  0  0
  144.6736  131.8590  148.1458 H   0  0  0  0  0  0  0  0  0  0  0  0
  142.3998  132.5161  146.9383 H   0  0  0  0  0  0  0  0  0  0  0  0
  147.1060  133.1141  152.7281 H   0  0  0  0  0  0  0  0  0  0  0  0
  146.0573  133.7535  153.9821 H   0  0  0  0  0  0  0  0  0  0  0  0
  147.5750  134.5474  153.6095 H   0  0  0  0  0  0  0  0  0  0  0  0
  147.1185  140.1468  152.0023 H   0  0  0  0  0  0  0  0  0  0  0  0
  145.3448  134.1647  149.6319 H   0  0  0  0  0  0  0  0  0  0  0  0
  1  2  1  0  0  0  0
  1 31  1  0  0  0  0
  1 32  1  0  0  0  0
  1 33  1  0  0  0  0
  2  6  1  0  0  0  0
  2  3  1  0  0  0  0
  2 34  1  0  0  0  0
  3  4  1  0  0  0  0
  4  5  1  0  0  0  0
  4 35  1  0  0  0  0
  4 36  1  0  0  0  0
  5  6  1  0  0  0  0
  5 37  1  0  0  0  0
  5 38  1  0  0  0  0
  6  7  1  0  0  0  0
  6  8  1  0  0  0  0
  7 39  1  0  0  0  0
  8  9  1  0  0  0  0
  8 40  1  0  0  0  0
  8 41  1  0  0  0  0
  9 28  1  0  0  0  0
  9 10  1  0  0  0  0
 10 11  2  0  0  0  0
 10 42  1  0  0  0  0
 11 12  1  0  0  0  0
 12 28  2  0  0  0  0
 12 13  1  0  0  0  0
 13 14  1  0  0  0  0
 13 25  2  0  0  0  0
 14 23  1  0  0  0  0
 14 15  1  0  0  0  0
 15 16  1  0  0  0  0
 15 43  1  0  0  0  0
 15 44  1  0  0  0  0
 16 17  1  0  0  0  0
 16 45  1  0  0  0  0
 16 46  1  0  0  0  0
 17 29  1  0  0  0  0
 17 18  1  0  0  0  0
 17 23  1  0  0  0  0
 18 19  1  0  0  0  0
 18 20  1  0  0  0  0
 18 59  1  0  0  0  0
 19 47  1  0  0  0  0
 19 48  1  0  0  0  0
 19 49  1  0  0  0  0
 20 21  1  0  0  0  0
 20 50  1  0  0  0  0
 20 51  1  0  0  0  0
 21 22  1  0  0  0  0
 21 52  1  0  0  0  0
 21 53  1  0  0  0  0
 22 54  1  0  0  0  0
 23 30  1  0  0  0  0
 23 24  1  0  0  0  0
 24 55  1  0  0  0  0
 24 56  1  0  0  0  0
 24 57  1  0  0  0  0
 25 26  1  0  0  0  0
 26 27  2  0  0  0  0
 26 58  1  0  0  0  0
 27 28  1  0  0  0  0
M  CHG  1  18   1
M  END
> <s_m_source_file>
AV-unprocessed.smi

> <i_m_source_file_index>
290

> <i_lp_mmshare_version>
43012

> <i_f3d_flags>
0

> <s_epik_input>
W0NIMl0xW0NIMl1PW0NAQEhdKFtDSDNdKVtDQEBdMShbT0hdKVtDSDJdbihbY0hdbjIpYyhjMjMpbltjSF1uYzNONFtDSDJdW0NIMl1bQ0BIXShbQ0BIXTRbQ0gzXSlOKFtDSDNdKVtDSDJdW0NIMl1bT0hd

> <s_epik_cmdline>
J2VwaWtfcHl0aG9uJywgJy1waCcsICc3LjAnLCAnLXRuJywgJzgnLCAnLW1hJywgJzIwMCcsICctbWV0YWxfYmluZGluZycsICctaW1hZScsICc8aW5maWxlLm1hZT4nLCAnLW9tYWUnLCAnPG91dGZpbGUubWFlPic=

> <r_lp_tautomer_probability>
1

> <r_epik_Ionization_Penalty>
0.0036983

> <r_epik_Ionization_Penalty_Charging>
0.0032725

> <r_epik_Ionization_Penalty_Neutral>
0.000425798

> <r_epik_State_Penalty>
-0

> <r_epik_Charging_Adjusted_Penalty>
0.0032725

> <i_epik_Tot_Q>
1

> <i_epik_Tot_abs_Q>
1

> <r_epik_Metal_State_Penalty>
-0

> <b_epik_Metal_Only>
0

> <s_lp_Force_Field>
OPLS_2005

> <r_lp_Energy>
60.3603

> <b_lp_Chiralities_Consistent>
1

> <s_lp_Variant>
AV-unprocessed.smi:290-20

> <Gold.Version>
5.8.1

> <Gold.Id.Protein>
6NUR|6NUR_protein|mol2

> <Gold.PLP.Fitness>
50.8071

> <Gold.PLP.PLP>
-41.7436

> <Gold.PLP.part.hbond>
-5.0526

> <Gold.PLP.part.metal>
0.0000

> <Gold.PLP.part.buried>
-2.1510

> <Gold.PLP.part.nonpolar>
-33.8286

> <Gold.PLP.part.repulsive>
0.6005

> <Gold.PLP.ligand.clash>
0.0000

> <Gold.PLP.ligand.torsion>
1.3860

> <Gold.PLP.Chemscore.Hbond>
3.6349

> <Gold.PLP.Chemscore.CHOScore>
0.1694

> <Gold.PLP.Chemscore.Metal>
0.0000

> <Gold.Chemscore.Hbonds>
donor molecule, donor type, donor heavy atom, donor atom, acceptor molecule, acceptor atom, score
      L1  H    18    59       P1  7921  0.47
      L1  H    22    54       P1 10195  1.00
      P1  H  7989  7998       L1     7  0.85
      P1  H  7997  8009       L1     3  0.96
      P1  H 10785 10796       L1    22  0.17
      L1  C    26    58       P1  7957  0.32

> <Gold.PLP.Chemscore.Internal.Correction>
0.4225

> <Gold.Rescore>
     Score         DG    S(hbond)    S(metal)    S(lipo)     H(rot)  DE(clash)    DE(int)     intcor
     12.28     -17.29       2.65        0.00      98.66       3.35       1.40       3.60       ----

> <Gold.Chemscore.Fitness>
12.2812

> <Gold.Chemscore.DG>
-17.2892

> <Gold.Chemscore.ZeroCoef>
-5.4800

> <Gold.Chemscore.Hbond>
2.6486

> <Gold.Chemscore.Metal>
0.0000

> <Gold.Chemscore.Lipo>
98.6629

> <Gold.Chemscore.Internal_Hbond>
0.0000

> <Gold.Chemscore.DEClash>
1.4046

> <Gold.Chemscore.DEInternal>
3.6033

> <Gold.Chemscore.Rot>
3.3518

> <Gold.Chemscore.Internal.Correction>
   9.000000E+99

> <Gold.Chemscore.Hbonds>
donor molecule, donor type, donor heavy atom, donor atom, acceptor molecule, acceptor atom, score
      L1  H    18    59       P1  7921  0.42
      L1  H    22    54       P1 10195  1.00
      P1  H  7989  7998       L1     7  0.12
      P1  H  7997  8009       L1     3  0.59
      P1  H 10785 10796       L1    22  0.01

> <Gold.Chemscore.Hbond.Weighted>
-8.8462

> <Gold.Chemscore.Metal.Weighted>
-0.0000

> <Gold.Chemscore.Lipo.Weighted>
-11.5436

> <Gold.Chemscore.Internal_Hbond.Weighted>
0.0000

> <Gold.Chemscore.DEClash.Weighted>
1.4046

> <Gold.Chemscore.DEInternal.Weighted>
3.6033

> <Gold.Chemscore.Rot.Weighted>
8.5806

> <Gold.Chemscore.Internal.Correction.Weighted>
   9.000000E+99

> <Gold.Protein.RotatedTorsions>
[ 6907 6896 6895 6894 ] final -153.58 input  -60.11 | X-H torsion
[ 7974 7965 7964 7962 ] final   12.17 input  175.53 | X-H torsion
[ 8008 7997 7996 7995 ] final -136.38 input   59.86 | X-H torsion
[ 10167 10162 10161 10158 ] final   35.73 input  -65.29 | X-H torsion
[ 10718 10713 10712 10709 ] final   59.62 input   66.30 | X-H torsion
[ 10763 10752 10751 10750 ] final   63.72 input  -60.55 | X-H torsion
[ 11005 11000 10999 10996 ] final  -37.76 input  -57.11 | X-H torsion

> <Gold.Protein.ActiveResidues>
 VAL166  LYS551  ARG553  GLY616  TRP617  ASP618  TYR619  PRO620  LYS621  CYS622 
 ASP623  PHE694  ASN695  SER759  ASP760  ASP761  ALA762  ILE779  LEU786  VAL792 
 PHE793  MET794  SER795  GLU796  ALA797  LYS798  CYS799  TRP800  GLU811  SER814 

> <Gold.Protein.RotatedAtoms>
  151.2447  133.4381  159.2608 H   0  0  0  0  0  0  0  0  0  0  0  0  # atno 6907 bound_to 6896
  151.0673  134.9776  159.8301 H   0  0  0  0  0  0  0  0  0  0  0  0  # atno 6908 bound_to 6896
  152.5407  134.2394  159.8909 H   0  0  0  0  0  0  0  0  0  0  0  0  # atno 6909 bound_to 6896
  146.2356  139.9376  142.8487 H   0  0  0  0  0  0  0  0  0  0  0  0  # atno 7974 bound_to 7965
  155.3944  140.0502  157.3039 H   0  0  0  0  0  0  0  0  0  0  0  0  # atno 8008 bound_to 7997
  154.5021  140.2160  155.9287 H   0  0  0  0  0  0  0  0  0  0  0  0  # atno 8009 bound_to 7997
  156.1480  140.3141  155.8607 H   0  0  0  0  0  0  0  0  0  0  0  0  # atno 8010 bound_to 7997
  140.4194  144.1481  150.6146 H   0  0  0  0  0  0  0  0  0  0  0  0  # atno 10167 bound_to 10162
  157.5689  130.8892  149.9234 H   0  0  0  0  0  0  0  0  0  0  0  0  # atno 10718 bound_to 10713
  153.0028  135.5419  154.6397 H   0  0  0  0  0  0  0  0  0  0  0  0  # atno 10763 bound_to 10752
  154.5655  135.2837  155.0880 H   0  0  0  0  0  0  0  0  0  0  0  0  # atno 10764 bound_to 10752
  154.2066  135.6474  153.5155 H   0  0  0  0  0  0  0  0  0  0  0  0  # atno 10765 bound_to 10752
  140.9976  133.6972  156.1963 H   0  0  0  0  0  0  0  0  0  0  0  0  # atno 11005 bound_to 11000
  145.1984  140.9843  143.4170 LP  0  0  0  0  0  0  0  0  0  0  0  0  # atno 17320 bound_to 7965
  144.9795  139.3797  143.6269 LP  0  0  0  0  0  0  0  0  0  0  0  0  # atno 17321 bound_to 7965
  140.4550  143.2471  151.9296 LP  0  0  0  0  0  0  0  0  0  0  0  0  # atno 17342 bound_to 10162
  139.4782  144.5524  151.8365 LP  0  0  0  0  0  0  0  0  0  0  0  0  # atno 17343 bound_to 10162
  156.0736  130.3682  150.0725 LP  0  0  0  0  0  0  0  0  0  0  0  0  # atno 17370 bound_to 10713
  156.8880  130.9579  151.3592 LP  0  0  0  0  0  0  0  0  0  0  0  0  # atno 17371 bound_to 10713
  140.6941  134.4634  157.5588 LP  0  0  0  0  0  0  0  0  0  0  0  0  # atno 17394 bound_to 11000
  139.9022  134.8529  156.1848 LP  0  0  0  0  0  0  0  0  0  0  0  0  # atno 17395 bound_to 11000

$$$$
