AV-unprocessed.smi:1224|AV-procd|sdf|5132|dock1
  -GOLD-   22720 4193D 1   1.00000     0.00000
 Structure written by MMmdl.
 43 45  0  0  0  0  0  0  0  0  1 V2000
  153.0732  143.2649  160.2905 C   0  0  0  0  0  0  0  0  0  0  0  0
  152.5603  142.4148  159.1414 C   0  0  0  0  0  0  0  0  0  0  0  0
  152.9860  141.0711  159.0372 C   0  0  0  0  0  0  0  0  0  0  0  0
  152.5319  140.2471  157.9841 C   0  0  0  0  0  0  0  0  0  0  0  0
  152.8139  138.9234  157.6924 N   0  0  0  0  0  0  0  0  0  0  0  0
  152.0901  138.7314  156.5931 C   0  0  0  0  0  0  0  0  0  0  0  0
  151.3726  139.7762  156.1373 N   0  0  0  0  0  0  0  0  0  0  0  0
  150.5153  139.8090  154.9657 C   0  0  0  0  0  0  0  0  0  0  0  0
  150.2769  138.4083  154.3705 C   0  0  2  0  0  0  0  0  0  0  0  0
  149.5424  138.5396  153.1689 O   0  0  0  0  0  0  0  0  0  0  0  0
  149.4798  137.5100  155.3301 C   0  0  0  0  0  0  0  0  0  0  0  0
  149.2746  136.1808  154.7624 N   0  0  0  0  0  0  0  0  0  0  0  0
  150.0832  135.1498  155.4024 C   0  0  0  0  0  0  0  0  0  0  0  0
  149.8980  133.8186  154.7547 C   0  0  0  0  0  0  0  0  0  0  0  0
  150.4887  132.6291  155.0986 C   0  0  0  0  0  0  0  0  0  0  0  0
  150.0847  131.5416  154.2696 C   0  0  0  0  0  0  0  0  0  0  0  0
  149.1899  131.9157  153.3026 C   0  0  0  0  0  0  0  0  0  0  0  0
  148.8250  133.6171  153.3926 S   0  0  0  0  0  0  0  0  0  0  0  0
  151.6335  140.8088  157.0306 C   0  0  0  0  0  0  0  0  0  0  0  0
  151.2023  142.1438  157.1235 C   0  0  0  0  0  0  0  0  0  0  0  0
  151.6654  142.9531  158.1819 C   0  0  0  0  0  0  0  0  0  0  0  0
  151.1924  144.3929  158.2748 C   0  0  0  0  0  0  0  0  0  0  0  0
  153.7531  142.7016  160.9302 H   0  0  0  0  0  0  0  0  0  0  0  0
  152.2446  143.6131  160.9074 H   0  0  0  0  0  0  0  0  0  0  0  0
  153.6135  144.1329  159.9123 H   0  0  0  0  0  0  0  0  0  0  0  0
  153.6668  140.6601  159.7681 H   0  0  0  0  0  0  0  0  0  0  0  0
  152.0784  137.7754  156.0901 H   0  0  0  0  0  0  0  0  0  0  0  0
  149.5664  140.2622  155.2552 H   0  0  0  0  0  0  0  0  0  0  0  0
  150.9624  140.4703  154.2218 H   0  0  0  0  0  0  0  0  0  0  0  0
  151.2414  137.9496  154.1463 H   0  0  0  0  0  0  0  0  0  0  0  0
  149.6661  137.7535  152.6587 H   0  0  0  0  0  0  0  0  0  0  0  0
  150.0358  137.4097  156.2632 H   0  0  0  0  0  0  0  0  0  0  0  0
  148.5271  137.9749  155.5883 H   0  0  0  0  0  0  0  0  0  0  0  0
  149.4888  136.2066  153.7705 H   0  0  0  0  0  0  0  0  0  0  0  0
  151.1367  135.4303  155.3700 H   0  0  0  0  0  0  0  0  0  0  0  0
  149.8184  135.0724  156.4575 H   0  0  0  0  0  0  0  0  0  0  0  0
  151.1892  132.5033  155.9108 H   0  0  0  0  0  0  0  0  0  0  0  0
  150.4582  130.5381  154.4101 H   0  0  0  0  0  0  0  0  0  0  0  0
  148.7249  131.2994  152.5471 H   0  0  0  0  0  0  0  0  0  0  0  0
  150.5195  142.5397  156.3863 H   0  0  0  0  0  0  0  0  0  0  0  0
  150.5264  144.6469  157.4497 H   0  0  0  0  0  0  0  0  0  0  0  0
  152.0402  145.0775  158.2429 H   0  0  0  0  0  0  0  0  0  0  0  0
  150.6494  144.5560  159.2060 H   0  0  0  0  0  0  0  0  0  0  0  0
  1  2  1  0  0  0  0
  1 23  1  0  0  0  0
  1 24  1  0  0  0  0
  1 25  1  0  0  0  0
  2 21  1  0  0  0  0
  2  3  2  0  0  0  0
  3  4  1  0  0  0  0
  3 26  1  0  0  0  0
  4 19  2  0  0  0  0
  4  5  1  0  0  0  0
  5  6  2  0  0  0  0
  6  7  1  0  0  0  0
  6 27  1  0  0  0  0
  7  8  1  0  0  0  0
  7 19  1  0  0  0  0
  8  9  1  0  0  0  0
  8 28  1  0  0  0  0
  8 29  1  0  0  0  0
  9 10  1  0  0  0  0
  9 11  1  0  0  0  0
  9 30  1  0  0  0  0
 10 31  1  0  0  0  0
 11 12  1  0  0  0  0
 11 32  1  0  0  0  0
 11 33  1  0  0  0  0
 12 13  1  0  0  0  0
 12 34  1  0  0  0  0
 13 14  1  0  0  0  0
 13 35  1  0  0  0  0
 13 36  1  0  0  0  0
 14 18  1  0  0  0  0
 14 15  2  0  0  0  0
 15 16  1  0  0  0  0
 15 37  1  0  0  0  0
 16 17  2  0  0  0  0
 16 38  1  0  0  0  0
 17 18  1  0  0  0  0
 17 39  1  0  0  0  0
 19 20  1  0  0  0  0
 20 21  2  0  0  0  0
 20 40  1  0  0  0  0
 21 22  1  0  0  0  0
 22 41  1  0  0  0  0
 22 42  1  0  0  0  0
 22 43  1  0  0  0  0
M  END
> <s_m_source_file>
AV-unprocessed.smi

> <i_m_source_file_index>
1224

> <i_lp_mmshare_version>
43012

> <i_f3d_flags>
0

> <s_epik_input>
W0NIM11jKFtjSF0xKWMoW0NIM10pW2NIXWMoYzEyKW4oW2NIXW4yKVtDSDJdW0NASF0oW09IXSlbQ0gyXVtOSF1bQ0gyXWMzW2NIXVtjSF1bY0hdczM=

> <s_epik_cmdline>
J2VwaWtfcHl0aG9uJywgJy1waCcsICc3LjAnLCAnLXRuJywgJzgnLCAnLW1hJywgJzIwMCcsICctbWV0YWxfYmluZGluZycsICctaW1hZScsICc8aW5maWxlLm1hZT4nLCAnLW9tYWUnLCAnPG91dGZpbGUubWFlPic=

> <r_epik_Ionization_Penalty>
1.55566

> <r_epik_Ionization_Penalty_Charging>
0

> <r_epik_Ionization_Penalty_Neutral>
1.55566

> <r_epik_State_Penalty>
1.63945

> <r_epik_Charging_Adjusted_Penalty>
1.63945

> <i_epik_Tot_Q>
0

> <i_epik_Tot_abs_Q>
0

> <r_epik_Metal_State_Penalty>
1.52326

> <b_epik_Metal_Only>
0

> <s_lp_Force_Field>
OPLS_2005

> <r_lp_Energy>
13.7285

> <b_lp_Chiralities_Consistent>
1

> <s_lp_Variant>
AV-unprocessed.smi:1224-5

> <Gold.Version>
5.8.1

> <Gold.Id.Protein>
6NUR|6NUR_protein|mol2

> <Gold.PLP.Fitness>
54.1339

> <Gold.PLP.PLP>
-45.8264

> <Gold.PLP.part.hbond>
-3.1704

> <Gold.PLP.part.metal>
0.0000

> <Gold.PLP.part.buried>
-2.7841

> <Gold.PLP.part.nonpolar>
-38.5766

> <Gold.PLP.part.repulsive>
0.0000

> <Gold.PLP.ligand.clash>
0.0000

> <Gold.PLP.ligand.torsion>
0.4544

> <Gold.PLP.Chemscore.Hbond>
2.0000

> <Gold.PLP.Chemscore.CHOScore>
1.0000

> <Gold.PLP.Chemscore.Metal>
0.0000

> <Gold.Chemscore.Hbonds>
donor molecule, donor type, donor heavy atom, donor atom, acceptor molecule, acceptor atom, score
      L1  H    10    31       P1  7948  1.00
      L1  H    12    34       P1  7948  1.00
      L1  C    17    39       P1 10747  1.00

> <Gold.PLP.Chemscore.Internal.Correction>
0.2162

> <Gold.Rescore>
     Score         DG    S(hbond)    S(metal)    S(lipo)     H(rot)  DE(clash)    DE(int)     intcor
     20.12     -20.61       1.98        0.00     123.48       2.32       0.03       0.46       ----

> <Gold.Chemscore.Fitness>
20.1182

> <Gold.Chemscore.DG>
-20.6098

> <Gold.Chemscore.ZeroCoef>
-5.4800

> <Gold.Chemscore.Hbond>
1.9807

> <Gold.Chemscore.Metal>
0.0000

> <Gold.Chemscore.Lipo>
123.4771

> <Gold.Chemscore.Internal_Hbond>
0.0000

> <Gold.Chemscore.DEClash>
0.0323

> <Gold.Chemscore.DEInternal>
0.4593

> <Gold.Chemscore.Rot>
2.3173

> <Gold.Chemscore.Internal.Correction>
   9.000000E+99

> <Gold.Chemscore.Hbonds>
donor molecule, donor type, donor heavy atom, donor atom, acceptor molecule, acceptor atom, score
      L1  H    10    31       P1  7948  0.48
      L1  H    12    34       P1  7948  0.63

> <Gold.Chemscore.Hbond.Weighted>
-6.6154

> <Gold.Chemscore.Metal.Weighted>
-0.0000

> <Gold.Chemscore.Lipo.Weighted>
-14.4468

> <Gold.Chemscore.Internal_Hbond.Weighted>
0.0000

> <Gold.Chemscore.DEClash.Weighted>
0.0323

> <Gold.Chemscore.DEInternal.Weighted>
0.4593

> <Gold.Chemscore.Rot.Weighted>
5.9324

> <Gold.Chemscore.Internal.Correction.Weighted>
   9.000000E+99

> <Gold.Protein.RotatedTorsions>
[ 6907 6896 6895 6894 ] final -177.44 input  -60.11 | X-H torsion
[ 7974 7965 7964 7962 ] final -107.36 input  175.53 | X-H torsion
[ 8008 7997 7996 7995 ] final -115.99 input   59.86 | X-H torsion
[ 10167 10162 10161 10158 ] final   82.28 input  -65.29 | X-H torsion
[ 10718 10713 10712 10709 ] final  157.70 input   66.30 | X-H torsion
[ 10763 10752 10751 10750 ] final    0.83 input  -60.55 | X-H torsion
[ 11005 11000 10999 10996 ] final  -91.66 input  -57.11 | X-H torsion

> <Gold.Protein.ActiveResidues>
 VAL166  LYS551  ARG553  GLY616  TRP617  ASP618  TYR619  PRO620  LYS621  CYS622 
 ASP623  PHE694  ASN695  SER759  ASP760  ASP761  ALA762  ILE779  LEU786  VAL792 
 PHE793  MET794  SER795  GLU796  ALA797  LYS798  CYS799  TRP800  GLU811  SER814 

> <Gold.Protein.RotatedAtoms>
  151.6211  133.3339  159.3087 H   0  0  0  0  0  0  0  0  0  0  0  0  # atno 6907 bound_to 6896
  150.8105  134.7261  159.6695 H   0  0  0  0  0  0  0  0  0  0  0  0  # atno 6908 bound_to 6896
  152.4202  134.5974  160.0042 H   0  0  0  0  0  0  0  0  0  0  0  0  # atno 6909 bound_to 6896
  145.2063  140.9078  143.3340 H   0  0  0  0  0  0  0  0  0  0  0  0  # atno 7974 bound_to 7965
  155.0607  140.0393  157.2575 H   0  0  0  0  0  0  0  0  0  0  0  0  # atno 8008 bound_to 7997
  154.7062  140.2683  155.6648 H   0  0  0  0  0  0  0  0  0  0  0  0  # atno 8009 bound_to 7997
  156.2775  140.2731  156.1689 H   0  0  0  0  0  0  0  0  0  0  0  0  # atno 8010 bound_to 7997
  139.9304  144.6155  150.8350 H   0  0  0  0  0  0  0  0  0  0  0  0  # atno 10167 bound_to 10162
  157.1879  131.0648  151.2095 H   0  0  0  0  0  0  0  0  0  0  0  0  # atno 10718 bound_to 10713
  153.3157  135.6966  153.7075 H   0  0  0  0  0  0  0  0  0  0  0  0  # atno 10763 bound_to 10752
  153.5935  135.3475  155.2920 H   0  0  0  0  0  0  0  0  0  0  0  0  # atno 10764 bound_to 10752
  154.8586  135.4323  154.2308 H   0  0  0  0  0  0  0  0  0  0  0  0  # atno 10765 bound_to 10752
  141.1540  133.7770  156.9910 H   0  0  0  0  0  0  0  0  0  0  0  0  # atno 11005 bound_to 11000
  144.9898  139.3700  143.6220 LP  0  0  0  0  0  0  0  0  0  0  0  0  # atno 17320 bound_to 7965
  146.3407  139.9076  142.8785 LP  0  0  0  0  0  0  0  0  0  0  0  0  # atno 17321 bound_to 7965
  140.7639  143.3234  151.2570 LP  0  0  0  0  0  0  0  0  0  0  0  0  # atno 17342 bound_to 10162
  139.6787  143.9892  152.2796 LP  0  0  0  0  0  0  0  0  0  0  0  0  # atno 17343 bound_to 10162
  157.3889  130.7271  149.6683 LP  0  0  0  0  0  0  0  0  0  0  0  0  # atno 17370 bound_to 10713
  155.9715  130.4152  150.4169 LP  0  0  0  0  0  0  0  0  0  0  0  0  # atno 17371 bound_to 10713
  140.1003  134.9539  157.1912 LP  0  0  0  0  0  0  0  0  0  0  0  0  # atno 17394 bound_to 11000
  140.3328  134.2791  155.7225 LP  0  0  0  0  0  0  0  0  0  0  0  0  # atno 17395 bound_to 11000

$$$$
