AV-unprocessed.smi:109|AV-procd|sdf|1031|dock9
  -GOLD-   2262018 33D 1   1.00000     0.00000
 Structure written by MMmdl.
 58 61  0  0  0  0  0  0  0  0  1 V2000
  151.9969  139.9434  154.2328 O   0  0  0  0  0  0  0  0  0  0  0  0
  151.0591  139.9655  155.2871 C   0  0  0  0  0  0  0  0  0  0  0  0
  151.3769  141.1258  156.2460 C   0  0  0  0  0  0  0  0  0  0  0  0
  150.2587  141.4217  157.2757 C   0  0  2  0  0  0  0  0  0  0  0  0
  149.0932  141.9761  156.5829 N   0  0  0  0  0  0  0  0  0  0  0  0
  148.2661  141.2125  155.8335 C   0  0  0  0  0  0  0  0  0  0  0  0
  148.3082  141.2394  154.4760 N   0  0  0  0  0  0  0  0  0  0  0  0
  147.4752  140.4747  153.7648 C   0  0  0  0  0  0  0  0  0  0  0  0
  146.5405  139.6291  154.2032 N   0  0  0  0  0  0  0  0  0  0  0  0
  146.4923  139.5974  155.5665 C   0  0  0  0  0  0  0  0  0  0  0  0
  147.3167  140.3539  156.4454 C   0  0  0  0  0  0  0  0  0  0  0  0
  146.9880  140.0660  157.7634 N   0  0  0  0  0  0  0  0  0  0  0  0
  146.0260  139.1881  157.6642 C   0  0  0  0  0  0  0  0  0  0  0  0
  145.6624  138.8519  156.3790 N   0  0  0  0  0  0  0  0  0  0  0  0
  144.6039  137.8857  155.9551 C   0  0  2  0  0  0  0  0  0  0  0  0
  144.8300  136.6786  156.6155 O   0  0  0  0  0  0  0  0  0  0  0  0
  144.6221  135.5948  155.7177 C   0  0  2  0  0  0  0  0  0  0  0  0
  145.4028  134.3628  156.2006 C   0  0  0  0  0  0  0  0  0  0  0  0
  145.1778  133.2754  155.3290 O   0  0  0  0  0  0  0  0  0  0  0  0
  145.1329  136.1627  154.3924 C   0  0  1  0  0  0  0  0  0  0  0  0
  144.6443  135.4564  153.2671 O   0  0  0  0  0  0  0  0  0  0  0  0
  144.6751  137.6192  154.4421 C   0  0  1  0  0  0  0  0  0  0  0  0
  143.4070  137.8036  153.8394 O   0  0  0  0  0  0  0  0  0  0  0  0
  150.6973  142.3932  158.4095 C   0  0  0  0  0  0  0  0  0  0  0  0
  151.0600  143.8079  157.8910 C   0  0  0  0  0  0  0  0  0  0  0  0
  151.5358  144.7434  159.0151 C   0  0  0  0  0  0  0  0  0  0  0  0
  152.7241  144.1453  159.7774 C   0  0  0  0  0  0  0  0  0  0  0  0
  152.3677  142.7590  160.3260 C   0  0  0  0  0  0  0  0  0  0  0  0
  151.9029  141.8218  159.2007 C   0  0  0  0  0  0  0  0  0  0  0  0
  143.6655  138.3379  156.2800 H   0  0  0  0  0  0  0  0  0  0  0  0
  143.5526  135.3865  155.6426 H   0  0  0  0  0  0  0  0  0  0  0  0
  146.2222  136.1291  154.3742 H   0  0  0  0  0  0  0  0  0  0  0  0
  145.3923  138.2828  153.9566 H   0  0  0  0  0  0  0  0  0  0  0  0
  152.8420  140.1883  154.5774 H   0  0  0  0  0  0  0  0  0  0  0  0
  150.0615  140.0663  154.8593 H   0  0  0  0  0  0  0  0  0  0  0  0
  151.0960  139.0111  155.8133 H   0  0  0  0  0  0  0  0  0  0  0  0
  152.2965  140.8603  156.7645 H   0  0  0  0  0  0  0  0  0  0  0  0
  151.5965  142.0274  155.6724 H   0  0  0  0  0  0  0  0  0  0  0  0
  150.0038  140.4806  157.7623 H   0  0  0  0  0  0  0  0  0  0  0  0
  148.9317  142.9621  156.7312 H   0  0  0  0  0  0  0  0  0  0  0  0
  147.5712  140.5510  152.6918 H   0  0  0  0  0  0  0  0  0  0  0  0
  145.5490  138.7608  158.5344 H   0  0  0  0  0  0  0  0  0  0  0  0
  146.4733  134.5697  156.1943 H   0  0  0  0  0  0  0  0  0  0  0  0
  145.1309  134.0961  157.2223 H   0  0  0  0  0  0  0  0  0  0  0  0
  145.7165  132.5506  155.6073 H   0  0  0  0  0  0  0  0  0  0  0  0
  145.1045  134.6330  153.2085 H   0  0  0  0  0  0  0  0  0  0  0  0
  143.3929  138.6548  153.4289 H   0  0  0  0  0  0  0  0  0  0  0  0
  149.8618  142.4995  159.1034 H   0  0  0  0  0  0  0  0  0  0  0  0
  151.8360  143.7318  157.1280 H   0  0  0  0  0  0  0  0  0  0  0  0
  150.2019  144.2804  157.4158 H   0  0  0  0  0  0  0  0  0  0  0  0
  151.8135  145.7117  158.5978 H   0  0  0  0  0  0  0  0  0  0  0  0
  150.7140  144.9302  159.7075 H   0  0  0  0  0  0  0  0  0  0  0  0
  153.5865  144.0685  159.1139 H   0  0  0  0  0  0  0  0  0  0  0  0
  153.0170  144.8063  160.5936 H   0  0  0  0  0  0  0  0  0  0  0  0
  153.2307  142.3284  160.8347 H   0  0  0  0  0  0  0  0  0  0  0  0
  151.5804  142.8508  161.0752 H   0  0  0  0  0  0  0  0  0  0  0  0
  151.6541  140.8574  159.6439 H   0  0  0  0  0  0  0  0  0  0  0  0
  152.7338  141.6374  158.5180 H   0  0  0  0  0  0  0  0  0  0  0  0
  1  2  1  0  0  0  0
  1 34  1  0  0  0  0
  2  3  1  0  0  0  0
  2 35  1  0  0  0  0
  2 36  1  0  0  0  0
  3  4  1  0  0  0  0
  3 37  1  0  0  0  0
  3 38  1  0  0  0  0
  4  5  1  0  0  0  0
  4 24  1  0  0  0  0
  4 39  1  0  0  0  0
  5  6  1  0  0  0  0
  5 40  1  0  0  0  0
  6 11  1  0  0  0  0
  6  7  2  0  0  0  0
  7  8  1  0  0  0  0
  8  9  2  0  0  0  0
  8 41  1  0  0  0  0
  9 10  1  0  0  0  0
 10 14  1  0  0  0  0
 10 11  2  0  0  0  0
 11 12  1  0  0  0  0
 12 13  2  0  0  0  0
 13 14  1  0  0  0  0
 13 42  1  0  0  0  0
 14 15  1  0  0  0  0
 15 30  1  0  0  0  0
 15 22  1  0  0  0  0
 15 16  1  0  0  0  0
 16 17  1  0  0  0  0
 17 31  1  0  0  0  0
 17 18  1  0  0  0  0
 17 20  1  0  0  0  0
 18 19  1  0  0  0  0
 18 43  1  0  0  0  0
 18 44  1  0  0  0  0
 19 45  1  0  0  0  0
 20 32  1  0  0  0  0
 20 21  1  0  0  0  0
 20 22  1  0  0  0  0
 21 46  1  0  0  0  0
 22 33  1  0  0  0  0
 22 23  1  0  0  0  0
 23 47  1  0  0  0  0
 24 29  1  0  0  0  0
 24 25  1  0  0  0  0
 24 48  1  0  0  0  0
 25 26  1  0  0  0  0
 25 49  1  0  0  0  0
 25 50  1  0  0  0  0
 26 27  1  0  0  0  0
 26 51  1  0  0  0  0
 26 52  1  0  0  0  0
 27 28  1  0  0  0  0
 27 53  1  0  0  0  0
 27 54  1  0  0  0  0
 28 29  1  0  0  0  0
 28 55  1  0  0  0  0
 28 56  1  0  0  0  0
 29 57  1  0  0  0  0
 29 58  1  0  0  0  0
M  END
> <s_m_source_file>
AV-unprocessed.smi

> <i_m_source_file_index>
109

> <i_lp_mmshare_version>
43012

> <i_f3d_flags>
0

> <s_epik_input>
W0NIMl0xW0NIMl1bQ0gyXVtDSDJdW0NIMl1bQ0hdMVtDQEhdKFtDSDJdW0NIMl1bT0hdKVtOSF1jKG5bY0hdbjIpYyhjMjMpbltjSF1uM1tDQEBIXTRPW0NASF0oW0NIMl1bT0hdKVtDQEBIXShbT0hdKVtDQEhdNFtPSF0=

> <s_epik_cmdline>
J2VwaWtfcHl0aG9uJywgJy1waCcsICc3LjAnLCAnLXRuJywgJzgnLCAnLW1hJywgJzIwMCcsICctbWV0YWxfYmluZGluZycsICctaW1hZScsICc8aW5maWxlLm1hZT4nLCAnLW9tYWUnLCAnPG91dGZpbGUubWFlPic=

> <r_lp_tautomer_probability>
1

> <r_epik_Ionization_Penalty>
0.000793976

> <r_epik_Ionization_Penalty_Charging>
0

> <r_epik_Ionization_Penalty_Neutral>
0.000793976

> <r_epik_State_Penalty>
-0

> <r_epik_Charging_Adjusted_Penalty>
0

> <i_epik_Tot_Q>
0

> <i_epik_Tot_abs_Q>
0

> <r_epik_Metal_State_Penalty>
-0

> <b_epik_Metal_Only>
0

> <s_epik_Chemistry_Notes>
This compound contains an acetal/aminal-like group ( X-CH(R)-Y where X, Y are N, S, or O) that may be acid/base labile, releasing an aldehyde.

> <s_lp_Force_Field>
OPLS_2005

> <r_lp_Energy>
54.5538

> <b_lp_Chiralities_Consistent>
1

> <s_lp_Variant>
AV-unprocessed.smi:109-1

> <Gold.Version>
5.8.1

> <Gold.Id.Protein>
6NUR|6NUR_protein|mol2

> <Gold.PLP.Fitness>
44.8568

> <Gold.PLP.PLP>
-35.0413

> <Gold.PLP.part.hbond>
-4.0000

> <Gold.PLP.part.metal>
0.0000

> <Gold.PLP.part.buried>
-6.4796

> <Gold.PLP.part.nonpolar>
-25.2892

> <Gold.PLP.part.repulsive>
0.2772

> <Gold.PLP.ligand.clash>
0.0000

> <Gold.PLP.ligand.torsion>
1.1798

> <Gold.PLP.Chemscore.Hbond>
2.9920

> <Gold.PLP.Chemscore.CHOScore>
1.0000

> <Gold.PLP.Chemscore.Metal>
0.0000

> <Gold.Chemscore.Hbonds>
donor molecule, donor type, donor heavy atom, donor atom, acceptor molecule, acceptor atom, score
      L1  H     5    40       P1  8028  0.75
      L1  H    23    47       P1 10175  0.99
      P1  H  7989  7998       L1     1  0.17
      L1  C     8    41       P1  7957  0.87

> <Gold.PLP.Chemscore.Internal.Correction>
0.1990

> <Gold.Rescore>
     Score         DG    S(hbond)    S(metal)    S(lipo)     H(rot)  DE(clash)    DE(int)     intcor
      6.11      -8.95       2.00        0.00      92.27       5.47       0.16       2.68       ----

> <Gold.Chemscore.Fitness>
6.1117

> <Gold.Chemscore.DG>
-8.9480

> <Gold.Chemscore.ZeroCoef>
-5.4800

> <Gold.Chemscore.Hbond>
1.9957

> <Gold.Chemscore.Metal>
0.0000

> <Gold.Chemscore.Lipo>
92.2735

> <Gold.Chemscore.Internal_Hbond>
0.0000

> <Gold.Chemscore.DEClash>
0.1585

> <Gold.Chemscore.DEInternal>
2.6778

> <Gold.Chemscore.Rot>
5.4662

> <Gold.Chemscore.Internal.Correction>
   9.000000E+99

> <Gold.Chemscore.Hbonds>
donor molecule, donor type, donor heavy atom, donor atom, acceptor molecule, acceptor atom, score
      L1  H     5    40       P1  8028  0.69
      L1  H    23    47       P1 10175  0.92
      P1  H  7989  7998       L1     1  0.05

> <Gold.Chemscore.Hbond.Weighted>
-6.6655

> <Gold.Chemscore.Metal.Weighted>
-0.0000

> <Gold.Chemscore.Lipo.Weighted>
-10.7960

> <Gold.Chemscore.Internal_Hbond.Weighted>
0.0000

> <Gold.Chemscore.DEClash.Weighted>
0.1585

> <Gold.Chemscore.DEInternal.Weighted>
2.6778

> <Gold.Chemscore.Rot.Weighted>
13.9935

> <Gold.Chemscore.Internal.Correction.Weighted>
   9.000000E+99

> <Gold.Protein.RotatedTorsions>
[ 6907 6896 6895 6894 ] final  139.70 input  -60.11 | X-H torsion
[ 7974 7965 7964 7962 ] final   20.30 input  175.53 | X-H torsion
[ 8008 7997 7996 7995 ] final   80.32 input   59.86 | X-H torsion
[ 10167 10162 10161 10158 ] final   87.91 input  -65.29 | X-H torsion
[ 10718 10713 10712 10709 ] final -152.35 input   66.30 | X-H torsion
[ 10763 10752 10751 10750 ] final -118.99 input  -60.55 | X-H torsion
[ 11005 11000 10999 10996 ] final -132.04 input  -57.11 | X-H torsion

> <Gold.Protein.ActiveResidues>
 VAL166  LYS551  ARG553  GLY616  TRP617  ASP618  TYR619  PRO620  LYS621  CYS622 
 ASP623  PHE694  ASN695  SER759  ASP760  ASP761  ALA762  ILE779  LEU786  VAL792 
 PHE793  MET794  SER795  GLU796  ALA797  LYS798  CYS799  TRP800  GLU811  SER814 

> <Gold.Protein.RotatedAtoms>
  152.2518  133.5222  159.5329 H   0  0  0  0  0  0  0  0  0  0  0  0  # atno 6907 bound_to 6896
  150.7096  134.0949  159.3954 H   0  0  0  0  0  0  0  0  0  0  0  0  # atno 6908 bound_to 6896
  151.8868  135.0432  160.0545 H   0  0  0  0  0  0  0  0  0  0  0  0  # atno 6909 bound_to 6896
  146.2117  139.8189  142.8684 H   0  0  0  0  0  0  0  0  0  0  0  0  # atno 7974 bound_to 7965
  155.8819  140.3443  155.5894 H   0  0  0  0  0  0  0  0  0  0  0  0  # atno 8008 bound_to 7997
  155.7710  140.0845  157.2127 H   0  0  0  0  0  0  0  0  0  0  0  0  # atno 8009 bound_to 7997
  154.4025  140.1518  156.2929 H   0  0  0  0  0  0  0  0  0  0  0  0  # atno 8010 bound_to 7997
  139.8726  144.6484  150.8933 H   0  0  0  0  0  0  0  0  0  0  0  0  # atno 10167 bound_to 10162
  156.4713  130.8260  151.2489 H   0  0  0  0  0  0  0  0  0  0  0  0  # atno 10718 bound_to 10713
  154.8604  135.4254  154.2227 H   0  0  0  0  0  0  0  0  0  0  0  0  # atno 10763 bound_to 10752
  153.3229  135.6983  153.7021 H   0  0  0  0  0  0  0  0  0  0  0  0  # atno 10764 bound_to 10752
  153.6069  135.3526  155.2938 H   0  0  0  0  0  0  0  0  0  0  0  0  # atno 10765 bound_to 10752
  140.9206  134.1450  157.4317 H   0  0  0  0  0  0  0  0  0  0  0  0  # atno 11005 bound_to 11000
  145.3117  141.0221  143.3551 LP  0  0  0  0  0  0  0  0  0  0  0  0  # atno 17320 bound_to 7965
  144.8931  139.4748  143.6668 LP  0  0  0  0  0  0  0  0  0  0  0  0  # atno 17321 bound_to 7965
  140.7758  143.3651  151.1753 LP  0  0  0  0  0  0  0  0  0  0  0  0  # atno 17342 bound_to 10162
  139.7270  143.9133  152.3006 LP  0  0  0  0  0  0  0  0  0  0  0  0  # atno 17343 bound_to 10162
  157.7491  131.0075  150.3193 LP  0  0  0  0  0  0  0  0  0  0  0  0  # atno 17370 bound_to 10713
  156.3615  130.3848  149.7247 LP  0  0  0  0  0  0  0  0  0  0  0  0  # atno 17371 bound_to 10713
  139.8774  134.9970  156.5822 LP  0  0  0  0  0  0  0  0  0  0  0  0  # atno 17394 bound_to 11000
  140.7993  133.8518  155.8713 LP  0  0  0  0  0  0  0  0  0  0  0  0  # atno 17395 bound_to 11000

$$$$
