AV-unprocessed.smi:3116|AV-procd|sdf|11865|dock9
  -GOLD-   2272017243D 1   1.00000     0.00000
 Structure written by MMmdl.
 34 34  0  0  0  0  0  0  0  0  2 V2000
  146.8559  140.4198  153.1994 C   0  0  0  0  0  0  0  0  0  0  0  0
  147.1787  138.9898  152.7402 C   0  0  1  0  0  0  0  0  0  0  0  0
  148.6015  138.6864  153.0223 N   0  3  0  0  0  0  0  0  0  0  0  0
  149.0595  138.9350  154.4121 C   0  0  1  0  0  0  0  0  0  0  0  0
  148.8200  137.6740  155.2643 C   0  0  0  0  0  0  0  0  0  0  0  0
  150.5462  139.3785  154.4071 C   0  0  2  0  0  0  0  0  0  0  0  0
  151.5389  138.2009  154.4545 C   0  0  0  0  0  0  0  0  0  0  0  0
  150.8147  140.2983  155.5079 N   0  0  0  0  0  0  0  0  0  0  0  0
  151.7015  140.1610  156.5584 C   0  0  0  0  0  0  0  0  0  0  0  0
  151.5644  141.2604  157.3563 C   0  0  0  0  0  0  0  0  0  0  0  0
  150.5477  142.0194  156.7139 C   0  0  0  0  0  0  0  0  0  0  0  0
  150.0961  141.4379  155.6144 N   0  0  0  0  0  0  0  0  0  0  0  0
  146.2421  137.9923  153.4368 C   0  0  0  0  0  0  0  0  0  0  0  0
  146.4107  136.6981  153.1535 N   0  0  0  0  0  0  0  0  0  0  0  0
  145.3689  138.3831  154.2092 O   0  0  0  0  0  0  0  0  0  0  0  0
  145.8186  140.6809  152.9853 H   0  0  0  0  0  0  0  0  0  0  0  0
  147.4860  141.1465  152.6854 H   0  0  0  0  0  0  0  0  0  0  0  0
  147.0155  140.5433  154.2716 H   0  0  0  0  0  0  0  0  0  0  0  0
  147.0132  138.9381  151.6633 H   0  0  0  0  0  0  0  0  0  0  0  0
  148.7820  137.7172  152.8040 H   0  0  0  0  0  0  0  0  0  0  0  0
  148.4716  139.7517  154.8339 H   0  0  0  0  0  0  0  0  0  0  0  0
  149.0504  137.8477  156.3150 H   0  0  0  0  0  0  0  0  0  0  0  0
  149.4353  136.8418  154.9206 H   0  0  0  0  0  0  0  0  0  0  0  0
  147.7795  137.3523  155.2242 H   0  0  0  0  0  0  0  0  0  0  0  0
  150.7382  139.9176  153.4771 H   0  0  0  0  0  0  0  0  0  0  0  0
  151.4955  137.6010  153.5459 H   0  0  0  0  0  0  0  0  0  0  0  0
  151.3395  137.5406  155.2989 H   0  0  0  0  0  0  0  0  0  0  0  0
  152.5653  138.5581  154.5469 H   0  0  0  0  0  0  0  0  0  0  0  0
  152.3488  139.3018  156.6536 H   0  0  0  0  0  0  0  0  0  0  0  0
  152.1037  141.4853  158.2646 H   0  0  0  0  0  0  0  0  0  0  0  0
  150.1235  142.9662  157.0145 H   0  0  0  0  0  0  0  0  0  0  0  0
  145.8262  136.0005  153.5912 H   0  0  0  0  0  0  0  0  0  0  0  0
  147.1326  136.4187  152.5044 H   0  0  0  0  0  0  0  0  0  0  0  0
  149.1555  139.2599  152.4008 H   0  0  0  0  0  0  0  0  0  0  0  0
  1  2  1  0  0  0  0
  1 16  1  0  0  0  0
  1 17  1  0  0  0  0
  1 18  1  0  0  0  0
  2  3  1  0  0  0  0
  2 13  1  0  0  0  0
  2 19  1  0  0  0  0
  3  4  1  0  0  0  0
  3 20  1  0  0  0  0
  3 34  1  0  0  0  0
  4  5  1  0  0  0  0
  4  6  1  0  0  0  0
  4 21  1  0  0  0  0
  5 22  1  0  0  0  0
  5 23  1  0  0  0  0
  5 24  1  0  0  0  0
  6  7  1  0  0  0  0
  6  8  1  0  0  0  0
  6 25  1  0  0  0  0
  7 26  1  0  0  0  0
  7 27  1  0  0  0  0
  7 28  1  0  0  0  0
  8 12  1  0  0  0  0
  8  9  1  0  0  0  0
  9 10  2  0  0  0  0
  9 29  1  0  0  0  0
 10 11  1  0  0  0  0
 10 30  1  0  0  0  0
 11 12  2  0  0  0  0
 11 31  1  0  0  0  0
 13 14  1  0  0  0  0
 13 15  2  0  0  0  0
 14 32  1  0  0  0  0
 14 33  1  0  0  0  0
M  CHG  1   3   1
M  END
> <s_m_source_file>
AV-unprocessed.smi

> <i_m_source_file_index>
3116

> <i_lp_mmshare_version>
43012

> <i_f3d_flags>
0

> <s_epik_input>
W05IMl1DKD1PKVtDQEhdKFtDSDNdKVtOSF1bQ0BIXShbQ0gzXSlbQ0BIXShbQ0gzXSluMVtjSF1bY0hdW2NIXW4x

> <s_epik_cmdline>
J2VwaWtfcHl0aG9uJywgJy1waCcsICc3LjAnLCAnLXRuJywgJzgnLCAnLW1hJywgJzIwMCcsICctbWV0YWxfYmluZGluZycsICctaW1hZScsICc8aW5maWxlLm1hZT4nLCAnLW9tYWUnLCAnPG91dGZpbGUubWFlPic=

> <r_lp_tautomer_probability>
1

> <r_epik_Ionization_Penalty>
0.15658

> <r_epik_Ionization_Penalty_Charging>
0.156568

> <r_epik_Ionization_Penalty_Neutral>
1.19778e-05

> <r_epik_State_Penalty>
0.145866

> <r_epik_Charging_Adjusted_Penalty>
0.302434

> <i_epik_Tot_Q>
1

> <i_epik_Tot_abs_Q>
1

> <r_epik_Metal_State_Penalty>
0.146064

> <b_epik_Metal_Only>
0

> <s_lp_Force_Field>
OPLS_2005

> <r_lp_Energy>
9.00386

> <b_lp_Chiralities_Consistent>
1

> <s_lp_Variant>
AV-unprocessed.smi:3116-4

> <Gold.Version>
5.8.1

> <Gold.Id.Protein>
6NUR|6NUR_protein|mol2

> <Gold.PLP.Fitness>
39.0664

> <Gold.PLP.PLP>
-26.2963

> <Gold.PLP.part.hbond>
-2.8977

> <Gold.PLP.part.metal>
0.0000

> <Gold.PLP.part.buried>
-0.9585

> <Gold.PLP.part.nonpolar>
-22.7419

> <Gold.PLP.part.repulsive>
0.2964

> <Gold.PLP.ligand.clash>
0.0000

> <Gold.PLP.ligand.torsion>
1.1591

> <Gold.PLP.Chemscore.Hbond>
3.9913

> <Gold.PLP.Chemscore.CHOScore>
0.9974

> <Gold.PLP.Chemscore.Metal>
0.0000

> <Gold.Chemscore.Hbonds>
donor molecule, donor type, donor heavy atom, donor atom, acceptor molecule, acceptor atom, score
      L1  H     3    20       P1  7948  2.00
      L1  H     3    34       P1  7957  0.99
      L1  H    14    33       P1  7948  1.00
      L1  C    11    31       P1  8028  0.99

> <Gold.PLP.Chemscore.Internal.Correction>
0.1225

> <Gold.Rescore>
     Score         DG    S(hbond)    S(metal)    S(lipo)     H(rot)  DE(clash)    DE(int)     intcor
     14.75     -15.66       2.96        0.00      55.98       2.45       0.19       0.72       ----

> <Gold.Chemscore.Fitness>
14.7453

> <Gold.Chemscore.DG>
-15.6605

> <Gold.Chemscore.ZeroCoef>
-5.4800

> <Gold.Chemscore.Hbond>
2.9623

> <Gold.Chemscore.Metal>
0.0000

> <Gold.Chemscore.Lipo>
55.9781

> <Gold.Chemscore.Internal_Hbond>
0.0000

> <Gold.Chemscore.DEClash>
0.1922

> <Gold.Chemscore.DEInternal>
0.7230

> <Gold.Chemscore.Rot>
2.4465

> <Gold.Chemscore.Internal.Correction>
   9.000000E+99

> <Gold.Chemscore.Hbonds>
donor molecule, donor type, donor heavy atom, donor atom, acceptor molecule, acceptor atom, score
      L1  H     3    20       P1  7948  0.99
      L1  H     3    34       P1  7957  0.92
      L1  H    14    33       P1  7948  0.98

> <Gold.Chemscore.Hbond.Weighted>
-9.8941

> <Gold.Chemscore.Metal.Weighted>
-0.0000

> <Gold.Chemscore.Lipo.Weighted>
-6.5494

> <Gold.Chemscore.Internal_Hbond.Weighted>
0.0000

> <Gold.Chemscore.DEClash.Weighted>
0.1922

> <Gold.Chemscore.DEInternal.Weighted>
0.7230

> <Gold.Chemscore.Rot.Weighted>
6.2631

> <Gold.Chemscore.Internal.Correction.Weighted>
   9.000000E+99

> <Gold.Protein.RotatedTorsions>
[ 6907 6896 6895 6894 ] final  -53.11 input  -60.11 | X-H torsion
[ 7974 7965 7964 7962 ] final  -25.01 input  175.53 | X-H torsion
[ 8008 7997 7996 7995 ] final  154.82 input   59.86 | X-H torsion
[ 10167 10162 10161 10158 ] final  161.91 input  -65.29 | X-H torsion
[ 10718 10713 10712 10709 ] final -144.68 input   66.30 | X-H torsion
[ 10763 10752 10751 10750 ] final   20.26 input  -60.55 | X-H torsion
[ 11005 11000 10999 10996 ] final -102.53 input  -57.11 | X-H torsion

> <Gold.Protein.ActiveResidues>
 VAL166  LYS551  ARG553  GLY616  TRP617  ASP618  TYR619  PRO620  LYS621  CYS622 
 ASP623  PHE694  ASN695  SER759  ASP760  ASP761  ALA762  ILE779  LEU786  VAL792 
 PHE793  MET794  SER795  GLU796  ALA797  LYS798  CYS799  TRP800  GLU811  SER814 

> <Gold.Protein.RotatedAtoms>
  150.8457  134.7764  159.6967 H   0  0  0  0  0  0  0  0  0  0  0  0  # atno 6907 bound_to 6896
  152.4534  134.5341  159.9829 H   0  0  0  0  0  0  0  0  0  0  0  0  # atno 6908 bound_to 6896
  151.5472  133.3385  159.2982 H   0  0  0  0  0  0  0  0  0  0  0  0  # atno 6909 bound_to 6896
  146.1518  140.4829  142.8608 H   0  0  0  0  0  0  0  0  0  0  0  0  # atno 7974 bound_to 7965
  156.2511  140.1956  156.6706 H   0  0  0  0  0  0  0  0  0  0  0  0  # atno 8008 bound_to 7997
  154.6396  140.0585  156.9855 H   0  0  0  0  0  0  0  0  0  0  0  0  # atno 8009 bound_to 7997
  155.1583  140.3257  155.4419 H   0  0  0  0  0  0  0  0  0  0  0  0  # atno 8010 bound_to 7997
  139.4854  144.4489  151.8855 H   0  0  0  0  0  0  0  0  0  0  0  0  # atno 10167 bound_to 10162
  156.3731  130.7798  151.1981 H   0  0  0  0  0  0  0  0  0  0  0  0  # atno 10718 bound_to 10713
  153.1092  135.6692  153.9531 H   0  0  0  0  0  0  0  0  0  0  0  0  # atno 10763 bound_to 10752
  153.9079  135.3028  155.3450 H   0  0  0  0  0  0  0  0  0  0  0  0  # atno 10764 bound_to 10752
  154.7512  135.5033  153.9370 H   0  0  0  0  0  0  0  0  0  0  0  0  # atno 10765 bound_to 10752
  141.1185  133.8566  157.1371 H   0  0  0  0  0  0  0  0  0  0  0  0  # atno 11005 bound_to 11000
  144.7914  140.6038  143.6539 LP  0  0  0  0  0  0  0  0  0  0  0  0  # atno 17320 bound_to 7965
  145.4804  139.1496  143.3765 LP  0  0  0  0  0  0  0  0  0  0  0  0  # atno 17321 bound_to 7965
  140.3945  144.2573  150.5897 LP  0  0  0  0  0  0  0  0  0  0  0  0  # atno 17342 bound_to 10162
  140.5115  143.2289  151.8528 LP  0  0  0  0  0  0  0  0  0  0  0  0  # atno 17343 bound_to 10162
  157.7486  131.0366  150.4419 LP  0  0  0  0  0  0  0  0  0  0  0  0  # atno 17370 bound_to 10713
  156.4649  130.4040  149.6553 LP  0  0  0  0  0  0  0  0  0  0  0  0  # atno 17371 bound_to 10713
  140.0124  134.9982  157.0424 LP  0  0  0  0  0  0  0  0  0  0  0  0  # atno 17394 bound_to 11000
  140.4576  134.1517  155.7188 LP  0  0  0  0  0  0  0  0  0  0  0  0  # atno 17395 bound_to 11000

$$$$
