AV-unprocessed.smi:2212|AV-procd|sdf|8955|dock2
  -GOLD-   2272012173D 1   1.00000     0.00000
 Structure written by MMmdl.
 30 31  0  0  0  0  0  0  0  0  2 V2000
  151.2128  140.2409  158.9279 C   0  0  0  0  0  0  0  0  0  0  0  0
  150.6235  141.5300  159.0358 O   0  0  0  0  0  0  0  0  0  0  0  0
  151.4246  142.6238  158.5870 C   0  0  0  0  0  0  0  0  0  0  0  0
  151.7740  142.5121  157.0959 C   0  0  0  0  0  0  0  0  0  0  0  0
  150.5706  142.5542  156.2750 N   0  0  0  0  0  0  0  0  0  0  0  0
  150.1267  141.5513  155.5062 C   0  0  0  0  0  0  0  0  0  0  0  0
  150.7548  140.4909  155.4598 O   0  0  0  0  0  0  0  0  0  0  0  0
  148.9859  141.8381  154.8393 N   0  5  0  0  0  0  0  0  0  0  0  0
  148.3237  140.8628  154.1964 C   0  0  0  0  0  0  0  0  0  0  0  0
  147.2377  141.0125  153.4358 N   0  0  0  0  0  0  0  0  0  0  0  0
  146.9159  139.7433  152.9804 C   0  0  0  0  0  0  0  0  0  0  0  0
  147.8384  138.8692  153.4871 C   0  0  0  0  0  0  0  0  0  0  0  0
  148.7338  139.5639  154.2524 O   0  0  0  0  0  0  0  0  0  0  0  0
  150.7627  143.9276  159.0719 C   0  0  0  0  0  0  0  0  0  0  0  0
  152.1372  144.4056  159.5431 C   0  0  0  0  0  0  0  0  0  0  0  0
  152.5535  142.9345  159.5903 C   0  0  0  0  0  0  0  0  0  0  0  0
  150.5620  139.5094  159.4066 H   0  0  0  0  0  0  0  0  0  0  0  0
  152.1837  140.1936  159.4216 H   0  0  0  0  0  0  0  0  0  0  0  0
  151.3315  139.9365  157.8882 H   0  0  0  0  0  0  0  0  0  0  0  0
  152.4259  143.3357  156.8005 H   0  0  0  0  0  0  0  0  0  0  0  0
  152.3309  141.5989  156.8853 H   0  0  0  0  0  0  0  0  0  0  0  0
  150.0313  143.4074  156.2949 H   0  0  0  0  0  0  0  0  0  0  0  0
  146.0662  139.5651  152.3383 H   0  0  0  0  0  0  0  0  0  0  0  0
  147.9901  137.8035  153.4060 H   0  0  0  0  0  0  0  0  0  0  0  0
  150.3183  144.5386  158.2855 H   0  0  0  0  0  0  0  0  0  0  0  0
  150.0672  143.7764  159.8995 H   0  0  0  0  0  0  0  0  0  0  0  0
  152.6724  144.9751  158.7816 H   0  0  0  0  0  0  0  0  0  0  0  0
  152.1392  144.9131  160.5080 H   0  0  0  0  0  0  0  0  0  0  0  0
  152.3936  142.4896  160.5741 H   0  0  0  0  0  0  0  0  0  0  0  0
  153.5605  142.7384  159.2211 H   0  0  0  0  0  0  0  0  0  0  0  0
  1  2  1  0  0  0  0
  1 17  1  0  0  0  0
  1 18  1  0  0  0  0
  1 19  1  0  0  0  0
  2  3  1  0  0  0  0
  3 16  1  0  0  0  0
  3  4  1  0  0  0  0
  3 14  1  0  0  0  0
  4  5  1  0  0  0  0
  4 20  1  0  0  0  0
  4 21  1  0  0  0  0
  5 22  1  0  0  0  0
  5  6  1  0  0  0  0
  6  8  1  0  0  0  0
  6  7  2  0  0  0  0
  8  9  1  0  0  0  0
  9 13  1  0  0  0  0
  9 10  2  0  0  0  0
 10 11  1  0  0  0  0
 11 23  1  0  0  0  0
 11 12  2  0  0  0  0
 12 24  1  0  0  0  0
 12 13  1  0  0  0  0
 14 15  1  0  0  0  0
 14 25  1  0  0  0  0
 14 26  1  0  0  0  0
 15 16  1  0  0  0  0
 15 27  1  0  0  0  0
 15 28  1  0  0  0  0
 16 29  1  0  0  0  0
 16 30  1  0  0  0  0
M  CHG  1   8  -1
M  END
> <s_m_source_file>
AV-unprocessed.smi

> <i_m_source_file_index>
2212

> <i_lp_mmshare_version>
43012

> <i_f3d_flags>
0

> <s_epik_input>
W0NIMl0xW0NIMl1bQ0gyXUMxKE9bQ0gzXSlbQ0gyXVtOSF1DKD1PKVtOSF1jMm5bY0hdW2NIXW8y

> <s_epik_cmdline>
J2VwaWtfcHl0aG9uJywgJy1waCcsICc3LjAnLCAnLXRuJywgJzgnLCAnLW1hJywgJzIwMCcsICctbWV0YWxfYmluZGluZycsICctaW1hZScsICc8aW5maWxlLm1hZT4nLCAnLW9tYWUnLCAnPG91dGZpbGUubWFlPic=

> <r_lp_tautomer_probability>
0.107061

> <r_epik_Ionization_Penalty>
10.8857

> <r_epik_Ionization_Penalty_Charging>
7.67908

> <r_epik_Ionization_Penalty_Neutral>
3.20665

> <r_epik_State_Penalty>
5.80296

> <r_epik_Charging_Adjusted_Penalty>
13.482

> <i_epik_Tot_Q>
-1

> <i_epik_Tot_abs_Q>
1

> <r_epik_Metal_State_Penalty>
1.73217

> <b_epik_Metal_Only>
1

> <s_lp_Force_Field>
OPLS_2005

> <r_lp_Energy>
11.9556

> <b_lp_Chiralities_Consistent>
1

> <s_lp_Variant>
AV-unprocessed.smi:2212-5

> <Gold.Version>
5.8.1

> <Gold.Id.Protein>
6NUR|6NUR_protein|mol2

> <Gold.PLP.Fitness>
37.9968

> <Gold.PLP.PLP>
-26.4164

> <Gold.PLP.part.hbond>
-2.4641

> <Gold.PLP.part.metal>
0.0000

> <Gold.PLP.part.buried>
-4.1445

> <Gold.PLP.part.nonpolar>
-20.7184

> <Gold.PLP.part.repulsive>
1.4754

> <Gold.PLP.ligand.clash>
0.0000

> <Gold.PLP.ligand.torsion>
0.1801

> <Gold.PLP.Chemscore.Hbond>
1.9280

> <Gold.PLP.Chemscore.CHOScore>
1.9507

> <Gold.PLP.Chemscore.Metal>
0.0000

> <Gold.Chemscore.Hbonds>
donor molecule, donor type, donor heavy atom, donor atom, acceptor molecule, acceptor atom, score
      L1  H     5    22       P1  8028  1.00
      P1  H  7989  7998       L1     7  0.46
      L1  C    11    23       P1 10175  0.96
      L1  C    12    24       P1  7948  1.00

> <Gold.PLP.Chemscore.Internal.Correction>
0.3047

> <Gold.Rescore>
     Score         DG    S(hbond)    S(metal)    S(lipo)     H(rot)  DE(clash)    DE(int)     intcor
     11.61     -15.52       1.61        0.00      75.19       1.61       1.93       1.99       ----

> <Gold.Chemscore.Fitness>
11.6052

> <Gold.Chemscore.DG>
-15.5208

> <Gold.Chemscore.ZeroCoef>
-5.4800

> <Gold.Chemscore.Hbond>
1.6093

> <Gold.Chemscore.Metal>
0.0000

> <Gold.Chemscore.Lipo>
75.1934

> <Gold.Chemscore.Internal_Hbond>
0.0000

> <Gold.Chemscore.DEClash>
1.9300

> <Gold.Chemscore.DEInternal>
1.9856

> <Gold.Chemscore.Rot>
1.6141

> <Gold.Chemscore.Internal.Correction>
   9.000000E+99

> <Gold.Chemscore.Hbonds>
donor molecule, donor type, donor heavy atom, donor atom, acceptor molecule, acceptor atom, score
      L1  H     5    22       P1  8028  0.99
      P1  H  7989  7998       L1     7  0.05

> <Gold.Chemscore.Hbond.Weighted>
-5.3752

> <Gold.Chemscore.Metal.Weighted>
-0.0000

> <Gold.Chemscore.Lipo.Weighted>
-8.7976

> <Gold.Chemscore.Internal_Hbond.Weighted>
0.0000

> <Gold.Chemscore.DEClash.Weighted>
1.9300

> <Gold.Chemscore.DEInternal.Weighted>
1.9856

> <Gold.Chemscore.Rot.Weighted>
4.1320

> <Gold.Chemscore.Internal.Correction.Weighted>
   9.000000E+99

> <Gold.Protein.RotatedTorsions>
[ 6907 6896 6895 6894 ] final   75.71 input  -60.11 | X-H torsion
[ 7974 7965 7964 7962 ] final  -41.47 input  175.53 | X-H torsion
[ 8008 7997 7996 7995 ] final   58.07 input   59.86 | X-H torsion
[ 10167 10162 10161 10158 ] final  112.66 input  -65.29 | X-H torsion
[ 10718 10713 10712 10709 ] final   86.84 input   66.30 | X-H torsion
[ 10763 10752 10751 10750 ] final -172.43 input  -60.55 | X-H torsion
[ 11005 11000 10999 10996 ] final  177.23 input  -57.11 | X-H torsion

> <Gold.Protein.ActiveResidues>
 VAL166  LYS551  ARG553  GLY616  TRP617  ASP618  TYR619  PRO620  LYS621  CYS622 
 ASP623  PHE694  ASN695  SER759  ASP760  ASP761  ALA762  ILE779  LEU786  VAL792 
 PHE793  MET794  SER795  GLU796  ALA797  LYS798  CYS799  TRP800  GLU811  SER814 

> <Gold.Protein.RotatedAtoms>
  152.5039  134.4078  159.9438 H   0  0  0  0  0  0  0  0  0  0  0  0  # atno 6907 bound_to 6896
  151.4045  133.3740  159.2744 H   0  0  0  0  0  0  0  0  0  0  0  0  # atno 6908 bound_to 6896
  150.9337  134.8772  159.7627 H   0  0  0  0  0  0  0  0  0  0  0  0  # atno 6909 bound_to 6896
  146.0208  140.6852  142.9179 H   0  0  0  0  0  0  0  0  0  0  0  0  # atno 7974 bound_to 7965
  155.5441  140.3485  155.4453 H   0  0  0  0  0  0  0  0  0  0  0  0  # atno 8008 bound_to 7997
  156.0630  140.1344  156.9945 H   0  0  0  0  0  0  0  0  0  0  0  0  # atno 8009 bound_to 7997
  154.4489  140.0981  156.6530 H   0  0  0  0  0  0  0  0  0  0  0  0  # atno 8010 bound_to 7997
  139.6519  144.7128  151.2031 H   0  0  0  0  0  0  0  0  0  0  0  0  # atno 10167 bound_to 10162
  157.6933  131.0232  150.3033 H   0  0  0  0  0  0  0  0  0  0  0  0  # atno 10718 bound_to 10713
  154.6194  135.2873  155.0343 H   0  0  0  0  0  0  0  0  0  0  0  0  # atno 10763 bound_to 10752
  154.1544  135.6498  153.4975 H   0  0  0  0  0  0  0  0  0  0  0  0  # atno 10764 bound_to 10752
  153.0229  135.5363  154.6977 H   0  0  0  0  0  0  0  0  0  0  0  0  # atno 10765 bound_to 10752
  140.3818  134.6940  157.4455 H   0  0  0  0  0  0  0  0  0  0  0  0  # atno 11005 bound_to 11000
  144.6989  140.3562  143.7172 LP  0  0  0  0  0  0  0  0  0  0  0  0  # atno 17320 bound_to 7965
  145.7196  139.1706  143.2492 LP  0  0  0  0  0  0  0  0  0  0  0  0  # atno 17321 bound_to 7965
  140.7541  143.6136  150.8582 LP  0  0  0  0  0  0  0  0  0  0  0  0  # atno 17342 bound_to 10162
  139.9785  143.5978  152.2951 LP  0  0  0  0  0  0  0  0  0  0  0  0  # atno 17343 bound_to 10162
  156.3546  130.3836  149.7301 LP  0  0  0  0  0  0  0  0  0  0  0  0  # atno 17370 bound_to 10713
  156.4767  130.8022  151.3038 LP  0  0  0  0  0  0  0  0  0  0  0  0  # atno 17371 bound_to 10713
  140.0473  134.6182  155.8906 LP  0  0  0  0  0  0  0  0  0  0  0  0  # atno 17394 bound_to 11000
  141.1921  133.6574  156.5485 LP  0  0  0  0  0  0  0  0  0  0  0  0  # atno 17395 bound_to 11000

$$$$
