AV-unprocessed.smi:1987|AV-procd|sdf|8055|dock3
  -GOLD-   2272010263D 1   1.00000     0.00000
 Structure written by MMmdl.
 37 39  0  0  0  0  0  0  0  0  2 V2000
  150.8316  135.4833  156.2760 O   0  0  0  0  0  0  0  0  0  0  0  0
  150.2495  135.8168  155.2444 C   0  0  0  0  0  0  0  0  0  0  0  0
  150.0189  137.2959  154.9381 C   0  0  0  0  0  0  0  0  0  0  0  0
  151.2860  137.9985  154.8615 N   0  0  0  0  0  0  0  0  0  0  0  0
  151.6649  139.1795  155.3549 C   0  0  0  0  0  0  0  0  0  0  0  0
  152.9134  139.4699  155.0218 N   0  0  0  0  0  0  0  0  0  0  0  0
  153.3039  138.3715  154.2737 N   0  0  0  0  0  0  0  0  0  0  0  0
  152.3422  137.4955  154.1742 N   0  0  0  0  0  0  0  0  0  0  0  0
  149.7584  134.9408  154.3543 N   0  0  0  0  0  0  0  0  0  0  0  0
  149.7507  133.4924  154.5191 C   0  0  0  0  0  0  0  0  0  0  0  0
  148.4287  132.8720  154.0260 C   0  0  1  0  0  0  0  0  0  0  0  0
  147.8546  133.5024  152.7582 C   0  0  0  0  0  0  0  0  0  0  0  0
  146.8902  132.4277  152.2647 C   0  0  0  0  0  0  0  0  0  0  0  0
  147.5311  131.1363  152.5962 N   0  3  2  0  0  0  0  0  0  0  0  0
  146.5711  130.0567  152.9108 C   0  0  0  0  0  0  0  0  0  0  0  0
  146.7290  128.8355  152.0366 C   0  0  0  0  0  0  0  0  0  0  0  0
  145.5776  129.7900  151.8054 C   0  0  0  0  0  0  0  0  0  0  0  0
  148.5314  131.3852  153.6617 C   0  0  0  0  0  0  0  0  0  0  0  0
  149.4965  137.4069  153.9870 H   0  0  0  0  0  0  0  0  0  0  0  0
  149.3942  137.7513  155.7083 H   0  0  0  0  0  0  0  0  0  0  0  0
  151.0289  139.8248  155.9426 H   0  0  0  0  0  0  0  0  0  0  0  0
  149.3027  135.3088  153.5313 H   0  0  0  0  0  0  0  0  0  0  0  0
  150.5902  133.0863  153.9540 H   0  0  0  0  0  0  0  0  0  0  0  0
  149.9268  133.2342  155.5647 H   0  0  0  0  0  0  0  0  0  0  0  0
  147.6773  132.9668  154.8119 H   0  0  0  0  0  0  0  0  0  0  0  0
  147.3611  134.4575  152.9429 H   0  0  0  0  0  0  0  0  0  0  0  0
  148.6435  133.6644  152.0222 H   0  0  0  0  0  0  0  0  0  0  0  0
  145.9430  132.5202  152.7991 H   0  0  0  0  0  0  0  0  0  0  0  0
  146.6813  132.5088  151.1977 H   0  0  0  0  0  0  0  0  0  0  0  0
  146.2789  129.9548  153.9547 H   0  0  0  0  0  0  0  0  0  0  0  0
  147.5322  128.8282  151.3018 H   0  0  0  0  0  0  0  0  0  0  0  0
  146.4938  127.8688  152.4774 H   0  0  0  0  0  0  0  0  0  0  0  0
  144.5843  129.4516  152.0940 H   0  0  0  0  0  0  0  0  0  0  0  0
  145.6148  130.4169  150.9163 H   0  0  0  0  0  0  0  0  0  0  0  0
  149.5156  131.1516  153.2542 H   0  0  0  0  0  0  0  0  0  0  0  0
  148.3812  130.7501  154.5362 H   0  0  0  0  0  0  0  0  0  0  0  0
  148.0516  130.8487  151.7798 H   0  0  0  0  0  0  0  0  0  0  0  0
  1  2  2  0  0  0  0
  2  3  1  0  0  0  0
  2  9  1  0  0  0  0
  3  4  1  0  0  0  0
  3 19  1  0  0  0  0
  3 20  1  0  0  0  0
  4  8  1  0  0  0  0
  4  5  1  0  0  0  0
  5  6  2  0  0  0  0
  5 21  1  0  0  0  0
  6  7  1  0  0  0  0
  7  8  2  0  0  0  0
  9 10  1  0  0  0  0
  9 22  1  0  0  0  0
 10 11  1  0  0  0  0
 10 23  1  0  0  0  0
 10 24  1  0  0  0  0
 11 18  1  0  0  0  0
 11 12  1  0  0  0  0
 11 25  1  0  0  0  0
 12 13  1  0  0  0  0
 12 26  1  0  0  0  0
 12 27  1  0  0  0  0
 13 14  1  0  0  0  0
 13 28  1  0  0  0  0
 13 29  1  0  0  0  0
 14 15  1  0  0  0  0
 14 18  1  0  0  0  0
 14 37  1  0  0  0  0
 15 17  1  0  0  0  0
 15 16  1  0  0  0  0
 15 30  1  0  0  0  0
 16 17  1  0  0  0  0
 16 31  1  0  0  0  0
 16 32  1  0  0  0  0
 17 33  1  0  0  0  0
 17 34  1  0  0  0  0
 18 35  1  0  0  0  0
 18 36  1  0  0  0  0
M  CHG  1  14   1
M  END
> <s_m_source_file>
AV-unprocessed.smi

> <i_m_source_file_index>
1987

> <i_lp_mmshare_version>
43012

> <i_f3d_flags>
0

> <s_epik_input>
bjFubltjSF1uMVtDSDJdQyg9TylbTkhdW0NIMl1bQ0BASF0yW0NIMl1bQ0gyXU4oW0NIMl0yKVtDSF0zW0NIMl1bQ0gyXTM=

> <s_epik_cmdline>
J2VwaWtfcHl0aG9uJywgJy1waCcsICc3LjAnLCAnLXRuJywgJzgnLCAnLW1hJywgJzIwMCcsICctbWV0YWxfYmluZGluZycsICctaW1hZScsICc8aW5maWxlLm1hZT4nLCAnLW9tYWUnLCAnPG91dGZpbGUubWFlPic=

> <r_lp_tautomer_probability>
1

> <r_epik_Ionization_Penalty>
0.000242849

> <r_epik_Ionization_Penalty_Charging>
0.000241326

> <r_epik_Ionization_Penalty_Neutral>
1.52322e-06

> <r_epik_State_Penalty>
-0

> <r_epik_Charging_Adjusted_Penalty>
0.000241326

> <i_epik_Tot_Q>
1

> <i_epik_Tot_abs_Q>
1

> <r_epik_Metal_State_Penalty>
-0

> <b_epik_Metal_Only>
0

> <s_lp_Force_Field>
OPLS_2005

> <r_lp_Energy>
38.094

> <b_lp_Chiralities_Consistent>
1

> <s_lp_Variant>
AV-unprocessed.smi:1987-2

> <Gold.Version>
5.8.1

> <Gold.Id.Protein>
6NUR|6NUR_protein|mol2

> <Gold.PLP.Fitness>
44.8091

> <Gold.PLP.PLP>
-34.8588

> <Gold.PLP.part.hbond>
-4.8849

> <Gold.PLP.part.metal>
0.0000

> <Gold.PLP.part.buried>
-3.9705

> <Gold.PLP.part.nonpolar>
-25.8558

> <Gold.PLP.part.repulsive>
0.2274

> <Gold.PLP.ligand.clash>
0.0000

> <Gold.PLP.ligand.torsion>
1.2888

> <Gold.PLP.Chemscore.Hbond>
3.7520

> <Gold.PLP.Chemscore.CHOScore>
0.0000

> <Gold.PLP.Chemscore.Metal>
0.0000

> <Gold.Chemscore.Hbonds>
donor molecule, donor type, donor heavy atom, donor atom, acceptor molecule, acceptor atom, score
      L1  H     9    22       P1  7948  1.00
      L1  H    14    37       P1 10747  1.00
      P1  H  7997  8009       L1     6  0.98
      P1  H 10752 10763       L1     8  0.74

> <Gold.PLP.Chemscore.Internal.Correction>
1.2719

> <Gold.Rescore>
     Score         DG    S(hbond)    S(metal)    S(lipo)     H(rot)  DE(clash)    DE(int)     intcor
     13.37     -14.69       2.67        0.00      59.99       2.62       0.27       1.05       ----

> <Gold.Chemscore.Fitness>
13.3682

> <Gold.Chemscore.DG>
-14.6921

> <Gold.Chemscore.ZeroCoef>
-5.4800

> <Gold.Chemscore.Hbond>
2.6681

> <Gold.Chemscore.Metal>
0.0000

> <Gold.Chemscore.Lipo>
59.9922

> <Gold.Chemscore.Internal_Hbond>
0.0000

> <Gold.Chemscore.DEClash>
0.2696

> <Gold.Chemscore.DEInternal>
1.0544

> <Gold.Chemscore.Rot>
2.6244

> <Gold.Chemscore.Internal.Correction>
   9.000000E+99

> <Gold.Chemscore.Hbonds>
donor molecule, donor type, donor heavy atom, donor atom, acceptor molecule, acceptor atom, score
      L1  H     9    22       P1  7948  0.25
      L1  H    14    37       P1 10747  1.00
      P1  H  7997  8009       L1     6  0.76
      P1  H 10752 10763       L1     8  0.63

> <Gold.Chemscore.Hbond.Weighted>
-8.9116

> <Gold.Chemscore.Metal.Weighted>
-0.0000

> <Gold.Chemscore.Lipo.Weighted>
-7.0191

> <Gold.Chemscore.Internal_Hbond.Weighted>
0.0000

> <Gold.Chemscore.DEClash.Weighted>
0.2696

> <Gold.Chemscore.DEInternal.Weighted>
1.0544

> <Gold.Chemscore.Rot.Weighted>
6.7186

> <Gold.Chemscore.Internal.Correction.Weighted>
   9.000000E+99

> <Gold.Protein.RotatedTorsions>
[ 6907 6896 6895 6894 ] final -171.34 input  -60.11 | X-H torsion
[ 7974 7965 7964 7962 ] final -164.87 input  175.53 | X-H torsion
[ 8008 7997 7996 7995 ] final -159.72 input   59.86 | X-H torsion
[ 10167 10162 10161 10158 ] final  -92.51 input  -65.29 | X-H torsion
[ 10718 10713 10712 10709 ] final   57.64 input   66.30 | X-H torsion
[ 10763 10752 10751 10750 ] final   38.69 input  -60.55 | X-H torsion
[ 11005 11000 10999 10996 ] final -138.12 input  -57.11 | X-H torsion

> <Gold.Protein.ActiveResidues>
 VAL166  LYS551  ARG553  GLY616  TRP617  ASP618  TYR619  PRO620  LYS621  CYS622 
 ASP623  PHE694  ASN695  SER759  ASP760  ASP761  ALA762  ILE779  LEU786  VAL792 
 PHE793  MET794  SER795  GLU796  ALA797  LYS798  CYS799  TRP800  GLU811  SER814 

> <Gold.Protein.RotatedAtoms>
  151.5222  133.3464  159.2903 H   0  0  0  0  0  0  0  0  0  0  0  0  # atno 6907 bound_to 6896
  150.8645  134.8007  159.7119 H   0  0  0  0  0  0  0  0  0  0  0  0  # atno 6908 bound_to 6896
  152.4654  134.5097  159.9801 H   0  0  0  0  0  0  0  0  0  0  0  0  # atno 6909 bound_to 6896
  144.7285  140.2897  143.6222 H   0  0  0  0  0  0  0  0  0  0  0  0  # atno 7974 bound_to 7965
  155.7668  140.0846  157.2128 H   0  0  0  0  0  0  0  0  0  0  0  0  # atno 8008 bound_to 7997
  154.3999  140.1533  156.2952 H   0  0  0  0  0  0  0  0  0  0  0  0  # atno 8009 bound_to 7997
  155.8786  140.3422  155.5874 H   0  0  0  0  0  0  0  0  0  0  0  0  # atno 8010 bound_to 7997
  140.3340  143.2979  151.9910 H   0  0  0  0  0  0  0  0  0  0  0  0  # atno 10167 bound_to 10162
  157.5531  130.8780  149.8994 H   0  0  0  0  0  0  0  0  0  0  0  0  # atno 10718 bound_to 10713
  152.9992  135.6242  154.2346 H   0  0  0  0  0  0  0  0  0  0  0  0  # atno 10763 bound_to 10752
  154.2087  135.2801  155.2967 H   0  0  0  0  0  0  0  0  0  0  0  0  # atno 10764 bound_to 10752
  154.5624  135.5701  153.7078 H   0  0  0  0  0  0  0  0  0  0  0  0  # atno 10765 bound_to 10752
  140.8646  134.2127  157.4687 H   0  0  0  0  0  0  0  0  0  0  0  0  # atno 11005 bound_to 11000
  145.7867  139.1911  143.2126 LP  0  0  0  0  0  0  0  0  0  0  0  0  # atno 17320 bound_to 7965
  146.0789  140.7786  142.9651 LP  0  0  0  0  0  0  0  0  0  0  0  0  # atno 17321 bound_to 7965
  139.4851  144.6211  151.7252 LP  0  0  0  0  0  0  0  0  0  0  0  0  # atno 17342 bound_to 10162
  140.5371  144.0639  150.6074 LP  0  0  0  0  0  0  0  0  0  0  0  0  # atno 17343 bound_to 10162
  156.0594  130.3702  150.1016 LP  0  0  0  0  0  0  0  0  0  0  0  0  # atno 17370 bound_to 10713
  156.9187  130.9676  151.3552 LP  0  0  0  0  0  0  0  0  0  0  0  0  # atno 17371 bound_to 10713
  139.8708  134.9745  156.4850 LP  0  0  0  0  0  0  0  0  0  0  0  0  # atno 17394 bound_to 11000
  140.8644  133.8035  155.9298 LP  0  0  0  0  0  0  0  0  0  0  0  0  # atno 17395 bound_to 11000

$$$$
