AV-unprocessed.smi:3169|AV-procd|sdf|12104|dock6
  -GOLD-   2272017543D 1   1.00000     0.00000
 Structure written by MMmdl.
 36 37  0  0  0  0  0  0  0  0  2 V2000
  146.4326  138.9458  154.1659 O   0  0  0  0  0  0  0  0  0  0  0  0
  147.1979  138.3089  153.4413 C   0  0  0  0  0  0  0  0  0  0  0  0
  146.8078  137.3151  152.6308 N   0  0  0  0  0  0  0  0  0  0  0  0
  145.4330  136.8506  152.4908 C   0  0  0  0  0  0  0  0  0  0  0  0
  145.2164  136.1272  151.1516 C   0  0  0  0  0  0  0  0  0  0  0  0
  144.6175  134.8057  151.3428 N   0  0  0  0  0  0  0  0  0  0  0  0
  144.5046  133.8006  150.4171 C   0  0  0  0  0  0  0  0  0  0  0  0
  143.8736  132.7590  151.0475 C   0  0  0  0  0  0  0  0  0  0  0  0
  143.6271  133.1733  152.3293 N   0  3  0  0  0  0  0  0  0  0  0  0
  144.0798  134.4188  152.5067 C   0  0  0  0  0  0  0  0  0  0  0  0
  148.5179  138.5244  153.3676 N   0  0  0  0  0  0  0  0  0  0  0  0
  149.2373  139.5547  154.1074 C   0  0  0  0  0  0  0  0  0  0  0  0
  150.3370  138.9454  154.9919 C   0  0  1  0  0  0  0  0  0  0  0  0
  150.8532  137.5980  154.4910 C   0  0  0  0  0  0  0  0  0  0  0  0
  152.2306  137.5528  155.1114 C   0  0  0  0  0  0  0  0  0  0  0  0
  152.6774  139.0063  154.9823 C   0  0  0  0  0  0  0  0  0  0  0  0
  151.4864  139.7892  155.0177 O   0  0  0  0  0  0  0  0  0  0  0  0
  147.5086  136.8540  152.0688 H   0  0  0  0  0  0  0  0  0  0  0  0
  145.1755  136.1970  153.3262 H   0  0  0  0  0  0  0  0  0  0  0  0
  144.7719  137.7150  152.5591 H   0  0  0  0  0  0  0  0  0  0  0  0
  144.5569  136.7046  150.5024 H   0  0  0  0  0  0  0  0  0  0  0  0
  146.1590  135.9964  150.6176 H   0  0  0  0  0  0  0  0  0  0  0  0
  144.8715  133.8989  149.4056 H   0  0  0  0  0  0  0  0  0  0  0  0
  143.5883  131.7805  150.6892 H   0  0  0  0  0  0  0  0  0  0  0  0
  144.0218  134.9979  153.4115 H   0  0  0  0  0  0  0  0  0  0  0  0
  149.0632  137.9520  152.7397 H   0  0  0  0  0  0  0  0  0  0  0  0
  149.6682  140.2790  153.4141 H   0  0  0  0  0  0  0  0  0  0  0  0
  148.5223  140.1023  154.7219 H   0  0  0  0  0  0  0  0  0  0  0  0
  149.9827  138.8271  156.0175 H   0  0  0  0  0  0  0  0  0  0  0  0
  150.2206  136.7621  154.7904 H   0  0  0  0  0  0  0  0  0  0  0  0
  150.9347  137.5944  153.4029 H   0  0  0  0  0  0  0  0  0  0  0  0
  152.1576  137.2729  156.1633 H   0  0  0  0  0  0  0  0  0  0  0  0
  152.9041  136.8531  154.6156 H   0  0  0  0  0  0  0  0  0  0  0  0
  153.3702  139.2986  155.7717 H   0  0  0  0  0  0  0  0  0  0  0  0
  153.1696  139.1700  154.0229 H   0  0  0  0  0  0  0  0  0  0  0  0
  143.1679  132.6198  153.0420 H   0  0  0  0  0  0  0  0  0  0  0  0
  1  2  2  0  0  0  0
  2  3  1  0  0  0  0
  2 11  1  0  0  0  0
  3  4  1  0  0  0  0
  3 18  1  0  0  0  0
  4  5  1  0  0  0  0
  4 19  1  0  0  0  0
  4 20  1  0  0  0  0
  5  6  1  0  0  0  0
  5 21  1  0  0  0  0
  5 22  1  0  0  0  0
  6 10  1  0  0  0  0
  6  7  1  0  0  0  0
  7  8  2  0  0  0  0
  7 23  1  0  0  0  0
  8  9  1  0  0  0  0
  8 24  1  0  0  0  0
  9 10  2  0  0  0  0
  9 36  1  0  0  0  0
 10 25  1  0  0  0  0
 11 12  1  0  0  0  0
 11 26  1  0  0  0  0
 12 13  1  0  0  0  0
 12 27  1  0  0  0  0
 12 28  1  0  0  0  0
 13 17  1  0  0  0  0
 13 14  1  0  0  0  0
 13 29  1  0  0  0  0
 14 15  1  0  0  0  0
 14 30  1  0  0  0  0
 14 31  1  0  0  0  0
 15 16  1  0  0  0  0
 15 32  1  0  0  0  0
 15 33  1  0  0  0  0
 16 17  1  0  0  0  0
 16 34  1  0  0  0  0
 16 35  1  0  0  0  0
M  CHG  1   9   1
M  END
> <s_m_source_file>
AV-unprocessed.smi

> <i_m_source_file_index>
3169

> <i_lp_mmshare_version>
43012

> <i_f3d_flags>
0

> <s_epik_input>
TzFbQ0gyXVtDSDJdW0NIMl1bQ0BIXTFbQ0gyXVtOSF1DKD1PKVtOSF1bQ0gyXVtDSDJdbjJbY0hdW2NIXW5bY0hdMg==

> <s_epik_cmdline>
J2VwaWtfcHl0aG9uJywgJy1waCcsICc3LjAnLCAnLXRuJywgJzgnLCAnLW1hJywgJzIwMCcsICctbWV0YWxfYmluZGluZycsICctaW1hZScsICc8aW5maWxlLm1hZT4nLCAnLW9tYWUnLCAnPG91dGZpbGUubWFlPic=

> <r_lp_tautomer_probability>
1

> <r_epik_Ionization_Penalty>
0.256136

> <r_epik_Ionization_Penalty_Charging>
0

> <r_epik_Ionization_Penalty_Neutral>
0.256136

> <r_epik_State_Penalty>
0.247629

> <r_epik_Charging_Adjusted_Penalty>
0.247629

> <i_epik_Tot_Q>
1

> <i_epik_Tot_abs_Q>
1

> <r_epik_Metal_State_Penalty>
0.537113

> <b_epik_Metal_Only>
0

> <s_lp_Force_Field>
OPLS_2005

> <r_lp_Energy>
16.1594

> <b_lp_Chiralities_Consistent>
1

> <s_lp_Variant>
AV-unprocessed.smi:3169-2

> <Gold.Version>
5.8.1

> <Gold.Id.Protein>
6NUR|6NUR_protein|mol2

> <Gold.PLP.Fitness>
47.2694

> <Gold.PLP.PLP>
-31.8668

> <Gold.PLP.part.hbond>
-5.0000

> <Gold.PLP.part.metal>
0.0000

> <Gold.PLP.part.buried>
-1.1025

> <Gold.PLP.part.nonpolar>
-27.0641

> <Gold.PLP.part.repulsive>
0.3309

> <Gold.PLP.ligand.clash>
0.0000

> <Gold.PLP.ligand.torsion>
1.1521

> <Gold.PLP.Chemscore.Hbond>
4.8960

> <Gold.PLP.Chemscore.CHOScore>
1.0000

> <Gold.PLP.Chemscore.Metal>
0.0000

> <Gold.Chemscore.Hbonds>
donor molecule, donor type, donor heavy atom, donor atom, acceptor molecule, acceptor atom, score
      L1  H     3    18       P1  7948  1.00
      L1  H     9    36       P1 10957  1.80
      L1  H    11    26       P1  7948  0.82
      P1  H  7989  7998       L1    17  1.00
      L1  C     7    23       P1  7921  1.00

> <Gold.PLP.Chemscore.Internal.Correction>
0.0187

> <Gold.Rescore>
     Score         DG    S(hbond)    S(metal)    S(lipo)     H(rot)  DE(clash)    DE(int)     intcor
     16.77     -19.40       3.79        0.00      61.82       2.33       1.50       1.12       ----

> <Gold.Chemscore.Fitness>
16.7689

> <Gold.Chemscore.DG>
-19.3971

> <Gold.Chemscore.ZeroCoef>
-5.4800

> <Gold.Chemscore.Hbond>
3.7862

> <Gold.Chemscore.Metal>
0.0000

> <Gold.Chemscore.Lipo>
61.8205

> <Gold.Chemscore.Internal_Hbond>
0.0000

> <Gold.Chemscore.DEClash>
1.5043

> <Gold.Chemscore.DEInternal>
1.1239

> <Gold.Chemscore.Rot>
2.3288

> <Gold.Chemscore.Internal.Correction>
   9.000000E+99

> <Gold.Chemscore.Hbonds>
donor molecule, donor type, donor heavy atom, donor atom, acceptor molecule, acceptor atom, score
      L1  H     3    18       P1  7948  0.94
      L1  H     9    36       P1 10957  0.17
      L1  H    11    26       P1  7948  0.81
      P1  H  7989  7998       L1    17  0.35

> <Gold.Chemscore.Hbond.Weighted>
-12.6458

> <Gold.Chemscore.Metal.Weighted>
-0.0000

> <Gold.Chemscore.Lipo.Weighted>
-7.2330

> <Gold.Chemscore.Internal_Hbond.Weighted>
0.0000

> <Gold.Chemscore.DEClash.Weighted>
1.5043

> <Gold.Chemscore.DEInternal.Weighted>
1.1239

> <Gold.Chemscore.Rot.Weighted>
5.9617

> <Gold.Chemscore.Internal.Correction.Weighted>
   9.000000E+99

> <Gold.Protein.RotatedTorsions>
[ 6907 6896 6895 6894 ] final  147.70 input  -60.11 | X-H torsion
[ 7974 7965 7964 7962 ] final -109.06 input  175.53 | X-H torsion
[ 8008 7997 7996 7995 ] final  104.81 input   59.86 | X-H torsion
[ 10167 10162 10161 10158 ] final -111.00 input  -65.29 | X-H torsion
[ 10718 10713 10712 10709 ] final -150.88 input   66.30 | X-H torsion
[ 10763 10752 10751 10750 ] final   19.46 input  -60.55 | X-H torsion
[ 11005 11000 10999 10996 ] final   91.06 input  -57.11 | X-H torsion

> <Gold.Protein.ActiveResidues>
 VAL166  LYS551  ARG553  GLY616  TRP617  ASP618  TYR619  PRO620  LYS621  CYS622 
 ASP623  PHE694  ASN695  SER759  ASP760  ASP761  ALA762  ILE779  LEU786  VAL792 
 PHE793  MET794  SER795  GLU796  ALA797  LYS798  CYS799  TRP800  GLU811  SER814 

> <Gold.Protein.RotatedAtoms>
  152.1513  133.4523  159.4814 H   0  0  0  0  0  0  0  0  0  0  0  0  # atno 6907 bound_to 6896
  150.6896  134.2186  159.4397 H   0  0  0  0  0  0  0  0  0  0  0  0  # atno 6908 bound_to 6896
  152.0083  134.9890  160.0618 H   0  0  0  0  0  0  0  0  0  0  0  0  # atno 6909 bound_to 6896
  145.1852  140.8989  143.3457 H   0  0  0  0  0  0  0  0  0  0  0  0  # atno 7974 bound_to 7965
  156.1605  140.3141  155.8799 H   0  0  0  0  0  0  0  0  0  0  0  0  # atno 8008 bound_to 7997
  155.3791  140.0486  157.3061 H   0  0  0  0  0  0  0  0  0  0  0  0  # atno 8009 bound_to 7997
  154.5142  140.2175  155.9109 H   0  0  0  0  0  0  0  0  0  0  0  0  # atno 8010 bound_to 7997
  140.1384  143.4300  152.1579 H   0  0  0  0  0  0  0  0  0  0  0  0  # atno 10167 bound_to 10162
  156.4519  130.8172  151.2403 H   0  0  0  0  0  0  0  0  0  0  0  0  # atno 10718 bound_to 10713
  153.1160  135.6708  153.9417 H   0  0  0  0  0  0  0  0  0  0  0  0  # atno 10763 bound_to 10752
  153.8946  135.3043  155.3449 H   0  0  0  0  0  0  0  0  0  0  0  0  # atno 10764 bound_to 10752
  154.7576  135.5004  153.9482 H   0  0  0  0  0  0  0  0  0  0  0  0  # atno 10765 bound_to 10752
  139.8845  134.8651  156.3374 H   0  0  0  0  0  0  0  0  0  0  0  0  # atno 11005 bound_to 11000
  145.0096  139.3522  143.6126 LP  0  0  0  0  0  0  0  0  0  0  0  0  # atno 17320 bound_to 7965
  146.3446  139.9353  142.8748 LP  0  0  0  0  0  0  0  0  0  0  0  0  # atno 17321 bound_to 7965
  139.5484  144.7318  151.4510 LP  0  0  0  0  0  0  0  0  0  0  0  0  # atno 17342 bound_to 10162
  140.6775  143.8156  150.7078 LP  0  0  0  0  0  0  0  0  0  0  0  0  # atno 17343 bound_to 10162
  157.7502  131.0135  150.3427 LP  0  0  0  0  0  0  0  0  0  0  0  0  # atno 17370 bound_to 10713
  156.3807  130.3880  149.7104 LP  0  0  0  0  0  0  0  0  0  0  0  0  # atno 17371 bound_to 10713
  140.9682  133.7344  156.0497 LP  0  0  0  0  0  0  0  0  0  0  0  0  # atno 17394 bound_to 11000
  140.7904  134.3623  157.5466 LP  0  0  0  0  0  0  0  0  0  0  0  0  # atno 17395 bound_to 11000

$$$$
