AV-unprocessed.smi:1213|AV-procd|sdf|5090|dock6
  -GOLD-   22720 4143D 1   1.00000     0.00000
 Structure written by MMmdl.
 36 37  0  0  0  0  0  0  0  0  3 V2000
  144.8712  135.8629  149.8582 N   0  0  0  0  0  0  0  0  0  0  0  0
  145.4216  135.4046  150.9846 C   0  0  0  0  0  0  0  0  0  0  0  0
  146.1770  134.4342  150.9966 O   0  0  0  0  0  0  0  0  0  0  0  0
  145.0852  136.1599  152.2749 C   0  0  0  0  0  0  0  0  0  0  0  0
  146.2326  136.9346  152.8142 N   0  3  2  0  0  0  0  0  0  0  0  0
  146.3582  136.8405  154.2937 C   0  0  0  0  0  0  0  0  0  0  0  0
  147.6338  137.5428  154.7868 C   0  0  0  0  0  0  0  0  0  0  0  0
  147.6648  139.0118  154.3367 C   0  0  1  0  0  0  0  0  0  0  0  0
  148.9209  139.6298  154.7496 N   0  0  0  0  0  0  0  0  0  0  0  0
  149.3248  140.8709  154.4431 C   0  0  0  0  0  0  0  0  0  0  0  0
  148.6085  141.5976  153.7504 O   0  0  0  0  0  0  0  0  0  0  0  0
  150.5342  141.1892  154.9557 N   0  5  0  0  0  0  0  0  0  0  0  0
  150.7041  141.2521  156.2864 C   0  0  0  0  0  0  0  0  0  0  0  0
  150.5819  140.1881  157.0881 N   0  0  0  0  0  0  0  0  0  0  0  0
  150.8080  140.4788  158.4348 C   0  0  0  0  0  0  0  0  0  0  0  0
  151.1176  141.7935  158.6627 C   0  0  0  0  0  0  0  0  0  0  0  0
  151.1347  142.7110  157.1837 S   0  0  0  0  0  0  0  0  0  0  0  0
  147.4946  139.0851  152.8084 C   0  0  0  0  0  0  0  0  0  0  0  0
  146.2250  138.3471  152.3556 C   0  0  0  0  0  0  0  0  0  0  0  0
  145.0669  135.4002  148.9816 H   0  0  0  0  0  0  0  0  0  0  0  0
  144.2650  136.6705  149.8791 H   0  0  0  0  0  0  0  0  0  0  0  0
  144.2662  136.8385  152.0325 H   0  0  0  0  0  0  0  0  0  0  0  0
  144.7077  135.4727  153.0341 H   0  0  0  0  0  0  0  0  0  0  0  0
  145.4805  137.2863  154.7645 H   0  0  0  0  0  0  0  0  0  0  0  0
  146.3843  135.7958  154.6044 H   0  0  0  0  0  0  0  0  0  0  0  0
  147.6904  137.4835  155.8744 H   0  0  0  0  0  0  0  0  0  0  0  0
  148.5087  137.0164  154.4022 H   0  0  0  0  0  0  0  0  0  0  0  0
  146.8347  139.5345  154.8160 H   0  0  0  0  0  0  0  0  0  0  0  0
  149.5403  139.0729  155.3203 H   0  0  0  0  0  0  0  0  0  0  0  0
  150.7286  139.6866  159.1643 H   0  0  0  0  0  0  0  0  0  0  0  0
  151.3364  142.2755  159.6034 H   0  0  0  0  0  0  0  0  0  0  0  0
  147.4485  140.1246  152.4818 H   0  0  0  0  0  0  0  0  0  0  0  0
  148.3647  138.6464  152.3171 H   0  0  0  0  0  0  0  0  0  0  0  0
  146.1631  138.3818  151.2674 H   0  0  0  0  0  0  0  0  0  0  0  0
  145.3377  138.8519  152.7409 H   0  0  0  0  0  0  0  0  0  0  0  0
  147.0641  136.5149  152.4223 H   0  0  0  0  0  0  0  0  0  0  0  0
  1  2  1  0  0  0  0
  1 20  1  0  0  0  0
  1 21  1  0  0  0  0
  2  3  2  0  0  0  0
  2  4  1  0  0  0  0
  4  5  1  0  0  0  0
  4 22  1  0  0  0  0
  4 23  1  0  0  0  0
  5 19  1  0  0  0  0
  5  6  1  0  0  0  0
  5 36  1  0  0  0  0
  6  7  1  0  0  0  0
  6 24  1  0  0  0  0
  6 25  1  0  0  0  0
  7  8  1  0  0  0  0
  7 26  1  0  0  0  0
  7 27  1  0  0  0  0
  8  9  1  0  0  0  0
  8 18  1  0  0  0  0
  8 28  1  0  0  0  0
  9 10  1  0  0  0  0
  9 29  1  0  0  0  0
 10 11  2  0  0  0  0
 10 12  1  0  0  0  0
 12 13  1  0  0  0  0
 13 17  1  0  0  0  0
 13 14  2  0  0  0  0
 14 15  1  0  0  0  0
 15 16  2  0  0  0  0
 15 30  1  0  0  0  0
 16 17  1  0  0  0  0
 16 31  1  0  0  0  0
 18 19  1  0  0  0  0
 18 32  1  0  0  0  0
 18 33  1  0  0  0  0
 19 34  1  0  0  0  0
 19 35  1  0  0  0  0
M  CHG  1   5   1
M  CHG  1  12  -1
M  END
> <s_m_source_file>
AV-unprocessed.smi

> <i_m_source_file_index>
1213

> <i_lp_mmshare_version>
43012

> <i_f3d_flags>
0

> <s_epik_input>
W05IMl1DKD1PKVtDSDJdTjFbQ0gyXVtDSDJdW0NIXShbQ0gyXVtDSDJdMSlbTkhdQyg9TylbTkhdYzJuW2NIXVtjSF1zMg==

> <s_epik_cmdline>
J2VwaWtfcHl0aG9uJywgJy1waCcsICc3LjAnLCAnLXRuJywgJzgnLCAnLW1hJywgJzIwMCcsICctbWV0YWxfYmluZGluZycsICctaW1hZScsICc8aW5maWxlLm1hZT4nLCAnLW9tYWUnLCAnPG91dGZpbGUubWFlPic=

> <r_lp_tautomer_probability>
0.999

> <r_epik_Ionization_Penalty>
7.1168

> <r_epik_Ionization_Penalty_Charging>
6.25003

> <r_epik_Ionization_Penalty_Neutral>
0.866763

> <r_epik_State_Penalty>
6.33484

> <r_epik_Charging_Adjusted_Penalty>
12.5849

> <i_epik_Tot_Q>
0

> <i_epik_Tot_abs_Q>
2

> <r_epik_Metal_State_Penalty>
2.3501

> <b_epik_Metal_Only>
1

> <s_lp_Force_Field>
OPLS_2005

> <r_lp_Energy>
2.02951

> <b_lp_Chiralities_Consistent>
1

> <s_lp_Variant>
AV-unprocessed.smi:1213-7

> <Gold.Version>
5.8.1

> <Gold.Id.Protein>
6NUR|6NUR_protein|mol2

> <Gold.PLP.Fitness>
39.6014

> <Gold.PLP.PLP>
-26.8097

> <Gold.PLP.part.hbond>
-5.0000

> <Gold.PLP.part.metal>
0.0000

> <Gold.PLP.part.buried>
-1.1106

> <Gold.PLP.part.nonpolar>
-21.1982

> <Gold.PLP.part.repulsive>
0.8768

> <Gold.PLP.ligand.clash>
0.0000

> <Gold.PLP.ligand.torsion>
1.8666

> <Gold.PLP.Chemscore.Hbond>
5.4928

> <Gold.PLP.Chemscore.CHOScore>
0.0000

> <Gold.PLP.Chemscore.Metal>
0.0000

> <Gold.Chemscore.Hbonds>
donor molecule, donor type, donor heavy atom, donor atom, acceptor molecule, acceptor atom, score
      L1  H     1    20       P1  7921  1.00
      L1  H     1    21       P1 10171  1.00
      L1  H     5    36       P1  7948  2.00
      P1  H  7989  7998       L1    12  0.61
      P1  H  8011  8017       L1    11  0.66

> <Gold.PLP.Chemscore.Internal.Correction>
0.0466

> <Gold.Rescore>
     Score         DG    S(hbond)    S(metal)    S(lipo)     H(rot)  DE(clash)    DE(int)     intcor
     12.76     -17.16       3.27        0.00      50.93       2.04       2.30       2.10       ----

> <Gold.Chemscore.Fitness>
12.7571

> <Gold.Chemscore.DG>
-17.1575

> <Gold.Chemscore.ZeroCoef>
-5.4800

> <Gold.Chemscore.Hbond>
3.2738

> <Gold.Chemscore.Metal>
0.0000

> <Gold.Chemscore.Lipo>
50.9260

> <Gold.Chemscore.Internal_Hbond>
0.0000

> <Gold.Chemscore.DEClash>
2.2955

> <Gold.Chemscore.DEInternal>
2.1048

> <Gold.Chemscore.Rot>
2.0373

> <Gold.Chemscore.Internal.Correction>
   9.000000E+99

> <Gold.Chemscore.Hbonds>
donor molecule, donor type, donor heavy atom, donor atom, acceptor molecule, acceptor atom, score
      L1  H     1    20       P1  7921  0.98
      L1  H     1    21       P1 10171  0.97
      L1  H     5    36       P1  7948  0.98
      P1  H  7989  7998       L1    12  0.18
      P1  H  8011  8017       L1    11  0.41

> <Gold.Chemscore.Hbond.Weighted>
-10.9345

> <Gold.Chemscore.Metal.Weighted>
-0.0000

> <Gold.Chemscore.Lipo.Weighted>
-5.9583

> <Gold.Chemscore.Internal_Hbond.Weighted>
0.0000

> <Gold.Chemscore.DEClash.Weighted>
2.2955

> <Gold.Chemscore.DEInternal.Weighted>
2.1048

> <Gold.Chemscore.Rot.Weighted>
5.2154

> <Gold.Chemscore.Internal.Correction.Weighted>
   9.000000E+99

> <Gold.Protein.RotatedTorsions>
[ 6907 6896 6895 6894 ] final   78.20 input  -60.11 | X-H torsion
[ 7974 7965 7964 7962 ] final  156.10 input  175.53 | X-H torsion
[ 8008 7997 7996 7995 ] final  111.07 input   59.86 | X-H torsion
[ 10167 10162 10161 10158 ] final  -40.80 input  -65.29 | X-H torsion
[ 10718 10713 10712 10709 ] final   53.06 input   66.30 | X-H torsion
[ 10763 10752 10751 10750 ] final  107.62 input  -60.55 | X-H torsion
[ 11005 11000 10999 10996 ] final   59.53 input  -57.11 | X-H torsion

> <Gold.Protein.ActiveResidues>
 VAL166  LYS551  ARG553  GLY616  TRP617  ASP618  TYR619  PRO620  LYS621  CYS622 
 ASP623  PHE694  ASN695  SER759  ASP760  ASP761  ALA762  ILE779  LEU786  VAL792 
 PHE793  MET794  SER795  GLU796  ALA797  LYS798  CYS799  TRP800  GLU811  SER814 

> <Gold.Protein.RotatedAtoms>
  152.5149  134.3701  159.9314 H   0  0  0  0  0  0  0  0  0  0  0  0  # atno 6907 bound_to 6896
  151.3655  133.3867  159.2702 H   0  0  0  0  0  0  0  0  0  0  0  0  # atno 6908 bound_to 6896
  150.9618  134.9024  159.7793 H   0  0  0  0  0  0  0  0  0  0  0  0  # atno 6909 bound_to 6896
  144.7984  139.7158  143.6192 H   0  0  0  0  0  0  0  0  0  0  0  0  # atno 7974 bound_to 7965
  156.2098  140.3026  155.9708 H   0  0  0  0  0  0  0  0  0  0  0  0  # atno 8008 bound_to 7997
  155.2751  140.0435  157.3027 H   0  0  0  0  0  0  0  0  0  0  0  0  # atno 8009 bound_to 7997
  154.5684  140.2341  155.8237 H   0  0  0  0  0  0  0  0  0  0  0  0  # atno 8010 bound_to 7997
  140.7023  143.3132  151.2975 H   0  0  0  0  0  0  0  0  0  0  0  0  # atno 10167 bound_to 10162
  157.5132  130.8514  149.8461 H   0  0  0  0  0  0  0  0  0  0  0  0  # atno 10718 bound_to 10713
  153.4093  135.3838  155.2039 H   0  0  0  0  0  0  0  0  0  0  0  0  # atno 10763 bound_to 10752
  154.8736  135.3790  154.4521 H   0  0  0  0  0  0  0  0  0  0  0  0  # atno 10764 bound_to 10752
  153.5028  135.7088  153.5885 H   0  0  0  0  0  0  0  0  0  0  0  0  # atno 10765 bound_to 10752
  140.0297  134.6030  155.9523 H   0  0  0  0  0  0  0  0  0  0  0  0  # atno 11005 bound_to 11000
  146.2258  139.5720  142.9588 LP  0  0  0  0  0  0  0  0  0  0  0  0  # atno 17320 bound_to 7965
  145.5616  141.0404  143.2223 LP  0  0  0  0  0  0  0  0  0  0  0  0  # atno 17321 bound_to 7965
  139.6562  144.0272  152.2661 LP  0  0  0  0  0  0  0  0  0  0  0  0  # atno 17342 bound_to 10162
  139.9824  144.6419  150.7888 LP  0  0  0  0  0  0  0  0  0  0  0  0  # atno 17343 bound_to 10162
  156.0303  130.3767  150.1707 LP  0  0  0  0  0  0  0  0  0  0  0  0  # atno 17370 bound_to 10713
  156.9897  130.9889  151.3418 LP  0  0  0  0  0  0  0  0  0  0  0  0  # atno 17371 bound_to 10713
  141.1824  133.6549  156.5075 LP  0  0  0  0  0  0  0  0  0  0  0  0  # atno 17394 bound_to 11000
  140.4246  134.7157  157.4908 LP  0  0  0  0  0  0  0  0  0  0  0  0  # atno 17395 bound_to 11000

$$$$
