AV-unprocessed.smi:104|AV-procd|sdf|998|dock3
  -GOLD-   2262017583D 1   1.00000     0.00000
 Structure written by MMmdl.
 47 49  0  0  0  0  0  0  0  0  1 V2000
  151.0471  141.9631  157.3961 C   0  0  0  0  0  0  0  0  0  0  0  0
  151.4113  140.4853  157.4480 C   0  0  0  0  0  0  0  0  0  0  0  0
  152.4858  140.0760  157.0099 O   0  0  0  0  0  0  0  0  0  0  0  0
  150.4433  139.7388  158.0088 O   0  0  0  0  0  0  0  0  0  0  0  0
  150.5846  138.3291  158.1259 C   0  0  0  0  0  0  0  0  0  0  0  0
  149.2996  137.6982  158.6918 C   0  0  1  0  0  0  0  0  0  0  0  0
  148.1430  138.2516  158.0886 O   0  0  0  0  0  0  0  0  0  0  0  0
  147.0709  137.4331  158.4257 C   0  0  1  0  0  0  0  0  0  0  0  0
  146.0496  137.5208  157.3413 N   0  0  0  0  0  0  0  0  0  0  0  0
  144.7395  137.9378  157.4062 C   0  0  0  0  0  0  0  0  0  0  0  0
  143.9300  138.5150  159.0307 Br  0  0  0  0  0  0  0  0  0  0  0  0
  144.0522  137.9115  156.2984 N   0  0  0  0  0  0  0  0  0  0  0  0
  144.9735  137.4272  155.3777 C   0  0  0  0  0  0  0  0  0  0  0  0
  144.9231  137.1385  153.9907 C   0  0  0  0  0  0  0  0  0  0  0  0
  143.8228  137.3157  153.2468 N   0  0  0  0  0  0  0  0  0  0  0  0
  146.0370  136.6601  153.3880 N   0  0  0  0  0  0  0  0  0  0  0  0
  147.1484  136.4738  154.1078 C   0  0  0  0  0  0  0  0  0  0  0  0
  147.3484  136.6992  155.4088 N   0  0  0  0  0  0  0  0  0  0  0  0
  146.2241  137.1811  156.0156 C   0  0  0  0  0  0  0  0  0  0  0  0
  147.6070  135.9973  158.5461 C   0  0  2  0  0  0  0  0  0  0  0  0
  147.2208  135.4103  159.7812 O   0  0  0  0  0  0  0  0  0  0  0  0
  147.4475  136.0610  160.9357 C   0  0  0  0  0  0  0  0  0  0  0  0
  147.1341  135.2054  162.1555 C   0  0  0  0  0  0  0  0  0  0  0  0
  147.8686  137.2123  161.0486 O   0  0  0  0  0  0  0  0  0  0  0  0
  149.1226  136.1856  158.5060 C   0  0  1  0  0  0  0  0  0  0  0  0
  149.6283  135.7541  157.2478 O   0  0  0  0  0  0  0  0  0  0  0  0
  149.9697  134.4688  157.0540 C   0  0  0  0  0  0  0  0  0  0  0  0
  150.4699  134.2115  155.6393 C   0  0  0  0  0  0  0  0  0  0  0  0
  149.9002  133.5668  157.8887 O   0  0  0  0  0  0  0  0  0  0  0  0
  151.2996  142.4463  158.3397 H   0  0  0  0  0  0  0  0  0  0  0  0
  149.9793  142.0892  157.2159 H   0  0  0  0  0  0  0  0  0  0  0  0
  151.5921  142.4620  156.5944 H   0  0  0  0  0  0  0  0  0  0  0  0
  150.7417  137.9496  157.1163 H   0  0  0  0  0  0  0  0  0  0  0  0
  151.4688  138.0395  158.6954 H   0  0  0  0  0  0  0  0  0  0  0  0
  149.2316  137.9329  159.7561 H   0  0  0  0  0  0  0  0  0  0  0  0
  146.5895  137.8003  159.3320 H   0  0  0  0  0  0  0  0  0  0  0  0
  142.9791  137.6704  153.6737 H   0  0  0  0  0  0  0  0  0  0  0  0
  143.8386  137.0929  152.2620 H   0  0  0  0  0  0  0  0  0  0  0  0
  147.9988  136.0891  153.5645 H   0  0  0  0  0  0  0  0  0  0  0  0
  147.2726  135.3909  157.7023 H   0  0  0  0  0  0  0  0  0  0  0  0
  147.8256  134.3648  162.2145 H   0  0  0  0  0  0  0  0  0  0  0  0
  146.1176  134.8163  162.0957 H   0  0  0  0  0  0  0  0  0  0  0  0
  147.2258  135.7930  163.0691 H   0  0  0  0  0  0  0  0  0  0  0  0
  149.6287  135.6469  159.3091 H   0  0  0  0  0  0  0  0  0  0  0  0
  151.3922  134.7638  155.4593 H   0  0  0  0  0  0  0  0  0  0  0  0
  149.7249  134.5324  154.9109 H   0  0  0  0  0  0  0  0  0  0  0  0
  150.6666  133.1498  155.4886 H   0  0  0  0  0  0  0  0  0  0  0  0
  1  2  1  0  0  0  0
  1 30  1  0  0  0  0
  1 31  1  0  0  0  0
  1 32  1  0  0  0  0
  2  3  2  0  0  0  0
  2  4  1  0  0  0  0
  4  5  1  0  0  0  0
  5  6  1  0  0  0  0
  5 33  1  0  0  0  0
  5 34  1  0  0  0  0
  6 25  1  0  0  0  0
  6  7  1  0  0  0  0
  6 35  1  0  0  0  0
  7  8  1  0  0  0  0
  8  9  1  0  0  0  0
  8 20  1  0  0  0  0
  8 36  1  0  0  0  0
  9 19  1  0  0  0  0
  9 10  1  0  0  0  0
 10 11  1  0  0  0  0
 10 12  2  0  0  0  0
 12 13  1  0  0  0  0
 13 19  2  0  0  0  0
 13 14  1  0  0  0  0
 14 15  1  0  0  0  0
 14 16  2  0  0  0  0
 15 37  1  0  0  0  0
 15 38  1  0  0  0  0
 16 17  1  0  0  0  0
 17 18  2  0  0  0  0
 17 39  1  0  0  0  0
 18 19  1  0  0  0  0
 20 21  1  0  0  0  0
 20 25  1  0  0  0  0
 20 40  1  0  0  0  0
 21 22  1  0  0  0  0
 22 23  1  0  0  0  0
 22 24  2  0  0  0  0
 23 41  1  0  0  0  0
 23 42  1  0  0  0  0
 23 43  1  0  0  0  0
 25 26  1  0  0  0  0
 25 44  1  0  0  0  0
 26 27  1  0  0  0  0
 27 28  1  0  0  0  0
 27 29  2  0  0  0  0
 28 45  1  0  0  0  0
 28 46  1  0  0  0  0
 28 47  1  0  0  0  0
M  END
> <s_m_source_file>
AV-unprocessed.smi

> <i_m_source_file_index>
104

> <i_lp_mmshare_version>
43012

> <i_f3d_flags>
0

> <s_epik_input>
W0NIM11DKD1PKU9bQ0gyXVtDQEBIXTFPW0NASF0oW0NAQEhdKE9DKD1PKVtDSDNdKVtDQEhdMU9DKD1PKVtDSDNdKW4oYyhCciluMiljKGMyMyluW2NIXW5jM1tOSDJd

> <s_epik_cmdline>
J2VwaWtfcHl0aG9uJywgJy1waCcsICc3LjAnLCAnLXRuJywgJzgnLCAnLW1hJywgJzIwMCcsICctbWV0YWxfYmluZGluZycsICctaW1hZScsICc8aW5maWxlLm1hZT4nLCAnLW9tYWUnLCAnPG91dGZpbGUubWFlPic=

> <r_lp_tautomer_probability>
1

> <r_epik_Ionization_Penalty>
7.36622e-05

> <r_epik_Ionization_Penalty_Charging>
0

> <r_epik_Ionization_Penalty_Neutral>
7.36622e-05

> <r_epik_State_Penalty>
-0

> <r_epik_Charging_Adjusted_Penalty>
0

> <i_epik_Tot_Q>
0

> <i_epik_Tot_abs_Q>
0

> <r_epik_Metal_State_Penalty>
-0

> <b_epik_Metal_Only>
0

> <s_epik_Chemistry_Notes>
This compound has an ester and may undergo hydrolysis at high or low pH. This compound contains an acetal/aminal-like group ( X-CH(R)-Y where X, Y are N, S, or O) that may be acid/base labile, releasing an aldehyde.

> <s_lp_Force_Field>
OPLS_2005

> <r_lp_Energy>
14.1863

> <b_lp_Chiralities_Consistent>
1

> <s_lp_Variant>
AV-unprocessed.smi:104-6

> <Gold.Version>
5.8.1

> <Gold.Id.Protein>
6NUR|6NUR_protein|mol2

> <Gold.PLP.Fitness>
39.5351

> <Gold.PLP.PLP>
-26.0610

> <Gold.PLP.part.hbond>
-5.6174

> <Gold.PLP.part.metal>
0.0000

> <Gold.PLP.part.buried>
-4.6811

> <Gold.PLP.part.nonpolar>
-15.9100

> <Gold.PLP.part.repulsive>
0.1845

> <Gold.PLP.ligand.clash>
0.0000

> <Gold.PLP.ligand.torsion>
0.4952

> <Gold.PLP.Chemscore.Hbond>
3.7360

> <Gold.PLP.Chemscore.CHOScore>
1.0000

> <Gold.PLP.Chemscore.Metal>
0.0000

> <Gold.Chemscore.Hbonds>
donor molecule, donor type, donor heavy atom, donor atom, acceptor molecule, acceptor atom, score
      P1  H  6896  6909       L1    29  1.00
      P1  H  6931  6943       L1    24  0.93
      P1  H  6934  6947       L1    24  0.78
      P1  H  7997  8008       L1     3  1.00
      L1  C    17    39       P1  7948  0.81

> <Gold.PLP.Chemscore.Internal.Correction>
0.2565

> <Gold.Rescore>
     Score         DG    S(hbond)    S(metal)    S(lipo)     H(rot)  DE(clash)    DE(int)     intcor
      7.49     -10.95       3.75        0.00      33.84       4.31       0.00       3.46       ----

> <Gold.Chemscore.Fitness>
7.4922

> <Gold.Chemscore.DG>
-10.9497

> <Gold.Chemscore.ZeroCoef>
-5.4800

> <Gold.Chemscore.Hbond>
3.7533

> <Gold.Chemscore.Metal>
0.0000

> <Gold.Chemscore.Lipo>
33.8411

> <Gold.Chemscore.Internal_Hbond>
0.0000

> <Gold.Chemscore.DEClash>
0.0009

> <Gold.Chemscore.DEInternal>
3.4566

> <Gold.Chemscore.Rot>
4.3070

> <Gold.Chemscore.Internal.Correction>
   9.000000E+99

> <Gold.Chemscore.Hbonds>
donor molecule, donor type, donor heavy atom, donor atom, acceptor molecule, acceptor atom, score
      P1  H  6896  6909       L1    29  0.95
      P1  H  6931  6943       L1    24  0.90
      P1  H  6934  6947       L1    24  0.77
      P1  H  7997  8008       L1     3  0.98

> <Gold.Chemscore.Hbond.Weighted>
-12.5362

> <Gold.Chemscore.Metal.Weighted>
-0.0000

> <Gold.Chemscore.Lipo.Weighted>
-3.9594

> <Gold.Chemscore.Internal_Hbond.Weighted>
0.0000

> <Gold.Chemscore.DEClash.Weighted>
0.0009

> <Gold.Chemscore.DEInternal.Weighted>
3.4566

> <Gold.Chemscore.Rot.Weighted>
11.0259

> <Gold.Chemscore.Internal.Correction.Weighted>
   9.000000E+99

> <Gold.Protein.RotatedTorsions>
[ 6907 6896 6895 6894 ] final  -11.15 input  -60.11 | X-H torsion
[ 7974 7965 7964 7962 ] final  108.01 input  175.53 | X-H torsion
[ 8008 7997 7996 7995 ] final  -60.61 input   59.86 | X-H torsion
[ 10167 10162 10161 10158 ] final  151.92 input  -65.29 | X-H torsion
[ 10718 10713 10712 10709 ] final  -69.10 input   66.30 | X-H torsion
[ 10763 10752 10751 10750 ] final -109.91 input  -60.55 | X-H torsion
[ 11005 11000 10999 10996 ] final  169.57 input  -57.11 | X-H torsion

> <Gold.Protein.ActiveResidues>
 VAL166  LYS551  ARG553  GLY616  TRP617  ASP618  TYR619  PRO620  LYS621  CYS622 
 ASP623  PHE694  ASN695  SER759  ASP760  ASP761  ALA762  ILE779  LEU786  VAL792 
 PHE793  MET794  SER795  GLU796  ALA797  LYS798  CYS799  TRP800  GLU811  SER814 

> <Gold.Protein.RotatedAtoms>
  151.3908  135.0955  159.9525 H   0  0  0  0  0  0  0  0  0  0  0  0  # atno 6907 bound_to 6896
  152.5080  133.8982  159.7438 H   0  0  0  0  0  0  0  0  0  0  0  0  # atno 6908 bound_to 6896
  150.9435  133.6574  159.2814 H   0  0  0  0  0  0  0  0  0  0  0  0  # atno 6909 bound_to 6896
  145.2862  139.2615  143.3889 H   0  0  0  0  0  0  0  0  0  0  0  0  # atno 7974 bound_to 7965
  154.4407  140.1036  156.6300 H   0  0  0  0  0  0  0  0  0  0  0  0  # atno 8008 bound_to 7997
  155.5615  140.3487  155.4474 H   0  0  0  0  0  0  0  0  0  0  0  0  # atno 8009 bound_to 7997
  156.0456  140.1292  157.0096 H   0  0  0  0  0  0  0  0  0  0  0  0  # atno 8010 bound_to 7997
  139.4837  144.5401  151.7579 H   0  0  0  0  0  0  0  0  0  0  0  0  # atno 10167 bound_to 10162
  156.0472  130.4306  150.2098 H   0  0  0  0  0  0  0  0  0  0  0  0  # atno 10718 bound_to 10713
  154.8219  135.4583  154.0804 H   0  0  0  0  0  0  0  0  0  0  0  0  # atno 10763 bound_to 10752
  153.2151  135.6887  153.8074 H   0  0  0  0  0  0  0  0  0  0  0  0  # atno 10764 bound_to 10752
  153.7511  135.3298  155.3298 H   0  0  0  0  0  0  0  0  0  0  0  0  # atno 10765 bound_to 10752
  140.2991  134.7610  157.3902 H   0  0  0  0  0  0  0  0  0  0  0  0  # atno 11005 bound_to 11000
  146.3200  140.3342  142.8643 LP  0  0  0  0  0  0  0  0  0  0  0  0  # atno 17320 bound_to 7965
  144.9211  140.7869  143.5748 LP  0  0  0  0  0  0  0  0  0  0  0  0  # atno 17321 bound_to 7965
  140.4939  144.1269  150.5956 LP  0  0  0  0  0  0  0  0  0  0  0  0  # atno 17342 bound_to 10162
  140.4139  143.2643  151.9798 LP  0  0  0  0  0  0  0  0  0  0  0  0  # atno 17343 bound_to 10162
  157.0186  130.9972  151.3346 LP  0  0  0  0  0  0  0  0  0  0  0  0  # atno 17370 bound_to 10713
  157.5360  130.8089  149.7972 LP  0  0  0  0  0  0  0  0  0  0  0  0  # atno 17371 bound_to 10713
  140.1125  134.5326  155.8253 LP  0  0  0  0  0  0  0  0  0  0  0  0  # atno 17394 bound_to 11000
  141.2131  133.6729  156.6716 LP  0  0  0  0  0  0  0  0  0  0  0  0  # atno 17395 bound_to 11000

$$$$
