AV-unprocessed.smi:1587|AV-procd|sdf|6387|dock5
  -GOLD-   22720 7 23D 1   1.00000     0.00000
 Structure written by MMmdl.
 36 37  0  0  0  0  0  0  0  0  1 V2000
  144.5768  136.7737  152.0600 O   0  0  0  0  0  0  0  0  0  0  0  0
  145.7726  136.5504  151.8687 C   0  0  0  0  0  0  0  0  0  0  0  0
  146.7359  137.4592  152.0795 N   0  0  0  0  0  0  0  0  0  0  0  0
  146.5137  138.8167  152.5626 C   0  0  0  0  0  0  0  0  0  0  0  0
  146.5779  138.8840  154.1002 C   0  0  0  0  0  0  0  0  0  0  0  0
  147.8289  139.4115  154.6415 N   0  0  0  0  0  0  0  0  0  0  0  0
  148.9840  138.5856  154.2958 C   0  0  0  0  0  0  0  0  0  0  0  0
  150.2961  139.1726  154.8456 C   0  0  0  0  0  0  0  0  0  0  0  0
  150.4620  140.5052  154.3723 O   0  0  0  0  0  0  0  0  0  0  0  0
  149.3772  141.3534  154.7337 C   0  0  0  0  0  0  0  0  0  0  0  0
  148.0653  140.7745  154.1767 C   0  0  0  0  0  0  0  0  0  0  0  0
  146.2871  135.3876  151.4309 N   0  0  0  0  0  0  0  0  0  0  0  0
  145.5952  134.1962  151.0844 C   0  0  0  0  0  0  0  0  0  0  0  0
  146.4172  133.1302  150.6537 C   0  0  0  0  0  0  0  0  0  0  0  0
  145.8274  131.9054  150.2851 C   0  0  0  0  0  0  0  0  0  0  0  0
  144.4287  131.7779  150.3563 C   0  0  0  0  0  0  0  0  0  0  0  0
  143.6835  132.8879  150.7947 C   0  0  0  0  0  0  0  0  0  0  0  0
  144.2466  134.0627  151.1484 N   0  0  0  0  0  0  0  0  0  0  0  0
  147.6920  137.1931  151.8957 H   0  0  0  0  0  0  0  0  0  0  0  0
  147.2441  139.4957  152.1191 H   0  0  0  0  0  0  0  0  0  0  0  0
  145.5351  139.1311  152.2016 H   0  0  0  0  0  0  0  0  0  0  0  0
  145.7379  139.4702  154.4764 H   0  0  0  0  0  0  0  0  0  0  0  0
  146.4326  137.8739  154.4860 H   0  0  0  0  0  0  0  0  0  0  0  0
  148.8629  137.5782  154.6924 H   0  0  0  0  0  0  0  0  0  0  0  0
  149.0592  138.4890  153.2115 H   0  0  0  0  0  0  0  0  0  0  0  0
  150.2944  139.1649  155.9366 H   0  0  0  0  0  0  0  0  0  0  0  0
  151.1456  138.5710  154.5222 H   0  0  0  0  0  0  0  0  0  0  0  0
  149.3269  141.4503  155.8195 H   0  0  0  0  0  0  0  0  0  0  0  0
  149.5543  142.3504  154.3307 H   0  0  0  0  0  0  0  0  0  0  0  0
  148.0983  140.7932  153.0862 H   0  0  0  0  0  0  0  0  0  0  0  0
  147.2355  141.4167  154.4738 H   0  0  0  0  0  0  0  0  0  0  0  0
  147.2907  135.3503  151.3323 H   0  0  0  0  0  0  0  0  0  0  0  0
  147.4905  133.2446  150.6053 H   0  0  0  0  0  0  0  0  0  0  0  0
  146.4380  131.0787  149.9536 H   0  0  0  0  0  0  0  0  0  0  0  0
  143.9396  130.8547  150.0824 H   0  0  0  0  0  0  0  0  0  0  0  0
  142.6072  132.8319  150.8628 H   0  0  0  0  0  0  0  0  0  0  0  0
  1  2  2  0  0  0  0
  2  3  1  0  0  0  0
  2 12  1  0  0  0  0
  3  4  1  0  0  0  0
  3 19  1  0  0  0  0
  4  5  1  0  0  0  0
  4 20  1  0  0  0  0
  4 21  1  0  0  0  0
  5  6  1  0  0  0  0
  5 22  1  0  0  0  0
  5 23  1  0  0  0  0
  6 11  1  0  0  0  0
  6  7  1  0  0  0  0
  7  8  1  0  0  0  0
  7 24  1  0  0  0  0
  7 25  1  0  0  0  0
  8  9  1  0  0  0  0
  8 26  1  0  0  0  0
  8 27  1  0  0  0  0
  9 10  1  0  0  0  0
 10 11  1  0  0  0  0
 10 28  1  0  0  0  0
 10 29  1  0  0  0  0
 11 30  1  0  0  0  0
 11 31  1  0  0  0  0
 12 13  1  0  0  0  0
 12 32  1  0  0  0  0
 13 18  1  0  0  0  0
 13 14  2  0  0  0  0
 14 15  1  0  0  0  0
 14 33  1  0  0  0  0
 15 16  2  0  0  0  0
 15 34  1  0  0  0  0
 16 17  1  0  0  0  0
 16 35  1  0  0  0  0
 17 18  2  0  0  0  0
 17 36  1  0  0  0  0
M  END
> <s_m_source_file>
AV-unprocessed.smi

> <i_m_source_file_index>
1587

> <i_lp_mmshare_version>
43012

> <i_f3d_flags>
0

> <s_epik_input>
bjFbY0hdW2NIXVtjSF1bY0hdYzFbTkhdQyg9TylbTkhdW0NIMl1bQ0gyXU4yW0NIMl1bQ0gyXU9bQ0gyXVtDSDJdMg==

> <s_epik_cmdline>
J2VwaWtfcHl0aG9uJywgJy1waCcsICc3LjAnLCAnLXRuJywgJzgnLCAnLW1hJywgJzIwMCcsICctbWV0YWxfYmluZGluZycsICctaW1hZScsICc8aW5maWxlLm1hZT4nLCAnLW9tYWUnLCAnPG91dGZpbGUubWFlPic=

> <r_epik_Ionization_Penalty>
0.266037

> <r_epik_Ionization_Penalty_Charging>
0

> <r_epik_Ionization_Penalty_Neutral>
0.266037

> <r_epik_State_Penalty>
0.257924

> <r_epik_Charging_Adjusted_Penalty>
0.257924

> <i_epik_Tot_Q>
0

> <i_epik_Tot_abs_Q>
0

> <r_epik_Metal_State_Penalty>
0.257923

> <b_epik_Metal_Only>
0

> <s_lp_Force_Field>
OPLS_2005

> <r_lp_Energy>
22.0776

> <b_lp_Chiralities_Consistent>
1

> <s_lp_Variant>
AV-unprocessed.smi:1587-1

> <Gold.Version>
5.8.1

> <Gold.Id.Protein>
6NUR|6NUR_protein|mol2

> <Gold.PLP.Fitness>
42.8275

> <Gold.PLP.PLP>
-32.3297

> <Gold.PLP.part.hbond>
-2.6987

> <Gold.PLP.part.metal>
0.0000

> <Gold.PLP.part.buried>
-4.7171

> <Gold.PLP.part.nonpolar>
-27.7249

> <Gold.PLP.part.repulsive>
2.2158

> <Gold.PLP.ligand.clash>
0.0000

> <Gold.PLP.ligand.torsion>
0.4851

> <Gold.PLP.Chemscore.Hbond>
2.8880

> <Gold.PLP.Chemscore.CHOScore>
0.9260

> <Gold.PLP.Chemscore.Metal>
0.0000

> <Gold.Chemscore.Hbonds>
donor molecule, donor type, donor heavy atom, donor atom, acceptor molecule, acceptor atom, score
      L1  H     3    19       P1  7948  1.00
      L1  H    12    32       P1  7948  0.90
      P1  H  7989  7998       L1     9  0.90
      L1  C    17    36       P1 10186  0.72

> <Gold.PLP.Chemscore.Internal.Correction>
0.0259

> <Gold.Rescore>
     Score         DG    S(hbond)    S(metal)    S(lipo)     H(rot)  DE(clash)    DE(int)     intcor
     17.46     -19.31       2.87        0.00      70.17       1.55       0.09       1.76       ----

> <Gold.Chemscore.Fitness>
17.4555

> <Gold.Chemscore.DG>
-19.3097

> <Gold.Chemscore.ZeroCoef>
-5.4800

> <Gold.Chemscore.Hbond>
2.8693

> <Gold.Chemscore.Metal>
0.0000

> <Gold.Chemscore.Lipo>
70.1721

> <Gold.Chemscore.Internal_Hbond>
0.0000

> <Gold.Chemscore.DEClash>
0.0901

> <Gold.Chemscore.DEInternal>
1.7641

> <Gold.Chemscore.Rot>
1.5484

> <Gold.Chemscore.Internal.Correction>
   9.000000E+99

> <Gold.Chemscore.Hbonds>
donor molecule, donor type, donor heavy atom, donor atom, acceptor molecule, acceptor atom, score
      L1  H     3    19       P1  7948  0.95
      L1  H    12    32       P1  7948  0.75
      P1  H  7989  7998       L1     9  0.82

> <Gold.Chemscore.Hbond.Weighted>
-9.5834

> <Gold.Chemscore.Metal.Weighted>
-0.0000

> <Gold.Chemscore.Lipo.Weighted>
-8.2101

> <Gold.Chemscore.Internal_Hbond.Weighted>
0.0000

> <Gold.Chemscore.DEClash.Weighted>
0.0901

> <Gold.Chemscore.DEInternal.Weighted>
1.7641

> <Gold.Chemscore.Rot.Weighted>
3.9639

> <Gold.Chemscore.Internal.Correction.Weighted>
   9.000000E+99

> <Gold.Protein.RotatedTorsions>
[ 6907 6896 6895 6894 ] final   78.09 input  -60.11 | X-H torsion
[ 7974 7965 7964 7962 ] final -112.93 input  175.53 | X-H torsion
[ 8008 7997 7996 7995 ] final    9.70 input   59.86 | X-H torsion
[ 10167 10162 10161 10158 ] final  -75.79 input  -65.29 | X-H torsion
[ 10718 10713 10712 10709 ] final  153.00 input   66.30 | X-H torsion
[ 10763 10752 10751 10750 ] final  109.14 input  -60.55 | X-H torsion
[ 11005 11000 10999 10996 ] final  -54.04 input  -57.11 | X-H torsion

> <Gold.Protein.ActiveResidues>
 VAL166  LYS551  ARG553  GLY616  TRP617  ASP618  TYR619  PRO620  LYS621  CYS622 
 ASP623  PHE694  ASN695  SER759  ASP760  ASP761  ALA762  ILE779  LEU786  VAL792 
 PHE793  MET794  SER795  GLU796  ALA797  LYS798  CYS799  TRP800  GLU811  SER814 

> <Gold.Protein.RotatedAtoms>
  152.5145  134.3718  159.9320 H   0  0  0  0  0  0  0  0  0  0  0  0  # atno 6907 bound_to 6896
  151.3672  133.3861  159.2703 H   0  0  0  0  0  0  0  0  0  0  0  0  # atno 6908 bound_to 6896
  150.9606  134.9013  159.7786 H   0  0  0  0  0  0  0  0  0  0  0  0  # atno 6909 bound_to 6896
  145.1382  140.8763  143.3718 H   0  0  0  0  0  0  0  0  0  0  0  0  # atno 7974 bound_to 7965
  154.7835  140.2823  155.6045 H   0  0  0  0  0  0  0  0  0  0  0  0  # atno 8008 bound_to 7997
  156.2953  140.2618  156.2594 H   0  0  0  0  0  0  0  0  0  0  0  0  # atno 8009 bound_to 7997
  154.9756  140.0375  157.2244 H   0  0  0  0  0  0  0  0  0  0  0  0  # atno 8010 bound_to 7997
  140.4913  143.2380  151.7903 H   0  0  0  0  0  0  0  0  0  0  0  0  # atno 10167 bound_to 10162
  157.2504  131.0777  151.1733 H   0  0  0  0  0  0  0  0  0  0  0  0  # atno 10718 bound_to 10713
  153.4305  135.3789  155.2167 H   0  0  0  0  0  0  0  0  0  0  0  0  # atno 10763 bound_to 10752
  154.8749  135.3839  154.4274 H   0  0  0  0  0  0  0  0  0  0  0  0  # atno 10764 bound_to 10752
  153.4806  135.7088  153.6003 H   0  0  0  0  0  0  0  0  0  0  0  0  # atno 10765 bound_to 10752
  141.1006  133.6618  156.4261 H   0  0  0  0  0  0  0  0  0  0  0  0  # atno 11005 bound_to 11000
  145.0561  139.3142  143.5904 LP  0  0  0  0  0  0  0  0  0  0  0  0  # atno 17320 bound_to 7965
  146.3508  139.9987  142.8678 LP  0  0  0  0  0  0  0  0  0  0  0  0  # atno 17321 bound_to 7965
  139.4852  144.4646  151.9500 LP  0  0  0  0  0  0  0  0  0  0  0  0  # atno 17342 bound_to 10162
  140.3732  144.2829  150.5917 LP  0  0  0  0  0  0  0  0  0  0  0  0  # atno 17343 bound_to 10162
  157.3284  130.6972  149.6310 LP  0  0  0  0  0  0  0  0  0  0  0  0  # atno 17370 bound_to 10713
  155.9666  130.4315  150.4921 LP  0  0  0  0  0  0  0  0  0  0  0  0  # atno 17371 bound_to 10713
  140.5031  134.6466  157.5256 LP  0  0  0  0  0  0  0  0  0  0  0  0  # atno 17394 bound_to 11000
  139.9856  134.7066  155.9779 LP  0  0  0  0  0  0  0  0  0  0  0  0  # atno 17395 bound_to 11000

$$$$
