AV-unprocessed.smi:260|AV-procd|sdf|1979|dock4
  -GOLD-   2262021153D 1   1.00000     0.00000
 Structure written by MMmdl.
 53 56  0  0  0  0  0  0  0  0  1 V2000
  151.8713  144.6661  158.1598 C   0  0  0  0  0  0  0  0  0  0  0  0
  150.8125  143.8201  157.6314 N   0  0  0  0  0  0  0  0  0  0  0  0
  150.2797  142.7748  158.2842 C   0  0  0  0  0  0  0  0  0  0  0  0
  150.6556  142.4492  159.4115 O   0  0  0  0  0  0  0  0  0  0  0  0
  149.1543  141.9880  157.5606 C   0  0  1  0  0  0  0  0  0  0  0  0
  147.8027  142.1681  158.2868 C   0  0  0  0  0  0  0  0  0  0  0  0
  149.0423  142.3873  156.0716 C   0  0  0  0  0  0  0  0  0  0  0  0
  150.0801  141.5264  155.3378 C   0  0  0  0  0  0  0  0  0  0  0  0
  150.3669  140.4124  156.2292 N   0  0  0  0  0  0  0  0  0  0  0  0
  150.8009  139.2170  155.7515 C   0  0  0  0  0  0  0  0  0  0  0  0
  151.1938  139.1377  154.4520 N   0  0  0  0  0  0  0  0  0  0  0  0
  151.6301  137.9822  153.9427 C   0  0  0  0  0  0  0  0  0  0  0  0
  151.7503  136.7982  154.5446 N   0  0  0  0  0  0  0  0  0  0  0  0
  151.3467  136.8639  155.8450 C   0  0  0  0  0  0  0  0  0  0  0  0
  150.8603  138.0187  156.5234 C   0  0  0  0  0  0  0  0  0  0  0  0
  150.5380  137.6853  157.8354 N   0  0  0  0  0  0  0  0  0  0  0  0
  150.8259  136.4163  157.9283 C   0  0  0  0  0  0  0  0  0  0  0  0
  151.3186  135.8439  156.7788 N   0  0  0  0  0  0  0  0  0  0  0  0
  151.7212  134.4604  156.5967 C   0  0  0  0  0  0  0  0  0  0  0  0
  150.5209  133.4940  156.5664 C   0  0  2  0  0  0  0  0  0  0  0  0
  150.7558  132.4299  157.4694 O   0  0  0  0  0  0  0  0  0  0  0  0
  150.2816  132.9098  155.1619 C   0  0  1  0  0  0  0  0  0  0  0  0
  149.1752  131.8589  155.0904 C   0  0  0  0  0  0  0  0  0  0  0  0
  148.8302  131.8574  153.6150 C   0  0  0  0  0  0  0  0  0  0  0  0
  149.1421  133.2906  153.1759 C   0  0  0  0  0  0  0  0  0  0  0  0
  149.7965  133.9115  154.2787 O   0  0  0  0  0  0  0  0  0  0  0  0
  149.5446  140.5046  157.4287 C   0  0  0  0  0  0  0  0  0  0  0  0
  152.1336  145.4324  157.4304 H   0  0  0  0  0  0  0  0  0  0  0  0
  152.7655  144.0801  158.3757 H   0  0  0  0  0  0  0  0  0  0  0  0
  151.5502  145.1627  159.0762 H   0  0  0  0  0  0  0  0  0  0  0  0
  150.4604  144.0404  156.7112 H   0  0  0  0  0  0  0  0  0  0  0  0
  146.9918  141.6843  157.7413 H   0  0  0  0  0  0  0  0  0  0  0  0
  147.5429  143.2228  158.3863 H   0  0  0  0  0  0  0  0  0  0  0  0
  147.8148  141.7291  159.2851 H   0  0  0  0  0  0  0  0  0  0  0  0
  148.0506  142.1367  155.6925 H   0  0  0  0  0  0  0  0  0  0  0  0
  149.1845  143.4532  155.8880 H   0  0  0  0  0  0  0  0  0  0  0  0
  149.6967  141.1927  154.3729 H   0  0  0  0  0  0  0  0  0  0  0  0
  150.9985  142.0892  155.1671 H   0  0  0  0  0  0  0  0  0  0  0  0
  151.9260  138.0114  152.9046 H   0  0  0  0  0  0  0  0  0  0  0  0
  150.6826  135.8593  158.8426 H   0  0  0  0  0  0  0  0  0  0  0  0
  152.2849  134.3933  155.6655 H   0  0  0  0  0  0  0  0  0  0  0  0
  152.4108  134.1894  157.3971 H   0  0  0  0  0  0  0  0  0  0  0  0
  149.6246  134.0219  156.8955 H   0  0  0  0  0  0  0  0  0  0  0  0
  151.3481  131.8164  157.0626 H   0  0  0  0  0  0  0  0  0  0  0  0
  151.2079  132.5017  154.7522 H   0  0  0  0  0  0  0  0  0  0  0  0
  149.4913  130.8802  155.4528 H   0  0  0  0  0  0  0  0  0  0  0  0
  148.3104  132.1766  155.6750 H   0  0  0  0  0  0  0  0  0  0  0  0
  149.4736  131.1566  153.0816 H   0  0  0  0  0  0  0  0  0  0  0  0
  147.7941  131.5735  153.4282 H   0  0  0  0  0  0  0  0  0  0  0  0
  149.7916  133.2982  152.2998 H   0  0  0  0  0  0  0  0  0  0  0  0
  148.2364  133.8459  152.9310 H   0  0  0  0  0  0  0  0  0  0  0  0
  150.0906  140.1448  158.3022 H   0  0  0  0  0  0  0  0  0  0  0  0
  148.6579  139.8801  157.3100 H   0  0  0  0  0  0  0  0  0  0  0  0
  1  2  1  0  0  0  0
  1 28  1  0  0  0  0
  1 29  1  0  0  0  0
  1 30  1  0  0  0  0
  2  3  1  0  0  0  0
  2 31  1  0  0  0  0
  3  4  2  0  0  0  0
  3  5  1  0  0  0  0
  5 27  1  0  0  0  0
  5  6  1  0  0  0  0
  5  7  1  0  0  0  0
  6 32  1  0  0  0  0
  6 33  1  0  0  0  0
  6 34  1  0  0  0  0
  7  8  1  0  0  0  0
  7 35  1  0  0  0  0
  7 36  1  0  0  0  0
  8  9  1  0  0  0  0
  8 37  1  0  0  0  0
  8 38  1  0  0  0  0
  9 10  1  0  0  0  0
  9 27  1  0  0  0  0
 10 15  1  0  0  0  0
 10 11  2  0  0  0  0
 11 12  1  0  0  0  0
 12 13  2  0  0  0  0
 12 39  1  0  0  0  0
 13 14  1  0  0  0  0
 14 18  1  0  0  0  0
 14 15  2  0  0  0  0
 15 16  1  0  0  0  0
 16 17  2  0  0  0  0
 17 18  1  0  0  0  0
 17 40  1  0  0  0  0
 18 19  1  0  0  0  0
 19 20  1  0  0  0  0
 19 41  1  0  0  0  0
 19 42  1  0  0  0  0
 20 21  1  0  0  0  0
 20 22  1  0  0  0  0
 20 43  1  0  0  0  0
 21 44  1  0  0  0  0
 22 26  1  0  0  0  0
 22 23  1  0  0  0  0
 22 45  1  0  0  0  0
 23 24  1  0  0  0  0
 23 46  1  0  0  0  0
 23 47  1  0  0  0  0
 24 25  1  0  0  0  0
 24 48  1  0  0  0  0
 24 49  1  0  0  0  0
 25 26  1  0  0  0  0
 25 50  1  0  0  0  0
 25 51  1  0  0  0  0
 27 52  1  0  0  0  0
 27 53  1  0  0  0  0
M  END
> <s_m_source_file>
AV-unprocessed.smi

> <i_m_source_file_index>
260

> <i_lp_mmshare_version>
43012

> <i_f3d_flags>
0

> <s_epik_input>
W0NIM11bTkhdQyg9TylbQ0BAXTEoW0NIM10pW0NIMl1bQ0gyXU4oW0NIMl0xKWMobltjSF1uMiljKGMyMyluW2NIXW4zW0NIMl1bQ0BIXShbT0hdKVtDQEBIXTRbQ0gyXVtDSDJdW0NIMl1PNA==

> <s_epik_cmdline>
J2VwaWtfcHl0aG9uJywgJy1waCcsICc3LjAnLCAnLXRuJywgJzgnLCAnLW1hJywgJzIwMCcsICctbWV0YWxfYmluZGluZycsICctaW1hZScsICc8aW5maWxlLm1hZT4nLCAnLW9tYWUnLCAnPG91dGZpbGUubWFlPic=

> <r_lp_tautomer_probability>
1

> <r_epik_Ionization_Penalty>
0.00115068

> <r_epik_Ionization_Penalty_Charging>
0

> <r_epik_Ionization_Penalty_Neutral>
0.00115068

> <r_epik_State_Penalty>
0.000668876

> <r_epik_Charging_Adjusted_Penalty>
0.000668876

> <i_epik_Tot_Q>
0

> <i_epik_Tot_abs_Q>
0

> <r_epik_Metal_State_Penalty>
-0

> <b_epik_Metal_Only>
0

> <s_lp_Force_Field>
OPLS_2005

> <r_lp_Energy>
50.4513

> <b_lp_Chiralities_Consistent>
1

> <s_lp_Variant>
AV-unprocessed.smi:260-5

> <Gold.Version>
5.8.1

> <Gold.Id.Protein>
6NUR|6NUR_protein|mol2

> <Gold.PLP.Fitness>
43.4143

> <Gold.PLP.PLP>
-31.3982

> <Gold.PLP.part.hbond>
-5.0000

> <Gold.PLP.part.metal>
0.0000

> <Gold.PLP.part.buried>
2.9328

> <Gold.PLP.part.nonpolar>
-29.0878

> <Gold.PLP.part.repulsive>
0.4813

> <Gold.PLP.ligand.clash>
0.0000

> <Gold.PLP.ligand.torsion>
1.1830

> <Gold.PLP.Chemscore.Hbond>
3.8960

> <Gold.PLP.Chemscore.CHOScore>
0.7666

> <Gold.PLP.Chemscore.Metal>
0.0000

> <Gold.Chemscore.Hbonds>
donor molecule, donor type, donor heavy atom, donor atom, acceptor molecule, acceptor atom, score
      L1  H     2    31       P1  8028  0.91
      P1  H  6896  6908       L1    21  0.91
      P1  H  7989  7998       L1    11  1.00
      P1  H 10752 10764       L1    13  1.00
      L1  C    12    39       P1  7949  0.64

> <Gold.PLP.Chemscore.Internal.Correction>
0.3941

> <Gold.Rescore>
     Score         DG    S(hbond)    S(metal)    S(lipo)     H(rot)  DE(clash)    DE(int)     intcor
     14.33     -18.28       3.32        0.00      69.86       2.53       1.94       2.01       ----

> <Gold.Chemscore.Fitness>
14.3317

> <Gold.Chemscore.DG>
-18.2763

> <Gold.Chemscore.ZeroCoef>
-5.4800

> <Gold.Chemscore.Hbond>
3.3202

> <Gold.Chemscore.Metal>
0.0000

> <Gold.Chemscore.Lipo>
69.8565

> <Gold.Chemscore.Internal_Hbond>
0.0000

> <Gold.Chemscore.DEClash>
1.9358

> <Gold.Chemscore.DEInternal>
2.0089

> <Gold.Chemscore.Rot>
2.5259

> <Gold.Chemscore.Internal.Correction>
   9.000000E+99

> <Gold.Chemscore.Hbonds>
donor molecule, donor type, donor heavy atom, donor atom, acceptor molecule, acceptor atom, score
      L1  H     2    31       P1  8028  0.85
      P1  H  6896  6908       L1    21  0.42
      P1  H  7989  7998       L1    11  0.86
      P1  H 10752 10764       L1    13  0.70

> <Gold.Chemscore.Hbond.Weighted>
-11.0894

> <Gold.Chemscore.Metal.Weighted>
-0.0000

> <Gold.Chemscore.Lipo.Weighted>
-8.1732

> <Gold.Chemscore.Internal_Hbond.Weighted>
0.0000

> <Gold.Chemscore.DEClash.Weighted>
1.9358

> <Gold.Chemscore.DEInternal.Weighted>
2.0089

> <Gold.Chemscore.Rot.Weighted>
6.4663

> <Gold.Chemscore.Internal.Correction.Weighted>
   9.000000E+99

> <Gold.Protein.RotatedTorsions>
[ 6907 6896 6895 6894 ] final   76.65 input  -60.11 | X-H torsion
[ 7974 7965 7964 7962 ] final  -38.80 input  175.53 | X-H torsion
[ 8008 7997 7996 7995 ] final  127.57 input   59.86 | X-H torsion
[ 10167 10162 10161 10158 ] final   34.05 input  -65.29 | X-H torsion
[ 10718 10713 10712 10709 ] final    0.18 input   66.30 | X-H torsion
[ 10763 10752 10751 10750 ] final  -71.41 input  -60.55 | X-H torsion
[ 11005 11000 10999 10996 ] final   70.70 input  -57.11 | X-H torsion

> <Gold.Protein.ActiveResidues>
 VAL166  LYS551  ARG553  GLY616  TRP617  ASP618  TYR619  PRO620  LYS621  CYS622 
 ASP623  PHE694  ASN695  SER759  ASP760  ASP761  ALA762  ILE779  LEU786  VAL792 
 PHE793  MET794  SER795  GLU796  ALA797  LYS798  CYS799  TRP800  GLU811  SER814 

> <Gold.Protein.RotatedAtoms>
  152.5082  134.3937  159.9392 H   0  0  0  0  0  0  0  0  0  0  0  0  # atno 6907 bound_to 6896
  151.3898  133.3786  159.2727 H   0  0  0  0  0  0  0  0  0  0  0  0  # atno 6908 bound_to 6896
  150.9441  134.8868  159.7689 H   0  0  0  0  0  0  0  0  0  0  0  0  # atno 6909 bound_to 6896
  146.0454  140.6554  142.9067 H   0  0  0  0  0  0  0  0  0  0  0  0  # atno 7974 bound_to 7965
  156.2894  140.2666  156.2294 H   0  0  0  0  0  0  0  0  0  0  0  0  # atno 8008 bound_to 7997
  155.0088  140.0387  157.2409 H   0  0  0  0  0  0  0  0  0  0  0  0  # atno 8009 bound_to 7997
  154.7536  140.2747  155.6276 H   0  0  0  0  0  0  0  0  0  0  0  0  # atno 8010 bound_to 7997
  140.4351  144.1269  150.6165 H   0  0  0  0  0  0  0  0  0  0  0  0  # atno 10167 bound_to 10162
  156.8296  130.5484  149.5688 H   0  0  0  0  0  0  0  0  0  0  0  0  # atno 10718 bound_to 10713
  154.4314  135.5963  153.6071 H   0  0  0  0  0  0  0  0  0  0  0  0  # atno 10763 bound_to 10752
  152.9799  135.5976  154.3834 H   0  0  0  0  0  0  0  0  0  0  0  0  # atno 10764 bound_to 10752
  154.3673  135.2841  155.2265 H   0  0  0  0  0  0  0  0  0  0  0  0  # atno 10765 bound_to 10752
  139.9583  134.7104  156.0702 H   0  0  0  0  0  0  0  0  0  0  0  0  # atno 11005 bound_to 11000
  144.7095  140.3983  143.7092 LP  0  0  0  0  0  0  0  0  0  0  0  0  # atno 17320 bound_to 7965
  145.6815  139.1619  143.2698 LP  0  0  0  0  0  0  0  0  0  0  0  0  # atno 17321 bound_to 7965
  140.4383  143.2537  151.9506 LP  0  0  0  0  0  0  0  0  0  0  0  0  # atno 17342 bound_to 10162
  139.4786  144.5679  151.8136 LP  0  0  0  0  0  0  0  0  0  0  0  0  # atno 17343 bound_to 10162
  156.0942  130.5919  150.9785 LP  0  0  0  0  0  0  0  0  0  0  0  0  # atno 17370 bound_to 10713
  157.6414  131.0910  150.8244 LP  0  0  0  0  0  0  0  0  0  0  0  0  # atno 17371 bound_to 10713
  141.1258  133.6600  156.3332 LP  0  0  0  0  0  0  0  0  0  0  0  0  # atno 17394 bound_to 11000
  140.5557  134.5983  157.5420 LP  0  0  0  0  0  0  0  0  0  0  0  0  # atno 17395 bound_to 11000

$$$$
