AV-unprocessed.smi:2064|AV-procd|sdf|8416|dock8
  -GOLD-   2272011103D 1   1.00000     0.00000
 Structure written by MMmdl.
 46 48  0  0  0  0  0  0  0  0  1 V2000
  154.3807  138.4514  154.3137 N   0  0  0  0  0  0  0  0  0  0  0  0
  153.2549  138.4113  154.5790 C   0  0  0  0  0  0  0  0  0  0  0  0
  151.8756  138.3499  154.9336 C   0  0  0  0  0  0  0  0  0  0  0  0
  151.2015  137.1819  154.9676 C   0  0  0  0  0  0  0  0  0  0  0  0
  149.8671  137.1053  155.3016 N   0  0  0  0  0  0  0  0  0  0  0  0
  149.2132  135.8401  155.4837 C   0  0  0  0  0  0  0  0  0  0  0  0
  149.7974  134.8472  156.4647 C   0  0  0  0  0  0  0  0  0  0  0  0
  149.8602  134.5628  154.9839 C   0  0  0  0  0  0  0  0  0  0  0  0
  149.1687  138.2650  155.7033 C   0  0  0  0  0  0  0  0  0  0  0  0
  148.0031  138.2027  156.1028 O   0  0  0  0  0  0  0  0  0  0  0  0
  149.8523  139.5036  155.6449 N   0  0  0  0  0  0  0  0  0  0  0  0
  149.1244  140.7312  156.0347 C   0  0  0  0  0  0  0  0  0  0  0  0
  149.7685  141.4823  157.2101 C   0  0  0  0  0  0  0  0  0  0  0  0
  149.3591  141.3319  158.3623 O   0  0  0  0  0  0  0  0  0  0  0  0
  150.7880  142.2948  156.8922 N   0  0  0  0  0  0  0  0  0  0  0  0
  151.5544  143.1087  157.8330 C   0  0  0  0  0  0  0  0  0  0  0  0
  152.3949  142.1827  158.7368 C   0  0  0  0  0  0  0  0  0  0  0  0
  153.2244  142.8968  159.8179 C   0  0  0  0  0  0  0  0  0  0  0  0
  152.3664  143.4074  160.9865 C   0  0  0  0  0  0  0  0  0  0  0  0
  151.7507  144.8037  160.7922 C   0  0  0  0  0  0  0  0  0  0  0  0
  151.2846  145.1565  159.3688 C   0  0  0  0  0  0  0  0  0  0  0  0
  150.5793  144.0254  158.6015 C   0  0  0  0  0  0  0  0  0  0  0  0
  151.2154  139.6099  155.2673 C   0  0  0  0  0  0  0  0  0  0  0  0
  151.7847  140.7025  155.2427 O   0  0  0  0  0  0  0  0  0  0  0  0
  151.7247  136.2697  154.7192 H   0  0  0  0  0  0  0  0  0  0  0  0
  148.1261  135.8697  155.4328 H   0  0  0  0  0  0  0  0  0  0  0  0
  150.7312  135.1043  156.9612 H   0  0  0  0  0  0  0  0  0  0  0  0
  149.0998  134.2618  157.0602 H   0  0  0  0  0  0  0  0  0  0  0  0
  149.2036  133.7889  154.5917 H   0  0  0  0  0  0  0  0  0  0  0  0
  150.8357  134.6314  154.5062 H   0  0  0  0  0  0  0  0  0  0  0  0
  149.0363  141.4212  155.1942 H   0  0  0  0  0  0  0  0  0  0  0  0
  148.0898  140.4990  156.2935 H   0  0  0  0  0  0  0  0  0  0  0  0
  151.0551  142.3565  155.9204 H   0  0  0  0  0  0  0  0  0  0  0  0
  152.2317  143.7456  157.2608 H   0  0  0  0  0  0  0  0  0  0  0  0
  151.7510  141.4373  159.2060 H   0  0  0  0  0  0  0  0  0  0  0  0
  153.0824  141.6170  158.1063 H   0  0  0  0  0  0  0  0  0  0  0  0
  153.9346  142.1722  160.2174 H   0  0  0  0  0  0  0  0  0  0  0  0
  153.8271  143.6983  159.3895 H   0  0  0  0  0  0  0  0  0  0  0  0
  151.5758  142.6862  161.1971 H   0  0  0  0  0  0  0  0  0  0  0  0
  152.9766  143.4337  161.8901 H   0  0  0  0  0  0  0  0  0  0  0  0
  150.9101  144.9033  161.4800 H   0  0  0  0  0  0  0  0  0  0  0  0
  152.4734  145.5577  161.1061 H   0  0  0  0  0  0  0  0  0  0  0  0
  150.6069  146.0076  159.4437 H   0  0  0  0  0  0  0  0  0  0  0  0
  152.1315  145.5191  158.7849 H   0  0  0  0  0  0  0  0  0  0  0  0
  149.9122  144.4931  157.8758 H   0  0  0  0  0  0  0  0  0  0  0  0
  149.9359  143.4475  159.2663 H   0  0  0  0  0  0  0  0  0  0  0  0
  1  2  3  0  0  0  0
  2  3  1  0  0  0  0
  3 23  1  0  0  0  0
  3  4  2  0  0  0  0
  4  5  1  0  0  0  0
  4 25  1  0  0  0  0
  5  6  1  0  0  0  0
  5  9  1  0  0  0  0
  6  8  1  0  0  0  0
  6  7  1  0  0  0  0
  6 26  1  0  0  0  0
  7  8  1  0  0  0  0
  7 27  1  0  0  0  0
  7 28  1  0  0  0  0
  8 29  1  0  0  0  0
  8 30  1  0  0  0  0
  9 10  2  0  0  0  0
  9 11  1  0  0  0  0
 11 12  1  0  0  0  0
 11 23  1  0  0  0  0
 12 13  1  0  0  0  0
 12 31  1  0  0  0  0
 12 32  1  0  0  0  0
 13 14  2  0  0  0  0
 13 15  1  0  0  0  0
 15 16  1  0  0  0  0
 15 33  1  0  0  0  0
 16 22  1  0  0  0  0
 16 17  1  0  0  0  0
 16 34  1  0  0  0  0
 17 18  1  0  0  0  0
 17 35  1  0  0  0  0
 17 36  1  0  0  0  0
 18 19  1  0  0  0  0
 18 37  1  0  0  0  0
 18 38  1  0  0  0  0
 19 20  1  0  0  0  0
 19 39  1  0  0  0  0
 19 40  1  0  0  0  0
 20 21  1  0  0  0  0
 20 41  1  0  0  0  0
 20 42  1  0  0  0  0
 21 22  1  0  0  0  0
 21 43  1  0  0  0  0
 21 44  1  0  0  0  0
 22 45  1  0  0  0  0
 22 46  1  0  0  0  0
 23 24  2  0  0  0  0
M  END
> <s_m_source_file>
AV-unprocessed.smi

> <i_m_source_file_index>
2064

> <i_lp_mmshare_version>
43012

> <i_f3d_flags>
0

> <s_epik_input>
TiNDYzFbY0hdbihbQ0hdMltDSDJdW0NIMl0yKWMoPU8pbihjMT1PKVtDSDJdQyg9TylbTkhdW0NIXTNbQ0gyXVtDSDJdW0NIMl1bQ0gyXVtDSDJdW0NIMl0z

> <s_epik_cmdline>
J2VwaWtfcHl0aG9uJywgJy1waCcsICc3LjAnLCAnLXRuJywgJzgnLCAnLW1hJywgJzIwMCcsICctbWV0YWxfYmluZGluZycsICctaW1hZScsICc8aW5maWxlLm1hZT4nLCAnLW9tYWUnLCAnPG91dGZpbGUubWFlPic=

> <r_lp_tautomer_probability>
1

> <r_epik_Ionization_Penalty>
2.03018e-08

> <r_epik_Ionization_Penalty_Charging>
8.701e-11

> <r_epik_Ionization_Penalty_Neutral>
2.02148e-08

> <r_epik_State_Penalty>
-0

> <r_epik_Charging_Adjusted_Penalty>
8.701e-11

> <i_epik_Tot_Q>
0

> <i_epik_Tot_abs_Q>
0

> <r_epik_Metal_State_Penalty>
-0

> <b_epik_Metal_Only>
0

> <s_lp_Force_Field>
OPLS_2005

> <r_lp_Energy>
40.6124

> <b_lp_Chiralities_Consistent>
1

> <s_lp_Variant>
AV-unprocessed.smi:2064-1

> <Gold.Version>
5.8.1

> <Gold.Id.Protein>
6NUR|6NUR_protein|mol2

> <Gold.PLP.Fitness>
44.4545

> <Gold.PLP.PLP>
-43.1389

> <Gold.PLP.part.hbond>
-2.4356

> <Gold.PLP.part.metal>
0.0000

> <Gold.PLP.part.buried>
-2.9283

> <Gold.PLP.part.nonpolar>
-38.3843

> <Gold.PLP.part.repulsive>
0.1084

> <Gold.PLP.ligand.clash>
0.0028

> <Gold.PLP.ligand.torsion>
0.5027

> <Gold.PLP.Chemscore.Hbond>
0.7007

> <Gold.PLP.Chemscore.CHOScore>
0.0000

> <Gold.PLP.Chemscore.Metal>
0.0000

> <Gold.Chemscore.Hbonds>
donor molecule, donor type, donor heavy atom, donor atom, acceptor molecule, acceptor atom, score
      P1  H  7989  7998       L1    24  0.48
      P1  H  7997  8009       L1     1  0.15

> <Gold.PLP.Chemscore.Internal.Correction>
0.2217

> <Gold.Rescore>
     Score         DG    S(hbond)    S(metal)    S(lipo)     H(rot)  DE(clash)    DE(int)     intcor
     10.36     -16.13       0.81        0.00     105.32       1.70       1.34       4.43       ----

> <Gold.Chemscore.Fitness>
10.3568

> <Gold.Chemscore.DG>
-16.1346

> <Gold.Chemscore.ZeroCoef>
-5.4800

> <Gold.Chemscore.Hbond>
0.8066

> <Gold.Chemscore.Metal>
0.0000

> <Gold.Chemscore.Lipo>
105.3193

> <Gold.Chemscore.Internal_Hbond>
0.0000

> <Gold.Chemscore.DEClash>
1.3449

> <Gold.Chemscore.DEInternal>
4.4329

> <Gold.Chemscore.Rot>
1.7038

> <Gold.Chemscore.Internal.Correction>
   9.000000E+99

> <Gold.Chemscore.Hbonds>
donor molecule, donor type, donor heavy atom, donor atom, acceptor molecule, acceptor atom, score
      P1  H  7989  7998       L1    24  0.06

> <Gold.Chemscore.Hbond.Weighted>
-2.6940

> <Gold.Chemscore.Metal.Weighted>
-0.0000

> <Gold.Chemscore.Lipo.Weighted>
-12.3224

> <Gold.Chemscore.Internal_Hbond.Weighted>
0.0000

> <Gold.Chemscore.DEClash.Weighted>
1.3449

> <Gold.Chemscore.DEInternal.Weighted>
4.4329

> <Gold.Chemscore.Rot.Weighted>
4.3618

> <Gold.Chemscore.Internal.Correction.Weighted>
   9.000000E+99

> <Gold.Protein.RotatedTorsions>
[ 6907 6896 6895 6894 ] final   79.28 input  -60.11 | X-H torsion
[ 7974 7965 7964 7962 ] final  -69.28 input  175.53 | X-H torsion
[ 8008 7997 7996 7995 ] final -123.01 input   59.86 | X-H torsion
[ 10167 10162 10161 10158 ] final -123.74 input  -65.29 | X-H torsion
[ 10718 10713 10712 10709 ] final   92.04 input   66.30 | X-H torsion
[ 10763 10752 10751 10750 ] final   -0.03 input  -60.55 | X-H torsion
[ 11005 11000 10999 10996 ] final   30.82 input  -57.11 | X-H torsion

> <Gold.Protein.ActiveResidues>
 VAL166  LYS551  ARG553  GLY616  TRP617  ASP618  TYR619  PRO620  LYS621  CYS622 
 ASP623  PHE694  ASN695  SER759  ASP760  ASP761  ALA762  ILE779  LEU786  VAL792 
 PHE793  MET794  SER795  GLU796  ALA797  LYS798  CYS799  TRP800  GLU811  SER814 

> <Gold.Protein.RotatedAtoms>
  152.5192  134.3536  159.9259 H   0  0  0  0  0  0  0  0  0  0  0  0  # atno 6907 bound_to 6896
  151.3487  133.3927  159.2686 H   0  0  0  0  0  0  0  0  0  0  0  0  # atno 6908 bound_to 6896
  150.9745  134.9130  159.7865 H   0  0  0  0  0  0  0  0  0  0  0  0  # atno 6909 bound_to 6896
  145.7058  140.9098  143.0707 H   0  0  0  0  0  0  0  0  0  0  0  0  # atno 7974 bound_to 7965
  155.1736  140.0409  157.2868 H   0  0  0  0  0  0  0  0  0  0  0  0  # atno 8008 bound_to 7997
  154.6252  140.2510  155.7473 H   0  0  0  0  0  0  0  0  0  0  0  0  # atno 8009 bound_to 7997
  156.2455  140.2886  156.0579 H   0  0  0  0  0  0  0  0  0  0  0  0  # atno 8010 bound_to 7997
  140.0002  143.5548  152.2306 H   0  0  0  0  0  0  0  0  0  0  0  0  # atno 10167 bound_to 10162
  157.6959  131.0429  150.3821 H   0  0  0  0  0  0  0  0  0  0  0  0  # atno 10718 bound_to 10713
  153.3267  135.6972  153.6983 H   0  0  0  0  0  0  0  0  0  0  0  0  # atno 10763 bound_to 10752
  153.5802  135.3499  155.2872 H   0  0  0  0  0  0  0  0  0  0  0  0  # atno 10764 bound_to 10752
  154.8609  135.4293  154.2445 H   0  0  0  0  0  0  0  0  0  0  0  0  # atno 10765 bound_to 10752
  140.2903  134.2871  155.7777 H   0  0  0  0  0  0  0  0  0  0  0  0  # atno 11005 bound_to 11000
  144.6956  139.9008  143.7458 LP  0  0  0  0  0  0  0  0  0  0  0  0  # atno 17320 bound_to 7965
  146.0757  139.3745  143.0495 LP  0  0  0  0  0  0  0  0  0  0  0  0  # atno 17321 bound_to 7965
  139.6277  144.7639  151.2603 LP  0  0  0  0  0  0  0  0  0  0  0  0  # atno 17342 bound_to 10162
  140.7421  143.6535  150.8227 LP  0  0  0  0  0  0  0  0  0  0  0  0  # atno 17343 bound_to 10162
  156.4234  130.3957  149.6809 LP  0  0  0  0  0  0  0  0  0  0  0  0  # atno 17370 bound_to 10713
  156.4052  130.7695  151.2705 LP  0  0  0  0  0  0  0  0  0  0  0  0  # atno 17371 bound_to 10713
  141.2147  133.7581  156.9615 LP  0  0  0  0  0  0  0  0  0  0  0  0  # atno 17394 bound_to 11000
  140.1201  134.9422  157.2191 LP  0  0  0  0  0  0  0  0  0  0  0  0  # atno 17395 bound_to 11000

$$$$
