AV-unprocessed.smi:1224|AV-procd|sdf|5135|dock3
  -GOLD-   22720 4193D 1   1.00000     0.00000
 Structure written by MMmdl.
 44 46  0  0  0  0  0  0  0  0  2 V2000
  152.5932  143.8812  160.1103 C   0  0  0  0  0  0  0  0  0  0  0  0
  152.2319  142.8342  159.0704 C   0  0  0  0  0  0  0  0  0  0  0  0
  151.3546  143.1980  158.0238 C   0  0  0  0  0  0  0  0  0  0  0  0
  151.0449  142.2195  157.0866 C   0  0  0  0  0  0  0  0  0  0  0  0
  150.2273  142.2603  155.9548 N   0  3  0  0  0  0  0  0  0  0  0  0
  150.2376  141.0437  155.3425 C   0  0  0  0  0  0  0  0  0  0  0  0
  151.0450  140.2260  156.0709 N   0  0  0  0  0  0  0  0  0  0  0  0
  151.4049  138.8177  155.8595 C   0  0  0  0  0  0  0  0  0  0  0  0
  150.7547  138.2153  154.5959 C   0  0  1  0  0  0  0  0  0  0  0  0
  151.4985  137.0835  154.1927 O   0  0  0  0  0  0  0  0  0  0  0  0
  149.3031  137.7715  154.8330 C   0  0  0  0  0  0  0  0  0  0  0  0
  149.0799  136.4053  154.3628 N   0  0  0  0  0  0  0  0  0  0  0  0
  149.3212  135.3807  155.3752 C   0  0  0  0  0  0  0  0  0  0  0  0
  149.3045  133.9962  154.8135 C   0  0  0  0  0  0  0  0  0  0  0  0
  150.0817  132.9285  155.1852 C   0  0  0  0  0  0  0  0  0  0  0  0
  149.8095  131.7482  154.4333 C   0  0  0  0  0  0  0  0  0  0  0  0
  148.8271  131.9306  153.4965 C   0  0  0  0  0  0  0  0  0  0  0  0
  148.2154  133.5617  153.5201 S   0  0  0  0  0  0  0  0  0  0  0  0
  151.5746  140.9173  157.1649 C   0  0  0  0  0  0  0  0  0  0  0  0
  152.4405  140.5414  158.1885 C   0  0  0  0  0  0  0  0  0  0  0  0
  152.7674  141.5223  159.1520 C   0  0  0  0  0  0  0  0  0  0  0  0
  153.7098  141.1424  160.2815 C   0  0  0  0  0  0  0  0  0  0  0  0
  152.1085  144.8353  159.9012 H   0  0  0  0  0  0  0  0  0  0  0  0
  153.6700  144.0508  160.1248 H   0  0  0  0  0  0  0  0  0  0  0  0
  152.2795  143.5590  161.1035 H   0  0  0  0  0  0  0  0  0  0  0  0
  150.9433  144.1945  157.9550 H   0  0  0  0  0  0  0  0  0  0  0  0
  149.6998  140.7751  154.4445 H   0  0  0  0  0  0  0  0  0  0  0  0
  152.4923  138.7643  155.7878 H   0  0  0  0  0  0  0  0  0  0  0  0
  151.1273  138.2570  156.7530 H   0  0  0  0  0  0  0  0  0  0  0  0
  150.7843  138.9351  153.7768 H   0  0  0  0  0  0  0  0  0  0  0  0
  151.3051  136.9065  153.2850 H   0  0  0  0  0  0  0  0  0  0  0  0
  149.0809  137.8237  155.8997 H   0  0  0  0  0  0  0  0  0  0  0  0
  148.6195  138.4641  154.3401 H   0  0  0  0  0  0  0  0  0  0  0  0
  149.6529  136.2207  153.5459 H   0  0  0  0  0  0  0  0  0  0  0  0
  150.2975  135.5540  155.8283 H   0  0  0  0  0  0  0  0  0  0  0  0
  148.5967  135.4716  156.1853 H   0  0  0  0  0  0  0  0  0  0  0  0
  150.8307  132.9550  155.9627 H   0  0  0  0  0  0  0  0  0  0  0  0
  150.3360  130.8208  154.6033 H   0  0  0  0  0  0  0  0  0  0  0  0
  148.4271  131.2110  152.7977 H   0  0  0  0  0  0  0  0  0  0  0  0
  152.8476  139.5426  158.2475 H   0  0  0  0  0  0  0  0  0  0  0  0
  154.0046  140.0942  160.2197 H   0  0  0  0  0  0  0  0  0  0  0  0
  153.2315  141.2961  161.2491 H   0  0  0  0  0  0  0  0  0  0  0  0
  154.6162  141.7468  160.2427 H   0  0  0  0  0  0  0  0  0  0  0  0
  149.7023  143.0587  155.6213 H   0  0  0  0  0  0  0  0  0  0  0  0
  1  2  1  0  0  0  0
  1 23  1  0  0  0  0
  1 24  1  0  0  0  0
  1 25  1  0  0  0  0
  2 21  1  0  0  0  0
  2  3  2  0  0  0  0
  3  4  1  0  0  0  0
  3 26  1  0  0  0  0
  4 19  2  0  0  0  0
  4  5  1  0  0  0  0
  5  6  2  0  0  0  0
  5 44  1  0  0  0  0
  6  7  1  0  0  0  0
  6 27  1  0  0  0  0
  7  8  1  0  0  0  0
  7 19  1  0  0  0  0
  8  9  1  0  0  0  0
  8 28  1  0  0  0  0
  8 29  1  0  0  0  0
  9 10  1  0  0  0  0
  9 11  1  0  0  0  0
  9 30  1  0  0  0  0
 10 31  1  0  0  0  0
 11 12  1  0  0  0  0
 11 32  1  0  0  0  0
 11 33  1  0  0  0  0
 12 13  1  0  0  0  0
 12 34  1  0  0  0  0
 13 14  1  0  0  0  0
 13 35  1  0  0  0  0
 13 36  1  0  0  0  0
 14 18  1  0  0  0  0
 14 15  2  0  0  0  0
 15 16  1  0  0  0  0
 15 37  1  0  0  0  0
 16 17  2  0  0  0  0
 16 38  1  0  0  0  0
 17 18  1  0  0  0  0
 17 39  1  0  0  0  0
 19 20  1  0  0  0  0
 20 21  2  0  0  0  0
 20 40  1  0  0  0  0
 21 22  1  0  0  0  0
 22 41  1  0  0  0  0
 22 42  1  0  0  0  0
 22 43  1  0  0  0  0
M  CHG  1   5   1
M  END
> <s_m_source_file>
AV-unprocessed.smi

> <i_m_source_file_index>
1224

> <i_lp_mmshare_version>
43012

> <i_f3d_flags>
0

> <s_epik_input>
W0NIM11jKFtjSF0xKWMoW0NIM10pW2NIXWMoYzEyKW4oW2NIXW4yKVtDSDJdW0NASF0oW09IXSlbQ0gyXVtOSF1bQ0gyXWMzW2NIXVtjSF1bY0hdczM=

> <s_epik_cmdline>
J2VwaWtfcHl0aG9uJywgJy1waCcsICc3LjAnLCAnLXRuJywgJzgnLCAnLW1hJywgJzIwMCcsICctbWV0YWxfYmluZGluZycsICctaW1hZScsICc8aW5maWxlLm1hZT4nLCAnLW9tYWUnLCAnPG91dGZpbGUubWFlPic=

> <r_epik_Ionization_Penalty>
2.3772

> <r_epik_Ionization_Penalty_Charging>
0.996291

> <r_epik_Ionization_Penalty_Neutral>
1.38091

> <r_epik_State_Penalty>
2.60954

> <r_epik_Charging_Adjusted_Penalty>
3.60583

> <i_epik_Tot_Q>
1

> <i_epik_Tot_abs_Q>
1

> <r_epik_Metal_State_Penalty>
6.5861

> <b_epik_Metal_Only>
0

> <s_lp_Force_Field>
OPLS_2005

> <r_lp_Energy>
14.7648

> <b_lp_Chiralities_Consistent>
1

> <s_lp_Variant>
AV-unprocessed.smi:1224-8

> <Gold.Version>
5.8.1

> <Gold.Id.Protein>
6NUR|6NUR_protein|mol2

> <Gold.PLP.Fitness>
61.1486

> <Gold.PLP.PLP>
-48.0759

> <Gold.PLP.part.hbond>
-3.7669

> <Gold.PLP.part.metal>
0.0000

> <Gold.PLP.part.buried>
-4.1035

> <Gold.PLP.part.nonpolar>
-40.6273

> <Gold.PLP.part.repulsive>
0.1323

> <Gold.PLP.ligand.clash>
0.0000

> <Gold.PLP.ligand.torsion>
1.4676

> <Gold.PLP.Chemscore.Hbond>
4.3109

> <Gold.PLP.Chemscore.CHOScore>
1.0000

> <Gold.PLP.Chemscore.Metal>
0.0000

> <Gold.Chemscore.Hbonds>
donor molecule, donor type, donor heavy atom, donor atom, acceptor molecule, acceptor atom, score
      L1  H     5    44       P1  8028  2.00
      L1  H    10    31       P1  7949  1.00
      L1  H    12    34       P1  7948  0.48
      P1  H 10752 10765       L1    10  0.85
      L1  C    17    39       P1 10747  0.85

> <Gold.PLP.Chemscore.Internal.Correction>
0.0752

> <Gold.Rescore>
     Score         DG    S(hbond)    S(metal)    S(lipo)     H(rot)  DE(clash)    DE(int)     intcor
     19.58     -21.11       2.20        0.00     123.23       2.40       0.10       1.43       ----

> <Gold.Chemscore.Fitness>
19.5762

> <Gold.Chemscore.DG>
-21.1064

> <Gold.Chemscore.ZeroCoef>
-5.4800

> <Gold.Chemscore.Hbond>
2.2005

> <Gold.Chemscore.Metal>
0.0000

> <Gold.Chemscore.Lipo>
123.2314

> <Gold.Chemscore.Internal_Hbond>
0.0000

> <Gold.Chemscore.DEClash>
0.1048

> <Gold.Chemscore.DEInternal>
1.4253

> <Gold.Chemscore.Rot>
2.3990

> <Gold.Chemscore.Internal.Correction>
   9.000000E+99

> <Gold.Chemscore.Hbonds>
donor molecule, donor type, donor heavy atom, donor atom, acceptor molecule, acceptor atom, score
      L1  H     5    44       P1  8028  0.99
      L1  H    10    31       P1  7949  0.66
      L1  H    12    34       P1  7948  0.17
      P1  H 10752 10765       L1    10  0.16

> <Gold.Chemscore.Hbond.Weighted>
-7.3498

> <Gold.Chemscore.Metal.Weighted>
-0.0000

> <Gold.Chemscore.Lipo.Weighted>
-14.4181

> <Gold.Chemscore.Internal_Hbond.Weighted>
0.0000

> <Gold.Chemscore.DEClash.Weighted>
0.1048

> <Gold.Chemscore.DEInternal.Weighted>
1.4253

> <Gold.Chemscore.Rot.Weighted>
6.1415

> <Gold.Chemscore.Internal.Correction.Weighted>
   9.000000E+99

> <Gold.Protein.RotatedTorsions>
[ 6907 6896 6895 6894 ] final   10.13 input  -60.11 | X-H torsion
[ 7974 7965 7964 7962 ] final  -67.20 input  175.53 | X-H torsion
[ 8008 7997 7996 7995 ] final  -17.35 input   59.86 | X-H torsion
[ 10167 10162 10161 10158 ] final   49.12 input  -65.29 | X-H torsion
[ 10718 10713 10712 10709 ] final -124.04 input   66.30 | X-H torsion
[ 10763 10752 10751 10750 ] final  173.08 input  -60.55 | X-H torsion
[ 11005 11000 10999 10996 ] final  -70.19 input  -57.11 | X-H torsion

> <Gold.Protein.ActiveResidues>
 VAL166  LYS551  ARG553  GLY616  TRP617  ASP618  TYR619  PRO620  LYS621  CYS622 
 ASP623  PHE694  ASN695  SER759  ASP760  ASP761  ALA762  ILE779  LEU786  VAL792 
 PHE793  MET794  SER795  GLU796  ALA797  LYS798  CYS799  TRP800  GLU811  SER814 

> <Gold.Protein.RotatedAtoms>
  151.7334  135.0870  160.0303 H   0  0  0  0  0  0  0  0  0  0  0  0  # atno 6907 bound_to 6896
  152.3526  133.6194  159.5965 H   0  0  0  0  0  0  0  0  0  0  0  0  # atno 6908 bound_to 6896
  150.7550  133.9466  159.3514 H   0  0  0  0  0  0  0  0  0  0  0  0  # atno 6909 bound_to 6896
  145.7321  140.8992  143.0574 H   0  0  0  0  0  0  0  0  0  0  0  0  # atno 7974 bound_to 7965
  154.4984  140.2145  155.9397 H   0  0  0  0  0  0  0  0  0  0  0  0  # atno 8008 bound_to 7997
  156.1402  140.3181  155.8451 H   0  0  0  0  0  0  0  0  0  0  0  0  # atno 8009 bound_to 7997
  155.4135  140.0492  157.3021 H   0  0  0  0  0  0  0  0  0  0  0  0  # atno 8010 bound_to 7997
  140.2861  144.3100  150.6252 H   0  0  0  0  0  0  0  0  0  0  0  0  # atno 10167 bound_to 10162
  156.1553  130.6563  150.9973 H   0  0  0  0  0  0  0  0  0  0  0  0  # atno 10718 bound_to 10713
  154.4351  135.2760  155.1886 H   0  0  0  0  0  0  0  0  0  0  0  0  # atno 10763 bound_to 10752
  154.3775  135.6095  153.5777 H   0  0  0  0  0  0  0  0  0  0  0  0  # atno 10764 bound_to 10752
  152.9838  135.5872  154.4669 H   0  0  0  0  0  0  0  0  0  0  0  0  # atno 10765 bound_to 10752
  141.1569  133.6783  156.6714 H   0  0  0  0  0  0  0  0  0  0  0  0  # atno 11005 bound_to 11000
  144.6890  139.9346  143.7473 LP  0  0  0  0  0  0  0  0  0  0  0  0  # atno 17320 bound_to 7965
  146.0527  139.3527  143.0629 LP  0  0  0  0  0  0  0  0  0  0  0  0  # atno 17321 bound_to 7965
  140.5771  143.2175  151.7495 LP  0  0  0  0  0  0  0  0  0  0  0  0  # atno 17342 bound_to 10162
  139.4950  144.4134  152.0056 LP  0  0  0  0  0  0  0  0  0  0  0  0  # atno 17343 bound_to 10162
  157.6690  131.0865  150.7659 LP  0  0  0  0  0  0  0  0  0  0  0  0  # atno 17370 bound_to 10713
  156.7724  130.4833  149.5416 LP  0  0  0  0  0  0  0  0  0  0  0  0  # atno 17371 bound_to 10713
  140.3172  134.8038  157.4223 LP  0  0  0  0  0  0  0  0  0  0  0  0  # atno 17394 bound_to 11000
  140.1128  134.5323  155.8251 LP  0  0  0  0  0  0  0  0  0  0  0  0  # atno 17395 bound_to 11000

$$$$
