AV-unprocessed.smi:3281|AV-procd|sdf|12558|dock8
  -GOLD-   2272018483D 1   1.00000     0.00000
 Structure written by MMmdl.
 36 37  0  0  0  0  0  0  0  0  1 V2000
  146.4108  139.1062  151.0748 C   0  0  0  0  0  0  0  0  0  0  0  0
  146.9280  138.5541  152.4076 C   0  0  0  0  0  0  0  0  0  0  0  0
  147.4297  139.6172  153.3283 C   0  0  0  0  0  0  0  0  0  0  0  0
  146.7466  140.7142  153.7921 C   0  0  0  0  0  0  0  0  0  0  0  0
  147.4995  141.5332  154.6363 N   0  0  0  0  0  0  0  0  0  0  0  0
  148.7358  141.0669  154.8307 C   0  0  0  0  0  0  0  0  0  0  0  0
  149.7663  141.7668  155.6574 C   0  0  0  0  0  0  0  0  0  0  0  0
  151.0247  140.9194  155.9034 C   0  0  0  0  0  0  0  0  0  0  0  0
  151.2257  140.7045  157.3303 N   0  0  0  0  0  0  0  0  0  0  0  0
  151.9627  141.7944  157.9566 C   0  0  2  0  0  0  0  0  0  0  0  0
  152.3733  141.3299  159.3675 C   0  0  0  0  0  0  0  0  0  0  0  0
  153.2105  142.3809  160.1135 C   0  0  0  0  0  0  0  0  0  0  0  0
  152.4448  143.6941  160.3253 C   0  0  0  0  0  0  0  0  0  0  0  0
  152.0003  144.4567  158.7416 S   0  0  0  0  0  0  0  0  0  0  0  0
  151.0904  143.0662  158.0151 C   0  0  0  0  0  0  0  0  0  0  0  0
  149.0598  139.5787  153.9502 S   0  0  0  0  0  0  0  0  0  0  0  0
  146.0498  138.3010  150.4347 H   0  0  0  0  0  0  0  0  0  0  0  0
  147.1969  139.6341  150.5341 H   0  0  0  0  0  0  0  0  0  0  0  0
  145.5864  139.8025  151.2315 H   0  0  0  0  0  0  0  0  0  0  0  0
  146.1311  137.9937  152.8976 H   0  0  0  0  0  0  0  0  0  0  0  0
  147.7266  137.8368  152.2157 H   0  0  0  0  0  0  0  0  0  0  0  0
  145.7271  140.9915  153.5683 H   0  0  0  0  0  0  0  0  0  0  0  0
  150.0317  142.7088  155.1750 H   0  0  0  0  0  0  0  0  0  0  0  0
  149.3137  142.0296  156.6137 H   0  0  0  0  0  0  0  0  0  0  0  0
  150.9212  139.9519  155.4111 H   0  0  0  0  0  0  0  0  0  0  0  0
  151.8875  141.4155  155.4599 H   0  0  0  0  0  0  0  0  0  0  0  0
  150.3378  140.5755  157.7952 H   0  0  0  0  0  0  0  0  0  0  0  0
  152.8685  141.9896  157.3803 H   0  0  0  0  0  0  0  0  0  0  0  0
  151.4869  141.0872  159.9557 H   0  0  0  0  0  0  0  0  0  0  0  0
  152.9520  140.4080  159.2946 H   0  0  0  0  0  0  0  0  0  0  0  0
  153.5097  141.9801  161.0825 H   0  0  0  0  0  0  0  0  0  0  0  0
  154.1333  142.5760  159.5656 H   0  0  0  0  0  0  0  0  0  0  0  0
  151.5367  143.5165  160.9021 H   0  0  0  0  0  0  0  0  0  0  0  0
  153.0527  144.3981  160.8939 H   0  0  0  0  0  0  0  0  0  0  0  0
  150.7619  143.3714  157.0220 H   0  0  0  0  0  0  0  0  0  0  0  0
  150.1906  142.8881  158.6054 H   0  0  0  0  0  0  0  0  0  0  0  0
  1  2  1  0  0  0  0
  1 17  1  0  0  0  0
  1 18  1  0  0  0  0
  1 19  1  0  0  0  0
  2  3  1  0  0  0  0
  2 20  1  0  0  0  0
  2 21  1  0  0  0  0
  3 16  1  0  0  0  0
  3  4  2  0  0  0  0
  4  5  1  0  0  0  0
  4 22  1  0  0  0  0
  5  6  2  0  0  0  0
  6  7  1  0  0  0  0
  6 16  1  0  0  0  0
  7  8  1  0  0  0  0
  7 23  1  0  0  0  0
  7 24  1  0  0  0  0
  8  9  1  0  0  0  0
  8 25  1  0  0  0  0
  8 26  1  0  0  0  0
  9 10  1  0  0  0  0
  9 27  1  0  0  0  0
 10 15  1  0  0  0  0
 10 11  1  0  0  0  0
 10 28  1  0  0  0  0
 11 12  1  0  0  0  0
 11 29  1  0  0  0  0
 11 30  1  0  0  0  0
 12 13  1  0  0  0  0
 12 31  1  0  0  0  0
 12 32  1  0  0  0  0
 13 14  1  0  0  0  0
 13 33  1  0  0  0  0
 13 34  1  0  0  0  0
 14 15  1  0  0  0  0
 15 35  1  0  0  0  0
 15 36  1  0  0  0  0
M  END
> <s_m_source_file>
AV-unprocessed.smi

> <i_m_source_file_index>
3281

> <i_lp_mmshare_version>
43012

> <i_f3d_flags>
0

> <s_epik_input>
W0NIM11bQ0gyXWMxW2NIXW5jKHMxKVtDSDJdW0NIMl1bTkhdW0NAQEhdMltDSDJdW0NIMl1bQ0gyXVNbQ0gyXTI=

> <s_epik_cmdline>
J2VwaWtfcHl0aG9uJywgJy1waCcsICc3LjAnLCAnLXRuJywgJzgnLCAnLW1hJywgJzIwMCcsICctbWV0YWxfYmluZGluZycsICctaW1hZScsICc8aW5maWxlLm1hZT4nLCAnLW9tYWUnLCAnPG91dGZpbGUubWFlPic=

> <r_epik_Ionization_Penalty>
2.53829

> <r_epik_Ionization_Penalty_Charging>
0

> <r_epik_Ionization_Penalty_Neutral>
2.53829

> <r_epik_State_Penalty>
2.70274

> <r_epik_Charging_Adjusted_Penalty>
2.70274

> <i_epik_Tot_Q>
0

> <i_epik_Tot_abs_Q>
0

> <r_epik_Metal_State_Penalty>
2.69977

> <b_epik_Metal_Only>
0

> <s_lp_Force_Field>
OPLS_2005

> <r_lp_Energy>
0.229732

> <b_lp_Chiralities_Consistent>
1

> <s_lp_Variant>
AV-unprocessed.smi:3281-3

> <Gold.Version>
5.8.1

> <Gold.Id.Protein>
6NUR|6NUR_protein|mol2

> <Gold.PLP.Fitness>
39.8506

> <Gold.PLP.PLP>
-38.6290

> <Gold.PLP.part.hbond>
0.0000

> <Gold.PLP.part.metal>
0.0000

> <Gold.PLP.part.buried>
1.6288

> <Gold.PLP.part.nonpolar>
-40.2893

> <Gold.PLP.part.repulsive>
0.1504

> <Gold.PLP.ligand.clash>
0.0000

> <Gold.PLP.ligand.torsion>
0.6971

> <Gold.PLP.Chemscore.Hbond>
0.0000

> <Gold.PLP.Chemscore.CHOScore>
0.8667

> <Gold.PLP.Chemscore.Metal>
0.0000

> <Gold.Chemscore.Hbonds>
donor molecule, donor type, donor heavy atom, donor atom, acceptor molecule, acceptor atom, score
      L1  C     4    22       P1 10175  1.00

> <Gold.PLP.Chemscore.Internal.Correction>
0.0156

> <Gold.Rescore>
     Score         DG    S(hbond)    S(metal)    S(lipo)     H(rot)  DE(clash)    DE(int)     intcor
     15.01     -17.12       0.00        0.00     127.83       1.30       1.28       0.82       ----

> <Gold.Chemscore.Fitness>
15.0131

> <Gold.Chemscore.DG>
-17.1153

> <Gold.Chemscore.ZeroCoef>
-5.4800

> <Gold.Chemscore.Hbond>
0.0000

> <Gold.Chemscore.Metal>
0.0000

> <Gold.Chemscore.Lipo>
127.8302

> <Gold.Chemscore.Internal_Hbond>
0.0000

> <Gold.Chemscore.DEClash>
1.2790

> <Gold.Chemscore.DEInternal>
0.8233

> <Gold.Chemscore.Rot>
1.2972

> <Gold.Chemscore.Internal.Correction>
   9.000000E+99

> <Gold.Chemscore.Hbond.Weighted>
-0.0000

> <Gold.Chemscore.Metal.Weighted>
-0.0000

> <Gold.Chemscore.Lipo.Weighted>
-14.9561

> <Gold.Chemscore.Internal_Hbond.Weighted>
0.0000

> <Gold.Chemscore.DEClash.Weighted>
1.2790

> <Gold.Chemscore.DEInternal.Weighted>
0.8233

> <Gold.Chemscore.Rot.Weighted>
3.3208

> <Gold.Chemscore.Internal.Correction.Weighted>
   9.000000E+99

> <Gold.Protein.RotatedTorsions>
[ 6907 6896 6895 6894 ] final  109.52 input  -60.11 | X-H torsion
[ 7974 7965 7964 7962 ] final  -25.38 input  175.53 | X-H torsion
[ 8008 7997 7996 7995 ] final  176.42 input   59.86 | X-H torsion
[ 10167 10162 10161 10158 ] final  128.96 input  -65.29 | X-H torsion
[ 10718 10713 10712 10709 ] final  -45.18 input   66.30 | X-H torsion
[ 10763 10752 10751 10750 ] final   79.09 input  -60.55 | X-H torsion
[ 11005 11000 10999 10996 ] final -115.04 input  -57.11 | X-H torsion

> <Gold.Protein.ActiveResidues>
 VAL166  LYS551  ARG553  GLY616  TRP617  ASP618  TYR619  PRO620  LYS621  CYS622 
 ASP623  PHE694  ASN695  SER759  ASP760  ASP761  ALA762  ILE779  LEU786  VAL792 
 PHE793  MET794  SER795  GLU796  ALA797  LYS798  CYS799  TRP800  GLU811  SER814 

> <Gold.Protein.RotatedAtoms>
  152.5063  133.8933  159.7404 H   0  0  0  0  0  0  0  0  0  0  0  0  # atno 6907 bound_to 6896
  150.9366  133.6696  159.2806 H   0  0  0  0  0  0  0  0  0  0  0  0  # atno 6908 bound_to 6896
  151.4022  135.0977  159.9612 H   0  0  0  0  0  0  0  0  0  0  0  0  # atno 6909 bound_to 6896
  146.1494  140.4879  142.8617 H   0  0  0  0  0  0  0  0  0  0  0  0  # atno 7974 bound_to 7965
  156.0767  140.1384  156.9763 H   0  0  0  0  0  0  0  0  0  0  0  0  # atno 8008 bound_to 7997
  154.4561  140.0960  156.6812 H   0  0  0  0  0  0  0  0  0  0  0  0  # atno 8009 bound_to 7997
  155.5142  140.3454  155.4396 H   0  0  0  0  0  0  0  0  0  0  0  0  # atno 8010 bound_to 7997
  139.5501  144.6806  151.4350 H   0  0  0  0  0  0  0  0  0  0  0  0  # atno 10167 bound_to 10162
  156.2310  130.4172  149.8875 H   0  0  0  0  0  0  0  0  0  0  0  0  # atno 10718 bound_to 10713
  153.0925  135.4853  154.8716 H   0  0  0  0  0  0  0  0  0  0  0  0  # atno 10763 bound_to 10752
  154.7286  135.3055  154.8932 H   0  0  0  0  0  0  0  0  0  0  0  0  # atno 10764 bound_to 10752
  153.9574  135.6816  153.4798 H   0  0  0  0  0  0  0  0  0  0  0  0  # atno 10765 bound_to 10752
  141.0513  133.9683  157.2831 H   0  0  0  0  0  0  0  0  0  0  0  0  # atno 11005 bound_to 11000
  144.7886  140.5986  143.6557 LP  0  0  0  0  0  0  0  0  0  0  0  0  # atno 17320 bound_to 7965
  145.4859  139.1492  143.3736 LP  0  0  0  0  0  0  0  0  0  0  0  0  # atno 17321 bound_to 7965
  140.6761  143.8186  150.7060 LP  0  0  0  0  0  0  0  0  0  0  0  0  # atno 17342 bound_to 10162
  140.1626  143.4263  152.2057 LP  0  0  0  0  0  0  0  0  0  0  0  0  # atno 17343 bound_to 10162
  156.6489  130.8735  151.3527 LP  0  0  0  0  0  0  0  0  0  0  0  0  # atno 17370 bound_to 10713
  157.7133  130.9466  150.1165 LP  0  0  0  0  0  0  0  0  0  0  0  0  # atno 17371 bound_to 10713
  139.9353  135.0197  156.8534 LP  0  0  0  0  0  0  0  0  0  0  0  0  # atno 17394 bound_to 11000
  140.6050  134.0136  155.7553 LP  0  0  0  0  0  0  0  0  0  0  0  0  # atno 17395 bound_to 11000

$$$$
