AV-unprocessed.smi:1703|AV-procd|sdf|6856|dock5
  -GOLD-   22720 8 43D 1   1.00000     0.00000
 Structure written by MMmdl.
 48 50  0  0  0  0  0  0  0  0  1 V2000
  144.8625  144.8437  152.6705 C   0  0  0  0  0  0  0  0  0  0  0  0
  145.3510  144.1699  153.9567 C   0  0  2  0  0  0  0  0  0  0  0  0
  146.4059  143.0809  153.6811 C   0  0  0  0  0  0  0  0  0  0  0  0
  146.8097  142.3908  154.9046 N   0  0  0  0  0  0  0  0  0  0  0  0
  147.8013  141.3402  154.6656 C   0  0  0  0  0  0  0  0  0  0  0  0
  148.7952  141.0902  155.8173 C   0  0  1  0  0  0  0  0  0  0  0  0
  148.2390  140.1233  156.6864 O   0  0  0  0  0  0  0  0  0  0  0  0
  150.1513  140.5802  155.2925 C   0  0  0  0  0  0  0  0  0  0  0  0
  151.1760  140.5331  156.3283 N   0  0  0  0  0  0  0  0  0  0  0  0
  152.0386  139.5233  156.6089 C   0  0  0  0  0  0  0  0  0  0  0  0
  152.0364  138.2436  155.8210 C   0  0  0  0  0  0  0  0  0  0  0  0
  152.9857  137.2975  156.2688 O   0  0  0  0  0  0  0  0  0  0  0  0
  152.8868  139.7523  157.6144 N   0  0  0  0  0  0  0  0  0  0  0  0
  152.5375  141.0228  158.0273 C   0  0  0  0  0  0  0  0  0  0  0  0
  153.0659  141.8303  159.0599 C   0  0  0  0  0  0  0  0  0  0  0  0
  152.5417  143.1176  159.2981 C   0  0  0  0  0  0  0  0  0  0  0  0
  151.4850  143.6153  158.5084 C   0  0  0  0  0  0  0  0  0  0  0  0
  150.9442  142.8265  157.4748 C   0  0  0  0  0  0  0  0  0  0  0  0
  151.4696  141.5412  157.2421 C   0  0  0  0  0  0  0  0  0  0  0  0
  145.6207  141.8465  155.5509 C   0  0  0  0  0  0  0  0  0  0  0  0
  144.5666  142.9342  155.8325 C   0  0  2  0  0  0  0  0  0  0  0  0
  143.2838  142.3580  156.4408 C   0  0  0  0  0  0  0  0  0  0  0  0
  144.2296  143.5802  154.6083 O   0  0  0  0  0  0  0  0  0  0  0  0
  145.6851  145.3303  152.1460 H   0  0  0  0  0  0  0  0  0  0  0  0
  144.1123  145.6040  152.8897 H   0  0  0  0  0  0  0  0  0  0  0  0
  144.4134  144.1189  151.9907 H   0  0  0  0  0  0  0  0  0  0  0  0
  145.7774  144.9328  154.6104 H   0  0  0  0  0  0  0  0  0  0  0  0
  146.0072  142.3598  152.9655 H   0  0  0  0  0  0  0  0  0  0  0  0
  147.2665  143.5492  153.2059 H   0  0  0  0  0  0  0  0  0  0  0  0
  147.2864  140.4007  154.4579 H   0  0  0  0  0  0  0  0  0  0  0  0
  148.3574  141.5770  153.7570 H   0  0  0  0  0  0  0  0  0  0  0  0
  148.9648  142.0037  156.3843 H   0  0  0  0  0  0  0  0  0  0  0  0
  147.3737  140.4110  156.9356 H   0  0  0  0  0  0  0  0  0  0  0  0
  150.0393  139.5811  154.8695 H   0  0  0  0  0  0  0  0  0  0  0  0
  150.5023  141.2094  154.4751 H   0  0  0  0  0  0  0  0  0  0  0  0
  151.0519  137.7802  155.8786 H   0  0  0  0  0  0  0  0  0  0  0  0
  152.2343  138.4689  154.7732 H   0  0  0  0  0  0  0  0  0  0  0  0
  153.4659  137.6769  156.9889 H   0  0  0  0  0  0  0  0  0  0  0  0
  153.8765  141.4586  159.6692 H   0  0  0  0  0  0  0  0  0  0  0  0
  152.9534  143.7268  160.0894 H   0  0  0  0  0  0  0  0  0  0  0  0
  151.0905  144.6031  158.6955 H   0  0  0  0  0  0  0  0  0  0  0  0
  150.1380  143.2069  156.8652 H   0  0  0  0  0  0  0  0  0  0  0  0
  145.1827  141.0692  154.9222 H   0  0  0  0  0  0  0  0  0  0  0  0
  145.9000  141.3661  156.4894 H   0  0  0  0  0  0  0  0  0  0  0  0
  144.9796  143.6734  156.5211 H   0  0  0  0  0  0  0  0  0  0  0  0
  143.4885  141.8560  157.3866 H   0  0  0  0  0  0  0  0  0  0  0  0
  142.8194  141.6343  155.7705 H   0  0  0  0  0  0  0  0  0  0  0  0
  142.5571  143.1473  156.6343 H   0  0  0  0  0  0  0  0  0  0  0  0
  1  2  1  0  0  0  0
  1 24  1  0  0  0  0
  1 25  1  0  0  0  0
  1 26  1  0  0  0  0
  2 23  1  0  0  0  0
  2  3  1  0  0  0  0
  2 27  1  0  0  0  0
  3  4  1  0  0  0  0
  3 28  1  0  0  0  0
  3 29  1  0  0  0  0
  4  5  1  0  0  0  0
  4 20  1  0  0  0  0
  5  6  1  0  0  0  0
  5 30  1  0  0  0  0
  5 31  1  0  0  0  0
  6  7  1  0  0  0  0
  6  8  1  0  0  0  0
  6 32  1  0  0  0  0
  7 33  1  0  0  0  0
  8  9  1  0  0  0  0
  8 34  1  0  0  0  0
  8 35  1  0  0  0  0
  9 19  1  0  0  0  0
  9 10  1  0  0  0  0
 10 11  1  0  0  0  0
 10 13  2  0  0  0  0
 11 12  1  0  0  0  0
 11 36  1  0  0  0  0
 11 37  1  0  0  0  0
 12 38  1  0  0  0  0
 13 14  1  0  0  0  0
 14 19  2  0  0  0  0
 14 15  1  0  0  0  0
 15 16  2  0  0  0  0
 15 39  1  0  0  0  0
 16 17  1  0  0  0  0
 16 40  1  0  0  0  0
 17 18  2  0  0  0  0
 17 41  1  0  0  0  0
 18 19  1  0  0  0  0
 18 42  1  0  0  0  0
 20 21  1  0  0  0  0
 20 43  1  0  0  0  0
 20 44  1  0  0  0  0
 21 22  1  0  0  0  0
 21 23  1  0  0  0  0
 21 45  1  0  0  0  0
 22 46  1  0  0  0  0
 22 47  1  0  0  0  0
 22 48  1  0  0  0  0
M  END
> <s_m_source_file>
AV-unprocessed.smi

> <i_m_source_file_index>
1703

> <i_lp_mmshare_version>
43012

> <i_f3d_flags>
0

> <s_epik_input>
W0NIM11bQ0BASF0xW0NIMl1OKFtDSDJdW0NASF0oTzEpW0NIM10pW0NIMl1bQ0BIXShbT0hdKVtDSDJdbihjKG4yKVtDSDJdW09IXSljKGMyMylbY0hdW2NIXVtjSF1bY0hdMw==

> <s_epik_cmdline>
J2VwaWtfcHl0aG9uJywgJy1waCcsICc3LjAnLCAnLXRuJywgJzgnLCAnLW1hJywgJzIwMCcsICctbWV0YWxfYmluZGluZycsICctaW1hZScsICc8aW5maWxlLm1hZT4nLCAnLW9tYWUnLCAnPG91dGZpbGUubWFlPic=

> <r_epik_Ionization_Penalty>
0.307685

> <r_epik_Ionization_Penalty_Charging>
0

> <r_epik_Ionization_Penalty_Neutral>
0.307685

> <r_epik_State_Penalty>
0.277856

> <r_epik_Charging_Adjusted_Penalty>
0.277856

> <i_epik_Tot_Q>
0

> <i_epik_Tot_abs_Q>
0

> <r_epik_Metal_State_Penalty>
0.238959

> <b_epik_Metal_Only>
0

> <s_lp_Force_Field>
OPLS_2005

> <r_lp_Energy>
30.3815

> <b_lp_Chiralities_Consistent>
1

> <s_lp_Variant>
AV-unprocessed.smi:1703-4

> <Gold.Version>
5.8.1

> <Gold.Id.Protein>
6NUR|6NUR_protein|mol2

> <Gold.PLP.Fitness>
43.5343

> <Gold.PLP.PLP>
-40.5085

> <Gold.PLP.part.hbond>
-2.0000

> <Gold.PLP.part.metal>
0.0000

> <Gold.PLP.part.buried>
-5.8645

> <Gold.PLP.part.nonpolar>
-33.2817

> <Gold.PLP.part.repulsive>
0.3270

> <Gold.PLP.ligand.clash>
0.0000

> <Gold.PLP.ligand.torsion>
0.9250

> <Gold.PLP.Chemscore.Hbond>
1.6027

> <Gold.PLP.Chemscore.CHOScore>
0.0000

> <Gold.PLP.Chemscore.Metal>
0.0000

> <Gold.Chemscore.Hbonds>
donor molecule, donor type, donor heavy atom, donor atom, acceptor molecule, acceptor atom, score
      P1  H  7997  8008       L1    13  1.00
      P1  H 10752 10765       L1    12  0.48

> <Gold.PLP.Chemscore.Internal.Correction>
0.0677

> <Gold.Rescore>
     Score         DG    S(hbond)    S(metal)    S(lipo)     H(rot)  DE(clash)    DE(int)     intcor
     12.53     -13.39       0.81        0.00     107.57       2.88       0.05       0.80       ----

> <Gold.Chemscore.Fitness>
12.5318

> <Gold.Chemscore.DG>
-13.3898

> <Gold.Chemscore.ZeroCoef>
-5.4800

> <Gold.Chemscore.Hbond>
0.8059

> <Gold.Chemscore.Metal>
0.0000

> <Gold.Chemscore.Lipo>
107.5662

> <Gold.Chemscore.Internal_Hbond>
0.0000

> <Gold.Chemscore.DEClash>
0.0532

> <Gold.Chemscore.DEInternal>
0.8047

> <Gold.Chemscore.Rot>
2.8778

> <Gold.Chemscore.Internal.Correction>
   9.000000E+99

> <Gold.Chemscore.Hbonds>
donor molecule, donor type, donor heavy atom, donor atom, acceptor molecule, acceptor atom, score
      P1  H  7997  8008       L1    13  0.22
      P1  H 10752 10765       L1    12  0.46

> <Gold.Chemscore.Hbond.Weighted>
-2.6916

> <Gold.Chemscore.Metal.Weighted>
-0.0000

> <Gold.Chemscore.Lipo.Weighted>
-12.5852

> <Gold.Chemscore.Internal_Hbond.Weighted>
0.0000

> <Gold.Chemscore.DEClash.Weighted>
0.0532

> <Gold.Chemscore.DEInternal.Weighted>
0.8047

> <Gold.Chemscore.Rot.Weighted>
7.3671

> <Gold.Chemscore.Internal.Correction.Weighted>
   9.000000E+99

> <Gold.Protein.RotatedTorsions>
[ 6907 6896 6895 6894 ] final   76.42 input  -60.11 | X-H torsion
[ 7974 7965 7964 7962 ] final   80.20 input  175.53 | X-H torsion
[ 8008 7997 7996 7995 ] final  -81.75 input   59.86 | X-H torsion
[ 10167 10162 10161 10158 ] final  -14.98 input  -65.29 | X-H torsion
[ 10718 10713 10712 10709 ] final -166.44 input   66.30 | X-H torsion
[ 10763 10752 10751 10750 ] final -139.22 input  -60.55 | X-H torsion
[ 11005 11000 10999 10996 ] final   78.23 input  -57.11 | X-H torsion

> <Gold.Protein.ActiveResidues>
 VAL166  LYS551  ARG553  GLY616  TRP617  ASP618  TYR619  PRO620  LYS621  CYS622 
 ASP623  PHE694  ASN695  SER759  ASP760  ASP761  ALA762  ILE779  LEU786  VAL792 
 PHE793  MET794  SER795  GLU796  ALA797  LYS798  CYS799  TRP800  GLU811  SER814 

> <Gold.Protein.RotatedAtoms>
  152.5072  134.3972  159.9403 H   0  0  0  0  0  0  0  0  0  0  0  0  # atno 6907 bound_to 6896
  151.3934  133.3775  159.2731 H   0  0  0  0  0  0  0  0  0  0  0  0  # atno 6908 bound_to 6896
  150.9415  134.8845  159.7674 H   0  0  0  0  0  0  0  0  0  0  0  0  # atno 6909 bound_to 6896
  145.6544  139.2455  143.1958 H   0  0  0  0  0  0  0  0  0  0  0  0  # atno 7974 bound_to 7965
  154.6015  140.0643  156.9374 H   0  0  0  0  0  0  0  0  0  0  0  0  # atno 8008 bound_to 7997
  155.2125  140.3324  155.4308 H   0  0  0  0  0  0  0  0  0  0  0  0  # atno 8009 bound_to 7997
  156.2321  140.1845  156.7199 H   0  0  0  0  0  0  0  0  0  0  0  0  # atno 8010 bound_to 7997
  140.7210  143.5265  150.9570 H   0  0  0  0  0  0  0  0  0  0  0  0  # atno 10167 bound_to 10162
  156.6678  130.9072  151.3039 H   0  0  0  0  0  0  0  0  0  0  0  0  # atno 10718 bound_to 10713
  154.8615  135.3589  154.5512 H   0  0  0  0  0  0  0  0  0  0  0  0  # atno 10763 bound_to 10752
  153.6130  135.7009  153.5344 H   0  0  0  0  0  0  0  0  0  0  0  0  # atno 10764 bound_to 10752
  153.3193  135.4156  155.1364 H   0  0  0  0  0  0  0  0  0  0  0  0  # atno 10765 bound_to 10752
  139.9221  134.7747  156.1623 H   0  0  0  0  0  0  0  0  0  0  0  0  # atno 11005 bound_to 11000
  146.1177  140.7348  142.9472 LP  0  0  0  0  0  0  0  0  0  0  0  0  # atno 17320 bound_to 7965
  144.7111  140.4042  143.7080 LP  0  0  0  0  0  0  0  0  0  0  0  0  # atno 17321 bound_to 7965
  139.8984  143.6866  152.3135 LP  0  0  0  0  0  0  0  0  0  0  0  0  # atno 17342 bound_to 10162
  139.7206  144.7603  151.0961 LP  0  0  0  0  0  0  0  0  0  0  0  0  # atno 17343 bound_to 10162
  157.7087  130.9415  150.1017 LP  0  0  0  0  0  0  0  0  0  0  0  0  # atno 17370 bound_to 10713
  156.1961  130.3657  149.8847 LP  0  0  0  0  0  0  0  0  0  0  0  0  # atno 17371 bound_to 10713
  141.0750  133.6779  156.2218 LP  0  0  0  0  0  0  0  0  0  0  0  0  # atno 17394 bound_to 11000
  140.6443  134.5133  157.5572 LP  0  0  0  0  0  0  0  0  0  0  0  0  # atno 17395 bound_to 11000

$$$$
