AV-unprocessed.smi:1085|AV-procd|sdf|4723|dock8
  -GOLD-   22720 3253D 1   1.00000     0.00000
 Structure written by MMmdl.
 33 34  0  0  0  0  0  0  0  0  1 V2000
  152.4131  139.7291  156.9661 O   0  0  0  0  0  0  0  0  0  0  0  0
  151.3321  139.4369  157.4758 C   0  0  0  0  0  0  0  0  0  0  0  0
  151.1883  138.1363  158.2657 C   0  0  0  0  0  0  0  0  0  0  0  0
  151.4652  136.9874  157.4244 N   0  0  0  0  0  0  0  0  0  0  0  0
  152.5222  136.6905  156.6650 C   0  0  0  0  0  0  0  0  0  0  0  0
  152.3671  135.5329  156.0418 N   0  0  0  0  0  0  0  0  0  0  0  0
  151.1185  135.1114  156.4678 N   0  0  0  0  0  0  0  0  0  0  0  0
  150.5784  135.9705  157.2880 N   0  0  0  0  0  0  0  0  0  0  0  0
  150.2341  140.2047  157.3926 N   0  0  0  0  0  0  0  0  0  0  0  0
  150.1368  141.5073  156.7352 C   0  0  1  0  0  0  0  0  0  0  0  0
  148.7470  142.1288  156.9700 C   0  0  0  0  0  0  0  0  0  0  0  0
  148.5498  142.5711  158.4294 C   0  0  0  0  0  0  0  0  0  0  0  0
  149.6691  143.5228  158.8798 C   0  0  0  0  0  0  0  0  0  0  0  0
  151.0648  142.8892  158.6979 C   0  0  2  0  0  0  0  0  0  0  0  0
  152.1934  143.8303  159.1676 C   0  0  0  0  0  0  0  0  0  0  0  0
  151.9996  144.2111  160.4308 F   0  0  0  0  0  0  0  0  0  0  0  0
  153.3706  143.2110  159.0798 F   0  0  0  0  0  0  0  0  0  0  0  0
  152.2355  144.9135  158.3918 F   0  0  0  0  0  0  0  0  0  0  0  0
  151.2588  142.4418  157.2305 C   0  0  0  0  0  0  0  0  0  0  0  0
  151.8782  138.1294  159.1107 H   0  0  0  0  0  0  0  0  0  0  0  0
  150.1790  138.0537  158.6722 H   0  0  0  0  0  0  0  0  0  0  0  0
  153.3943  137.3198  156.5658 H   0  0  0  0  0  0  0  0  0  0  0  0
  149.3942  139.8672  157.8401 H   0  0  0  0  0  0  0  0  0  0  0  0
  150.2639  141.3811  155.6588 H   0  0  0  0  0  0  0  0  0  0  0  0
  148.6299  142.9961  156.3185 H   0  0  0  0  0  0  0  0  0  0  0  0
  147.9646  141.4259  156.6815 H   0  0  0  0  0  0  0  0  0  0  0  0
  147.5814  143.0600  158.5393 H   0  0  0  0  0  0  0  0  0  0  0  0
  148.5271  141.6974  159.0817 H   0  0  0  0  0  0  0  0  0  0  0  0
  149.6068  144.4504  158.3096 H   0  0  0  0  0  0  0  0  0  0  0  0
  149.5126  143.7934  159.9242 H   0  0  0  0  0  0  0  0  0  0  0  0
  151.1078  141.9998  159.3285 H   0  0  0  0  0  0  0  0  0  0  0  0
  152.2244  141.9489  157.1110 H   0  0  0  0  0  0  0  0  0  0  0  0
  151.2908  143.3232  156.5888 H   0  0  0  0  0  0  0  0  0  0  0  0
  1  2  2  0  0  0  0
  2  3  1  0  0  0  0
  2  9  1  0  0  0  0
  3  4  1  0  0  0  0
  3 20  1  0  0  0  0
  3 21  1  0  0  0  0
  4  8  1  0  0  0  0
  4  5  1  0  0  0  0
  5  6  2  0  0  0  0
  5 22  1  0  0  0  0
  6  7  1  0  0  0  0
  7  8  2  0  0  0  0
  9 10  1  0  0  0  0
  9 23  1  0  0  0  0
 10 19  1  0  0  0  0
 10 11  1  0  0  0  0
 10 24  1  0  0  0  0
 11 12  1  0  0  0  0
 11 25  1  0  0  0  0
 11 26  1  0  0  0  0
 12 13  1  0  0  0  0
 12 27  1  0  0  0  0
 12 28  1  0  0  0  0
 13 14  1  0  0  0  0
 13 29  1  0  0  0  0
 13 30  1  0  0  0  0
 14 15  1  0  0  0  0
 14 19  1  0  0  0  0
 14 31  1  0  0  0  0
 15 16  1  0  0  0  0
 15 17  1  0  0  0  0
 15 18  1  0  0  0  0
 19 32  1  0  0  0  0
 19 33  1  0  0  0  0
M  END
> <s_m_source_file>
AV-unprocessed.smi

> <i_m_source_file_index>
1085

> <i_lp_mmshare_version>
43012

> <i_f3d_flags>
0

> <s_epik_input>
bjFubltjSF1uMVtDSDJdQyg9TylbTkhdW0NAQEhdMltDSDJdW0NIMl1bQ0gyXVtDQEBIXShDKEYpKEYpRilbQ0gyXTI=

> <s_epik_cmdline>
J2VwaWtfcHl0aG9uJywgJy1waCcsICc3LjAnLCAnLXRuJywgJzgnLCAnLW1hJywgJzIwMCcsICctbWV0YWxfYmluZGluZycsICctaW1hZScsICc8aW5maWxlLm1hZT4nLCAnLW9tYWUnLCAnPG91dGZpbGUubWFlPic=

> <r_lp_tautomer_probability>
1

> <r_epik_Ionization_Penalty>
8.41315e-07

> <r_epik_Ionization_Penalty_Charging>
0

> <r_epik_Ionization_Penalty_Neutral>
8.41315e-07

> <r_epik_State_Penalty>
-0

> <r_epik_Charging_Adjusted_Penalty>
0

> <i_epik_Tot_Q>
0

> <i_epik_Tot_abs_Q>
0

> <r_epik_Metal_State_Penalty>
-0

> <b_epik_Metal_Only>
0

> <s_lp_Force_Field>
OPLS_2005

> <r_lp_Energy>
12.3827

> <b_lp_Chiralities_Consistent>
1

> <s_lp_Variant>
AV-unprocessed.smi:1085-4

> <Gold.Version>
5.8.1

> <Gold.Id.Protein>
6NUR|6NUR_protein|mol2

> <Gold.PLP.Fitness>
40.5409

> <Gold.PLP.PLP>
-33.6717

> <Gold.PLP.part.hbond>
-4.0000

> <Gold.PLP.part.metal>
0.0000

> <Gold.PLP.part.buried>
-4.3054

> <Gold.PLP.part.nonpolar>
-26.1238

> <Gold.PLP.part.repulsive>
0.0837

> <Gold.PLP.ligand.clash>
0.0000

> <Gold.PLP.ligand.torsion>
0.1034

> <Gold.PLP.Chemscore.Hbond>
2.3504

> <Gold.PLP.Chemscore.CHOScore>
0.0000

> <Gold.PLP.Chemscore.Metal>
0.0000

> <Gold.Chemscore.Hbonds>
donor molecule, donor type, donor heavy atom, donor atom, acceptor molecule, acceptor atom, score
      P1  H  7997  8010       L1     1  0.99
      P1  H 10752 10764       L1     6  0.28

> <Gold.PLP.Chemscore.Internal.Correction>
0.0247

> <Gold.Rescore>
     Score         DG    S(hbond)    S(metal)    S(lipo)     H(rot)  DE(clash)    DE(int)     intcor
     11.69     -12.87       1.93        0.00      52.80       2.05       0.10       1.09       ----

> <Gold.Chemscore.Fitness>
11.6908

> <Gold.Chemscore.DG>
-12.8746

> <Gold.Chemscore.ZeroCoef>
-5.4800

> <Gold.Chemscore.Hbond>
1.9322

> <Gold.Chemscore.Metal>
0.0000

> <Gold.Chemscore.Lipo>
52.8012

> <Gold.Chemscore.Internal_Hbond>
0.0000

> <Gold.Chemscore.DEClash>
0.0977

> <Gold.Chemscore.DEInternal>
1.0861

> <Gold.Chemscore.Rot>
2.0456

> <Gold.Chemscore.Internal.Correction>
   9.000000E+99

> <Gold.Chemscore.Hbonds>
donor molecule, donor type, donor heavy atom, donor atom, acceptor molecule, acceptor atom, score
      P1  H  7997  8010       L1     1  0.92
      P1  H 10752 10764       L1     6  0.22

> <Gold.Chemscore.Hbond.Weighted>
-6.4537

> <Gold.Chemscore.Metal.Weighted>
-0.0000

> <Gold.Chemscore.Lipo.Weighted>
-6.1777

> <Gold.Chemscore.Internal_Hbond.Weighted>
0.0000

> <Gold.Chemscore.DEClash.Weighted>
0.0977

> <Gold.Chemscore.DEInternal.Weighted>
1.0861

> <Gold.Chemscore.Rot.Weighted>
5.2368

> <Gold.Chemscore.Internal.Correction.Weighted>
   9.000000E+99

> <Gold.Protein.RotatedTorsions>
[ 6907 6896 6895 6894 ] final  -54.31 input  -60.11 | X-H torsion
[ 7974 7965 7964 7962 ] final  -98.03 input  175.53 | X-H torsion
[ 8008 7997 7996 7995 ] final   55.03 input   59.86 | X-H torsion
[ 10167 10162 10161 10158 ] final   83.83 input  -65.29 | X-H torsion
[ 10718 10713 10712 10709 ] final -128.24 input   66.30 | X-H torsion
[ 10763 10752 10751 10750 ] final  -23.80 input  -60.55 | X-H torsion
[ 11005 11000 10999 10996 ] final  139.45 input  -57.11 | X-H torsion

> <Gold.Protein.ActiveResidues>
 VAL166  LYS551  ARG553  GLY616  TRP617  ASP618  TYR619  PRO620  LYS621  CYS622 
 ASP623  PHE694  ASN695  SER759  ASP760  ASP761  ALA762  ILE779  LEU786  VAL792 
 PHE793  MET794  SER795  GLU796  ALA797  LYS798  CYS799  TRP800  GLU811  SER814 

> <Gold.Protein.RotatedAtoms>
  150.8349  134.7618  159.6884 H   0  0  0  0  0  0  0  0  0  0  0  0  # atno 6907 bound_to 6896
  152.4447  134.5515  159.9878 H   0  0  0  0  0  0  0  0  0  0  0  0  # atno 6908 bound_to 6896
  151.5668  133.3358  159.3017 H   0  0  0  0  0  0  0  0  0  0  0  0  # atno 6909 bound_to 6896
  145.3260  140.9432  143.2689 H   0  0  0  0  0  0  0  0  0  0  0  0  # atno 7974 bound_to 7965
  155.4944  140.3472  155.4360 H   0  0  0  0  0  0  0  0  0  0  0  0  # atno 8008 bound_to 7997
  156.0955  140.1422  156.9564 H   0  0  0  0  0  0  0  0  0  0  0  0  # atno 8009 bound_to 7997
  154.4661  140.0917  156.7001 H   0  0  0  0  0  0  0  0  0  0  0  0  # atno 8010 bound_to 7997
  139.9143  144.6252  150.8505 H   0  0  0  0  0  0  0  0  0  0  0  0  # atno 10167 bound_to 10162
  156.1932  130.6809  151.0450 H   0  0  0  0  0  0  0  0  0  0  0  0  # atno 10718 bound_to 10713
  153.6735  135.6970  153.5139 H   0  0  0  0  0  0  0  0  0  0  0  0  # atno 10763 bound_to 10752
  153.2539  135.4266  155.0825 H   0  0  0  0  0  0  0  0  0  0  0  0  # atno 10764 bound_to 10752
  154.8420  135.3538  154.6279 H   0  0  0  0  0  0  0  0  0  0  0  0  # atno 10765 bound_to 10752
  140.0255  134.9376  157.0560 H   0  0  0  0  0  0  0  0  0  0  0  0  # atno 11005 bound_to 11000
  144.8902  139.4785  143.6681 LP  0  0  0  0  0  0  0  0  0  0  0  0  # atno 17320 bound_to 7965
  146.3064  139.7595  142.9053 LP  0  0  0  0  0  0  0  0  0  0  0  0  # atno 17321 bound_to 7965
  140.7678  143.3343  151.2343 LP  0  0  0  0  0  0  0  0  0  0  0  0  # atno 17342 bound_to 10162
  139.6916  143.9683  152.2862 LP  0  0  0  0  0  0  0  0  0  0  0  0  # atno 17343 bound_to 10162
  157.6942  131.0800  150.7019 LP  0  0  0  0  0  0  0  0  0  0  0  0  # atno 17370 bound_to 10713
  156.7076  130.4642  149.5556 LP  0  0  0  0  0  0  0  0  0  0  0  0  # atno 17371 bound_to 10713
  140.4313  134.1777  155.7168 LP  0  0  0  0  0  0  0  0  0  0  0  0  # atno 17394 bound_to 11000
  141.1800  133.8433  157.1290 LP  0  0  0  0  0  0  0  0  0  0  0  0  # atno 17395 bound_to 11000

$$$$
