AV-unprocessed.smi:1584|AV-procd|sdf|6367|dock2
  -GOLD-   22720 6593D 1   1.00000     0.00000
 Structure written by MMmdl.
 39 40  0  0  0  0  0  0  0  0  1 V2000
  148.0370  134.8734  155.8069 C   0  0  0  0  0  0  0  0  0  0  0  0
  147.1901  135.7528  154.8724 C   0  0  2  0  0  0  0  0  0  0  0  0
  146.4663  134.9490  153.7696 C   0  0  0  0  0  0  0  0  0  0  0  0
  145.1962  135.5396  153.3874 N   0  0  0  0  0  0  0  0  0  0  0  0
  143.9377  134.9821  153.4673 C   0  0  0  0  0  0  0  0  0  0  0  0
  143.0523  135.9080  152.9949 C   0  0  0  0  0  0  0  0  0  0  0  0
  143.8751  137.0158  152.6478 C   0  0  0  0  0  0  0  0  0  0  0  0
  145.1578  136.7933  152.8855 N   0  0  0  0  0  0  0  0  0  0  0  0
  148.0448  136.7738  154.2731 N   0  0  0  0  0  0  0  0  0  0  0  0
  148.6446  137.7742  154.9378 C   0  0  0  0  0  0  0  0  0  0  0  0
  148.5346  137.9338  156.1539 O   0  0  0  0  0  0  0  0  0  0  0  0
  149.5070  138.7345  154.0999 C   0  0  1  0  0  0  0  0  0  0  0  0
  148.9811  140.1767  154.1154 C   0  0  0  0  0  0  0  0  0  0  0  0
  149.2530  140.8729  155.4557 C   0  0  0  0  0  0  0  0  0  0  0  0
  150.6368  140.7136  155.9191 N   0  0  0  0  0  0  0  0  0  0  0  0
  151.0754  141.7021  156.9063 C   0  0  0  0  0  0  0  0  0  0  0  0
  151.4659  139.7117  155.5381 C   0  0  0  0  0  0  0  0  0  0  0  0
  152.6076  139.5989  155.9851 O   0  0  0  0  0  0  0  0  0  0  0  0
  150.9999  138.6757  154.4970 C   0  0  0  0  0  0  0  0  0  0  0  0
  147.4203  134.1556  156.3481 H   0  0  0  0  0  0  0  0  0  0  0  0
  148.5556  135.4782  156.5518 H   0  0  0  0  0  0  0  0  0  0  0  0
  148.7887  134.3131  155.2501 H   0  0  0  0  0  0  0  0  0  0  0  0
  146.4391  136.2508  155.4888 H   0  0  0  0  0  0  0  0  0  0  0  0
  147.0864  134.8873  152.8746 H   0  0  0  0  0  0  0  0  0  0  0  0
  146.2956  133.9225  154.0988 H   0  0  0  0  0  0  0  0  0  0  0  0
  143.7804  133.9835  153.8479 H   0  0  0  0  0  0  0  0  0  0  0  0
  141.9801  135.8094  152.9108 H   0  0  0  0  0  0  0  0  0  0  0  0
  143.5801  137.9686  152.2335 H   0  0  0  0  0  0  0  0  0  0  0  0
  148.1912  136.7146  153.2757 H   0  0  0  0  0  0  0  0  0  0  0  0
  149.4423  138.3858  153.0675 H   0  0  0  0  0  0  0  0  0  0  0  0
  149.4675  140.7386  153.3168 H   0  0  0  0  0  0  0  0  0  0  0  0
  147.9135  140.2009  153.8927 H   0  0  0  0  0  0  0  0  0  0  0  0
  149.0134  141.9322  155.3526 H   0  0  0  0  0  0  0  0  0  0  0  0
  148.5871  140.4825  156.2262 H   0  0  0  0  0  0  0  0  0  0  0  0
  151.4477  141.2132  157.8080 H   0  0  0  0  0  0  0  0  0  0  0  0
  150.2668  142.3670  157.2120 H   0  0  0  0  0  0  0  0  0  0  0  0
  151.8759  142.3194  156.4966 H   0  0  0  0  0  0  0  0  0  0  0  0
  151.2696  137.6787  154.8495 H   0  0  0  0  0  0  0  0  0  0  0  0
  151.6023  138.8408  153.6030 H   0  0  0  0  0  0  0  0  0  0  0  0
  1  2  1  0  0  0  0
  1 20  1  0  0  0  0
  1 21  1  0  0  0  0
  1 22  1  0  0  0  0
  2  3  1  0  0  0  0
  2  9  1  0  0  0  0
  2 23  1  0  0  0  0
  3  4  1  0  0  0  0
  3 24  1  0  0  0  0
  3 25  1  0  0  0  0
  4  8  1  0  0  0  0
  4  5  1  0  0  0  0
  5  6  2  0  0  0  0
  5 26  1  0  0  0  0
  6  7  1  0  0  0  0
  6 27  1  0  0  0  0
  7  8  2  0  0  0  0
  7 28  1  0  0  0  0
  9 10  1  0  0  0  0
  9 29  1  0  0  0  0
 10 11  2  0  0  0  0
 10 12  1  0  0  0  0
 12 19  1  0  0  0  0
 12 13  1  0  0  0  0
 12 30  1  0  0  0  0
 13 14  1  0  0  0  0
 13 31  1  0  0  0  0
 13 32  1  0  0  0  0
 14 15  1  0  0  0  0
 14 33  1  0  0  0  0
 14 34  1  0  0  0  0
 15 16  1  0  0  0  0
 15 17  1  0  0  0  0
 16 35  1  0  0  0  0
 16 36  1  0  0  0  0
 16 37  1  0  0  0  0
 17 18  2  0  0  0  0
 17 19  1  0  0  0  0
 19 38  1  0  0  0  0
 19 39  1  0  0  0  0
M  END
> <s_m_source_file>
AV-unprocessed.smi

> <i_m_source_file_index>
1584

> <i_lp_mmshare_version>
43012

> <i_f3d_flags>
0

> <s_epik_input>
bjFbY0hdW2NIXVtjSF1uMVtDSDJdW0NAQEhdKFtDSDNdKVtOSF1DKD1PKVtDQEBIXTJbQ0gyXVtDSDJdTihbQ0gzXSlDKD1PKVtDSDJdMg==

> <s_epik_cmdline>
J2VwaWtfcHl0aG9uJywgJy1waCcsICc3LjAnLCAnLXRuJywgJzgnLCAnLW1hJywgJzIwMCcsICctbWV0YWxfYmluZGluZycsICctaW1hZScsICc8aW5maWxlLm1hZT4nLCAnLW9tYWUnLCAnPG91dGZpbGUubWFlPic=

> <r_lp_tautomer_probability>
1

> <r_epik_Ionization_Penalty>
0.000299422

> <r_epik_Ionization_Penalty_Charging>
0

> <r_epik_Ionization_Penalty_Neutral>
0.000299422

> <r_epik_State_Penalty>
-0

> <r_epik_Charging_Adjusted_Penalty>
0

> <i_epik_Tot_Q>
0

> <i_epik_Tot_abs_Q>
0

> <r_epik_Metal_State_Penalty>
-0

> <b_epik_Metal_Only>
0

> <s_lp_Force_Field>
OPLS_2005

> <r_lp_Energy>
12.5002

> <b_lp_Chiralities_Consistent>
1

> <s_lp_Variant>
AV-unprocessed.smi:1584-3

> <Gold.Version>
5.8.1

> <Gold.Id.Protein>
6NUR|6NUR_protein|mol2

> <Gold.PLP.Fitness>
39.7828

> <Gold.PLP.PLP>
-26.5829

> <Gold.PLP.part.hbond>
-2.0000

> <Gold.PLP.part.metal>
0.0000

> <Gold.PLP.part.buried>
-1.9628

> <Gold.PLP.part.nonpolar>
-23.1791

> <Gold.PLP.part.repulsive>
0.1844

> <Gold.PLP.ligand.clash>
0.0000

> <Gold.PLP.ligand.torsion>
0.4811

> <Gold.PLP.Chemscore.Hbond>
2.0000

> <Gold.PLP.Chemscore.CHOScore>
2.6968

> <Gold.PLP.Chemscore.Metal>
0.0000

> <Gold.Chemscore.Hbonds>
donor molecule, donor type, donor heavy atom, donor atom, acceptor molecule, acceptor atom, score
      L1  H     9    29       P1  7948  1.00
      P1  H  7997  8010       L1    18  1.00
      L1  C     5    26       P1 10957  0.69
      L1  C     7    28       P1 10171  0.89
      L1  C     7    28       P1 10175  1.00

> <Gold.PLP.Chemscore.Internal.Correction>
0.0718

> <Gold.Rescore>
     Score         DG    S(hbond)    S(metal)    S(lipo)     H(rot)  DE(clash)    DE(int)     intcor
     13.34     -13.97       1.99        0.00      52.40       1.67       0.10       0.53       ----

> <Gold.Chemscore.Fitness>
13.3418

> <Gold.Chemscore.DG>
-13.9675

> <Gold.Chemscore.ZeroCoef>
-5.4800

> <Gold.Chemscore.Hbond>
1.9883

> <Gold.Chemscore.Metal>
0.0000

> <Gold.Chemscore.Lipo>
52.3985

> <Gold.Chemscore.Internal_Hbond>
0.0000

> <Gold.Chemscore.DEClash>
0.0991

> <Gold.Chemscore.DEInternal>
0.5266

> <Gold.Chemscore.Rot>
1.6734

> <Gold.Chemscore.Internal.Correction>
   9.000000E+99

> <Gold.Chemscore.Hbonds>
donor molecule, donor type, donor heavy atom, donor atom, acceptor molecule, acceptor atom, score
      L1  H     9    29       P1  7948  0.98
      P1  H  7997  8010       L1    18  1.00

> <Gold.Chemscore.Hbond.Weighted>
-6.6409

> <Gold.Chemscore.Metal.Weighted>
-0.0000

> <Gold.Chemscore.Lipo.Weighted>
-6.1306

> <Gold.Chemscore.Internal_Hbond.Weighted>
0.0000

> <Gold.Chemscore.DEClash.Weighted>
0.0991

> <Gold.Chemscore.DEInternal.Weighted>
0.5266

> <Gold.Chemscore.Rot.Weighted>
4.2840

> <Gold.Chemscore.Internal.Correction.Weighted>
   9.000000E+99

> <Gold.Protein.RotatedTorsions>
[ 6907 6896 6895 6894 ] final  -52.61 input  -60.11 | X-H torsion
[ 7974 7965 7964 7962 ] final -118.92 input  175.53 | X-H torsion
[ 8008 7997 7996 7995 ] final   80.50 input   59.86 | X-H torsion
[ 10167 10162 10161 10158 ] final  164.01 input  -65.29 | X-H torsion
[ 10718 10713 10712 10709 ] final   52.34 input   66.30 | X-H torsion
[ 10763 10752 10751 10750 ] final   28.17 input  -60.55 | X-H torsion
[ 11005 11000 10999 10996 ] final  -50.78 input  -57.11 | X-H torsion

> <Gold.Protein.ActiveResidues>
 VAL166  LYS551  ARG553  GLY616  TRP617  ASP618  TYR619  PRO620  LYS621  CYS622 
 ASP623  PHE694  ASN695  SER759  ASP760  ASP761  ALA762  ILE779  LEU786  VAL792 
 PHE793  MET794  SER795  GLU796  ALA797  LYS798  CYS799  TRP800  GLU811  SER814 

> <Gold.Protein.RotatedAtoms>
  150.8502  134.7824  159.7002 H   0  0  0  0  0  0  0  0  0  0  0  0  # atno 6907 bound_to 6896
  152.4569  134.5269  159.9809 H   0  0  0  0  0  0  0  0  0  0  0  0  # atno 6908 bound_to 6896
  151.5391  133.3398  159.2968 H   0  0  0  0  0  0  0  0  0  0  0  0  # atno 6909 bound_to 6896
  145.0683  140.8341  143.4111 H   0  0  0  0  0  0  0  0  0  0  0  0  # atno 7974 bound_to 7965
  155.8844  140.3442  155.5911 H   0  0  0  0  0  0  0  0  0  0  0  0  # atno 8008 bound_to 7997
  155.7683  140.0842  157.2140 H   0  0  0  0  0  0  0  0  0  0  0  0  # atno 8009 bound_to 7997
  154.4027  140.1523  156.2899 H   0  0  0  0  0  0  0  0  0  0  0  0  # atno 8010 bound_to 7997
  139.4882  144.4279  151.9107 H   0  0  0  0  0  0  0  0  0  0  0  0  # atno 10167 bound_to 10162
  157.5066  130.8473  149.8382 H   0  0  0  0  0  0  0  0  0  0  0  0  # atno 10718 bound_to 10713
  153.0509  135.6519  154.0697 H   0  0  0  0  0  0  0  0  0  0  0  0  # atno 10763 bound_to 10752
  154.0386  135.2905  155.3360 H   0  0  0  0  0  0  0  0  0  0  0  0  # atno 10764 bound_to 10752
  154.6796  135.5325  153.8312 H   0  0  0  0  0  0  0  0  0  0  0  0  # atno 10765 bound_to 10752
  141.0835  133.6648  156.3781 H   0  0  0  0  0  0  0  0  0  0  0  0  # atno 11005 bound_to 11000
  145.1324  139.2624  143.5533 LP  0  0  0  0  0  0  0  0  0  0  0  0  # atno 17320 bound_to 7965
  146.3527  140.0978  142.8609 LP  0  0  0  0  0  0  0  0  0  0  0  0  # atno 17321 bound_to 7965
  140.3725  144.2837  150.5918 LP  0  0  0  0  0  0  0  0  0  0  0  0  # atno 17342 bound_to 10162
  140.5306  143.2244  151.8245 LP  0  0  0  0  0  0  0  0  0  0  0  0  # atno 17343 bound_to 10162
  156.0262  130.3779  150.1816 LP  0  0  0  0  0  0  0  0  0  0  0  0  # atno 17370 bound_to 10713
  157.0006  130.9921  151.3392 LP  0  0  0  0  0  0  0  0  0  0  0  0  # atno 17371 bound_to 10713
  140.5416  134.6115  157.5381 LP  0  0  0  0  0  0  0  0  0  0  0  0  # atno 17394 bound_to 11000
  139.9650  134.7387  156.0156 LP  0  0  0  0  0  0  0  0  0  0  0  0  # atno 17395 bound_to 11000

$$$$
