AV-unprocessed.smi:1106|AV-procd|sdf|4777|dock9
  -GOLD-   22720 3313D 1   1.00000     0.00000
 Structure written by MMmdl.
 48 49  0  0  0  0  0  0  0  0  2 V2000
  148.6246  131.0741  161.9505 C   0  0  0  0  0  0  0  0  0  0  0  0
  147.4323  131.5306  161.0966 C   0  0  0  0  0  0  0  0  0  0  0  0
  147.5496  132.8950  160.6513 N   0  0  0  0  0  0  0  0  0  0  0  0
  147.5792  133.9494  161.5433 C   0  0  0  0  0  0  0  0  0  0  0  0
  147.6838  135.2375  161.1516 C   0  0  0  0  0  0  0  0  0  0  0  0
  147.7172  136.3080  162.0923 C   0  0  0  0  0  0  0  0  0  0  0  0
  147.7466  137.1919  162.8387 N   0  0  0  0  0  0  0  0  0  0  0  0
  147.7673  135.5923  159.7367 C   0  0  0  0  0  0  0  0  0  0  0  0
  147.8811  136.7495  159.3279 O   0  0  0  0  0  0  0  0  0  0  0  0
  147.7159  134.4889  158.8480 N   0  0  0  0  0  0  0  0  0  0  0  0
  147.7876  134.7769  157.4227 C   0  0  0  0  0  0  0  0  0  0  0  0
  149.0384  134.1986  156.7234 C   0  0  2  0  0  0  0  0  0  0  0  0
  150.1014  134.2429  157.6531 O   0  0  0  0  0  0  0  0  0  0  0  0
  149.4595  134.9802  155.4605 C   0  0  0  0  0  0  0  0  0  0  0  0
  148.5847  134.6921  154.2956 N   0  3  2  0  0  0  0  0  0  0  0  0
  147.2023  135.2000  154.4887 C   0  0  0  0  0  0  0  0  0  0  0  0
  146.3583  135.0130  153.2164 C   0  0  0  0  0  0  0  0  0  0  0  0
  146.3306  133.5402  152.7740 C   0  0  1  0  0  0  0  0  0  0  0  0
  145.5159  133.3468  151.4872 C   0  0  0  0  0  0  0  0  0  0  0  0
  147.7739  133.0332  152.6160 C   0  0  0  0  0  0  0  0  0  0  0  0
  148.5881  133.2578  153.9012 C   0  0  0  0  0  0  0  0  0  0  0  0
  147.6164  133.1368  159.2593 C   0  0  0  0  0  0  0  0  0  0  0  0
  147.5992  132.2084  158.4467 O   0  0  0  0  0  0  0  0  0  0  0  0
  148.5182  130.0262  162.2312 H   0  0  0  0  0  0  0  0  0  0  0  0
  148.7072  131.6543  162.8699 H   0  0  0  0  0  0  0  0  0  0  0  0
  149.5621  131.1775  161.4035 H   0  0  0  0  0  0  0  0  0  0  0  0
  147.3541  130.9257  160.1922 H   0  0  0  0  0  0  0  0  0  0  0  0
  146.4789  131.4348  161.6197 H   0  0  0  0  0  0  0  0  0  0  0  0
  147.5177  133.7355  162.6008 H   0  0  0  0  0  0  0  0  0  0  0  0
  146.8674  134.4347  156.9470 H   0  0  0  0  0  0  0  0  0  0  0  0
  147.7507  135.8643  157.3286 H   0  0  0  0  0  0  0  0  0  0  0  0
  148.8588  133.1515  156.4838 H   0  0  0  0  0  0  0  0  0  0  0  0
  150.8617  134.6069  157.2246 H   0  0  0  0  0  0  0  0  0  0  0  0
  149.4507  136.0552  155.6426 H   0  0  0  0  0  0  0  0  0  0  0  0
  150.4932  134.7212  155.2254 H   0  0  0  0  0  0  0  0  0  0  0  0
  146.7370  134.6847  155.3308 H   0  0  0  0  0  0  0  0  0  0  0  0
  147.2320  136.2605  154.7425 H   0  0  0  0  0  0  0  0  0  0  0  0
  145.3429  135.3687  153.3954 H   0  0  0  0  0  0  0  0  0  0  0  0
  146.7656  135.6328  152.4160 H   0  0  0  0  0  0  0  0  0  0  0  0
  145.8496  132.9574  153.5612 H   0  0  0  0  0  0  0  0  0  0  0  0
  145.9467  133.9055  150.6556 H   0  0  0  0  0  0  0  0  0  0  0  0
  144.4879  133.6860  151.6191 H   0  0  0  0  0  0  0  0  0  0  0  0
  145.4806  132.2959  151.1992 H   0  0  0  0  0  0  0  0  0  0  0  0
  147.7714  131.9718  152.3654 H   0  0  0  0  0  0  0  0  0  0  0  0
  148.2590  133.5455  151.7836 H   0  0  0  0  0  0  0  0  0  0  0  0
  149.6072  132.9094  153.7377 H   0  0  0  0  0  0  0  0  0  0  0  0
  148.1771  132.6555  154.7130 H   0  0  0  0  0  0  0  0  0  0  0  0
  148.9692  135.2153  153.5213 H   0  0  0  0  0  0  0  0  0  0  0  0
  1  2  1  0  0  0  0
  1 24  1  0  0  0  0
  1 25  1  0  0  0  0
  1 26  1  0  0  0  0
  2  3  1  0  0  0  0
  2 27  1  0  0  0  0
  2 28  1  0  0  0  0
  3 22  1  0  0  0  0
  3  4  1  0  0  0  0
  4  5  2  0  0  0  0
  4 29  1  0  0  0  0
  5  6  1  0  0  0  0
  5  8  1  0  0  0  0
  6  7  3  0  0  0  0
  8  9  2  0  0  0  0
  8 10  1  0  0  0  0
 10 11  1  0  0  0  0
 10 22  1  0  0  0  0
 11 12  1  0  0  0  0
 11 30  1  0  0  0  0
 11 31  1  0  0  0  0
 12 13  1  0  0  0  0
 12 14  1  0  0  0  0
 12 32  1  0  0  0  0
 13 33  1  0  0  0  0
 14 15  1  0  0  0  0
 14 34  1  0  0  0  0
 14 35  1  0  0  0  0
 15 21  1  0  0  0  0
 15 16  1  0  0  0  0
 15 48  1  0  0  0  0
 16 17  1  0  0  0  0
 16 36  1  0  0  0  0
 16 37  1  0  0  0  0
 17 18  1  0  0  0  0
 17 38  1  0  0  0  0
 17 39  1  0  0  0  0
 18 19  1  0  0  0  0
 18 20  1  0  0  0  0
 18 40  1  0  0  0  0
 19 41  1  0  0  0  0
 19 42  1  0  0  0  0
 19 43  1  0  0  0  0
 20 21  1  0  0  0  0
 20 44  1  0  0  0  0
 20 45  1  0  0  0  0
 21 46  1  0  0  0  0
 21 47  1  0  0  0  0
 22 23  2  0  0  0  0
M  CHG  1  15   1
M  END
> <s_m_source_file>
AV-unprocessed.smi

> <i_m_source_file_index>
1106

> <i_lp_mmshare_version>
43012

> <i_f3d_flags>
0

> <s_epik_input>
W0NIM11bQ0gyXW4xW2NIXWMoQyNOKWMoPU8pbihjMT1PKVtDSDJdW0NASF0oW09IXSlbQ0gyXU4yW0NIMl1bQ0gyXVtDSF0oW0NIM10pW0NIMl1bQ0gyXTI=

> <s_epik_cmdline>
J2VwaWtfcHl0aG9uJywgJy1waCcsICc3LjAnLCAnLXRuJywgJzgnLCAnLW1hJywgJzIwMCcsICctbWV0YWxfYmluZGluZycsICctaW1hZScsICc8aW5maWxlLm1hZT4nLCAnLW9tYWUnLCAnPG91dGZpbGUubWFlPic=

> <r_epik_Ionization_Penalty>
0.00136816

> <r_epik_Ionization_Penalty_Charging>
0.00136813

> <r_epik_Ionization_Penalty_Neutral>
3.19882e-08

> <r_epik_State_Penalty>
0.000910892

> <r_epik_Charging_Adjusted_Penalty>
0.00227902

> <i_epik_Tot_Q>
1

> <i_epik_Tot_abs_Q>
1

> <r_epik_Metal_State_Penalty>
-0

> <b_epik_Metal_Only>
0

> <s_lp_Force_Field>
OPLS_2005

> <r_lp_Energy>
27.8711

> <b_lp_Chiralities_Consistent>
1

> <s_lp_Variant>
AV-unprocessed.smi:1106-1

> <Gold.Version>
5.8.1

> <Gold.Id.Protein>
6NUR|6NUR_protein|mol2

> <Gold.PLP.Fitness>
43.7396

> <Gold.PLP.PLP>
-33.7758

> <Gold.PLP.part.hbond>
-3.0000

> <Gold.PLP.part.metal>
0.0000

> <Gold.PLP.part.buried>
-4.0477

> <Gold.PLP.part.nonpolar>
-26.4959

> <Gold.PLP.part.repulsive>
0.0026

> <Gold.PLP.ligand.clash>
0.0000

> <Gold.PLP.ligand.torsion>
0.4564

> <Gold.PLP.Chemscore.Hbond>
3.6160

> <Gold.PLP.Chemscore.CHOScore>
0.0000

> <Gold.PLP.Chemscore.Metal>
0.0000

> <Gold.Chemscore.Hbonds>
donor molecule, donor type, donor heavy atom, donor atom, acceptor molecule, acceptor atom, score
      L1  H    15    48       P1  7948  2.00
      P1  H  6896  6908       L1    13  0.86
      P1  H  6931  6943       L1     7  0.71

> <Gold.PLP.Chemscore.Internal.Correction>
0.0286

> <Gold.Rescore>
     Score         DG    S(hbond)    S(metal)    S(lipo)     H(rot)  DE(clash)    DE(int)     intcor
     11.34     -13.01       2.18        0.00      56.61       2.48       0.03       1.64       ----

> <Gold.Chemscore.Fitness>
11.3393

> <Gold.Chemscore.DG>
-13.0147

> <Gold.Chemscore.ZeroCoef>
-5.4800

> <Gold.Chemscore.Hbond>
2.1767

> <Gold.Chemscore.Metal>
0.0000

> <Gold.Chemscore.Lipo>
56.6075

> <Gold.Chemscore.Internal_Hbond>
0.0000

> <Gold.Chemscore.DEClash>
0.0310

> <Gold.Chemscore.DEInternal>
1.6445

> <Gold.Chemscore.Rot>
2.4838

> <Gold.Chemscore.Internal.Correction>
   9.000000E+99

> <Gold.Chemscore.Hbonds>
donor molecule, donor type, donor heavy atom, donor atom, acceptor molecule, acceptor atom, score
      L1  H    15    48       P1  7948  0.55
      P1  H  6896  6908       L1    13  0.25
      P1  H  6931  6943       L1     7  0.16

> <Gold.Chemscore.Hbond.Weighted>
-7.2701

> <Gold.Chemscore.Metal.Weighted>
-0.0000

> <Gold.Chemscore.Lipo.Weighted>
-6.6231

> <Gold.Chemscore.Internal_Hbond.Weighted>
0.0000

> <Gold.Chemscore.DEClash.Weighted>
0.0310

> <Gold.Chemscore.DEInternal.Weighted>
1.6445

> <Gold.Chemscore.Rot.Weighted>
6.3585

> <Gold.Chemscore.Internal.Correction.Weighted>
   9.000000E+99

> <Gold.Protein.RotatedTorsions>
[ 6907 6896 6895 6894 ] final  123.14 input  -60.11 | X-H torsion
[ 7974 7965 7964 7962 ] final -161.90 input  175.53 | X-H torsion
[ 8008 7997 7996 7995 ] final -146.09 input   59.86 | X-H torsion
[ 10167 10162 10161 10158 ] final -158.57 input  -65.29 | X-H torsion
[ 10718 10713 10712 10709 ] final  -37.06 input   66.30 | X-H torsion
[ 10763 10752 10751 10750 ] final   64.26 input  -60.55 | X-H torsion
[ 11005 11000 10999 10996 ] final -179.54 input  -57.11 | X-H torsion

> <Gold.Protein.ActiveResidues>
 VAL166  LYS551  ARG553  GLY616  TRP617  ASP618  TYR619  PRO620  LYS621  CYS622 
 ASP623  PHE694  ASN695  SER759  ASP760  ASP761  ALA762  ILE779  LEU786  VAL792 
 PHE793  MET794  SER795  GLU796  ALA797  LYS798  CYS799  TRP800  GLU811  SER814 

> <Gold.Protein.RotatedAtoms>
  152.4186  133.7079  159.6461 H   0  0  0  0  0  0  0  0  0  0  0  0  # atno 6907 bound_to 6896
  150.8062  133.8495  159.3210 H   0  0  0  0  0  0  0  0  0  0  0  0  # atno 6908 bound_to 6896
  151.6218  135.1033  160.0154 H   0  0  0  0  0  0  0  0  0  0  0  0  # atno 6909 bound_to 6896
  144.7375  140.3331  143.6149 H   0  0  0  0  0  0  0  0  0  0  0  0  # atno 7974 bound_to 7965
  155.5537  140.0619  157.2844 H   0  0  0  0  0  0  0  0  0  0  0  0  # atno 8008 bound_to 7997
  154.4412  140.1898  156.0757 H   0  0  0  0  0  0  0  0  0  0  0  0  # atno 8009 bound_to 7997
  156.0497  140.3286  155.7341 H   0  0  0  0  0  0  0  0  0  0  0  0  # atno 8010 bound_to 7997
  139.6682  143.9792  152.2267 H   0  0  0  0  0  0  0  0  0  0  0  0  # atno 10167 bound_to 10162
  156.3196  130.4264  149.7973 H   0  0  0  0  0  0  0  0  0  0  0  0  # atno 10718 bound_to 10713
  153.0049  135.5399  154.6482 H   0  0  0  0  0  0  0  0  0  0  0  0  # atno 10763 bound_to 10752
  154.5721  135.2842  155.0819 H   0  0  0  0  0  0  0  0  0  0  0  0  # atno 10764 bound_to 10752
  154.1981  135.6488  153.5131 H   0  0  0  0  0  0  0  0  0  0  0  0  # atno 10765 bound_to 10752
  140.4175  134.6636  157.4646 H   0  0  0  0  0  0  0  0  0  0  0  0  # atno 11005 bound_to 11000
  145.7452  139.1776  143.2353 LP  0  0  0  0  0  0  0  0  0  0  0  0  # atno 17320 bound_to 7965
  146.1104  140.7436  142.9506 LP  0  0  0  0  0  0  0  0  0  0  0  0  # atno 17321 bound_to 7965
  139.9549  144.6596  150.8135 LP  0  0  0  0  0  0  0  0  0  0  0  0  # atno 17342 bound_to 10162
  140.7607  143.3158  151.2736 LP  0  0  0  0  0  0  0  0  0  0  0  0  # atno 17343 bound_to 10162
  156.5286  130.8247  151.3229 LP  0  0  0  0  0  0  0  0  0  0  0  0  # atno 17370 bound_to 10713
  157.7409  130.9859  150.2408 LP  0  0  0  0  0  0  0  0  0  0  0  0  # atno 17371 bound_to 10713
  140.0223  134.6528  155.9221 LP  0  0  0  0  0  0  0  0  0  0  0  0  # atno 17394 bound_to 11000
  141.1797  133.6545  156.4970 LP  0  0  0  0  0  0  0  0  0  0  0  0  # atno 17395 bound_to 11000

$$$$
