AV-unprocessed.smi:48|AV-procd|sdf|453|dock1
  -GOLD-   2262016323D 1   1.00000     0.00000
 Structure written by MMmdl.
 30 32  0  0  0  0  0  0  0  0  1 V2000
  149.9577  137.1510  154.1895 O   0  0  0  0  0  0  0  0  0  0  0  0
  150.7630  138.3068  154.0958 C   0  0  0  0  0  0  0  0  0  0  0  0
  150.3682  139.3113  155.1886 C   0  0  1  0  0  0  0  0  0  0  0  0
  151.1712  140.4799  155.0863 O   0  0  0  0  0  0  0  0  0  0  0  0
  150.5431  141.5288  155.7557 C   0  0  2  0  0  0  0  0  0  0  0  0
  151.0151  141.5477  157.1789 N   0  0  0  0  0  0  0  0  0  0  0  0
  151.1320  140.5299  158.0598 C   0  0  0  0  0  0  0  0  0  0  0  0
  151.6079  140.8181  159.2710 N   0  0  0  0  0  0  0  0  0  0  0  0
  151.8467  142.1775  159.1584 C   0  0  0  0  0  0  0  0  0  0  0  0
  152.3618  143.1424  160.0581 C   0  0  0  0  0  0  0  0  0  0  0  0
  152.8288  142.7045  161.6605 Cl  0  0  0  0  0  0  0  0  0  0  0  0
  152.4831  144.4220  159.6304 N   0  0  0  0  0  0  0  0  0  0  0  0
  152.1176  144.7343  158.3807 C   0  0  0  0  0  0  0  0  0  0  0  0
  151.6190  143.9390  157.4267 N   0  0  0  0  0  0  0  0  0  0  0  0
  151.4944  142.6507  157.8632 C   0  0  0  0  0  0  0  0  0  0  0  0
  149.0298  141.2477  155.6962 C   0  0  1  0  0  0  0  0  0  0  0  0
  148.3533  142.2181  154.9245 O   0  0  0  0  0  0  0  0  0  0  0  0
  148.9552  139.8783  155.0208 C   0  0  2  0  0  0  0  0  0  0  0  0
  148.0155  139.0510  155.6766 O   0  0  0  0  0  0  0  0  0  0  0  0
  150.4763  138.8720  156.1824 H   0  0  0  0  0  0  0  0  0  0  0  0
  150.8468  142.4989  155.3596 H   0  0  0  0  0  0  0  0  0  0  0  0
  148.6102  141.2265  156.7036 H   0  0  0  0  0  0  0  0  0  0  0  0
  148.7086  139.9740  153.9616 H   0  0  0  0  0  0  0  0  0  0  0  0
  149.8530  136.7871  153.3237 H   0  0  0  0  0  0  0  0  0  0  0  0
  151.8188  138.0421  154.1608 H   0  0  0  0  0  0  0  0  0  0  0  0
  150.5975  138.7418  153.1098 H   0  0  0  0  0  0  0  0  0  0  0  0
  150.8540  139.5181  157.8033 H   0  0  0  0  0  0  0  0  0  0  0  0
  152.2423  145.7708  158.1041 H   0  0  0  0  0  0  0  0  0  0  0  0
  148.5901  143.0745  155.2471 H   0  0  0  0  0  0  0  0  0  0  0  0
  147.7737  138.3512  155.0892 H   0  0  0  0  0  0  0  0  0  0  0  0
  1  2  1  0  0  0  0
  1 24  1  0  0  0  0
  2  3  1  0  0  0  0
  2 25  1  0  0  0  0
  2 26  1  0  0  0  0
  3 20  1  0  0  0  0
  3 18  1  0  0  0  0
  3  4  1  0  0  0  0
  4  5  1  0  0  0  0
  5 21  1  0  0  0  0
  5  6  1  0  0  0  0
  5 16  1  0  0  0  0
  6 15  1  0  0  0  0
  6  7  1  0  0  0  0
  7  8  2  0  0  0  0
  7 27  1  0  0  0  0
  8  9  1  0  0  0  0
  9 15  2  0  0  0  0
  9 10  1  0  0  0  0
 10 11  1  0  0  0  0
 10 12  2  0  0  0  0
 12 13  1  0  0  0  0
 13 14  2  0  0  0  0
 13 28  1  0  0  0  0
 14 15  1  0  0  0  0
 16 22  1  0  0  0  0
 16 17  1  0  0  0  0
 16 18  1  0  0  0  0
 17 29  1  0  0  0  0
 18 23  1  0  0  0  0
 18 19  1  0  0  0  0
 19 30  1  0  0  0  0
M  END
> <s_m_source_file>
AV-unprocessed.smi

> <i_m_source_file_index>
48

> <i_lp_mmshare_version>
43012

> <i_f3d_flags>
0

> <s_epik_input>
W09IXVtDSDJdW0NASF0xT1tDQEhdKFtDQEhdKFtPSF0pW0NAQEhdMVtPSF0pbihbY0hdbjIpYyhjMjMpbltjSF1uYzNDbA==

> <s_epik_cmdline>
J2VwaWtfcHl0aG9uJywgJy1waCcsICc3LjAnLCAnLXRuJywgJzgnLCAnLW1hJywgJzIwMCcsICctbWV0YWxfYmluZGluZycsICctaW1hZScsICc8aW5maWxlLm1hZT4nLCAnLW9tYWUnLCAnPG91dGZpbGUubWFlPic=

> <r_lp_tautomer_probability>
1

> <r_epik_Ionization_Penalty>
3.45505e-06

> <r_epik_Ionization_Penalty_Charging>
0

> <r_epik_Ionization_Penalty_Neutral>
3.45505e-06

> <r_epik_State_Penalty>
-0

> <r_epik_Charging_Adjusted_Penalty>
0

> <i_epik_Tot_Q>
0

> <i_epik_Tot_abs_Q>
0

> <r_epik_Metal_State_Penalty>
-0

> <b_epik_Metal_Only>
0

> <s_epik_Chemistry_Notes>
This compound contains an acetal/aminal-like group ( X-CH(R)-Y where X, Y are N, S, or O) that may be acid/base labile, releasing an aldehyde.

> <s_lp_Force_Field>
OPLS_2005

> <r_lp_Energy>
31.0033

> <b_lp_Chiralities_Consistent>
1

> <s_lp_Variant>
AV-unprocessed.smi:48-7

> <Gold.Version>
5.8.1

> <Gold.Id.Protein>
6NUR|6NUR_protein|mol2

> <Gold.PLP.Fitness>
46.5704

> <Gold.PLP.PLP>
-37.9523

> <Gold.PLP.part.hbond>
-3.5436

> <Gold.PLP.part.metal>
0.0000

> <Gold.PLP.part.buried>
-6.6147

> <Gold.PLP.part.nonpolar>
-27.9382

> <Gold.PLP.part.repulsive>
0.1996

> <Gold.PLP.ligand.clash>
0.0000

> <Gold.PLP.ligand.torsion>
0.1946

> <Gold.PLP.Chemscore.Hbond>
2.9920

> <Gold.PLP.Chemscore.CHOScore>
0.0000

> <Gold.PLP.Chemscore.Metal>
0.0000

> <Gold.Chemscore.Hbonds>
donor molecule, donor type, donor heavy atom, donor atom, acceptor molecule, acceptor atom, score
      L1  H     1    24       P1  7948  1.00
      L1  H    17    29       P1  8028  1.00
      P1  H  7989  7998       L1     4  0.99

> <Gold.PLP.Chemscore.Internal.Correction>
0.0313

> <Gold.Rescore>
     Score         DG    S(hbond)    S(metal)    S(lipo)     H(rot)  DE(clash)    DE(int)     intcor
     11.72     -11.96       2.86        0.00      56.96       3.80       0.07       0.17       ----

> <Gold.Chemscore.Fitness>
11.7164

> <Gold.Chemscore.DG>
-11.9628

> <Gold.Chemscore.ZeroCoef>
-5.4800

> <Gold.Chemscore.Hbond>
2.8594

> <Gold.Chemscore.Metal>
0.0000

> <Gold.Chemscore.Lipo>
56.9625

> <Gold.Chemscore.Internal_Hbond>
0.0000

> <Gold.Chemscore.DEClash>
0.0738

> <Gold.Chemscore.DEInternal>
0.1726

> <Gold.Chemscore.Rot>
3.8017

> <Gold.Chemscore.Internal.Correction>
   9.000000E+99

> <Gold.Chemscore.Hbonds>
donor molecule, donor type, donor heavy atom, donor atom, acceptor molecule, acceptor atom, score
      L1  H     1    24       P1  7948  0.25
      L1  H    17    29       P1  8028  1.00
      P1  H  7989  7998       L1     4  0.72

> <Gold.Chemscore.Hbond.Weighted>
-9.5505

> <Gold.Chemscore.Metal.Weighted>
-0.0000

> <Gold.Chemscore.Lipo.Weighted>
-6.6646

> <Gold.Chemscore.Internal_Hbond.Weighted>
0.0000

> <Gold.Chemscore.DEClash.Weighted>
0.0738

> <Gold.Chemscore.DEInternal.Weighted>
0.1726

> <Gold.Chemscore.Rot.Weighted>
9.7324

> <Gold.Chemscore.Internal.Correction.Weighted>
   9.000000E+99

> <Gold.Protein.RotatedTorsions>
[ 6907 6896 6895 6894 ] final  146.34 input  -60.11 | X-H torsion
[ 7974 7965 7964 7962 ] final -129.39 input  175.53 | X-H torsion
[ 8008 7997 7996 7995 ] final  -54.66 input   59.86 | X-H torsion
[ 10167 10162 10161 10158 ] final   18.68 input  -65.29 | X-H torsion
[ 10718 10713 10712 10709 ] final   59.81 input   66.30 | X-H torsion
[ 10763 10752 10751 10750 ] final  113.98 input  -60.55 | X-H torsion
[ 11005 11000 10999 10996 ] final  118.44 input  -57.11 | X-H torsion

> <Gold.Protein.ActiveResidues>
 VAL166  LYS551  ARG553  GLY616  TRP617  ASP618  TYR619  PRO620  LYS621  CYS622 
 ASP623  PHE694  ASN695  SER759  ASP760  ASP761  ALA762  ILE779  LEU786  VAL792 
 PHE793  MET794  SER795  GLU796  ALA797  LYS798  CYS799  TRP800  GLU811  SER814 

> <Gold.Protein.RotatedAtoms>
  152.1691  133.4632  159.4899 H   0  0  0  0  0  0  0  0  0  0  0  0  # atno 6907 bound_to 6896
  150.6917  134.1975  159.4318 H   0  0  0  0  0  0  0  0  0  0  0  0  # atno 6908 bound_to 6896
  151.9881  134.9993  160.0611 H   0  0  0  0  0  0  0  0  0  0  0  0  # atno 6909 bound_to 6896
  144.9577  140.7413  143.4748 H   0  0  0  0  0  0  0  0  0  0  0  0  # atno 7974 bound_to 7965
  154.4169  140.1171  156.5351 H   0  0  0  0  0  0  0  0  0  0  0  0  # atno 8008 bound_to 7997
  155.6566  140.3496  155.4748 H   0  0  0  0  0  0  0  0  0  0  0  0  # atno 8009 bound_to 7997
  155.9748  140.1148  157.0769 H   0  0  0  0  0  0  0  0  0  0  0  0  # atno 8010 bound_to 7997
  140.5635  143.9293  150.6659 H   0  0  0  0  0  0  0  0  0  0  0  0  # atno 10167 bound_to 10162
  157.5704  130.8903  149.9258 H   0  0  0  0  0  0  0  0  0  0  0  0  # atno 10718 bound_to 10713
  153.5005  135.3639  155.2537 H   0  0  0  0  0  0  0  0  0  0  0  0  # atno 10763 bound_to 10752
  154.8748  135.3998  154.3484 H   0  0  0  0  0  0  0  0  0  0  0  0  # atno 10764 bound_to 10752
  153.4119  135.7078  153.6419 H   0  0  0  0  0  0  0  0  0  0  0  0  # atno 10765 bound_to 10752
  139.9110  134.9620  156.7504 H   0  0  0  0  0  0  0  0  0  0  0  0  # atno 11005 bound_to 11000
  145.2747  139.1941  143.4823 LP  0  0  0  0  0  0  0  0  0  0  0  0  # atno 17320 bound_to 7965
  146.3343  140.2699  142.8605 LP  0  0  0  0  0  0  0  0  0  0  0  0  # atno 17321 bound_to 7965
  140.2750  143.3429  152.1203 LP  0  0  0  0  0  0  0  0  0  0  0  0  # atno 17342 bound_to 10162
  139.5081  144.6845  151.5924 LP  0  0  0  0  0  0  0  0  0  0  0  0  # atno 17343 bound_to 10162
  156.0750  130.3680  150.0697 LP  0  0  0  0  0  0  0  0  0  0  0  0  # atno 17370 bound_to 10713
  156.8850  130.9569  151.3595 LP  0  0  0  0  0  0  0  0  0  0  0  0  # atno 17371 bound_to 10713
  140.6778  133.9501  155.7893 LP  0  0  0  0  0  0  0  0  0  0  0  0  # atno 17394 bound_to 11000
  141.0532  134.0455  157.3757 LP  0  0  0  0  0  0  0  0  0  0  0  0  # atno 17395 bound_to 11000

$$$$
