AV-unprocessed.smi:364|AV-procd|sdf|2426|dock3
  -GOLD-   2262022363D 1   1.00000     0.00000
 Structure written by MMmdl.
 37 38  0  0  0  0  0  0  0  0  1 V2000
  147.0869  133.3141  151.5338 C   0  0  0  0  0  0  0  0  0  0  0  0
  147.7056  133.1849  152.9329 C   0  0  2  0  0  0  0  0  0  0  0  0
  147.3523  134.3987  153.8146 C   0  0  0  0  0  0  0  0  0  0  0  0
  147.9957  134.2986  155.2104 C   0  0  0  0  0  0  0  0  0  0  0  0
  149.5222  134.1088  155.1319 C   0  0  2  0  0  0  0  0  0  0  0  0
  150.1396  135.3122  154.5857 N   0  0  0  0  0  0  0  0  0  0  0  0
  150.9850  136.1499  155.2064 C   0  0  0  0  0  0  0  0  0  0  0  0
  151.3465  136.0003  156.3724 O   0  0  0  0  0  0  0  0  0  0  0  0
  151.5255  137.3408  154.3946 C   0  0  0  0  0  0  0  0  0  0  0  0
  151.0376  138.6575  154.8470 N   0  0  0  0  0  0  0  0  0  0  0  0
  149.7042  138.9855  154.5493 C   0  0  0  0  0  0  0  0  0  0  0  0
  149.1718  140.1452  154.9597 C   0  0  0  0  0  0  0  0  0  0  0  0
  150.0553  141.0335  155.7257 C   0  0  0  0  0  0  0  0  0  0  0  0
  151.2712  140.7380  155.9991 N   0  0  0  0  0  0  0  0  0  0  0  0
  151.8275  139.5187  155.5683 C   0  0  0  0  0  0  0  0  0  0  0  0
  152.9908  139.2217  155.8401 O   0  0  0  0  0  0  0  0  0  0  0  0
  149.8693  132.8915  154.2535 C   0  0  0  0  0  0  0  0  0  0  0  0
  149.2328  132.9900  152.8542 C   0  0  0  0  0  0  0  0  0  0  0  0
  147.4748  134.1879  151.0089 H   0  0  0  0  0  0  0  0  0  0  0  0
  146.0028  133.4149  151.5913 H   0  0  0  0  0  0  0  0  0  0  0  0
  147.3045  132.4362  150.9249 H   0  0  0  0  0  0  0  0  0  0  0  0
  147.2795  132.2964  153.4013 H   0  0  0  0  0  0  0  0  0  0  0  0
  147.6761  135.3185  153.3253 H   0  0  0  0  0  0  0  0  0  0  0  0
  146.2698  134.4770  153.9209 H   0  0  0  0  0  0  0  0  0  0  0  0
  147.7570  135.1882  155.7944 H   0  0  0  0  0  0  0  0  0  0  0  0
  147.5567  133.4569  155.7474 H   0  0  0  0  0  0  0  0  0  0  0  0
  149.8961  133.9310  156.1414 H   0  0  0  0  0  0  0  0  0  0  0  0
  149.9090  135.5282  153.6266 H   0  0  0  0  0  0  0  0  0  0  0  0
  152.6161  137.3082  154.4162 H   0  0  0  0  0  0  0  0  0  0  0  0
  151.2590  137.1873  153.3479 H   0  0  0  0  0  0  0  0  0  0  0  0
  149.1562  138.2432  153.9869 H   0  0  0  0  0  0  0  0  0  0  0  0
  148.1551  140.4557  154.7694 H   0  0  0  0  0  0  0  0  0  0  0  0
  149.6035  141.9737  156.0519 H   0  0  0  0  0  0  0  0  0  0  0  0
  150.9516  132.7880  154.1643 H   0  0  0  0  0  0  0  0  0  0  0  0
  149.5167  131.9831  154.7437 H   0  0  0  0  0  0  0  0  0  0  0  0
  149.4629  132.0874  152.2872 H   0  0  0  0  0  0  0  0  0  0  0  0
  149.6827  133.8174  152.3035 H   0  0  0  0  0  0  0  0  0  0  0  0
  1  2  1  0  0  0  0
  1 19  1  0  0  0  0
  1 20  1  0  0  0  0
  1 21  1  0  0  0  0
  2 18  1  0  0  0  0
  2  3  1  0  0  0  0
  2 22  1  0  0  0  0
  3  4  1  0  0  0  0
  3 23  1  0  0  0  0
  3 24  1  0  0  0  0
  4  5  1  0  0  0  0
  4 25  1  0  0  0  0
  4 26  1  0  0  0  0
  5  6  1  0  0  0  0
  5 17  1  0  0  0  0
  5 27  1  0  0  0  0
  6  7  1  0  0  0  0
  6 28  1  0  0  0  0
  7  8  2  0  0  0  0
  7  9  1  0  0  0  0
  9 10  1  0  0  0  0
  9 29  1  0  0  0  0
  9 30  1  0  0  0  0
 10 15  1  0  0  0  0
 10 11  1  0  0  0  0
 11 12  2  0  0  0  0
 11 31  1  0  0  0  0
 12 13  1  0  0  0  0
 12 32  1  0  0  0  0
 13 14  2  0  0  0  0
 13 33  1  0  0  0  0
 14 15  1  0  0  0  0
 15 16  2  0  0  0  0
 17 18  1  0  0  0  0
 17 34  1  0  0  0  0
 17 35  1  0  0  0  0
 18 36  1  0  0  0  0
 18 37  1  0  0  0  0
M  END
> <s_m_source_file>
AV-unprocessed.smi

> <i_m_source_file_index>
364

> <i_lp_mmshare_version>
43012

> <i_f3d_flags>
0

> <s_epik_input>
W0NIM11bQ0BASF0xW0NIMl1bQ0gyXVtDQEhdKFtDSDJdW0NIMl0xKVtOSF1DKD1PKVtDSDJdbjJbY0hdW2NIXVtjSF1uYzI9Tw==

> <s_epik_cmdline>
J2VwaWtfcHl0aG9uJywgJy1waCcsICc3LjAnLCAnLXRuJywgJzgnLCAnLW1hJywgJzIwMCcsICctbWV0YWxfYmluZGluZycsICctaW1hZScsICc8aW5maWxlLm1hZT4nLCAnLW9tYWUnLCAnPG91dGZpbGUubWFlPic=

> <r_lp_tautomer_probability>
1

> <r_epik_Ionization_Penalty>
7.65306e-06

> <r_epik_Ionization_Penalty_Charging>
1.81354e-08

> <r_epik_Ionization_Penalty_Neutral>
7.63492e-06

> <r_epik_State_Penalty>
-0

> <r_epik_Charging_Adjusted_Penalty>
1.81354e-08

> <i_epik_Tot_Q>
0

> <i_epik_Tot_abs_Q>
0

> <r_epik_Metal_State_Penalty>
-0

> <b_epik_Metal_Only>
0

> <s_lp_Force_Field>
OPLS_2005

> <r_lp_Energy>
9.99244

> <b_lp_Chiralities_Consistent>
1

> <s_lp_Variant>
AV-unprocessed.smi:364-2

> <Gold.Version>
5.8.1

> <Gold.Id.Protein>
6NUR|6NUR_protein|mol2

> <Gold.PLP.Fitness>
43.1984

> <Gold.PLP.PLP>
-33.4499

> <Gold.PLP.part.hbond>
-3.0000

> <Gold.PLP.part.metal>
0.0000

> <Gold.PLP.part.buried>
-0.7534

> <Gold.PLP.part.nonpolar>
-30.1104

> <Gold.PLP.part.repulsive>
0.0915

> <Gold.PLP.ligand.clash>
0.0000

> <Gold.PLP.ligand.torsion>
0.2656

> <Gold.PLP.Chemscore.Hbond>
1.9000

> <Gold.PLP.Chemscore.CHOScore>
1.5246

> <Gold.PLP.Chemscore.Metal>
0.0000

> <Gold.Chemscore.Hbonds>
donor molecule, donor type, donor heavy atom, donor atom, acceptor molecule, acceptor atom, score
      L1  H     6    28       P1  7948  0.44
      P1  H  7997  8009       L1    16  1.00
      L1  C    11    31       P1  7948  0.05
      L1  C    13    33       P1  8028  0.16

> <Gold.PLP.Chemscore.Internal.Correction>
0.0059

> <Gold.Rescore>
     Score         DG    S(hbond)    S(metal)    S(lipo)     H(rot)  DE(clash)    DE(int)     intcor
     14.28     -14.30       1.90        0.00      53.91       1.50       0.00       0.02       ----

> <Gold.Chemscore.Fitness>
14.2793

> <Gold.Chemscore.DG>
-14.3042

> <Gold.Chemscore.ZeroCoef>
-5.4800

> <Gold.Chemscore.Hbond>
1.9014

> <Gold.Chemscore.Metal>
0.0000

> <Gold.Chemscore.Lipo>
53.9118

> <Gold.Chemscore.Internal_Hbond>
0.0000

> <Gold.Chemscore.DEClash>
0.0029

> <Gold.Chemscore.DEInternal>
0.0221

> <Gold.Chemscore.Rot>
1.4977

> <Gold.Chemscore.Internal.Correction>
   9.000000E+99

> <Gold.Chemscore.Hbonds>
donor molecule, donor type, donor heavy atom, donor atom, acceptor molecule, acceptor atom, score
      L1  H     6    28       P1  7948  0.02
      P1  H  7997  8009       L1    16  1.00

> <Gold.Chemscore.Hbond.Weighted>
-6.3507

> <Gold.Chemscore.Metal.Weighted>
-0.0000

> <Gold.Chemscore.Lipo.Weighted>
-6.3077

> <Gold.Chemscore.Internal_Hbond.Weighted>
0.0000

> <Gold.Chemscore.DEClash.Weighted>
0.0029

> <Gold.Chemscore.DEInternal.Weighted>
0.0221

> <Gold.Chemscore.Rot.Weighted>
3.8341

> <Gold.Chemscore.Internal.Correction.Weighted>
   9.000000E+99

> <Gold.Protein.RotatedTorsions>
[ 6907 6896 6895 6894 ] final  170.65 input  -60.11 | X-H torsion
[ 7974 7965 7964 7962 ] final -123.53 input  175.53 | X-H torsion
[ 8008 7997 7996 7995 ] final -148.27 input   59.86 | X-H torsion
[ 10167 10162 10161 10158 ] final -127.58 input  -65.29 | X-H torsion
[ 10718 10713 10712 10709 ] final   97.88 input   66.30 | X-H torsion
[ 10763 10752 10751 10750 ] final   59.26 input  -60.55 | X-H torsion
[ 11005 11000 10999 10996 ] final  124.50 input  -57.11 | X-H torsion

> <Gold.Protein.ActiveResidues>
 VAL166  LYS551  ARG553  GLY616  TRP617  ASP618  TYR619  PRO620  LYS621  CYS622 
 ASP623  PHE694  ASN695  SER759  ASP760  ASP761  ALA762  ILE779  LEU786  VAL792 
 PHE793  MET794  SER795  GLU796  ALA797  LYS798  CYS799  TRP800  GLU811  SER814 

> <Gold.Protein.RotatedAtoms>
  151.8127  133.3384  159.3559 H   0  0  0  0  0  0  0  0  0  0  0  0  # atno 6907 bound_to 6896
  150.7321  134.5649  159.5870 H   0  0  0  0  0  0  0  0  0  0  0  0  # atno 6908 bound_to 6896
  152.3063  134.7552  160.0398 H   0  0  0  0  0  0  0  0  0  0  0  0  # atno 6909 bound_to 6896
  145.0177  140.7961  143.4400 H   0  0  0  0  0  0  0  0  0  0  0  0  # atno 7974 bound_to 7965
  155.5889  140.0650  157.2764 H   0  0  0  0  0  0  0  0  0  0  0  0  # atno 8008 bound_to 7997
  154.4311  140.1839  156.1100 H   0  0  0  0  0  0  0  0  0  0  0  0  # atno 8009 bound_to 7997
  156.0248  140.3313  155.7080 H   0  0  0  0  0  0  0  0  0  0  0  0  # atno 8010 bound_to 7997
  139.9594  143.5967  152.2450 H   0  0  0  0  0  0  0  0  0  0  0  0  # atno 10167 bound_to 10162
  157.6905  131.0623  150.4712 H   0  0  0  0  0  0  0  0  0  0  0  0  # atno 10718 bound_to 10713
  152.9890  135.5578  154.5684 H   0  0  0  0  0  0  0  0  0  0  0  0  # atno 10763 bound_to 10752
  154.5090  135.2801  155.1361 H   0  0  0  0  0  0  0  0  0  0  0  0  # atno 10764 bound_to 10752
  154.2760  135.6354  153.5381 H   0  0  0  0  0  0  0  0  0  0  0  0  # atno 10765 bound_to 10752
  139.9361  134.9639  156.8418 H   0  0  0  0  0  0  0  0  0  0  0  0  # atno 11005 bound_to 11000
  145.1938  139.2287  143.5229 LP  0  0  0  0  0  0  0  0  0  0  0  0  # atno 17320 bound_to 7965
  146.3480  140.1740  142.8589 LP  0  0  0  0  0  0  0  0  0  0  0  0  # atno 17321 bound_to 7965
  139.6566  144.7662  151.2044 LP  0  0  0  0  0  0  0  0  0  0  0  0  # atno 17342 bound_to 10162
  140.7558  143.6076  150.8637 LP  0  0  0  0  0  0  0  0  0  0  0  0  # atno 17343 bound_to 10162
  156.5049  130.4126  149.6332 LP  0  0  0  0  0  0  0  0  0  0  0  0  # atno 17370 bound_to 10713
  156.3293  130.7323  151.2249 LP  0  0  0  0  0  0  0  0  0  0  0  0  # atno 17371 bound_to 10713
  140.6071  134.0117  155.7561 LP  0  0  0  0  0  0  0  0  0  0  0  0  # atno 17394 bound_to 11000
  141.0976  133.9819  157.3134 LP  0  0  0  0  0  0  0  0  0  0  0  0  # atno 17395 bound_to 11000

$$$$
