AV-unprocessed.smi:1410|AV-procd|sdf|5737|dock3
  -GOLD-   22720 5373D 1   1.00000     0.00000
 Structure written by MMmdl.
 40 41  0  0  0  0  0  0  0  0  4 V2000
  152.9693  131.9073  158.8938 N   0  5  0  0  0  0  0  0  0  0  0  0
  152.3369  131.0390  158.0814 C   0  0  0  0  0  0  0  0  0  0  0  0
  151.3140  130.3972  158.3113 O   0  0  0  0  0  0  0  0  0  0  0  0
  153.0531  130.8663  156.7375 C   0  0  0  0  0  0  0  0  0  0  0  0
  152.0909  131.0304  155.6193 N   0  3  2  0  0  0  0  0  0  0  0  0
  151.3155  132.2979  155.6961 C   0  0  0  0  0  0  0  0  0  0  0  0
  150.4364  132.4855  154.4491 C   0  0  0  0  0  0  0  0  0  0  0  0
  149.4905  131.2904  154.2532 C   0  0  1  0  0  0  0  0  0  0  0  0
  148.7253  131.4616  153.0214 N   0  0  0  0  0  0  0  0  0  0  0  0
  147.4811  131.9559  152.9480 C   0  0  0  0  0  0  0  0  0  0  0  0
  146.8290  132.3015  153.9330 O   0  0  0  0  0  0  0  0  0  0  0  0
  147.0481  132.0007  151.6760 N   0  0  0  0  0  0  0  0  0  0  0  0
  145.8093  132.4919  151.1809 C   0  0  0  0  0  0  0  0  0  0  0  0
  145.0103  133.2573  152.0591 C   0  0  0  0  0  0  0  0  0  0  0  0
  143.7658  133.7501  151.6161 C   0  0  0  0  0  0  0  0  0  0  0  0
  143.3427  133.4791  150.3628 N   0  3  0  0  0  0  0  0  0  0  0  0
  144.0637  132.7397  149.4929 C   0  0  0  0  0  0  0  0  0  0  0  0
  145.3161  132.2202  149.8791 C   0  0  0  0  0  0  0  0  0  0  0  0
  150.3091  129.9871  154.2170 C   0  0  0  0  0  0  0  0  0  0  0  0
  151.1980  129.8538  155.4654 C   0  0  0  0  0  0  0  0  0  0  0  0
  153.3729  131.5572  159.7711 H   0  0  0  0  0  0  0  0  0  0  0  0
  153.8191  131.6413  156.6872 H   0  0  0  0  0  0  0  0  0  0  0  0
  153.5747  129.9101  156.6551 H   0  0  0  0  0  0  0  0  0  0  0  0
  150.6968  132.2930  156.5949 H   0  0  0  0  0  0  0  0  0  0  0  0
  151.9897  133.1499  155.7843 H   0  0  0  0  0  0  0  0  0  0  0  0
  149.8614  133.4078  154.5408 H   0  0  0  0  0  0  0  0  0  0  0  0
  151.0749  132.6046  153.5721 H   0  0  0  0  0  0  0  0  0  0  0  0
  148.8037  131.2565  155.1013 H   0  0  0  0  0  0  0  0  0  0  0  0
  149.1841  131.1960  152.1622 H   0  0  0  0  0  0  0  0  0  0  0  0
  147.6602  131.5938  150.9840 H   0  0  0  0  0  0  0  0  0  0  0  0
  145.3467  133.4728  153.0631 H   0  0  0  0  0  0  0  0  0  0  0  0
  143.1005  134.3467  152.2230 H   0  0  0  0  0  0  0  0  0  0  0  0
  143.6174  132.5806  148.5221 H   0  0  0  0  0  0  0  0  0  0  0  0
  145.8656  131.6140  149.1751 H   0  0  0  0  0  0  0  0  0  0  0  0
  149.6443  129.1251  154.1487 H   0  0  0  0  0  0  0  0  0  0  0  0
  150.9355  129.9660  153.3237 H   0  0  0  0  0  0  0  0  0  0  0  0
  151.7958  128.9454  155.3821 H   0  0  0  0  0  0  0  0  0  0  0  0
  150.5800  129.7467  156.3584 H   0  0  0  0  0  0  0  0  0  0  0  0
  152.6517  131.0770  154.7803 H   0  0  0  0  0  0  0  0  0  0  0  0
  142.4383  133.8437  150.0620 H   0  0  0  0  0  0  0  0  0  0  0  0
  1  2  1  0  0  0  0
  1 21  1  0  0  0  0
  2  3  2  0  0  0  0
  2  4  1  0  0  0  0
  4  5  1  0  0  0  0
  4 22  1  0  0  0  0
  4 23  1  0  0  0  0
  5 20  1  0  0  0  0
  5  6  1  0  0  0  0
  5 39  1  0  0  0  0
  6  7  1  0  0  0  0
  6 24  1  0  0  0  0
  6 25  1  0  0  0  0
  7  8  1  0  0  0  0
  7 26  1  0  0  0  0
  7 27  1  0  0  0  0
  8  9  1  0  0  0  0
  8 19  1  0  0  0  0
  8 28  1  0  0  0  0
  9 10  1  0  0  0  0
  9 29  1  0  0  0  0
 10 11  2  0  0  0  0
 10 12  1  0  0  0  0
 12 13  1  0  0  0  0
 12 30  1  0  0  0  0
 13 18  1  0  0  0  0
 13 14  2  0  0  0  0
 14 15  1  0  0  0  0
 14 31  1  0  0  0  0
 15 16  2  0  0  0  0
 15 32  1  0  0  0  0
 16 17  1  0  0  0  0
 16 40  1  0  0  0  0
 17 18  2  0  0  0  0
 17 33  1  0  0  0  0
 18 34  1  0  0  0  0
 19 20  1  0  0  0  0
 19 35  1  0  0  0  0
 19 36  1  0  0  0  0
 20 37  1  0  0  0  0
 20 38  1  0  0  0  0
M  CHG  1   1  -1
M  CHG  1   5   1
M  CHG  1  16   1
M  END
> <s_m_source_file>
AV-unprocessed.smi

> <i_m_source_file_index>
1410

> <i_lp_mmshare_version>
43012

> <i_f3d_flags>
0

> <s_epik_input>
W05IMl1DKD1PKVtDSDJdTjFbQ0gyXVtDSDJdW0NIXShbQ0gyXVtDSDJdMSlbTkhdQyg9TylbTkhdYzJbY0hdW2NIXW5bY0hdW2NIXTI=

> <s_epik_cmdline>
J2VwaWtfcHl0aG9uJywgJy1waCcsICc3LjAnLCAnLXRuJywgJzgnLCAnLW1hJywgJzIwMCcsICctbWV0YWxfYmluZGluZycsICctaW1hZScsICc8aW5maWxlLm1hZT4nLCAnLW9tYWUnLCAnPG91dGZpbGUubWFlPic=

> <r_epik_Ionization_Penalty>
6.84067

> <r_epik_Ionization_Penalty_Charging>
6.84065

> <r_epik_Ionization_Penalty_Neutral>
1.84563e-05

> <r_epik_State_Penalty>
7.68217

> <r_epik_Charging_Adjusted_Penalty>
14.5228

> <i_epik_Tot_Q>
1

> <i_epik_Tot_abs_Q>
3

> <r_epik_Metal_State_Penalty>
3.74331

> <b_epik_Metal_Only>
1

> <s_lp_Force_Field>
OPLS_2005

> <r_lp_Energy>
19.1226

> <b_lp_Chiralities_Consistent>
1

> <s_lp_Variant>
AV-unprocessed.smi:1410-9

> <Gold.Version>
5.8.1

> <Gold.Id.Protein>
6NUR|6NUR_protein|mol2

> <Gold.PLP.Fitness>
49.0008

> <Gold.PLP.PLP>
-32.0447

> <Gold.PLP.part.hbond>
-4.0000

> <Gold.PLP.part.metal>
0.0000

> <Gold.PLP.part.buried>
-5.6771

> <Gold.PLP.part.nonpolar>
-22.6563

> <Gold.PLP.part.repulsive>
0.1986

> <Gold.PLP.ligand.clash>
0.0000

> <Gold.PLP.ligand.torsion>
0.5041

> <Gold.PLP.Chemscore.Hbond>
5.9760

> <Gold.PLP.Chemscore.CHOScore>
0.0000

> <Gold.PLP.Chemscore.Metal>
0.0000

> <Gold.Chemscore.Hbonds>
donor molecule, donor type, donor heavy atom, donor atom, acceptor molecule, acceptor atom, score
      L1  H     9    29       P1 10747  0.96
      L1  H    12    30       P1 10747  1.00
      L1  H    16    40       P1 10186  2.00
      P1  H  6896  6909       L1     1  2.00

> <Gold.PLP.Chemscore.Internal.Correction>
0.0362

> <Gold.Rescore>
     Score         DG    S(hbond)    S(metal)    S(lipo)     H(rot)  DE(clash)    DE(int)     intcor
     17.49     -19.55       3.27        0.00      69.95       1.96       0.00       2.07       ----

> <Gold.Chemscore.Fitness>
17.4858

> <Gold.Chemscore.DG>
-19.5528

> <Gold.Chemscore.ZeroCoef>
-5.4800

> <Gold.Chemscore.Hbond>
3.2663

> <Gold.Chemscore.Metal>
0.0000

> <Gold.Chemscore.Lipo>
69.9509

> <Gold.Chemscore.Internal_Hbond>
0.0000

> <Gold.Chemscore.DEClash>
0.0009

> <Gold.Chemscore.DEInternal>
2.0661

> <Gold.Chemscore.Rot>
1.9612

> <Gold.Chemscore.Internal.Correction>
   9.000000E+99

> <Gold.Chemscore.Hbonds>
donor molecule, donor type, donor heavy atom, donor atom, acceptor molecule, acceptor atom, score
      L1  H     9    29       P1 10747  0.32
      L1  H    12    30       P1 10747  1.00
      L1  H    16    40       P1 10186  0.99
      P1  H  6896  6909       L1     1  0.44

> <Gold.Chemscore.Hbond.Weighted>
-10.9093

> <Gold.Chemscore.Metal.Weighted>
-0.0000

> <Gold.Chemscore.Lipo.Weighted>
-8.1843

> <Gold.Chemscore.Internal_Hbond.Weighted>
0.0000

> <Gold.Chemscore.DEClash.Weighted>
0.0009

> <Gold.Chemscore.DEInternal.Weighted>
2.0661

> <Gold.Chemscore.Rot.Weighted>
5.0208

> <Gold.Chemscore.Internal.Correction.Weighted>
   9.000000E+99

> <Gold.Protein.RotatedTorsions>
[ 6907 6896 6895 6894 ] final  -76.64 input  -60.11 | X-H torsion
[ 7974 7965 7964 7962 ] final    2.21 input  175.53 | X-H torsion
[ 8008 7997 7996 7995 ] final -105.64 input   59.86 | X-H torsion
[ 10167 10162 10161 10158 ] final   64.23 input  -65.29 | X-H torsion
[ 10718 10713 10712 10709 ] final  166.22 input   66.30 | X-H torsion
[ 10763 10752 10751 10750 ] final  -68.92 input  -60.55 | X-H torsion
[ 11005 11000 10999 10996 ] final  -22.98 input  -57.11 | X-H torsion

> <Gold.Protein.ActiveResidues>
 VAL166  LYS551  ARG553  GLY616  TRP617  ASP618  TYR619  PRO620  LYS621  CYS622 
 ASP623  PHE694  ASN695  SER759  ASP760  ASP761  ALA762  ILE779  LEU786  VAL792 
 PHE793  MET794  SER795  GLU796  ALA797  LYS798  CYS799  TRP800  GLU811  SER814 

> <Gold.Protein.RotatedAtoms>
  150.7021  134.4541  159.5349 H   0  0  0  0  0  0  0  0  0  0  0  0  # atno 6907 bound_to 6896
  152.2228  134.8393  160.0493 H   0  0  0  0  0  0  0  0  0  0  0  0  # atno 6908 bound_to 6896
  151.9238  133.3557  159.3943 H   0  0  0  0  0  0  0  0  0  0  0  0  # atno 6909 bound_to 6896
  146.2443  140.0871  142.8354 H   0  0  0  0  0  0  0  0  0  0  0  0  # atno 7974 bound_to 7965
  154.9028  140.0412  157.1903 H   0  0  0  0  0  0  0  0  0  0  0  0  # atno 8008 bound_to 7997
  154.8426  140.2916  155.5628 H   0  0  0  0  0  0  0  0  0  0  0  0  # atno 8009 bound_to 7997
  156.2993  140.2480  156.3371 H   0  0  0  0  0  0  0  0  0  0  0  0  # atno 8010 bound_to 7997
  140.1244  144.4701  150.6901 H   0  0  0  0  0  0  0  0  0  0  0  0  # atno 10167 bound_to 10162
  157.0690  131.0361  151.2619 H   0  0  0  0  0  0  0  0  0  0  0  0  # atno 10718 bound_to 10713
  154.3960  135.6042  153.5870 H   0  0  0  0  0  0  0  0  0  0  0  0  # atno 10763 bound_to 10752
  152.9787  135.5895  154.4241 H   0  0  0  0  0  0  0  0  0  0  0  0  # atno 10764 bound_to 10752
  154.4032  135.2843  155.2061 H   0  0  0  0  0  0  0  0  0  0  0  0  # atno 10765 bound_to 10752
  140.8708  133.7721  156.0185 H   0  0  0  0  0  0  0  0  0  0  0  0  # atno 11005 bound_to 11000
  145.0683  140.9137  143.4897 LP  0  0  0  0  0  0  0  0  0  0  0  0  # atno 17320 bound_to 7965
  145.1000  139.2829  143.5691 LP  0  0  0  0  0  0  0  0  0  0  0  0  # atno 17321 bound_to 7965
  140.6853  143.2347  151.5276 LP  0  0  0  0  0  0  0  0  0  0  0  0  # atno 17342 bound_to 10162
  139.5552  144.2294  152.1599 LP  0  0  0  0  0  0  0  0  0  0  0  0  # atno 17343 bound_to 10162
  157.4893  130.7812  149.7492 LP  0  0  0  0  0  0  0  0  0  0  0  0  # atno 17370 bound_to 10713
  155.9956  130.3911  150.2813 LP  0  0  0  0  0  0  0  0  0  0  0  0  # atno 17371 bound_to 10713
  140.8575  134.2880  157.5249 LP  0  0  0  0  0  0  0  0  0  0  0  0  # atno 17394 bound_to 11000
  139.8712  134.9500  156.4044 LP  0  0  0  0  0  0  0  0  0  0  0  0  # atno 17395 bound_to 11000

$$$$
