AV-unprocessed.smi:107|AV-procd|sdf|1014|dock2
  -GOLD-   2262018 13D 1   1.00000     0.00000
 Structure written by MMmdl.
 31 32  0  0  0  0  0  0  0  0  1 V2000
  153.2387  142.7968  160.1550 C   0  0  0  0  0  0  0  0  0  0  0  0
  152.3831  142.5616  158.9215 C   0  0  0  0  0  0  0  0  0  0  0  0
  152.0902  141.3168  158.4665 C   0  0  0  0  0  0  0  0  0  0  0  0
  151.3094  141.0682  157.3471 N   0  0  0  0  0  0  0  0  0  0  0  0
  151.0219  139.6482  156.9205 C   0  0  1  0  0  0  0  0  0  0  0  0
  151.4523  139.4047  155.4674 C   0  0  0  0  0  0  0  0  0  0  0  0
  152.4678  138.2776  155.5893 C   0  0  1  0  0  0  0  0  0  0  0  0
  153.7867  138.7847  155.5007 O   0  0  0  0  0  0  0  0  0  0  0  0
  152.1687  137.6704  156.9689 C   0  0  1  0  0  0  0  0  0  0  0  0
  153.3427  136.9373  157.6418 C   0  0  0  0  0  0  0  0  0  0  0  0
  153.5677  135.6967  157.0070 O   0  0  0  0  0  0  0  0  0  0  0  0
  151.7577  138.7929  157.7372 O   0  0  0  0  0  0  0  0  0  0  0  0
  150.7719  142.1534  156.6235 C   0  0  0  0  0  0  0  0  0  0  0  0
  150.0760  142.0161  155.6183 O   0  0  0  0  0  0  0  0  0  0  0  0
  151.0724  143.4322  157.0899 N   0  0  0  0  0  0  0  0  0  0  0  0
  151.8557  143.7283  158.2084 C   0  0  0  0  0  0  0  0  0  0  0  0
  152.0517  144.9022  158.5189 O   0  0  0  0  0  0  0  0  0  0  0  0
  150.6930  144.2124  156.5735 H   0  0  0  0  0  0  0  0  0  0  0  0
  153.5920  141.8597  160.5861 H   0  0  0  0  0  0  0  0  0  0  0  0
  152.6666  143.3225  160.9203 H   0  0  0  0  0  0  0  0  0  0  0  0
  154.1124  143.3999  159.9055 H   0  0  0  0  0  0  0  0  0  0  0  0
  152.4851  140.4695  159.0078 H   0  0  0  0  0  0  0  0  0  0  0  0
  149.9625  139.4452  157.0819 H   0  0  0  0  0  0  0  0  0  0  0  0
  150.5781  139.0845  154.8995 H   0  0  0  0  0  0  0  0  0  0  0  0
  151.8540  140.3056  155.0003 H   0  0  0  0  0  0  0  0  0  0  0  0
  152.3400  137.5392  154.7971 H   0  0  0  0  0  0  0  0  0  0  0  0
  154.0273  138.8410  154.5886 H   0  0  0  0  0  0  0  0  0  0  0  0
  151.3155  136.9970  156.8642 H   0  0  0  0  0  0  0  0  0  0  0  0
  154.2573  137.5226  157.5426 H   0  0  0  0  0  0  0  0  0  0  0  0
  153.1621  136.7904  158.7072 H   0  0  0  0  0  0  0  0  0  0  0  0
  152.9662  135.0618  157.3648 H   0  0  0  0  0  0  0  0  0  0  0  0
  1  2  1  0  0  0  0
  1 19  1  0  0  0  0
  1 20  1  0  0  0  0
  1 21  1  0  0  0  0
  2 16  1  0  0  0  0
  2  3  2  0  0  0  0
  3  4  1  0  0  0  0
  3 22  1  0  0  0  0
  4  5  1  0  0  0  0
  4 13  1  0  0  0  0
  5 12  1  0  0  0  0
  5  6  1  0  0  0  0
  5 23  1  0  0  0  0
  6  7  1  0  0  0  0
  6 24  1  0  0  0  0
  6 25  1  0  0  0  0
  7  8  1  0  0  0  0
  7  9  1  0  0  0  0
  7 26  1  0  0  0  0
  8 27  1  0  0  0  0
  9 10  1  0  0  0  0
  9 12  1  0  0  0  0
  9 28  1  0  0  0  0
 10 11  1  0  0  0  0
 10 29  1  0  0  0  0
 10 30  1  0  0  0  0
 11 31  1  0  0  0  0
 13 14  2  0  0  0  0
 13 15  1  0  0  0  0
 15 18  1  0  0  0  0
 15 16  1  0  0  0  0
 16 17  2  0  0  0  0
M  END
> <s_m_source_file>
AV-unprocessed.smi

> <i_m_source_file_index>
107

> <i_lp_mmshare_version>
43012

> <i_f3d_flags>
0

> <s_epik_input>
Tz1jMVtuSF1jKD1PKW4oW2NIXWMxW0NIM10pW0NAQEhdMltDSDJdW0NAQEhdKFtPSF0pW0NASF0oTzIpW0NIMl1bT0hd

> <s_epik_cmdline>
J2VwaWtfcHl0aG9uJywgJy1waCcsICc3LjAnLCAnLXRuJywgJzgnLCAnLW1hJywgJzIwMCcsICctbWV0YWxfYmluZGluZycsICctaW1hZScsICc8aW5maWxlLm1hZT4nLCAnLW9tYWUnLCAnPG91dGZpbGUubWFlPic=

> <r_lp_tautomer_probability>
0.999537

> <r_epik_Ionization_Penalty>
0.00121888

> <r_epik_Ionization_Penalty_Charging>
0.00121876

> <r_epik_Ionization_Penalty_Neutral>
1.19946e-07

> <r_epik_State_Penalty>
0.000805124

> <r_epik_Charging_Adjusted_Penalty>
0.00202389

> <i_epik_Tot_Q>
0

> <i_epik_Tot_abs_Q>
0

> <r_epik_Metal_State_Penalty>
0.662472

> <b_epik_Metal_Only>
0

> <s_epik_Chemistry_Notes>
This compound contains an acetal/aminal-like group ( X-CH(R)-Y where X, Y are N, S, or O) that may be acid/base labile, releasing an aldehyde.

> <s_lp_Force_Field>
OPLS_2005

> <r_lp_Energy>
28.3693

> <b_lp_Chiralities_Consistent>
1

> <s_lp_Variant>
AV-unprocessed.smi:107-2

> <Gold.Version>
5.8.1

> <Gold.Id.Protein>
6NUR|6NUR_protein|mol2

> <Gold.PLP.Fitness>
36.9863

> <Gold.PLP.PLP>
-29.4640

> <Gold.PLP.part.hbond>
-2.6631

> <Gold.PLP.part.metal>
0.0000

> <Gold.PLP.part.buried>
-6.2669

> <Gold.PLP.part.nonpolar>
-22.7836

> <Gold.PLP.part.repulsive>
1.1491

> <Gold.PLP.ligand.clash>
0.0000

> <Gold.PLP.ligand.torsion>
0.1176

> <Gold.PLP.Chemscore.Hbond>
2.5840

> <Gold.PLP.Chemscore.CHOScore>
0.0000

> <Gold.PLP.Chemscore.Metal>
0.0000

> <Gold.Chemscore.Hbonds>
donor molecule, donor type, donor heavy atom, donor atom, acceptor molecule, acceptor atom, score
      L1  H    15    18       P1  8028  0.73
      P1  H  7997  8010       L1     8  0.74
      P1  H 10752 10764       L1    11  1.00

> <Gold.PLP.Chemscore.Internal.Correction>
0.0055

> <Gold.Rescore>
     Score         DG    S(hbond)    S(metal)    S(lipo)     H(rot)  DE(clash)    DE(int)     intcor
     12.90     -13.94       2.80        0.00      51.85       2.73       0.00       1.03       ----

> <Gold.Chemscore.Fitness>
12.9025

> <Gold.Chemscore.DG>
-13.9355

> <Gold.Chemscore.ZeroCoef>
-5.4800

> <Gold.Chemscore.Hbond>
2.8043

> <Gold.Chemscore.Metal>
0.0000

> <Gold.Chemscore.Lipo>
51.8450

> <Gold.Chemscore.Internal_Hbond>
0.0000

> <Gold.Chemscore.DEClash>
0.0038

> <Gold.Chemscore.DEInternal>
1.0291

> <Gold.Chemscore.Rot>
2.7253

> <Gold.Chemscore.Internal.Correction>
   9.000000E+99

> <Gold.Chemscore.Hbonds>
donor molecule, donor type, donor heavy atom, donor atom, acceptor molecule, acceptor atom, score
      L1  H    15    18       P1  8028  0.69
      P1  H  7997  8010       L1     8  0.33
      P1  H 10752 10764       L1    11  0.65

> <Gold.Chemscore.Hbond.Weighted>
-9.3664

> <Gold.Chemscore.Metal.Weighted>
-0.0000

> <Gold.Chemscore.Lipo.Weighted>
-6.0659

> <Gold.Chemscore.Internal_Hbond.Weighted>
0.0000

> <Gold.Chemscore.DEClash.Weighted>
0.0038

> <Gold.Chemscore.DEInternal.Weighted>
1.0291

> <Gold.Chemscore.Rot.Weighted>
6.9769

> <Gold.Chemscore.Internal.Correction.Weighted>
   9.000000E+99

> <Gold.Protein.RotatedTorsions>
[ 6907 6896 6895 6894 ] final  101.03 input  -60.11 | X-H torsion
[ 7974 7965 7964 7962 ] final -170.48 input  175.53 | X-H torsion
[ 8008 7997 7996 7995 ] final   87.03 input   59.86 | X-H torsion
[ 10167 10162 10161 10158 ] final   25.67 input  -65.29 | X-H torsion
[ 10718 10713 10712 10709 ] final  -48.02 input   66.30 | X-H torsion
[ 10763 10752 10751 10750 ] final   15.04 input  -60.55 | X-H torsion
[ 11005 11000 10999 10996 ] final  149.94 input  -57.11 | X-H torsion

> <Gold.Protein.ActiveResidues>
 VAL166  LYS551  ARG553  GLY616  TRP617  ASP618  TYR619  PRO620  LYS621  CYS622 
 ASP623  PHE694  ASN695  SER759  ASP760  ASP761  ALA762  ILE779  LEU786  VAL792 
 PHE793  MET794  SER795  GLU796  ALA797  LYS798  CYS799  TRP800  GLU811  SER814 

> <Gold.Protein.RotatedAtoms>
  152.5359  134.0188  159.7971 H   0  0  0  0  0  0  0  0  0  0  0  0  # atno 6907 bound_to 6896
  151.0378  133.5725  159.2661 H   0  0  0  0  0  0  0  0  0  0  0  0  # atno 6908 bound_to 6896
  151.2706  135.0690  159.9186 H   0  0  0  0  0  0  0  0  0  0  0  0  # atno 6909 bound_to 6896
  144.7169  140.2066  143.6332 H   0  0  0  0  0  0  0  0  0  0  0  0  # atno 7974 bound_to 7965
  155.9702  140.3386  155.6569 H   0  0  0  0  0  0  0  0  0  0  0  0  # atno 8008 bound_to 7997
  155.6684  140.0724  157.2547 H   0  0  0  0  0  0  0  0  0  0  0  0  # atno 8009 bound_to 7997
  154.4164  140.1696  156.1840 H   0  0  0  0  0  0  0  0  0  0  0  0  # atno 8010 bound_to 7997
  140.5086  144.0197  150.6363 H   0  0  0  0  0  0  0  0  0  0  0  0  # atno 10167 bound_to 10162
  156.2028  130.4157  149.9218 H   0  0  0  0  0  0  0  0  0  0  0  0  # atno 10718 bound_to 10713
  153.1563  135.6788  153.8807 H   0  0  0  0  0  0  0  0  0  0  0  0  # atno 10763 bound_to 10752
  153.8217  135.3129  155.3412 H   0  0  0  0  0  0  0  0  0  0  0  0  # atno 10764 bound_to 10752
  154.7900  135.4840  154.0119 H   0  0  0  0  0  0  0  0  0  0  0  0  # atno 10765 bound_to 10752
  140.1088  134.8937  157.1905 H   0  0  0  0  0  0  0  0  0  0  0  0  # atno 11005 bound_to 11000
  145.8630  139.2233  143.1705 LP  0  0  0  0  0  0  0  0  0  0  0  0  # atno 17320 bound_to 7965
  146.0155  140.8396  142.9949 LP  0  0  0  0  0  0  0  0  0  0  0  0  # atno 17321 bound_to 7965
  140.3513  143.2961  152.0483 LP  0  0  0  0  0  0  0  0  0  0  0  0  # atno 17342 bound_to 10162
  139.4890  144.6371  151.6952 LP  0  0  0  0  0  0  0  0  0  0  0  0  # atno 17343 bound_to 10162
  156.6922  130.8900  151.3589 LP  0  0  0  0  0  0  0  0  0  0  0  0  # atno 17370 bound_to 10713
  157.6995  130.9318  150.0744 LP  0  0  0  0  0  0  0  0  0  0  0  0  # atno 17371 bound_to 10713
  140.3120  134.3013  155.7265 LP  0  0  0  0  0  0  0  0  0  0  0  0  # atno 17394 bound_to 11000
  141.2125  133.7656  156.9789 LP  0  0  0  0  0  0  0  0  0  0  0  0  # atno 17395 bound_to 11000

$$$$
