AV-unprocessed.smi:2370|AV-procd|sdf|9435|dock7
  -GOLD-   2272013 63D 1   1.00000     0.00000
 Structure written by MMmdl.
 37 38  0  0  0  0  0  0  0  0  1 V2000
  147.1555  138.9569  153.0176 C   0  0  0  0  0  0  0  0  0  0  0  0
  146.9501  140.3636  153.0371 O   0  0  0  0  0  0  0  0  0  0  0  0
  147.3798  141.0441  154.2169 C   0  0  0  0  0  0  0  0  0  0  0  0
  148.9121  141.0562  154.3455 C   0  0  0  0  0  0  0  0  0  0  0  0
  149.3625  142.0766  155.2875 N   0  0  0  0  0  0  0  0  0  0  0  0
  150.2439  141.8878  156.2798 C   0  0  0  0  0  0  0  0  0  0  0  0
  150.8021  140.8124  156.4994 O   0  0  0  0  0  0  0  0  0  0  0  0
  150.4146  143.0109  156.9989 N   0  0  0  0  0  0  0  0  0  0  0  0
  151.2109  143.1966  158.1601 C   0  0  0  0  0  0  0  0  0  0  0  0
  152.1661  142.2198  158.5427 C   0  0  0  0  0  0  0  0  0  0  0  0
  152.9608  142.4382  159.6860 C   0  0  0  0  0  0  0  0  0  0  0  0
  153.9795  141.4049  160.1197 C   0  0  0  0  0  0  0  0  0  0  0  0
  152.7887  143.6325  160.4110 C   0  0  0  0  0  0  0  0  0  0  0  0
  151.8328  144.5560  159.9505 C   0  0  0  0  0  0  0  0  0  0  0  0
  151.0721  144.3495  158.8546 N   0  0  0  0  0  0  0  0  0  0  0  0
  146.6309  142.3896  154.2872 C   0  0  0  0  0  0  0  0  0  0  0  0
  146.3444  142.1091  155.7628 C   0  0  0  0  0  0  0  0  0  0  0  0
  146.5413  140.6269  155.4426 C   0  0  0  0  0  0  0  0  0  0  0  0
  146.6987  138.5422  152.1192 H   0  0  0  0  0  0  0  0  0  0  0  0
  146.6993  138.4652  153.8770 H   0  0  0  0  0  0  0  0  0  0  0  0
  148.2145  138.7023  152.9886 H   0  0  0  0  0  0  0  0  0  0  0  0
  149.2773  140.0721  154.6433 H   0  0  0  0  0  0  0  0  0  0  0  0
  149.3827  141.2505  153.3824 H   0  0  0  0  0  0  0  0  0  0  0  0
  148.9475  142.9916  155.1905 H   0  0  0  0  0  0  0  0  0  0  0  0
  149.8143  143.7862  156.7593 H   0  0  0  0  0  0  0  0  0  0  0  0
  152.3068  141.3148  157.9710 H   0  0  0  0  0  0  0  0  0  0  0  0
  154.6149  141.7862  160.9195 H   0  0  0  0  0  0  0  0  0  0  0  0
  154.6189  141.1256  159.2818 H   0  0  0  0  0  0  0  0  0  0  0  0
  153.4752  140.5085  160.4811 H   0  0  0  0  0  0  0  0  0  0  0  0
  153.3751  143.8421  161.2936 H   0  0  0  0  0  0  0  0  0  0  0  0
  151.6753  145.4869  160.4748 H   0  0  0  0  0  0  0  0  0  0  0  0
  147.2412  143.2747  154.1099 H   0  0  0  0  0  0  0  0  0  0  0  0
  145.7217  142.4086  153.6832 H   0  0  0  0  0  0  0  0  0  0  0  0
  147.1128  142.5071  156.4275 H   0  0  0  0  0  0  0  0  0  0  0  0
  145.3407  142.3772  156.0933 H   0  0  0  0  0  0  0  0  0  0  0  0
  145.6042  140.1326  155.1800 H   0  0  0  0  0  0  0  0  0  0  0  0
  147.0883  140.0696  156.2035 H   0  0  0  0  0  0  0  0  0  0  0  0
  1  2  1  0  0  0  0
  1 19  1  0  0  0  0
  1 20  1  0  0  0  0
  1 21  1  0  0  0  0
  2  3  1  0  0  0  0
  3 18  1  0  0  0  0
  3  4  1  0  0  0  0
  3 16  1  0  0  0  0
  4  5  1  0  0  0  0
  4 22  1  0  0  0  0
  4 23  1  0  0  0  0
  5  6  1  0  0  0  0
  5 24  1  0  0  0  0
  6  7  2  0  0  0  0
  6  8  1  0  0  0  0
  8  9  1  0  0  0  0
  8 25  1  0  0  0  0
  9 15  1  0  0  0  0
  9 10  2  0  0  0  0
 10 11  1  0  0  0  0
 10 26  1  0  0  0  0
 11 12  1  0  0  0  0
 11 13  2  0  0  0  0
 12 27  1  0  0  0  0
 12 28  1  0  0  0  0
 12 29  1  0  0  0  0
 13 14  1  0  0  0  0
 13 30  1  0  0  0  0
 14 15  2  0  0  0  0
 14 31  1  0  0  0  0
 16 17  1  0  0  0  0
 16 32  1  0  0  0  0
 16 33  1  0  0  0  0
 17 18  1  0  0  0  0
 17 34  1  0  0  0  0
 17 35  1  0  0  0  0
 18 36  1  0  0  0  0
 18 37  1  0  0  0  0
M  END
> <s_m_source_file>
AV-unprocessed.smi

> <i_m_source_file_index>
2370

> <i_lp_mmshare_version>
43012

> <i_f3d_flags>
0

> <s_epik_input>
W0NIMl0xW0NIMl1bQ0gyXUMxKE9bQ0gzXSlbQ0gyXVtOSF1DKD1PKVtOSF1jMltjSF1jKFtDSDNdKVtjSF1bY0hdbjI=

> <s_epik_cmdline>
J2VwaWtfcHl0aG9uJywgJy1waCcsICc3LjAnLCAnLXRuJywgJzgnLCAnLW1hJywgJzIwMCcsICctbWV0YWxfYmluZGluZycsICctaW1hZScsICc8aW5maWxlLm1hZT4nLCAnLW9tYWUnLCAnPG91dGZpbGUubWFlPic=

> <r_lp_tautomer_probability>
1

> <r_epik_Ionization_Penalty>
9.08611e-05

> <r_epik_Ionization_Penalty_Charging>
0

> <r_epik_Ionization_Penalty_Neutral>
9.08611e-05

> <r_epik_State_Penalty>
-0

> <r_epik_Charging_Adjusted_Penalty>
0

> <i_epik_Tot_Q>
0

> <i_epik_Tot_abs_Q>
0

> <r_epik_Metal_State_Penalty>
-0

> <b_epik_Metal_Only>
0

> <s_lp_Force_Field>
OPLS_2005

> <r_lp_Energy>
22.0857

> <b_lp_Chiralities_Consistent>
1

> <s_lp_Variant>
AV-unprocessed.smi:2370-1

> <Gold.Version>
5.8.1

> <Gold.Id.Protein>
6NUR|6NUR_protein|mol2

> <Gold.PLP.Fitness>
45.4137

> <Gold.PLP.PLP>
-40.0980

> <Gold.PLP.part.hbond>
-2.0000

> <Gold.PLP.part.metal>
0.0000

> <Gold.PLP.part.buried>
-6.3606

> <Gold.PLP.part.nonpolar>
-32.9776

> <Gold.PLP.part.repulsive>
0.8444

> <Gold.PLP.ligand.clash>
0.0000

> <Gold.PLP.ligand.torsion>
0.4390

> <Gold.PLP.Chemscore.Hbond>
1.9760

> <Gold.PLP.Chemscore.CHOScore>
0.0000

> <Gold.PLP.Chemscore.Metal>
0.0000

> <Gold.Chemscore.Hbonds>
donor molecule, donor type, donor heavy atom, donor atom, acceptor molecule, acceptor atom, score
      L1  H     5    24       P1  8028  1.00
      L1  H     8    25       P1  8028  1.00

> <Gold.PLP.Chemscore.Internal.Correction>
0.2656

> <Gold.Rescore>
     Score         DG    S(hbond)    S(metal)    S(lipo)     H(rot)  DE(clash)    DE(int)     intcor
     16.39     -18.93       1.94        0.00      91.29       1.45       0.04       2.50       ----

> <Gold.Chemscore.Fitness>
16.3859

> <Gold.Chemscore.DG>
-18.9272

> <Gold.Chemscore.ZeroCoef>
-5.4800

> <Gold.Chemscore.Hbond>
1.9415

> <Gold.Chemscore.Metal>
0.0000

> <Gold.Chemscore.Lipo>
91.2852

> <Gold.Chemscore.Internal_Hbond>
0.0000

> <Gold.Chemscore.DEClash>
0.0375

> <Gold.Chemscore.DEInternal>
2.5038

> <Gold.Chemscore.Rot>
1.4523

> <Gold.Chemscore.Internal.Correction>
   9.000000E+99

> <Gold.Chemscore.Hbonds>
donor molecule, donor type, donor heavy atom, donor atom, acceptor molecule, acceptor atom, score
      L1  H     5    24       P1  8028  0.95
      L1  H     8    25       P1  8028  0.97

> <Gold.Chemscore.Hbond.Weighted>
-6.4848

> <Gold.Chemscore.Metal.Weighted>
-0.0000

> <Gold.Chemscore.Lipo.Weighted>
-10.6804

> <Gold.Chemscore.Internal_Hbond.Weighted>
0.0000

> <Gold.Chemscore.DEClash.Weighted>
0.0375

> <Gold.Chemscore.DEInternal.Weighted>
2.5038

> <Gold.Chemscore.Rot.Weighted>
3.7179

> <Gold.Chemscore.Internal.Correction.Weighted>
   9.000000E+99

> <Gold.Protein.RotatedTorsions>
[ 6907 6896 6895 6894 ] final   79.25 input  -60.11 | X-H torsion
[ 7974 7965 7964 7962 ] final -179.34 input  175.53 | X-H torsion
[ 8008 7997 7996 7995 ] final   88.18 input   59.86 | X-H torsion
[ 10167 10162 10161 10158 ] final  103.26 input  -65.29 | X-H torsion
[ 10718 10713 10712 10709 ] final  -36.92 input   66.30 | X-H torsion
[ 10763 10752 10751 10750 ] final  119.73 input  -60.55 | X-H torsion
[ 11005 11000 10999 10996 ] final  174.44 input  -57.11 | X-H torsion

> <Gold.Protein.ActiveResidues>
 VAL166  LYS551  ARG553  GLY616  TRP617  ASP618  TYR619  PRO620  LYS621  CYS622 
 ASP623  PHE694  ASN695  SER759  ASP760  ASP761  ALA762  ILE779  LEU786  VAL792 
 PHE793  MET794  SER795  GLU796  ALA797  LYS798  CYS799  TRP800  GLU811  SER814 

> <Gold.Protein.RotatedAtoms>
  152.5191  134.3540  159.9261 H   0  0  0  0  0  0  0  0  0  0  0  0  # atno 6907 bound_to 6896
  151.3491  133.3926  159.2686 H   0  0  0  0  0  0  0  0  0  0  0  0  # atno 6908 bound_to 6896
  150.9741  134.9127  159.7863 H   0  0  0  0  0  0  0  0  0  0  0  0  # atno 6909 bound_to 6896
  144.7136  140.0733  143.6428 H   0  0  0  0  0  0  0  0  0  0  0  0  # atno 7974 bound_to 7965
  155.9845  140.3374  155.6695 H   0  0  0  0  0  0  0  0  0  0  0  0  # atno 8008 bound_to 7997
  155.6503  140.0705  157.2607 H   0  0  0  0  0  0  0  0  0  0  0  0  # atno 8009 bound_to 7997
  154.4201  140.1727  156.1655 H   0  0  0  0  0  0  0  0  0  0  0  0  # atno 8010 bound_to 7997
  139.7279  144.7043  151.0769 H   0  0  0  0  0  0  0  0  0  0  0  0  # atno 10167 bound_to 10162
  156.3212  130.4266  149.7958 H   0  0  0  0  0  0  0  0  0  0  0  0  # atno 10718 bound_to 10713
  153.5876  135.3472  155.2898 H   0  0  0  0  0  0  0  0  0  0  0  0  # atno 10763 bound_to 10752
  154.8658  135.4197  154.2552 H   0  0  0  0  0  0  0  0  0  0  0  0  # atno 10764 bound_to 10752
  153.3352  135.7046  153.6985 H   0  0  0  0  0  0  0  0  0  0  0  0  # atno 10765 bound_to 10752
  140.3514  134.7192  157.4270 H   0  0  0  0  0  0  0  0  0  0  0  0  # atno 11005 bound_to 11000
  145.9765  139.2908  143.1068 LP  0  0  0  0  0  0  0  0  0  0  0  0  # atno 17320 bound_to 7965
  145.9059  140.9212  143.0479 LP  0  0  0  0  0  0  0  0  0  0  0  0  # atno 17321 bound_to 7965
  140.7766  143.5082  150.9686 LP  0  0  0  0  0  0  0  0  0  0  0  0  # atno 17342 bound_to 10162
  139.8769  143.7121  152.3161 LP  0  0  0  0  0  0  0  0  0  0  0  0  # atno 17343 bound_to 10162
  156.5266  130.8239  151.3222 LP  0  0  0  0  0  0  0  0  0  0  0  0  # atno 17370 bound_to 10713
  157.7412  130.9865  150.2429 LP  0  0  0  0  0  0  0  0  0  0  0  0  # atno 17371 bound_to 10713
  140.0700  134.5875  155.8652 LP  0  0  0  0  0  0  0  0  0  0  0  0  # atno 17394 bound_to 11000
  141.2011  133.6616  156.5932 LP  0  0  0  0  0  0  0  0  0  0  0  0  # atno 17395 bound_to 11000

$$$$
