AV-unprocessed.smi:1912|AV-procd|sdf|7751|dock10
  -GOLD-   22720 9493D 1   1.00000     0.00000
 Structure written by MMmdl.
 44 46  0  0  0  0  0  0  0  0  2 V2000
  142.8826  144.1990  158.7788 C   0  0  0  0  0  0  0  0  0  0  0  0
  143.6985  143.2793  158.0676 O   0  0  0  0  0  0  0  0  0  0  0  0
  144.1216  143.6311  156.8041 C   0  0  0  0  0  0  0  0  0  0  0  0
  143.6005  144.7175  156.0635 C   0  0  0  0  0  0  0  0  0  0  0  0
  144.0828  144.9963  154.7717 C   0  0  0  0  0  0  0  0  0  0  0  0
  145.0950  144.1967  154.1852 C   0  0  0  0  0  0  0  0  0  0  0  0
  145.5860  144.4076  152.9128 O   0  0  0  0  0  0  0  0  0  0  0  0
  145.2044  145.5912  152.2272 C   0  0  0  0  0  0  0  0  0  0  0  0
  145.6250  143.1131  154.9269 C   0  0  0  0  0  0  0  0  0  0  0  0
  146.6964  142.2138  154.3110 C   0  0  1  0  0  0  0  0  0  0  0  0
  147.8390  142.9270  153.8783 O   0  0  0  0  0  0  0  0  0  0  0  0
  147.1189  141.0628  155.2536 C   0  0  0  0  0  0  0  0  0  0  0  0
  148.1228  140.1513  154.6716 N   0  0  0  0  0  0  0  0  0  0  0  0
  148.0236  139.2798  153.6249 C   0  0  0  0  0  0  0  0  0  0  0  0
  146.8218  139.0122  152.7809 C   0  0  0  0  0  0  0  0  0  0  0  0
  149.2419  138.6893  153.4735 N   0  3  0  0  0  0  0  0  0  0  0  0
  150.1279  139.1782  154.4328 C   0  0  0  0  0  0  0  0  0  0  0  0
  151.4674  138.8830  154.6671 C   0  0  0  0  0  0  0  0  0  0  0  0
  152.0881  139.5636  155.7347 C   0  0  0  0  0  0  0  0  0  0  0  0
  151.3785  140.4910  156.5246 C   0  0  0  0  0  0  0  0  0  0  0  0
  150.0197  140.7777  156.2798 C   0  0  0  0  0  0  0  0  0  0  0  0
  149.4141  140.1086  155.2154 C   0  0  0  0  0  0  0  0  0  0  0  0
  145.1345  142.8440  156.2252 C   0  0  0  0  0  0  0  0  0  0  0  0
  142.6329  143.7791  159.7531 H   0  0  0  0  0  0  0  0  0  0  0  0
  141.9464  144.3911  158.2530 H   0  0  0  0  0  0  0  0  0  0  0  0
  143.4013  145.1431  158.9502 H   0  0  0  0  0  0  0  0  0  0  0  0
  142.8240  145.3524  156.4623 H   0  0  0  0  0  0  0  0  0  0  0  0
  143.6489  145.8330  154.2459 H   0  0  0  0  0  0  0  0  0  0  0  0
  145.6799  145.6066  151.2467 H   0  0  0  0  0  0  0  0  0  0  0  0
  145.5279  146.4841  152.7640 H   0  0  0  0  0  0  0  0  0  0  0  0
  144.1257  145.6327  152.0704 H   0  0  0  0  0  0  0  0  0  0  0  0
  146.2823  141.7703  153.4052 H   0  0  0  0  0  0  0  0  0  0  0  0
  148.1912  143.4019  154.6159 H   0  0  0  0  0  0  0  0  0  0  0  0
  147.4914  141.4508  156.2018 H   0  0  0  0  0  0  0  0  0  0  0  0
  146.2466  140.4606  155.5086 H   0  0  0  0  0  0  0  0  0  0  0  0
  146.8759  138.0124  152.3497 H   0  0  0  0  0  0  0  0  0  0  0  0
  146.7659  139.7360  151.9679 H   0  0  0  0  0  0  0  0  0  0  0  0
  145.9096  139.0797  153.3731 H   0  0  0  0  0  0  0  0  0  0  0  0
  152.0119  138.1717  154.0638 H   0  0  0  0  0  0  0  0  0  0  0  0
  153.1284  139.3698  155.9522 H   0  0  0  0  0  0  0  0  0  0  0  0
  151.8868  140.9941  157.3345 H   0  0  0  0  0  0  0  0  0  0  0  0
  149.4905  141.4939  156.8899 H   0  0  0  0  0  0  0  0  0  0  0  0
  145.5234  142.0073  156.7869 H   0  0  0  0  0  0  0  0  0  0  0  0
  149.4498  138.0014  152.7613 H   0  0  0  0  0  0  0  0  0  0  0  0
  1  2  1  0  0  0  0
  1 24  1  0  0  0  0
  1 25  1  0  0  0  0
  1 26  1  0  0  0  0
  2  3  1  0  0  0  0
  3 23  1  0  0  0  0
  3  4  2  0  0  0  0
  4  5  1  0  0  0  0
  4 27  1  0  0  0  0
  5  6  2  0  0  0  0
  5 28  1  0  0  0  0
  6  7  1  0  0  0  0
  6  9  1  0  0  0  0
  7  8  1  0  0  0  0
  8 29  1  0  0  0  0
  8 30  1  0  0  0  0
  8 31  1  0  0  0  0
  9 10  1  0  0  0  0
  9 23  2  0  0  0  0
 10 11  1  0  0  0  0
 10 12  1  0  0  0  0
 10 32  1  0  0  0  0
 11 33  1  0  0  0  0
 12 13  1  0  0  0  0
 12 34  1  0  0  0  0
 12 35  1  0  0  0  0
 13 22  1  0  0  0  0
 13 14  1  0  0  0  0
 14 15  1  0  0  0  0
 14 16  2  0  0  0  0
 15 36  1  0  0  0  0
 15 37  1  0  0  0  0
 15 38  1  0  0  0  0
 16 17  1  0  0  0  0
 16 44  1  0  0  0  0
 17 22  2  0  0  0  0
 17 18  1  0  0  0  0
 18 19  2  0  0  0  0
 18 39  1  0  0  0  0
 19 20  1  0  0  0  0
 19 40  1  0  0  0  0
 20 21  2  0  0  0  0
 20 41  1  0  0  0  0
 21 22  1  0  0  0  0
 21 42  1  0  0  0  0
 23 43  1  0  0  0  0
M  CHG  1  16   1
M  END
> <s_m_source_file>
AV-unprocessed.smi

> <i_m_source_file_index>
1912

> <i_lp_mmshare_version>
43012

> <i_f3d_flags>
0

> <s_epik_input>
W0NIM11PYzFbY0hdW2NIXWMoT1tDSDNdKWMoW2NIXTEpW0NASF0oW09IXSlbQ0gyXW4oYyhuMilbQ0gzXSljKGMyMylbY0hdW2NIXVtjSF1bY0hdMw==

> <s_epik_cmdline>
J2VwaWtfcHl0aG9uJywgJy1waCcsICc3LjAnLCAnLXRuJywgJzgnLCAnLW1hJywgJzIwMCcsICctbWV0YWxfYmluZGluZycsICctaW1hZScsICc8aW5maWxlLm1hZT4nLCAnLW9tYWUnLCAnPG91dGZpbGUubWFlPic=

> <r_lp_tautomer_probability>
1

> <r_epik_Ionization_Penalty>
0.963869

> <r_epik_Ionization_Penalty_Charging>
0.963868

> <r_epik_Ionization_Penalty_Neutral>
1.34362e-06

> <r_epik_State_Penalty>
1.00924

> <r_epik_Charging_Adjusted_Penalty>
1.9731

> <i_epik_Tot_Q>
1

> <i_epik_Tot_abs_Q>
1

> <r_epik_Metal_State_Penalty>
4.98304

> <b_epik_Metal_Only>
0

> <s_lp_Force_Field>
OPLS_2005

> <r_lp_Energy>
21.1539

> <b_lp_Chiralities_Consistent>
1

> <s_lp_Variant>
AV-unprocessed.smi:1912-4

> <Gold.Version>
5.8.1

> <Gold.Id.Protein>
6NUR|6NUR_protein|mol2

> <Gold.PLP.Fitness>
50.1604

> <Gold.PLP.PLP>
-41.6777

> <Gold.PLP.part.hbond>
-5.5679

> <Gold.PLP.part.metal>
0.0000

> <Gold.PLP.part.buried>
-0.2241

> <Gold.PLP.part.nonpolar>
-36.6151

> <Gold.PLP.part.repulsive>
0.2823

> <Gold.PLP.ligand.clash>
0.0000

> <Gold.PLP.ligand.torsion>
0.2929

> <Gold.PLP.Chemscore.Hbond>
3.0000

> <Gold.PLP.Chemscore.CHOScore>
0.0000

> <Gold.PLP.Chemscore.Metal>
0.0000

> <Gold.Chemscore.Hbonds>
donor molecule, donor type, donor heavy atom, donor atom, acceptor molecule, acceptor atom, score
      L1  H    11    33       P1  8028  1.00
      L1  H    16    44       P1  7948  1.98

> <Gold.PLP.Chemscore.Internal.Correction>
0.0685

> <Gold.Rescore>
     Score         DG    S(hbond)    S(metal)    S(lipo)     H(rot)  DE(clash)    DE(int)     intcor
     14.89     -15.85       1.72        0.00      88.76       2.24       0.42       0.54       ----

> <Gold.Chemscore.Fitness>
14.8914

> <Gold.Chemscore.DG>
-15.8544

> <Gold.Chemscore.ZeroCoef>
-5.4800

> <Gold.Chemscore.Hbond>
1.7174

> <Gold.Chemscore.Metal>
0.0000

> <Gold.Chemscore.Lipo>
88.7615

> <Gold.Chemscore.Internal_Hbond>
0.0000

> <Gold.Chemscore.DEClash>
0.4198

> <Gold.Chemscore.DEInternal>
0.5432

> <Gold.Chemscore.Rot>
2.2448

> <Gold.Chemscore.Internal.Correction>
   9.000000E+99

> <Gold.Chemscore.Hbonds>
donor molecule, donor type, donor heavy atom, donor atom, acceptor molecule, acceptor atom, score
      L1  H    11    33       P1  8028  0.95
      L1  H    16    44       P1  7948  0.74

> <Gold.Chemscore.Hbond.Weighted>
-5.7361

> <Gold.Chemscore.Metal.Weighted>
-0.0000

> <Gold.Chemscore.Lipo.Weighted>
-10.3851

> <Gold.Chemscore.Internal_Hbond.Weighted>
0.0000

> <Gold.Chemscore.DEClash.Weighted>
0.4198

> <Gold.Chemscore.DEInternal.Weighted>
0.5432

> <Gold.Chemscore.Rot.Weighted>
5.7467

> <Gold.Chemscore.Internal.Correction.Weighted>
   9.000000E+99

> <Gold.Protein.RotatedTorsions>
[ 6907 6896 6895 6894 ] final   61.17 input  -60.11 | X-H torsion
[ 7974 7965 7964 7962 ] final  126.73 input  175.53 | X-H torsion
[ 8008 7997 7996 7995 ] final  168.95 input   59.86 | X-H torsion
[ 10167 10162 10161 10158 ] final -160.15 input  -65.29 | X-H torsion
[ 10718 10713 10712 10709 ] final    3.40 input   66.30 | X-H torsion
[ 10763 10752 10751 10750 ] final  -26.12 input  -60.55 | X-H torsion
[ 11005 11000 10999 10996 ] final  -98.68 input  -57.11 | X-H torsion

> <Gold.Protein.ActiveResidues>
 VAL166  LYS551  ARG553  GLY616  TRP617  ASP618  TYR619  PRO620  LYS621  CYS622 
 ASP623  PHE694  ASN695  SER759  ASP760  ASP761  ALA762  ILE779  LEU786  VAL792 
 PHE793  MET794  SER795  GLU796  ALA797  LYS798  CYS799  TRP800  GLU811  SER814 

> <Gold.Protein.RotatedAtoms>
  152.4066  134.6196  160.0047 H   0  0  0  0  0  0  0  0  0  0  0  0  # atno 6907 bound_to 6896
  151.6386  133.3322  159.3133 H   0  0  0  0  0  0  0  0  0  0  0  0  # atno 6908 bound_to 6896
  150.7960  134.7062  159.6622 H   0  0  0  0  0  0  0  0  0  0  0  0  # atno 6909 bound_to 6896
  145.0584  139.3825  143.5018 H   0  0  0  0  0  0  0  0  0  0  0  0  # atno 7974 bound_to 7965
  156.1501  140.1577  156.8784 H   0  0  0  0  0  0  0  0  0  0  0  0  # atno 8008 bound_to 7997
  154.5063  140.0812  156.7938 H   0  0  0  0  0  0  0  0  0  0  0  0  # atno 8009 bound_to 7997
  155.3913  140.3410  155.4254 H   0  0  0  0  0  0  0  0  0  0  0  0  # atno 8010 bound_to 7997
  139.6561  143.9997  152.2194 H   0  0  0  0  0  0  0  0  0  0  0  0  # atno 10167 bound_to 10162
  156.8773  130.5641  149.5654 H   0  0  0  0  0  0  0  0  0  0  0  0  # atno 10718 bound_to 10713
  153.7108  135.6951  153.5038 H   0  0  0  0  0  0  0  0  0  0  0  0  # atno 10763 bound_to 10752
  153.2274  135.4349  155.0556 H   0  0  0  0  0  0  0  0  0  0  0  0  # atno 10764 bound_to 10752
  154.8315  135.3475  154.6645 H   0  0  0  0  0  0  0  0  0  0  0  0  # atno 10765 bound_to 10752
  141.1336  133.8264  157.0872 H   0  0  0  0  0  0  0  0  0  0  0  0  # atno 11005 bound_to 11000
  146.3523  140.0270  142.8653 LP  0  0  0  0  0  0  0  0  0  0  0  0  # atno 17320 bound_to 7965
  145.1439  140.9586  143.4472 LP  0  0  0  0  0  0  0  0  0  0  0  0  # atno 17321 bound_to 7965
  139.9723  144.6485  150.7977 LP  0  0  0  0  0  0  0  0  0  0  0  0  # atno 17342 bound_to 10162
  140.7559  143.3056  151.2970 LP  0  0  0  0  0  0  0  0  0  0  0  0  # atno 17343 bound_to 10162
  156.0695  130.5731  150.9355 LP  0  0  0  0  0  0  0  0  0  0  0  0  # atno 17370 bound_to 10713
  157.6161  131.0933  150.8708 LP  0  0  0  0  0  0  0  0  0  0  0  0  # atno 17371 bound_to 10713
  140.0415  134.9852  157.0970 LP  0  0  0  0  0  0  0  0  0  0  0  0  # atno 17394 bound_to 11000
  140.4128  134.1963  155.7163 LP  0  0  0  0  0  0  0  0  0  0  0  0  # atno 17395 bound_to 11000

$$$$
