AV-unprocessed.smi:1787|AV-procd|sdf|7207|dock1
  -GOLD-   22720 8443D 1   1.00000     0.00000
 Structure written by MMmdl.
 44 46  0  0  0  0  0  0  0  0  1 V2000
  144.7039  136.3888  152.9567 O   0  0  0  0  0  0  0  0  0  0  0  0
  145.9055  136.2653  152.7209 C   0  0  0  0  0  0  0  0  0  0  0  0
  146.8308  137.1609  153.0918 N   0  0  0  0  0  0  0  0  0  0  0  0
  146.5762  138.4005  153.8253 C   0  0  0  0  0  0  0  0  0  0  0  0
  147.8911  139.1068  154.2968 C   0  0  2  0  0  0  0  0  0  0  0  0
  149.0244  138.1307  154.3223 N   0  0  0  0  0  0  0  0  0  0  0  0
  148.9292  137.0553  155.3204 C   0  0  0  0  0  0  0  0  0  0  0  0
  150.0964  136.0576  155.2229 C   0  0  0  0  0  0  0  0  0  0  0  0
  151.3326  136.7469  155.3501 O   0  0  0  0  0  0  0  0  0  0  0  0
  151.4959  137.7415  154.3487 C   0  0  0  0  0  0  0  0  0  0  0  0
  150.3474  138.7596  154.4390 C   0  0  0  0  0  0  0  0  0  0  0  0
  147.6147  139.7700  155.6775 C   0  0  0  0  0  0  0  0  0  0  0  0
  146.6718  140.9626  155.4846 C   0  0  0  0  0  0  0  0  0  0  0  0
  147.0438  141.6831  153.8684 S   0  0  0  0  0  0  0  0  0  0  0  0
  148.1413  140.3258  153.3722 C   0  0  0  0  0  0  0  0  0  0  0  0
  146.4695  135.2197  152.0927 N   0  0  0  0  0  0  0  0  0  0  0  0
  145.8332  134.0769  151.5379 C   0  0  0  0  0  0  0  0  0  0  0  0
  144.4238  134.0348  151.5460 C   0  0  0  0  0  0  0  0  0  0  0  0
  143.7678  132.9054  151.0206 C   0  0  0  0  0  0  0  0  0  0  0  0
  144.5524  131.8519  150.5126 C   0  0  0  0  0  0  0  0  0  0  0  0
  145.9020  131.8685  150.5103 N   0  0  0  0  0  0  0  0  0  0  0  0
  146.5248  132.9559  151.0145 C   0  0  0  0  0  0  0  0  0  0  0  0
  147.7949  136.9647  152.8664 H   0  0  0  0  0  0  0  0  0  0  0  0
  145.9944  139.0520  153.1750 H   0  0  0  0  0  0  0  0  0  0  0  0
  145.8973  138.2114  154.6565 H   0  0  0  0  0  0  0  0  0  0  0  0
  148.9047  137.4670  156.3287 H   0  0  0  0  0  0  0  0  0  0  0  0
  148.0186  136.4766  155.1858 H   0  0  0  0  0  0  0  0  0  0  0  0
  150.0227  135.3117  156.0143 H   0  0  0  0  0  0  0  0  0  0  0  0
  150.0669  135.5201  154.2736 H   0  0  0  0  0  0  0  0  0  0  0  0
  152.4546  138.2393  154.4952 H   0  0  0  0  0  0  0  0  0  0  0  0
  151.5241  137.2772  153.3616 H   0  0  0  0  0  0  0  0  0  0  0  0
  150.5052  139.4912  153.6498 H   0  0  0  0  0  0  0  0  0  0  0  0
  150.4236  139.2958  155.3855 H   0  0  0  0  0  0  0  0  0  0  0  0
  147.2341  139.0685  156.4194 H   0  0  0  0  0  0  0  0  0  0  0  0
  148.5230  140.1947  156.0989 H   0  0  0  0  0  0  0  0  0  0  0  0
  145.6304  140.6417  155.4962 H   0  0  0  0  0  0  0  0  0  0  0  0
  146.7905  141.7049  156.2741 H   0  0  0  0  0  0  0  0  0  0  0  0
  149.1577  140.7021  153.4745 H   0  0  0  0  0  0  0  0  0  0  0  0
  147.9957  140.0896  152.3177 H   0  0  0  0  0  0  0  0  0  0  0  0
  147.4783  135.2154  152.0548 H   0  0  0  0  0  0  0  0  0  0  0  0
  143.8494  134.8586  151.9444 H   0  0  0  0  0  0  0  0  0  0  0  0
  142.6895  132.8476  151.0080 H   0  0  0  0  0  0  0  0  0  0  0  0
  144.0834  130.9703  150.1013 H   0  0  0  0  0  0  0  0  0  0  0  0
  147.6023  132.8998  151.0109 H   0  0  0  0  0  0  0  0  0  0  0  0
  1  2  2  0  0  0  0
  2  3  1  0  0  0  0
  2 16  1  0  0  0  0
  3  4  1  0  0  0  0
  3 23  1  0  0  0  0
  4  5  1  0  0  0  0
  4 24  1  0  0  0  0
  4 25  1  0  0  0  0
  5 15  1  0  0  0  0
  5  6  1  0  0  0  0
  5 12  1  0  0  0  0
  6 11  1  0  0  0  0
  6  7  1  0  0  0  0
  7  8  1  0  0  0  0
  7 26  1  0  0  0  0
  7 27  1  0  0  0  0
  8  9  1  0  0  0  0
  8 28  1  0  0  0  0
  8 29  1  0  0  0  0
  9 10  1  0  0  0  0
 10 11  1  0  0  0  0
 10 30  1  0  0  0  0
 10 31  1  0  0  0  0
 11 32  1  0  0  0  0
 11 33  1  0  0  0  0
 12 13  1  0  0  0  0
 12 34  1  0  0  0  0
 12 35  1  0  0  0  0
 13 14  1  0  0  0  0
 13 36  1  0  0  0  0
 13 37  1  0  0  0  0
 14 15  1  0  0  0  0
 15 38  1  0  0  0  0
 15 39  1  0  0  0  0
 16 17  1  0  0  0  0
 16 40  1  0  0  0  0
 17 22  1  0  0  0  0
 17 18  2  0  0  0  0
 18 19  1  0  0  0  0
 18 41  1  0  0  0  0
 19 20  2  0  0  0  0
 19 42  1  0  0  0  0
 20 21  1  0  0  0  0
 20 43  1  0  0  0  0
 21 22  2  0  0  0  0
 22 44  1  0  0  0  0
M  END
> <s_m_source_file>
AV-unprocessed.smi

> <i_m_source_file_index>
1787

> <i_lp_mmshare_version>
43012

> <i_f3d_flags>
0

> <s_epik_input>
W2NIXTFuW2NIXVtjSF1bY0hdYzFbTkhdQyg9TylbTkhdW0NIMl1bQ0BdMihbQ0gyXVtDSDJdU1tDSDJdMilOM1tDSDJdW0NIMl1PW0NIMl1bQ0gyXTM=

> <s_epik_cmdline>
J2VwaWtfcHl0aG9uJywgJy1waCcsICc3LjAnLCAnLXRuJywgJzgnLCAnLW1hJywgJzIwMCcsICctbWV0YWxfYmluZGluZycsICctaW1hZScsICc8aW5maWxlLm1hZT4nLCAnLW9tYWUnLCAnPG91dGZpbGUubWFlPic=

> <r_epik_Ionization_Penalty>
0.024212

> <r_epik_Ionization_Penalty_Charging>
0

> <r_epik_Ionization_Penalty_Neutral>
0.024212

> <r_epik_State_Penalty>
0.0155843

> <r_epik_Charging_Adjusted_Penalty>
0.0155843

> <i_epik_Tot_Q>
0

> <i_epik_Tot_abs_Q>
0

> <r_epik_Metal_State_Penalty>
0.01557

> <b_epik_Metal_Only>
0

> <s_lp_Force_Field>
OPLS_2005

> <r_lp_Energy>
56.7438

> <b_lp_Chiralities_Consistent>
1

> <s_lp_Variant>
AV-unprocessed.smi:1787-2

> <Gold.Version>
5.8.1

> <Gold.Id.Protein>
6NUR|6NUR_protein|mol2

> <Gold.PLP.Fitness>
40.9665

> <Gold.PLP.PLP>
-31.7986

> <Gold.PLP.part.hbond>
-3.0000

> <Gold.PLP.part.metal>
0.0000

> <Gold.PLP.part.buried>
-3.0418

> <Gold.PLP.part.nonpolar>
-28.4626

> <Gold.PLP.part.repulsive>
1.3695

> <Gold.PLP.ligand.clash>
0.0000

> <Gold.PLP.ligand.torsion>
1.0602

> <Gold.PLP.Chemscore.Hbond>
2.9920

> <Gold.PLP.Chemscore.CHOScore>
0.7416

> <Gold.PLP.Chemscore.Metal>
0.0000

> <Gold.Chemscore.Hbonds>
donor molecule, donor type, donor heavy atom, donor atom, acceptor molecule, acceptor atom, score
      L1  H     3    23       P1  7948  0.99
      L1  H    16    40       P1  7948  0.93
      P1  H 10752 10764       L1     9  0.64
      L1  C    22    44       P1 10747  0.85

> <Gold.PLP.Chemscore.Internal.Correction>
0.0873

> <Gold.Rescore>
     Score         DG    S(hbond)    S(metal)    S(lipo)     H(rot)  DE(clash)    DE(int)     intcor
     17.26     -20.28       2.63        0.00      83.11       1.44       0.47       2.55       ----

> <Gold.Chemscore.Fitness>
17.2556

> <Gold.Chemscore.DG>
-20.2788

> <Gold.Chemscore.ZeroCoef>
-5.4800

> <Gold.Chemscore.Hbond>
2.6265

> <Gold.Chemscore.Metal>
0.0000

> <Gold.Chemscore.Lipo>
83.1143

> <Gold.Chemscore.Internal_Hbond>
0.0000

> <Gold.Chemscore.DEClash>
0.4725

> <Gold.Chemscore.DEInternal>
2.5507

> <Gold.Chemscore.Rot>
1.4445

> <Gold.Chemscore.Internal.Correction>
   9.000000E+99

> <Gold.Chemscore.Hbonds>
donor molecule, donor type, donor heavy atom, donor atom, acceptor molecule, acceptor atom, score
      L1  H     3    23       P1  7948  0.94
      L1  H    16    40       P1  7948  0.88
      P1  H 10752 10764       L1     9  0.08

> <Gold.Chemscore.Hbond.Weighted>
-8.7724

> <Gold.Chemscore.Metal.Weighted>
-0.0000

> <Gold.Chemscore.Lipo.Weighted>
-9.7244

> <Gold.Chemscore.Internal_Hbond.Weighted>
0.0000

> <Gold.Chemscore.DEClash.Weighted>
0.4725

> <Gold.Chemscore.DEInternal.Weighted>
2.5507

> <Gold.Chemscore.Rot.Weighted>
3.6980

> <Gold.Chemscore.Internal.Correction.Weighted>
   9.000000E+99

> <Gold.Protein.RotatedTorsions>
[ 6907 6896 6895 6894 ] final   19.93 input  -60.11 | X-H torsion
[ 7974 7965 7964 7962 ] final  133.14 input  175.53 | X-H torsion
[ 8008 7997 7996 7995 ] final  179.88 input   59.86 | X-H torsion
[ 10167 10162 10161 10158 ] final -137.59 input  -65.29 | X-H torsion
[ 10718 10713 10712 10709 ] final  129.50 input   66.30 | X-H torsion
[ 10763 10752 10751 10750 ] final  -49.55 input  -60.55 | X-H torsion
[ 11005 11000 10999 10996 ] final -132.61 input  -57.11 | X-H torsion

> <Gold.Protein.ActiveResidues>
 VAL166  LYS551  ARG553  GLY616  TRP617  ASP618  TYR619  PRO620  LYS621  CYS622 
 ASP623  PHE694  ASN695  SER759  ASP760  ASP761  ALA762  ILE779  LEU786  VAL792 
 PHE793  MET794  SER795  GLU796  ALA797  LYS798  CYS799  TRP800  GLU811  SER814 

> <Gold.Protein.RotatedAtoms>
  151.8885  135.0426  160.0495 H   0  0  0  0  0  0  0  0  0  0  0  0  # atno 6907 bound_to 6896
  152.2455  133.5166  159.5303 H   0  0  0  0  0  0  0  0  0  0  0  0  # atno 6908 bound_to 6896
  150.7067  134.0948  159.3987 H   0  0  0  0  0  0  0  0  0  0  0  0  # atno 6909 bound_to 6896
  144.9896  139.4420  143.5346 H   0  0  0  0  0  0  0  0  0  0  0  0  # atno 7974 bound_to 7965
  156.0383  140.1297  157.0184 H   0  0  0  0  0  0  0  0  0  0  0  0  # atno 8008 bound_to 7997
  154.4379  140.1035  156.6270 H   0  0  0  0  0  0  0  0  0  0  0  0  # atno 8009 bound_to 7997
  155.5705  140.3466  155.4516 H   0  0  0  0  0  0  0  0  0  0  0  0  # atno 8010 bound_to 7997
  139.8562  143.7135  152.2654 H   0  0  0  0  0  0  0  0  0  0  0  0  # atno 10167 bound_to 10162
  157.5148  131.1097  150.9240 H   0  0  0  0  0  0  0  0  0  0  0  0  # atno 10718 bound_to 10713
  154.0960  135.6570  153.4860 H   0  0  0  0  0  0  0  0  0  0  0  0  # atno 10763 bound_to 10752
  153.0305  135.5213  154.7334 H   0  0  0  0  0  0  0  0  0  0  0  0  # atno 10764 bound_to 10752
  154.6472  135.2996  155.0001 H   0  0  0  0  0  0  0  0  0  0  0  0  # atno 10765 bound_to 10752
  140.9154  134.1513  157.4356 H   0  0  0  0  0  0  0  0  0  0  0  0  # atno 11005 bound_to 11000
  146.3428  139.9219  142.8765 LP  0  0  0  0  0  0  0  0  0  0  0  0  # atno 17320 bound_to 7965
  145.2304  140.9971  143.3994 LP  0  0  0  0  0  0  0  0  0  0  0  0  # atno 17321 bound_to 7965
  139.7417  144.7557  151.0642 LP  0  0  0  0  0  0  0  0  0  0  0  0  # atno 17342 bound_to 10162
  140.7781  143.4964  150.9827 LP  0  0  0  0  0  0  0  0  0  0  0  0  # atno 17343 bound_to 10162
  156.9869  130.5548  149.5300 LP  0  0  0  0  0  0  0  0  0  0  0  0  # atno 17370 bound_to 10713
  156.0313  130.5404  150.8541 LP  0  0  0  0  0  0  0  0  0  0  0  0  # atno 17371 bound_to 10713
  139.8765  134.9952  156.5730 LP  0  0  0  0  0  0  0  0  0  0  0  0  # atno 17394 bound_to 11000
  140.8056  133.8470  155.8765 LP  0  0  0  0  0  0  0  0  0  0  0  0  # atno 17395 bound_to 11000

$$$$
