AV-unprocessed.smi:2797|AV-procd|sdf|10783|dock10
  -GOLD-   2272015223D 1   1.00000     0.00000
 Structure written by MMmdl.
 37 38  0  0  0  0  0  0  0  0  1 V2000
  145.4606  140.1007  155.5918 C   0  0  0  0  0  0  0  0  0  0  0  0
  146.7202  139.4608  155.4228 O   0  0  0  0  0  0  0  0  0  0  0  0
  147.4352  139.7313  154.2119 C   0  0  0  0  0  0  0  0  0  0  0  0
  146.6233  139.3303  152.9730 C   0  0  0  0  0  0  0  0  0  0  0  0
  146.7604  137.9043  152.6935 N   0  0  0  0  0  0  0  0  0  0  0  0
  145.7507  137.0427  152.5081 C   0  0  0  0  0  0  0  0  0  0  0  0
  144.5636  137.3540  152.5984 O   0  0  0  0  0  0  0  0  0  0  0  0
  146.2128  135.8109  152.2332 N   0  0  0  0  0  0  0  0  0  0  0  0
  145.4794  134.6210  151.9651 C   0  0  0  0  0  0  0  0  0  0  0  0
  144.1276  134.6153  151.5442 C   0  0  0  0  0  0  0  0  0  0  0  0
  143.5040  133.3796  151.2872 C   0  0  0  0  0  0  0  0  0  0  0  0
  144.1303  132.1919  151.4123 N   0  0  0  0  0  0  0  0  0  0  0  0
  145.4247  132.1939  151.7990 C   0  0  0  0  0  0  0  0  0  0  0  0
  146.0778  130.8292  151.9124 C   0  0  0  0  0  0  0  0  0  0  0  0
  146.1454  133.3781  152.0820 C   0  0  0  0  0  0  0  0  0  0  0  0
  147.8070  133.3056  152.5664 Cl  0  0  0  0  0  0  0  0  0  0  0  0
  147.9258  141.1888  154.3093 C   0  0  0  0  0  0  0  0  0  0  0  0
  149.2178  140.6816  154.9526 C   0  0  0  0  0  0  0  0  0  0  0  0
  148.9226  139.3252  154.3106 C   0  0  0  0  0  0  0  0  0  0  0  0
  145.0502  139.8166  156.5604 H   0  0  0  0  0  0  0  0  0  0  0  0
  144.7377  139.7991  154.8356 H   0  0  0  0  0  0  0  0  0  0  0  0
  145.5385  141.1863  155.5832 H   0  0  0  0  0  0  0  0  0  0  0  0
  145.5642  139.5178  153.1505 H   0  0  0  0  0  0  0  0  0  0  0  0
  146.8771  139.9403  152.1059 H   0  0  0  0  0  0  0  0  0  0  0  0
  147.7026  137.5528  152.6070 H   0  0  0  0  0  0  0  0  0  0  0  0
  147.2144  135.6946  152.2792 H   0  0  0  0  0  0  0  0  0  0  0  0
  143.5646  135.5245  151.4009 H   0  0  0  0  0  0  0  0  0  0  0  0
  142.4738  133.3452  150.9648 H   0  0  0  0  0  0  0  0  0  0  0  0
  146.4438  130.6666  152.9264 H   0  0  0  0  0  0  0  0  0  0  0  0
  146.9207  130.7552  151.2249 H   0  0  0  0  0  0  0  0  0  0  0  0
  145.3771  130.0274  151.6750 H   0  0  0  0  0  0  0  0  0  0  0  0
  148.0989  141.6432  153.3323 H   0  0  0  0  0  0  0  0  0  0  0  0
  147.3226  141.8373  154.9458 H   0  0  0  0  0  0  0  0  0  0  0  0
  150.1276  141.1677  154.5992 H   0  0  0  0  0  0  0  0  0  0  0  0
  149.1665  140.6544  156.0422 H   0  0  0  0  0  0  0  0  0  0  0  0
  149.1580  138.4704  154.9425 H   0  0  0  0  0  0  0  0  0  0  0  0
  149.3929  139.2232  153.3313 H   0  0  0  0  0  0  0  0  0  0  0  0
  1  2  1  0  0  0  0
  1 20  1  0  0  0  0
  1 21  1  0  0  0  0
  1 22  1  0  0  0  0
  2  3  1  0  0  0  0
  3 19  1  0  0  0  0
  3  4  1  0  0  0  0
  3 17  1  0  0  0  0
  4  5  1  0  0  0  0
  4 23  1  0  0  0  0
  4 24  1  0  0  0  0
  5  6  1  0  0  0  0
  5 25  1  0  0  0  0
  6  7  2  0  0  0  0
  6  8  1  0  0  0  0
  8  9  1  0  0  0  0
  8 26  1  0  0  0  0
  9 15  1  0  0  0  0
  9 10  2  0  0  0  0
 10 11  1  0  0  0  0
 10 27  1  0  0  0  0
 11 12  2  0  0  0  0
 11 28  1  0  0  0  0
 12 13  1  0  0  0  0
 13 14  1  0  0  0  0
 13 15  2  0  0  0  0
 14 29  1  0  0  0  0
 14 30  1  0  0  0  0
 14 31  1  0  0  0  0
 15 16  1  0  0  0  0
 17 18  1  0  0  0  0
 17 32  1  0  0  0  0
 17 33  1  0  0  0  0
 18 19  1  0  0  0  0
 18 34  1  0  0  0  0
 18 35  1  0  0  0  0
 19 36  1  0  0  0  0
 19 37  1  0  0  0  0
M  END
> <s_m_source_file>
AV-unprocessed.smi

> <i_m_source_file_index>
2797

> <i_lp_mmshare_version>
43012

> <i_f3d_flags>
0

> <s_epik_input>
W0NIMl0xW0NIMl1bQ0gyXUMxKE9bQ0gzXSlbQ0gyXVtOSF1DKD1PKVtOSF1jMltjSF1bY0hdbmMoW0NIM10pYzJDbA==

> <s_epik_cmdline>
J2VwaWtfcHl0aG9uJywgJy1waCcsICc3LjAnLCAnLXRuJywgJzgnLCAnLW1hJywgJzIwMCcsICctbWV0YWxfYmluZGluZycsICctaW1hZScsICc8aW5maWxlLm1hZT4nLCAnLW9tYWUnLCAnPG91dGZpbGUubWFlPic=

> <r_epik_Ionization_Penalty>
0.0099818

> <r_epik_Ionization_Penalty_Charging>
0

> <r_epik_Ionization_Penalty_Neutral>
0.0099818

> <r_epik_State_Penalty>
0.00758124

> <r_epik_Charging_Adjusted_Penalty>
0.00758124

> <i_epik_Tot_Q>
0

> <i_epik_Tot_abs_Q>
0

> <r_epik_Metal_State_Penalty>
0.00745574

> <b_epik_Metal_Only>
0

> <s_lp_Force_Field>
OPLS_2005

> <r_lp_Energy>
22.2651

> <b_lp_Chiralities_Consistent>
1

> <s_lp_Variant>
AV-unprocessed.smi:2797-1

> <Gold.Version>
5.8.1

> <Gold.Id.Protein>
6NUR|6NUR_protein|mol2

> <Gold.PLP.Fitness>
38.9458

> <Gold.PLP.PLP>
-30.6622

> <Gold.PLP.part.hbond>
-2.0000

> <Gold.PLP.part.metal>
0.0000

> <Gold.PLP.part.buried>
-2.8882

> <Gold.PLP.part.nonpolar>
-26.6820

> <Gold.PLP.part.repulsive>
1.0377

> <Gold.PLP.ligand.clash>
0.0000

> <Gold.PLP.ligand.torsion>
0.4961

> <Gold.PLP.Chemscore.Hbond>
2.0000

> <Gold.PLP.Chemscore.CHOScore>
1.0000

> <Gold.PLP.Chemscore.Metal>
0.0000

> <Gold.Chemscore.Hbonds>
donor molecule, donor type, donor heavy atom, donor atom, acceptor molecule, acceptor atom, score
      L1  H     5    25       P1  7948  0.99
      L1  H     8    26       P1  7948  1.00
      L1  C    11    28       P1 10186  1.00

> <Gold.PLP.Chemscore.Internal.Correction>
0.2758

> <Gold.Rescore>
     Score         DG    S(hbond)    S(metal)    S(lipo)     H(rot)  DE(clash)    DE(int)     intcor
     15.74     -17.34       1.96        0.00      76.23       1.41       0.17       1.43       ----

> <Gold.Chemscore.Fitness>
15.7397

> <Gold.Chemscore.DG>
-17.3399

> <Gold.Chemscore.ZeroCoef>
-5.4800

> <Gold.Chemscore.Hbond>
1.9605

> <Gold.Chemscore.Metal>
0.0000

> <Gold.Chemscore.Lipo>
76.2331

> <Gold.Chemscore.Internal_Hbond>
0.0000

> <Gold.Chemscore.DEClash>
0.1663

> <Gold.Chemscore.DEInternal>
1.4339

> <Gold.Chemscore.Rot>
1.4092

> <Gold.Chemscore.Internal.Correction>
   9.000000E+99

> <Gold.Chemscore.Hbonds>
donor molecule, donor type, donor heavy atom, donor atom, acceptor molecule, acceptor atom, score
      L1  H     5    25       P1  7948  0.92
      L1  H     8    26       P1  7948  0.96

> <Gold.Chemscore.Hbond.Weighted>
-6.5482

> <Gold.Chemscore.Metal.Weighted>
-0.0000

> <Gold.Chemscore.Lipo.Weighted>
-8.9193

> <Gold.Chemscore.Internal_Hbond.Weighted>
0.0000

> <Gold.Chemscore.DEClash.Weighted>
0.1663

> <Gold.Chemscore.DEInternal.Weighted>
1.4339

> <Gold.Chemscore.Rot.Weighted>
3.6075

> <Gold.Chemscore.Internal.Correction.Weighted>
   9.000000E+99

> <Gold.Protein.RotatedTorsions>
[ 6907 6896 6895 6894 ] final  148.30 input  -60.11 | X-H torsion
[ 7974 7965 7964 7962 ] final  161.92 input  175.53 | X-H torsion
[ 8008 7997 7996 7995 ] final   38.32 input   59.86 | X-H torsion
[ 10167 10162 10161 10158 ] final  168.98 input  -65.29 | X-H torsion
[ 10718 10713 10712 10709 ] final  -53.44 input   66.30 | X-H torsion
[ 10763 10752 10751 10750 ] final    7.27 input  -60.55 | X-H torsion
[ 11005 11000 10999 10996 ] final  103.80 input  -57.11 | X-H torsion

> <Gold.Protein.ActiveResidues>
 VAL166  LYS551  ARG553  GLY616  TRP617  ASP618  TYR619  PRO620  LYS621  CYS622 
 ASP623  PHE694  ASN695  SER759  ASP760  ASP761  ALA762  ILE779  LEU786  VAL792 
 PHE793  MET794  SER795  GLU796  ALA797  LYS798  CYS799  TRP800  GLU811  SER814 

> <Gold.Protein.RotatedAtoms>
  152.1433  133.4477  159.4777 H   0  0  0  0  0  0  0  0  0  0  0  0  # atno 6907 bound_to 6896
  150.6888  134.2278  159.4431 H   0  0  0  0  0  0  0  0  0  0  0  0  # atno 6908 bound_to 6896
  152.0171  134.9843  160.0620 H   0  0  0  0  0  0  0  0  0  0  0  0  # atno 6909 bound_to 6896
  144.7662  139.7966  143.6314 H   0  0  0  0  0  0  0  0  0  0  0  0  # atno 7974 bound_to 7965
  155.2183  140.3329  155.4319 H   0  0  0  0  0  0  0  0  0  0  0  0  # atno 8008 bound_to 7997
  156.2343  140.1865  156.7207 H   0  0  0  0  0  0  0  0  0  0  0  0  # atno 8009 bound_to 7997
  154.6032  140.0620  156.9382 H   0  0  0  0  0  0  0  0  0  0  0  0  # atno 8010 bound_to 7997
  139.4981  144.3756  151.9678 H   0  0  0  0  0  0  0  0  0  0  0  0  # atno 10167 bound_to 10162
  156.1535  130.4151  149.9906 H   0  0  0  0  0  0  0  0  0  0  0  0  # atno 10718 bound_to 10713
  153.2382  135.6900  153.7812 H   0  0  0  0  0  0  0  0  0  0  0  0  # atno 10763 bound_to 10752
  153.6952  135.3306  155.3212 H   0  0  0  0  0  0  0  0  0  0  0  0  # atno 10764 bound_to 10752
  154.8344  135.4554  154.1294 H   0  0  0  0  0  0  0  0  0  0  0  0  # atno 10765 bound_to 10752
  139.8786  134.9277  156.5264 H   0  0  0  0  0  0  0  0  0  0  0  0  # atno 11005 bound_to 11000
  146.1771  139.4946  142.9890 LP  0  0  0  0  0  0  0  0  0  0  0  0  # atno 17320 bound_to 7965
  145.6464  141.0273  143.1784 LP  0  0  0  0  0  0  0  0  0  0  0  0  # atno 17321 bound_to 7965
  140.3192  144.3447  150.6014 LP  0  0  0  0  0  0  0  0  0  0  0  0  # atno 17342 bound_to 10162
  140.5736  143.2178  151.7555 LP  0  0  0  0  0  0  0  0  0  0  0  0  # atno 17343 bound_to 10162
  156.7757  130.9202  151.3645 LP  0  0  0  0  0  0  0  0  0  0  0  0  # atno 17370 bound_to 10713
  157.6676  130.9022  149.9968 LP  0  0  0  0  0  0  0  0  0  0  0  0  # atno 17371 bound_to 10713
  140.8412  133.8203  155.9077 LP  0  0  0  0  0  0  0  0  0  0  0  0  # atno 17394 bound_to 11000
  140.9235  134.2112  157.4911 LP  0  0  0  0  0  0  0  0  0  0  0  0  # atno 17395 bound_to 11000

$$$$
