AV-unprocessed.smi:3031|AV-procd|sdf|11544|dock3
  -GOLD-   2272016493D 1   1.00000     0.00000
 Structure written by MMmdl.
 47 48  0  0  0  0  0  0  0  0  2 V2000
  145.4990  132.2927  151.2468 C   0  0  0  0  0  0  0  0  0  0  0  0
  145.3139  133.7718  151.0673 C   0  0  0  0  0  0  0  0  0  0  0  0
  144.1086  134.4696  150.7704 C   0  0  0  0  0  0  0  0  0  0  0  0
  144.2839  135.7770  150.6673 N   0  0  0  0  0  0  0  0  0  0  0  0
  145.6010  135.9598  150.8971 N   0  0  0  0  0  0  0  0  0  0  0  0
  146.1612  137.2978  150.8514 C   0  0  0  0  0  0  0  0  0  0  0  0
  146.2059  137.9862  152.2338 C   0  0  1  0  0  0  0  0  0  0  0  0
  145.9859  136.9594  153.3529 C   0  0  0  0  0  0  0  0  0  0  0  0
  147.4997  138.6737  152.4494 N   0  3  0  0  0  0  0  0  0  0  0  0
  147.7484  139.1391  153.8316 C   0  0  0  0  0  0  0  0  0  0  0  0
  149.0609  139.9352  153.9196 C   0  0  1  0  0  0  0  0  0  0  0  0
  148.8588  141.1618  153.2429 O   0  0  0  0  0  0  0  0  0  0  0  0
  149.4575  140.2383  155.3809 C   0  0  0  0  0  0  0  0  0  0  0  0
  150.5244  139.3982  155.9242 N   0  0  0  0  0  0  0  0  0  0  0  0
  151.0234  139.9376  157.1853 C   0  0  0  0  0  0  0  0  0  0  0  0
  152.1457  139.0696  157.7800 C   0  0  0  0  0  0  0  0  0  0  0  0
  153.2017  138.9445  156.8334 O   0  0  0  0  0  0  0  0  0  0  0  0
  152.7692  138.3775  155.6012 C   0  0  0  0  0  0  0  0  0  0  0  0
  151.6455  139.2398  155.0000 C   0  0  0  0  0  0  0  0  0  0  0  0
  146.2457  134.7674  151.1499 C   0  0  0  0  0  0  0  0  0  0  0  0
  144.9025  131.9114  152.0756 H   0  0  0  0  0  0  0  0  0  0  0  0
  146.5378  132.0343  151.4533 H   0  0  0  0  0  0  0  0  0  0  0  0
  145.2017  131.7397  150.3556 H   0  0  0  0  0  0  0  0  0  0  0  0
  143.1176  134.0658  150.6236 H   0  0  0  0  0  0  0  0  0  0  0  0
  147.1676  137.2240  150.4365 H   0  0  0  0  0  0  0  0  0  0  0  0
  145.5806  137.8947  150.1465 H   0  0  0  0  0  0  0  0  0  0  0  0
  145.3974  138.7159  152.3035 H   0  0  0  0  0  0  0  0  0  0  0  0
  145.0245  136.4570  153.2408 H   0  0  0  0  0  0  0  0  0  0  0  0
  145.9926  137.4373  154.3330 H   0  0  0  0  0  0  0  0  0  0  0  0
  146.7625  136.1937  153.3499 H   0  0  0  0  0  0  0  0  0  0  0  0
  148.2417  138.0305  152.2129 H   0  0  0  0  0  0  0  0  0  0  0  0
  146.9209  139.7464  154.1963 H   0  0  0  0  0  0  0  0  0  0  0  0
  147.7985  138.2602  154.4754 H   0  0  0  0  0  0  0  0  0  0  0  0
  149.8541  139.3719  153.4253 H   0  0  0  0  0  0  0  0  0  0  0  0
  148.1208  141.6049  153.6336 H   0  0  0  0  0  0  0  0  0  0  0  0
  149.7037  141.2950  155.5004 H   0  0  0  0  0  0  0  0  0  0  0  0
  148.5732  140.0794  155.9995 H   0  0  0  0  0  0  0  0  0  0  0  0
  151.3973  140.9511  157.0320 H   0  0  0  0  0  0  0  0  0  0  0  0
  150.2080  140.0122  157.9056 H   0  0  0  0  0  0  0  0  0  0  0  0
  152.5352  139.5244  158.6908 H   0  0  0  0  0  0  0  0  0  0  0  0
  151.7692  138.0816  158.0498 H   0  0  0  0  0  0  0  0  0  0  0  0
  153.6151  138.3250  154.9158 H   0  0  0  0  0  0  0  0  0  0  0  0
  152.4255  137.3551  155.7647 H   0  0  0  0  0  0  0  0  0  0  0  0
  151.3084  138.7745  154.0742 H   0  0  0  0  0  0  0  0  0  0  0  0
  152.0454  140.2188  154.7316 H   0  0  0  0  0  0  0  0  0  0  0  0
  147.3053  134.7246  151.3558 H   0  0  0  0  0  0  0  0  0  0  0  0
  147.5526  139.4636  151.8220 H   0  0  0  0  0  0  0  0  0  0  0  0
  1  2  1  0  0  0  0
  1 21  1  0  0  0  0
  1 22  1  0  0  0  0
  1 23  1  0  0  0  0
  2 20  2  0  0  0  0
  2  3  1  0  0  0  0
  3  4  2  0  0  0  0
  3 24  1  0  0  0  0
  4  5  1  0  0  0  0
  5  6  1  0  0  0  0
  5 20  1  0  0  0  0
  6  7  1  0  0  0  0
  6 25  1  0  0  0  0
  6 26  1  0  0  0  0
  7  8  1  0  0  0  0
  7  9  1  0  0  0  0
  7 27  1  0  0  0  0
  8 28  1  0  0  0  0
  8 29  1  0  0  0  0
  8 30  1  0  0  0  0
  9 10  1  0  0  0  0
  9 31  1  0  0  0  0
  9 47  1  0  0  0  0
 10 11  1  0  0  0  0
 10 32  1  0  0  0  0
 10 33  1  0  0  0  0
 11 12  1  0  0  0  0
 11 13  1  0  0  0  0
 11 34  1  0  0  0  0
 12 35  1  0  0  0  0
 13 14  1  0  0  0  0
 13 36  1  0  0  0  0
 13 37  1  0  0  0  0
 14 19  1  0  0  0  0
 14 15  1  0  0  0  0
 15 16  1  0  0  0  0
 15 38  1  0  0  0  0
 15 39  1  0  0  0  0
 16 17  1  0  0  0  0
 16 40  1  0  0  0  0
 16 41  1  0  0  0  0
 17 18  1  0  0  0  0
 18 19  1  0  0  0  0
 18 42  1  0  0  0  0
 18 43  1  0  0  0  0
 19 44  1  0  0  0  0
 19 45  1  0  0  0  0
 20 46  1  0  0  0  0
M  CHG  1   9   1
M  END
> <s_m_source_file>
AV-unprocessed.smi

> <i_m_source_file_index>
3031

> <i_lp_mmshare_version>
43012

> <i_f3d_flags>
0

> <s_epik_input>
W0NIM11jMVtjSF1ubihbY0hdMSlbQ0gyXVtDQEhdKFtDSDNdKVtOSF1bQ0gyXVtDQEhdKFtPSF0pW0NIMl1OMltDSDJdW0NIMl1PW0NIMl1bQ0gyXTI=

> <s_epik_cmdline>
J2VwaWtfcHl0aG9uJywgJy1waCcsICc3LjAnLCAnLXRuJywgJzgnLCAnLW1hJywgJzIwMCcsICctbWV0YWxfYmluZGluZycsICctaW1hZScsICc8aW5maWxlLm1hZT4nLCAnLW9tYWUnLCAnPG91dGZpbGUubWFlPic=

> <r_lp_tautomer_probability>
1

> <r_epik_Ionization_Penalty>
0.108564

> <r_epik_Ionization_Penalty_Charging>
0.01811

> <r_epik_Ionization_Penalty_Neutral>
0.0904541

> <r_epik_State_Penalty>
0.141043

> <r_epik_Charging_Adjusted_Penalty>
0.159153

> <i_epik_Tot_Q>
1

> <i_epik_Tot_abs_Q>
1

> <r_epik_Metal_State_Penalty>
0.141052

> <b_epik_Metal_Only>
0

> <s_lp_Force_Field>
OPLS_2005

> <r_lp_Energy>
31.0841

> <b_lp_Chiralities_Consistent>
1

> <s_lp_Variant>
AV-unprocessed.smi:3031-4

> <Gold.Version>
5.8.1

> <Gold.Id.Protein>
6NUR|6NUR_protein|mol2

> <Gold.PLP.Fitness>
49.1409

> <Gold.PLP.PLP>
-33.7284

> <Gold.PLP.part.hbond>
-5.1595

> <Gold.PLP.part.metal>
0.0000

> <Gold.PLP.part.buried>
2.8117

> <Gold.PLP.part.nonpolar>
-31.3598

> <Gold.PLP.part.repulsive>
0.7775

> <Gold.PLP.ligand.clash>
0.0000

> <Gold.PLP.ligand.torsion>
1.8150

> <Gold.PLP.Chemscore.Hbond>
4.2093

> <Gold.PLP.Chemscore.CHOScore>
2.0000

> <Gold.PLP.Chemscore.Metal>
0.0000

> <Gold.Chemscore.Hbonds>
donor molecule, donor type, donor heavy atom, donor atom, acceptor molecule, acceptor atom, score
      L1  H     9    31       P1  7948  2.00
      L1  H     9    47       P1  7957  0.19
      P1  H  7997  8009       L1    17  1.00
      P1  H  8011  8017       L1    12  1.00
      L1  C     3    24       P1 10186  1.00
      L1  C    20    46       P1  7948  1.00

> <Gold.PLP.Chemscore.Internal.Correction>
0.4146

> <Gold.Rescore>
     Score         DG    S(hbond)    S(metal)    S(lipo)     H(rot)  DE(clash)    DE(int)     intcor
     13.98     -18.56       2.81        0.00      89.18       2.63       2.84       1.75       ----

> <Gold.Chemscore.Fitness>
13.9790

> <Gold.Chemscore.DG>
-18.5642

> <Gold.Chemscore.ZeroCoef>
-5.4800

> <Gold.Chemscore.Hbond>
2.8070

> <Gold.Chemscore.Metal>
0.0000

> <Gold.Chemscore.Lipo>
89.1802

> <Gold.Chemscore.Internal_Hbond>
0.0000

> <Gold.Chemscore.DEClash>
2.8353

> <Gold.Chemscore.DEInternal>
1.7499

> <Gold.Chemscore.Rot>
2.6270

> <Gold.Chemscore.Internal.Correction>
   9.000000E+99

> <Gold.Chemscore.Hbonds>
donor molecule, donor type, donor heavy atom, donor atom, acceptor molecule, acceptor atom, score
      L1  H     9    31       P1  7948  0.97
      L1  H     9    47       P1  7957  0.20
      P1  H  7997  8009       L1    17  0.91
      P1  H  8011  8017       L1    12  0.58

> <Gold.Chemscore.Hbond.Weighted>
-9.3753

> <Gold.Chemscore.Metal.Weighted>
-0.0000

> <Gold.Chemscore.Lipo.Weighted>
-10.4341

> <Gold.Chemscore.Internal_Hbond.Weighted>
0.0000

> <Gold.Chemscore.DEClash.Weighted>
2.8353

> <Gold.Chemscore.DEInternal.Weighted>
1.7499

> <Gold.Chemscore.Rot.Weighted>
6.7251

> <Gold.Chemscore.Internal.Correction.Weighted>
   9.000000E+99

> <Gold.Protein.RotatedTorsions>
[ 6907 6896 6895 6894 ] final  -27.58 input  -60.11 | X-H torsion
[ 7974 7965 7964 7962 ] final   41.46 input  175.53 | X-H torsion
[ 8008 7997 7996 7995 ] final  163.52 input   59.86 | X-H torsion
[ 10167 10162 10161 10158 ] final -117.92 input  -65.29 | X-H torsion
[ 10718 10713 10712 10709 ] final   15.59 input   66.30 | X-H torsion
[ 10763 10752 10751 10750 ] final   66.54 input  -60.55 | X-H torsion
[ 11005 11000 10999 10996 ] final  102.93 input  -57.11 | X-H torsion

> <Gold.Protein.ActiveResidues>
 VAL166  LYS551  ARG553  GLY616  TRP617  ASP618  TYR619  PRO620  LYS621  CYS622 
 ASP623  PHE694  ASN695  SER759  ASP760  ASP761  ALA762  ILE779  LEU786  VAL792 
 PHE793  MET794  SER795  GLU796  ALA797  LYS798  CYS799  TRP800  GLU811  SER814 

> <Gold.Protein.RotatedAtoms>
  151.1449  135.0198  159.8641 H   0  0  0  0  0  0  0  0  0  0  0  0  # atno 6907 bound_to 6896
  152.5453  134.1456  159.8507 H   0  0  0  0  0  0  0  0  0  0  0  0  # atno 6908 bound_to 6896
  151.1535  133.4846  159.2627 H   0  0  0  0  0  0  0  0  0  0  0  0  # atno 6909 bound_to 6896
  146.0822  139.5414  142.9530 H   0  0  0  0  0  0  0  0  0  0  0  0  # atno 7974 bound_to 7965
  156.1950  140.1721  156.8016 H   0  0  0  0  0  0  0  0  0  0  0  0  # atno 8008 bound_to 7997
  154.5519  140.0716  156.8712 H   0  0  0  0  0  0  0  0  0  0  0  0  # atno 8009 bound_to 7997
  155.3013  140.3361  155.4250 H   0  0  0  0  0  0  0  0  0  0  0  0  # atno 8010 bound_to 7997
  140.0631  143.4948  152.2021 H   0  0  0  0  0  0  0  0  0  0  0  0  # atno 10167 bound_to 10162
  157.0557  130.6288  149.5776 H   0  0  0  0  0  0  0  0  0  0  0  0  # atno 10718 bound_to 10713
  153.0144  135.5317  154.6839 H   0  0  0  0  0  0  0  0  0  0  0  0  # atno 10763 bound_to 10752
  154.5992  135.2866  155.0556 H   0  0  0  0  0  0  0  0  0  0  0  0  # atno 10764 bound_to 10752
  154.1620  135.6546  153.5040 H   0  0  0  0  0  0  0  0  0  0  0  0  # atno 10765 bound_to 10752
  139.8780  134.9243  156.5132 H   0  0  0  0  0  0  0  0  0  0  0  0  # atno 11005 bound_to 11000
  145.6197  141.0325  143.1921 LP  0  0  0  0  0  0  0  0  0  0  0  0  # atno 17320 bound_to 7965
  144.7301  139.7753  143.7350 LP  0  0  0  0  0  0  0  0  0  0  0  0  # atno 17321 bound_to 7965
  139.5881  144.7539  151.3468 LP  0  0  0  0  0  0  0  0  0  0  0  0  # atno 17342 bound_to 10162
  140.7162  143.7260  150.7660 LP  0  0  0  0  0  0  0  0  0  0  0  0  # atno 17343 bound_to 10162
  155.9994  130.5070  150.7605 LP  0  0  0  0  0  0  0  0  0  0  0  0  # atno 17370 bound_to 10713
  157.4995  131.0917  151.0331 LP  0  0  0  0  0  0  0  0  0  0  0  0  # atno 17371 bound_to 10713
  140.8505  133.8136  155.9163 LP  0  0  0  0  0  0  0  0  0  0  0  0  # atno 17394 bound_to 11000
  140.9149  134.2214  157.4963 LP  0  0  0  0  0  0  0  0  0  0  0  0  # atno 17395 bound_to 11000

$$$$
