AV-unprocessed.smi:1644|AV-procd|sdf|6592|dock10
  -GOLD-   22720 7293D 1   1.00000     0.00000
 Structure written by MMmdl.
 48 50  0  0  0  0  0  0  0  0  2 V2000
  147.1835  135.1868  162.3856 C   0  0  0  0  0  0  0  0  0  0  0  0
  147.1389  136.0813  161.1421 C   0  0  0  0  0  0  0  0  0  0  0  0
  148.2735  135.7590  160.1455 C   0  0  0  0  0  0  0  0  0  0  0  0
  148.4132  136.7166  158.9369 C   0  0  2  0  0  0  0  0  0  0  0  0
  147.4306  136.4358  157.9110 N   0  5  0  0  0  0  0  0  0  0  0  0
  148.0828  136.1945  156.7493 C   0  0  0  0  0  0  0  0  0  0  0  0
  147.5732  135.9087  155.6662 O   0  0  0  0  0  0  0  0  0  0  0  0
  149.4174  136.2901  156.9121 N   0  0  0  0  0  0  0  0  0  0  0  0
  150.4145  136.0481  155.8648 C   0  0  0  0  0  0  0  0  0  0  0  0
  150.9079  137.3675  155.2364 C   0  0  2  0  0  0  0  0  0  0  0  0
  151.7761  137.0617  154.1618 O   0  0  0  0  0  0  0  0  0  0  0  0
  151.6787  138.2306  156.2532 C   0  0  0  0  0  0  0  0  0  0  0  0
  151.2739  139.6244  156.2167 N   0  0  0  0  0  0  0  0  0  0  0  0
  150.5016  140.2257  155.2916 C   0  0  0  0  0  0  0  0  0  0  0  0
  150.2597  141.5240  155.4511 N   0  0  0  0  0  0  0  0  0  0  0  0
  150.9537  141.7949  156.6183 C   0  0  0  0  0  0  0  0  0  0  0  0
  151.1017  143.0009  157.3382 C   0  0  0  0  0  0  0  0  0  0  0  0
  151.8651  143.0462  158.5268 C   0  0  0  0  0  0  0  0  0  0  0  0
  151.9929  144.3627  159.2730 C   0  0  0  0  0  0  0  0  0  0  0  0
  152.4982  141.8727  159.0102 C   0  0  0  0  0  0  0  0  0  0  0  0
  153.3184  141.8952  160.2878 C   0  0  0  0  0  0  0  0  0  0  0  0
  152.3654  140.6614  158.2998 C   0  0  0  0  0  0  0  0  0  0  0  0
  151.5997  140.6283  157.1212 C   0  0  0  0  0  0  0  0  0  0  0  0
  149.7190  136.5798  158.1811 C   0  0  0  0  0  0  0  0  0  0  0  0
  150.8364  136.7046  158.6833 O   0  0  0  0  0  0  0  0  0  0  0  0
  146.3718  135.4336  163.0702 H   0  0  0  0  0  0  0  0  0  0  0  0
  148.1230  135.3097  162.9251 H   0  0  0  0  0  0  0  0  0  0  0  0
  147.0853  134.1345  162.1171 H   0  0  0  0  0  0  0  0  0  0  0  0
  146.1676  135.9638  160.6616 H   0  0  0  0  0  0  0  0  0  0  0  0
  147.2031  137.1239  161.4546 H   0  0  0  0  0  0  0  0  0  0  0  0
  149.2221  135.7369  160.6838 H   0  0  0  0  0  0  0  0  0  0  0  0
  148.1301  134.7455  159.7689 H   0  0  0  0  0  0  0  0  0  0  0  0
  148.3361  137.7454  159.2910 H   0  0  0  0  0  0  0  0  0  0  0  0
  151.2547  135.5191  156.3178 H   0  0  0  0  0  0  0  0  0  0  0  0
  150.0326  135.3681  155.1009 H   0  0  0  0  0  0  0  0  0  0  0  0
  150.0637  137.9421  154.8524 H   0  0  0  0  0  0  0  0  0  0  0  0
  151.2552  136.7442  153.4395 H   0  0  0  0  0  0  0  0  0  0  0  0
  151.5088  137.8603  157.2651 H   0  0  0  0  0  0  0  0  0  0  0  0
  152.7532  138.1681  156.0734 H   0  0  0  0  0  0  0  0  0  0  0  0
  150.0931  139.6787  154.4542 H   0  0  0  0  0  0  0  0  0  0  0  0
  150.6195  143.8943  156.9693 H   0  0  0  0  0  0  0  0  0  0  0  0
  153.0399  144.6544  159.3576 H   0  0  0  0  0  0  0  0  0  0  0  0
  151.5751  144.2744  160.2760 H   0  0  0  0  0  0  0  0  0  0  0  0
  151.4629  145.1653  158.7588 H   0  0  0  0  0  0  0  0  0  0  0  0
  153.7395  140.9136  160.5072 H   0  0  0  0  0  0  0  0  0  0  0  0
  152.6977  142.1894  161.1343 H   0  0  0  0  0  0  0  0  0  0  0  0
  154.1444  142.6013  160.2009 H   0  0  0  0  0  0  0  0  0  0  0  0
  152.8416  139.7594  158.6557 H   0  0  0  0  0  0  0  0  0  0  0  0
  1  2  1  0  0  0  0
  1 26  1  0  0  0  0
  1 27  1  0  0  0  0
  1 28  1  0  0  0  0
  2  3  1  0  0  0  0
  2 29  1  0  0  0  0
  2 30  1  0  0  0  0
  3  4  1  0  0  0  0
  3 31  1  0  0  0  0
  3 32  1  0  0  0  0
  4 24  1  0  0  0  0
  4  5  1  0  0  0  0
  4 33  1  0  0  0  0
  5  6  1  0  0  0  0
  6  7  2  0  0  0  0
  6  8  1  0  0  0  0
  8  9  1  0  0  0  0
  8 24  1  0  0  0  0
  9 10  1  0  0  0  0
  9 34  1  0  0  0  0
  9 35  1  0  0  0  0
 10 11  1  0  0  0  0
 10 12  1  0  0  0  0
 10 36  1  0  0  0  0
 11 37  1  0  0  0  0
 12 13  1  0  0  0  0
 12 38  1  0  0  0  0
 12 39  1  0  0  0  0
 13 23  1  0  0  0  0
 13 14  1  0  0  0  0
 14 15  2  0  0  0  0
 14 40  1  0  0  0  0
 15 16  1  0  0  0  0
 16 23  2  0  0  0  0
 16 17  1  0  0  0  0
 17 18  2  0  0  0  0
 17 41  1  0  0  0  0
 18 19  1  0  0  0  0
 18 20  1  0  0  0  0
 19 42  1  0  0  0  0
 19 43  1  0  0  0  0
 19 44  1  0  0  0  0
 20 21  1  0  0  0  0
 20 22  2  0  0  0  0
 21 45  1  0  0  0  0
 21 46  1  0  0  0  0
 21 47  1  0  0  0  0
 22 23  1  0  0  0  0
 22 48  1  0  0  0  0
 24 25  2  0  0  0  0
M  CHG  1   5  -1
M  END
> <s_m_source_file>
AV-unprocessed.smi

> <i_m_source_file_index>
1644

> <i_lp_mmshare_version>
43012

> <i_f3d_flags>
0

> <s_epik_input>
W0NIM11bQ0gyXVtDSDJdW0NAQEhdMVtOSF1DKD1PKU4oQzE9TylbQ0gyXVtDQEhdKFtPSF0pW0NIMl1uKFtjSF1uMiljKGMyMylbY0hdYyhbQ0gzXSljKFtjSF0zKVtDSDNd

> <s_epik_cmdline>
J2VwaWtfcHl0aG9uJywgJy1waCcsICc3LjAnLCAnLXRuJywgJzgnLCAnLW1hJywgJzIwMCcsICctbWV0YWxfYmluZGluZycsICctaW1hZScsICc8aW5maWxlLm1hZT4nLCAnLW9tYWUnLCAnPG91dGZpbGUubWFlPic=

> <r_lp_tautomer_probability>
1

> <r_epik_Ionization_Penalty>
5.95212

> <r_epik_Ionization_Penalty_Charging>
5.84419

> <r_epik_Ionization_Penalty_Neutral>
0.107924

> <r_epik_State_Penalty>
5.94088

> <r_epik_Charging_Adjusted_Penalty>
11.7851

> <i_epik_Tot_Q>
-1

> <i_epik_Tot_abs_Q>
1

> <r_epik_Metal_State_Penalty>
1.99095

> <b_epik_Metal_Only>
1

> <s_lp_Force_Field>
OPLS_2005

> <r_lp_Energy>
19.2974

> <b_lp_Chiralities_Consistent>
1

> <s_lp_Variant>
AV-unprocessed.smi:1644-9

> <Gold.Version>
5.8.1

> <Gold.Id.Protein>
6NUR|6NUR_protein|mol2

> <Gold.PLP.Fitness>
52.5772

> <Gold.PLP.PLP>
-46.7742

> <Gold.PLP.part.hbond>
-3.7184

> <Gold.PLP.part.metal>
0.0000

> <Gold.PLP.part.buried>
-4.7934

> <Gold.PLP.part.nonpolar>
-38.8406

> <Gold.PLP.part.repulsive>
0.1472

> <Gold.PLP.ligand.clash>
0.0000

> <Gold.PLP.ligand.torsion>
1.2410

> <Gold.PLP.Chemscore.Hbond>
2.7318

> <Gold.PLP.Chemscore.CHOScore>
0.0000

> <Gold.PLP.Chemscore.Metal>
0.0000

> <Gold.Chemscore.Hbonds>
donor molecule, donor type, donor heavy atom, donor atom, acceptor molecule, acceptor atom, score
      L1  H    11    37       P1  7949  0.82
      P1  H  6896  6907       L1    25  0.98
      P1  H 10752 10765       L1    11  0.95

> <Gold.PLP.Chemscore.Internal.Correction>
0.0895

> <Gold.Rescore>
     Score         DG    S(hbond)    S(metal)    S(lipo)     H(rot)  DE(clash)    DE(int)     intcor
     17.90     -19.19       2.16        0.00     113.60       2.65       0.06       1.23       ----

> <Gold.Chemscore.Fitness>
17.8957

> <Gold.Chemscore.DG>
-19.1891

> <Gold.Chemscore.ZeroCoef>
-5.4800

> <Gold.Chemscore.Hbond>
2.1553

> <Gold.Chemscore.Metal>
0.0000

> <Gold.Chemscore.Lipo>
113.5977

> <Gold.Chemscore.Internal_Hbond>
0.0000

> <Gold.Chemscore.DEClash>
0.0607

> <Gold.Chemscore.DEInternal>
1.2327

> <Gold.Chemscore.Rot>
2.6486

> <Gold.Chemscore.Internal.Correction>
   9.000000E+99

> <Gold.Chemscore.Hbonds>
donor molecule, donor type, donor heavy atom, donor atom, acceptor molecule, acceptor atom, score
      L1  H    11    37       P1  7949  0.46
      P1  H  6896  6907       L1    25  0.54
      P1  H 10752 10765       L1    11  0.21

> <Gold.Chemscore.Hbond.Weighted>
-7.1986

> <Gold.Chemscore.Metal.Weighted>
-0.0000

> <Gold.Chemscore.Lipo.Weighted>
-13.2909

> <Gold.Chemscore.Internal_Hbond.Weighted>
0.0000

> <Gold.Chemscore.DEClash.Weighted>
0.0607

> <Gold.Chemscore.DEInternal.Weighted>
1.2327

> <Gold.Chemscore.Rot.Weighted>
6.7804

> <Gold.Chemscore.Internal.Correction.Weighted>
   9.000000E+99

> <Gold.Protein.RotatedTorsions>
[ 6907 6896 6895 6894 ] final  -26.23 input  -60.11 | X-H torsion
[ 7974 7965 7964 7962 ] final   86.28 input  175.53 | X-H torsion
[ 8008 7997 7996 7995 ] final  144.47 input   59.86 | X-H torsion
[ 10167 10162 10161 10158 ] final -128.01 input  -65.29 | X-H torsion
[ 10718 10713 10712 10709 ] final  -73.48 input   66.30 | X-H torsion
[ 10763 10752 10751 10750 ] final  162.50 input  -60.55 | X-H torsion
[ 11005 11000 10999 10996 ] final   -8.77 input  -57.11 | X-H torsion

> <Gold.Protein.ActiveResidues>
 VAL166  LYS551  ARG553  GLY616  TRP617  ASP618  TYR619  PRO620  LYS621  CYS622 
 ASP623  PHE694  ASN695  SER759  ASP760  ASP761  ALA762  ILE779  LEU786  VAL792 
 PHE793  MET794  SER795  GLU796  ALA797  LYS798  CYS799  TRP800  GLU811  SER814 

> <Gold.Protein.RotatedAtoms>
  151.1639  135.0286  159.8722 H   0  0  0  0  0  0  0  0  0  0  0  0  # atno 6907 bound_to 6896
  152.5451  134.1247  159.8424 H   0  0  0  0  0  0  0  0  0  0  0  0  # atno 6908 bound_to 6896
  151.1346  133.4967  159.2631 H   0  0  0  0  0  0  0  0  0  0  0  0  # atno 6909 bound_to 6896
  145.5744  139.2317  143.2388 H   0  0  0  0  0  0  0  0  0  0  0  0  # atno 7974 bound_to 7965
  156.2907  140.2235  156.5058 H   0  0  0  0  0  0  0  0  0  0  0  0  # atno 8008 bound_to 7997
  154.7651  140.0470  157.1027 H   0  0  0  0  0  0  0  0  0  0  0  0  # atno 8009 bound_to 7997
  154.9943  140.3094  155.4896 H   0  0  0  0  0  0  0  0  0  0  0  0  # atno 8010 bound_to 7997
  139.9548  143.6015  152.2464 H   0  0  0  0  0  0  0  0  0  0  0  0  # atno 10167 bound_to 10162
  156.0279  130.4395  150.2748 H   0  0  0  0  0  0  0  0  0  0  0  0  # atno 10718 bound_to 10713
  154.2793  135.2763  155.2704 H   0  0  0  0  0  0  0  0  0  0  0  0  # atno 10763 bound_to 10752
  154.5232  135.5750  153.6701 H   0  0  0  0  0  0  0  0  0  0  0  0  # atno 10764 bound_to 10752
  152.9932  135.6209  154.2952 H   0  0  0  0  0  0  0  0  0  0  0  0  # atno 10765 bound_to 10752
  140.7270  133.8781  155.8864 H   0  0  0  0  0  0  0  0  0  0  0  0  # atno 11005 bound_to 11000
  146.1761  140.6570  142.9210 LP  0  0  0  0  0  0  0  0  0  0  0  0  # atno 17320 bound_to 7965
  144.7423  140.4974  143.6860 LP  0  0  0  0  0  0  0  0  0  0  0  0  # atno 17321 bound_to 7965
  139.6600  144.7662  151.1982 LP  0  0  0  0  0  0  0  0  0  0  0  0  # atno 17342 bound_to 10162
  140.7571  143.6026  150.8685 LP  0  0  0  0  0  0  0  0  0  0  0  0  # atno 17343 bound_to 10162
  157.0851  131.0154  151.3142 LP  0  0  0  0  0  0  0  0  0  0  0  0  # atno 17370 bound_to 10713
  157.4897  130.7814  149.7495 LP  0  0  0  0  0  0  0  0  0  0  0  0  # atno 17371 bound_to 10713
  140.9954  134.1222  157.4369 LP  0  0  0  0  0  0  0  0  0  0  0  0  # atno 17394 bound_to 11000
  139.8835  135.0053  156.6303 LP  0  0  0  0  0  0  0  0  0  0  0  0  # atno 17395 bound_to 11000

$$$$
