AV-unprocessed.smi:2698|AV-procd|sdf|10421|dock3
  -GOLD-   2272014463D 1   1.00000     0.00000
 Structure written by MMmdl.
 33 33  0  0  0  0  0  0  0  0  2 V2000
  151.8425  145.5998  159.8089 C   0  0  0  0  0  0  0  0  0  0  0  0
  151.6574  144.1156  159.4396 C   0  0  0  0  0  0  0  0  0  0  0  0
  152.8064  143.2816  160.0283 C   0  0  0  0  0  0  0  0  0  0  0  0
  151.5382  143.8769  157.9142 C   0  0  0  0  0  0  0  0  0  0  0  0
  151.0505  142.4769  157.5132 C   0  0  0  0  0  0  0  0  0  0  0  0
  150.8557  141.6068  158.3617 O   0  0  0  0  0  0  0  0  0  0  0  0
  150.8521  142.2775  156.2008 N   0  0  0  0  0  0  0  0  0  0  0  0
  150.3721  141.0443  155.5825 C   0  0  2  0  0  0  0  0  0  0  0  0
  148.9308  140.7268  156.0368 C   0  0  0  0  0  0  0  0  0  0  0  0
  147.8516  141.2976  155.1497 C   0  0  0  0  0  0  0  0  0  0  0  0
  147.5977  141.0298  153.8196 C   0  0  0  0  0  0  0  0  0  0  0  0
  146.5151  141.8145  153.4655 N   0  0  0  0  0  0  0  0  0  0  0  0
  146.1621  142.5046  154.5508 C   0  0  0  0  0  0  0  0  0  0  0  0
  146.9230  142.2410  155.6049 N   0  0  0  0  0  0  0  0  0  0  0  0
  151.3819  139.9166  155.8286 C   0  0  0  0  0  0  0  0  0  0  0  0
  151.1740  138.8271  155.2496 O   0  0  0  0  0  0  0  0  0  0  0  0
  152.3458  140.1613  156.5867 O   0  5  0  0  0  0  0  0  0  0  0  0
  146.0798  141.8622  152.5556 H   0  0  0  0  0  0  0  0  0  0  0  0
  152.7342  146.0152  159.3386 H   0  0  0  0  0  0  0  0  0  0  0  0
  151.9515  145.7220  160.8870 H   0  0  0  0  0  0  0  0  0  0  0  0
  150.9936  146.2112  159.5066 H   0  0  0  0  0  0  0  0  0  0  0  0
  150.7378  143.7678  159.9131 H   0  0  0  0  0  0  0  0  0  0  0  0
  153.7655  143.5698  159.5964 H   0  0  0  0  0  0  0  0  0  0  0  0
  152.6613  142.2179  159.8371 H   0  0  0  0  0  0  0  0  0  0  0  0
  152.8748  143.4118  161.1086 H   0  0  0  0  0  0  0  0  0  0  0  0
  150.8777  144.6199  157.4664 H   0  0  0  0  0  0  0  0  0  0  0  0
  152.5155  144.0314  157.4538 H   0  0  0  0  0  0  0  0  0  0  0  0
  151.0292  143.0474  155.5717 H   0  0  0  0  0  0  0  0  0  0  0  0
  150.3451  141.2022  154.5021 H   0  0  0  0  0  0  0  0  0  0  0  0
  148.7938  139.6456  156.0835 H   0  0  0  0  0  0  0  0  0  0  0  0
  148.7633  141.0969  157.0488 H   0  0  0  0  0  0  0  0  0  0  0  0
  148.0917  140.3721  153.1194 H   0  0  0  0  0  0  0  0  0  0  0  0
  145.3418  143.2068  154.5701 H   0  0  0  0  0  0  0  0  0  0  0  0
  1  2  1  0  0  0  0
  1 19  1  0  0  0  0
  1 20  1  0  0  0  0
  1 21  1  0  0  0  0
  2  3  1  0  0  0  0
  2  4  1  0  0  0  0
  2 22  1  0  0  0  0
  3 23  1  0  0  0  0
  3 24  1  0  0  0  0
  3 25  1  0  0  0  0
  4  5  1  0  0  0  0
  4 26  1  0  0  0  0
  4 27  1  0  0  0  0
  5  6  2  0  0  0  0
  5  7  1  0  0  0  0
  7  8  1  0  0  0  0
  7 28  1  0  0  0  0
  8  9  1  0  0  0  0
  8 15  1  0  0  0  0
  8 29  1  0  0  0  0
  9 10  1  0  0  0  0
  9 30  1  0  0  0  0
  9 31  1  0  0  0  0
 10 14  1  0  0  0  0
 10 11  2  0  0  0  0
 11 12  1  0  0  0  0
 11 32  1  0  0  0  0
 12 18  1  0  0  0  0
 12 13  1  0  0  0  0
 13 14  2  0  0  0  0
 13 33  1  0  0  0  0
 15 16  2  0  0  0  0
 15 17  1  0  0  0  0
M  CHG  1  17  -1
M  END
> <s_m_source_file>
AV-unprocessed.smi

> <i_m_source_file_index>
2698

> <i_lp_mmshare_version>
43012

> <i_f3d_flags>
0

> <s_epik_input>
W0NIM11bQ0hdKFtDSDNdKVtDSDJdQyg9TylbTkhdW0NAQEhdKEMoPU8pW09IXSlbQ0gyXWMxW2NIXVtuSF1bY0hdbjE=

> <s_epik_cmdline>
J2VwaWtfcHl0aG9uJywgJy1waCcsICc3LjAnLCAnLXRuJywgJzgnLCAnLW1hJywgJzIwMCcsICctbWV0YWxfYmluZGluZycsICctaW1hZScsICc8aW5maWxlLm1hZT4nLCAnLW9tYWUnLCAnPG91dGZpbGUubWFlPic=

> <r_lp_tautomer_probability>
0.5

> <r_epik_Ionization_Penalty>
0.818672

> <r_epik_Ionization_Penalty_Charging>
0.818672

> <r_epik_Ionization_Penalty_Neutral>
7.99661e-08

> <r_epik_State_Penalty>
0.927032

> <r_epik_Charging_Adjusted_Penalty>
1.7457

> <i_epik_Tot_Q>
-1

> <i_epik_Tot_abs_Q>
1

> <r_epik_Metal_State_Penalty>
0.525537

> <b_epik_Metal_Only>
0

> <s_lp_Force_Field>
OPLS_2005

> <r_lp_Energy>
1.77679

> <b_lp_Chiralities_Consistent>
1

> <s_lp_Variant>
AV-unprocessed.smi:2698-5

> <Gold.Version>
5.8.1

> <Gold.Id.Protein>
6NUR|6NUR_protein|mol2

> <Gold.PLP.Fitness>
43.3188

> <Gold.PLP.PLP>
-35.3680

> <Gold.PLP.part.hbond>
-1.7174

> <Gold.PLP.part.metal>
0.0000

> <Gold.PLP.part.buried>
-3.4590

> <Gold.PLP.part.nonpolar>
-30.6837

> <Gold.PLP.part.repulsive>
0.6535

> <Gold.PLP.ligand.clash>
0.0000

> <Gold.PLP.ligand.torsion>
0.5846

> <Gold.PLP.Chemscore.Hbond>
2.0000

> <Gold.PLP.Chemscore.CHOScore>
1.0000

> <Gold.PLP.Chemscore.Metal>
0.0000

> <Gold.Chemscore.Hbonds>
donor molecule, donor type, donor heavy atom, donor atom, acceptor molecule, acceptor atom, score
      P1  H  7997  8010       L1    17  2.00
      L1  C    11    32       P1  7957  1.00

> <Gold.PLP.Chemscore.Internal.Correction>
0.1199

> <Gold.Rescore>
     Score         DG    S(hbond)    S(metal)    S(lipo)     H(rot)  DE(clash)    DE(int)     intcor
      6.42      -9.49       0.99        0.00      71.90       3.01       0.01       3.07       ----

> <Gold.Chemscore.Fitness>
6.4163

> <Gold.Chemscore.DG>
-9.4922

> <Gold.Chemscore.ZeroCoef>
-5.4800

> <Gold.Chemscore.Hbond>
0.9930

> <Gold.Chemscore.Metal>
0.0000

> <Gold.Chemscore.Lipo>
71.9040

> <Gold.Chemscore.Internal_Hbond>
0.0000

> <Gold.Chemscore.DEClash>
0.0089

> <Gold.Chemscore.DEInternal>
3.0670

> <Gold.Chemscore.Rot>
3.0145

> <Gold.Chemscore.Internal.Correction>
   9.000000E+99

> <Gold.Chemscore.Hbonds>
donor molecule, donor type, donor heavy atom, donor atom, acceptor molecule, acceptor atom, score
      P1  H  7997  8010       L1    17  0.94

> <Gold.Chemscore.Hbond.Weighted>
-3.3165

> <Gold.Chemscore.Metal.Weighted>
-0.0000

> <Gold.Chemscore.Lipo.Weighted>
-8.4128

> <Gold.Chemscore.Internal_Hbond.Weighted>
0.0000

> <Gold.Chemscore.DEClash.Weighted>
0.0089

> <Gold.Chemscore.DEInternal.Weighted>
3.0670

> <Gold.Chemscore.Rot.Weighted>
7.7171

> <Gold.Chemscore.Internal.Correction.Weighted>
   9.000000E+99

> <Gold.Protein.RotatedTorsions>
[ 6907 6896 6895 6894 ] final  145.57 input  -60.11 | X-H torsion
[ 7974 7965 7964 7962 ] final  -51.88 input  175.53 | X-H torsion
[ 8008 7997 7996 7995 ] final   76.39 input   59.86 | X-H torsion
[ 10167 10162 10161 10158 ] final -125.67 input  -65.29 | X-H torsion
[ 10718 10713 10712 10709 ] final  -62.04 input   66.30 | X-H torsion
[ 10763 10752 10751 10750 ] final  -61.18 input  -60.55 | X-H torsion
[ 11005 11000 10999 10996 ] final   46.88 input  -57.11 | X-H torsion

> <Gold.Protein.ActiveResidues>
 VAL166  LYS551  ARG553  GLY616  TRP617  ASP618  TYR619  PRO620  LYS621  CYS622 
 ASP623  PHE694  ASN695  SER759  ASP760  ASP761  ALA762  ILE779  LEU786  VAL792 
 PHE793  MET794  SER795  GLU796  ALA797  LYS798  CYS799  TRP800  GLU811  SER814 

> <Gold.Protein.RotatedAtoms>
  152.1791  133.4695  159.4948 H   0  0  0  0  0  0  0  0  0  0  0  0  # atno 6907 bound_to 6896
  150.6931  134.1856  159.4274 H   0  0  0  0  0  0  0  0  0  0  0  0  # atno 6908 bound_to 6896
  151.9766  135.0049  160.0606 H   0  0  0  0  0  0  0  0  0  0  0  0  # atno 6909 bound_to 6896
  145.9141  140.7890  142.9680 H   0  0  0  0  0  0  0  0  0  0  0  0  # atno 7974 bound_to 7965
  155.8266  140.3468  155.5547 H   0  0  0  0  0  0  0  0  0  0  0  0  # atno 8008 bound_to 7997
  155.8286  140.0923  157.1826 H   0  0  0  0  0  0  0  0  0  0  0  0  # atno 8009 bound_to 7997
  154.4004  140.1416  156.3573 H   0  0  0  0  0  0  0  0  0  0  0  0  # atno 8010 bound_to 7997
  139.9796  143.5757  152.2383 H   0  0  0  0  0  0  0  0  0  0  0  0  # atno 10167 bound_to 10162
  156.0881  130.4205  150.1079 H   0  0  0  0  0  0  0  0  0  0  0  0  # atno 10718 bound_to 10713
  154.2806  135.6272  153.5345 H   0  0  0  0  0  0  0  0  0  0  0  0  # atno 10763 bound_to 10752
  152.9866  135.5632  154.5500 H   0  0  0  0  0  0  0  0  0  0  0  0  # atno 10764 bound_to 10752
  154.5089  135.2876  155.1334 H   0  0  0  0  0  0  0  0  0  0  0  0  # atno 10765 bound_to 10752
  140.1329  134.4682  155.8508 H   0  0  0  0  0  0  0  0  0  0  0  0  # atno 11005 bound_to 11000
  144.6746  140.1872  143.7400 LP  0  0  0  0  0  0  0  0  0  0  0  0  # atno 17320 bound_to 7965
  145.8634  139.2234  143.1703 LP  0  0  0  0  0  0  0  0  0  0  0  0  # atno 17321 bound_to 7965
  139.6420  144.7655  151.2321 LP  0  0  0  0  0  0  0  0  0  0  0  0  # atno 17342 bound_to 10162
  140.7494  143.6302  150.8430 LP  0  0  0  0  0  0  0  0  0  0  0  0  # atno 17343 bound_to 10162
  156.9095  130.9647  151.3565 LP  0  0  0  0  0  0  0  0  0  0  0  0  # atno 17370 bound_to 10713
  157.6022  130.8521  149.8820 LP  0  0  0  0  0  0  0  0  0  0  0  0  # atno 17371 bound_to 10713
  141.2173  133.6803  156.7103 LP  0  0  0  0  0  0  0  0  0  0  0  0  # atno 17394 bound_to 11000
  140.2819  134.8310  157.3941 LP  0  0  0  0  0  0  0  0  0  0  0  0  # atno 17395 bound_to 11000

$$$$
