AV-unprocessed.smi:21|AV-procd|sdf|123|dock4
  -GOLD-   2262015303D 1   1.00000     0.00000
 Structure written by MMmdl.
 62 65  0  0  0  0  0  0  0  0  2 V2000
  146.1776  132.3598  150.5111 C   0  0  0  0  0  0  0  0  0  0  0  0
  145.6453  133.6380  150.1995 O   0  0  0  0  0  0  0  0  0  0  0  0
  144.7944  134.1612  151.2103 C   0  0  1  0  0  0  0  0  0  0  0  0
  145.6413  134.5872  152.4146 C   0  0  0  0  0  0  0  0  0  0  0  0
  145.7163  136.1122  152.3144 C   0  0  2  0  0  0  0  0  0  0  0  0
  146.0755  136.8415  153.6305 C   0  0  0  0  0  0  0  0  0  0  0  0
  146.8906  138.0344  153.4145 N   0  0  0  0  0  0  0  0  0  0  0  0
  146.5410  138.9206  152.3050 C   0  0  0  0  0  0  0  0  0  0  0  0
  147.8605  138.4198  154.2974 C   0  0  0  0  0  0  0  0  0  0  0  0
  148.4336  137.4554  155.0681 N   0  0  0  0  0  0  0  0  0  0  0  0
  149.3840  137.7533  155.9564 C   0  0  0  0  0  0  0  0  0  0  0  0
  149.9134  138.9421  156.2387 N   0  0  0  0  0  0  0  0  0  0  0  0
  149.3558  139.9229  155.4755 C   0  0  0  0  0  0  0  0  0  0  0  0
  148.3350  139.7574  154.4916 C   0  0  0  0  0  0  0  0  0  0  0  0
  148.0417  140.9989  153.9311 N   0  0  0  0  0  0  0  0  0  0  0  0
  148.8326  141.8364  154.5421 C   0  0  0  0  0  0  0  0  0  0  0  0
  149.6606  141.2729  155.4820 N   0  0  0  0  0  0  0  0  0  0  0  0
  150.6377  141.9695  156.3015 C   0  0  0  0  0  0  0  0  0  0  0  0
  150.4373  141.7353  157.8196 C   0  0  2  0  0  0  0  0  0  0  0  0
  148.9449  141.6082  158.2125 C   0  0  0  0  0  0  0  0  0  0  0  0
  148.1494  142.5583  157.5342 O   0  0  0  0  0  0  0  0  0  0  0  0
  151.1762  142.8031  158.6657 C   0  0  2  0  0  0  0  0  0  0  0  0
  151.1747  144.2015  158.0731 C   0  0  0  0  0  0  0  0  0  0  0  0
  152.3143  144.8727  158.8319 C   0  0  0  0  0  0  0  0  0  0  0  0
  153.2611  143.8431  159.0921 O   0  0  0  0  0  0  0  0  0  0  0  0
  152.6831  142.5704  158.8200 C   0  0  0  0  0  0  0  0  0  0  0  0
  144.4189  136.5094  151.7169 N   0  3  2  0  0  0  0  0  0  0  0  0
  143.3131  136.7427  152.6782 C   0  0  0  0  0  0  0  0  0  0  0  0
  144.0973  135.4519  150.7334 C   0  0  0  0  0  0  0  0  0  0  0  0
  144.0707  133.4086  151.5287 H   0  0  0  0  0  0  0  0  0  0  0  0
  146.4698  136.3515  151.5626 H   0  0  0  0  0  0  0  0  0  0  0  0
  146.8190  132.0240  149.6963 H   0  0  0  0  0  0  0  0  0  0  0  0
  145.3911  131.6165  150.6443 H   0  0  0  0  0  0  0  0  0  0  0  0
  146.7813  132.3952  151.4189 H   0  0  0  0  0  0  0  0  0  0  0  0
  145.1309  134.3013  153.3353 H   0  0  0  0  0  0  0  0  0  0  0  0
  146.6259  134.1185  152.4281 H   0  0  0  0  0  0  0  0  0  0  0  0
  145.1813  137.1043  154.1931 H   0  0  0  0  0  0  0  0  0  0  0  0
  146.6271  136.1669  154.2860 H   0  0  0  0  0  0  0  0  0  0  0  0
  147.3895  139.0480  151.6317 H   0  0  0  0  0  0  0  0  0  0  0  0
  146.2395  139.9018  152.6741 H   0  0  0  0  0  0  0  0  0  0  0  0
  145.7141  138.5183  151.7196 H   0  0  0  0  0  0  0  0  0  0  0  0
  149.7759  136.9205  156.5216 H   0  0  0  0  0  0  0  0  0  0  0  0
  148.8379  142.8939  154.3205 H   0  0  0  0  0  0  0  0  0  0  0  0
  151.6258  141.6319  155.9886 H   0  0  0  0  0  0  0  0  0  0  0  0
  150.5924  143.0348  156.0726 H   0  0  0  0  0  0  0  0  0  0  0  0
  150.8953  140.7726  158.0510 H   0  0  0  0  0  0  0  0  0  0  0  0
  148.5636  140.6112  157.9927 H   0  0  0  0  0  0  0  0  0  0  0  0
  148.8131  141.7473  159.2852 H   0  0  0  0  0  0  0  0  0  0  0  0
  148.7192  143.1644  157.0858 H   0  0  0  0  0  0  0  0  0  0  0  0
  150.7301  142.8545  159.6604 H   0  0  0  0  0  0  0  0  0  0  0  0
  151.4048  144.1661  157.0073 H   0  0  0  0  0  0  0  0  0  0  0  0
  150.2266  144.7248  158.2014 H   0  0  0  0  0  0  0  0  0  0  0  0
  152.7617  145.6950  158.2732 H   0  0  0  0  0  0  0  0  0  0  0  0
  151.9571  145.2641  159.7851 H   0  0  0  0  0  0  0  0  0  0  0  0
  152.9155  141.8587  159.6128 H   0  0  0  0  0  0  0  0  0  0  0  0
  153.1142  142.1935  157.8916 H   0  0  0  0  0  0  0  0  0  0  0  0
  143.1307  135.8631  153.2969 H   0  0  0  0  0  0  0  0  0  0  0  0
  142.3911  136.9782  152.1452 H   0  0  0  0  0  0  0  0  0  0  0  0
  143.5259  137.5883  153.3321 H   0  0  0  0  0  0  0  0  0  0  0  0
  144.5071  135.7678  149.7732 H   0  0  0  0  0  0  0  0  0  0  0  0
  143.0244  135.3146  150.5915 H   0  0  0  0  0  0  0  0  0  0  0  0
  144.5527  137.3780  151.2186 H   0  0  0  0  0  0  0  0  0  0  0  0
  1  2  1  0  0  0  0
  1 32  1  0  0  0  0
  1 33  1  0  0  0  0
  1 34  1  0  0  0  0
  2  3  1  0  0  0  0
  3 30  1  0  0  0  0
  3 29  1  0  0  0  0
  3  4  1  0  0  0  0
  4  5  1  0  0  0  0
  4 35  1  0  0  0  0
  4 36  1  0  0  0  0
  5 31  1  0  0  0  0
  5  6  1  0  0  0  0
  5 27  1  0  0  0  0
  6  7  1  0  0  0  0
  6 37  1  0  0  0  0
  6 38  1  0  0  0  0
  7  8  1  0  0  0  0
  7  9  1  0  0  0  0
  8 39  1  0  0  0  0
  8 40  1  0  0  0  0
  8 41  1  0  0  0  0
  9 14  1  0  0  0  0
  9 10  2  0  0  0  0
 10 11  1  0  0  0  0
 11 12  2  0  0  0  0
 11 42  1  0  0  0  0
 12 13  1  0  0  0  0
 13 17  1  0  0  0  0
 13 14  2  0  0  0  0
 14 15  1  0  0  0  0
 15 16  2  0  0  0  0
 16 17  1  0  0  0  0
 16 43  1  0  0  0  0
 17 18  1  0  0  0  0
 18 19  1  0  0  0  0
 18 44  1  0  0  0  0
 18 45  1  0  0  0  0
 19 20  1  0  0  0  0
 19 22  1  0  0  0  0
 19 46  1  0  0  0  0
 20 21  1  0  0  0  0
 20 47  1  0  0  0  0
 20 48  1  0  0  0  0
 21 49  1  0  0  0  0
 22 26  1  0  0  0  0
 22 23  1  0  0  0  0
 22 50  1  0  0  0  0
 23 24  1  0  0  0  0
 23 51  1  0  0  0  0
 23 52  1  0  0  0  0
 24 25  1  0  0  0  0
 24 53  1  0  0  0  0
 24 54  1  0  0  0  0
 25 26  1  0  0  0  0
 26 55  1  0  0  0  0
 26 56  1  0  0  0  0
 27 28  1  0  0  0  0
 27 29  1  0  0  0  0
 27 62  1  0  0  0  0
 28 57  1  0  0  0  0
 28 58  1  0  0  0  0
 28 59  1  0  0  0  0
 29 60  1  0  0  0  0
 29 61  1  0  0  0  0
M  CHG  1  27   1
M  END
> <s_m_source_file>
AV-unprocessed.smi

> <i_m_source_file_index>
21

> <i_lp_mmshare_version>
43012

> <i_f3d_flags>
0

> <s_epik_input>
W0NIM11PW0NASF0xW0NIMl1bQ0BIXShOKFtDSDNdKVtDSDJdMSlbQ0gyXU4oW0NIM10pYyhuW2NIXW4yKWMoYzIzKW5bY0hdbjNbQ0gyXVtDQEhdKFtDSDJdW09IXSlbQ0BASF00W0NIMl1bQ0gyXU9bQ0gyXTQ=

> <s_epik_cmdline>
J2VwaWtfcHl0aG9uJywgJy1waCcsICc3LjAnLCAnLXRuJywgJzgnLCAnLW1hJywgJzIwMCcsICctbWV0YWxfYmluZGluZycsICctaW1hZScsICc8aW5maWxlLm1hZT4nLCAnLW9tYWUnLCAnPG91dGZpbGUubWFlPic=

> <r_lp_tautomer_probability>
1

> <r_epik_Ionization_Penalty>
0.0157465

> <r_epik_Ionization_Penalty_Charging>
0.015354

> <r_epik_Ionization_Penalty_Neutral>
0.000392529

> <r_epik_State_Penalty>
0.0120612

> <r_epik_Charging_Adjusted_Penalty>
0.0274152

> <i_epik_Tot_Q>
1

> <i_epik_Tot_abs_Q>
1

> <r_epik_Metal_State_Penalty>
0.0121253

> <b_epik_Metal_Only>
0

> <s_lp_Force_Field>
OPLS_2005

> <r_lp_Energy>
63.0646

> <b_lp_Chiralities_Consistent>
1

> <s_lp_Variant>
AV-unprocessed.smi:21-3

> <Gold.Version>
5.8.1

> <Gold.Id.Protein>
6NUR|6NUR_protein|mol2

> <Gold.PLP.Fitness>
49.8804

> <Gold.PLP.PLP>
-45.7528

> <Gold.PLP.part.hbond>
-2.2328

> <Gold.PLP.part.metal>
0.0000

> <Gold.PLP.part.buried>
-4.5086

> <Gold.PLP.part.nonpolar>
-40.5777

> <Gold.PLP.part.repulsive>
0.4057

> <Gold.PLP.ligand.clash>
0.0000

> <Gold.PLP.ligand.torsion>
2.0430

> <Gold.PLP.Chemscore.Hbond>
1.5680

> <Gold.PLP.Chemscore.CHOScore>
0.9488

> <Gold.PLP.Chemscore.Metal>
0.0000

> <Gold.Chemscore.Hbonds>
donor molecule, donor type, donor heavy atom, donor atom, acceptor molecule, acceptor atom, score
      L1  H    21    49       P1  8028  0.75
      L1  H    27    62       P1 10171  0.91
      L1  C    16    43       P1  8028  1.00

> <Gold.PLP.Chemscore.Internal.Correction>
0.6632

> <Gold.Rescore>
     Score         DG    S(hbond)    S(metal)    S(lipo)     H(rot)  DE(clash)    DE(int)     intcor
     10.65     -14.75       1.43        0.00     105.68       3.08       0.15       3.96       ----

> <Gold.Chemscore.Fitness>
10.6477

> <Gold.Chemscore.DG>
-14.7521

> <Gold.Chemscore.ZeroCoef>
-5.4800

> <Gold.Chemscore.Hbond>
1.4316

> <Gold.Chemscore.Metal>
0.0000

> <Gold.Chemscore.Lipo>
105.6808

> <Gold.Chemscore.Internal_Hbond>
0.0000

> <Gold.Chemscore.DEClash>
0.1465

> <Gold.Chemscore.DEInternal>
3.9578

> <Gold.Chemscore.Rot>
3.0758

> <Gold.Chemscore.Internal.Correction>
   9.000000E+99

> <Gold.Chemscore.Hbonds>
donor molecule, donor type, donor heavy atom, donor atom, acceptor molecule, acceptor atom, score
      L1  H    21    49       P1  8028  0.40
      L1  H    27    62       P1 10171  0.88

> <Gold.Chemscore.Hbond.Weighted>
-4.7816

> <Gold.Chemscore.Metal.Weighted>
-0.0000

> <Gold.Chemscore.Lipo.Weighted>
-12.3647

> <Gold.Chemscore.Internal_Hbond.Weighted>
0.0000

> <Gold.Chemscore.DEClash.Weighted>
0.1465

> <Gold.Chemscore.DEInternal.Weighted>
3.9578

> <Gold.Chemscore.Rot.Weighted>
7.8741

> <Gold.Chemscore.Internal.Correction.Weighted>
   9.000000E+99

> <Gold.Protein.RotatedTorsions>
[ 6907 6896 6895 6894 ] final -148.63 input  -60.11 | X-H torsion
[ 7974 7965 7964 7962 ] final  114.64 input  175.53 | X-H torsion
[ 8008 7997 7996 7995 ] final  -19.06 input   59.86 | X-H torsion
[ 10167 10162 10161 10158 ] final -109.92 input  -65.29 | X-H torsion
[ 10718 10713 10712 10709 ] final   13.59 input   66.30 | X-H torsion
[ 10763 10752 10751 10750 ] final   99.11 input  -60.55 | X-H torsion
[ 11005 11000 10999 10996 ] final  -29.74 input  -57.11 | X-H torsion

> <Gold.Protein.ActiveResidues>
 VAL166  LYS551  ARG553  GLY616  TRP617  ASP618  TYR619  PRO620  LYS621  CYS622 
 ASP623  PHE694  ASN695  SER759  ASP760  ASP761  ALA762  ILE779  LEU786  VAL792 
 PHE793  MET794  SER795  GLU796  ALA797  LYS798  CYS799  TRP800  GLU811  SER814 

> <Gold.Protein.RotatedAtoms>
  151.1726  133.4775  159.2593 H   0  0  0  0  0  0  0  0  0  0  0  0  # atno 6907 bound_to 6896
  151.1340  135.0145  159.8605 H   0  0  0  0  0  0  0  0  0  0  0  0  # atno 6908 bound_to 6896
  152.5461  134.1626  159.8617 H   0  0  0  0  0  0  0  0  0  0  0  0  # atno 6909 bound_to 6896
  145.2019  139.2948  143.4314 H   0  0  0  0  0  0  0  0  0  0  0  0  # atno 7974 bound_to 7965
  154.4863  140.2099  155.9649 H   0  0  0  0  0  0  0  0  0  0  0  0  # atno 8008 bound_to 7997
  156.1240  140.3208  155.8219 H   0  0  0  0  0  0  0  0  0  0  0  0  # atno 8009 bound_to 7997
  155.4416  140.0510  157.3000 H   0  0  0  0  0  0  0  0  0  0  0  0  # atno 8010 bound_to 7997
  140.1501  143.4206  152.1501 H   0  0  0  0  0  0  0  0  0  0  0  0  # atno 10167 bound_to 10162
  157.0269  130.6177  149.5729 H   0  0  0  0  0  0  0  0  0  0  0  0  # atno 10718 bound_to 10713
  153.2973  135.4125  155.1221 H   0  0  0  0  0  0  0  0  0  0  0  0  # atno 10763 bound_to 10752
  154.8539  135.3533  154.5899 H   0  0  0  0  0  0  0  0  0  0  0  0  # atno 10764 bound_to 10752
  153.6323  135.7060  153.5329 H   0  0  0  0  0  0  0  0  0  0  0  0  # atno 10765 bound_to 10752
  140.9323  133.7330  156.0954 H   0  0  0  0  0  0  0  0  0  0  0  0  # atno 11005 bound_to 11000
  146.3416  140.2266  142.8592 LP  0  0  0  0  0  0  0  0  0  0  0  0  # atno 17320 bound_to 7965
  144.9940  140.8572  143.5322 LP  0  0  0  0  0  0  0  0  0  0  0  0  # atno 17321 bound_to 7965
  139.5430  144.7273  151.4673 LP  0  0  0  0  0  0  0  0  0  0  0  0  # atno 17342 bound_to 10162
  140.6707  143.8299  150.6996 LP  0  0  0  0  0  0  0  0  0  0  0  0  # atno 17343 bound_to 10162
  156.0083  130.5172  150.7904 LP  0  0  0  0  0  0  0  0  0  0  0  0  # atno 17370 bound_to 10713
  157.5207  131.0931  151.0082 LP  0  0  0  0  0  0  0  0  0  0  0  0  # atno 17371 bound_to 10713
  140.7846  134.3686  157.5479 LP  0  0  0  0  0  0  0  0  0  0  0  0  # atno 17394 bound_to 11000
  139.8799  134.9103  156.3010 LP  0  0  0  0  0  0  0  0  0  0  0  0  # atno 17395 bound_to 11000

$$$$
