AV-unprocessed.smi:49|AV-procd|sdf|475|dock3
  -GOLD-   2262016343D 1   1.00000     0.00000
 Structure written by MMmdl.
 27 28  0  0  0  0  0  0  0  0  1 V2000
  153.0271  142.6686  160.8991 C   0  0  0  0  0  0  0  0  0  0  0  0
  153.2034  141.8894  159.5909 C   0  0  0  0  0  0  0  0  0  0  0  0
  152.0539  142.0842  158.6582 C   0  0  0  0  0  0  0  0  0  0  0  0
  151.2877  141.0472  158.2042 N   0  0  0  0  0  0  0  0  0  0  0  0
  150.4592  141.7017  157.3947 C   0  0  0  0  0  0  0  0  0  0  0  0
  149.3494  141.0892  156.5967 C   0  0  2  0  0  0  0  0  0  0  0  0
  149.7375  139.7171  156.0136 C   0  0  0  0  0  0  0  0  0  0  0  0
  149.8315  139.9623  154.5106 C   0  0  1  0  0  0  0  0  0  0  0  0
  149.5478  138.8101  153.7460 O   0  0  0  0  0  0  0  0  0  0  0  0
  148.8049  141.0666  154.2984 C   0  0  0  0  0  0  0  0  0  0  0  0
  148.9549  141.9302  155.4611 N   0  0  0  0  0  0  0  0  0  0  0  0
  150.7100  143.0123  157.3638 N   0  0  0  0  0  0  0  0  0  0  0  0
  151.7545  143.2883  158.1728 N   0  0  0  0  0  0  0  0  0  0  0  0
  148.4923  140.9541  157.2578 H   0  0  0  0  0  0  0  0  0  0  0  0
  150.8268  140.3310  154.2568 H   0  0  0  0  0  0  0  0  0  0  0  0
  150.2259  143.7179  156.8275 H   0  0  0  0  0  0  0  0  0  0  0  0
  153.8781  142.5124  161.5621 H   0  0  0  0  0  0  0  0  0  0  0  0
  152.1288  142.3508  161.4295 H   0  0  0  0  0  0  0  0  0  0  0  0
  152.9440  143.7393  160.7098 H   0  0  0  0  0  0  0  0  0  0  0  0
  154.1218  142.2045  159.0944 H   0  0  0  0  0  0  0  0  0  0  0  0
  153.3173  140.8260  159.8053 H   0  0  0  0  0  0  0  0  0  0  0  0
  150.6567  139.3050  156.4329 H   0  0  0  0  0  0  0  0  0  0  0  0
  148.9364  139.0064  156.2226 H   0  0  0  0  0  0  0  0  0  0  0  0
  149.6415  139.0270  152.8309 H   0  0  0  0  0  0  0  0  0  0  0  0
  148.9542  141.6085  153.3642 H   0  0  0  0  0  0  0  0  0  0  0  0
  147.7995  140.6430  154.2834 H   0  0  0  0  0  0  0  0  0  0  0  0
  148.0656  142.3796  155.6536 H   0  0  0  0  0  0  0  0  0  0  0  0
  1  2  1  0  0  0  0
  1 17  1  0  0  0  0
  1 18  1  0  0  0  0
  1 19  1  0  0  0  0
  2 20  1  0  0  0  0
  2 21  1  0  0  0  0
  2  3  1  0  0  0  0
  3  4  1  0  0  0  0
  3 13  2  0  0  0  0
  4  5  2  0  0  0  0
  5  6  1  0  0  0  0
  5 12  1  0  0  0  0
  6 14  1  0  0  0  0
  6 11  1  0  0  0  0
  6  7  1  0  0  0  0
  7  8  1  0  0  0  0
  7 22  1  0  0  0  0
  7 23  1  0  0  0  0
  8 15  1  0  0  0  0
  8  9  1  0  0  0  0
  8 10  1  0  0  0  0
  9 24  1  0  0  0  0
 10 11  1  0  0  0  0
 10 25  1  0  0  0  0
 10 26  1  0  0  0  0
 11 27  1  0  0  0  0
 12 13  1  0  0  0  0
 12 16  1  0  0  0  0
M  END
> <s_m_source_file>
AV-unprocessed.smi

> <i_m_source_file_index>
49

> <i_lp_mmshare_version>
43012

> <i_f3d_flags>
0

> <s_epik_input>
W0NIM11bQ0gyXWMxbmMobltuSF0xKVtDQEBIXTJbQ0gyXVtDQEBIXShbT0hdKVtDSDJdW05IXTI=

> <s_epik_cmdline>
J2VwaWtfcHl0aG9uJywgJy1waCcsICc3LjAnLCAnLXRuJywgJzgnLCAnLW1hJywgJzIwMCcsICctbWV0YWxfYmluZGluZycsICctaW1hZScsICc8aW5maWxlLm1hZT4nLCAnLW9tYWUnLCAnPG91dGZpbGUubWFlPic=

> <r_epik_Ionization_Penalty>
1.31544

> <r_epik_Ionization_Penalty_Charging>
0

> <r_epik_Ionization_Penalty_Neutral>
1.31544

> <r_epik_State_Penalty>
2.06074

> <r_epik_Charging_Adjusted_Penalty>
2.06074

> <i_epik_Tot_Q>
0

> <i_epik_Tot_abs_Q>
0

> <r_epik_Metal_State_Penalty>
2.32913

> <b_epik_Metal_Only>
0

> <s_lp_Force_Field>
OPLS_2005

> <r_lp_Energy>
18.0734

> <b_lp_Chiralities_Consistent>
1

> <s_lp_Variant>
AV-unprocessed.smi:49-13

> <Gold.Version>
5.8.1

> <Gold.Id.Protein>
6NUR|6NUR_protein|mol2

> <Gold.PLP.Fitness>
30.3251

> <Gold.PLP.PLP>
-25.2158

> <Gold.PLP.part.hbond>
-3.3055

> <Gold.PLP.part.metal>
0.0000

> <Gold.PLP.part.buried>
-2.8250

> <Gold.PLP.part.nonpolar>
-18.5757

> <Gold.PLP.part.repulsive>
0.0763

> <Gold.PLP.ligand.clash>
0.0000

> <Gold.PLP.ligand.torsion>
0.6172

> <Gold.PLP.Chemscore.Hbond>
2.1129

> <Gold.PLP.Chemscore.CHOScore>
0.0000

> <Gold.PLP.Chemscore.Metal>
0.0000

> <Gold.Chemscore.Hbonds>
donor molecule, donor type, donor heavy atom, donor atom, acceptor molecule, acceptor atom, score
      L1  H     9    24       P1  7957  1.00
      L1  H    12    16       P1  8028  1.00

> <Gold.PLP.Chemscore.Internal.Correction>
0.0050

> <Gold.Rescore>
     Score         DG    S(hbond)    S(metal)    S(lipo)     H(rot)  DE(clash)    DE(int)     intcor
     12.53     -13.24       2.14        0.00      45.95       1.86       0.00       0.71       ----

> <Gold.Chemscore.Fitness>
12.5298

> <Gold.Chemscore.DG>
-13.2430

> <Gold.Chemscore.ZeroCoef>
-5.4800

> <Gold.Chemscore.Hbond>
2.1370

> <Gold.Chemscore.Metal>
0.0000

> <Gold.Chemscore.Lipo>
45.9494

> <Gold.Chemscore.Internal_Hbond>
0.0000

> <Gold.Chemscore.DEClash>
0.0000

> <Gold.Chemscore.DEInternal>
0.7132

> <Gold.Chemscore.Rot>
1.8558

> <Gold.Chemscore.Internal.Correction>
   9.000000E+99

> <Gold.Chemscore.Hbonds>
donor molecule, donor type, donor heavy atom, donor atom, acceptor molecule, acceptor atom, score
      L1  H     9    24       P1  7957  0.95
      L1  H    12    16       P1  8028  0.93

> <Gold.Chemscore.Hbond.Weighted>
-7.1376

> <Gold.Chemscore.Metal.Weighted>
-0.0000

> <Gold.Chemscore.Lipo.Weighted>
-5.3761

> <Gold.Chemscore.Internal_Hbond.Weighted>
0.0000

> <Gold.Chemscore.DEClash.Weighted>
0.0000

> <Gold.Chemscore.DEInternal.Weighted>
0.7132

> <Gold.Chemscore.Rot.Weighted>
4.7507

> <Gold.Chemscore.Internal.Correction.Weighted>
   9.000000E+99

> <Gold.Protein.RotatedTorsions>
[ 6907 6896 6895 6894 ] final -138.67 input  -60.11 | X-H torsion
[ 7974 7965 7964 7962 ] final -120.64 input  175.53 | X-H torsion
[ 8008 7997 7996 7995 ] final  -22.98 input   59.86 | X-H torsion
[ 10167 10162 10161 10158 ] final -142.57 input  -65.29 | X-H torsion
[ 10718 10713 10712 10709 ] final   80.50 input   66.30 | X-H torsion
[ 10763 10752 10751 10750 ] final   21.30 input  -60.55 | X-H torsion
[ 11005 11000 10999 10996 ] final   75.38 input  -57.11 | X-H torsion

> <Gold.Protein.ActiveResidues>
 VAL166  LYS551  ARG553  GLY616  TRP617  ASP618  TYR619  PRO620  LYS621  CYS622 
 ASP623  PHE694  ASN695  SER759  ASP760  ASP761  ALA762  ILE779  LEU786  VAL792 
 PHE793  MET794  SER795  GLU796  ALA797  LYS798  CYS799  TRP800  GLU811  SER814 

> <Gold.Protein.RotatedAtoms>
  151.0380  133.5731  159.2653 H   0  0  0  0  0  0  0  0  0  0  0  0  # atno 6907 bound_to 6896
  151.2789  135.0707  159.9171 H   0  0  0  0  0  0  0  0  0  0  0  0  # atno 6908 bound_to 6896
  152.5358  134.0097  159.7987 H   0  0  0  0  0  0  0  0  0  0  0  0  # atno 6909 bound_to 6896
  145.0491  140.8204  143.4220 H   0  0  0  0  0  0  0  0  0  0  0  0  # atno 7974 bound_to 7965
  154.4612  140.1993  156.0240 H   0  0  0  0  0  0  0  0  0  0  0  0  # atno 8008 bound_to 7997
  156.0843  140.3267  155.7705 H   0  0  0  0  0  0  0  0  0  0  0  0  # atno 8009 bound_to 7997
  155.5060  140.0558  157.2922 H   0  0  0  0  0  0  0  0  0  0  0  0  # atno 8010 bound_to 7997
  139.8076  143.7747  152.2662 H   0  0  0  0  0  0  0  0  0  0  0  0  # atno 10167 bound_to 10162
  157.6808  130.9962  150.2089 H   0  0  0  0  0  0  0  0  0  0  0  0  # atno 10718 bound_to 10713
  153.1006  135.6671  153.9680 H   0  0  0  0  0  0  0  0  0  0  0  0  # atno 10763 bound_to 10752
  153.9251  135.3010  155.3448 H   0  0  0  0  0  0  0  0  0  0  0  0  # atno 10764 bound_to 10752
  154.7427  135.5072  153.9225 H   0  0  0  0  0  0  0  0  0  0  0  0  # atno 10765 bound_to 10752
  139.9346  134.7513  156.1264 H   0  0  0  0  0  0  0  0  0  0  0  0  # atno 11005 bound_to 11000
  145.1550  139.2492  143.5421 LP  0  0  0  0  0  0  0  0  0  0  0  0  # atno 17320 bound_to 7965
  146.3516  140.1262  142.8598 LP  0  0  0  0  0  0  0  0  0  0  0  0  # atno 17321 bound_to 7965
  139.7886  144.7419  150.9987 LP  0  0  0  0  0  0  0  0  0  0  0  0  # atno 17342 bound_to 10162
  140.7819  143.4466  151.0473 LP  0  0  0  0  0  0  0  0  0  0  0  0  # atno 17343 bound_to 10162
  156.2764  130.3728  149.7979 LP  0  0  0  0  0  0  0  0  0  0  0  0  # atno 17370 bound_to 10713
  156.5681  130.8413  151.3348 LP  0  0  0  0  0  0  0  0  0  0  0  0  # atno 17371 bound_to 10713
  141.0953  133.6698  156.2632 LP  0  0  0  0  0  0  0  0  0  0  0  0  # atno 17394 bound_to 11000
  140.6109  134.5459  157.5533 LP  0  0  0  0  0  0  0  0  0  0  0  0  # atno 17395 bound_to 11000

$$$$
