AV-unprocessed.smi:1662|AV-procd|sdf|6662|dock8
  -GOLD-   22720 7373D 1   1.00000     0.00000
 Structure written by MMmdl.
 47 48  0  0  0  0  0  0  0  0  1 V2000
  150.3932  134.1856  156.1250 C   0  0  0  0  0  0  0  0  0  0  0  0
  150.4874  135.6575  155.8258 C   0  0  0  0  0  0  0  0  0  0  0  0
  151.6102  136.2352  156.1020 N   0  0  0  0  0  0  0  0  0  0  0  0
  151.8009  137.5838  155.8714 N   0  0  0  0  0  0  0  0  0  0  0  0
  153.1267  138.0801  156.2679 C   0  0  0  0  0  0  0  0  0  0  0  0
  153.1051  138.8393  157.6019 C   0  0  0  0  0  0  0  0  0  0  0  0
  153.6687  138.3770  158.5948 O   0  0  0  0  0  0  0  0  0  0  0  0
  152.4606  140.0158  157.6000 N   0  0  0  0  0  0  0  0  0  0  0  0
  152.2859  140.8902  158.7581 C   0  0  1  0  0  0  0  0  0  0  0  0
  153.6082  140.9571  159.5452 C   0  0  0  0  0  0  0  0  0  0  0  0
  153.4921  141.8970  160.7485 C   0  0  0  0  0  0  0  0  0  0  0  0
  153.0588  143.2969  160.2998 C   0  0  0  0  0  0  0  0  0  0  0  0
  151.7248  143.2658  159.5270 C   0  0  1  0  0  0  0  0  0  0  0  0
  151.3247  144.6998  159.1334 C   0  0  0  0  0  0  0  0  0  0  0  0
  151.8033  142.2973  158.3123 C   0  0  2  0  0  0  0  0  0  0  0  0
  150.4587  142.2086  157.5566 C   0  0  0  0  0  0  0  0  0  0  0  0
  150.8667  138.4194  155.3321 C   0  0  0  0  0  0  0  0  0  0  0  0
  151.0849  139.6156  155.1315 O   0  0  0  0  0  0  0  0  0  0  0  0
  149.5969  137.7585  155.0233 C   0  0  0  0  0  0  0  0  0  0  0  0
  148.5875  138.5998  154.4658 C   0  0  0  0  0  0  0  0  0  0  0  0
  147.7629  139.2868  154.0322 N   0  0  0  0  0  0  0  0  0  0  0  0
  149.3942  136.4372  155.2542 C   0  0  0  0  0  0  0  0  0  0  0  0
  148.0947  135.7038  154.9515 C   0  0  0  0  0  0  0  0  0  0  0  0
  150.1105  133.6250  155.2338 H   0  0  0  0  0  0  0  0  0  0  0  0
  149.6459  133.9963  156.8956 H   0  0  0  0  0  0  0  0  0  0  0  0
  151.3424  133.7807  156.4799 H   0  0  0  0  0  0  0  0  0  0  0  0
  153.8308  137.2516  156.3639 H   0  0  0  0  0  0  0  0  0  0  0  0
  153.5326  138.7196  155.4814 H   0  0  0  0  0  0  0  0  0  0  0  0
  152.0357  140.3197  156.7357 H   0  0  0  0  0  0  0  0  0  0  0  0
  151.5190  140.4701  159.4122 H   0  0  0  0  0  0  0  0  0  0  0  0
  153.8925  139.9616  159.8887 H   0  0  0  0  0  0  0  0  0  0  0  0
  154.4126  141.3002  158.8926 H   0  0  0  0  0  0  0  0  0  0  0  0
  152.7702  141.4970  161.4616 H   0  0  0  0  0  0  0  0  0  0  0  0
  154.4475  141.9525  161.2707 H   0  0  0  0  0  0  0  0  0  0  0  0
  152.9684  143.9416  161.1750 H   0  0  0  0  0  0  0  0  0  0  0  0
  153.8378  143.7349  159.6742 H   0  0  0  0  0  0  0  0  0  0  0  0
  150.9601  142.8895  160.2085 H   0  0  0  0  0  0  0  0  0  0  0  0
  151.9992  145.1077  158.3802 H   0  0  0  0  0  0  0  0  0  0  0  0
  151.3534  145.3642  159.9975 H   0  0  0  0  0  0  0  0  0  0  0  0
  150.3104  144.7460  158.7384 H   0  0  0  0  0  0  0  0  0  0  0  0
  152.5435  142.6970  157.6170 H   0  0  0  0  0  0  0  0  0  0  0  0
  149.6579  141.8717  158.2152 H   0  0  0  0  0  0  0  0  0  0  0  0
  150.5065  141.5158  156.7165 H   0  0  0  0  0  0  0  0  0  0  0  0
  150.1651  143.1705  157.1383 H   0  0  0  0  0  0  0  0  0  0  0  0
  147.3145  136.3759  154.5952 H   0  0  0  0  0  0  0  0  0  0  0  0
  147.7142  135.2096  155.8460 H   0  0  0  0  0  0  0  0  0  0  0  0
  148.2549  134.9476  154.1822 H   0  0  0  0  0  0  0  0  0  0  0  0
  1  2  1  0  0  0  0
  1 24  1  0  0  0  0
  1 25  1  0  0  0  0
  1 26  1  0  0  0  0
  2 22  1  0  0  0  0
  2  3  2  0  0  0  0
  3  4  1  0  0  0  0
  4  5  1  0  0  0  0
  4 17  1  0  0  0  0
  5  6  1  0  0  0  0
  5 27  1  0  0  0  0
  5 28  1  0  0  0  0
  6  7  2  0  0  0  0
  6  8  1  0  0  0  0
  8  9  1  0  0  0  0
  8 29  1  0  0  0  0
  9 15  1  0  0  0  0
  9 10  1  0  0  0  0
  9 30  1  0  0  0  0
 10 11  1  0  0  0  0
 10 31  1  0  0  0  0
 10 32  1  0  0  0  0
 11 12  1  0  0  0  0
 11 33  1  0  0  0  0
 11 34  1  0  0  0  0
 12 13  1  0  0  0  0
 12 35  1  0  0  0  0
 12 36  1  0  0  0  0
 13 14  1  0  0  0  0
 13 15  1  0  0  0  0
 13 37  1  0  0  0  0
 14 38  1  0  0  0  0
 14 39  1  0  0  0  0
 14 40  1  0  0  0  0
 15 16  1  0  0  0  0
 15 41  1  0  0  0  0
 16 42  1  0  0  0  0
 16 43  1  0  0  0  0
 16 44  1  0  0  0  0
 17 18  2  0  0  0  0
 17 19  1  0  0  0  0
 19 20  1  0  0  0  0
 19 22  2  0  0  0  0
 20 21  3  0  0  0  0
 22 23  1  0  0  0  0
 23 45  1  0  0  0  0
 23 46  1  0  0  0  0
 23 47  1  0  0  0  0
M  END
> <s_m_source_file>
AV-unprocessed.smi

> <i_m_source_file_index>
1662

> <i_lp_mmshare_version>
43012

> <i_f3d_flags>
0

> <s_epik_input>
TiNDYyhjMVtDSDNdKWMoPU8pbihuYzFbQ0gzXSlbQ0gyXUMoPU8pW05IXVtDQEBIXTJbQ0gyXVtDSDJdW0NIMl1bQ0BASF0oW0NIM10pW0NASF0yW0NIM10=

> <s_epik_cmdline>
J2VwaWtfcHl0aG9uJywgJy1waCcsICc3LjAnLCAnLXRuJywgJzgnLCAnLW1hJywgJzIwMCcsICctbWV0YWxfYmluZGluZycsICctaW1hZScsICc8aW5maWxlLm1hZT4nLCAnLW9tYWUnLCAnPG91dGZpbGUubWFlPic=

> <r_lp_tautomer_probability>
1

> <r_epik_Ionization_Penalty>
1.90709e-08

> <r_epik_Ionization_Penalty_Charging>
2.37982e-11

> <r_epik_Ionization_Penalty_Neutral>
1.90471e-08

> <r_epik_State_Penalty>
-0

> <r_epik_Charging_Adjusted_Penalty>
2.37982e-11

> <i_epik_Tot_Q>
0

> <i_epik_Tot_abs_Q>
0

> <r_epik_Metal_State_Penalty>
-0

> <b_epik_Metal_Only>
0

> <s_lp_Force_Field>
OPLS_2005

> <r_lp_Energy>
26.9998

> <b_lp_Chiralities_Consistent>
1

> <s_lp_Variant>
AV-unprocessed.smi:1662-6

> <Gold.Version>
5.8.1

> <Gold.Id.Protein>
6NUR|6NUR_protein|mol2

> <Gold.PLP.Fitness>
40.5691

> <Gold.PLP.PLP>
-35.5575

> <Gold.PLP.part.hbond>
-2.0000

> <Gold.PLP.part.metal>
0.0000

> <Gold.PLP.part.buried>
-1.8417

> <Gold.PLP.part.nonpolar>
-32.1169

> <Gold.PLP.part.repulsive>
0.8451

> <Gold.PLP.ligand.clash>
0.0000

> <Gold.PLP.ligand.torsion>
0.4989

> <Gold.PLP.Chemscore.Hbond>
2.0000

> <Gold.PLP.Chemscore.CHOScore>
0.0000

> <Gold.PLP.Chemscore.Metal>
0.0000

> <Gold.Chemscore.Hbonds>
donor molecule, donor type, donor heavy atom, donor atom, acceptor molecule, acceptor atom, score
      P1  H  7989  7998       L1    18  0.75
      P1  H 10752 10763       L1     3  1.00

> <Gold.PLP.Chemscore.Internal.Correction>
0.0094

> <Gold.Rescore>
     Score         DG    S(hbond)    S(metal)    S(lipo)     H(rot)  DE(clash)    DE(int)     intcor
     14.58     -16.70       1.00        0.00      99.15       1.45       0.27       1.85       ----

> <Gold.Chemscore.Fitness>
14.5834

> <Gold.Chemscore.DG>
-16.7050

> <Gold.Chemscore.ZeroCoef>
-5.4800

> <Gold.Chemscore.Hbond>
0.9994

> <Gold.Chemscore.Metal>
0.0000

> <Gold.Chemscore.Lipo>
99.1458

> <Gold.Chemscore.Internal_Hbond>
0.0000

> <Gold.Chemscore.DEClash>
0.2670

> <Gold.Chemscore.DEInternal>
1.8546

> <Gold.Chemscore.Rot>
1.4504

> <Gold.Chemscore.Internal.Correction>
   9.000000E+99

> <Gold.Chemscore.Hbonds>
donor molecule, donor type, donor heavy atom, donor atom, acceptor molecule, acceptor atom, score
      P1  H  7989  7998       L1    18  0.75
      P1  H 10752 10763       L1     3  0.20

> <Gold.Chemscore.Hbond.Weighted>
-3.3379

> <Gold.Chemscore.Metal.Weighted>
-0.0000

> <Gold.Chemscore.Lipo.Weighted>
-11.6001

> <Gold.Chemscore.Internal_Hbond.Weighted>
0.0000

> <Gold.Chemscore.DEClash.Weighted>
0.2670

> <Gold.Chemscore.DEInternal.Weighted>
1.8546

> <Gold.Chemscore.Rot.Weighted>
3.7129

> <Gold.Chemscore.Internal.Correction.Weighted>
   9.000000E+99

> <Gold.Protein.RotatedTorsions>
[ 6907 6896 6895 6894 ] final  102.28 input  -60.11 | X-H torsion
[ 7974 7965 7964 7962 ] final -168.57 input  175.53 | X-H torsion
[ 8008 7997 7996 7995 ] final  -40.35 input   59.86 | X-H torsion
[ 10167 10162 10161 10158 ] final  172.20 input  -65.29 | X-H torsion
[ 10718 10713 10712 10709 ] final   -4.37 input   66.30 | X-H torsion
[ 10763 10752 10751 10750 ] final   88.36 input  -60.55 | X-H torsion
[ 11005 11000 10999 10996 ] final -144.23 input  -57.11 | X-H torsion

> <Gold.Protein.ActiveResidues>
 VAL166  LYS551  ARG553  GLY616  TRP617  ASP618  TYR619  PRO620  LYS621  CYS622 
 ASP623  PHE694  ASN695  SER759  ASP760  ASP761  ALA762  ILE779  LEU786  VAL792 
 PHE793  MET794  SER795  GLU796  ALA797  LYS798  CYS799  TRP800  GLU811  SER814 

> <Gold.Protein.RotatedAtoms>
  152.5328  133.9999  159.7889 H   0  0  0  0  0  0  0  0  0  0  0  0  # atno 6907 bound_to 6896
  151.0220  133.5860  159.2677 H   0  0  0  0  0  0  0  0  0  0  0  0  # atno 6908 bound_to 6896
  151.2896  135.0745  159.9253 H   0  0  0  0  0  0  0  0  0  0  0  0  # atno 6909 bound_to 6896
  144.7201  140.2351  143.6299 H   0  0  0  0  0  0  0  0  0  0  0  0  # atno 7974 bound_to 7965
  154.4013  140.1528  156.3012 H   0  0  0  0  0  0  0  0  0  0  0  0  # atno 8008 bound_to 7997
  155.8699  140.3449  155.5792 H   0  0  0  0  0  0  0  0  0  0  0  0  # atno 8009 bound_to 7997
  155.7786  140.0840  157.2061 H   0  0  0  0  0  0  0  0  0  0  0  0  # atno 8010 bound_to 7997
  139.5069  144.3401  152.0027 H   0  0  0  0  0  0  0  0  0  0  0  0  # atno 10167 bound_to 10162
  156.7623  130.5273  149.5783 H   0  0  0  0  0  0  0  0  0  0  0  0  # atno 10718 bound_to 10713
  153.1761  135.4510  154.9966 H   0  0  0  0  0  0  0  0  0  0  0  0  # atno 10763 bound_to 10752
  154.7999  135.3251  154.7579 H   0  0  0  0  0  0  0  0  0  0  0  0  # atno 10764 bound_to 10752
  153.8049  135.6959  153.4905 H   0  0  0  0  0  0  0  0  0  0  0  0  # atno 10765 bound_to 10752
  140.8045  134.2817  157.4965 H   0  0  0  0  0  0  0  0  0  0  0  0  # atno 11005 bound_to 11000
  145.8373  139.2113  143.1848 LP  0  0  0  0  0  0  0  0  0  0  0  0  # atno 17320 bound_to 7965
  146.0377  140.8195  142.9844 LP  0  0  0  0  0  0  0  0  0  0  0  0  # atno 17321 bound_to 7965
  140.2839  144.3829  150.6110 LP  0  0  0  0  0  0  0  0  0  0  0  0  # atno 17342 bound_to 10162
  140.5997  143.2167  151.7095 LP  0  0  0  0  0  0  0  0  0  0  0  0  # atno 17343 bound_to 10162
  156.1331  130.6192  151.0362 LP  0  0  0  0  0  0  0  0  0  0  0  0  # atno 17370 bound_to 10713
  157.6729  131.0857  150.7567 LP  0  0  0  0  0  0  0  0  0  0  0  0  # atno 17371 bound_to 10713
  139.8719  134.9448  156.3893 LP  0  0  0  0  0  0  0  0  0  0  0  0  # atno 17394 bound_to 11000
  140.9261  133.7612  155.9966 LP  0  0  0  0  0  0  0  0  0  0  0  0  # atno 17395 bound_to 11000

$$$$
