AV-unprocessed.smi:2664|AV-procd|sdf|10329|dock3
  -GOLD-   2272014343D 1   1.00000     0.00000
 Structure written by MMmdl.
 44 45  0  0  0  0  0  0  0  0  2 V2000
  145.6071  137.6701  154.2703 O   0  0  0  0  0  0  0  0  0  0  0  0
  146.6535  137.3584  153.7032 C   0  0  0  0  0  0  0  0  0  0  0  0
  147.7198  138.1623  153.5487 N   0  0  0  0  0  0  0  0  0  0  0  0
  147.8702  139.5215  153.9375 C   0  0  0  0  0  0  0  0  0  0  0  0
  149.1418  139.9324  154.3954 C   0  0  0  0  0  0  0  0  0  0  0  0
  149.3445  141.2749  154.7753 C   0  0  0  0  0  0  0  0  0  0  0  0
  148.3272  142.1586  154.6907 N   0  3  0  0  0  0  0  0  0  0  0  0
  147.0986  141.8168  154.2469 C   0  0  0  0  0  0  0  0  0  0  0  0
  146.8364  140.4891  153.8519 C   0  0  0  0  0  0  0  0  0  0  0  0
  146.8812  136.1477  153.1712 N   0  0  0  0  0  0  0  0  0  0  0  0
  145.9398  135.0241  153.1487 C   0  0  1  0  0  0  0  0  0  0  0  0
  144.7417  135.3912  152.2364 C   0  0  0  0  0  0  0  0  0  0  0  0
  145.1110  135.7650  150.7881 C   0  0  0  0  0  0  0  0  0  0  0  0
  145.8804  136.9486  150.7613 O   0  0  0  0  0  0  0  0  0  0  0  0
  146.6737  133.7213  152.7164 C   0  0  0  0  0  0  0  0  0  0  0  0
  145.7550  132.4755  152.7772 C   0  0  0  0  0  0  0  0  0  0  0  0
  146.4841  131.1875  152.3618 C   0  0  0  0  0  0  0  0  0  0  0  0
  147.7382  130.9534  153.2122 C   0  0  0  0  0  0  0  0  0  0  0  0
  148.6724  132.1671  153.1403 C   0  0  0  0  0  0  0  0  0  0  0  0
  147.9473  133.4555  153.5610 C   0  0  0  0  0  0  0  0  0  0  0  0
  148.5388  137.7352  153.1412 H   0  0  0  0  0  0  0  0  0  0  0  0
  149.9567  139.2261  154.4619 H   0  0  0  0  0  0  0  0  0  0  0  0
  150.2835  141.6655  155.1397 H   0  0  0  0  0  0  0  0  0  0  0  0
  146.3677  142.6117  154.2144 H   0  0  0  0  0  0  0  0  0  0  0  0
  145.8529  140.2448  153.4810 H   0  0  0  0  0  0  0  0  0  0  0  0
  147.7770  135.9863  152.7347 H   0  0  0  0  0  0  0  0  0  0  0  0
  145.5472  134.8548  154.1527 H   0  0  0  0  0  0  0  0  0  0  0  0
  144.0437  134.5534  152.2124 H   0  0  0  0  0  0  0  0  0  0  0  0
  144.1882  136.2294  152.6569 H   0  0  0  0  0  0  0  0  0  0  0  0
  145.6558  134.9634  150.2895 H   0  0  0  0  0  0  0  0  0  0  0  0
  144.2037  135.9349  150.2080 H   0  0  0  0  0  0  0  0  0  0  0  0
  145.3030  137.6807  150.6066 H   0  0  0  0  0  0  0  0  0  0  0  0
  146.9900  133.8478  151.6796 H   0  0  0  0  0  0  0  0  0  0  0  0
  145.3590  132.3596  153.7870 H   0  0  0  0  0  0  0  0  0  0  0  0
  144.8955  132.5938  152.1197 H   0  0  0  0  0  0  0  0  0  0  0  0
  145.8106  130.3347  152.4524 H   0  0  0  0  0  0  0  0  0  0  0  0
  146.7628  131.2498  151.3092 H   0  0  0  0  0  0  0  0  0  0  0  0
  147.4522  130.7686  154.2485 H   0  0  0  0  0  0  0  0  0  0  0  0
  148.2602  130.0598  152.8690 H   0  0  0  0  0  0  0  0  0  0  0  0
  149.5410  132.0044  153.7790 H   0  0  0  0  0  0  0  0  0  0  0  0
  149.0524  132.2770  152.1238 H   0  0  0  0  0  0  0  0  0  0  0  0
  148.6516  134.2824  153.4732 H   0  0  0  0  0  0  0  0  0  0  0  0
  147.6795  133.3928  154.6167 H   0  0  0  0  0  0  0  0  0  0  0  0
  148.4949  143.1259  154.9691 H   0  0  0  0  0  0  0  0  0  0  0  0
  1  2  2  0  0  0  0
  2  3  1  0  0  0  0
  2 10  1  0  0  0  0
  3  4  1  0  0  0  0
  3 21  1  0  0  0  0
  4  9  1  0  0  0  0
  4  5  2  0  0  0  0
  5  6  1  0  0  0  0
  5 22  1  0  0  0  0
  6  7  2  0  0  0  0
  6 23  1  0  0  0  0
  7  8  1  0  0  0  0
  7 44  1  0  0  0  0
  8  9  2  0  0  0  0
  8 24  1  0  0  0  0
  9 25  1  0  0  0  0
 10 11  1  0  0  0  0
 10 26  1  0  0  0  0
 11 12  1  0  0  0  0
 11 15  1  0  0  0  0
 11 27  1  0  0  0  0
 12 13  1  0  0  0  0
 12 28  1  0  0  0  0
 12 29  1  0  0  0  0
 13 14  1  0  0  0  0
 13 30  1  0  0  0  0
 13 31  1  0  0  0  0
 14 32  1  0  0  0  0
 15 20  1  0  0  0  0
 15 16  1  0  0  0  0
 15 33  1  0  0  0  0
 16 17  1  0  0  0  0
 16 34  1  0  0  0  0
 16 35  1  0  0  0  0
 17 18  1  0  0  0  0
 17 36  1  0  0  0  0
 17 37  1  0  0  0  0
 18 19  1  0  0  0  0
 18 38  1  0  0  0  0
 18 39  1  0  0  0  0
 19 20  1  0  0  0  0
 19 40  1  0  0  0  0
 19 41  1  0  0  0  0
 20 42  1  0  0  0  0
 20 43  1  0  0  0  0
M  CHG  1   7   1
M  END
> <s_m_source_file>
AV-unprocessed.smi

> <i_m_source_file_index>
2664

> <i_lp_mmshare_version>
43012

> <i_f3d_flags>
0

> <s_epik_input>
W2NIXTFbY0hdbltjSF1bY0hdYzFbTkhdQyg9TylbTkhdW0NASF0oW0NIMl1bQ0gyXVtPSF0pW0NIXTJbQ0gyXVtDSDJdW0NIMl1bQ0gyXVtDSDJdMg==

> <s_epik_cmdline>
J2VwaWtfcHl0aG9uJywgJy1waCcsICc3LjAnLCAnLXRuJywgJzgnLCAnLW1hJywgJzIwMCcsICctbWV0YWxfYmluZGluZycsICctaW1hZScsICc8aW5maWxlLm1hZT4nLCAnLW9tYWUnLCAnPG91dGZpbGUubWFlPic=

> <r_epik_Ionization_Penalty>
1.0085

> <r_epik_Ionization_Penalty_Charging>
1.00848

> <r_epik_Ionization_Penalty_Neutral>
2.14516e-05

> <r_epik_State_Penalty>
1.05769

> <r_epik_Charging_Adjusted_Penalty>
2.06617

> <i_epik_Tot_Q>
1

> <i_epik_Tot_abs_Q>
1

> <r_epik_Metal_State_Penalty>
1.15842

> <b_epik_Metal_Only>
0

> <s_lp_Force_Field>
OPLS_2005

> <r_lp_Energy>
27.8621

> <b_lp_Chiralities_Consistent>
1

> <s_lp_Variant>
AV-unprocessed.smi:2664-4

> <Gold.Version>
5.8.1

> <Gold.Id.Protein>
6NUR|6NUR_protein|mol2

> <Gold.PLP.Fitness>
47.8684

> <Gold.PLP.PLP>
-34.3632

> <Gold.PLP.part.hbond>
-4.2252

> <Gold.PLP.part.metal>
0.0000

> <Gold.PLP.part.buried>
-5.4721

> <Gold.PLP.part.nonpolar>
-27.0085

> <Gold.PLP.part.repulsive>
0.3374

> <Gold.PLP.ligand.clash>
0.0000

> <Gold.PLP.ligand.torsion>
0.4022

> <Gold.PLP.Chemscore.Hbond>
4.7520

> <Gold.PLP.Chemscore.CHOScore>
0.0000

> <Gold.PLP.Chemscore.Metal>
0.0000

> <Gold.Chemscore.Hbonds>
donor molecule, donor type, donor heavy atom, donor atom, acceptor molecule, acceptor atom, score
      L1  H     3    21       P1  7948  0.77
      L1  H     7    44       P1  8028  2.00
      L1  H    10    26       P1  7948  0.88
      L1  H    14    32       P1 10171  1.00

> <Gold.PLP.Chemscore.Internal.Correction>
0.0536

> <Gold.Rescore>
     Score         DG    S(hbond)    S(metal)    S(lipo)     H(rot)  DE(clash)    DE(int)     intcor
     19.79     -21.55       3.86        0.00      76.85       2.27       0.02       1.73       ----

> <Gold.Chemscore.Fitness>
19.7936

> <Gold.Chemscore.DG>
-21.5491

> <Gold.Chemscore.ZeroCoef>
-5.4800

> <Gold.Chemscore.Hbond>
3.8615

> <Gold.Chemscore.Metal>
0.0000

> <Gold.Chemscore.Lipo>
76.8464

> <Gold.Chemscore.Internal_Hbond>
0.0000

> <Gold.Chemscore.DEClash>
0.0217

> <Gold.Chemscore.DEInternal>
1.7337

> <Gold.Chemscore.Rot>
2.2731

> <Gold.Chemscore.Internal.Correction>
   9.000000E+99

> <Gold.Chemscore.Hbonds>
donor molecule, donor type, donor heavy atom, donor atom, acceptor molecule, acceptor atom, score
      L1  H     3    21       P1  7948  0.73
      L1  H     7    44       P1  8028  1.00
      L1  H    10    26       P1  7948  0.83
      L1  H    14    32       P1 10171  0.98

> <Gold.Chemscore.Hbond.Weighted>
-12.8973

> <Gold.Chemscore.Metal.Weighted>
-0.0000

> <Gold.Chemscore.Lipo.Weighted>
-8.9910

> <Gold.Chemscore.Internal_Hbond.Weighted>
0.0000

> <Gold.Chemscore.DEClash.Weighted>
0.0217

> <Gold.Chemscore.DEInternal.Weighted>
1.7337

> <Gold.Chemscore.Rot.Weighted>
5.8192

> <Gold.Chemscore.Internal.Correction.Weighted>
   9.000000E+99

> <Gold.Protein.RotatedTorsions>
[ 6907 6896 6895 6894 ] final  -97.91 input  -60.11 | X-H torsion
[ 7974 7965 7964 7962 ] final  156.97 input  175.53 | X-H torsion
[ 8008 7997 7996 7995 ] final -109.53 input   59.86 | X-H torsion
[ 10167 10162 10161 10158 ] final  -21.19 input  -65.29 | X-H torsion
[ 10718 10713 10712 10709 ] final  -41.19 input   66.30 | X-H torsion
[ 10763 10752 10751 10750 ] final   76.17 input  -60.55 | X-H torsion
[ 11005 11000 10999 10996 ] final  -63.08 input  -57.11 | X-H torsion

> <Gold.Protein.ActiveResidues>
 VAL166  LYS551  ARG553  GLY616  TRP617  ASP618  TYR619  PRO620  LYS621  CYS622 
 ASP623  PHE694  ASN695  SER759  ASP760  ASP761  ALA762  ILE779  LEU786  VAL792 
 PHE793  MET794  SER795  GLU796  ALA797  LYS798  CYS799  TRP800  GLU811  SER814 

> <Gold.Protein.RotatedAtoms>
  150.7030  134.1275  159.4057 H   0  0  0  0  0  0  0  0  0  0  0  0  # atno 6907 bound_to 6896
  151.9261  135.0275  160.0535 H   0  0  0  0  0  0  0  0  0  0  0  0  # atno 6908 bound_to 6896
  152.2215  133.4952  159.5202 H   0  0  0  0  0  0  0  0  0  0  0  0  # atno 6909 bound_to 6896
  144.7931  139.7276  143.6213 H   0  0  0  0  0  0  0  0  0  0  0  0  # atno 7974 bound_to 7965
  154.9607  140.0399  157.2188 H   0  0  0  0  0  0  0  0  0  0  0  0  # atno 8008 bound_to 7997
  154.7892  140.2832  155.5982 H   0  0  0  0  0  0  0  0  0  0  0  0  # atno 8009 bound_to 7997
  156.2947  140.2576  156.2735 H   0  0  0  0  0  0  0  0  0  0  0  0  # atno 8010 bound_to 7997
  140.7280  143.4651  151.0325 H   0  0  0  0  0  0  0  0  0  0  0  0  # atno 10167 bound_to 10162
  156.2731  130.4209  149.8417 H   0  0  0  0  0  0  0  0  0  0  0  0  # atno 10718 bound_to 10713
  153.0706  135.4961  154.8296 H   0  0  0  0  0  0  0  0  0  0  0  0  # atno 10763 bound_to 10752
  154.7017  135.3003  154.9333 H   0  0  0  0  0  0  0  0  0  0  0  0  # atno 10764 bound_to 10752
  154.0055  135.6761  153.4815 H   0  0  0  0  0  0  0  0  0  0  0  0  # atno 10765 bound_to 10752
  141.1381  133.6647  156.5625 H   0  0  0  0  0  0  0  0  0  0  0  0  # atno 11005 bound_to 11000
  146.2190  139.5602  142.9631 LP  0  0  0  0  0  0  0  0  0  0  0  0  # atno 17320 bound_to 7965
  145.5742  141.0390  143.2157 LP  0  0  0  0  0  0  0  0  0  0  0  0  # atno 17321 bound_to 7965
  139.8338  143.7655  152.3180 LP  0  0  0  0  0  0  0  0  0  0  0  0  # atno 17342 bound_to 10162
  139.7780  144.7454  151.0129 LP  0  0  0  0  0  0  0  0  0  0  0  0  # atno 17343 bound_to 10162
  156.5891  130.8498  151.3403 LP  0  0  0  0  0  0  0  0  0  0  0  0  # atno 17370 bound_to 10713
  157.7290  130.9665  150.1769 LP  0  0  0  0  0  0  0  0  0  0  0  0  # atno 17371 bound_to 10713
  140.3977  134.7384  157.4760 LP  0  0  0  0  0  0  0  0  0  0  0  0  # atno 17394 bound_to 11000
  140.0519  134.6118  155.8851 LP  0  0  0  0  0  0  0  0  0  0  0  0  # atno 17395 bound_to 11000

$$$$
