AV-unprocessed.smi:243|AV-procd|sdf|1851|dock5
  -GOLD-   2262020473D 1   1.00000     0.00000
 Structure written by MMmdl.
 58 61  0  0  0  0  0  0  0  0  2 V2000
  147.7236  138.5588  153.5439 C   0  0  0  0  0  0  0  0  0  0  0  0
  146.4290  138.1595  152.8208 C   0  0  0  0  0  0  0  0  0  0  0  0
  146.4266  136.7358  152.3991 N   0  3  1  0  0  0  0  0  0  0  0  0
  146.7063  135.8165  153.5274 C   0  0  0  0  0  0  0  0  0  0  0  0
  146.8852  134.3865  153.0097 C   0  0  0  0  0  0  0  0  0  0  0  0
  145.6265  133.8912  152.2638 C   0  0  2  0  0  0  0  0  0  0  0  0
  145.7388  132.4874  151.8287 N   0  0  0  0  0  0  0  0  0  0  0  0
  145.8729  132.1904  150.4068 C   0  0  0  0  0  0  0  0  0  0  0  0
  146.2204  131.5431  152.6776 C   0  0  0  0  0  0  0  0  0  0  0  0
  146.3530  131.8717  153.9877 N   0  0  0  0  0  0  0  0  0  0  0  0
  146.8092  130.9777  154.8688 C   0  0  0  0  0  0  0  0  0  0  0  0
  147.1814  129.7149  154.6570 N   0  0  0  0  0  0  0  0  0  0  0  0
  147.0355  129.3697  153.3461 C   0  0  0  0  0  0  0  0  0  0  0  0
  146.5546  130.2093  152.3005 C   0  0  0  0  0  0  0  0  0  0  0  0
  146.5296  129.4983  151.1063 N   0  0  0  0  0  0  0  0  0  0  0  0
  146.9752  128.3145  151.4246 C   0  0  0  0  0  0  0  0  0  0  0  0
  147.3184  128.1546  152.7473 N   0  0  0  0  0  0  0  0  0  0  0  0
  147.8452  126.9511  153.3708 C   0  0  0  0  0  0  0  0  0  0  0  0
  149.1307  126.4062  152.6969 C   0  0  1  0  0  0  0  0  0  0  0  0
  150.1996  127.3125  152.8939 O   0  0  0  0  0  0  0  0  0  0  0  0
  149.5206  125.0381  153.2318 C   0  0  0  0  0  0  0  0  0  0  0  0
  148.6866  124.0852  152.3769 C   0  0  0  0  0  0  0  0  0  0  0  0
  148.4348  124.7685  151.1518 O   0  0  0  0  0  0  0  0  0  0  0  0
  148.9737  126.0850  151.2057 C   0  0  0  0  0  0  0  0  0  0  0  0
  145.2625  134.8933  151.1303 C   0  0  1  0  0  0  0  0  0  0  0  0
  143.9275  134.5785  150.4326 C   0  0  0  0  0  0  0  0  0  0  0  0
  145.1882  136.3360  151.6830 C   0  0  0  0  0  0  0  0  0  0  0  0
  147.6465  139.5745  153.9324 H   0  0  0  0  0  0  0  0  0  0  0  0
  148.5890  138.5337  152.8825 H   0  0  0  0  0  0  0  0  0  0  0  0
  147.9239  137.8981  154.3880 H   0  0  0  0  0  0  0  0  0  0  0  0
  145.6007  138.3301  153.5100 H   0  0  0  0  0  0  0  0  0  0  0  0
  146.2524  138.8062  151.9601 H   0  0  0  0  0  0  0  0  0  0  0  0
  147.6185  136.1245  154.0403 H   0  0  0  0  0  0  0  0  0  0  0  0
  145.8972  135.8632  154.2583 H   0  0  0  0  0  0  0  0  0  0  0  0
  147.7546  134.3844  152.3534 H   0  0  0  0  0  0  0  0  0  0  0  0
  147.1140  133.7189  153.8413 H   0  0  0  0  0  0  0  0  0  0  0  0
  144.8095  133.9162  152.9864 H   0  0  0  0  0  0  0  0  0  0  0  0
  145.7102  131.1286  150.2159 H   0  0  0  0  0  0  0  0  0  0  0  0
  146.8558  132.4563  150.0224 H   0  0  0  0  0  0  0  0  0  0  0  0
  145.1274  132.7436  149.8352 H   0  0  0  0  0  0  0  0  0  0  0  0
  146.8866  131.3227  155.8893 H   0  0  0  0  0  0  0  0  0  0  0  0
  147.0741  127.5220  150.6968 H   0  0  0  0  0  0  0  0  0  0  0  0
  148.0372  127.1698  154.4220 H   0  0  0  0  0  0  0  0  0  0  0  0
  147.0592  126.1952  153.3582 H   0  0  0  0  0  0  0  0  0  0  0  0
  150.7752  127.2655  152.1458 H   0  0  0  0  0  0  0  0  0  0  0  0
  150.5789  124.8446  153.0479 H   0  0  0  0  0  0  0  0  0  0  0  0
  149.3440  124.9200  154.3015 H   0  0  0  0  0  0  0  0  0  0  0  0
  149.1970  123.1378  152.2027 H   0  0  0  0  0  0  0  0  0  0  0  0
  147.7318  123.8700  152.8580 H   0  0  0  0  0  0  0  0  0  0  0  0
  148.3610  126.7977  150.6556 H   0  0  0  0  0  0  0  0  0  0  0  0
  149.9499  126.0559  150.7186 H   0  0  0  0  0  0  0  0  0  0  0  0
  146.0510  134.8654  150.3764 H   0  0  0  0  0  0  0  0  0  0  0  0
  143.1134  134.4922  151.1529 H   0  0  0  0  0  0  0  0  0  0  0  0
  143.9718  133.6546  149.8634 H   0  0  0  0  0  0  0  0  0  0  0  0
  143.6602  135.3634  149.7243 H   0  0  0  0  0  0  0  0  0  0  0  0
  144.3372  136.4353  152.3592 H   0  0  0  0  0  0  0  0  0  0  0  0
  145.0074  137.0195  150.8541 H   0  0  0  0  0  0  0  0  0  0  0  0
  147.1932  136.6283  151.7502 H   0  0  0  0  0  0  0  0  0  0  0  0
  1  2  1  0  0  0  0
  1 28  1  0  0  0  0
  1 29  1  0  0  0  0
  1 30  1  0  0  0  0
  2  3  1  0  0  0  0
  2 31  1  0  0  0  0
  2 32  1  0  0  0  0
  3 27  1  0  0  0  0
  3  4  1  0  0  0  0
  3 58  1  0  0  0  0
  4  5  1  0  0  0  0
  4 33  1  0  0  0  0
  4 34  1  0  0  0  0
  5  6  1  0  0  0  0
  5 35  1  0  0  0  0
  5 36  1  0  0  0  0
  6  7  1  0  0  0  0
  6 25  1  0  0  0  0
  6 37  1  0  0  0  0
  7  8  1  0  0  0  0
  7  9  1  0  0  0  0
  8 38  1  0  0  0  0
  8 39  1  0  0  0  0
  8 40  1  0  0  0  0
  9 14  1  0  0  0  0
  9 10  2  0  0  0  0
 10 11  1  0  0  0  0
 11 12  2  0  0  0  0
 11 41  1  0  0  0  0
 12 13  1  0  0  0  0
 13 17  1  0  0  0  0
 13 14  2  0  0  0  0
 14 15  1  0  0  0  0
 15 16  2  0  0  0  0
 16 17  1  0  0  0  0
 16 42  1  0  0  0  0
 17 18  1  0  0  0  0
 18 19  1  0  0  0  0
 18 43  1  0  0  0  0
 18 44  1  0  0  0  0
 19 24  1  0  0  0  0
 19 20  1  0  0  0  0
 19 21  1  0  0  0  0
 20 45  1  0  0  0  0
 21 22  1  0  0  0  0
 21 46  1  0  0  0  0
 21 47  1  0  0  0  0
 22 23  1  0  0  0  0
 22 48  1  0  0  0  0
 22 49  1  0  0  0  0
 23 24  1  0  0  0  0
 24 50  1  0  0  0  0
 24 51  1  0  0  0  0
 25 26  1  0  0  0  0
 25 27  1  0  0  0  0
 25 52  1  0  0  0  0
 26 53  1  0  0  0  0
 26 54  1  0  0  0  0
 26 55  1  0  0  0  0
 27 56  1  0  0  0  0
 27 57  1  0  0  0  0
M  CHG  1   3   1
M  END
> <s_m_source_file>
AV-unprocessed.smi

> <i_m_source_file_index>
243

> <i_lp_mmshare_version>
43012

> <i_f3d_flags>
0

> <s_epik_input>
W0NIM11bQ0gyXU4xW0NIMl1bQ0gyXVtDQEhdKFtDQEBIXShbQ0gzXSlbQ0gyXTEpTihbQ0gzXSljKG5bY0hdbjIpYyhjMjMpbltjSF1uM1tDSDJdW0NAQF00KFtPSF0pW0NIMl1bQ0gyXU9bQ0gyXTQ=

> <s_epik_cmdline>
J2VwaWtfcHl0aG9uJywgJy1waCcsICc3LjAnLCAnLXRuJywgJzgnLCAnLW1hJywgJzIwMCcsICctbWV0YWxfYmluZGluZycsICctaW1hZScsICc8aW5maWxlLm1hZT4nLCAnLW9tYWUnLCAnPG91dGZpbGUubWFlPic=

> <r_lp_tautomer_probability>
1

> <r_epik_Ionization_Penalty>
0.00253099

> <r_epik_Ionization_Penalty_Charging>
0.00137877

> <r_epik_Ionization_Penalty_Neutral>
0.00115221

> <r_epik_State_Penalty>
-0

> <r_epik_Charging_Adjusted_Penalty>
0.00137877

> <i_epik_Tot_Q>
1

> <i_epik_Tot_abs_Q>
1

> <r_epik_Metal_State_Penalty>
-0

> <b_epik_Metal_Only>
0

> <s_lp_Force_Field>
OPLS_2005

> <r_lp_Energy>
48.9209

> <b_lp_Chiralities_Consistent>
1

> <s_lp_Variant>
AV-unprocessed.smi:243-4

> <Gold.Version>
5.8.1

> <Gold.Id.Protein>
6NUR|6NUR_protein|mol2

> <Gold.PLP.Fitness>
43.9090

> <Gold.PLP.PLP>
-34.9781

> <Gold.PLP.part.hbond>
-1.7522

> <Gold.PLP.part.metal>
0.0000

> <Gold.PLP.part.buried>
-3.0594

> <Gold.PLP.part.nonpolar>
-31.7479

> <Gold.PLP.part.repulsive>
2.0190

> <Gold.PLP.ligand.clash>
0.0000

> <Gold.PLP.ligand.torsion>
0.4210

> <Gold.PLP.Chemscore.Hbond>
3.0000

> <Gold.PLP.Chemscore.CHOScore>
0.0000

> <Gold.PLP.Chemscore.Metal>
0.0000

> <Gold.Chemscore.Hbonds>
donor molecule, donor type, donor heavy atom, donor atom, acceptor molecule, acceptor atom, score
      L1  H     3    58       P1  7948  1.50
      L1  H    20    45       P1 10737  0.57

> <Gold.PLP.Chemscore.Internal.Correction>
0.7728

> <Gold.Rescore>
     Score         DG    S(hbond)    S(metal)    S(lipo)     H(rot)  DE(clash)    DE(int)     intcor
     10.44     -14.67       1.96        0.00      71.56       2.24       0.34       3.89       ----

> <Gold.Chemscore.Fitness>
10.4401

> <Gold.Chemscore.DG>
-14.6698

> <Gold.Chemscore.ZeroCoef>
-5.4800

> <Gold.Chemscore.Hbond>
1.9601

> <Gold.Chemscore.Metal>
0.0000

> <Gold.Chemscore.Lipo>
71.5564

> <Gold.Chemscore.Internal_Hbond>
0.0000

> <Gold.Chemscore.DEClash>
0.3366

> <Gold.Chemscore.DEInternal>
3.8931

> <Gold.Chemscore.Rot>
2.2379

> <Gold.Chemscore.Internal.Correction>
   9.000000E+99

> <Gold.Chemscore.Hbonds>
donor molecule, donor type, donor heavy atom, donor atom, acceptor molecule, acceptor atom, score
      L1  H     3    58       P1  7948  0.76
      L1  H    20    45       P1 10737  0.57

> <Gold.Chemscore.Hbond.Weighted>
-6.5468

> <Gold.Chemscore.Metal.Weighted>
-0.0000

> <Gold.Chemscore.Lipo.Weighted>
-8.3721

> <Gold.Chemscore.Internal_Hbond.Weighted>
0.0000

> <Gold.Chemscore.DEClash.Weighted>
0.3366

> <Gold.Chemscore.DEInternal.Weighted>
3.8931

> <Gold.Chemscore.Rot.Weighted>
5.7291

> <Gold.Chemscore.Internal.Correction.Weighted>
   9.000000E+99

> <Gold.Protein.RotatedTorsions>
[ 6907 6896 6895 6894 ] final   28.11 input  -60.11 | X-H torsion
[ 7974 7965 7964 7962 ] final   57.04 input  175.53 | X-H torsion
[ 8008 7997 7996 7995 ] final -101.83 input   59.86 | X-H torsion
[ 10167 10162 10161 10158 ] final  132.80 input  -65.29 | X-H torsion
[ 10718 10713 10712 10709 ] final -172.78 input   66.30 | X-H torsion
[ 10763 10752 10751 10750 ] final   80.03 input  -60.55 | X-H torsion
[ 11005 11000 10999 10996 ] final  -94.68 input  -57.11 | X-H torsion

> <Gold.Protein.ActiveResidues>
 VAL166  LYS551  ARG553  GLY616  TRP617  ASP618  TYR619  PRO620  LYS621  CYS622 
 ASP623  PHE694  ASN695  SER759  ASP760  ASP761  ALA762  ILE779  LEU786  VAL792 
 PHE793  MET794  SER795  GLU796  ALA797  LYS798  CYS799  TRP800  GLU811  SER814 

> <Gold.Protein.RotatedAtoms>
  152.0122  134.9870  160.0568 H   0  0  0  0  0  0  0  0  0  0  0  0  # atno 6907 bound_to 6896
  152.1418  133.4463  159.4778 H   0  0  0  0  0  0  0  0  0  0  0  0  # atno 6908 bound_to 6896
  150.6866  134.2214  159.4441 H   0  0  0  0  0  0  0  0  0  0  0  0  # atno 6909 bound_to 6896
  145.9333  139.3826  143.0408 H   0  0  0  0  0  0  0  0  0  0  0  0  # atno 7974 bound_to 7965
  154.8481  140.0432  157.1586 H   0  0  0  0  0  0  0  0  0  0  0  0  # atno 8008 bound_to 7997
  154.8973  140.2995  155.5317 H   0  0  0  0  0  0  0  0  0  0  0  0  # atno 8009 bound_to 7997
  156.2995  140.2382  156.3996 H   0  0  0  0  0  0  0  0  0  0  0  0  # atno 8010 bound_to 7997
  139.5324  144.6645  151.4904 H   0  0  0  0  0  0  0  0  0  0  0  0  # atno 10167 bound_to 10162
  156.7607  130.9412  151.3118 H   0  0  0  0  0  0  0  0  0  0  0  0  # atno 10718 bound_to 10713
  153.1000  135.4818  154.8849 H   0  0  0  0  0  0  0  0  0  0  0  0  # atno 10763 bound_to 10752
  154.7368  135.3073  154.8800 H   0  0  0  0  0  0  0  0  0  0  0  0  # atno 10764 bound_to 10752
  153.9419  135.6833  153.4797 H   0  0  0  0  0  0  0  0  0  0  0  0  # atno 10765 bound_to 10752
  141.1464  133.7973  157.0331 H   0  0  0  0  0  0  0  0  0  0  0  0  # atno 11005 bound_to 11000
  145.8397  140.9587  143.0806 LP  0  0  0  0  0  0  0  0  0  0  0  0  # atno 17320 bound_to 7965
  144.6768  140.0268  143.7483 LP  0  0  0  0  0  0  0  0  0  0  0  0  # atno 17321 bound_to 7965
  140.6510  143.8696  150.6786 LP  0  0  0  0  0  0  0  0  0  0  0  0  # atno 17342 bound_to 10162
  140.2060  143.3921  152.1755 LP  0  0  0  0  0  0  0  0  0  0  0  0  # atno 17343 bound_to 10162
  157.6736  130.9073  150.0097 LP  0  0  0  0  0  0  0  0  0  0  0  0  # atno 17370 bound_to 10713
  156.1341  130.3643  149.9685 LP  0  0  0  0  0  0  0  0  0  0  0  0  # atno 17371 bound_to 10713
  140.0741  134.9685  157.1516 LP  0  0  0  0  0  0  0  0  0  0  0  0  # atno 17394 bound_to 11000
  140.3669  134.2433  155.7181 LP  0  0  0  0  0  0  0  0  0  0  0  0  # atno 17395 bound_to 11000

$$$$
