AV-unprocessed.smi:1200|AV-procd|sdf|5025|dock8
  -GOLD-   22720 4 43D 1   1.00000     0.00000
 Structure written by MMmdl.
 42 43  0  0  0  0  0  0  0  0  3 V2000
  142.7034  134.8074  153.5011 C   0  0  0  0  0  0  0  0  0  0  0  0
  143.6957  135.6834  152.8898 N   0  5  0  0  0  0  0  0  0  0  0  0
  144.3806  136.6360  153.5776 C   0  0  0  0  0  0  0  0  0  0  0  0
  144.2962  136.9968  154.7562 O   0  0  0  0  0  0  0  0  0  0  0  0
  145.4293  137.3139  152.6883 C   0  0  0  0  0  0  0  0  0  0  0  0
  146.1248  138.3823  153.4476 N   0  3  2  0  0  0  0  0  0  0  0  0
  146.8229  139.3450  152.5587 C   0  0  0  0  0  0  0  0  0  0  0  0
  147.4004  140.5225  153.3621 C   0  0  0  0  0  0  0  0  0  0  0  0
  148.3463  140.0307  154.4697 C   0  0  1  0  0  0  0  0  0  0  0  0
  148.8018  141.1624  155.2722 N   0  0  0  0  0  0  0  0  0  0  0  0
  149.8843  141.1630  156.0633 C   0  0  0  0  0  0  0  0  0  0  0  0
  150.6341  140.1949  156.1829 O   0  0  0  0  0  0  0  0  0  0  0  0
  150.0299  142.3479  156.6816 N   0  0  0  0  0  0  0  0  0  0  0  0
  151.0195  142.7611  157.6164 C   0  0  0  0  0  0  0  0  0  0  0  0
  151.7008  141.8974  158.5095 C   0  0  0  0  0  0  0  0  0  0  0  0
  152.6515  142.4444  159.3927 C   0  0  0  0  0  0  0  0  0  0  0  0
  152.8840  143.8328  159.3569 C   0  0  0  0  0  0  0  0  0  0  0  0
  152.2368  144.6692  158.5190 N   0  0  0  0  0  0  0  0  0  0  0  0
  151.3272  144.1374  157.6747 C   0  0  0  0  0  0  0  0  0  0  0  0
  147.6177  138.9990  155.3497 C   0  0  0  0  0  0  0  0  0  0  0  0
  147.0319  137.8570  154.5034 C   0  0  0  0  0  0  0  0  0  0  0  0
  142.2598  134.1278  152.7739 H   0  0  0  0  0  0  0  0  0  0  0  0
  141.8784  135.3612  153.9502 H   0  0  0  0  0  0  0  0  0  0  0  0
  143.1293  134.1828  154.2869 H   0  0  0  0  0  0  0  0  0  0  0  0
  146.1514  136.6108  152.2670 H   0  0  0  0  0  0  0  0  0  0  0  0
  144.8920  137.7454  151.8426 H   0  0  0  0  0  0  0  0  0  0  0  0
  147.6173  138.8306  152.0154 H   0  0  0  0  0  0  0  0  0  0  0  0
  146.1261  139.7304  151.8132 H   0  0  0  0  0  0  0  0  0  0  0  0
  147.9295  141.2009  152.6915 H   0  0  0  0  0  0  0  0  0  0  0  0
  146.5814  141.0959  153.7994 H   0  0  0  0  0  0  0  0  0  0  0  0
  149.2067  139.5528  153.9969 H   0  0  0  0  0  0  0  0  0  0  0  0
  148.2453  142.0037  155.2299 H   0  0  0  0  0  0  0  0  0  0  0  0
  149.3566  143.0581  156.4339 H   0  0  0  0  0  0  0  0  0  0  0  0
  151.5140  140.8364  158.5482 H   0  0  0  0  0  0  0  0  0  0  0  0
  153.1883  141.8132  160.0852 H   0  0  0  0  0  0  0  0  0  0  0  0
  153.6056  144.2836  160.0219 H   0  0  0  0  0  0  0  0  0  0  0  0
  150.8277  144.8380  157.0212 H   0  0  0  0  0  0  0  0  0  0  0  0
  148.3012  138.5880  156.0938 H   0  0  0  0  0  0  0  0  0  0  0  0
  146.8139  139.4854  155.9048 H   0  0  0  0  0  0  0  0  0  0  0  0
  146.4936  137.1726  155.1596 H   0  0  0  0  0  0  0  0  0  0  0  0
  147.8356  137.2818  154.0415 H   0  0  0  0  0  0  0  0  0  0  0  0
  145.3962  138.9022  153.9159 H   0  0  0  0  0  0  0  0  0  0  0  0
  1  2  1  0  0  0  0
  1 22  1  0  0  0  0
  1 23  1  0  0  0  0
  1 24  1  0  0  0  0
  2  3  1  0  0  0  0
  3  4  2  0  0  0  0
  3  5  1  0  0  0  0
  5  6  1  0  0  0  0
  5 25  1  0  0  0  0
  5 26  1  0  0  0  0
  6 21  1  0  0  0  0
  6  7  1  0  0  0  0
  6 42  1  0  0  0  0
  7  8  1  0  0  0  0
  7 27  1  0  0  0  0
  7 28  1  0  0  0  0
  8  9  1  0  0  0  0
  8 29  1  0  0  0  0
  8 30  1  0  0  0  0
  9 10  1  0  0  0  0
  9 20  1  0  0  0  0
  9 31  1  0  0  0  0
 10 11  1  0  0  0  0
 10 32  1  0  0  0  0
 11 12  2  0  0  0  0
 11 13  1  0  0  0  0
 13 14  1  0  0  0  0
 13 33  1  0  0  0  0
 14 19  1  0  0  0  0
 14 15  2  0  0  0  0
 15 16  1  0  0  0  0
 15 34  1  0  0  0  0
 16 17  2  0  0  0  0
 16 35  1  0  0  0  0
 17 18  1  0  0  0  0
 17 36  1  0  0  0  0
 18 19  2  0  0  0  0
 19 37  1  0  0  0  0
 20 21  1  0  0  0  0
 20 38  1  0  0  0  0
 20 39  1  0  0  0  0
 21 40  1  0  0  0  0
 21 41  1  0  0  0  0
M  CHG  1   2  -1
M  CHG  1   6   1
M  END
> <s_m_source_file>
AV-unprocessed.smi

> <i_m_source_file_index>
1200

> <i_lp_mmshare_version>
43012

> <i_f3d_flags>
0

> <s_epik_input>
W0NIM11bTkhdQyg9TylbQ0gyXU4xW0NIMl1bQ0gyXVtDSF0oW0NIMl1bQ0gyXTEpW05IXUMoPU8pW05IXWMyW2NIXVtjSF1bY0hdbltjSF0y

> <s_epik_cmdline>
J2VwaWtfcHl0aG9uJywgJy1waCcsICc3LjAnLCAnLXRuJywgJzgnLCAnLW1hJywgJzIwMCcsICctbWV0YWxfYmluZGluZycsICctaW1hZScsICc8aW5maWxlLm1hZT4nLCAnLW9tYWUnLCAnPG91dGZpbGUubWFlPic=

> <r_epik_Ionization_Penalty>
6.14345

> <r_epik_Ionization_Penalty_Charging>
6.13946

> <r_epik_Ionization_Penalty_Neutral>
0.00398477

> <r_epik_State_Penalty>
6.94483

> <r_epik_Charging_Adjusted_Penalty>
13.0843

> <i_epik_Tot_Q>
0

> <i_epik_Tot_abs_Q>
2

> <r_epik_Metal_State_Penalty>
2.87819

> <b_epik_Metal_Only>
1

> <s_lp_Force_Field>
OPLS_2005

> <r_lp_Energy>
13.1486

> <b_lp_Chiralities_Consistent>
1

> <s_lp_Variant>
AV-unprocessed.smi:1200-4

> <Gold.Version>
5.8.1

> <Gold.Id.Protein>
6NUR|6NUR_protein|mol2

> <Gold.PLP.Fitness>
38.6552

> <Gold.PLP.PLP>
-33.6977

> <Gold.PLP.part.hbond>
-1.5502

> <Gold.PLP.part.metal>
0.0000

> <Gold.PLP.part.buried>
-3.9147

> <Gold.PLP.part.nonpolar>
-29.2745

> <Gold.PLP.part.repulsive>
0.4142

> <Gold.PLP.ligand.clash>
0.0000

> <Gold.PLP.ligand.torsion>
0.5402

> <Gold.PLP.Chemscore.Hbond>
1.0000

> <Gold.PLP.Chemscore.CHOScore>
1.0000

> <Gold.PLP.Chemscore.Metal>
0.0000

> <Gold.Chemscore.Hbonds>
donor molecule, donor type, donor heavy atom, donor atom, acceptor molecule, acceptor atom, score
      L1  H    13    33       P1  8028  1.00
      L1  C    19    37       P1  8028  1.00

> <Gold.PLP.Chemscore.Internal.Correction>
0.0379

> <Gold.Rescore>
     Score         DG    S(hbond)    S(metal)    S(lipo)     H(rot)  DE(clash)    DE(int)     intcor
     13.87     -16.64       1.24        0.00      95.63       1.63       0.94       1.83       ----

> <Gold.Chemscore.Fitness>
13.8732

> <Gold.Chemscore.DG>
-16.6424

> <Gold.Chemscore.ZeroCoef>
-5.4800

> <Gold.Chemscore.Hbond>
1.2433

> <Gold.Chemscore.Metal>
0.0000

> <Gold.Chemscore.Lipo>
95.6263

> <Gold.Chemscore.Internal_Hbond>
0.0000

> <Gold.Chemscore.DEClash>
0.9389

> <Gold.Chemscore.DEInternal>
1.8303

> <Gold.Chemscore.Rot>
1.6323

> <Gold.Chemscore.Internal.Correction>
   9.000000E+99

> <Gold.Chemscore.Hbonds>
donor molecule, donor type, donor heavy atom, donor atom, acceptor molecule, acceptor atom, score
      L1  H    13    33       P1  8028  0.96

> <Gold.Chemscore.Hbond.Weighted>
-4.1527

> <Gold.Chemscore.Metal.Weighted>
-0.0000

> <Gold.Chemscore.Lipo.Weighted>
-11.1883

> <Gold.Chemscore.Internal_Hbond.Weighted>
0.0000

> <Gold.Chemscore.DEClash.Weighted>
0.9389

> <Gold.Chemscore.DEInternal.Weighted>
1.8303

> <Gold.Chemscore.Rot.Weighted>
4.1786

> <Gold.Chemscore.Internal.Correction.Weighted>
   9.000000E+99

> <Gold.Protein.RotatedTorsions>
[ 6907 6896 6895 6894 ] final    9.31 input  -60.11 | X-H torsion
[ 7974 7965 7964 7962 ] final  -68.53 input  175.53 | X-H torsion
[ 8008 7997 7996 7995 ] final  -49.98 input   59.86 | X-H torsion
[ 10167 10162 10161 10158 ] final  -62.80 input  -65.29 | X-H torsion
[ 10718 10713 10712 10709 ] final  -19.05 input   66.30 | X-H torsion
[ 10763 10752 10751 10750 ] final -142.30 input  -60.55 | X-H torsion
[ 11005 11000 10999 10996 ] final  -87.11 input  -57.11 | X-H torsion

> <Gold.Protein.ActiveResidues>
 VAL166  LYS551  ARG553  GLY616  TRP617  ASP618  TYR619  PRO620  LYS621  CYS622 
 ASP623  PHE694  ASN695  SER759  ASP760  ASP761  ALA762  ILE779  LEU786  VAL792 
 PHE793  MET794  SER795  GLU796  ALA797  LYS798  CYS799  TRP800  GLU811  SER814 

> <Gold.Protein.RotatedAtoms>
  151.7202  135.0896  160.0282 H   0  0  0  0  0  0  0  0  0  0  0  0  # atno 6907 bound_to 6896
  152.3607  133.6289  159.6021 H   0  0  0  0  0  0  0  0  0  0  0  0  # atno 6908 bound_to 6896
  150.7602  133.9345  159.3478 H   0  0  0  0  0  0  0  0  0  0  0  0  # atno 6909 bound_to 6896
  145.7153  140.9061  143.0659 H   0  0  0  0  0  0  0  0  0  0  0  0  # atno 7974 bound_to 7965
  154.4053  140.1283  156.4591 H   0  0  0  0  0  0  0  0  0  0  0  0  # atno 8008 bound_to 7997
  155.7291  140.3491  155.5031 H   0  0  0  0  0  0  0  0  0  0  0  0  # atno 8009 bound_to 7997
  155.9144  140.1041  157.1245 H   0  0  0  0  0  0  0  0  0  0  0  0  # atno 8010 bound_to 7997
  140.5914  143.2342  151.6131 H   0  0  0  0  0  0  0  0  0  0  0  0  # atno 10167 bound_to 10162
  156.5511  130.4702  149.6452 H   0  0  0  0  0  0  0  0  0  0  0  0  # atno 10718 bound_to 10713
  154.8514  135.3500  154.6005 H   0  0  0  0  0  0  0  0  0  0  0  0  # atno 10763 bound_to 10752
  153.6614  135.6989  153.5181 H   0  0  0  0  0  0  0  0  0  0  0  0  # atno 10764 bound_to 10752
  153.2815  135.4262  155.1040 H   0  0  0  0  0  0  0  0  0  0  0  0  # atno 10765 bound_to 10752
  141.1621  133.7493  156.9259 H   0  0  0  0  0  0  0  0  0  0  0  0  # atno 11005 bound_to 11000
  144.6931  139.9130  143.7464 LP  0  0  0  0  0  0  0  0  0  0  0  0  # atno 17320 bound_to 7965
  146.0675  139.3665  143.0543 LP  0  0  0  0  0  0  0  0  0  0  0  0  # atno 17321 bound_to 7965
  139.5230  144.3146  152.0963 LP  0  0  0  0  0  0  0  0  0  0  0  0  # atno 17342 bound_to 10162
  140.2311  144.4367  150.6299 LP  0  0  0  0  0  0  0  0  0  0  0  0  # atno 17343 bound_to 10162
  156.2884  130.7110  151.1953 LP  0  0  0  0  0  0  0  0  0  0  0  0  # atno 17370 bound_to 10713
  157.7387  131.0537  150.5276 LP  0  0  0  0  0  0  0  0  0  0  0  0  # atno 17371 bound_to 10713
  140.1419  134.9288  157.2478 LP  0  0  0  0  0  0  0  0  0  0  0  0  # atno 17394 bound_to 11000
  140.2826  134.3332  155.7338 LP  0  0  0  0  0  0  0  0  0  0  0  0  # atno 17395 bound_to 11000

$$$$
