AV-unprocessed.smi:234|AV-procd|sdf|1796|dock9
  -GOLD-   2262020363D 1   1.00000     0.00000
 Structure written by MMmdl.
 59 62  0  0  0  0  0  0  0  0  1 V2000
  147.6536  140.7385  153.4858 C   0  0  0  0  0  0  0  0  0  0  0  0
  147.7168  142.0182  154.3226 C   0  0  0  0  0  0  0  0  0  0  0  0
  148.4452  141.7519  155.5098 O   0  0  0  0  0  0  0  0  0  0  0  0
  149.8045  141.4037  155.2720 C   0  0  1  0  0  0  0  0  0  0  0  0
  150.7087  142.2346  156.1836 C   0  0  0  0  0  0  0  0  0  0  0  0
  150.5657  141.1056  157.2091 C   0  0  2  0  0  0  0  0  0  0  0  0
  151.7972  140.8505  157.9649 N   0  0  0  0  0  0  0  0  0  0  0  0
  152.2778  141.9110  158.8458 C   0  0  0  0  0  0  0  0  0  0  0  0
  151.9391  139.6327  158.5440 C   0  0  0  0  0  0  0  0  0  0  0  0
  150.8774  138.7885  158.6328 N   0  0  0  0  0  0  0  0  0  0  0  0
  151.0159  137.5939  159.2148 C   0  0  0  0  0  0  0  0  0  0  0  0
  152.1031  137.0590  159.7738 N   0  0  0  0  0  0  0  0  0  0  0  0
  153.1665  137.9102  159.7040 C   0  0  0  0  0  0  0  0  0  0  0  0
  153.1707  139.2029  159.1090 C   0  0  0  0  0  0  0  0  0  0  0  0
  154.4346  139.7698  159.2118 N   0  0  0  0  0  0  0  0  0  0  0  0
  155.1373  138.8651  159.8369 C   0  0  0  0  0  0  0  0  0  0  0  0
  154.4509  137.7231  160.1859 N   0  0  0  0  0  0  0  0  0  0  0  0
  154.9870  136.5681  160.8908 C   0  0  0  0  0  0  0  0  0  0  0  0
  155.4889  136.8517  162.3340 C   0  0  1  0  0  0  0  0  0  0  0  0
  156.6218  137.6900  162.1999 O   0  0  0  0  0  0  0  0  0  0  0  0
  154.4543  137.5309  163.2290 C   0  0  0  0  0  0  0  0  0  0  0  0
  153.7988  136.3818  164.0014 C   0  0  0  0  0  0  0  0  0  0  0  0
  154.5657  135.2146  163.7194 O   0  0  0  0  0  0  0  0  0  0  0  0
  155.8131  135.5768  163.1396 C   0  0  2  0  0  0  0  0  0  0  0  0
  156.8312  135.7509  164.2839 C   0  0  0  0  0  0  0  0  0  0  0  0
  150.2872  140.1328  156.0242 C   0  0  0  0  0  0  0  0  0  0  0  0
  149.2379  139.0414  156.2559 C   0  0  0  0  0  0  0  0  0  0  0  0
  151.4954  139.4416  155.3698 C   0  0  0  0  0  0  0  0  0  0  0  0
  147.1007  140.9041  152.5611 H   0  0  0  0  0  0  0  0  0  0  0  0
  147.1577  139.9366  154.0334 H   0  0  0  0  0  0  0  0  0  0  0  0
  148.6538  140.3949  153.2208 H   0  0  0  0  0  0  0  0  0  0  0  0
  148.1909  142.8141  153.7482 H   0  0  0  0  0  0  0  0  0  0  0  0
  146.7080  142.3502  154.5721 H   0  0  0  0  0  0  0  0  0  0  0  0
  150.1004  141.4618  154.2229 H   0  0  0  0  0  0  0  0  0  0  0  0
  151.7202  142.3500  155.7903 H   0  0  0  0  0  0  0  0  0  0  0  0
  150.2890  143.1910  156.4971 H   0  0  0  0  0  0  0  0  0  0  0  0
  149.6861  141.2542  157.8386 H   0  0  0  0  0  0  0  0  0  0  0  0
  152.1840  141.6400  159.8989 H   0  0  0  0  0  0  0  0  0  0  0  0
  151.7217  142.8368  158.6981 H   0  0  0  0  0  0  0  0  0  0  0  0
  153.3283  142.1168  158.6401 H   0  0  0  0  0  0  0  0  0  0  0  0
  150.1276  136.9800  159.2370 H   0  0  0  0  0  0  0  0  0  0  0  0
  156.1818  139.0119  160.0706 H   0  0  0  0  0  0  0  0  0  0  0  0
  154.2179  135.7947  160.9086 H   0  0  0  0  0  0  0  0  0  0  0  0
  155.8029  136.1656  160.2886 H   0  0  0  0  0  0  0  0  0  0  0  0
  157.1303  137.3904  161.4620 H   0  0  0  0  0  0  0  0  0  0  0  0
  154.9438  138.1949  163.9433 H   0  0  0  0  0  0  0  0  0  0  0  0
  153.7366  138.1358  162.6750 H   0  0  0  0  0  0  0  0  0  0  0  0
  153.7986  136.5813  165.0734 H   0  0  0  0  0  0  0  0  0  0  0  0
  152.7666  136.2206  163.6904 H   0  0  0  0  0  0  0  0  0  0  0  0
  156.1690  134.7776  162.4900 H   0  0  0  0  0  0  0  0  0  0  0  0
  157.8220  135.9947  163.9003 H   0  0  0  0  0  0  0  0  0  0  0  0
  156.9246  134.8286  164.8574 H   0  0  0  0  0  0  0  0  0  0  0  0
  156.5373  136.5403  164.9758 H   0  0  0  0  0  0  0  0  0  0  0  0
  149.6357  138.2143  156.8435 H   0  0  0  0  0  0  0  0  0  0  0  0
  148.8839  138.6219  155.3144 H   0  0  0  0  0  0  0  0  0  0  0  0
  148.3689  139.4252  156.7909 H   0  0  0  0  0  0  0  0  0  0  0  0
  151.8780  138.6266  155.9848 H   0  0  0  0  0  0  0  0  0  0  0  0
  152.3228  140.1311  155.2021 H   0  0  0  0  0  0  0  0  0  0  0  0
  151.2323  139.0185  154.3998 H   0  0  0  0  0  0  0  0  0  0  0  0
  1  2  1  0  0  0  0
  1 29  1  0  0  0  0
  1 30  1  0  0  0  0
  1 31  1  0  0  0  0
  2  3  1  0  0  0  0
  2 32  1  0  0  0  0
  2 33  1  0  0  0  0
  3  4  1  0  0  0  0
  4 26  1  0  0  0  0
  4  5  1  0  0  0  0
  4 34  1  0  0  0  0
  5  6  1  0  0  0  0
  5 35  1  0  0  0  0
  5 36  1  0  0  0  0
  6  7  1  0  0  0  0
  6 26  1  0  0  0  0
  6 37  1  0  0  0  0
  7  8  1  0  0  0  0
  7  9  1  0  0  0  0
  8 38  1  0  0  0  0
  8 39  1  0  0  0  0
  8 40  1  0  0  0  0
  9 14  1  0  0  0  0
  9 10  2  0  0  0  0
 10 11  1  0  0  0  0
 11 12  2  0  0  0  0
 11 41  1  0  0  0  0
 12 13  1  0  0  0  0
 13 17  1  0  0  0  0
 13 14  2  0  0  0  0
 14 15  1  0  0  0  0
 15 16  2  0  0  0  0
 16 17  1  0  0  0  0
 16 42  1  0  0  0  0
 17 18  1  0  0  0  0
 18 19  1  0  0  0  0
 18 43  1  0  0  0  0
 18 44  1  0  0  0  0
 19 24  1  0  0  0  0
 19 20  1  0  0  0  0
 19 21  1  0  0  0  0
 20 45  1  0  0  0  0
 21 22  1  0  0  0  0
 21 46  1  0  0  0  0
 21 47  1  0  0  0  0
 22 23  1  0  0  0  0
 22 48  1  0  0  0  0
 22 49  1  0  0  0  0
 23 24  1  0  0  0  0
 24 25  1  0  0  0  0
 24 50  1  0  0  0  0
 25 51  1  0  0  0  0
 25 52  1  0  0  0  0
 25 53  1  0  0  0  0
 26 27  1  0  0  0  0
 26 28  1  0  0  0  0
 27 54  1  0  0  0  0
 27 55  1  0  0  0  0
 27 56  1  0  0  0  0
 28 57  1  0  0  0  0
 28 58  1  0  0  0  0
 28 59  1  0  0  0  0
M  END
> <s_m_source_file>
AV-unprocessed.smi

> <i_m_source_file_index>
234

> <i_lp_mmshare_version>
43012

> <i_f3d_flags>
0

> <s_epik_input>
W0NIM11bQ0gyXU9bQ0BASF0oQzEoW0NIM10pW0NIM10pW0NIMl1bQ0BIXTFOKFtDSDNdKWMobltjSF1uMiljKGMyMyluW2NIXW4zW0NIMl1bQ0BAXTQoW09IXSlbQ0gyXVtDSDJdT1tDQEhdNFtDSDNd

> <s_epik_cmdline>
J2VwaWtfcHl0aG9uJywgJy1waCcsICc3LjAnLCAnLXRuJywgJzgnLCAnLW1hJywgJzIwMCcsICctbWV0YWxfYmluZGluZycsICctaW1hZScsICc8aW5maWxlLm1hZT4nLCAnLW9tYWUnLCAnPG91dGZpbGUubWFlPic=

> <r_lp_tautomer_probability>
1

> <r_epik_Ionization_Penalty>
0.00349132

> <r_epik_Ionization_Penalty_Charging>
0

> <r_epik_Ionization_Penalty_Neutral>
0.00349132

> <r_epik_State_Penalty>
0.00242418

> <r_epik_Charging_Adjusted_Penalty>
0.00242418

> <i_epik_Tot_Q>
0

> <i_epik_Tot_abs_Q>
0

> <r_epik_Metal_State_Penalty>
-0

> <b_epik_Metal_Only>
0

> <s_lp_Force_Field>
OPLS_2005

> <r_lp_Energy>
50.3749

> <b_lp_Chiralities_Consistent>
1

> <s_lp_Variant>
AV-unprocessed.smi:234-12

> <Gold.Version>
5.8.1

> <Gold.Id.Protein>
6NUR|6NUR_protein|mol2

> <Gold.PLP.Fitness>
44.2658

> <Gold.PLP.PLP>
-39.5966

> <Gold.PLP.part.hbond>
-2.0000

> <Gold.PLP.part.metal>
0.0000

> <Gold.PLP.part.buried>
-4.2129

> <Gold.PLP.part.nonpolar>
-33.1617

> <Gold.PLP.part.repulsive>
0.7507

> <Gold.PLP.ligand.clash>
0.0000

> <Gold.PLP.ligand.torsion>
1.1026

> <Gold.PLP.Chemscore.Hbond>
2.0000

> <Gold.PLP.Chemscore.CHOScore>
0.0000

> <Gold.PLP.Chemscore.Metal>
0.0000

> <Gold.Chemscore.Hbonds>
donor molecule, donor type, donor heavy atom, donor atom, acceptor molecule, acceptor atom, score
      P1  H  6896  6909       L1    12  1.00
      P1  H  7997  8009       L1    15  1.00

> <Gold.PLP.Chemscore.Internal.Correction>
0.8745

> <Gold.Rescore>
     Score         DG    S(hbond)    S(metal)    S(lipo)     H(rot)  DE(clash)    DE(int)     intcor
      6.92     -11.43       0.50        0.00      93.94       2.62       0.30       4.20       ----

> <Gold.Chemscore.Fitness>
6.9216

> <Gold.Chemscore.DG>
-11.4286

> <Gold.Chemscore.ZeroCoef>
-5.4800

> <Gold.Chemscore.Hbond>
0.5000

> <Gold.Chemscore.Metal>
0.0000

> <Gold.Chemscore.Lipo>
93.9373

> <Gold.Chemscore.Internal_Hbond>
0.0000

> <Gold.Chemscore.DEClash>
0.3034

> <Gold.Chemscore.DEInternal>
4.2036

> <Gold.Chemscore.Rot>
2.6219

> <Gold.Chemscore.Internal.Correction>
   9.000000E+99

> <Gold.Chemscore.Hbonds>
donor molecule, donor type, donor heavy atom, donor atom, acceptor molecule, acceptor atom, score
      P1  H  6896  6909       L1    12  0.69
      P1  H  7997  8009       L1    15  0.39

> <Gold.Chemscore.Hbond.Weighted>
-1.6700

> <Gold.Chemscore.Metal.Weighted>
-0.0000

> <Gold.Chemscore.Lipo.Weighted>
-10.9907

> <Gold.Chemscore.Internal_Hbond.Weighted>
0.0000

> <Gold.Chemscore.DEClash.Weighted>
0.3034

> <Gold.Chemscore.DEInternal.Weighted>
4.2036

> <Gold.Chemscore.Rot.Weighted>
6.7121

> <Gold.Chemscore.Internal.Correction.Weighted>
   9.000000E+99

> <Gold.Protein.RotatedTorsions>
[ 6907 6896 6895 6894 ] final  133.36 input  -60.11 | X-H torsion
[ 7974 7965 7964 7962 ] final   73.27 input  175.53 | X-H torsion
[ 8008 7997 7996 7995 ] final  124.38 input   59.86 | X-H torsion
[ 10167 10162 10161 10158 ] final  -22.10 input  -65.29 | X-H torsion
[ 10718 10713 10712 10709 ] final  179.94 input   66.30 | X-H torsion
[ 10763 10752 10751 10750 ] final -126.34 input  -60.55 | X-H torsion
[ 11005 11000 10999 10996 ] final  -23.36 input  -57.11 | X-H torsion

> <Gold.Protein.ActiveResidues>
 VAL166  LYS551  ARG553  GLY616  TRP617  ASP618  TYR619  PRO620  LYS621  CYS622 
 ASP623  PHE694  ASN695  SER759  ASP760  ASP761  ALA762  ILE779  LEU786  VAL792 
 PHE793  MET794  SER795  GLU796  ALA797  LYS798  CYS799  TRP800  GLU811  SER814 

> <Gold.Protein.RotatedAtoms>
  152.3227  133.5871  159.5755 H   0  0  0  0  0  0  0  0  0  0  0  0  # atno 6907 bound_to 6896
  150.7380  133.9987  159.3640 H   0  0  0  0  0  0  0  0  0  0  0  0  # atno 6908 bound_to 6896
  151.7869  135.0747  160.0433 H   0  0  0  0  0  0  0  0  0  0  0  0  # atno 6909 bound_to 6896
  145.7429  139.2728  143.1476 H   0  0  0  0  0  0  0  0  0  0  0  0  # atno 7974 bound_to 7965
  156.2799  140.2741  156.1779 H   0  0  0  0  0  0  0  0  0  0  0  0  # atno 8008 bound_to 7997
  155.0587  140.0386  157.2587 H   0  0  0  0  0  0  0  0  0  0  0  0  # atno 8009 bound_to 7997
  154.7135  140.2673  155.6613 H   0  0  0  0  0  0  0  0  0  0  0  0  # atno 8010 bound_to 7997
  140.7285  143.4566  151.0439 H   0  0  0  0  0  0  0  0  0  0  0  0  # atno 10167 bound_to 10162
  156.8684  130.9775  151.3076 H   0  0  0  0  0  0  0  0  0  0  0  0  # atno 10718 bound_to 10713
  154.8744  135.3999  154.3415 H   0  0  0  0  0  0  0  0  0  0  0  0  # atno 10763 bound_to 10752
  153.4213  135.7023  153.6297 H   0  0  0  0  0  0  0  0  0  0  0  0  # atno 10764 bound_to 10752
  153.4958  135.3738  155.2485 H   0  0  0  0  0  0  0  0  0  0  0  0  # atno 10765 bound_to 10752
  140.8745  133.7697  156.0226 H   0  0  0  0  0  0  0  0  0  0  0  0  # atno 11005 bound_to 11000
  146.0430  140.8146  142.9819 LP  0  0  0  0  0  0  0  0  0  0  0  0  # atno 17320 bound_to 7965
  144.6866  140.2939  143.7274 LP  0  0  0  0  0  0  0  0  0  0  0  0  # atno 17321 bound_to 7965
  139.8247  143.7772  152.3178 LP  0  0  0  0  0  0  0  0  0  0  0  0  # atno 17342 bound_to 10162
  139.7867  144.7425  151.0012 LP  0  0  0  0  0  0  0  0  0  0  0  0  # atno 17343 bound_to 10162
  157.6210  130.8655  149.9109 LP  0  0  0  0  0  0  0  0  0  0  0  0  # atno 17370 bound_to 10713
  156.0739  130.3681  150.0717 LP  0  0  0  0  0  0  0  0  0  0  0  0  # atno 17371 bound_to 10713
  140.8535  134.2926  157.5265 LP  0  0  0  0  0  0  0  0  0  0  0  0  # atno 17394 bound_to 11000
  139.8714  134.9480  156.3984 LP  0  0  0  0  0  0  0  0  0  0  0  0  # atno 17395 bound_to 11000

$$$$
