AV-unprocessed.smi:2765|AV-procd|sdf|10644|dock4
  -GOLD-   2272015 93D 1   1.00000     0.00000
 Structure written by MMmdl.
 45 46  0  0  0  0  0  0  0  0  2 V2000
  147.7380  139.2800  155.6191 C   0  0  0  0  0  0  0  0  0  0  0  0
  148.4134  138.6933  154.3600 C   0  0  0  0  0  0  0  0  0  0  0  0
  147.3548  138.7213  153.2403 C   0  0  0  0  0  0  0  0  0  0  0  0
  149.6253  139.5391  153.8947 C   0  0  0  0  0  0  0  0  0  0  0  0
  150.9279  139.3090  154.6852 C   0  0  0  0  0  0  0  0  0  0  0  0
  150.9427  139.9550  155.9962 N   0  0  0  0  0  0  0  0  0  0  0  0
  151.9325  139.8647  156.8971 C   0  0  0  0  0  0  0  0  0  0  0  0
  152.9634  139.2189  156.7076 O   0  0  0  0  0  0  0  0  0  0  0  0
  151.6468  140.5681  158.0072 N   0  0  0  0  0  0  0  0  0  0  0  0
  152.4352  140.7140  159.1798 C   0  0  0  0  0  0  0  0  0  0  0  0
  152.2367  141.9210  159.8882 C   0  0  0  0  0  0  0  0  0  0  0  0
  152.9696  142.1613  161.0670 C   0  0  0  0  0  0  0  0  0  0  0  0
  153.8825  141.1858  161.5057 C   0  0  0  0  0  0  0  0  0  0  0  0
  154.6089  141.3717  162.6333 F   0  0  0  0  0  0  0  0  0  0  0  0
  154.0214  140.0118  160.7427 C   0  0  0  0  0  0  0  0  0  0  0  0
  153.3199  139.7808  159.6125 N   0  0  0  0  0  0  0  0  0  0  0  0
  151.2365  137.8061  154.7775 C   0  0  0  0  0  0  0  0  0  0  0  0
  150.0597  136.9183  155.2589 C   0  0  0  0  0  0  0  0  0  0  0  0
  150.3859  135.4578  154.8903 C   0  0  0  0  0  0  0  0  0  0  0  0
  149.8835  136.9568  156.7931 C   0  0  0  0  0  0  0  0  0  0  0  0
  148.7935  137.2654  154.5535 N   0  3  0  0  0  0  0  0  0  0  0  0
  147.3147  140.2627  155.4076 H   0  0  0  0  0  0  0  0  0  0  0  0
  148.4149  139.4210  156.4551 H   0  0  0  0  0  0  0  0  0  0  0  0
  146.9215  138.6443  155.9628 H   0  0  0  0  0  0  0  0  0  0  0  0
  147.0332  139.7403  153.0203 H   0  0  0  0  0  0  0  0  0  0  0  0
  146.4666  138.1507  153.5155 H   0  0  0  0  0  0  0  0  0  0  0  0
  147.7391  138.2945  152.3127 H   0  0  0  0  0  0  0  0  0  0  0  0
  149.8420  139.2873  152.8553 H   0  0  0  0  0  0  0  0  0  0  0  0
  149.3641  140.5981  153.8795 H   0  0  0  0  0  0  0  0  0  0  0  0
  151.7422  139.7626  154.1165 H   0  0  0  0  0  0  0  0  0  0  0  0
  150.1309  140.5027  156.2416 H   0  0  0  0  0  0  0  0  0  0  0  0
  150.7611  141.0515  158.0183 H   0  0  0  0  0  0  0  0  0  0  0  0
  151.5301  142.6590  159.5367 H   0  0  0  0  0  0  0  0  0  0  0  0
  152.8323  143.0769  161.6230 H   0  0  0  0  0  0  0  0  0  0  0  0
  154.7117  139.2383  161.0460 H   0  0  0  0  0  0  0  0  0  0  0  0
  151.5255  137.4821  153.7763 H   0  0  0  0  0  0  0  0  0  0  0  0
  152.1187  137.6390  155.3976 H   0  0  0  0  0  0  0  0  0  0  0  0
  151.3213  135.1304  155.3462 H   0  0  0  0  0  0  0  0  0  0  0  0
  150.4877  135.3291  153.8117 H   0  0  0  0  0  0  0  0  0  0  0  0
  149.6031  134.7756  155.2247 H   0  0  0  0  0  0  0  0  0  0  0  0
  150.7619  136.5486  157.2944 H   0  0  0  0  0  0  0  0  0  0  0  0
  149.0268  136.3596  157.1073 H   0  0  0  0  0  0  0  0  0  0  0  0
  149.7459  137.9553  157.1943 H   0  0  0  0  0  0  0  0  0  0  0  0
  148.0267  136.7785  154.9952 H   0  0  0  0  0  0  0  0  0  0  0  0
  148.8969  136.8900  153.6217 H   0  0  0  0  0  0  0  0  0  0  0  0
  1  2  1  0  0  0  0
  1 22  1  0  0  0  0
  1 23  1  0  0  0  0
  1 24  1  0  0  0  0
  2 21  1  0  0  0  0
  2  3  1  0  0  0  0
  2  4  1  0  0  0  0
  3 25  1  0  0  0  0
  3 26  1  0  0  0  0
  3 27  1  0  0  0  0
  4  5  1  0  0  0  0
  4 28  1  0  0  0  0
  4 29  1  0  0  0  0
  5  6  1  0  0  0  0
  5 17  1  0  0  0  0
  5 30  1  0  0  0  0
  6  7  1  0  0  0  0
  6 31  1  0  0  0  0
  7  8  2  0  0  0  0
  7  9  1  0  0  0  0
  9 10  1  0  0  0  0
  9 32  1  0  0  0  0
 10 16  1  0  0  0  0
 10 11  2  0  0  0  0
 11 12  1  0  0  0  0
 11 33  1  0  0  0  0
 12 13  2  0  0  0  0
 12 34  1  0  0  0  0
 13 14  1  0  0  0  0
 13 15  1  0  0  0  0
 15 16  2  0  0  0  0
 15 35  1  0  0  0  0
 17 18  1  0  0  0  0
 17 36  1  0  0  0  0
 17 37  1  0  0  0  0
 18 19  1  0  0  0  0
 18 20  1  0  0  0  0
 18 21  1  0  0  0  0
 19 38  1  0  0  0  0
 19 39  1  0  0  0  0
 19 40  1  0  0  0  0
 20 41  1  0  0  0  0
 20 42  1  0  0  0  0
 20 43  1  0  0  0  0
 21 44  1  0  0  0  0
 21 45  1  0  0  0  0
M  CHG  1  21   1
M  END
> <s_m_source_file>
AV-unprocessed.smi

> <i_m_source_file_index>
2765

> <i_lp_mmshare_version>
43012

> <i_f3d_flags>
0

> <s_epik_input>
W0NIM11DMShbQ0gzXSlbQ0gyXVtDSF0oW0NIMl1DKFtDSDNdKShbQ0gzXSlbTkhdMSlbTkhdQyg9TylbTkhdYzJbY0hdW2NIXWMoRilbY0hdbjI=

> <s_epik_cmdline>
J2VwaWtfcHl0aG9uJywgJy1waCcsICc3LjAnLCAnLXRuJywgJzgnLCAnLW1hJywgJzIwMCcsICctbWV0YWxfYmluZGluZycsICctaW1hZScsICc8aW5maWxlLm1hZT4nLCAnLW9tYWUnLCAnPG91dGZpbGUubWFlPic=

> <r_lp_tautomer_probability>
1

> <r_epik_Ionization_Penalty>
0.000124854

> <r_epik_Ionization_Penalty_Charging>
9.44458e-05

> <r_epik_Ionization_Penalty_Neutral>
3.0408e-05

> <r_epik_State_Penalty>
-0

> <r_epik_Charging_Adjusted_Penalty>
9.44458e-05

> <i_epik_Tot_Q>
1

> <i_epik_Tot_abs_Q>
1

> <r_epik_Metal_State_Penalty>
-0

> <b_epik_Metal_Only>
0

> <s_lp_Force_Field>
OPLS_2005

> <r_lp_Energy>
29.8768

> <b_lp_Chiralities_Consistent>
1

> <s_lp_Variant>
AV-unprocessed.smi:2765-1

> <Gold.Version>
5.8.1

> <Gold.Id.Protein>
6NUR|6NUR_protein|mol2

> <Gold.PLP.Fitness>
40.2169

> <Gold.PLP.PLP>
-31.6145

> <Gold.PLP.part.hbond>
-2.0000

> <Gold.PLP.part.metal>
0.0000

> <Gold.PLP.part.buried>
2.3823

> <Gold.PLP.part.nonpolar>
-32.1798

> <Gold.PLP.part.repulsive>
0.1866

> <Gold.PLP.ligand.clash>
0.0000

> <Gold.PLP.ligand.torsion>
0.2081

> <Gold.PLP.Chemscore.Hbond>
3.0000

> <Gold.PLP.Chemscore.CHOScore>
0.0000

> <Gold.PLP.Chemscore.Metal>
0.0000

> <Gold.Chemscore.Hbonds>
donor molecule, donor type, donor heavy atom, donor atom, acceptor molecule, acceptor atom, score
      L1  H    21    45       P1  7948  2.00
      P1  H  7997  8009       L1     8  1.00

> <Gold.PLP.Chemscore.Internal.Correction>
0.0185

> <Gold.Rescore>
     Score         DG    S(hbond)    S(metal)    S(lipo)     H(rot)  DE(clash)    DE(int)     intcor
     16.19     -18.90       1.99        0.00      79.79       1.00       0.78       1.94       ----

> <Gold.Chemscore.Fitness>
16.1876

> <Gold.Chemscore.DG>
-18.9048

> <Gold.Chemscore.ZeroCoef>
-5.4800

> <Gold.Chemscore.Hbond>
1.9910

> <Gold.Chemscore.Metal>
0.0000

> <Gold.Chemscore.Lipo>
79.7852

> <Gold.Chemscore.Internal_Hbond>
0.0000

> <Gold.Chemscore.DEClash>
0.7771

> <Gold.Chemscore.DEInternal>
1.9400

> <Gold.Chemscore.Rot>
1.0000

> <Gold.Chemscore.Internal.Correction>
   9.000000E+99

> <Gold.Chemscore.Hbonds>
donor molecule, donor type, donor heavy atom, donor atom, acceptor molecule, acceptor atom, score
      L1  H    21    45       P1  7948  1.00
      P1  H  7997  8009       L1     8  0.94

> <Gold.Chemscore.Hbond.Weighted>
-6.6499

> <Gold.Chemscore.Metal.Weighted>
-0.0000

> <Gold.Chemscore.Lipo.Weighted>
-9.3349

> <Gold.Chemscore.Internal_Hbond.Weighted>
0.0000

> <Gold.Chemscore.DEClash.Weighted>
0.7771

> <Gold.Chemscore.DEInternal.Weighted>
1.9400

> <Gold.Chemscore.Rot.Weighted>
2.5600

> <Gold.Chemscore.Internal.Correction.Weighted>
   9.000000E+99

> <Gold.Protein.RotatedTorsions>
[ 6907 6896 6895 6894 ] final   38.97 input  -60.11 | X-H torsion
[ 7974 7965 7964 7962 ] final -161.78 input  175.53 | X-H torsion
[ 8008 7997 7996 7995 ] final  177.59 input   59.86 | X-H torsion
[ 10167 10162 10161 10158 ] final   91.42 input  -65.29 | X-H torsion
[ 10718 10713 10712 10709 ] final  -61.46 input   66.30 | X-H torsion
[ 10763 10752 10751 10750 ] final  137.00 input  -60.55 | X-H torsion
[ 11005 11000 10999 10996 ] final  108.99 input  -57.11 | X-H torsion

> <Gold.Protein.ActiveResidues>
 VAL166  LYS551  ARG553  GLY616  TRP617  ASP618  TYR619  PRO620  LYS621  CYS622 
 ASP623  PHE694  ASN695  SER759  ASP760  ASP761  ALA762  ILE779  LEU786  VAL792 
 PHE793  MET794  SER795  GLU796  ALA797  LYS798  CYS799  TRP800  GLU811  SER814 

> <Gold.Protein.RotatedAtoms>
  152.1635  134.8893  160.0539 H   0  0  0  0  0  0  0  0  0  0  0  0  # atno 6907 bound_to 6896
  151.9880  133.3776  159.4141 H   0  0  0  0  0  0  0  0  0  0  0  0  # atno 6908 bound_to 6896
  150.6891  134.3890  159.5112 H   0  0  0  0  0  0  0  0  0  0  0  0  # atno 6909 bound_to 6896
  144.7379  140.3348  143.6146 H   0  0  0  0  0  0  0  0  0  0  0  0  # atno 7974 bound_to 7965
  156.0640  140.1354  156.9907 H   0  0  0  0  0  0  0  0  0  0  0  0  # atno 8008 bound_to 7997
  154.4496  140.0985  156.6631 H   0  0  0  0  0  0  0  0  0  0  0  0  # atno 8009 bound_to 7997
  155.5333  140.3459  155.4433 H   0  0  0  0  0  0  0  0  0  0  0  0  # atno 8010 bound_to 7997
  139.8376  144.6657  150.9322 H   0  0  0  0  0  0  0  0  0  0  0  0  # atno 10167 bound_to 10162
  156.0920  130.4198  150.0997 H   0  0  0  0  0  0  0  0  0  0  0  0  # atno 10718 bound_to 10713
  153.8659  135.3061  155.3440 H   0  0  0  0  0  0  0  0  0  0  0  0  # atno 10763 bound_to 10752
  154.7828  135.4826  153.9883 H   0  0  0  0  0  0  0  0  0  0  0  0  # atno 10764 bound_to 10752
  153.1434  135.6829  153.9086 H   0  0  0  0  0  0  0  0  0  0  0  0  # atno 10765 bound_to 10752
  139.8854  134.9446  156.6057 H   0  0  0  0  0  0  0  0  0  0  0  0  # atno 11005 bound_to 11000
  145.7434  139.1771  143.2363 LP  0  0  0  0  0  0  0  0  0  0  0  0  # atno 17320 bound_to 7965
  146.1116  140.7421  142.9500 LP  0  0  0  0  0  0  0  0  0  0  0  0  # atno 17321 bound_to 7965
  140.7801  143.3942  151.1258 LP  0  0  0  0  0  0  0  0  0  0  0  0  # atno 17342 bound_to 10162
  139.7591  143.8663  152.3096 LP  0  0  0  0  0  0  0  0  0  0  0  0  # atno 17343 bound_to 10162
  156.9004  130.9618  151.3577 LP  0  0  0  0  0  0  0  0  0  0  0  0  # atno 17370 bound_to 10713
  157.6072  130.8556  149.8894 LP  0  0  0  0  0  0  0  0  0  0  0  0  # atno 17371 bound_to 10713
  140.7850  133.8629  155.8598 LP  0  0  0  0  0  0  0  0  0  0  0  0  # atno 17394 bound_to 11000
  140.9727  134.1509  157.4562 LP  0  0  0  0  0  0  0  0  0  0  0  0  # atno 17395 bound_to 11000

$$$$
