AV-unprocessed.smi:1873|AV-procd|sdf|7610|dock6
  -GOLD-   22720 9333D 1   1.00000     0.00000
 Structure written by MMmdl.
 37 39  0  0  0  0  0  0  0  0  2 V2000
  146.4035  139.7948  151.3729 O   0  0  0  0  0  0  0  0  0  0  0  0
  146.8319  138.7214  152.1894 C   0  0  1  0  0  0  0  0  0  0  0  0
  146.5943  139.0528  153.6761 C   0  0  0  0  0  0  0  0  0  0  0  0
  147.3872  140.1993  154.1426 N   0  0  0  0  0  0  0  0  0  0  0  0
  147.0581  141.5185  154.1942 C   0  0  0  0  0  0  0  0  0  0  0  0
  148.1285  142.1904  154.7016 N   0  3  0  0  0  0  0  0  0  0  0  0
  149.1569  141.2879  154.9797 C   0  0  0  0  0  0  0  0  0  0  0  0
  150.4300  141.4913  155.5032 C   0  0  0  0  0  0  0  0  0  0  0  0
  151.2377  140.3466  155.6662 C   0  0  0  0  0  0  0  0  0  0  0  0
  150.7715  139.0629  155.3155 C   0  0  0  0  0  0  0  0  0  0  0  0
  149.4792  138.8685  154.7852 C   0  0  0  0  0  0  0  0  0  0  0  0
  148.6873  140.0054  154.6243 C   0  0  0  0  0  0  0  0  0  0  0  0
  146.1682  137.4069  151.8102 C   0  0  0  0  0  0  0  0  0  0  0  0
  145.9273  137.1048  150.4539 C   0  0  0  0  0  0  0  0  0  0  0  0
  145.3253  135.8837  150.0945 C   0  0  0  0  0  0  0  0  0  0  0  0
  144.9501  134.9497  151.0810 C   0  0  0  0  0  0  0  0  0  0  0  0
  144.3795  133.7686  150.6634 O   0  0  0  0  0  0  0  0  0  0  0  0
  145.0467  132.6000  150.8581 C   0  0  0  0  0  0  0  0  0  0  0  0
  144.1908  131.5575  150.7308 F   0  0  0  0  0  0  0  0  0  0  0  0
  146.0179  132.4477  149.9242 F   0  0  0  0  0  0  0  0  0  0  0  0
  145.2057  135.2480  152.4410 C   0  0  0  0  0  0  0  0  0  0  0  0
  145.8088  136.4685  152.8013 C   0  0  0  0  0  0  0  0  0  0  0  0
  145.5465  140.0678  151.6637 H   0  0  0  0  0  0  0  0  0  0  0  0
  147.9055  138.6193  152.0241 H   0  0  0  0  0  0  0  0  0  0  0  0
  145.5391  139.2384  153.8775 H   0  0  0  0  0  0  0  0  0  0  0  0
  146.8755  138.1988  154.2938 H   0  0  0  0  0  0  0  0  0  0  0  0
  146.1179  141.9540  153.8879 H   0  0  0  0  0  0  0  0  0  0  0  0
  150.7886  142.4732  155.7750 H   0  0  0  0  0  0  0  0  0  0  0  0
  152.2338  140.4548  156.0704 H   0  0  0  0  0  0  0  0  0  0  0  0
  151.4173  138.2086  155.4579 H   0  0  0  0  0  0  0  0  0  0  0  0
  149.1306  137.8796  154.5270 H   0  0  0  0  0  0  0  0  0  0  0  0
  146.2074  137.8065  149.6820 H   0  0  0  0  0  0  0  0  0  0  0  0
  145.1489  135.6621  149.0521 H   0  0  0  0  0  0  0  0  0  0  0  0
  145.4880  132.5483  151.8538 H   0  0  0  0  0  0  0  0  0  0  0  0
  144.9518  134.5449  153.2203 H   0  0  0  0  0  0  0  0  0  0  0  0
  146.0003  136.6777  153.8437 H   0  0  0  0  0  0  0  0  0  0  0  0
  148.1524  143.1915  154.8471 H   0  0  0  0  0  0  0  0  0  0  0  0
  1  2  1  0  0  0  0
  1 23  1  0  0  0  0
  2  3  1  0  0  0  0
  2 13  1  0  0  0  0
  2 24  1  0  0  0  0
  3  4  1  0  0  0  0
  3 25  1  0  0  0  0
  3 26  1  0  0  0  0
  4 12  1  0  0  0  0
  4  5  1  0  0  0  0
  5  6  2  0  0  0  0
  5 27  1  0  0  0  0
  6  7  1  0  0  0  0
  6 37  1  0  0  0  0
  7 12  2  0  0  0  0
  7  8  1  0  0  0  0
  8  9  2  0  0  0  0
  8 28  1  0  0  0  0
  9 10  1  0  0  0  0
  9 29  1  0  0  0  0
 10 11  2  0  0  0  0
 10 30  1  0  0  0  0
 11 12  1  0  0  0  0
 11 31  1  0  0  0  0
 13 22  1  0  0  0  0
 13 14  2  0  0  0  0
 14 15  1  0  0  0  0
 14 32  1  0  0  0  0
 15 16  2  0  0  0  0
 15 33  1  0  0  0  0
 16 17  1  0  0  0  0
 16 21  1  0  0  0  0
 17 18  1  0  0  0  0
 18 19  1  0  0  0  0
 18 20  1  0  0  0  0
 18 34  1  0  0  0  0
 21 22  2  0  0  0  0
 21 35  1  0  0  0  0
 22 36  1  0  0  0  0
M  CHG  1   6   1
M  END
> <s_m_source_file>
AV-unprocessed.smi

> <i_m_source_file_index>
1873

> <i_lp_mmshare_version>
43012

> <i_f3d_flags>
0

> <s_epik_input>
RltDSF0oRilPYyhbY0hdW2NIXTEpW2NIXVtjSF1jMVtDQEhdKFtPSF0pW0NIMl1uKFtjSF1uMiljKGMyMylbY0hdW2NIXVtjSF1bY0hdMw==

> <s_epik_cmdline>
J2VwaWtfcHl0aG9uJywgJy1waCcsICc3LjAnLCAnLXRuJywgJzgnLCAnLW1hJywgJzIwMCcsICctbWV0YWxfYmluZGluZycsICctaW1hZScsICc8aW5maWxlLm1hZT4nLCAnLW9tYWUnLCAnPG91dGZpbGUubWFlPic=

> <r_lp_tautomer_probability>
1

> <r_epik_Ionization_Penalty>
1.3029

> <r_epik_Ionization_Penalty_Charging>
1.3029

> <r_epik_Ionization_Penalty_Neutral>
2.50501e-07

> <r_epik_State_Penalty>
1.377

> <r_epik_Charging_Adjusted_Penalty>
2.6799

> <i_epik_Tot_Q>
1

> <i_epik_Tot_abs_Q>
1

> <r_epik_Metal_State_Penalty>
5.40879

> <b_epik_Metal_Only>
0

> <s_lp_Force_Field>
OPLS_2005

> <r_lp_Energy>
16.5832

> <b_lp_Chiralities_Consistent>
1

> <s_lp_Variant>
AV-unprocessed.smi:1873-4

> <Gold.Version>
5.8.1

> <Gold.Id.Protein>
6NUR|6NUR_protein|mol2

> <Gold.PLP.Fitness>
47.2899

> <Gold.PLP.PLP>
-40.5292

> <Gold.PLP.part.hbond>
-3.0240

> <Gold.PLP.part.metal>
0.0000

> <Gold.PLP.part.buried>
5.1229

> <Gold.PLP.part.nonpolar>
-43.5890

> <Gold.PLP.part.repulsive>
0.3288

> <Gold.PLP.ligand.clash>
0.0000

> <Gold.PLP.ligand.torsion>
1.1605

> <Gold.PLP.Chemscore.Hbond>
3.0000

> <Gold.PLP.Chemscore.CHOScore>
0.0000

> <Gold.PLP.Chemscore.Metal>
0.0000

> <Gold.Chemscore.Hbonds>
donor molecule, donor type, donor heavy atom, donor atom, acceptor molecule, acceptor atom, score
      L1  H     1    23       P1 10175  0.91
      L1  H     6    37       P1  8028  2.00

> <Gold.PLP.Chemscore.Internal.Correction>
0.0817

> <Gold.Rescore>
     Score         DG    S(hbond)    S(metal)    S(lipo)     H(rot)  DE(clash)    DE(int)     intcor
     13.18     -15.49       1.80        0.00      88.26       2.47       1.30       1.02       ----

> <Gold.Chemscore.Fitness>
13.1764

> <Gold.Chemscore.DG>
-15.4928

> <Gold.Chemscore.ZeroCoef>
-5.4800

> <Gold.Chemscore.Hbond>
1.7969

> <Gold.Chemscore.Metal>
0.0000

> <Gold.Chemscore.Lipo>
88.2575

> <Gold.Chemscore.Internal_Hbond>
0.0000

> <Gold.Chemscore.DEClash>
1.2979

> <Gold.Chemscore.DEInternal>
1.0184

> <Gold.Chemscore.Rot>
2.4668

> <Gold.Chemscore.Internal.Correction>
   9.000000E+99

> <Gold.Chemscore.Hbonds>
donor molecule, donor type, donor heavy atom, donor atom, acceptor molecule, acceptor atom, score
      L1  H     1    23       P1 10175  0.19
      L1  H     6    37       P1  8028  0.93

> <Gold.Chemscore.Hbond.Weighted>
-6.0017

> <Gold.Chemscore.Metal.Weighted>
-0.0000

> <Gold.Chemscore.Lipo.Weighted>
-10.3261

> <Gold.Chemscore.Internal_Hbond.Weighted>
0.0000

> <Gold.Chemscore.DEClash.Weighted>
1.2979

> <Gold.Chemscore.DEInternal.Weighted>
1.0184

> <Gold.Chemscore.Rot.Weighted>
6.3151

> <Gold.Chemscore.Internal.Correction.Weighted>
   9.000000E+99

> <Gold.Protein.RotatedTorsions>
[ 6907 6896 6895 6894 ] final   53.87 input  -60.11 | X-H torsion
[ 7974 7965 7964 7962 ] final -135.99 input  175.53 | X-H torsion
[ 8008 7997 7996 7995 ] final -167.67 input   59.86 | X-H torsion
[ 10167 10162 10161 10158 ] final    5.02 input  -65.29 | X-H torsion
[ 10718 10713 10712 10709 ] final  -74.01 input   66.30 | X-H torsion
[ 10763 10752 10751 10750 ] final -169.51 input  -60.55 | X-H torsion
[ 11005 11000 10999 10996 ] final -157.06 input  -57.11 | X-H torsion

> <Gold.Protein.ActiveResidues>
 VAL166  LYS551  ARG553  GLY616  TRP617  ASP618  TYR619  PRO620  LYS621  CYS622 
 ASP623  PHE694  ASN695  SER759  ASP760  ASP761  ALA762  ILE779  LEU786  VAL792 
 PHE793  MET794  SER795  GLU796  ALA797  LYS798  CYS799  TRP800  GLU811  SER814 

> <Gold.Protein.RotatedAtoms>
  152.3381  134.7171  160.0271 H   0  0  0  0  0  0  0  0  0  0  0  0  # atno 6907 bound_to 6896
  151.7565  133.3325  159.3414 H   0  0  0  0  0  0  0  0  0  0  0  0  # atno 6908 bound_to 6896
  150.7463  134.6077  159.6114 H   0  0  0  0  0  0  0  0  0  0  0  0  # atno 6909 bound_to 6896
  144.8966  140.6715  143.5111 H   0  0  0  0  0  0  0  0  0  0  0  0  # atno 7974 bound_to 7965
  155.8809  140.1009  157.1486 H   0  0  0  0  0  0  0  0  0  0  0  0  # atno 8008 bound_to 7997
  154.4005  140.1329  156.4259 H   0  0  0  0  0  0  0  0  0  0  0  0  # atno 8009 bound_to 7997
  155.7644  140.3462  155.5216 H   0  0  0  0  0  0  0  0  0  0  0  0  # atno 8010 bound_to 7997
  140.6504  143.7558  150.7566 H   0  0  0  0  0  0  0  0  0  0  0  0  # atno 10167 bound_to 10162
  156.0258  130.4407  150.2828 H   0  0  0  0  0  0  0  0  0  0  0  0  # atno 10718 bound_to 10713
  154.6515  135.2912  154.9981 H   0  0  0  0  0  0  0  0  0  0  0  0  # atno 10763 bound_to 10752
  154.1073  135.6568  153.4882 H   0  0  0  0  0  0  0  0  0  0  0  0  # atno 10764 bound_to 10752
  153.0379  135.5256  154.7425 H   0  0  0  0  0  0  0  0  0  0  0  0  # atno 10765 bound_to 10752
  140.6687  134.4270  157.5232 H   0  0  0  0  0  0  0  0  0  0  0  0  # atno 11005 bound_to 11000
  145.3689  139.1663  143.4342 LP  0  0  0  0  0  0  0  0  0  0  0  0  # atno 17320 bound_to 7965
  146.3085  140.3759  142.8679 LP  0  0  0  0  0  0  0  0  0  0  0  0  # atno 17321 bound_to 7965
  140.1208  143.4614  152.2314 LP  0  0  0  0  0  0  0  0  0  0  0  0  # atno 17342 bound_to 10162
  139.5719  144.7467  151.3868 LP  0  0  0  0  0  0  0  0  0  0  0  0  # atno 17343 bound_to 10162
  157.0932  131.0175  151.3114 LP  0  0  0  0  0  0  0  0  0  0  0  0  # atno 17370 bound_to 10713
  157.4838  130.7781  149.7440 LP  0  0  0  0  0  0  0  0  0  0  0  0  # atno 17371 bound_to 10713
  139.8988  134.8604  156.1984 LP  0  0  0  0  0  0  0  0  0  0  0  0  # atno 17394 bound_to 11000
  141.0409  133.6938  156.1595 LP  0  0  0  0  0  0  0  0  0  0  0  0  # atno 17395 bound_to 11000

$$$$
