AV-unprocessed.smi:2709|AV-procd|sdf|10460|dock10
  -GOLD-   2272014503D 1   1.00000     0.00000
 Structure written by MMmdl.
 40 42  0  0  0  0  0  0  0  0  1 V2000
  150.1996  139.6626  154.7076 C   0  0  0  0  0  0  0  0  0  0  0  0
  148.8767  139.7582  155.2095 O   0  0  0  0  0  0  0  0  0  0  0  0
  147.9882  140.4574  154.3489 C   0  0  2  0  0  0  0  0  0  0  0  0
  148.3485  141.9457  154.2431 C   0  0  0  0  0  0  0  0  0  0  0  0
  147.0108  142.6495  154.0463 C   0  0  0  0  0  0  0  0  0  0  0  0
  146.0529  141.8680  154.9435 C   0  0  0  0  0  0  0  0  0  0  0  0
  146.5520  140.4122  154.9215 C   0  0  1  0  0  0  0  0  0  0  0  0
  145.6677  139.5892  154.1003 N   0  0  0  0  0  0  0  0  0  0  0  0
  145.8973  138.3107  153.7702 C   0  0  0  0  0  0  0  0  0  0  0  0
  146.8979  137.6894  154.1247 O   0  0  0  0  0  0  0  0  0  0  0  0
  144.9050  137.8247  153.0053 N   0  0  0  0  0  0  0  0  0  0  0  0
  144.7534  136.5222  152.4561 C   0  0  0  0  0  0  0  0  0  0  0  0
  145.8835  135.6801  152.3940 C   0  0  0  0  0  0  0  0  0  0  0  0
  145.8234  134.4341  151.8779 N   0  0  0  0  0  0  0  0  0  0  0  0
  144.6384  134.0322  151.4114 C   0  0  0  0  0  0  0  0  0  0  0  0
  144.5650  132.6367  150.8741 C   0  0  0  0  0  0  0  0  0  0  0  0
  145.5053  132.1778  149.7782 C   0  0  0  0  0  0  0  0  0  0  0  0
  144.0455  132.3701  149.4758 C   0  0  0  0  0  0  0  0  0  0  0  0
  143.5007  134.7314  151.4225 N   0  0  0  0  0  0  0  0  0  0  0  0
  143.5515  135.9796  151.9367 C   0  0  0  0  0  0  0  0  0  0  0  0
  150.8173  139.1096  155.4149 H   0  0  0  0  0  0  0  0  0  0  0  0
  150.6501  140.6460  154.5693 H   0  0  0  0  0  0  0  0  0  0  0  0
  150.2220  139.1296  153.7564 H   0  0  0  0  0  0  0  0  0  0  0  0
  148.0008  140.0140  153.3507 H   0  0  0  0  0  0  0  0  0  0  0  0
  148.7990  142.2864  155.1765 H   0  0  0  0  0  0  0  0  0  0  0  0
  149.0546  142.1519  153.4383 H   0  0  0  0  0  0  0  0  0  0  0  0
  147.0518  143.7098  154.2978 H   0  0  0  0  0  0  0  0  0  0  0  0
  146.6971  142.5623  153.0052 H   0  0  0  0  0  0  0  0  0  0  0  0
  146.1233  142.2545  155.9611 H   0  0  0  0  0  0  0  0  0  0  0  0
  145.0131  141.9772  154.6319 H   0  0  0  0  0  0  0  0  0  0  0  0
  146.5516  140.0263  155.9430 H   0  0  0  0  0  0  0  0  0  0  0  0
  144.8229  140.0260  153.7623 H   0  0  0  0  0  0  0  0  0  0  0  0
  144.1708  138.4766  152.7709 H   0  0  0  0  0  0  0  0  0  0  0  0
  146.8450  136.0059  152.7628 H   0  0  0  0  0  0  0  0  0  0  0  0
  144.3087  131.9243  151.6560 H   0  0  0  0  0  0  0  0  0  0  0  0
  146.2011  132.9064  149.3666 H   0  0  0  0  0  0  0  0  0  0  0  0
  145.8776  131.1570  149.8328 H   0  0  0  0  0  0  0  0  0  0  0  0
  143.4406  131.4779  149.3276 H   0  0  0  0  0  0  0  0  0  0  0  0
  143.7702  133.2269  148.8637 H   0  0  0  0  0  0  0  0  0  0  0  0
  142.6209  136.5231  151.9110 H   0  0  0  0  0  0  0  0  0  0  0  0
  1  2  1  0  0  0  0
  1 21  1  0  0  0  0
  1 22  1  0  0  0  0
  1 23  1  0  0  0  0
  2  3  1  0  0  0  0
  3  7  1  0  0  0  0
  3  4  1  0  0  0  0
  3 24  1  0  0  0  0
  4  5  1  0  0  0  0
  4 25  1  0  0  0  0
  4 26  1  0  0  0  0
  5  6  1  0  0  0  0
  5 27  1  0  0  0  0
  5 28  1  0  0  0  0
  6  7  1  0  0  0  0
  6 29  1  0  0  0  0
  6 30  1  0  0  0  0
  7  8  1  0  0  0  0
  7 31  1  0  0  0  0
  8  9  1  0  0  0  0
  8 32  1  0  0  0  0
  9 10  2  0  0  0  0
  9 11  1  0  0  0  0
 11 12  1  0  0  0  0
 11 33  1  0  0  0  0
 12 20  1  0  0  0  0
 12 13  2  0  0  0  0
 13 14  1  0  0  0  0
 13 34  1  0  0  0  0
 14 15  2  0  0  0  0
 15 16  1  0  0  0  0
 15 19  1  0  0  0  0
 16 18  1  0  0  0  0
 16 17  1  0  0  0  0
 16 35  1  0  0  0  0
 17 18  1  0  0  0  0
 17 36  1  0  0  0  0
 17 37  1  0  0  0  0
 18 38  1  0  0  0  0
 18 39  1  0  0  0  0
 19 20  2  0  0  0  0
 20 40  1  0  0  0  0
M  END
> <s_m_source_file>
AV-unprocessed.smi

> <i_m_source_file_index>
2709

> <i_lp_mmshare_version>
43012

> <i_f3d_flags>
0

> <s_epik_input>
W0NIM11PW0NAQEhdMVtDSDJdW0NIMl1bQ0gyXVtDQEhdMVtOSF1DKD1PKVtOSF1jMltjSF1uYyhuW2NIXTIpW0NIXTNbQ0gyXVtDSDJdMw==

> <s_epik_cmdline>
J2VwaWtfcHl0aG9uJywgJy1waCcsICc3LjAnLCAnLXRuJywgJzgnLCAnLW1hJywgJzIwMCcsICctbWV0YWxfYmluZGluZycsICctaW1hZScsICc8aW5maWxlLm1hZT4nLCAnLW9tYWUnLCAnPG91dGZpbGUubWFlPic=

> <r_lp_tautomer_probability>
1

> <r_epik_Ionization_Penalty>
2.49969e-05

> <r_epik_Ionization_Penalty_Charging>
0

> <r_epik_Ionization_Penalty_Neutral>
2.49969e-05

> <r_epik_State_Penalty>
-0

> <r_epik_Charging_Adjusted_Penalty>
0

> <i_epik_Tot_Q>
0

> <i_epik_Tot_abs_Q>
0

> <r_epik_Metal_State_Penalty>
-0

> <b_epik_Metal_Only>
0

> <s_lp_Force_Field>
OPLS_2005

> <r_lp_Energy>
17.9033

> <b_lp_Chiralities_Consistent>
1

> <s_lp_Variant>
AV-unprocessed.smi:2709-1

> <Gold.Version>
5.8.1

> <Gold.Id.Protein>
6NUR|6NUR_protein|mol2

> <Gold.PLP.Fitness>
39.7798

> <Gold.PLP.PLP>
-31.2448

> <Gold.PLP.part.hbond>
-2.0000

> <Gold.PLP.part.metal>
0.0000

> <Gold.PLP.part.buried>
-2.1927

> <Gold.PLP.part.nonpolar>
-27.0721

> <Gold.PLP.part.repulsive>
0.7110

> <Gold.PLP.ligand.clash>
0.0000

> <Gold.PLP.ligand.torsion>
0.1737

> <Gold.PLP.Chemscore.Hbond>
1.9204

> <Gold.PLP.Chemscore.CHOScore>
1.0000

> <Gold.PLP.Chemscore.Metal>
0.0000

> <Gold.Chemscore.Hbonds>
donor molecule, donor type, donor heavy atom, donor atom, acceptor molecule, acceptor atom, score
      L1  H     8    32       P1 10175  1.00
      L1  H    11    33       P1 10175  0.89
      L1  C    13    34       P1  7948  1.00

> <Gold.PLP.Chemscore.Internal.Correction>
0.1212

> <Gold.Rescore>
     Score         DG    S(hbond)    S(metal)    S(lipo)     H(rot)  DE(clash)    DE(int)     intcor
     13.95     -17.55       1.86        0.00      80.92       1.41       0.55       3.05       ----

> <Gold.Chemscore.Fitness>
13.9459

> <Gold.Chemscore.DG>
-17.5496

> <Gold.Chemscore.ZeroCoef>
-5.4800

> <Gold.Chemscore.Hbond>
1.8609

> <Gold.Chemscore.Metal>
0.0000

> <Gold.Chemscore.Lipo>
80.9182

> <Gold.Chemscore.Internal_Hbond>
0.0000

> <Gold.Chemscore.DEClash>
0.5549

> <Gold.Chemscore.DEInternal>
3.0488

> <Gold.Chemscore.Rot>
1.4114

> <Gold.Chemscore.Internal.Correction>
   9.000000E+99

> <Gold.Chemscore.Hbonds>
donor molecule, donor type, donor heavy atom, donor atom, acceptor molecule, acceptor atom, score
      L1  H     8    32       P1 10175  0.97
      L1  H    11    33       P1 10175  0.82

> <Gold.Chemscore.Hbond.Weighted>
-6.2154

> <Gold.Chemscore.Metal.Weighted>
-0.0000

> <Gold.Chemscore.Lipo.Weighted>
-9.4674

> <Gold.Chemscore.Internal_Hbond.Weighted>
0.0000

> <Gold.Chemscore.DEClash.Weighted>
0.5549

> <Gold.Chemscore.DEInternal.Weighted>
3.0488

> <Gold.Chemscore.Rot.Weighted>
3.6133

> <Gold.Chemscore.Internal.Correction.Weighted>
   9.000000E+99

> <Gold.Protein.RotatedTorsions>
[ 6907 6896 6895 6894 ] final   17.39 input  -60.11 | X-H torsion
[ 7974 7965 7964 7962 ] final   -6.18 input  175.53 | X-H torsion
[ 8008 7997 7996 7995 ] final  119.49 input   59.86 | X-H torsion
[ 10167 10162 10161 10158 ] final  131.86 input  -65.29 | X-H torsion
[ 10718 10713 10712 10709 ] final  179.75 input   66.30 | X-H torsion
[ 10763 10752 10751 10750 ] final -116.73 input  -60.55 | X-H torsion
[ 11005 11000 10999 10996 ] final   90.45 input  -57.11 | X-H torsion

> <Gold.Protein.ActiveResidues>
 VAL166  LYS551  ARG553  GLY616  TRP617  ASP618  TYR619  PRO620  LYS621  CYS622 
 ASP623  PHE694  ASN695  SER759  ASP760  ASP761  ALA762  ILE779  LEU786  VAL792 
 PHE793  MET794  SER795  GLU796  ALA797  LYS798  CYS799  TRP800  GLU811  SER814 

> <Gold.Protein.RotatedAtoms>
  151.8488  135.0565  160.0456 H   0  0  0  0  0  0  0  0  0  0  0  0  # atno 6907 bound_to 6896
  152.2752  133.5414  159.5472 H   0  0  0  0  0  0  0  0  0  0  0  0  # atno 6908 bound_to 6896
  150.7167  134.0558  159.3856 H   0  0  0  0  0  0  0  0  0  0  0  0  # atno 6909 bound_to 6896
  146.2336  140.2132  142.8336 H   0  0  0  0  0  0  0  0  0  0  0  0  # atno 7974 bound_to 7965
  156.2598  140.2852  156.0999 H   0  0  0  0  0  0  0  0  0  0  0  0  # atno 8008 bound_to 7997
  155.1371  140.0395  157.2806 H   0  0  0  0  0  0  0  0  0  0  0  0  # atno 8009 bound_to 7997
  154.6557  140.2555  155.7170 H   0  0  0  0  0  0  0  0  0  0  0  0  # atno 8010 bound_to 7997
  139.5365  144.6687  151.4768 H   0  0  0  0  0  0  0  0  0  0  0  0  # atno 10167 bound_to 10162
  156.8712  130.9784  151.3073 H   0  0  0  0  0  0  0  0  0  0  0  0  # atno 10718 bound_to 10713
  154.8530  135.4335  154.1867 H   0  0  0  0  0  0  0  0  0  0  0  0  # atno 10763 bound_to 10752
  153.2945  135.6964  153.7268 H   0  0  0  0  0  0  0  0  0  0  0  0  # atno 10764 bound_to 10752
  153.6422  135.3466  155.3049 H   0  0  0  0  0  0  0  0  0  0  0  0  # atno 10765 bound_to 10752
  139.8856  134.8614  156.3286 H   0  0  0  0  0  0  0  0  0  0  0  0  # atno 11005 bound_to 11000
  144.9690  140.8350  143.5467 LP  0  0  0  0  0  0  0  0  0  0  0  0  # atno 17320 bound_to 7965
  145.2111  139.2204  143.5142 LP  0  0  0  0  0  0  0  0  0  0  0  0  # atno 17321 bound_to 7965
  140.6574  143.8571  150.6850 LP  0  0  0  0  0  0  0  0  0  0  0  0  # atno 17342 bound_to 10162
  140.1954  143.4002  152.1831 LP  0  0  0  0  0  0  0  0  0  0  0  0  # atno 17343 bound_to 10162
  157.6195  130.8644  149.9084 LP  0  0  0  0  0  0  0  0  0  0  0  0  # atno 17370 bound_to 10713
  156.0725  130.3683  150.0745 LP  0  0  0  0  0  0  0  0  0  0  0  0  # atno 17371 bound_to 10713
  140.9738  133.7310  156.0573 LP  0  0  0  0  0  0  0  0  0  0  0  0  # atno 17394 bound_to 11000
  140.7837  134.3696  157.5481 LP  0  0  0  0  0  0  0  0  0  0  0  0  # atno 17395 bound_to 11000

$$$$
