AV-unprocessed.smi:2037|AV-procd|sdf|8276|dock7
  -GOLD-   2272010543D 1   1.00000     0.00000
 Structure written by MMmdl.
 39 40  0  0  0  0  0  0  0  0  2 V2000
  144.1237  132.4327  149.6845 C   0  0  0  0  0  0  0  0  0  0  0  0
  144.8241  132.7829  151.0048 C   0  0  2  0  0  0  0  0  0  0  0  0
  146.3158  133.0910  150.7946 C   0  0  0  0  0  0  0  0  0  0  0  0
  147.0128  133.4111  152.1277 C   0  0  0  0  0  0  0  0  0  0  0  0
  146.8484  132.3014  153.1020 N   0  3  1  0  0  0  0  0  0  0  0  0
  147.6185  132.5332  154.3495 C   0  0  0  0  0  0  0  0  0  0  0  0
  147.2786  133.8849  155.0076 C   0  0  0  0  0  0  0  0  0  0  0  0
  148.2354  134.9196  154.6322 N   0  0  0  0  0  0  0  0  0  0  0  0
  149.0553  135.5481  155.4873 C   0  0  0  0  0  0  0  0  0  0  0  0
  149.0765  135.3144  156.6963 O   0  0  0  0  0  0  0  0  0  0  0  0
  149.8289  136.4469  154.8538 N   0  0  0  0  0  0  0  0  0  0  0  0
  150.8042  137.3135  155.4139 C   0  0  0  0  0  0  0  0  0  0  0  0
  151.2185  137.2613  156.6854 N   0  0  0  0  0  0  0  0  0  0  0  0
  152.1826  138.2339  156.9627 C   0  0  0  0  0  0  0  0  0  0  0  0
  152.4916  139.0242  155.8833 C   0  0  0  0  0  0  0  0  0  0  0  0
  151.5785  138.5757  154.4673 S   0  0  0  0  0  0  0  0  0  0  0  0
  145.4117  132.0050  153.3493 C   0  0  0  0  0  0  0  0  0  0  0  0
  144.6831  131.6553  152.0409 C   0  0  0  0  0  0  0  0  0  0  0  0
  144.5592  131.5439  149.2267 H   0  0  0  0  0  0  0  0  0  0  0  0
  144.2061  133.2503  148.9677 H   0  0  0  0  0  0  0  0  0  0  0  0
  143.0623  132.2395  149.8426 H   0  0  0  0  0  0  0  0  0  0  0  0
  144.3457  133.6772  151.4073 H   0  0  0  0  0  0  0  0  0  0  0  0
  146.8074  132.2395  150.3216 H   0  0  0  0  0  0  0  0  0  0  0  0
  146.4305  133.9324  150.1101 H   0  0  0  0  0  0  0  0  0  0  0  0
  148.0733  133.5848  151.9404 H   0  0  0  0  0  0  0  0  0  0  0  0
  146.6104  134.3325  152.5523 H   0  0  0  0  0  0  0  0  0  0  0  0
  147.3889  131.7446  155.0676 H   0  0  0  0  0  0  0  0  0  0  0  0
  148.6857  132.4523  154.1370 H   0  0  0  0  0  0  0  0  0  0  0  0
  146.2745  134.2192  154.7450 H   0  0  0  0  0  0  0  0  0  0  0  0
  147.2975  133.7842  156.0931 H   0  0  0  0  0  0  0  0  0  0  0  0
  148.2822  135.1683  153.6546 H   0  0  0  0  0  0  0  0  0  0  0  0
  149.7061  136.5231  153.8548 H   0  0  0  0  0  0  0  0  0  0  0  0
  152.5972  138.2935  157.9582 H   0  0  0  0  0  0  0  0  0  0  0  0
  153.1979  139.8396  155.8358 H   0  0  0  0  0  0  0  0  0  0  0  0
  145.3080  131.1707  154.0420 H   0  0  0  0  0  0  0  0  0  0  0  0
  144.9372  132.8662  153.8227 H   0  0  0  0  0  0  0  0  0  0  0  0
  143.6288  131.4683  152.2479 H   0  0  0  0  0  0  0  0  0  0  0  0
  145.0872  130.7260  151.6363 H   0  0  0  0  0  0  0  0  0  0  0  0
  147.2488  131.4830  152.6661 H   0  0  0  0  0  0  0  0  0  0  0  0
  1  2  1  0  0  0  0
  1 19  1  0  0  0  0
  1 20  1  0  0  0  0
  1 21  1  0  0  0  0
  2 18  1  0  0  0  0
  2  3  1  0  0  0  0
  2 22  1  0  0  0  0
  3  4  1  0  0  0  0
  3 23  1  0  0  0  0
  3 24  1  0  0  0  0
  4  5  1  0  0  0  0
  4 25  1  0  0  0  0
  4 26  1  0  0  0  0
  5  6  1  0  0  0  0
  5 17  1  0  0  0  0
  5 39  1  0  0  0  0
  6  7  1  0  0  0  0
  6 27  1  0  0  0  0
  6 28  1  0  0  0  0
  7  8  1  0  0  0  0
  7 29  1  0  0  0  0
  7 30  1  0  0  0  0
  8  9  1  0  0  0  0
  8 31  1  0  0  0  0
  9 10  2  0  0  0  0
  9 11  1  0  0  0  0
 11 12  1  0  0  0  0
 11 32  1  0  0  0  0
 12 16  1  0  0  0  0
 12 13  2  0  0  0  0
 13 14  1  0  0  0  0
 14 15  2  0  0  0  0
 14 33  1  0  0  0  0
 15 16  1  0  0  0  0
 15 34  1  0  0  0  0
 17 18  1  0  0  0  0
 17 35  1  0  0  0  0
 17 36  1  0  0  0  0
 18 37  1  0  0  0  0
 18 38  1  0  0  0  0
M  CHG  1   5   1
M  END
> <s_m_source_file>
AV-unprocessed.smi

> <i_m_source_file_index>
2037

> <i_lp_mmshare_version>
43012

> <i_f3d_flags>
0

> <s_epik_input>
W0NIM11bQ0hdMVtDSDJdW0NIMl1OKFtDSDJdW0NIMl0xKVtDSDJdW0NIMl1bTkhdQyg9TylbTkhdYzJuW2NIXVtjSF1zMg==

> <s_epik_cmdline>
J2VwaWtfcHl0aG9uJywgJy1waCcsICc3LjAnLCAnLXRuJywgJzgnLCAnLW1hJywgJzIwMCcsICctbWV0YWxfYmluZGluZycsICctaW1hZScsICc8aW5maWxlLm1hZT4nLCAnLW9tYWUnLCAnPG91dGZpbGUubWFlPic=

> <r_lp_tautomer_probability>
0.999

> <r_epik_Ionization_Penalty>
0.00182893

> <r_epik_Ionization_Penalty_Charging>
0.00168873

> <r_epik_Ionization_Penalty_Neutral>
0.000140204

> <r_epik_State_Penalty>
0.00114045

> <r_epik_Charging_Adjusted_Penalty>
0.00282917

> <i_epik_Tot_Q>
1

> <i_epik_Tot_abs_Q>
1

> <r_epik_Metal_State_Penalty>
0.0569426

> <b_epik_Metal_Only>
0

> <s_lp_Force_Field>
OPLS_2005

> <r_lp_Energy>
13.393

> <b_lp_Chiralities_Consistent>
1

> <s_lp_Variant>
AV-unprocessed.smi:2037-1

> <Gold.Version>
5.8.1

> <Gold.Id.Protein>
6NUR|6NUR_protein|mol2

> <Gold.PLP.Fitness>
47.3073

> <Gold.PLP.PLP>
-36.1763

> <Gold.PLP.part.hbond>
-4.7559

> <Gold.PLP.part.metal>
0.0000

> <Gold.PLP.part.buried>
-4.2548

> <Gold.PLP.part.nonpolar>
-27.8676

> <Gold.PLP.part.repulsive>
0.1152

> <Gold.PLP.ligand.clash>
0.0000

> <Gold.PLP.ligand.torsion>
0.3138

> <Gold.PLP.Chemscore.Hbond>
3.9120

> <Gold.PLP.Chemscore.CHOScore>
0.0000

> <Gold.PLP.Chemscore.Metal>
0.0000

> <Gold.Chemscore.Hbonds>
donor molecule, donor type, donor heavy atom, donor atom, acceptor molecule, acceptor atom, score
      L1  H     8    31       P1  7948  0.65
      L1  H    11    32       P1  7948  0.78

> <Gold.PLP.Chemscore.Internal.Correction>
0.0225

> <Gold.Rescore>
     Score         DG    S(hbond)    S(metal)    S(lipo)     H(rot)  DE(clash)    DE(int)     intcor
     17.45     -19.03       2.47        0.00      80.31       1.60       0.02       1.56       ----

> <Gold.Chemscore.Fitness>
17.4525

> <Gold.Chemscore.DG>
-19.0314

> <Gold.Chemscore.ZeroCoef>
-5.4800

> <Gold.Chemscore.Hbond>
2.4704

> <Gold.Chemscore.Metal>
0.0000

> <Gold.Chemscore.Lipo>
80.3118

> <Gold.Chemscore.Internal_Hbond>
0.0000

> <Gold.Chemscore.DEClash>
0.0182

> <Gold.Chemscore.DEInternal>
1.5606

> <Gold.Chemscore.Rot>
1.6001

> <Gold.Chemscore.Internal.Correction>
   9.000000E+99

> <Gold.Chemscore.Hbonds>
donor molecule, donor type, donor heavy atom, donor atom, acceptor molecule, acceptor atom, score
      L1  H     8    31       P1  7948  0.63
      L1  H    11    32       P1  7948  0.46

> <Gold.Chemscore.Hbond.Weighted>
-8.2512

> <Gold.Chemscore.Metal.Weighted>
-0.0000

> <Gold.Chemscore.Lipo.Weighted>
-9.3965

> <Gold.Chemscore.Internal_Hbond.Weighted>
0.0000

> <Gold.Chemscore.DEClash.Weighted>
0.0182

> <Gold.Chemscore.DEInternal.Weighted>
1.5606

> <Gold.Chemscore.Rot.Weighted>
4.0963

> <Gold.Chemscore.Internal.Correction.Weighted>
   9.000000E+99

> <Gold.Protein.RotatedTorsions>
[ 6907 6896 6895 6894 ] final -165.05 input  -60.11 | X-H torsion
[ 7974 7965 7964 7962 ] final -126.76 input  175.53 | X-H torsion
[ 8008 7997 7996 7995 ] final   88.50 input   59.86 | X-H torsion
[ 10167 10162 10161 10158 ] final -126.74 input  -65.29 | X-H torsion
[ 10718 10713 10712 10709 ] final -108.90 input   66.30 | X-H torsion
[ 10763 10752 10751 10750 ] final   95.58 input  -60.55 | X-H torsion
[ 11005 11000 10999 10996 ] final  176.38 input  -57.11 | X-H torsion

> <Gold.Protein.ActiveResidues>
 VAL166  LYS551  ARG553  GLY616  TRP617  ASP618  TYR619  PRO620  LYS621  CYS622 
 ASP623  PHE694  ASN695  SER759  ASP760  ASP761  ALA762  ILE779  LEU786  VAL792 
 PHE793  MET794  SER795  GLU796  ALA797  LYS798  CYS799  TRP800  GLU811  SER814 

> <Gold.Protein.RotatedAtoms>
  151.4215  133.3697  159.2756 H   0  0  0  0  0  0  0  0  0  0  0  0  # atno 6907 bound_to 6896
  150.9290  134.8707  159.7549 H   0  0  0  0  0  0  0  0  0  0  0  0  # atno 6908 bound_to 6896
  152.5019  134.4158  159.9516 H   0  0  0  0  0  0  0  0  0  0  0  0  # atno 6909 bound_to 6896
  144.9839  140.7667  143.4595 H   0  0  0  0  0  0  0  0  0  0  0  0  # atno 7974 bound_to 7965
  155.9885  140.3371  155.6731 H   0  0  0  0  0  0  0  0  0  0  0  0  # atno 8008 bound_to 7997
  155.6452  140.0699  157.2623 H   0  0  0  0  0  0  0  0  0  0  0  0  # atno 8009 bound_to 7997
  154.4212  140.1735  156.1603 H   0  0  0  0  0  0  0  0  0  0  0  0  # atno 8010 bound_to 7997
  139.9683  143.5874  152.2422 H   0  0  0  0  0  0  0  0  0  0  0  0  # atno 10167 bound_to 10162
  156.0509  130.5736  150.8025 H   0  0  0  0  0  0  0  0  0  0  0  0  # atno 10718 bound_to 10713
  153.2548  135.4249  155.0834 H   0  0  0  0  0  0  0  0  0  0  0  0  # atno 10763 bound_to 10752
  154.8396  135.3434  154.6461 H   0  0  0  0  0  0  0  0  0  0  0  0  # atno 10764 bound_to 10752
  153.6882  135.7035  153.5155 H   0  0  0  0  0  0  0  0  0  0  0  0  # atno 10765 bound_to 10752
  140.3725  134.7018  157.4401 H   0  0  0  0  0  0  0  0  0  0  0  0  # atno 11005 bound_to 11000
  145.2381  139.2085  143.5007 LP  0  0  0  0  0  0  0  0  0  0  0  0  # atno 17320 bound_to 7965
  146.3415  140.2271  142.8592 LP  0  0  0  0  0  0  0  0  0  0  0  0  # atno 17321 bound_to 7965
  139.6501  144.7660  151.2165 LP  0  0  0  0  0  0  0  0  0  0  0  0  # atno 17342 bound_to 10162
  140.7530  143.6175  150.8545 LP  0  0  0  0  0  0  0  0  0  0  0  0  # atno 17343 bound_to 10162
  157.5434  131.0941  150.9797 LP  0  0  0  0  0  0  0  0  0  0  0  0  # atno 17370 bound_to 10713
  157.0074  130.5623  149.5317 LP  0  0  0  0  0  0  0  0  0  0  0  0  # atno 17371 bound_to 10713
  140.0541  134.6089  155.8826 LP  0  0  0  0  0  0  0  0  0  0  0  0  # atno 17394 bound_to 11000
  141.1950  133.6585  156.5622 LP  0  0  0  0  0  0  0  0  0  0  0  0  # atno 17395 bound_to 11000

$$$$
