AV-unprocessed.smi:193|AV-procd|sdf|1508|dock1
  -GOLD-   2262019343D 1   1.00000     0.00000
 Structure written by MMmdl.
 62 66  0  0  0  0  0  0  0  0  2 V2000
  150.7774  133.7366  155.1197 C   0  0  0  0  0  0  0  0  0  0  0  0
  149.8860  134.9720  154.9117 C   0  0  2  0  0  0  0  0  0  0  0  0
  150.0314  135.9171  156.1238 C   0  0  0  0  0  0  0  0  0  0  0  0
  149.6490  137.3065  155.8628 N   0  0  0  0  0  0  0  0  0  0  0  0
  150.4493  138.2886  156.3565 C   0  0  0  0  0  0  0  0  0  0  0  0
  151.4561  137.9516  157.2063 N   0  0  0  0  0  0  0  0  0  0  0  0
  152.2551  138.8922  157.7184 C   0  0  0  0  0  0  0  0  0  0  0  0
  152.2278  140.2099  157.5155 N   0  0  0  0  0  0  0  0  0  0  0  0
  151.2271  140.5572  156.6571 C   0  0  0  0  0  0  0  0  0  0  0  0
  150.3010  139.6705  156.0369 C   0  0  0  0  0  0  0  0  0  0  0  0
  149.4390  140.3922  155.2180 N   0  0  0  0  0  0  0  0  0  0  0  0
  149.8250  141.6311  155.3561 C   0  0  0  0  0  0  0  0  0  0  0  0
  150.8967  141.8201  156.1983 N   0  0  0  0  0  0  0  0  0  0  0  0
  151.5321  143.0862  156.5305 C   0  0  0  0  0  0  0  0  0  0  0  0
  151.3329  143.5211  158.0035 C   0  0  0  0  0  0  0  0  0  0  0  0
  149.9444  143.4649  158.2828 O   0  0  0  0  0  0  0  0  0  0  0  0
  152.0607  142.5491  158.9533 C   0  0  0  0  0  0  0  0  0  0  0  0
  152.0320  143.0327  160.4141 C   0  0  0  0  0  0  0  0  0  0  0  0
  152.5714  144.3458  160.5036 O   0  0  0  0  0  0  0  0  0  0  0  0
  151.8133  145.3031  159.7743 C   0  0  0  0  0  0  0  0  0  0  0  0
  151.8278  144.9590  158.2742 C   0  0  0  0  0  0  0  0  0  0  0  0
  148.6188  137.6687  154.8891 C   0  0  0  0  0  0  0  0  0  0  0  0
  147.3862  136.7568  154.9400 C   0  0  0  0  0  0  0  0  0  0  0  0
  147.5625  135.5605  154.0838 N   0  3  2  0  0  0  0  0  0  0  0  0
  146.2626  134.9974  153.6538 C   0  0  1  0  0  0  0  0  0  0  0  0
  145.6816  135.6792  152.4363 C   0  0  0  0  0  0  0  0  0  0  0  0
  146.3095  134.3082  152.3073 C   0  0  2  0  0  0  0  0  0  0  0  0
  145.4462  133.0966  152.0314 C   0  0  0  0  0  0  0  0  0  0  0  0
  148.4249  134.5205  154.6955 C   0  0  0  0  0  0  0  0  0  0  0  0
  150.4800  133.1773  156.0075 H   0  0  0  0  0  0  0  0  0  0  0  0
  151.8236  134.0201  155.2404 H   0  0  0  0  0  0  0  0  0  0  0  0
  150.7234  133.0600  154.2663 H   0  0  0  0  0  0  0  0  0  0  0  0
  150.2502  135.4724  154.0131 H   0  0  0  0  0  0  0  0  0  0  0  0
  149.4617  135.5407  156.9741 H   0  0  0  0  0  0  0  0  0  0  0  0
  151.0785  135.9008  156.4290 H   0  0  0  0  0  0  0  0  0  0  0  0
  153.0265  138.5385  158.3867 H   0  0  0  0  0  0  0  0  0  0  0  0
  149.3405  142.4467  154.8388 H   0  0  0  0  0  0  0  0  0  0  0  0
  152.5949  143.0064  156.2979 H   0  0  0  0  0  0  0  0  0  0  0  0
  151.1337  143.8489  155.8602 H   0  0  0  0  0  0  0  0  0  0  0  0
  149.4783  143.8748  157.5703 H   0  0  0  0  0  0  0  0  0  0  0  0
  151.6317  141.5488  158.8812 H   0  0  0  0  0  0  0  0  0  0  0  0
  153.1025  142.4562  158.6438 H   0  0  0  0  0  0  0  0  0  0  0  0
  151.0179  143.0150  160.8157 H   0  0  0  0  0  0  0  0  0  0  0  0
  152.6288  142.3668  161.0374 H   0  0  0  0  0  0  0  0  0  0  0  0
  150.7930  145.3448  160.1586 H   0  0  0  0  0  0  0  0  0  0  0  0
  152.2491  146.2895  159.9336 H   0  0  0  0  0  0  0  0  0  0  0  0
  152.8490  145.0620  157.9055 H   0  0  0  0  0  0  0  0  0  0  0  0
  151.2295  145.6880  157.7264 H   0  0  0  0  0  0  0  0  0  0  0  0
  148.2789  138.6818  155.1090 H   0  0  0  0  0  0  0  0  0  0  0  0
  149.0443  137.6983  153.8853 H   0  0  0  0  0  0  0  0  0  0  0  0
  147.1163  136.4848  155.9617 H   0  0  0  0  0  0  0  0  0  0  0  0
  146.5461  137.3322  154.5486 H   0  0  0  0  0  0  0  0  0  0  0  0
  145.6098  134.6310  154.4445 H   0  0  0  0  0  0  0  0  0  0  0  0
  144.5974  135.7452  152.3695 H   0  0  0  0  0  0  0  0  0  0  0  0
  146.2233  136.5207  152.0080 H   0  0  0  0  0  0  0  0  0  0  0  0
  147.2758  134.2752  151.8062 H   0  0  0  0  0  0  0  0  0  0  0  0
  144.4901  133.1757  152.5499 H   0  0  0  0  0  0  0  0  0  0  0  0
  145.9517  132.1921  152.3707 H   0  0  0  0  0  0  0  0  0  0  0  0
  145.2552  133.0082  150.9616 H   0  0  0  0  0  0  0  0  0  0  0  0
  148.4245  133.6607  154.0239 H   0  0  0  0  0  0  0  0  0  0  0  0
  147.9846  134.1721  155.6311 H   0  0  0  0  0  0  0  0  0  0  0  0
  148.0247  135.8708  153.2411 H   0  0  0  0  0  0  0  0  0  0  0  0
  1  2  1  0  0  0  0
  1 30  1  0  0  0  0
  1 31  1  0  0  0  0
  1 32  1  0  0  0  0
  2 29  1  0  0  0  0
  2  3  1  0  0  0  0
  2 33  1  0  0  0  0
  3  4  1  0  0  0  0
  3 34  1  0  0  0  0
  3 35  1  0  0  0  0
  4  5  1  0  0  0  0
  4 22  1  0  0  0  0
  5 10  1  0  0  0  0
  5  6  2  0  0  0  0
  6  7  1  0  0  0  0
  7  8  2  0  0  0  0
  7 36  1  0  0  0  0
  8  9  1  0  0  0  0
  9 13  1  0  0  0  0
  9 10  2  0  0  0  0
 10 11  1  0  0  0  0
 11 12  2  0  0  0  0
 12 13  1  0  0  0  0
 12 37  1  0  0  0  0
 13 14  1  0  0  0  0
 14 15  1  0  0  0  0
 14 38  1  0  0  0  0
 14 39  1  0  0  0  0
 15 21  1  0  0  0  0
 15 16  1  0  0  0  0
 15 17  1  0  0  0  0
 16 40  1  0  0  0  0
 17 18  1  0  0  0  0
 17 41  1  0  0  0  0
 17 42  1  0  0  0  0
 18 19  1  0  0  0  0
 18 43  1  0  0  0  0
 18 44  1  0  0  0  0
 19 20  1  0  0  0  0
 20 21  1  0  0  0  0
 20 45  1  0  0  0  0
 20 46  1  0  0  0  0
 21 47  1  0  0  0  0
 21 48  1  0  0  0  0
 22 23  1  0  0  0  0
 22 49  1  0  0  0  0
 22 50  1  0  0  0  0
 23 24  1  0  0  0  0
 23 51  1  0  0  0  0
 23 52  1  0  0  0  0
 24 25  1  0  0  0  0
 24 29  1  0  0  0  0
 24 62  1  0  0  0  0
 25 27  1  0  0  0  0
 25 26  1  0  0  0  0
 25 53  1  0  0  0  0
 26 27  1  0  0  0  0
 26 54  1  0  0  0  0
 26 55  1  0  0  0  0
 27 28  1  0  0  0  0
 27 56  1  0  0  0  0
 28 57  1  0  0  0  0
 28 58  1  0  0  0  0
 28 59  1  0  0  0  0
 29 60  1  0  0  0  0
 29 61  1  0  0  0  0
M  CHG  1  24   1
M  END
> <s_m_source_file>
AV-unprocessed.smi

> <i_m_source_file_index>
193

> <i_lp_mmshare_version>
43012

> <i_f3d_flags>
0

> <s_epik_input>
W0NIM11bQ0BASF0xW0NIMl1bQ0BIXTFOKFtDSDJdMilbQ0gyXVtDSDJdTihbQ0gyXVtDQEhdMltDSDNdKWMobltjSF1uMyljKGMzNCluW2NIXW40W0NIMl1DNShbT0hdKVtDSDJdW0NIMl1PW0NIMl1bQ0gyXTU=

> <s_epik_cmdline>
J2VwaWtfcHl0aG9uJywgJy1waCcsICc3LjAnLCAnLXRuJywgJzgnLCAnLW1hJywgJzIwMCcsICctbWV0YWxfYmluZGluZycsICctaW1hZScsICc8aW5maWxlLm1hZT4nLCAnLW9tYWUnLCAnPG91dGZpbGUubWFlPic=

> <r_lp_tautomer_probability>
1

> <r_epik_Ionization_Penalty>
0.0540825

> <r_epik_Ionization_Penalty_Charging>
0.0538476

> <r_epik_Ionization_Penalty_Neutral>
0.000234891

> <r_epik_State_Penalty>
0.0200719

> <r_epik_Charging_Adjusted_Penalty>
0.0739194

> <i_epik_Tot_Q>
1

> <i_epik_Tot_abs_Q>
1

> <r_epik_Metal_State_Penalty>
0.0199414

> <b_epik_Metal_Only>
0

> <s_lp_Force_Field>
OPLS_2005

> <r_lp_Energy>
53.0882

> <b_lp_Chiralities_Consistent>
1

> <s_lp_Variant>
AV-unprocessed.smi:193-13

> <Gold.Version>
5.8.1

> <Gold.Id.Protein>
6NUR|6NUR_protein|mol2

> <Gold.PLP.Fitness>
50.8511

> <Gold.PLP.PLP>
-39.1827

> <Gold.PLP.part.hbond>
-2.1101

> <Gold.PLP.part.metal>
0.0000

> <Gold.PLP.part.buried>
-5.7175

> <Gold.PLP.part.nonpolar>
-31.4043

> <Gold.PLP.part.repulsive>
0.1594

> <Gold.PLP.ligand.clash>
0.0000

> <Gold.PLP.ligand.torsion>
0.7533

> <Gold.PLP.Chemscore.Hbond>
3.0000

> <Gold.PLP.Chemscore.CHOScore>
0.9357

> <Gold.PLP.Chemscore.Metal>
0.0000

> <Gold.Chemscore.Hbonds>
donor molecule, donor type, donor heavy atom, donor atom, acceptor molecule, acceptor atom, score
      L1  H    16    40       P1  8028  0.70
      L1  H    24    62       P1  7948  2.00
      L1  C    12    37       P1  8028  0.99

> <Gold.PLP.Chemscore.Internal.Correction>
1.3677

> <Gold.Rescore>
     Score         DG    S(hbond)    S(metal)    S(lipo)     H(rot)  DE(clash)    DE(int)     intcor
     13.33     -18.07       1.50        0.00     106.90       1.93       1.21       3.53       ----

> <Gold.Chemscore.Fitness>
13.3278

> <Gold.Chemscore.DG>
-18.0698

> <Gold.Chemscore.ZeroCoef>
-5.4800

> <Gold.Chemscore.Hbond>
1.5032

> <Gold.Chemscore.Metal>
0.0000

> <Gold.Chemscore.Lipo>
106.9005

> <Gold.Chemscore.Internal_Hbond>
0.0000

> <Gold.Chemscore.DEClash>
1.2140

> <Gold.Chemscore.DEInternal>
3.5280

> <Gold.Chemscore.Rot>
1.9290

> <Gold.Chemscore.Internal.Correction>
   9.000000E+99

> <Gold.Chemscore.Hbonds>
donor molecule, donor type, donor heavy atom, donor atom, acceptor molecule, acceptor atom, score
      L1  H    16    40       P1  8028  0.21
      L1  H    24    62       P1  7948  1.00

> <Gold.Chemscore.Hbond.Weighted>
-5.0207

> <Gold.Chemscore.Metal.Weighted>
-0.0000

> <Gold.Chemscore.Lipo.Weighted>
-12.5074

> <Gold.Chemscore.Internal_Hbond.Weighted>
0.0000

> <Gold.Chemscore.DEClash.Weighted>
1.2140

> <Gold.Chemscore.DEInternal.Weighted>
3.5280

> <Gold.Chemscore.Rot.Weighted>
4.9383

> <Gold.Chemscore.Internal.Correction.Weighted>
   9.000000E+99

> <Gold.Protein.RotatedTorsions>
[ 6907 6896 6895 6894 ] final    5.67 input  -60.11 | X-H torsion
[ 7974 7965 7964 7962 ] final   -3.20 input  175.53 | X-H torsion
[ 8008 7997 7996 7995 ] final   -5.45 input   59.86 | X-H torsion
[ 10167 10162 10161 10158 ] final  153.23 input  -65.29 | X-H torsion
[ 10718 10713 10712 10709 ] final   45.58 input   66.30 | X-H torsion
[ 10763 10752 10751 10750 ] final  168.46 input  -60.55 | X-H torsion
[ 11005 11000 10999 10996 ] final  141.26 input  -57.11 | X-H torsion

> <Gold.Protein.ActiveResidues>
 VAL166  LYS551  ARG553  GLY616  TRP617  ASP618  TYR619  PRO620  LYS621  CYS622 
 ASP623  PHE694  ASN695  SER759  ASP760  ASP761  ALA762  ILE779  LEU786  VAL792 
 PHE793  MET794  SER795  GLU796  ALA797  LYS798  CYS799  TRP800  GLU811  SER814 

> <Gold.Protein.RotatedAtoms>
  151.6613  135.0989  160.0179 H   0  0  0  0  0  0  0  0  0  0  0  0  # atno 6907 bound_to 6896
  152.3945  133.6722  159.6273 H   0  0  0  0  0  0  0  0  0  0  0  0  # atno 6908 bound_to 6896
  150.7854  133.8814  159.3328 H   0  0  0  0  0  0  0  0  0  0  0  0  # atno 6909 bound_to 6896
  146.2393  140.1686  142.8332 H   0  0  0  0  0  0  0  0  0  0  0  0  # atno 7974 bound_to 7965
  154.6037  140.2458  155.7758 H   0  0  0  0  0  0  0  0  0  0  0  0  # atno 8008 bound_to 7997
  156.2327  140.2961  156.0183 H   0  0  0  0  0  0  0  0  0  0  0  0  # atno 8009 bound_to 7997
  155.2167  140.0399  157.2932 H   0  0  0  0  0  0  0  0  0  0  0  0  # atno 8010 bound_to 7997
  139.4828  144.5290  151.7753 H   0  0  0  0  0  0  0  0  0  0  0  0  # atno 10167 bound_to 10162
  157.4391  130.8070  149.7677 H   0  0  0  0  0  0  0  0  0  0  0  0  # atno 10718 bound_to 10713
  154.3689  135.2753  155.2278 H   0  0  0  0  0  0  0  0  0  0  0  0  # atno 10763 bound_to 10752
  154.4434  135.5949  153.6147 H   0  0  0  0  0  0  0  0  0  0  0  0  # atno 10764 bound_to 10752
  152.9839  135.6024  154.3918 H   0  0  0  0  0  0  0  0  0  0  0  0  # atno 10765 bound_to 10752
  140.0388  134.9315  157.0804 H   0  0  0  0  0  0  0  0  0  0  0  0  # atno 11005 bound_to 11000
  145.0030  140.8648  143.5270 LP  0  0  0  0  0  0  0  0  0  0  0  0  # atno 17320 bound_to 7965
  145.1708  139.2405  143.5343 LP  0  0  0  0  0  0  0  0  0  0  0  0  # atno 17321 bound_to 7965
  140.4814  144.1444  150.5933 LP  0  0  0  0  0  0  0  0  0  0  0  0  # atno 17342 bound_to 10162
  140.4273  143.2584  151.9640 LP  0  0  0  0  0  0  0  0  0  0  0  0  # atno 17343 bound_to 10162
  155.9942  130.3919  150.2870 LP  0  0  0  0  0  0  0  0  0  0  0  0  # atno 17370 bound_to 10713
  157.1033  131.0201  151.3077 LP  0  0  0  0  0  0  0  0  0  0  0  0  # atno 17371 bound_to 10713
  140.4103  134.1988  155.7163 LP  0  0  0  0  0  0  0  0  0  0  0  0  # atno 17394 bound_to 11000
  141.1872  133.8286  157.1041 LP  0  0  0  0  0  0  0  0  0  0  0  0  # atno 17395 bound_to 11000

$$$$
