AV-unprocessed.smi:1492|AV-procd|sdf|6041|dock10
  -GOLD-   22720 6153D 1   1.00000     0.00000
 Structure written by MMmdl.
 52 53  0  0  0  0  0  0  0  0  1 V2000
  147.0372  138.8039  153.3208 C   0  0  0  0  0  0  0  0  0  0  0  0
  147.9544  139.4362  154.3835 C   0  0  0  0  0  0  0  0  0  0  0  0
  148.6133  138.4600  155.4092 C   0  0  2  0  0  0  0  0  0  0  0  0
  148.3521  137.0038  154.9404 C   0  0  0  0  0  0  0  0  0  0  0  0
  147.8963  138.6214  156.7884 C   0  0  0  0  0  0  0  0  0  0  0  0
  148.5406  137.8433  157.8436 N   0  0  0  0  0  0  0  0  0  0  0  0
  147.9974  137.4911  159.0176 C   0  0  0  0  0  0  0  0  0  0  0  0
  146.9184  137.9165  159.4288 O   0  0  0  0  0  0  0  0  0  0  0  0
  148.7828  136.4625  159.8318 C   0  0  0  0  0  0  0  0  0  0  0  0
  147.9443  135.3026  160.3702 C   0  0  0  0  0  0  0  0  0  0  0  0
  147.1176  135.4282  161.4391 C   0  0  0  0  0  0  0  0  0  0  0  0
  146.9383  136.7082  162.2365 C   0  0  0  0  0  0  0  0  0  0  0  0
  146.3520  134.3640  161.8816 N   0  0  0  0  0  0  0  0  0  0  0  0
  146.4533  133.1641  161.1976 C   0  0  0  0  0  0  0  0  0  0  0  0
  145.5695  132.0695  161.7542 C   0  0  0  0  0  0  0  0  0  0  0  0
  147.2134  132.9452  160.1684 N   0  0  0  0  0  0  0  0  0  0  0  0
  148.0072  133.9938  159.6774 C   0  0  0  0  0  0  0  0  0  0  0  0
  148.7211  133.8214  158.6904 O   0  0  0  0  0  0  0  0  0  0  0  0
  150.0821  138.6923  155.5472 N   0  0  0  0  0  0  0  0  0  0  0  0
  150.8876  138.3726  154.3631 C   0  0  0  0  0  0  0  0  0  0  0  0
  152.3948  138.4918  154.6458 C   0  0  0  0  0  0  0  0  0  0  0  0
  152.6941  139.8004  155.1161 O   0  0  0  0  0  0  0  0  0  0  0  0
  151.9724  140.1329  156.2959 C   0  0  0  0  0  0  0  0  0  0  0  0
  150.4621  140.0267  156.0261 C   0  0  0  0  0  0  0  0  0  0  0  0
  145.7472  134.5019  162.6783 H   0  0  0  0  0  0  0  0  0  0  0  0
  146.6419  139.5746  152.6590 H   0  0  0  0  0  0  0  0  0  0  0  0
  146.1815  138.2975  153.7660 H   0  0  0  0  0  0  0  0  0  0  0  0
  147.5692  138.0885  152.6942 H   0  0  0  0  0  0  0  0  0  0  0  0
  148.7264  139.9904  153.8506 H   0  0  0  0  0  0  0  0  0  0  0  0
  147.3650  140.1854  154.9114 H   0  0  0  0  0  0  0  0  0  0  0  0
  147.3125  136.7078  155.0801 H   0  0  0  0  0  0  0  0  0  0  0  0
  148.9612  136.2898  155.4955 H   0  0  0  0  0  0  0  0  0  0  0  0
  148.5736  136.8677  153.8818 H   0  0  0  0  0  0  0  0  0  0  0  0
  147.8972  139.6653  157.1022 H   0  0  0  0  0  0  0  0  0  0  0  0
  146.8419  138.3505  156.7213 H   0  0  0  0  0  0  0  0  0  0  0  0
  149.4367  137.4402  157.6106 H   0  0  0  0  0  0  0  0  0  0  0  0
  149.6127  136.0969  159.2264 H   0  0  0  0  0  0  0  0  0  0  0  0
  149.2546  136.9732  160.6717 H   0  0  0  0  0  0  0  0  0  0  0  0
  146.5982  137.5178  161.5911 H   0  0  0  0  0  0  0  0  0  0  0  0
  147.8819  137.0064  162.6939 H   0  0  0  0  0  0  0  0  0  0  0  0
  146.2037  136.5862  163.0335 H   0  0  0  0  0  0  0  0  0  0  0  0
  145.6220  131.1735  161.1343 H   0  0  0  0  0  0  0  0  0  0  0  0
  144.5304  132.3984  161.7865 H   0  0  0  0  0  0  0  0  0  0  0  0
  145.8830  131.8054  162.7644 H   0  0  0  0  0  0  0  0  0  0  0  0
  150.6957  137.3567  154.0223 H   0  0  0  0  0  0  0  0  0  0  0  0
  150.6317  139.0383  153.5391 H   0  0  0  0  0  0  0  0  0  0  0  0
  152.7069  137.7519  155.3833 H   0  0  0  0  0  0  0  0  0  0  0  0
  152.9672  138.2999  153.7383 H   0  0  0  0  0  0  0  0  0  0  0  0
  152.2672  139.4718  157.1111 H   0  0  0  0  0  0  0  0  0  0  0  0
  152.2326  141.1472  156.5984 H   0  0  0  0  0  0  0  0  0  0  0  0
  150.1863  140.7834  155.2919 H   0  0  0  0  0  0  0  0  0  0  0  0
  149.9392  140.2757  156.9476 H   0  0  0  0  0  0  0  0  0  0  0  0
  1  2  1  0  0  0  0
  1 26  1  0  0  0  0
  1 27  1  0  0  0  0
  1 28  1  0  0  0  0
  2  3  1  0  0  0  0
  2 29  1  0  0  0  0
  2 30  1  0  0  0  0
  3  4  1  0  0  0  0
  3  5  1  0  0  0  0
  3 19  1  0  0  0  0
  4 31  1  0  0  0  0
  4 32  1  0  0  0  0
  4 33  1  0  0  0  0
  5  6  1  0  0  0  0
  5 34  1  0  0  0  0
  5 35  1  0  0  0  0
  6  7  1  0  0  0  0
  6 36  1  0  0  0  0
  7  8  2  0  0  0  0
  7  9  1  0  0  0  0
  9 37  1  0  0  0  0
  9 38  1  0  0  0  0
  9 10  1  0  0  0  0
 10 17  1  0  0  0  0
 10 11  2  0  0  0  0
 11 12  1  0  0  0  0
 11 13  1  0  0  0  0
 12 39  1  0  0  0  0
 12 40  1  0  0  0  0
 12 41  1  0  0  0  0
 13 25  1  0  0  0  0
 13 14  1  0  0  0  0
 14 15  1  0  0  0  0
 14 16  2  0  0  0  0
 15 42  1  0  0  0  0
 15 43  1  0  0  0  0
 15 44  1  0  0  0  0
 16 17  1  0  0  0  0
 17 18  2  0  0  0  0
 19 24  1  0  0  0  0
 19 20  1  0  0  0  0
 20 21  1  0  0  0  0
 20 45  1  0  0  0  0
 20 46  1  0  0  0  0
 21 22  1  0  0  0  0
 21 47  1  0  0  0  0
 21 48  1  0  0  0  0
 22 23  1  0  0  0  0
 23 24  1  0  0  0  0
 23 49  1  0  0  0  0
 23 50  1  0  0  0  0
 24 51  1  0  0  0  0
 24 52  1  0  0  0  0
M  END
> <s_m_source_file>
AV-unprocessed.smi

> <i_m_source_file_index>
1492

> <i_lp_mmshare_version>
43012

> <i_f3d_flags>
0

> <s_epik_input>
W0NIMl0xW0NIMl1PW0NIMl1bQ0gyXU4xW0NAQF0oW0NIM10pKFtDSDJdW0NIM10pW0NIMl1bTkhdQyg9TylbQ0gyXWMyYyhbQ0gzXSluYyhbQ0gzXSlbbkhdYzI9Tw==

> <s_epik_cmdline>
J2VwaWtfcHl0aG9uJywgJy1waCcsICc3LjAnLCAnLXRuJywgJzgnLCAnLW1hJywgJzIwMCcsICctbWV0YWxfYmluZGluZycsICctaW1hZScsICc8aW5maWxlLm1hZT4nLCAnLW9tYWUnLCAnPG91dGZpbGUubWFlPic=

> <r_lp_tautomer_probability>
0.156392

> <r_epik_Ionization_Penalty>
0.342516

> <r_epik_Ionization_Penalty_Charging>
0.0141408

> <r_epik_Ionization_Penalty_Neutral>
0.328375

> <r_epik_State_Penalty>
1.47662

> <r_epik_Charging_Adjusted_Penalty>
1.49076

> <i_epik_Tot_Q>
0

> <i_epik_Tot_abs_Q>
0

> <r_epik_Metal_State_Penalty>
1.65506

> <b_epik_Metal_Only>
0

> <s_lp_Force_Field>
OPLS_2005

> <r_lp_Energy>
47.0207

> <b_lp_Chiralities_Consistent>
1

> <s_lp_Variant>
AV-unprocessed.smi:1492-6

> <Gold.Version>
5.8.1

> <Gold.Id.Protein>
6NUR|6NUR_protein|mol2

> <Gold.PLP.Fitness>
38.9196

> <Gold.PLP.PLP>
-32.7030

> <Gold.PLP.part.hbond>
-4.0000

> <Gold.PLP.part.metal>
0.0000

> <Gold.PLP.part.buried>
-4.4585

> <Gold.PLP.part.nonpolar>
-25.2103

> <Gold.PLP.part.repulsive>
0.1927

> <Gold.PLP.ligand.clash>
0.0000

> <Gold.PLP.ligand.torsion>
1.6283

> <Gold.PLP.Chemscore.Hbond>
3.1227

> <Gold.PLP.Chemscore.CHOScore>
0.0000

> <Gold.PLP.Chemscore.Metal>
0.0000

> <Gold.Chemscore.Hbonds>
donor molecule, donor type, donor heavy atom, donor atom, acceptor molecule, acceptor atom, score
      P1  H  6896  6907       L1    18  0.89
      P1  H  6934  6947       L1     8  0.72
      P1  H  7989  7998       L1    22  0.27
      P1  H  7997  8010       L1    22  0.90

> <Gold.PLP.Chemscore.Internal.Correction>
0.1049

> <Gold.Rescore>
     Score         DG    S(hbond)    S(metal)    S(lipo)     H(rot)  DE(clash)    DE(int)     intcor
     13.29     -16.21       2.29        0.00      72.62       2.12       0.01       2.91       ----

> <Gold.Chemscore.Fitness>
13.2862

> <Gold.Chemscore.DG>
-16.2050

> <Gold.Chemscore.ZeroCoef>
-5.4800

> <Gold.Chemscore.Hbond>
2.2887

> <Gold.Chemscore.Metal>
0.0000

> <Gold.Chemscore.Lipo>
72.6199

> <Gold.Chemscore.Internal_Hbond>
0.0000

> <Gold.Chemscore.DEClash>
0.0123

> <Gold.Chemscore.DEInternal>
2.9066

> <Gold.Chemscore.Rot>
2.1155

> <Gold.Chemscore.Internal.Correction>
   9.000000E+99

> <Gold.Chemscore.Hbonds>
donor molecule, donor type, donor heavy atom, donor atom, acceptor molecule, acceptor atom, score
      P1  H  6896  6907       L1    18  0.52
      P1  H  6934  6947       L1     8  0.56
      P1  H  7989  7998       L1    22  0.02
      P1  H  7997  8010       L1    22  0.17

> <Gold.Chemscore.Hbond.Weighted>
-7.6442

> <Gold.Chemscore.Metal.Weighted>
-0.0000

> <Gold.Chemscore.Lipo.Weighted>
-8.4965

> <Gold.Chemscore.Internal_Hbond.Weighted>
0.0000

> <Gold.Chemscore.DEClash.Weighted>
0.0123

> <Gold.Chemscore.DEInternal.Weighted>
2.9066

> <Gold.Chemscore.Rot.Weighted>
5.4157

> <Gold.Chemscore.Internal.Correction.Weighted>
   9.000000E+99

> <Gold.Protein.RotatedTorsions>
[ 6907 6896 6895 6894 ] final -108.58 input  -60.11 | X-H torsion
[ 7974 7965 7964 7962 ] final  179.99 input  175.53 | X-H torsion
[ 8008 7997 7996 7995 ] final  112.28 input   59.86 | X-H torsion
[ 10167 10162 10161 10158 ] final  -84.90 input  -65.29 | X-H torsion
[ 10718 10713 10712 10709 ] final  129.05 input   66.30 | X-H torsion
[ 10763 10752 10751 10750 ] final -125.07 input  -60.55 | X-H torsion
[ 11005 11000 10999 10996 ] final -162.33 input  -57.11 | X-H torsion

> <Gold.Protein.ActiveResidues>
 VAL166  LYS551  ARG553  GLY616  TRP617  ASP618  TYR619  PRO620  LYS621  CYS622 
 ASP623  PHE694  ASN695  SER759  ASP760  ASP761  ALA762  ILE779  LEU786  VAL792 
 PHE793  MET794  SER795  GLU796  ALA797  LYS798  CYS799  TRP800  GLU811  SER814 

> <Gold.Protein.RotatedAtoms>
  150.7510  133.9656  159.3529 H   0  0  0  0  0  0  0  0  0  0  0  0  # atno 6907 bound_to 6896
  151.7586  135.0813  160.0351 H   0  0  0  0  0  0  0  0  0  0  0  0  # atno 6908 bound_to 6896
  152.3418  133.6039  159.5918 H   0  0  0  0  0  0  0  0  0  0  0  0  # atno 6909 bound_to 6896
  144.7141  140.0631  143.6432 H   0  0  0  0  0  0  0  0  0  0  0  0  # atno 7974 bound_to 7965
  156.2181  140.3002  155.9888 H   0  0  0  0  0  0  0  0  0  0  0  0  # atno 8008 bound_to 7997
  155.2552  140.0427  157.3008 H   0  0  0  0  0  0  0  0  0  0  0  0  # atno 8009 bound_to 7997
  154.5799  140.2372  155.8077 H   0  0  0  0  0  0  0  0  0  0  0  0  # atno 8010 bound_to 7997
  140.4089  143.2631  151.9044 H   0  0  0  0  0  0  0  0  0  0  0  0  # atno 10167 bound_to 10162
  157.5190  131.1098  150.9182 H   0  0  0  0  0  0  0  0  0  0  0  0  # atno 10718 bound_to 10713
  154.8731  135.4042  154.3208 H   0  0  0  0  0  0  0  0  0  0  0  0  # atno 10763 bound_to 10752
  153.4036  135.7019  153.6414 H   0  0  0  0  0  0  0  0  0  0  0  0  # atno 10764 bound_to 10752
  153.5146  135.3700  155.2573 H   0  0  0  0  0  0  0  0  0  0  0  0  # atno 10765 bound_to 10752
  140.6105  134.4854  157.5215 H   0  0  0  0  0  0  0  0  0  0  0  0  # atno 11005 bound_to 11000
  145.9847  139.2968  143.1021 LP  0  0  0  0  0  0  0  0  0  0  0  0  # atno 17320 bound_to 7965
  145.8971  140.9267  143.0522 LP  0  0  0  0  0  0  0  0  0  0  0  0  # atno 17321 bound_to 7965
  139.4783  144.5557  151.8317 LP  0  0  0  0  0  0  0  0  0  0  0  0  # atno 17342 bound_to 10162
  140.4659  144.1655  150.5912 LP  0  0  0  0  0  0  0  0  0  0  0  0  # atno 17343 bound_to 10162
  156.9799  130.5523  149.5295 LP  0  0  0  0  0  0  0  0  0  0  0  0  # atno 17370 bound_to 10713
  156.0340  130.5429  150.8606 LP  0  0  0  0  0  0  0  0  0  0  0  0  # atno 17371 bound_to 10713
  139.9194  134.8179  156.1259 LP  0  0  0  0  0  0  0  0  0  0  0  0  # atno 17394 bound_to 11000
  141.0811  133.6754  156.2339 LP  0  0  0  0  0  0  0  0  0  0  0  0  # atno 17395 bound_to 11000

$$$$
