AV-unprocessed.smi:2019|AV-procd|sdf|8172|dock7
  -GOLD-   2272010423D 1   1.00000     0.00000
 Structure written by MMmdl.
 36 37  0  0  0  0  0  0  0  0  1 V2000
  149.8182  140.3217  158.1069 O   0  0  0  0  0  0  0  0  0  0  0  0
  150.6653  140.8379  157.3767 C   0  0  0  0  0  0  0  0  0  0  0  0
  151.9773  141.3797  157.9596 C   0  0  0  0  0  0  0  0  0  0  0  0
  151.7773  142.5415  158.8415 N   0  0  0  0  0  0  0  0  0  0  0  0
  151.1070  143.6551  158.2968 C   0  0  0  0  0  0  0  0  0  0  0  0
  150.8687  144.7627  159.0170 C   0  0  0  0  0  0  0  0  0  0  0  0
  151.3196  144.7953  160.3882 C   0  0  0  0  0  0  0  0  0  0  0  0
  151.9600  143.7351  160.9197 C   0  0  0  0  0  0  0  0  0  0  0  0
  152.2223  142.5221  160.1363 C   0  0  0  0  0  0  0  0  0  0  0  0
  152.8063  141.5491  160.6140 O   0  0  0  0  0  0  0  0  0  0  0  0
  150.5060  140.9799  156.0512 N   0  0  0  0  0  0  0  0  0  0  0  0
  149.3517  140.5137  155.2793 C   0  0  1  0  0  0  0  0  0  0  0  0
  148.7938  141.7234  154.4947 C   0  0  0  0  0  0  0  0  0  0  0  0
  147.3214  141.5659  154.0761 C   0  0  0  0  0  0  0  0  0  0  0  0
  147.0494  140.4365  153.0708 C   0  0  0  0  0  0  0  0  0  0  0  0
  147.3870  139.0353  153.6084 C   0  0  0  0  0  0  0  0  0  0  0  0
  148.8195  138.7694  153.5829 N   0  0  0  0  0  0  0  0  0  0  0  0
  149.7705  139.4086  154.2806 C   0  0  0  0  0  0  0  0  0  0  0  0
  150.9567  139.1204  154.1214 O   0  0  0  0  0  0  0  0  0  0  0  0
  152.4950  140.5854  158.5014 H   0  0  0  0  0  0  0  0  0  0  0  0
  152.6365  141.6348  157.1289 H   0  0  0  0  0  0  0  0  0  0  0  0
  150.7964  143.5479  157.2675 H   0  0  0  0  0  0  0  0  0  0  0  0
  150.3501  145.6053  158.5835 H   0  0  0  0  0  0  0  0  0  0  0  0
  151.1415  145.6734  160.9913 H   0  0  0  0  0  0  0  0  0  0  0  0
  152.2892  143.7770  161.9477 H   0  0  0  0  0  0  0  0  0  0  0  0
  151.2539  141.4132  155.5296 H   0  0  0  0  0  0  0  0  0  0  0  0
  148.5953  140.1313  155.9673 H   0  0  0  0  0  0  0  0  0  0  0  0
  148.8516  142.6126  155.1246 H   0  0  0  0  0  0  0  0  0  0  0  0
  149.4129  141.9444  153.6231 H   0  0  0  0  0  0  0  0  0  0  0  0
  146.7074  141.4149  154.9651 H   0  0  0  0  0  0  0  0  0  0  0  0
  146.9825  142.5058  153.6392 H   0  0  0  0  0  0  0  0  0  0  0  0
  145.9897  140.4609  152.8141 H   0  0  0  0  0  0  0  0  0  0  0  0
  147.5861  140.6225  152.1391 H   0  0  0  0  0  0  0  0  0  0  0  0
  146.9870  138.8893  154.6127 H   0  0  0  0  0  0  0  0  0  0  0  0
  146.9105  138.2851  152.9770 H   0  0  0  0  0  0  0  0  0  0  0  0
  149.1268  138.0462  152.9484 H   0  0  0  0  0  0  0  0  0  0  0  0
  1  2  2  0  0  0  0
  2  3  1  0  0  0  0
  2 11  1  0  0  0  0
  3  4  1  0  0  0  0
  3 20  1  0  0  0  0
  3 21  1  0  0  0  0
  4  9  1  0  0  0  0
  4  5  1  0  0  0  0
  5  6  2  0  0  0  0
  5 22  1  0  0  0  0
  6  7  1  0  0  0  0
  6 23  1  0  0  0  0
  7  8  2  0  0  0  0
  7 24  1  0  0  0  0
  8  9  1  0  0  0  0
  8 25  1  0  0  0  0
  9 10  2  0  0  0  0
 11 12  1  0  0  0  0
 11 26  1  0  0  0  0
 12 18  1  0  0  0  0
 12 13  1  0  0  0  0
 12 27  1  0  0  0  0
 13 14  1  0  0  0  0
 13 28  1  0  0  0  0
 13 29  1  0  0  0  0
 14 15  1  0  0  0  0
 14 30  1  0  0  0  0
 14 31  1  0  0  0  0
 15 16  1  0  0  0  0
 15 32  1  0  0  0  0
 15 33  1  0  0  0  0
 16 17  1  0  0  0  0
 16 34  1  0  0  0  0
 16 35  1  0  0  0  0
 17 18  1  0  0  0  0
 17 36  1  0  0  0  0
 18 19  2  0  0  0  0
M  END
> <s_m_source_file>
AV-unprocessed.smi

> <i_m_source_file_index>
2019

> <i_lp_mmshare_version>
43012

> <i_f3d_flags>
0

> <s_epik_input>
Tz1jMVtjSF1bY0hdW2NIXVtjSF1uMVtDSDJdQyg9TylbTkhdW0NAQEhdMltDSDJdW0NIMl1bQ0gyXVtDSDJdW05IXUMyPU8=

> <s_epik_cmdline>
J2VwaWtfcHl0aG9uJywgJy1waCcsICc3LjAnLCAnLXRuJywgJzgnLCAnLW1hJywgJzIwMCcsICctbWV0YWxfYmluZGluZycsICctaW1hZScsICc8aW5maWxlLm1hZT4nLCAnLW9tYWUnLCAnPG91dGZpbGUubWFlPic=

> <r_lp_tautomer_probability>
1

> <r_epik_Ionization_Penalty>
3.70786e-07

> <r_epik_Ionization_Penalty_Charging>
3.17464e-07

> <r_epik_Ionization_Penalty_Neutral>
5.33217e-08

> <r_epik_State_Penalty>
-0

> <r_epik_Charging_Adjusted_Penalty>
3.17464e-07

> <i_epik_Tot_Q>
0

> <i_epik_Tot_abs_Q>
0

> <r_epik_Metal_State_Penalty>
-0

> <b_epik_Metal_Only>
0

> <s_lp_Force_Field>
OPLS_2005

> <r_lp_Energy>
20.0442

> <b_lp_Chiralities_Consistent>
1

> <s_lp_Variant>
AV-unprocessed.smi:2019-2

> <Gold.Version>
5.8.1

> <Gold.Id.Protein>
6NUR|6NUR_protein|mol2

> <Gold.PLP.Fitness>
48.0461

> <Gold.PLP.PLP>
-39.2759

> <Gold.PLP.part.hbond>
-3.0000

> <Gold.PLP.part.metal>
0.0000

> <Gold.PLP.part.buried>
-3.5438

> <Gold.PLP.part.nonpolar>
-33.9108

> <Gold.PLP.part.repulsive>
0.3595

> <Gold.PLP.ligand.clash>
0.0000

> <Gold.PLP.ligand.torsion>
0.0830

> <Gold.PLP.Chemscore.Hbond>
1.9913

> <Gold.PLP.Chemscore.CHOScore>
0.9872

> <Gold.PLP.Chemscore.Metal>
0.0000

> <Gold.Chemscore.Hbonds>
donor molecule, donor type, donor heavy atom, donor atom, acceptor molecule, acceptor atom, score
      L1  H    17    36       P1  7948  0.84
      P1  H  7989  7998       L1    19  1.00
      L1  C     5    22       P1  8028  0.47

> <Gold.PLP.Chemscore.Internal.Correction>
0.0009

> <Gold.Rescore>
     Score         DG    S(hbond)    S(metal)    S(lipo)     H(rot)  DE(clash)    DE(int)     intcor
     15.66     -15.70       1.42        0.00      81.83       1.59       0.03       0.01       ----

> <Gold.Chemscore.Fitness>
15.6615

> <Gold.Chemscore.DG>
-15.7029

> <Gold.Chemscore.ZeroCoef>
-5.4800

> <Gold.Chemscore.Hbond>
1.4160

> <Gold.Chemscore.Metal>
0.0000

> <Gold.Chemscore.Lipo>
81.8288

> <Gold.Chemscore.Internal_Hbond>
0.0000

> <Gold.Chemscore.DEClash>
0.0323

> <Gold.Chemscore.DEInternal>
0.0091

> <Gold.Chemscore.Rot>
1.5939

> <Gold.Chemscore.Internal.Correction>
   9.000000E+99

> <Gold.Chemscore.Hbonds>
donor molecule, donor type, donor heavy atom, donor atom, acceptor molecule, acceptor atom, score
      L1  H    17    36       P1  7948  0.82
      P1  H  7989  7998       L1    19  0.25

> <Gold.Chemscore.Hbond.Weighted>
-4.7293

> <Gold.Chemscore.Metal.Weighted>
-0.0000

> <Gold.Chemscore.Lipo.Weighted>
-9.5740

> <Gold.Chemscore.Internal_Hbond.Weighted>
0.0000

> <Gold.Chemscore.DEClash.Weighted>
0.0323

> <Gold.Chemscore.DEInternal.Weighted>
0.0091

> <Gold.Chemscore.Rot.Weighted>
4.0804

> <Gold.Chemscore.Internal.Correction.Weighted>
   9.000000E+99

> <Gold.Protein.RotatedTorsions>
[ 6907 6896 6895 6894 ] final -145.84 input  -60.11 | X-H torsion
[ 7974 7965 7964 7962 ] final -172.40 input  175.53 | X-H torsion
[ 8008 7997 7996 7995 ] final  176.79 input   59.86 | X-H torsion
[ 10167 10162 10161 10158 ] final  -43.90 input  -65.29 | X-H torsion
[ 10718 10713 10712 10709 ] final -141.39 input   66.30 | X-H torsion
[ 10763 10752 10751 10750 ] final  -90.66 input  -60.55 | X-H torsion
[ 11005 11000 10999 10996 ] final   17.75 input  -57.11 | X-H torsion

> <Gold.Protein.ActiveResidues>
 VAL166  LYS551  ARG553  GLY616  TRP617  ASP618  TYR619  PRO620  LYS621  CYS622 
 ASP623  PHE694  ASN695  SER759  ASP760  ASP761  ALA762  ILE779  LEU786  VAL792 
 PHE793  MET794  SER795  GLU796  ALA797  LYS798  CYS799  TRP800  GLU811  SER814 

> <Gold.Protein.RotatedAtoms>
  151.1333  133.5021  159.2598 H   0  0  0  0  0  0  0  0  0  0  0  0  # atno 6907 bound_to 6896
  151.1734  135.0328  159.8771 H   0  0  0  0  0  0  0  0  0  0  0  0  # atno 6908 bound_to 6896
  152.5460  134.1194  159.8445 H   0  0  0  0  0  0  0  0  0  0  0  0  # atno 6909 bound_to 6896
  144.7147  140.1778  143.6361 H   0  0  0  0  0  0  0  0  0  0  0  0  # atno 7974 bound_to 7965
  156.0727  140.1375  156.9809 H   0  0  0  0  0  0  0  0  0  0  0  0  # atno 8008 bound_to 7997
  154.4541  140.0968  156.6755 H   0  0  0  0  0  0  0  0  0  0  0  0  # atno 8009 bound_to 7997
  155.5202  140.3456  155.4407 H   0  0  0  0  0  0  0  0  0  0  0  0  # atno 8010 bound_to 7997
  140.6917  143.2958  151.3419 H   0  0  0  0  0  0  0  0  0  0  0  0  # atno 10167 bound_to 10162
  156.3335  130.7599  151.1721 H   0  0  0  0  0  0  0  0  0  0  0  0  # atno 10718 bound_to 10713
  154.6681  135.5296  153.8103 H   0  0  0  0  0  0  0  0  0  0  0  0  # atno 10763 bound_to 10752
  153.0484  135.6522  154.0767 H   0  0  0  0  0  0  0  0  0  0  0  0  # atno 10764 bound_to 10752
  154.0669  135.2957  155.3295 H   0  0  0  0  0  0  0  0  0  0  0  0  # atno 10765 bound_to 10752
  140.4324  134.1406  155.7682 H   0  0  0  0  0  0  0  0  0  0  0  0  # atno 11005 bound_to 11000
  145.8884  139.2362  143.1564 LP  0  0  0  0  0  0  0  0  0  0  0  0  # atno 17320 bound_to 7965
  145.9927  140.8589  143.0058 LP  0  0  0  0  0  0  0  0  0  0  0  0  # atno 17321 bound_to 7965
  139.6326  144.0691  152.2489 LP  0  0  0  0  0  0  0  0  0  0  0  0  # atno 17342 bound_to 10162
  140.0171  144.6181  150.7598 LP  0  0  0  0  0  0  0  0  0  0  0  0  # atno 17343 bound_to 10162
  157.7434  131.0474  150.4945 LP  0  0  0  0  0  0  0  0  0  0  0  0  # atno 17370 bound_to 10713
  156.5114  130.4140  149.6299 LP  0  0  0  0  0  0  0  0  0  0  0  0  # atno 17371 bound_to 10713
  141.1740  133.8552  157.1482 LP  0  0  0  0  0  0  0  0  0  0  0  0  # atno 17394 bound_to 11000
  140.0125  134.9982  157.0424 LP  0  0  0  0  0  0  0  0  0  0  0  0  # atno 17395 bound_to 11000

$$$$
