AV-unprocessed.smi:65|AV-procd|sdf|615|dock4
  -GOLD-   2262016503D 1   1.00000     0.00000
 Structure written by MMmdl.
 26 27  0  0  0  0  0  0  0  0  2 V2000
  146.8409  138.2328  151.8049 N   0  0  0  0  0  0  0  0  0  0  0  0
  147.4188  139.1374  152.6618 C   0  0  0  0  0  0  0  0  0  0  0  0
  146.7536  140.2616  152.9418 N   0  0  0  0  0  0  0  0  0  0  0  0
  147.3154  141.1543  153.7790 C   0  0  0  0  0  0  0  0  0  0  0  0
  148.5741  140.9266  154.3595 C   0  0  0  0  0  0  0  0  0  0  0  0
  149.2284  139.7179  154.0310 C   0  0  0  0  0  0  0  0  0  0  0  0
  150.4944  139.3793  154.5454 N   0  0  0  0  0  0  0  0  0  0  0  0
  151.0958  140.1354  155.6366 C   0  0  0  0  0  0  0  0  0  0  0  0
  152.0055  139.1444  156.3739 C   0  0  0  0  0  0  0  0  0  0  0  0
  152.2778  138.0581  155.3318 C   0  0  1  0  0  0  0  0  0  0  0  0
  152.5987  136.8137  155.9156 O   0  0  0  0  0  0  0  0  0  0  0  0
  150.9685  138.0043  154.5464 C   0  0  0  0  0  0  0  0  0  0  0  0
  148.6227  138.8501  153.1763 N   0  3  0  0  0  0  0  0  0  0  0  0
  147.3175  137.3732  151.5724 H   0  0  0  0  0  0  0  0  0  0  0  0
  145.9412  138.4205  151.3867 H   0  0  0  0  0  0  0  0  0  0  0  0
  146.7574  142.0557  153.9853 H   0  0  0  0  0  0  0  0  0  0  0  0
  149.0105  141.6599  155.0214 H   0  0  0  0  0  0  0  0  0  0  0  0
  151.6776  140.9564  155.2165 H   0  0  0  0  0  0  0  0  0  0  0  0
  150.3493  140.5539  156.3125 H   0  0  0  0  0  0  0  0  0  0  0  0
  152.9154  139.6069  156.7577 H   0  0  0  0  0  0  0  0  0  0  0  0
  151.4622  138.7211  157.2205 H   0  0  0  0  0  0  0  0  0  0  0  0
  153.0897  138.3738  154.6750 H   0  0  0  0  0  0  0  0  0  0  0  0
  151.8088  136.4312  156.2666 H   0  0  0  0  0  0  0  0  0  0  0  0
  150.2359  137.3718  155.0504 H   0  0  0  0  0  0  0  0  0  0  0  0
  151.1189  137.6244  153.5352 H   0  0  0  0  0  0  0  0  0  0  0  0
  149.0920  137.9782  152.9322 H   0  0  0  0  0  0  0  0  0  0  0  0
  1  2  1  0  0  0  0
  1 14  1  0  0  0  0
  1 15  1  0  0  0  0
  2 13  1  0  0  0  0
  2  3  2  0  0  0  0
  3  4  1  0  0  0  0
  4  5  2  0  0  0  0
  4 16  1  0  0  0  0
  5  6  1  0  0  0  0
  5 17  1  0  0  0  0
  6  7  1  0  0  0  0
  6 13  2  0  0  0  0
  7 12  1  0  0  0  0
  7  8  1  0  0  0  0
  8  9  1  0  0  0  0
  8 18  1  0  0  0  0
  8 19  1  0  0  0  0
  9 10  1  0  0  0  0
  9 20  1  0  0  0  0
  9 21  1  0  0  0  0
 10 11  1  0  0  0  0
 10 12  1  0  0  0  0
 10 22  1  0  0  0  0
 11 23  1  0  0  0  0
 12 24  1  0  0  0  0
 12 25  1  0  0  0  0
 13 26  1  0  0  0  0
M  CHG  1  13   1
M  END
> <s_m_source_file>
AV-unprocessed.smi

> <i_m_source_file_index>
65

> <i_lp_mmshare_version>
43012

> <i_f3d_flags>
0

> <s_epik_input>
W05IMl1jMW5bY0hdW2NIXWMobjEpTjJbQ0gyXVtDSDJdW0NAQEhdKFtPSF0pW0NIMl0y

> <s_epik_cmdline>
J2VwaWtfcHl0aG9uJywgJy1waCcsICc3LjAnLCAnLXRuJywgJzgnLCAnLW1hJywgJzIwMCcsICctbWV0YWxfYmluZGluZycsICctaW1hZScsICc8aW5maWxlLm1hZT4nLCAnLW9tYWUnLCAnPG91dGZpbGUubWFlPic=

> <r_lp_tautomer_probability>
0.424989

> <r_epik_Ionization_Penalty>
0.57487

> <r_epik_Ionization_Penalty_Charging>
0.574865

> <r_epik_Ionization_Penalty_Neutral>
4.40886e-06

> <r_epik_State_Penalty>
0.845539

> <r_epik_Charging_Adjusted_Penalty>
1.4204

> <i_epik_Tot_Q>
1

> <i_epik_Tot_abs_Q>
1

> <r_epik_Metal_State_Penalty>
1.14248

> <b_epik_Metal_Only>
0

> <s_lp_Force_Field>
OPLS_2005

> <r_lp_Energy>
20.8145

> <b_lp_Chiralities_Consistent>
1

> <s_lp_Variant>
AV-unprocessed.smi:65-5

> <Gold.Version>
5.8.1

> <Gold.Id.Protein>
6NUR|6NUR_protein|mol2

> <Gold.PLP.Fitness>
39.6625

> <Gold.PLP.PLP>
-25.8997

> <Gold.PLP.part.hbond>
-4.0000

> <Gold.PLP.part.metal>
0.0000

> <Gold.PLP.part.buried>
0.9537

> <Gold.PLP.part.nonpolar>
-24.1007

> <Gold.PLP.part.repulsive>
0.5508

> <Gold.PLP.ligand.clash>
0.0000

> <Gold.PLP.ligand.torsion>
0.1127

> <Gold.PLP.Chemscore.Hbond>
4.5920

> <Gold.PLP.Chemscore.CHOScore>
0.0000

> <Gold.PLP.Chemscore.Metal>
0.0000

> <Gold.Chemscore.Hbonds>
donor molecule, donor type, donor heavy atom, donor atom, acceptor molecule, acceptor atom, score
      L1  H     1    14       P1  7948  1.89
      L1  H    13    26       P1  7948  1.82
      P1  H 10752 10765       L1    11  0.88

> <Gold.PLP.Chemscore.Internal.Correction>
0.2122

> <Gold.Rescore>
     Score         DG    S(hbond)    S(metal)    S(lipo)     H(rot)  DE(clash)    DE(int)     intcor
     15.29     -15.93       2.54        0.00      38.71       1.00       0.52       0.13       ----

> <Gold.Chemscore.Fitness>
15.2855

> <Gold.Chemscore.DG>
-15.9316

> <Gold.Chemscore.ZeroCoef>
-5.4800

> <Gold.Chemscore.Hbond>
2.5396

> <Gold.Chemscore.Metal>
0.0000

> <Gold.Chemscore.Lipo>
38.7131

> <Gold.Chemscore.Internal_Hbond>
0.0000

> <Gold.Chemscore.DEClash>
0.5191

> <Gold.Chemscore.DEInternal>
0.1270

> <Gold.Chemscore.Rot>
1.0000

> <Gold.Chemscore.Internal.Correction>
   9.000000E+99

> <Gold.Chemscore.Hbonds>
donor molecule, donor type, donor heavy atom, donor atom, acceptor molecule, acceptor atom, score
      L1  H     1    14       P1  7948  0.89
      L1  H    13    26       P1  7948  0.84
      P1  H 10752 10765       L1    11  0.22

> <Gold.Chemscore.Hbond.Weighted>
-8.4822

> <Gold.Chemscore.Metal.Weighted>
-0.0000

> <Gold.Chemscore.Lipo.Weighted>
-4.5294

> <Gold.Chemscore.Internal_Hbond.Weighted>
0.0000

> <Gold.Chemscore.DEClash.Weighted>
0.5191

> <Gold.Chemscore.DEInternal.Weighted>
0.1270

> <Gold.Chemscore.Rot.Weighted>
2.5600

> <Gold.Chemscore.Internal.Correction.Weighted>
   9.000000E+99

> <Gold.Protein.RotatedTorsions>
[ 6907 6896 6895 6894 ] final   37.94 input  -60.11 | X-H torsion
[ 7974 7965 7964 7962 ] final  107.94 input  175.53 | X-H torsion
[ 8008 7997 7996 7995 ] final  -48.56 input   59.86 | X-H torsion
[ 10167 10162 10161 10158 ] final  -42.36 input  -65.29 | X-H torsion
[ 10718 10713 10712 10709 ] final  -73.62 input   66.30 | X-H torsion
[ 10763 10752 10751 10750 ] final -147.96 input  -60.55 | X-H torsion
[ 11005 11000 10999 10996 ] final  112.91 input  -57.11 | X-H torsion

> <Gold.Protein.ActiveResidues>
 VAL166  LYS551  ARG553  GLY616  TRP617  ASP618  TYR619  PRO620  LYS621  CYS622 
 ASP623  PHE694  ASN695  SER759  ASP760  ASP761  ALA762  ILE779  LEU786  VAL792 
 PHE793  MET794  SER795  GLU796  ALA797  LYS798  CYS799  TRP800  GLU811  SER814 

> <Gold.Protein.RotatedAtoms>
  152.1499  134.8997  160.0548 H   0  0  0  0  0  0  0  0  0  0  0  0  # atno 6907 bound_to 6896
  152.0033  133.3828  159.4198 H   0  0  0  0  0  0  0  0  0  0  0  0  # atno 6908 bound_to 6896
  150.6874  134.3733  159.5045 H   0  0  0  0  0  0  0  0  0  0  0  0  # atno 6909 bound_to 6896
  145.2871  139.2613  143.3885 H   0  0  0  0  0  0  0  0  0  0  0  0  # atno 7974 bound_to 7965
  154.4031  140.1318  156.4360 H   0  0  0  0  0  0  0  0  0  0  0  0  # atno 8008 bound_to 7997
  155.7505  140.3488  155.5128 H   0  0  0  0  0  0  0  0  0  0  0  0  # atno 8009 bound_to 7997
  155.8954  140.1010  157.1379 H   0  0  0  0  0  0  0  0  0  0  0  0  # atno 8010 bound_to 7997
  140.6972  143.3042  151.3198 H   0  0  0  0  0  0  0  0  0  0  0  0  # atno 10167 bound_to 10162
  156.0273  130.4398  150.2769 H   0  0  0  0  0  0  0  0  0  0  0  0  # atno 10718 bound_to 10713
  154.8258  135.3347  154.6899 H   0  0  0  0  0  0  0  0  0  0  0  0  # atno 10763 bound_to 10752
  153.7525  135.6938  153.4947 H   0  0  0  0  0  0  0  0  0  0  0  0  # atno 10764 bound_to 10752
  153.2166  135.4463  155.0392 H   0  0  0  0  0  0  0  0  0  0  0  0  # atno 10765 bound_to 10752
  139.8939  134.9539  156.6658 H   0  0  0  0  0  0  0  0  0  0  0  0  # atno 11005 bound_to 11000
  146.3197  140.3352  142.8643 LP  0  0  0  0  0  0  0  0  0  0  0  0  # atno 17320 bound_to 7965
  144.9204  140.7861  143.5752 LP  0  0  0  0  0  0  0  0  0  0  0  0  # atno 17321 bound_to 7965
  139.6442  144.0483  152.2578 LP  0  0  0  0  0  0  0  0  0  0  0  0  # atno 17342 bound_to 10162
  139.9998  144.6301  150.7740 LP  0  0  0  0  0  0  0  0  0  0  0  0  # atno 17343 bound_to 10162
  157.0873  131.0160  151.3135 LP  0  0  0  0  0  0  0  0  0  0  0  0  # atno 17370 bound_to 10713
  157.4881  130.7806  149.7480 LP  0  0  0  0  0  0  0  0  0  0  0  0  # atno 17371 bound_to 10713
  140.7411  133.8976  155.8279 LP  0  0  0  0  0  0  0  0  0  0  0  0  # atno 17394 bound_to 11000
  141.0076  134.1064  157.4254 LP  0  0  0  0  0  0  0  0  0  0  0  0  # atno 17395 bound_to 11000

$$$$
