AV-unprocessed.smi:3250|AV-procd|sdf|12425|dock9
  -GOLD-   2272018313D 1   1.00000     0.00000
 Structure written by MMmdl.
 39 40  0  0  0  0  0  0  0  0  2 V2000
  145.3457  132.7846  150.9951 C   0  0  0  0  0  0  0  0  0  0  0  0
  144.2308  133.6670  150.4154 C   0  0  0  0  0  0  0  0  0  0  0  0
  144.0786  134.9502  151.1457 N   0  3  1  0  0  0  0  0  0  0  0  0
  143.4106  134.7736  152.4571 C   0  0  0  0  0  0  0  0  0  0  0  0
  143.2350  136.1286  153.1619 C   0  0  0  0  0  0  0  0  0  0  0  0
  144.5013  136.7616  153.2967 O   0  0  0  0  0  0  0  0  0  0  0  0
  145.1023  137.0345  152.0362 C   0  0  1  0  0  0  0  0  0  0  0  0
  146.3983  137.8237  152.2964 C   0  0  0  0  0  0  0  0  0  0  0  0
  146.1493  139.1597  152.8238 N   0  0  0  0  0  0  0  0  0  0  0  0
  147.0765  139.9193  153.5147 C   0  0  0  0  0  0  0  0  0  0  0  0
  146.6388  141.1011  153.9535 N   0  0  0  0  0  0  0  0  0  0  0  0
  147.5178  141.8644  154.6393 C   0  0  0  0  0  0  0  0  0  0  0  0
  148.8376  141.4370  154.8869 C   0  0  0  0  0  0  0  0  0  0  0  0
  149.1947  140.1721  154.3784 C   0  0  0  0  0  0  0  0  0  0  0  0
  150.4704  139.6899  154.5854 O   0  0  0  0  0  0  0  0  0  0  0  0
  150.8299  138.4587  153.9676 C   0  0  0  0  0  0  0  0  0  0  0  0
  148.3033  139.4161  153.6905 N   0  0  0  0  0  0  0  0  0  0  0  0
  145.3504  135.6970  151.3087 C   0  0  0  0  0  0  0  0  0  0  0  0
  145.5004  131.9051  150.3696 H   0  0  0  0  0  0  0  0  0  0  0  0
  145.1074  132.4282  151.9969 H   0  0  0  0  0  0  0  0  0  0  0  0
  146.2917  133.3246  151.0440 H   0  0  0  0  0  0  0  0  0  0  0  0
  144.4811  133.8808  149.3755 H   0  0  0  0  0  0  0  0  0  0  0  0
  143.2822  133.1285  150.4010 H   0  0  0  0  0  0  0  0  0  0  0  0
  142.4351  134.3064  152.3167 H   0  0  0  0  0  0  0  0  0  0  0  0
  144.0028  134.1027  153.0814 H   0  0  0  0  0  0  0  0  0  0  0  0
  142.5485  136.7715  152.6085 H   0  0  0  0  0  0  0  0  0  0  0  0
  142.8050  135.9836  154.1531 H   0  0  0  0  0  0  0  0  0  0  0  0
  144.4153  137.6486  151.4515 H   0  0  0  0  0  0  0  0  0  0  0  0
  147.0313  137.2802  152.9992 H   0  0  0  0  0  0  0  0  0  0  0  0
  146.9731  137.9148  151.3746 H   0  0  0  0  0  0  0  0  0  0  0  0
  145.2178  139.5398  152.7371 H   0  0  0  0  0  0  0  0  0  0  0  0
  147.1651  142.8212  154.9950 H   0  0  0  0  0  0  0  0  0  0  0  0
  149.5382  142.0478  155.4370 H   0  0  0  0  0  0  0  0  0  0  0  0
  151.8606  138.2134  154.2238 H   0  0  0  0  0  0  0  0  0  0  0  0
  150.7658  138.5233  152.8803 H   0  0  0  0  0  0  0  0  0  0  0  0
  150.1983  137.6396  154.3144 H   0  0  0  0  0  0  0  0  0  0  0  0
  146.0638  135.0895  151.8681 H   0  0  0  0  0  0  0  0  0  0  0  0
  145.7937  135.8938  150.3331 H   0  0  0  0  0  0  0  0  0  0  0  0
  143.4648  135.5298  150.5906 H   0  0  0  0  0  0  0  0  0  0  0  0
  1  2  1  0  0  0  0
  1 19  1  0  0  0  0
  1 20  1  0  0  0  0
  1 21  1  0  0  0  0
  2  3  1  0  0  0  0
  2 22  1  0  0  0  0
  2 23  1  0  0  0  0
  3 18  1  0  0  0  0
  3  4  1  0  0  0  0
  3 39  1  0  0  0  0
  4  5  1  0  0  0  0
  4 24  1  0  0  0  0
  4 25  1  0  0  0  0
  5  6  1  0  0  0  0
  5 26  1  0  0  0  0
  5 27  1  0  0  0  0
  6  7  1  0  0  0  0
  7  8  1  0  0  0  0
  7 18  1  0  0  0  0
  7 28  1  0  0  0  0
  8  9  1  0  0  0  0
  8 29  1  0  0  0  0
  8 30  1  0  0  0  0
  9 10  1  0  0  0  0
  9 31  1  0  0  0  0
 10 17  1  0  0  0  0
 10 11  2  0  0  0  0
 11 12  1  0  0  0  0
 12 13  2  0  0  0  0
 12 32  1  0  0  0  0
 13 14  1  0  0  0  0
 13 33  1  0  0  0  0
 14 15  1  0  0  0  0
 14 17  2  0  0  0  0
 15 16  1  0  0  0  0
 16 34  1  0  0  0  0
 16 35  1  0  0  0  0
 16 36  1  0  0  0  0
 18 37  1  0  0  0  0
 18 38  1  0  0  0  0
M  CHG  1   3   1
M  END
> <s_m_source_file>
AV-unprocessed.smi

> <i_m_source_file_index>
3250

> <i_lp_mmshare_version>
43012

> <i_f3d_flags>
0

> <s_epik_input>
W0NIM11bQ0gyXU4xW0NIMl1bQ0gyXU9bQ0BIXShbQ0gyXTEpW0NIMl1bTkhdYzJuW2NIXVtjSF1jKG4yKU9bQ0gzXQ==

> <s_epik_cmdline>
J2VwaWtfcHl0aG9uJywgJy1waCcsICc3LjAnLCAnLXRuJywgJzgnLCAnLW1hJywgJzIwMCcsICctbWV0YWxfYmluZGluZycsICctaW1hZScsICc8aW5maWxlLm1hZT4nLCAnLW9tYWUnLCAnPG91dGZpbGUubWFlPic=

> <r_lp_tautomer_probability>
1

> <r_epik_Ionization_Penalty>
0.19684

> <r_epik_Ionization_Penalty_Charging>
0.178504

> <r_epik_Ionization_Penalty_Neutral>
0.0183356

> <r_epik_State_Penalty>
0.162939

> <r_epik_Charging_Adjusted_Penalty>
0.341443

> <i_epik_Tot_Q>
1

> <i_epik_Tot_abs_Q>
1

> <r_epik_Metal_State_Penalty>
0.1608

> <b_epik_Metal_Only>
0

> <s_lp_Force_Field>
OPLS_2005

> <r_lp_Energy>
7.38775

> <b_lp_Chiralities_Consistent>
1

> <s_lp_Variant>
AV-unprocessed.smi:3250-1

> <Gold.Version>
5.8.1

> <Gold.Id.Protein>
6NUR|6NUR_protein|mol2

> <Gold.PLP.Fitness>
38.2238

> <Gold.PLP.PLP>
-30.1398

> <Gold.PLP.part.hbond>
-2.0000

> <Gold.PLP.part.metal>
0.0000

> <Gold.PLP.part.buried>
-3.1150

> <Gold.PLP.part.nonpolar>
-27.5532

> <Gold.PLP.part.repulsive>
2.2378

> <Gold.PLP.ligand.clash>
0.0000

> <Gold.PLP.ligand.torsion>
0.2751

> <Gold.PLP.Chemscore.Hbond>
2.0000

> <Gold.PLP.Chemscore.CHOScore>
0.8706

> <Gold.PLP.Chemscore.Metal>
0.0000

> <Gold.Chemscore.Hbonds>
donor molecule, donor type, donor heavy atom, donor atom, acceptor molecule, acceptor atom, score
      L1  H     9    31       P1 10175  1.00
      P1  H  7989  7998       L1    15  0.85
      L1  C    12    32       P1  8028  0.67

> <Gold.PLP.Chemscore.Internal.Correction>
0.0224

> <Gold.Rescore>
     Score         DG    S(hbond)    S(metal)    S(lipo)     H(rot)  DE(clash)    DE(int)     intcor
     10.01     -11.64       1.00        0.00      61.46       1.71       1.17       0.46       ----

> <Gold.Chemscore.Fitness>
10.0091

> <Gold.Chemscore.DG>
-11.6390

> <Gold.Chemscore.ZeroCoef>
-5.4800

> <Gold.Chemscore.Hbond>
1.0040

> <Gold.Chemscore.Metal>
0.0000

> <Gold.Chemscore.Lipo>
61.4564

> <Gold.Chemscore.Internal_Hbond>
0.0000

> <Gold.Chemscore.DEClash>
1.1656

> <Gold.Chemscore.DEInternal>
0.4643

> <Gold.Chemscore.Rot>
1.7127

> <Gold.Chemscore.Internal.Correction>
   9.000000E+99

> <Gold.Chemscore.Hbonds>
donor molecule, donor type, donor heavy atom, donor atom, acceptor molecule, acceptor atom, score
      L1  H     9    31       P1 10175  1.00
      P1  H  7989  7998       L1    15  0.06

> <Gold.Chemscore.Hbond.Weighted>
-3.3532

> <Gold.Chemscore.Metal.Weighted>
-0.0000

> <Gold.Chemscore.Lipo.Weighted>
-7.1904

> <Gold.Chemscore.Internal_Hbond.Weighted>
0.0000

> <Gold.Chemscore.DEClash.Weighted>
1.1656

> <Gold.Chemscore.DEInternal.Weighted>
0.4643

> <Gold.Chemscore.Rot.Weighted>
4.3846

> <Gold.Chemscore.Internal.Correction.Weighted>
   9.000000E+99

> <Gold.Protein.RotatedTorsions>
[ 6907 6896 6895 6894 ] final  -49.87 input  -60.11 | X-H torsion
[ 7974 7965 7964 7962 ] final  -83.01 input  175.53 | X-H torsion
[ 8008 7997 7996 7995 ] final   92.48 input   59.86 | X-H torsion
[ 10167 10162 10161 10158 ] final  -53.63 input  -65.29 | X-H torsion
[ 10718 10713 10712 10709 ] final  -10.03 input   66.30 | X-H torsion
[ 10763 10752 10751 10750 ] final -179.70 input  -60.55 | X-H torsion
[ 11005 11000 10999 10996 ] final   -9.40 input  -57.11 | X-H torsion

> <Gold.Protein.ActiveResidues>
 VAL166  LYS551  ARG553  GLY616  TRP617  ASP618  TYR619  PRO620  LYS621  CYS622 
 ASP623  PHE694  ASN695  SER759  ASP760  ASP761  ALA762  ILE779  LEU786  VAL792 
 PHE793  MET794  SER795  GLU796  ALA797  LYS798  CYS799  TRP800  GLU811  SER814 

> <Gold.Protein.RotatedAtoms>
  150.8762  134.8145  159.7191 H   0  0  0  0  0  0  0  0  0  0  0  0  # atno 6907 bound_to 6896
  152.4748  134.4868  159.9692 H   0  0  0  0  0  0  0  0  0  0  0  0  # atno 6908 bound_to 6896
  151.4949  133.3478  159.2895 H   0  0  0  0  0  0  0  0  0  0  0  0  # atno 6909 bound_to 6896
  145.5256  140.9527  143.1631 H   0  0  0  0  0  0  0  0  0  0  0  0  # atno 7974 bound_to 7965
  156.0358  140.3325  155.7189 H   0  0  0  0  0  0  0  0  0  0  0  0  # atno 8008 bound_to 7997
  155.5817  140.0637  157.2799 H   0  0  0  0  0  0  0  0  0  0  0  0  # atno 8009 bound_to 7997
  154.4372  140.1843  156.0972 H   0  0  0  0  0  0  0  0  0  0  0  0  # atno 8010 bound_to 7997
  140.6475  143.2544  151.4819 H   0  0  0  0  0  0  0  0  0  0  0  0  # atno 10167 bound_to 10162
  156.6794  130.5032  149.5976 H   0  0  0  0  0  0  0  0  0  0  0  0  # atno 10718 bound_to 10713
  154.5317  135.2800  155.1174 H   0  0  0  0  0  0  0  0  0  0  0  0  # atno 10763 bound_to 10752
  154.2692  135.6307  153.5307 H   0  0  0  0  0  0  0  0  0  0  0  0  # atno 10764 bound_to 10752
  152.9958  135.5624  154.5832 H   0  0  0  0  0  0  0  0  0  0  0  0  # atno 10765 bound_to 10752
  140.7337  133.8727  155.8913 H   0  0  0  0  0  0  0  0  0  0  0  0  # atno 11005 bound_to 11000
  144.7653  139.6861  143.7217 LP  0  0  0  0  0  0  0  0  0  0  0  0  # atno 17320 bound_to 7965
  146.2077  139.5413  142.9701 LP  0  0  0  0  0  0  0  0  0  0  0  0  # atno 17321 bound_to 7965
  139.5686  144.1982  152.1803 LP  0  0  0  0  0  0  0  0  0  0  0  0  # atno 17342 bound_to 10162
  140.1271  144.5321  150.6826 LP  0  0  0  0  0  0  0  0  0  0  0  0  # atno 17343 bound_to 10162
  156.1878  130.6541  151.1027 LP  0  0  0  0  0  0  0  0  0  0  0  0  # atno 17370 bound_to 10713
  157.7049  131.0761  150.6700 LP  0  0  0  0  0  0  0  0  0  0  0  0  # atno 17371 bound_to 10713
  140.9898  134.1294  157.4419 LP  0  0  0  0  0  0  0  0  0  0  0  0  # atno 17394 bound_to 11000
  139.8820  135.0037  156.6201 LP  0  0  0  0  0  0  0  0  0  0  0  0  # atno 17395 bound_to 11000

$$$$
