AV-unprocessed.smi:927|AV-procd|sdf|4187|dock2
  -GOLD-   22720 2 93D 1   1.00000     0.00000
 Structure written by MMmdl.
 21 21  0  0  0  0  0  0  0  0  2 V2000
  148.1536  138.7347  152.7314 N   0  3  0  0  0  0  0  0  0  0  0  0
  148.0102  139.1713  154.1316 C   0  0  0  0  0  0  0  0  0  0  0  0
  148.8074  140.4572  154.4147 C   0  0  2  0  0  0  0  0  0  0  0  0
  149.0343  141.1304  153.1916 O   0  0  0  0  0  0  0  0  0  0  0  0
  150.1096  140.1495  155.1373 C   0  0  0  0  0  0  0  0  0  0  0  0
  150.4369  140.8155  156.3371 C   0  0  0  0  0  0  0  0  0  0  0  0
  151.6517  140.4954  156.9762 C   0  0  0  0  0  0  0  0  0  0  0  0
  152.5211  139.5792  156.4996 N   0  0  0  0  0  0  0  0  0  0  0  0
  152.2029  138.9431  155.3521 C   0  0  0  0  0  0  0  0  0  0  0  0
  151.0144  139.1886  154.6357 C   0  0  0  0  0  0  0  0  0  0  0  0
  147.2666  138.8230  152.2565 H   0  0  0  0  0  0  0  0  0  0  0  0
  148.4510  137.7693  152.7145 H   0  0  0  0  0  0  0  0  0  0  0  0
  146.9500  139.3387  154.3248 H   0  0  0  0  0  0  0  0  0  0  0  0
  148.3305  138.3635  154.7910 H   0  0  0  0  0  0  0  0  0  0  0  0
  148.2118  141.1198  155.0446 H   0  0  0  0  0  0  0  0  0  0  0  0
  148.9237  140.5124  152.4843 H   0  0  0  0  0  0  0  0  0  0  0  0
  149.7762  141.5563  156.7632 H   0  0  0  0  0  0  0  0  0  0  0  0
  151.9313  140.9878  157.8958 H   0  0  0  0  0  0  0  0  0  0  0  0
  152.9158  138.2148  154.9945 H   0  0  0  0  0  0  0  0  0  0  0  0
  150.8069  138.6488  153.7233 H   0  0  0  0  0  0  0  0  0  0  0  0
  148.8445  139.3068  152.2673 H   0  0  0  0  0  0  0  0  0  0  0  0
  1  2  1  0  0  0  0
  1 11  1  0  0  0  0
  1 12  1  0  0  0  0
  1 21  1  0  0  0  0
  2  3  1  0  0  0  0
  2 13  1  0  0  0  0
  2 14  1  0  0  0  0
  3  4  1  0  0  0  0
  3  5  1  0  0  0  0
  3 15  1  0  0  0  0
  4 16  1  0  0  0  0
  5 10  1  0  0  0  0
  5  6  2  0  0  0  0
  6  7  1  0  0  0  0
  6 17  1  0  0  0  0
  7  8  2  0  0  0  0
  7 18  1  0  0  0  0
  8  9  1  0  0  0  0
  9 10  2  0  0  0  0
  9 19  1  0  0  0  0
 10 20  1  0  0  0  0
M  CHG  1   1   1
M  END
> <s_m_source_file>
AV-unprocessed.smi

> <i_m_source_file_index>
927

> <i_lp_mmshare_version>
43012

> <i_f3d_flags>
0

> <s_epik_input>
W05IMl1bQ0gyXVtDQEhdKFtPSF0pYzFbY0hdW2NIXW5bY0hdW2NIXTE=

> <s_epik_cmdline>
J2VwaWtfcHl0aG9uJywgJy1waCcsICc3LjAnLCAnLXRuJywgJzgnLCAnLW1hJywgJzIwMCcsICctbWV0YWxfYmluZGluZycsICctaW1hZScsICc8aW5maWxlLm1hZT4nLCAnLW9tYWUnLCAnPG91dGZpbGUubWFlPic=

> <r_epik_Ionization_Penalty>
0.0159363

> <r_epik_Ionization_Penalty_Charging>
0.0140431

> <r_epik_Ionization_Penalty_Neutral>
0.00189321

> <r_epik_State_Penalty>
0.0109628

> <r_epik_Charging_Adjusted_Penalty>
0.0250059

> <i_epik_Tot_Q>
1

> <i_epik_Tot_abs_Q>
1

> <r_epik_Metal_State_Penalty>
0.0113463

> <b_epik_Metal_Only>
0

> <s_lp_Force_Field>
OPLS_2005

> <r_lp_Energy>
4.52457

> <b_lp_Chiralities_Consistent>
1

> <s_lp_Variant>
AV-unprocessed.smi:927-1

> <Gold.Version>
5.8.1

> <Gold.Id.Protein>
6NUR|6NUR_protein|mol2

> <Gold.PLP.Fitness>
38.7715

> <Gold.PLP.PLP>
-22.7122

> <Gold.PLP.part.hbond>
-5.3246

> <Gold.PLP.part.metal>
0.0000

> <Gold.PLP.part.buried>
-2.4874

> <Gold.PLP.part.nonpolar>
-15.5722

> <Gold.PLP.part.repulsive>
0.0738

> <Gold.PLP.ligand.clash>
0.0000

> <Gold.PLP.ligand.torsion>
0.6977

> <Gold.PLP.Chemscore.Hbond>
5.8160

> <Gold.PLP.Chemscore.CHOScore>
0.0000

> <Gold.PLP.Chemscore.Metal>
0.0000

> <Gold.Chemscore.Hbonds>
donor molecule, donor type, donor heavy atom, donor atom, acceptor molecule, acceptor atom, score
      L1  H     1    12       P1  7948  2.00
      L1  H     1    21       P1  7957  0.98
      L1  H     4    16       P1  7957  0.82
      P1  H  7997  8008       L1     8  1.00
      P1  H  8011  8017       L1     4  0.95

> <Gold.PLP.Chemscore.Internal.Correction>
0.0068

> <Gold.Rescore>
     Score         DG    S(hbond)    S(metal)    S(lipo)     H(rot)  DE(clash)    DE(int)     intcor
     18.72     -19.82       4.05        0.00      48.62       1.90       0.13       0.97       ----

> <Gold.Chemscore.Fitness>
18.7222

> <Gold.Chemscore.DG>
-19.8221

> <Gold.Chemscore.ZeroCoef>
-5.4800

> <Gold.Chemscore.Hbond>
4.0459

> <Gold.Chemscore.Metal>
0.0000

> <Gold.Chemscore.Lipo>
48.6151

> <Gold.Chemscore.Internal_Hbond>
0.0000

> <Gold.Chemscore.DEClash>
0.1344

> <Gold.Chemscore.DEInternal>
0.9655

> <Gold.Chemscore.Rot>
1.8981

> <Gold.Chemscore.Internal.Correction>
   9.000000E+99

> <Gold.Chemscore.Hbonds>
donor molecule, donor type, donor heavy atom, donor atom, acceptor molecule, acceptor atom, score
      L1  H     1    12       P1  7948  0.96
      L1  H     1    21       P1  7957  0.91
      L1  H     4    16       P1  7957  0.78
      P1  H  7997  8008       L1     8  0.47
      P1  H  8011  8017       L1     4  0.21

> <Gold.Chemscore.Hbond.Weighted>
-13.5133

> <Gold.Chemscore.Metal.Weighted>
-0.0000

> <Gold.Chemscore.Lipo.Weighted>
-5.6880

> <Gold.Chemscore.Internal_Hbond.Weighted>
0.0000

> <Gold.Chemscore.DEClash.Weighted>
0.1344

> <Gold.Chemscore.DEInternal.Weighted>
0.9655

> <Gold.Chemscore.Rot.Weighted>
4.8592

> <Gold.Chemscore.Internal.Correction.Weighted>
   9.000000E+99

> <Gold.Protein.RotatedTorsions>
[ 6907 6896 6895 6894 ] final   87.63 input  -60.11 | X-H torsion
[ 7974 7965 7964 7962 ] final  -66.28 input  175.53 | X-H torsion
[ 8008 7997 7996 7995 ] final  -37.50 input   59.86 | X-H torsion
[ 10167 10162 10161 10158 ] final  -14.73 input  -65.29 | X-H torsion
[ 10718 10713 10712 10709 ] final   44.01 input   66.30 | X-H torsion
[ 10763 10752 10751 10750 ] final  -86.24 input  -60.55 | X-H torsion
[ 11005 11000 10999 10996 ] final  124.87 input  -57.11 | X-H torsion

> <Gold.Protein.ActiveResidues>
 VAL166  LYS551  ARG553  GLY616  TRP617  ASP618  TYR619  PRO620  LYS621  CYS622 
 ASP623  PHE694  ASN695  SER759  ASP760  ASP761  ALA762  ILE779  LEU786  VAL792 
 PHE793  MET794  SER795  GLU796  ALA797  LYS798  CYS799  TRP800  GLU811  SER814 

> <Gold.Protein.RotatedAtoms>
  152.5414  134.2246  159.8800 H   0  0  0  0  0  0  0  0  0  0  0  0  # atno 6907 bound_to 6896
  151.2221  133.4490  159.2608 H   0  0  0  0  0  0  0  0  0  0  0  0  # atno 6908 bound_to 6896
  151.0795  134.9862  159.8405 H   0  0  0  0  0  0  0  0  0  0  0  0  # atno 6909 bound_to 6896
  145.7437  140.8941  143.0516 H   0  0  0  0  0  0  0  0  0  0  0  0  # atno 7974 bound_to 7965
  154.4052  140.1602  156.2547 H   0  0  0  0  0  0  0  0  0  0  0  0  # atno 8008 bound_to 7997
  155.9088  140.3428  155.6060 H   0  0  0  0  0  0  0  0  0  0  0  0  # atno 8009 bound_to 7997
  155.7360  140.0786  157.2258 H   0  0  0  0  0  0  0  0  0  0  0  0  # atno 8010 bound_to 7997
  140.7206  143.5291  150.9541 H   0  0  0  0  0  0  0  0  0  0  0  0  # atno 10167 bound_to 10162
  157.4222  130.7976  149.7526 H   0  0  0  0  0  0  0  0  0  0  0  0  # atno 10718 bound_to 10713
  154.6202  135.5456  153.7566 H   0  0  0  0  0  0  0  0  0  0  0  0  # atno 10763 bound_to 10752
  153.0235  135.6411  154.1452 H   0  0  0  0  0  0  0  0  0  0  0  0  # atno 10764 bound_to 10752
  154.1387  135.2909  155.3146 H   0  0  0  0  0  0  0  0  0  0  0  0  # atno 10765 bound_to 10752
  139.9379  134.9638  156.8474 H   0  0  0  0  0  0  0  0  0  0  0  0  # atno 11005 bound_to 11000
  144.6865  139.9496  143.7477 LP  0  0  0  0  0  0  0  0  0  0  0  0  # atno 17320 bound_to 7965
  146.0423  139.3433  143.0690 LP  0  0  0  0  0  0  0  0  0  0  0  0  # atno 17321 bound_to 7965
  139.9011  143.6835  152.3131 LP  0  0  0  0  0  0  0  0  0  0  0  0  # atno 17342 bound_to 10162
  139.7185  144.7607  151.0995 LP  0  0  0  0  0  0  0  0  0  0  0  0  # atno 17343 bound_to 10162
  155.9884  130.3959  150.3118 LP  0  0  0  0  0  0  0  0  0  0  0  0  # atno 17370 bound_to 10713
  157.1267  131.0261  151.2986 LP  0  0  0  0  0  0  0  0  0  0  0  0  # atno 17371 bound_to 10713
  140.6027  134.0157  155.7544 LP  0  0  0  0  0  0  0  0  0  0  0  0  # atno 17394 bound_to 11000
  141.1001  133.9781  157.3093 LP  0  0  0  0  0  0  0  0  0  0  0  0  # atno 17395 bound_to 11000

$$$$
