AV-unprocessed.smi:3068|AV-procd|sdf|11707|dock7
  -GOLD-   2272017113D 1   1.00000     0.00000
 Structure written by MMmdl.
 39 41  0  0  0  0  0  0  0  0  1 V2000
  152.6531  136.0494  158.3110 N   0  0  0  0  0  0  0  0  0  0  0  0
  152.1959  136.5974  157.3999 C   0  0  0  0  0  0  0  0  0  0  0  0
  151.6206  137.2876  156.2524 C   0  0  0  0  0  0  0  0  0  0  0  0
  152.1075  136.9514  155.0353 N   0  0  0  0  0  0  0  0  0  0  0  0
  151.5841  137.5837  153.9636 C   0  0  0  0  0  0  0  0  0  0  0  0
  150.5726  138.5536  154.1012 C   0  0  0  0  0  0  0  0  0  0  0  0
  150.0801  138.8940  155.3108 N   0  0  0  0  0  0  0  0  0  0  0  0
  150.5985  138.2681  156.3972 C   0  0  0  0  0  0  0  0  0  0  0  0
  150.0934  138.6097  157.6656 N   0  0  0  0  0  0  0  0  0  0  0  0
  150.9017  139.3236  158.6473 C   0  0  0  0  0  0  0  0  0  0  0  0
  151.8951  140.3065  157.9909 C   0  0  1  0  0  0  0  0  0  0  0  0
  151.3933  141.7628  158.0094 C   0  0  0  0  0  0  0  0  0  0  0  0
  151.4355  142.3586  159.3395 N   0  0  0  0  0  0  0  0  0  0  0  0
  150.9701  143.7448  159.3092 C   0  0  0  0  0  0  0  0  0  0  0  0
  150.9711  144.3953  160.7011 C   0  0  0  0  0  0  0  0  0  0  0  0
  152.3738  144.3216  161.3204 C   0  0  0  0  0  0  0  0  0  0  0  0
  152.8794  142.8710  161.3047 C   0  0  0  0  0  0  0  0  0  0  0  0
  152.7920  142.2680  159.8868 C   0  0  1  0  0  0  0  0  0  0  0  0
  153.2875  140.8084  159.8932 C   0  0  0  0  0  0  0  0  0  0  0  0
  153.1916  140.2419  158.5886 O   0  0  0  0  0  0  0  0  0  0  0  0
  151.9731  137.3145  152.9928 H   0  0  0  0  0  0  0  0  0  0  0  0
  150.1577  139.0567  153.2403 H   0  0  0  0  0  0  0  0  0  0  0  0
  149.2349  138.1815  157.9816 H   0  0  0  0  0  0  0  0  0  0  0  0
  150.2483  139.8572  159.3380 H   0  0  0  0  0  0  0  0  0  0  0  0
  151.4291  138.5900  159.2559 H   0  0  0  0  0  0  0  0  0  0  0  0
  152.0172  140.0193  156.9463 H   0  0  0  0  0  0  0  0  0  0  0  0
  152.0102  142.3531  157.3300 H   0  0  0  0  0  0  0  0  0  0  0  0
  150.3776  141.8048  157.6146 H   0  0  0  0  0  0  0  0  0  0  0  0
  151.5969  144.3311  158.6354 H   0  0  0  0  0  0  0  0  0  0  0  0
  149.9597  143.7828  158.9007 H   0  0  0  0  0  0  0  0  0  0  0  0
  150.6438  145.4329  160.6323 H   0  0  0  0  0  0  0  0  0  0  0  0
  150.2553  143.8830  161.3454 H   0  0  0  0  0  0  0  0  0  0  0  0
  153.0584  144.9541  160.7538 H   0  0  0  0  0  0  0  0  0  0  0  0
  152.3599  144.7084  162.3398 H   0  0  0  0  0  0  0  0  0  0  0  0
  153.9071  142.8355  161.6674 H   0  0  0  0  0  0  0  0  0  0  0  0
  152.2850  142.2732  161.9972 H   0  0  0  0  0  0  0  0  0  0  0  0
  153.4628  142.8386  159.2418 H   0  0  0  0  0  0  0  0  0  0  0  0
  154.3300  140.7658  160.2095 H   0  0  0  0  0  0  0  0  0  0  0  0
  152.7233  140.2075  160.6067 H   0  0  0  0  0  0  0  0  0  0  0  0
  1  2  3  0  0  0  0
  2  3  1  0  0  0  0
  3  8  1  0  0  0  0
  3  4  2  0  0  0  0
  4  5  1  0  0  0  0
  5  6  2  0  0  0  0
  5 21  1  0  0  0  0
  6  7  1  0  0  0  0
  6 22  1  0  0  0  0
  7  8  2  0  0  0  0
  8  9  1  0  0  0  0
  9 10  1  0  0  0  0
  9 23  1  0  0  0  0
 10 11  1  0  0  0  0
 10 24  1  0  0  0  0
 10 25  1  0  0  0  0
 11 20  1  0  0  0  0
 11 12  1  0  0  0  0
 11 26  1  0  0  0  0
 12 13  1  0  0  0  0
 12 27  1  0  0  0  0
 12 28  1  0  0  0  0
 13 18  1  0  0  0  0
 13 14  1  0  0  0  0
 14 15  1  0  0  0  0
 14 29  1  0  0  0  0
 14 30  1  0  0  0  0
 15 16  1  0  0  0  0
 15 31  1  0  0  0  0
 15 32  1  0  0  0  0
 16 17  1  0  0  0  0
 16 33  1  0  0  0  0
 16 34  1  0  0  0  0
 17 18  1  0  0  0  0
 17 35  1  0  0  0  0
 17 36  1  0  0  0  0
 18 19  1  0  0  0  0
 18 37  1  0  0  0  0
 19 20  1  0  0  0  0
 19 38  1  0  0  0  0
 19 39  1  0  0  0  0
M  END
> <s_m_source_file>
AV-unprocessed.smi

> <i_m_source_file_index>
3068

> <i_lp_mmshare_version>
43012

> <i_f3d_flags>
0

> <s_epik_input>
TiNDYzFuW2NIXVtjSF1uYzFbTkhdW0NIMl1bQ0BIXShbQ0gyXTIpT1tDSDJdW0NAQEhdKE4yMylbQ0gyXVtDSDJdW0NIMl1bQ0gyXTM=

> <s_epik_cmdline>
J2VwaWtfcHl0aG9uJywgJy1waCcsICc3LjAnLCAnLXRuJywgJzgnLCAnLW1hJywgJzIwMCcsICctbWV0YWxfYmluZGluZycsICctaW1hZScsICc8aW5maWxlLm1hZT4nLCAnLW9tYWUnLCAnPG91dGZpbGUubWFlPic=

> <r_epik_Ionization_Penalty>
1.22359

> <r_epik_Ionization_Penalty_Charging>
0

> <r_epik_Ionization_Penalty_Neutral>
1.22359

> <r_epik_State_Penalty>
1.29103

> <r_epik_Charging_Adjusted_Penalty>
1.29103

> <i_epik_Tot_Q>
0

> <i_epik_Tot_abs_Q>
0

> <r_epik_Metal_State_Penalty>
1.29103

> <b_epik_Metal_Only>
0

> <s_lp_Force_Field>
OPLS_2005

> <r_lp_Energy>
49.2936

> <b_lp_Chiralities_Consistent>
1

> <s_lp_Variant>
AV-unprocessed.smi:3068-10

> <Gold.Version>
5.8.1

> <Gold.Id.Protein>
6NUR|6NUR_protein|mol2

> <Gold.PLP.Fitness>
42.1013

> <Gold.PLP.PLP>
-32.7248

> <Gold.PLP.part.hbond>
-3.0000

> <Gold.PLP.part.metal>
0.0000

> <Gold.PLP.part.buried>
-4.0945

> <Gold.PLP.part.nonpolar>
-25.1482

> <Gold.PLP.part.repulsive>
0.2068

> <Gold.PLP.ligand.clash>
0.0000

> <Gold.PLP.ligand.torsion>
1.4227

> <Gold.PLP.Chemscore.Hbond>
2.0724

> <Gold.PLP.Chemscore.CHOScore>
2.0000

> <Gold.PLP.Chemscore.Metal>
0.0000

> <Gold.Chemscore.Hbonds>
donor molecule, donor type, donor heavy atom, donor atom, acceptor molecule, acceptor atom, score
      P1  H  6896  6908       L1     1  0.33
      P1  H  7997  8009       L1    20  0.80
      P1  H 10752 10763       L1     4  0.94
      L1  C     5    21       P1  7949  1.00
      L1  C     6    22       P1  7957  1.00

> <Gold.PLP.Chemscore.Internal.Correction>
0.0047

> <Gold.Rescore>
     Score         DG    S(hbond)    S(metal)    S(lipo)     H(rot)  DE(clash)    DE(int)     intcor
     17.51     -20.13       1.87        0.00     100.40       1.30       1.22       1.40       ----

> <Gold.Chemscore.Fitness>
17.5117

> <Gold.Chemscore.DG>
-20.1349

> <Gold.Chemscore.ZeroCoef>
-5.4800

> <Gold.Chemscore.Hbond>
1.8685

> <Gold.Chemscore.Metal>
0.0000

> <Gold.Chemscore.Lipo>
100.3992

> <Gold.Chemscore.Internal_Hbond>
0.0000

> <Gold.Chemscore.DEClash>
1.2190

> <Gold.Chemscore.DEInternal>
1.4041

> <Gold.Chemscore.Rot>
1.3019

> <Gold.Chemscore.Internal.Correction>
   9.000000E+99

> <Gold.Chemscore.Hbonds>
donor molecule, donor type, donor heavy atom, donor atom, acceptor molecule, acceptor atom, score
      P1  H  6896  6908       L1     1  0.32
      P1  H  7997  8009       L1    20  0.52
      P1  H 10752 10763       L1     4  0.74

> <Gold.Chemscore.Hbond.Weighted>
-6.2409

> <Gold.Chemscore.Metal.Weighted>
-0.0000

> <Gold.Chemscore.Lipo.Weighted>
-11.7467

> <Gold.Chemscore.Internal_Hbond.Weighted>
0.0000

> <Gold.Chemscore.DEClash.Weighted>
1.2190

> <Gold.Chemscore.DEInternal.Weighted>
1.4041

> <Gold.Chemscore.Rot.Weighted>
3.3327

> <Gold.Chemscore.Internal.Correction.Weighted>
   9.000000E+99

> <Gold.Protein.RotatedTorsions>
[ 6907 6896 6895 6894 ] final -104.03 input  -60.11 | X-H torsion
[ 7974 7965 7964 7962 ] final  -13.91 input  175.53 | X-H torsion
[ 8008 7997 7996 7995 ] final  151.72 input   59.86 | X-H torsion
[ 10167 10162 10161 10158 ] final -114.35 input  -65.29 | X-H torsion
[ 10718 10713 10712 10709 ] final   47.71 input   66.30 | X-H torsion
[ 10763 10752 10751 10750 ] final   60.13 input  -60.55 | X-H torsion
[ 11005 11000 10999 10996 ] final  -52.41 input  -57.11 | X-H torsion

> <Gold.Protein.ActiveResidues>
 VAL166  LYS551  ARG553  GLY616  TRP617  ASP618  TYR619  PRO620  LYS621  CYS622 
 ASP623  PHE694  ASN695  SER759  ASP760  ASP761  ALA762  ILE779  LEU786  VAL792 
 PHE793  MET794  SER795  GLU796  ALA797  LYS798  CYS799  TRP800  GLU811  SER814 

> <Gold.Protein.RotatedAtoms>
  150.7268  134.0339  159.3742 H   0  0  0  0  0  0  0  0  0  0  0  0  # atno 6907 bound_to 6896
  151.8309  135.0619  160.0446 H   0  0  0  0  0  0  0  0  0  0  0  0  # atno 6908 bound_to 6896
  152.2934  133.5547  159.5608 H   0  0  0  0  0  0  0  0  0  0  0  0  # atno 6909 bound_to 6896
  146.2095  140.3272  142.8395 H   0  0  0  0  0  0  0  0  0  0  0  0  # atno 7974 bound_to 7965
  156.2661  140.2040  156.6221 H   0  0  0  0  0  0  0  0  0  0  0  0  # atno 8008 bound_to 7997
  154.6749  140.0546  157.0229 H   0  0  0  0  0  0  0  0  0  0  0  0  # atno 8009 bound_to 7997
  155.1084  140.3213  155.4531 H   0  0  0  0  0  0  0  0  0  0  0  0  # atno 8010 bound_to 7997
  140.1019  143.4605  152.1806 H   0  0  0  0  0  0  0  0  0  0  0  0  # atno 10167 bound_to 10162
  157.4613  130.8198  149.7889 H   0  0  0  0  0  0  0  0  0  0  0  0  # atno 10718 bound_to 10713
  152.9913  135.5547  154.5824 H   0  0  0  0  0  0  0  0  0  0  0  0  # atno 10763 bound_to 10752
  154.5203  135.2807  155.1270 H   0  0  0  0  0  0  0  0  0  0  0  0  # atno 10764 bound_to 10752
  154.2626  135.6378  153.5333 H   0  0  0  0  0  0  0  0  0  0  0  0  # atno 10765 bound_to 10752
  141.0923  133.6630  156.4020 H   0  0  0  0  0  0  0  0  0  0  0  0  # atno 11005 bound_to 11000
  144.8878  140.7484  143.5946 LP  0  0  0  0  0  0  0  0  0  0  0  0  # atno 17320 bound_to 7965
  145.3194  139.1793  143.4596 LP  0  0  0  0  0  0  0  0  0  0  0  0  # atno 17321 bound_to 7965
  139.5666  144.7439  151.4005 LP  0  0  0  0  0  0  0  0  0  0  0  0  # atno 17342 bound_to 10162
  140.6973  143.7718  150.7346 LP  0  0  0  0  0  0  0  0  0  0  0  0  # atno 17343 bound_to 10162
  156.0030  130.3870  150.2536 LP  0  0  0  0  0  0  0  0  0  0  0  0  # atno 17370 bound_to 10713
  157.0713  131.0117  151.3189 LP  0  0  0  0  0  0  0  0  0  0  0  0  # atno 17371 bound_to 10713
  140.5223  134.6292  157.5322 LP  0  0  0  0  0  0  0  0  0  0  0  0  # atno 17394 bound_to 11000
  139.9751  134.7228  155.9965 LP  0  0  0  0  0  0  0  0  0  0  0  0  # atno 17395 bound_to 11000

$$$$
