AV-unprocessed.smi:3028|AV-procd|sdf|11520|dock9
  -GOLD-   2272016463D 1   1.00000     0.00000
 Structure written by MMmdl.
 48 49  0  0  0  0  0  0  0  0  2 V2000
  151.3854  142.1243  158.0799 C   0  0  0  0  0  0  0  0  0  0  0  0
  150.4801  141.4223  157.1090 C   0  0  0  0  0  0  0  0  0  0  0  0
  149.0795  141.1960  157.2265 C   0  0  0  0  0  0  0  0  0  0  0  0
  148.5760  140.5438  156.1917 N   0  0  0  0  0  0  0  0  0  0  0  0
  149.6330  140.3304  155.3767 N   0  0  0  0  0  0  0  0  0  0  0  0
  149.4568  139.6206  154.1159 C   0  0  1  0  0  0  0  0  0  0  0  0
  150.3201  138.3438  154.1064 C   0  0  0  0  0  0  0  0  0  0  0  0
  147.9642  139.3296  153.8048 C   0  0  1  0  0  0  0  0  0  0  0  0
  147.0750  140.5880  153.8868 C   0  0  0  0  0  0  0  0  0  0  0  0
  147.8460  138.7134  152.4639 N   0  3  0  0  0  0  0  0  0  0  0  0
  146.4930  138.7443  151.8673 C   0  0  0  0  0  0  0  0  0  0  0  0
  145.7218  137.4408  152.1174 C   0  0  0  0  0  0  0  0  0  0  0  0
  144.6376  137.4688  152.6980 O   0  0  0  0  0  0  0  0  0  0  0  0
  146.2440  136.2770  151.6952 N   0  0  0  0  0  0  0  0  0  0  0  0
  145.6746  134.9378  151.8334 C   0  0  0  0  0  0  0  0  0  0  0  0
  146.6258  133.9078  151.2053 C   0  0  0  0  0  0  0  0  0  0  0  0
  145.9877  132.5091  151.1994 C   0  0  0  0  0  0  0  0  0  0  0  0
  144.7429  132.5470  150.5102 O   0  0  0  0  0  0  0  0  0  0  0  0
  143.7897  133.4020  151.1317 C   0  0  0  0  0  0  0  0  0  0  0  0
  144.3055  134.8506  151.1369 C   0  0  0  0  0  0  0  0  0  0  0  0
  150.7950  140.8495  155.9095 C   0  0  0  0  0  0  0  0  0  0  0  0
  150.9421  142.1876  159.0739 H   0  0  0  0  0  0  0  0  0  0  0  0
  151.6039  143.1432  157.7599 H   0  0  0  0  0  0  0  0  0  0  0  0
  152.3398  141.6087  158.1872 H   0  0  0  0  0  0  0  0  0  0  0  0
  148.4179  141.4851  158.0298 H   0  0  0  0  0  0  0  0  0  0  0  0
  149.8381  140.2803  153.3347 H   0  0  0  0  0  0  0  0  0  0  0  0
  150.3098  137.8584  153.1305 H   0  0  0  0  0  0  0  0  0  0  0  0
  149.9704  137.6170  154.8405 H   0  0  0  0  0  0  0  0  0  0  0  0
  151.3598  138.5747  154.3404 H   0  0  0  0  0  0  0  0  0  0  0  0
  147.6042  138.6102  154.5426 H   0  0  0  0  0  0  0  0  0  0  0  0
  147.0835  141.0269  154.8844 H   0  0  0  0  0  0  0  0  0  0  0  0
  146.0338  140.3629  153.6573 H   0  0  0  0  0  0  0  0  0  0  0  0
  147.4097  141.3535  153.1859 H   0  0  0  0  0  0  0  0  0  0  0  0
  148.4984  139.1602  151.8356 H   0  0  0  0  0  0  0  0  0  0  0  0
  145.9385  139.5768  152.3016 H   0  0  0  0  0  0  0  0  0  0  0  0
  146.5672  138.9159  150.7941 H   0  0  0  0  0  0  0  0  0  0  0  0
  147.1364  136.3264  151.2243 H   0  0  0  0  0  0  0  0  0  0  0  0
  145.5568  134.6808  152.8866 H   0  0  0  0  0  0  0  0  0  0  0  0
  146.8614  134.1954  150.1794 H   0  0  0  0  0  0  0  0  0  0  0  0
  147.5716  133.8839  151.7479 H   0  0  0  0  0  0  0  0  0  0  0  0
  146.6463  131.7996  150.6982 H   0  0  0  0  0  0  0  0  0  0  0  0
  145.8421  132.1434  152.2170 H   0  0  0  0  0  0  0  0  0  0  0  0
  142.8511  133.3412  150.5807 H   0  0  0  0  0  0  0  0  0  0  0  0
  143.5850  133.0583  152.1468 H   0  0  0  0  0  0  0  0  0  0  0  0
  143.5799  135.4993  151.6276 H   0  0  0  0  0  0  0  0  0  0  0  0
  144.3900  135.2024  150.1075 H   0  0  0  0  0  0  0  0  0  0  0  0
  151.7421  140.7701  155.3963 H   0  0  0  0  0  0  0  0  0  0  0  0
  148.1051  137.7407  152.5481 H   0  0  0  0  0  0  0  0  0  0  0  0
  1  2  1  0  0  0  0
  1 22  1  0  0  0  0
  1 23  1  0  0  0  0
  1 24  1  0  0  0  0
  2 21  2  0  0  0  0
  2  3  1  0  0  0  0
  3  4  2  0  0  0  0
  3 25  1  0  0  0  0
  4  5  1  0  0  0  0
  5  6  1  0  0  0  0
  5 21  1  0  0  0  0
  6  7  1  0  0  0  0
  6  8  1  0  0  0  0
  6 26  1  0  0  0  0
  7 27  1  0  0  0  0
  7 28  1  0  0  0  0
  7 29  1  0  0  0  0
  8  9  1  0  0  0  0
  8 10  1  0  0  0  0
  8 30  1  0  0  0  0
  9 31  1  0  0  0  0
  9 32  1  0  0  0  0
  9 33  1  0  0  0  0
 10 11  1  0  0  0  0
 10 34  1  0  0  0  0
 10 48  1  0  0  0  0
 11 12  1  0  0  0  0
 11 35  1  0  0  0  0
 11 36  1  0  0  0  0
 12 13  2  0  0  0  0
 12 14  1  0  0  0  0
 14 15  1  0  0  0  0
 14 37  1  0  0  0  0
 15 20  1  0  0  0  0
 15 16  1  0  0  0  0
 15 38  1  0  0  0  0
 16 17  1  0  0  0  0
 16 39  1  0  0  0  0
 16 40  1  0  0  0  0
 17 18  1  0  0  0  0
 17 41  1  0  0  0  0
 17 42  1  0  0  0  0
 18 19  1  0  0  0  0
 19 20  1  0  0  0  0
 19 43  1  0  0  0  0
 19 44  1  0  0  0  0
 20 45  1  0  0  0  0
 20 46  1  0  0  0  0
 21 47  1  0  0  0  0
M  CHG  1  10   1
M  END
> <s_m_source_file>
AV-unprocessed.smi

> <i_m_source_file_index>
3028

> <i_lp_mmshare_version>
43012

> <i_f3d_flags>
0

> <s_epik_input>
W0NIM11jMVtjSF1ubihbY0hdMSlbQ0BIXShbQ0gzXSlbQ0BIXShbQ0gzXSlbTkhdW0NIMl1DKD1PKVtOSF1bQ0hdMltDSDJdW0NIMl1PW0NIMl1bQ0gyXTI=

> <s_epik_cmdline>
J2VwaWtfcHl0aG9uJywgJy1waCcsICc3LjAnLCAnLXRuJywgJzgnLCAnLW1hJywgJzIwMCcsICctbWV0YWxfYmluZGluZycsICctaW1hZScsICc8aW5maWxlLm1hZT4nLCAnLW9tYWUnLCAnPG91dGZpbGUubWFlPic=

> <r_lp_tautomer_probability>
1

> <r_epik_Ionization_Penalty>
0.151514

> <r_epik_Ionization_Penalty_Charging>
0.151494

> <r_epik_Ionization_Penalty_Neutral>
1.95502e-05

> <r_epik_State_Penalty>
0.141395

> <r_epik_Charging_Adjusted_Penalty>
0.292889

> <i_epik_Tot_Q>
1

> <i_epik_Tot_abs_Q>
1

> <r_epik_Metal_State_Penalty>
0.141632

> <b_epik_Metal_Only>
0

> <s_lp_Force_Field>
OPLS_2005

> <r_lp_Energy>
16.118

> <b_lp_Chiralities_Consistent>
1

> <s_lp_Variant>
AV-unprocessed.smi:3028-4

> <Gold.Version>
5.8.1

> <Gold.Id.Protein>
6NUR|6NUR_protein|mol2

> <Gold.PLP.Fitness>
49.2102

> <Gold.PLP.PLP>
-39.2073

> <Gold.PLP.part.hbond>
-2.9805

> <Gold.PLP.part.metal>
0.0000

> <Gold.PLP.part.buried>
-4.3443

> <Gold.PLP.part.nonpolar>
-33.0113

> <Gold.PLP.part.repulsive>
0.5173

> <Gold.PLP.ligand.clash>
0.0000

> <Gold.PLP.ligand.torsion>
0.4960

> <Gold.PLP.Chemscore.Hbond>
3.6153

> <Gold.PLP.Chemscore.CHOScore>
0.0000

> <Gold.PLP.Chemscore.Metal>
0.0000

> <Gold.Chemscore.Hbonds>
donor molecule, donor type, donor heavy atom, donor atom, acceptor molecule, acceptor atom, score
      L1  H    10    34       P1  7957  1.00
      L1  H    10    48       P1  7948  1.95
      L1  H    14    37       P1  7948  0.69

> <Gold.PLP.Chemscore.Internal.Correction>
0.1492

> <Gold.Rescore>
     Score         DG    S(hbond)    S(metal)    S(lipo)     H(rot)  DE(clash)    DE(int)     intcor
     17.51     -19.78       2.78        0.00      86.32       1.99       0.40       1.87       ----

> <Gold.Chemscore.Fitness>
17.5087

> <Gold.Chemscore.DG>
-19.7845

> <Gold.Chemscore.ZeroCoef>
-5.4800

> <Gold.Chemscore.Hbond>
2.7840

> <Gold.Chemscore.Metal>
0.0000

> <Gold.Chemscore.Lipo>
86.3223

> <Gold.Chemscore.Internal_Hbond>
0.0000

> <Gold.Chemscore.DEClash>
0.4024

> <Gold.Chemscore.DEInternal>
1.8734

> <Gold.Chemscore.Rot>
1.9897

> <Gold.Chemscore.Internal.Correction>
   9.000000E+99

> <Gold.Chemscore.Hbonds>
donor molecule, donor type, donor heavy atom, donor atom, acceptor molecule, acceptor atom, score
      L1  H    10    34       P1  7957  0.91
      L1  H    10    48       P1  7948  0.93
      L1  H    14    37       P1  7948  0.68

> <Gold.Chemscore.Hbond.Weighted>
-9.2984

> <Gold.Chemscore.Metal.Weighted>
-0.0000

> <Gold.Chemscore.Lipo.Weighted>
-10.0997

> <Gold.Chemscore.Internal_Hbond.Weighted>
0.0000

> <Gold.Chemscore.DEClash.Weighted>
0.4024

> <Gold.Chemscore.DEInternal.Weighted>
1.8734

> <Gold.Chemscore.Rot.Weighted>
5.0936

> <Gold.Chemscore.Internal.Correction.Weighted>
   9.000000E+99

> <Gold.Protein.RotatedTorsions>
[ 6907 6896 6895 6894 ] final   57.60 input  -60.11 | X-H torsion
[ 7974 7965 7964 7962 ] final -127.83 input  175.53 | X-H torsion
[ 8008 7997 7996 7995 ] final    0.98 input   59.86 | X-H torsion
[ 10167 10162 10161 10158 ] final  -23.68 input  -65.29 | X-H torsion
[ 10718 10713 10712 10709 ] final  -98.28 input   66.30 | X-H torsion
[ 10763 10752 10751 10750 ] final  -48.42 input  -60.55 | X-H torsion
[ 11005 11000 10999 10996 ] final   30.97 input  -57.11 | X-H torsion

> <Gold.Protein.ActiveResidues>
 VAL166  LYS551  ARG553  GLY616  TRP617  ASP618  TYR619  PRO620  LYS621  CYS622 
 ASP623  PHE694  ASN695  SER759  ASP760  ASP761  ALA762  ILE779  LEU786  VAL792 
 PHE793  MET794  SER795  GLU796  ALA797  LYS798  CYS799  TRP800  GLU811  SER814 

> <Gold.Protein.RotatedAtoms>
  152.3747  134.6681  160.0163 H   0  0  0  0  0  0  0  0  0  0  0  0  # atno 6907 bound_to 6896
  151.6964  133.3305  159.3263 H   0  0  0  0  0  0  0  0  0  0  0  0  # atno 6908 bound_to 6896
  150.7700  134.6590  159.6374 H   0  0  0  0  0  0  0  0  0  0  0  0  # atno 6909 bound_to 6896
  144.9731  140.7565  143.4658 H   0  0  0  0  0  0  0  0  0  0  0  0  # atno 7974 bound_to 7965
  154.6743  140.2619  155.6974 H   0  0  0  0  0  0  0  0  0  0  0  0  # atno 8008 bound_to 7997
  156.2672  140.2823  156.1186 H   0  0  0  0  0  0  0  0  0  0  0  0  # atno 8009 bound_to 7997
  155.1123  140.0376  157.2717 H   0  0  0  0  0  0  0  0  0  0  0  0  # atno 8010 bound_to 7997
  140.7288  143.4421  151.0641 H   0  0  0  0  0  0  0  0  0  0  0  0  # atno 10167 bound_to 10162
  156.0104  130.5231  150.6499 H   0  0  0  0  0  0  0  0  0  0  0  0  # atno 10718 bound_to 10713
  154.0774  135.6596  153.4833 H   0  0  0  0  0  0  0  0  0  0  0  0  # atno 10763 bound_to 10752
  153.0368  135.5172  154.7507 H   0  0  0  0  0  0  0  0  0  0  0  0  # atno 10764 bound_to 10752
  154.6592  135.3012  154.9857 H   0  0  0  0  0  0  0  0  0  0  0  0  # atno 10765 bound_to 10752
  140.2888  134.2888  155.7781 H   0  0  0  0  0  0  0  0  0  0  0  0  # atno 11005 bound_to 11000
  145.2530  139.2024  143.4932 LP  0  0  0  0  0  0  0  0  0  0  0  0  # atno 17320 bound_to 7965
  146.3388  140.2446  142.8596 LP  0  0  0  0  0  0  0  0  0  0  0  0  # atno 17321 bound_to 7965
  139.8089  143.7978  152.3169 LP  0  0  0  0  0  0  0  0  0  0  0  0  # atno 17342 bound_to 10162
  139.8021  144.7370  150.9811 LP  0  0  0  0  0  0  0  0  0  0  0  0  # atno 17343 bound_to 10162
  157.4263  131.0843  151.1082 LP  0  0  0  0  0  0  0  0  0  0  0  0  # atno 17370 bound_to 10713
  157.1669  130.6250  149.5628 LP  0  0  0  0  0  0  0  0  0  0  0  0  # atno 17371 bound_to 10713
  141.2150  133.7572  156.9593 LP  0  0  0  0  0  0  0  0  0  0  0  0  # atno 17394 bound_to 11000
  140.1214  134.9414  157.2209 LP  0  0  0  0  0  0  0  0  0  0  0  0  # atno 17395 bound_to 11000

$$$$
