AV-unprocessed.smi:1033|AV-procd|sdf|4504|dock1
  -GOLD-   22720 2503D 1   1.00000     0.00000
 Structure written by MMmdl.
 57 59  0  0  0  0  0  0  0  0  3 V2000
  152.4218  143.8870  161.3226 C   0  0  0  0  0  0  0  0  0  0  0  0
  152.1993  143.0623  160.0663 C   0  0  0  0  0  0  0  0  0  0  0  0
  151.2874  143.5409  159.0981 C   0  0  0  0  0  0  0  0  0  0  0  0
  151.1041  142.7635  157.9608 C   0  0  0  0  0  0  0  0  0  0  0  0
  150.2904  142.9547  156.8418 N   0  3  0  0  0  0  0  0  0  0  0  0
  150.4504  141.9123  155.9802 C   0  0  0  0  0  0  0  0  0  0  0  0
  151.3552  141.0594  156.5327 N   0  0  0  0  0  0  0  0  0  0  0  0
  151.8846  139.7861  156.0267 C   0  0  0  0  0  0  0  0  0  0  0  0
  150.7994  138.8886  155.3979 C   0  0  2  0  0  0  0  0  0  0  0  0
  150.5126  139.3794  154.1022 O   0  0  0  0  0  0  0  0  0  0  0  0
  149.5067  138.8899  156.2394 C   0  0  0  0  0  0  0  0  0  0  0  0
  148.6938  137.6711  156.1473 N   0  0  0  0  0  0  0  0  0  0  0  0
  149.4578  136.4606  156.4487 C   0  0  0  0  0  0  0  0  0  0  0  0
  149.8196  136.3253  157.9423 C   0  0  0  0  0  0  0  0  0  0  0  0
  148.5921  136.3575  158.7785 N   0  3  0  0  0  0  0  0  0  0  0  0
  148.8858  136.1667  160.2216 C   0  0  0  0  0  0  0  0  0  0  0  0
  147.6107  136.0747  161.0830 C   0  0  1  0  0  0  0  0  0  0  0  0
  147.7914  135.1995  162.3322 C   0  0  0  0  0  0  0  0  0  0  0  0
  147.2621  137.3769  161.5031 O   0  0  0  0  0  0  0  0  0  0  0  0
  147.7909  137.5776  158.4902 C   0  0  0  0  0  0  0  0  0  0  0  0
  147.4891  137.6749  156.9805 C   0  0  0  0  0  0  0  0  0  0  0  0
  151.7900  141.5487  157.7683 C   0  0  0  0  0  0  0  0  0  0  0  0
  152.6919  141.0622  158.7113 C   0  0  0  0  0  0  0  0  0  0  0  0
  152.8935  141.8393  159.8745 C   0  0  0  0  0  0  0  0  0  0  0  0
  153.8739  141.3363  160.9204 C   0  0  0  0  0  0  0  0  0  0  0  0
  151.8145  144.7927  161.3183 H   0  0  0  0  0  0  0  0  0  0  0  0
  153.4666  144.1874  161.4038 H   0  0  0  0  0  0  0  0  0  0  0  0
  152.1556  143.3118  162.2098 H   0  0  0  0  0  0  0  0  0  0  0  0
  150.7562  144.4710  159.2369 H   0  0  0  0  0  0  0  0  0  0  0  0
  149.9520  141.7862  155.0296 H   0  0  0  0  0  0  0  0  0  0  0  0
  152.6758  140.0065  155.3089 H   0  0  0  0  0  0  0  0  0  0  0  0
  152.3606  139.2745  156.8646 H   0  0  0  0  0  0  0  0  0  0  0  0
  151.1848  137.8719  155.3115 H   0  0  0  0  0  0  0  0  0  0  0  0
  150.0700  138.7011  153.6156 H   0  0  0  0  0  0  0  0  0  0  0  0
  149.8050  138.9978  157.2830 H   0  0  0  0  0  0  0  0  0  0  0  0
  148.9178  139.7808  156.0213 H   0  0  0  0  0  0  0  0  0  0  0  0
  148.8757  135.5888  156.1466 H   0  0  0  0  0  0  0  0  0  0  0  0
  150.3649  136.4336  155.8437 H   0  0  0  0  0  0  0  0  0  0  0  0
  150.3418  135.3805  158.0987 H   0  0  0  0  0  0  0  0  0  0  0  0
  150.5036  137.1160  158.2532 H   0  0  0  0  0  0  0  0  0  0  0  0
  149.4613  135.2496  160.3577 H   0  0  0  0  0  0  0  0  0  0  0  0
  149.5259  136.9809  160.5665 H   0  0  0  0  0  0  0  0  0  0  0  0
  146.7751  135.6988  160.4934 H   0  0  0  0  0  0  0  0  0  0  0  0
  148.0225  134.1686  162.0627 H   0  0  0  0  0  0  0  0  0  0  0  0
  146.8821  135.1822  162.9341 H   0  0  0  0  0  0  0  0  0  0  0  0
  148.6011  135.5678  162.9635 H   0  0  0  0  0  0  0  0  0  0  0  0
  146.8079  137.3201  162.3301 H   0  0  0  0  0  0  0  0  0  0  0  0
  146.8479  137.5447  159.0345 H   0  0  0  0  0  0  0  0  0  0  0  0
  148.3205  138.4654  158.8379 H   0  0  0  0  0  0  0  0  0  0  0  0
  146.8857  138.5580  156.7742 H   0  0  0  0  0  0  0  0  0  0  0  0
  146.8628  136.8279  156.6961 H   0  0  0  0  0  0  0  0  0  0  0  0
  153.2191  140.1313  158.5645 H   0  0  0  0  0  0  0  0  0  0  0  0
  154.3381  140.3983  160.6144 H   0  0  0  0  0  0  0  0  0  0  0  0
  153.3655  141.1625  161.8689 H   0  0  0  0  0  0  0  0  0  0  0  0
  154.6701  142.0633  161.0814 H   0  0  0  0  0  0  0  0  0  0  0  0
  148.0370  135.5648  158.4892 H   0  0  0  0  0  0  0  0  0  0  0  0
  149.6709  143.7372  156.6754 H   0  0  0  0  0  0  0  0  0  0  0  0
  1  2  1  0  0  0  0
  1 26  1  0  0  0  0
  1 27  1  0  0  0  0
  1 28  1  0  0  0  0
  2 24  1  0  0  0  0
  2  3  2  0  0  0  0
  3  4  1  0  0  0  0
  3 29  1  0  0  0  0
  4 22  2  0  0  0  0
  4  5  1  0  0  0  0
  5  6  2  0  0  0  0
  5 57  1  0  0  0  0
  6  7  1  0  0  0  0
  6 30  1  0  0  0  0
  7  8  1  0  0  0  0
  7 22  1  0  0  0  0
  8  9  1  0  0  0  0
  8 31  1  0  0  0  0
  8 32  1  0  0  0  0
  9 10  1  0  0  0  0
  9 11  1  0  0  0  0
  9 33  1  0  0  0  0
 10 34  1  0  0  0  0
 11 12  1  0  0  0  0
 11 35  1  0  0  0  0
 11 36  1  0  0  0  0
 12 21  1  0  0  0  0
 12 13  1  0  0  0  0
 13 14  1  0  0  0  0
 13 37  1  0  0  0  0
 13 38  1  0  0  0  0
 14 15  1  0  0  0  0
 14 39  1  0  0  0  0
 14 40  1  0  0  0  0
 15 16  1  0  0  0  0
 15 20  1  0  0  0  0
 15 56  1  0  0  0  0
 16 17  1  0  0  0  0
 16 41  1  0  0  0  0
 16 42  1  0  0  0  0
 17 18  1  0  0  0  0
 17 19  1  0  0  0  0
 17 43  1  0  0  0  0
 18 44  1  0  0  0  0
 18 45  1  0  0  0  0
 18 46  1  0  0  0  0
 19 47  1  0  0  0  0
 20 21  1  0  0  0  0
 20 48  1  0  0  0  0
 20 49  1  0  0  0  0
 21 50  1  0  0  0  0
 21 51  1  0  0  0  0
 22 23  1  0  0  0  0
 23 24  2  0  0  0  0
 23 52  1  0  0  0  0
 24 25  1  0  0  0  0
 25 53  1  0  0  0  0
 25 54  1  0  0  0  0
 25 55  1  0  0  0  0
M  CHG  1   5   1
M  CHG  1  15   1
M  END
> <s_m_source_file>
AV-unprocessed.smi

> <i_m_source_file_index>
1033

> <i_lp_mmshare_version>
43012

> <i_f3d_flags>
0

> <s_epik_input>
W0NIM11jKFtjSF0xKWMoW0NIM10pW2NIXWMoYzEyKW4oW2NIXW4yKVtDSDJdW0NASF0oW09IXSlbQ0gyXU4zW0NIMl1bQ0gyXU4oW0NIMl1bQ0gyXTMpW0NIMl1bQ0BIXShbQ0gzXSlbT0hd

> <s_epik_cmdline>
J2VwaWtfcHl0aG9uJywgJy1waCcsICc3LjAnLCAnLXRuJywgJzgnLCAnLW1hJywgJzIwMCcsICctbWV0YWxfYmluZGluZycsICctaW1hZScsICc8aW5maWxlLm1hZT4nLCAnLW9tYWUnLCAnPG91dGZpbGUubWFlPic=

> <r_epik_Ionization_Penalty>
1.28617

> <r_epik_Ionization_Penalty_Charging>
1.23646

> <r_epik_Ionization_Penalty_Neutral>
0.0497112

> <r_epik_State_Penalty>
1.79157

> <r_epik_Charging_Adjusted_Penalty>
3.02803

> <i_epik_Tot_Q>
2

> <i_epik_Tot_abs_Q>
2

> <r_epik_Metal_State_Penalty>
5.81739

> <b_epik_Metal_Only>
0

> <s_lp_Force_Field>
OPLS_2005

> <r_lp_Energy>
41.725

> <b_lp_Chiralities_Consistent>
1

> <s_lp_Variant>
AV-unprocessed.smi:1033-15

> <Gold.Version>
5.8.1

> <Gold.Id.Protein>
6NUR|6NUR_protein|mol2

> <Gold.PLP.Fitness>
58.4250

> <Gold.PLP.PLP>
-46.2294

> <Gold.PLP.part.hbond>
-4.5711

> <Gold.PLP.part.metal>
0.0000

> <Gold.PLP.part.buried>
-4.9637

> <Gold.PLP.part.nonpolar>
-36.1477

> <Gold.PLP.part.repulsive>
0.1807

> <Gold.PLP.ligand.clash>
0.0000

> <Gold.PLP.ligand.torsion>
1.1263

> <Gold.PLP.Chemscore.Hbond>
4.6121

> <Gold.PLP.Chemscore.CHOScore>
0.0000

> <Gold.PLP.Chemscore.Metal>
0.0000

> <Gold.Chemscore.Hbonds>
donor molecule, donor type, donor heavy atom, donor atom, acceptor molecule, acceptor atom, score
      L1  H     5    57       P1  8028  2.00
      P1  H  6931  6943       L1    19  0.78
      P1  H  6934  6947       L1    19  0.93
      P1  H  7989  7998       L1    10  1.00

> <Gold.PLP.Chemscore.Internal.Correction>
0.6119

> <Gold.Rescore>
     Score         DG    S(hbond)    S(metal)    S(lipo)     H(rot)  DE(clash)    DE(int)     intcor
     21.80     -23.21       3.41        0.00     123.03       3.15       0.07       1.34       ----

> <Gold.Chemscore.Fitness>
21.8013

> <Gold.Chemscore.DG>
-23.2114

> <Gold.Chemscore.ZeroCoef>
-5.4800

> <Gold.Chemscore.Hbond>
3.4121

> <Gold.Chemscore.Metal>
0.0000

> <Gold.Chemscore.Lipo>
123.0328

> <Gold.Chemscore.Internal_Hbond>
0.0000

> <Gold.Chemscore.DEClash>
0.0707

> <Gold.Chemscore.DEInternal>
1.3395

> <Gold.Chemscore.Rot>
3.1483

> <Gold.Chemscore.Internal.Correction>
   9.000000E+99

> <Gold.Chemscore.Hbonds>
donor molecule, donor type, donor heavy atom, donor atom, acceptor molecule, acceptor atom, score
      L1  H     5    57       P1  8028  0.94
      P1  H  6931  6943       L1    19  0.19
      P1  H  6934  6947       L1    19  0.58
      P1  H  7989  7998       L1    10  0.91

> <Gold.Chemscore.Hbond.Weighted>
-11.3963

> <Gold.Chemscore.Metal.Weighted>
-0.0000

> <Gold.Chemscore.Lipo.Weighted>
-14.3948

> <Gold.Chemscore.Internal_Hbond.Weighted>
0.0000

> <Gold.Chemscore.DEClash.Weighted>
0.0707

> <Gold.Chemscore.DEInternal.Weighted>
1.3395

> <Gold.Chemscore.Rot.Weighted>
8.0597

> <Gold.Chemscore.Internal.Correction.Weighted>
   9.000000E+99

> <Gold.Protein.RotatedTorsions>
[ 6907 6896 6895 6894 ] final   13.17 input  -60.11 | X-H torsion
[ 7974 7965 7964 7962 ] final   69.10 input  175.53 | X-H torsion
[ 8008 7997 7996 7995 ] final  134.99 input   59.86 | X-H torsion
[ 10167 10162 10161 10158 ] final  -75.98 input  -65.29 | X-H torsion
[ 10718 10713 10712 10709 ] final   29.08 input   66.30 | X-H torsion
[ 10763 10752 10751 10750 ] final  144.03 input  -60.55 | X-H torsion
[ 11005 11000 10999 10996 ] final -176.13 input  -57.11 | X-H torsion

> <Gold.Protein.ActiveResidues>
 VAL166  LYS551  ARG553  GLY616  TRP617  ASP618  TYR619  PRO620  LYS621  CYS622 
 ASP623  PHE694  ASN695  SER759  ASP760  ASP761  ALA762  ILE779  LEU786  VAL792 
 PHE793  MET794  SER795  GLU796  ALA797  LYS798  CYS799  TRP800  GLU811  SER814 

> <Gold.Protein.RotatedAtoms>
  151.7820  135.0759  160.0374 H   0  0  0  0  0  0  0  0  0  0  0  0  # atno 6907 bound_to 6896
  152.3216  133.5856  159.5757 H   0  0  0  0  0  0  0  0  0  0  0  0  # atno 6908 bound_to 6896
  150.7373  133.9918  159.3651 H   0  0  0  0  0  0  0  0  0  0  0  0  # atno 6909 bound_to 6896
  145.7946  139.2951  143.1190 H   0  0  0  0  0  0  0  0  0  0  0  0  # atno 7974 bound_to 7965
  156.3001  140.2482  156.3508 H   0  0  0  0  0  0  0  0  0  0  0  0  # atno 8008 bound_to 7997
  154.8967  140.0407  157.1889 H   0  0  0  0  0  0  0  0  0  0  0  0  # atno 8009 bound_to 7997
  154.8542  140.2910  155.5583 H   0  0  0  0  0  0  0  0  0  0  0  0  # atno 8010 bound_to 7997
  140.4896  143.2383  151.7929 H   0  0  0  0  0  0  0  0  0  0  0  0  # atno 10167 bound_to 10162
  157.2419  130.7073  149.6363 H   0  0  0  0  0  0  0  0  0  0  0  0  # atno 10718 bound_to 10713
  153.9821  135.2940  155.3419 H   0  0  0  0  0  0  0  0  0  0  0  0  # atno 10763 bound_to 10752
  154.7263  135.5087  153.8894 H   0  0  0  0  0  0  0  0  0  0  0  0  # atno 10764 bound_to 10752
  153.0849  135.6690  154.0083 H   0  0  0  0  0  0  0  0  0  0  0  0  # atno 10765 bound_to 10752
  140.4555  134.6303  157.4820 H   0  0  0  0  0  0  0  0  0  0  0  0  # atno 11005 bound_to 11000
  145.9942  140.8577  143.0051 LP  0  0  0  0  0  0  0  0  0  0  0  0  # atno 17320 bound_to 7965
  144.6777  140.2259  143.7361 LP  0  0  0  0  0  0  0  0  0  0  0  0  # atno 17321 bound_to 7965
  139.4848  144.4667  151.9475 LP  0  0  0  0  0  0  0  0  0  0  0  0  # atno 17342 bound_to 10162
  140.3753  144.2804  150.5915 LP  0  0  0  0  0  0  0  0  0  0  0  0  # atno 17343 bound_to 10162
  155.9669  130.4455  150.5504 LP  0  0  0  0  0  0  0  0  0  0  0  0  # atno 17370 bound_to 10713
  157.3369  131.0710  151.1818 LP  0  0  0  0  0  0  0  0  0  0  0  0  # atno 17371 bound_to 10713
  139.9979  134.6882  155.9579 LP  0  0  0  0  0  0  0  0  0  0  0  0  # atno 17394 bound_to 11000
  141.1645  133.6537  156.4431 LP  0  0  0  0  0  0  0  0  0  0  0  0  # atno 17395 bound_to 11000

$$$$
