AV-unprocessed.smi:291|AV-procd|sdf|2247|dock5
  -GOLD-   2262022133D 1   1.00000     0.00000
 Structure written by MMmdl.
 35 36  0  0  0  0  0  0  0  0  1 V2000
  153.5952  142.3001  160.5931 C   0  0  0  0  0  0  0  0  0  0  0  0
  152.4079  142.2970  159.6195 C   0  0  2  0  0  0  0  0  0  0  0  0
  152.3093  140.9624  158.8562 C   0  0  0  0  0  0  0  0  0  0  0  0
  151.1258  140.9547  157.8751 C   0  0  0  0  0  0  0  0  0  0  0  0
  151.2006  142.1387  156.8915 C   0  0  1  0  0  0  0  0  0  0  0  0
  150.0262  142.1564  156.0257 N   0  0  0  0  0  0  0  0  0  0  0  0
  149.7696  141.2795  155.0418 C   0  0  0  0  0  0  0  0  0  0  0  0
  150.5068  140.3337  154.7654 O   0  0  0  0  0  0  0  0  0  0  0  0
  148.4770  141.4946  154.2516 C   0  0  0  0  0  0  0  0  0  0  0  0
  147.3173  141.5253  155.1255 N   0  0  0  0  0  0  0  0  0  0  0  0
  146.0115  141.5432  154.8367 C   0  0  0  0  0  0  0  0  0  0  0  0
  145.2237  141.5774  155.9045 N   0  0  0  0  0  0  0  0  0  0  0  0
  146.1826  141.5773  156.8754 C   0  0  0  0  0  0  0  0  0  0  0  0
  145.8355  141.6092  158.2860 C   0  0  0  0  0  0  0  0  0  0  0  0
  145.5597  141.6343  159.4095 N   0  0  0  0  0  0  0  0  0  0  0  0
  147.4517  141.5470  156.4743 N   0  0  0  0  0  0  0  0  0  0  0  0
  151.2996  143.4730  157.6524 C   0  0  0  0  0  0  0  0  0  0  0  0
  152.4858  143.4757  158.6302 C   0  0  0  0  0  0  0  0  0  0  0  0
  154.5426  142.1885  160.0645 H   0  0  0  0  0  0  0  0  0  0  0  0
  153.5161  141.4829  161.3106 H   0  0  0  0  0  0  0  0  0  0  0  0
  153.6373  143.2316  161.1585 H   0  0  0  0  0  0  0  0  0  0  0  0
  151.4986  142.4141  160.2110 H   0  0  0  0  0  0  0  0  0  0  0  0
  153.2348  140.7814  158.3078 H   0  0  0  0  0  0  0  0  0  0  0  0
  152.2030  140.1371  159.5611 H   0  0  0  0  0  0  0  0  0  0  0  0
  151.1123  140.0113  157.3276 H   0  0  0  0  0  0  0  0  0  0  0  0
  150.1914  140.9988  158.4366 H   0  0  0  0  0  0  0  0  0  0  0  0
  152.0989  142.0330  156.2798 H   0  0  0  0  0  0  0  0  0  0  0  0
  149.3593  142.8986  156.1813 H   0  0  0  0  0  0  0  0  0  0  0  0
  148.5250  142.4378  153.7054 H   0  0  0  0  0  0  0  0  0  0  0  0
  148.3591  140.7001  153.5133 H   0  0  0  0  0  0  0  0  0  0  0  0
  145.6313  141.5337  153.8255 H   0  0  0  0  0  0  0  0  0  0  0  0
  151.4043  144.2985  156.9470 H   0  0  0  0  0  0  0  0  0  0  0  0
  150.3765  143.6545  158.2051 H   0  0  0  0  0  0  0  0  0  0  0  0
  152.5065  144.4196  159.1758 H   0  0  0  0  0  0  0  0  0  0  0  0
  153.4193  143.4250  158.0678 H   0  0  0  0  0  0  0  0  0  0  0  0
  1  2  1  0  0  0  0
  1 19  1  0  0  0  0
  1 20  1  0  0  0  0
  1 21  1  0  0  0  0
  2 18  1  0  0  0  0
  2  3  1  0  0  0  0
  2 22  1  0  0  0  0
  3  4  1  0  0  0  0
  3 23  1  0  0  0  0
  3 24  1  0  0  0  0
  4  5  1  0  0  0  0
  4 25  1  0  0  0  0
  4 26  1  0  0  0  0
  5  6  1  0  0  0  0
  5 17  1  0  0  0  0
  5 27  1  0  0  0  0
  6  7  1  0  0  0  0
  6 28  1  0  0  0  0
  7  8  2  0  0  0  0
  7  9  1  0  0  0  0
  9 10  1  0  0  0  0
  9 29  1  0  0  0  0
  9 30  1  0  0  0  0
 10 16  1  0  0  0  0
 10 11  1  0  0  0  0
 11 12  2  0  0  0  0
 11 31  1  0  0  0  0
 12 13  1  0  0  0  0
 13 14  1  0  0  0  0
 13 16  2  0  0  0  0
 14 15  3  0  0  0  0
 17 18  1  0  0  0  0
 17 32  1  0  0  0  0
 17 33  1  0  0  0  0
 18 34  1  0  0  0  0
 18 35  1  0  0  0  0
M  END
> <s_m_source_file>
AV-unprocessed.smi

> <i_m_source_file_index>
291

> <i_lp_mmshare_version>
43012

> <i_f3d_flags>
0

> <s_epik_input>
W0NIM11bQ0BASF0xW0NIMl1bQ0gyXVtDQEhdKFtDSDJdW0NIMl0xKVtOSF1DKD1PKVtDSDJdbjJbY0hdbmMobjIpQyNO

> <s_epik_cmdline>
J2VwaWtfcHl0aG9uJywgJy1waCcsICc3LjAnLCAnLXRuJywgJzgnLCAnLW1hJywgJzIwMCcsICctbWV0YWxfYmluZGluZycsICctaW1hZScsICc8aW5maWxlLm1hZT4nLCAnLW9tYWUnLCAnPG91dGZpbGUubWFlPic=

> <r_lp_tautomer_probability>
1

> <r_epik_Ionization_Penalty>
5.31112e-08

> <r_epik_Ionization_Penalty_Charging>
0

> <r_epik_Ionization_Penalty_Neutral>
5.31112e-08

> <r_epik_State_Penalty>
-0

> <r_epik_Charging_Adjusted_Penalty>
0

> <i_epik_Tot_Q>
0

> <i_epik_Tot_abs_Q>
0

> <r_epik_Metal_State_Penalty>
-0

> <b_epik_Metal_Only>
0

> <s_lp_Force_Field>
OPLS_2005

> <r_lp_Energy>
12.4936

> <b_lp_Chiralities_Consistent>
1

> <s_lp_Variant>
AV-unprocessed.smi:291-1

> <Gold.Version>
5.8.1

> <Gold.Id.Protein>
6NUR|6NUR_protein|mol2

> <Gold.PLP.Fitness>
45.3031

> <Gold.PLP.PLP>
-34.4836

> <Gold.PLP.part.hbond>
-3.0000

> <Gold.PLP.part.metal>
0.0000

> <Gold.PLP.part.buried>
-4.7620

> <Gold.PLP.part.nonpolar>
-27.4715

> <Gold.PLP.part.repulsive>
0.3812

> <Gold.PLP.ligand.clash>
0.0000

> <Gold.PLP.ligand.torsion>
0.2183

> <Gold.PLP.Chemscore.Hbond>
2.8800

> <Gold.PLP.Chemscore.CHOScore>
0.8710

> <Gold.PLP.Chemscore.Metal>
0.0000

> <Gold.Chemscore.Hbonds>
donor molecule, donor type, donor heavy atom, donor atom, acceptor molecule, acceptor atom, score
      L1  H     6    28       P1  8028  0.88
      P1  H  6934  6946       L1    15  1.00
      P1  H  7989  7998       L1     8  1.00
      L1  C    11    31       P1 10175  0.88

> <Gold.PLP.Chemscore.Internal.Correction>
0.0031

> <Gold.Rescore>
     Score         DG    S(hbond)    S(metal)    S(lipo)     H(rot)  DE(clash)    DE(int)     intcor
     16.76     -18.40       2.68        0.00      76.66       1.95       0.13       1.51       ----

> <Gold.Chemscore.Fitness>
16.7592

> <Gold.Chemscore.DG>
-18.4034

> <Gold.Chemscore.ZeroCoef>
-5.4800

> <Gold.Chemscore.Hbond>
2.6765

> <Gold.Chemscore.Metal>
0.0000

> <Gold.Chemscore.Lipo>
76.6588

> <Gold.Chemscore.Internal_Hbond>
0.0000

> <Gold.Chemscore.DEClash>
0.1302

> <Gold.Chemscore.DEInternal>
1.5140

> <Gold.Chemscore.Rot>
1.9474

> <Gold.Chemscore.Internal.Correction>
   9.000000E+99

> <Gold.Chemscore.Hbonds>
donor molecule, donor type, donor heavy atom, donor atom, acceptor molecule, acceptor atom, score
      L1  H     6    28       P1  8028  0.86
      P1  H  6934  6946       L1    15  0.86
      P1  H  7989  7998       L1     8  0.59

> <Gold.Chemscore.Hbond.Weighted>
-8.9396

> <Gold.Chemscore.Metal.Weighted>
-0.0000

> <Gold.Chemscore.Lipo.Weighted>
-8.9691

> <Gold.Chemscore.Internal_Hbond.Weighted>
0.0000

> <Gold.Chemscore.DEClash.Weighted>
0.1302

> <Gold.Chemscore.DEInternal.Weighted>
1.5140

> <Gold.Chemscore.Rot.Weighted>
4.9852

> <Gold.Chemscore.Internal.Correction.Weighted>
   9.000000E+99

> <Gold.Protein.RotatedTorsions>
[ 6907 6896 6895 6894 ] final  165.44 input  -60.11 | X-H torsion
[ 7974 7965 7964 7962 ] final  119.35 input  175.53 | X-H torsion
[ 8008 7997 7996 7995 ] final -135.27 input   59.86 | X-H torsion
[ 10167 10162 10161 10158 ] final   86.79 input  -65.29 | X-H torsion
[ 10718 10713 10712 10709 ] final    9.38 input   66.30 | X-H torsion
[ 10763 10752 10751 10750 ] final -171.10 input  -60.55 | X-H torsion
[ 11005 11000 10999 10996 ] final -128.63 input  -57.11 | X-H torsion

> <Gold.Protein.ActiveResidues>
 VAL166  LYS551  ARG553  GLY616  TRP617  ASP618  TYR619  PRO620  LYS621  CYS622 
 ASP623  PHE694  ASN695  SER759  ASP760  ASP761  ALA762  ILE779  LEU786  VAL792 
 PHE793  MET794  SER795  GLU796  ALA797  LYS798  CYS799  TRP800  GLU811  SER814 

> <Gold.Protein.RotatedAtoms>
  151.8943  133.3523  159.3808 H   0  0  0  0  0  0  0  0  0  0  0  0  # atno 6907 bound_to 6896
  150.7095  134.4892  159.5517 H   0  0  0  0  0  0  0  0  0  0  0  0  # atno 6908 bound_to 6896
  152.2468  134.8173  160.0503 H   0  0  0  0  0  0  0  0  0  0  0  0  # atno 6909 bound_to 6896
  145.1442  139.3249  143.4600 H   0  0  0  0  0  0  0  0  0  0  0  0  # atno 7974 bound_to 7965
  155.3758  140.0491  157.3044 H   0  0  0  0  0  0  0  0  0  0  0  0  # atno 8008 bound_to 7997
  154.5107  140.2190  155.9125 H   0  0  0  0  0  0  0  0  0  0  0  0  # atno 8009 bound_to 7997
  156.1579  140.3122  155.8762 H   0  0  0  0  0  0  0  0  0  0  0  0  # atno 8010 bound_to 7997
  139.8840  144.6424  150.8812 H   0  0  0  0  0  0  0  0  0  0  0  0  # atno 10167 bound_to 10162
  156.9654  130.5949  149.5665 H   0  0  0  0  0  0  0  0  0  0  0  0  # atno 10718 bound_to 10713
  154.6342  135.2890  155.0180 H   0  0  0  0  0  0  0  0  0  0  0  0  # atno 10763 bound_to 10752
  154.1330  135.6530  153.4930 H   0  0  0  0  0  0  0  0  0  0  0  0  # atno 10764 bound_to 10752
  153.0294  135.5315  154.7182 H   0  0  0  0  0  0  0  0  0  0  0  0  # atno 10765 bound_to 10752
  140.9500  134.1078  157.4071 H   0  0  0  0  0  0  0  0  0  0  0  0  # atno 11005 bound_to 11000
  146.3502  140.1491  142.8593 LP  0  0  0  0  0  0  0  0  0  0  0  0  # atno 17320 bound_to 7965
  145.0500  140.9010  143.5001 LP  0  0  0  0  0  0  0  0  0  0  0  0  # atno 17321 bound_to 7965
  140.7739  143.3563  151.1915 LP  0  0  0  0  0  0  0  0  0  0  0  0  # atno 17342 bound_to 10162
  139.7170  143.9284  152.2970 LP  0  0  0  0  0  0  0  0  0  0  0  0  # atno 17343 bound_to 10162
  156.0305  130.5396  150.8520 LP  0  0  0  0  0  0  0  0  0  0  0  0  # atno 17370 bound_to 10713
  157.5629  131.0946  150.9532 LP  0  0  0  0  0  0  0  0  0  0  0  0  # atno 17371 bound_to 10713
  139.8845  135.0063  156.6370 LP  0  0  0  0  0  0  0  0  0  0  0  0  # atno 17394 bound_to 11000
  140.7616  133.8813  155.8422 LP  0  0  0  0  0  0  0  0  0  0  0  0  # atno 17395 bound_to 11000

$$$$
