AV-unprocessed.smi:2121|AV-procd|sdf|8643|dock1
  -GOLD-   2272011393D 1   1.00000     0.00000
 Structure written by MMmdl.
 49 50  0  0  0  0  0  0  0  0  1 V2000
  153.6253  141.7237  161.8695 C   0  0  0  0  0  0  0  0  0  0  0  0
  152.6058  142.0063  160.7614 C   0  0  2  0  0  0  0  0  0  0  0  0
  152.8592  141.1439  159.5110 C   0  0  0  0  0  0  0  0  0  0  0  0
  151.9577  141.5288  158.4253 N   0  0  0  0  0  0  0  0  0  0  0  0
  151.8547  140.6297  157.3385 C   0  0  0  0  0  0  0  0  0  0  0  0
  152.6898  139.4895  157.2187 C   0  0  0  0  0  0  0  0  0  0  0  0
  152.5374  138.6389  156.1072 C   0  0  0  0  0  0  0  0  0  0  0  0
  151.5589  138.9384  155.1402 C   0  0  0  0  0  0  0  0  0  0  0  0
  151.3803  138.0332  153.9281 C   0  0  0  0  0  0  0  0  0  0  0  0
  150.5126  136.8825  154.1559 N   0  0  0  0  0  0  0  0  0  0  0  0
  150.7349  135.9217  155.0652 C   0  0  0  0  0  0  0  0  0  0  0  0
  151.7313  135.8950  155.7896 O   0  0  0  0  0  0  0  0  0  0  0  0
  149.6636  134.8250  155.1692 C   0  0  1  0  0  0  0  0  0  0  0  0
  148.4296  135.4140  155.8727 C   0  0  0  0  0  0  0  0  0  0  0  0
  149.2619  134.3794  153.8358 N   0  0  0  0  0  0  0  0  0  0  0  0
  149.1564  133.0980  153.4530 C   0  0  0  0  0  0  0  0  0  0  0  0
  148.8031  132.9782  152.1731 N   0  0  0  0  0  0  0  0  0  0  0  0
  149.3618  132.1322  154.1857 O   0  0  0  0  0  0  0  0  0  0  0  0
  150.7792  140.0983  155.3360 C   0  0  0  0  0  0  0  0  0  0  0  0
  150.9206  140.9162  156.3995 N   0  0  0  0  0  0  0  0  0  0  0  0
  151.9406  142.9633  158.1528 C   0  0  0  0  0  0  0  0  0  0  0  0
  151.7166  143.7621  159.4502 C   0  0  2  0  0  0  0  0  0  0  0  0
  151.8246  145.2735  159.2219 C   0  0  0  0  0  0  0  0  0  0  0  0
  152.6983  143.3835  160.4099 O   0  0  0  0  0  0  0  0  0  0  0  0
  153.5838  140.6804  162.1833 H   0  0  0  0  0  0  0  0  0  0  0  0
  153.4301  142.3429  162.7452 H   0  0  0  0  0  0  0  0  0  0  0  0
  154.6415  141.9322  161.5335 H   0  0  0  0  0  0  0  0  0  0  0  0
  151.6068  141.8024  161.1510 H   0  0  0  0  0  0  0  0  0  0  0  0
  153.8877  141.2669  159.1695 H   0  0  0  0  0  0  0  0  0  0  0  0
  152.7378  140.0952  159.7821 H   0  0  0  0  0  0  0  0  0  0  0  0
  153.4361  139.2408  157.9572 H   0  0  0  0  0  0  0  0  0  0  0  0
  153.1636  137.7650  156.0038 H   0  0  0  0  0  0  0  0  0  0  0  0
  150.9512  138.6262  153.1203 H   0  0  0  0  0  0  0  0  0  0  0  0
  152.3553  137.6914  153.5762 H   0  0  0  0  0  0  0  0  0  0  0  0
  149.6709  136.8263  153.6010 H   0  0  0  0  0  0  0  0  0  0  0  0
  150.0413  133.9771  155.7441 H   0  0  0  0  0  0  0  0  0  0  0  0
  148.6776  135.7701  156.8736 H   0  0  0  0  0  0  0  0  0  0  0  0
  147.6485  134.6612  155.9819 H   0  0  0  0  0  0  0  0  0  0  0  0
  148.0046  136.2515  155.3173 H   0  0  0  0  0  0  0  0  0  0  0  0
  149.0756  135.0995  153.1535 H   0  0  0  0  0  0  0  0  0  0  0  0
  148.6817  132.0641  151.7625 H   0  0  0  0  0  0  0  0  0  0  0  0
  148.6502  133.8089  151.6198 H   0  0  0  0  0  0  0  0  0  0  0  0
  150.0205  140.3870  154.6239 H   0  0  0  0  0  0  0  0  0  0  0  0
  152.8851  143.2501  157.6885 H   0  0  0  0  0  0  0  0  0  0  0  0
  151.1401  143.2056  157.4531 H   0  0  0  0  0  0  0  0  0  0  0  0
  150.7240  143.5437  159.8482 H   0  0  0  0  0  0  0  0  0  0  0  0
  151.0870  145.6146  158.4950 H   0  0  0  0  0  0  0  0  0  0  0  0
  152.8126  145.5466  158.8506 H   0  0  0  0  0  0  0  0  0  0  0  0
  151.6543  145.8200  160.1498 H   0  0  0  0  0  0  0  0  0  0  0  0
  1  2  1  0  0  0  0
  1 25  1  0  0  0  0
  1 26  1  0  0  0  0
  1 27  1  0  0  0  0
  2 24  1  0  0  0  0
  2  3  1  0  0  0  0
  2 28  1  0  0  0  0
  3  4  1  0  0  0  0
  3 29  1  0  0  0  0
  3 30  1  0  0  0  0
  4  5  1  0  0  0  0
  4 21  1  0  0  0  0
  5 20  1  0  0  0  0
  5  6  2  0  0  0  0
  6  7  1  0  0  0  0
  6 31  1  0  0  0  0
  7  8  2  0  0  0  0
  7 32  1  0  0  0  0
  8  9  1  0  0  0  0
  8 19  1  0  0  0  0
  9 10  1  0  0  0  0
  9 33  1  0  0  0  0
  9 34  1  0  0  0  0
 10 11  1  0  0  0  0
 10 35  1  0  0  0  0
 11 12  2  0  0  0  0
 11 13  1  0  0  0  0
 13 14  1  0  0  0  0
 13 15  1  0  0  0  0
 13 36  1  0  0  0  0
 14 37  1  0  0  0  0
 14 38  1  0  0  0  0
 14 39  1  0  0  0  0
 15 16  1  0  0  0  0
 15 40  1  0  0  0  0
 16 17  1  0  0  0  0
 16 18  2  0  0  0  0
 17 41  1  0  0  0  0
 17 42  1  0  0  0  0
 19 20  2  0  0  0  0
 19 43  1  0  0  0  0
 21 22  1  0  0  0  0
 21 44  1  0  0  0  0
 21 45  1  0  0  0  0
 22 23  1  0  0  0  0
 22 24  1  0  0  0  0
 22 46  1  0  0  0  0
 23 47  1  0  0  0  0
 23 48  1  0  0  0  0
 23 49  1  0  0  0  0
M  END
> <s_m_source_file>
AV-unprocessed.smi

> <i_m_source_file_index>
2121

> <i_lp_mmshare_version>
43012

> <i_f3d_flags>
0

> <s_epik_input>
W0NIM11bQ0BASF0xW0NIMl1OKFtDSDJdW0NASF0oTzEpW0NIM10pYzJbY0hdW2NIXWMoW2NIXW4yKVtDSDJdW05IXUMoPU8pW0NASF0oW0NIM10pW05IXUMoPU8pW05IMl0=

> <s_epik_cmdline>
J2VwaWtfcHl0aG9uJywgJy1waCcsICc3LjAnLCAnLXRuJywgJzgnLCAnLW1hJywgJzIwMCcsICctbWV0YWxfYmluZGluZycsICctaW1hZScsICc8aW5maWxlLm1hZT4nLCAnLW9tYWUnLCAnPG91dGZpbGUubWFlPic=

> <r_lp_tautomer_probability>
1

> <r_epik_Ionization_Penalty>
0.0063713

> <r_epik_Ionization_Penalty_Charging>
0

> <r_epik_Ionization_Penalty_Neutral>
0.0063713

> <r_epik_State_Penalty>
0.00467069

> <r_epik_Charging_Adjusted_Penalty>
0.00467069

> <i_epik_Tot_Q>
0

> <i_epik_Tot_abs_Q>
0

> <r_epik_Metal_State_Penalty>
-0

> <b_epik_Metal_Only>
0

> <s_lp_Force_Field>
OPLS_2005

> <r_lp_Energy>
8.02945

> <b_lp_Chiralities_Consistent>
1

> <s_lp_Variant>
AV-unprocessed.smi:2121-4

> <Gold.Version>
5.8.1

> <Gold.Id.Protein>
6NUR|6NUR_protein|mol2

> <Gold.PLP.Fitness>
54.2591

> <Gold.PLP.PLP>
-45.4567

> <Gold.PLP.part.hbond>
-5.4074

> <Gold.PLP.part.metal>
0.0000

> <Gold.PLP.part.buried>
-1.7693

> <Gold.PLP.part.nonpolar>
-36.8353

> <Gold.PLP.part.repulsive>
0.2285

> <Gold.PLP.ligand.clash>
0.0000

> <Gold.PLP.ligand.torsion>
1.0708

> <Gold.PLP.Chemscore.Hbond>
3.4801

> <Gold.PLP.Chemscore.CHOScore>
0.0000

> <Gold.PLP.Chemscore.Metal>
0.0000

> <Gold.Chemscore.Hbonds>
donor molecule, donor type, donor heavy atom, donor atom, acceptor molecule, acceptor atom, score
      L1  H    10    35       P1  7948  0.83
      L1  H    15    40       P1  7948  0.90
      L1  H    17    41       P1 10747  0.96
      P1  H 10752 10763       L1    12  1.00

> <Gold.PLP.Chemscore.Internal.Correction>
0.5037

> <Gold.Rescore>
     Score         DG    S(hbond)    S(metal)    S(lipo)     H(rot)  DE(clash)    DE(int)     intcor
     16.78     -21.20       3.05        0.00     103.73       2.58       0.84       3.57       ----

> <Gold.Chemscore.Fitness>
16.7834

> <Gold.Chemscore.DG>
-21.1995

> <Gold.Chemscore.ZeroCoef>
-5.4800

> <Gold.Chemscore.Hbond>
3.0533

> <Gold.Chemscore.Metal>
0.0000

> <Gold.Chemscore.Lipo>
103.7267

> <Gold.Chemscore.Internal_Hbond>
0.0000

> <Gold.Chemscore.DEClash>
0.8421

> <Gold.Chemscore.DEInternal>
3.5739

> <Gold.Chemscore.Rot>
2.5838

> <Gold.Chemscore.Internal.Correction>
   9.000000E+99

> <Gold.Chemscore.Hbonds>
donor molecule, donor type, donor heavy atom, donor atom, acceptor molecule, acceptor atom, score
      L1  H    10    35       P1  7948  0.54
      L1  H    15    40       P1  7948  0.18
      L1  H    17    41       P1 10747  0.91
      P1  H 10752 10763       L1    12  0.65

> <Gold.Chemscore.Hbond.Weighted>
-10.1979

> <Gold.Chemscore.Metal.Weighted>
-0.0000

> <Gold.Chemscore.Lipo.Weighted>
-12.1360

> <Gold.Chemscore.Internal_Hbond.Weighted>
0.0000

> <Gold.Chemscore.DEClash.Weighted>
0.8421

> <Gold.Chemscore.DEInternal.Weighted>
3.5739

> <Gold.Chemscore.Rot.Weighted>
6.6145

> <Gold.Chemscore.Internal.Correction.Weighted>
   9.000000E+99

> <Gold.Protein.RotatedTorsions>
[ 6907 6896 6895 6894 ] final  -57.99 input  -60.11 | X-H torsion
[ 7974 7965 7964 7962 ] final   19.55 input  175.53 | X-H torsion
[ 8008 7997 7996 7995 ] final -126.01 input   59.86 | X-H torsion
[ 10167 10162 10161 10158 ] final -113.53 input  -65.29 | X-H torsion
[ 10718 10713 10712 10709 ] final  120.60 input   66.30 | X-H torsion
[ 10763 10752 10751 10750 ] final   75.60 input  -60.55 | X-H torsion
[ 11005 11000 10999 10996 ] final -161.66 input  -57.11 | X-H torsion

> <Gold.Protein.ActiveResidues>
 VAL166  LYS551  ARG553  GLY616  TRP617  ASP618  TYR619  PRO620  LYS621  CYS622 
 ASP623  PHE694  ASN695  SER759  ASP760  ASP761  ALA762  ILE779  LEU786  VAL792 
 PHE793  MET794  SER795  GLU796  ALA797  LYS798  CYS799  TRP800  GLU811  SER814 

> <Gold.Protein.RotatedAtoms>
  150.8042  134.7156  159.6628 H   0  0  0  0  0  0  0  0  0  0  0  0  # atno 6907 bound_to 6896
  152.4161  134.6036  160.0016 H   0  0  0  0  0  0  0  0  0  0  0  0  # atno 6908 bound_to 6896
  151.6265  133.3298  159.3135 H   0  0  0  0  0  0  0  0  0  0  0  0  # atno 6909 bound_to 6896
  146.2145  139.8296  142.8663 H   0  0  0  0  0  0  0  0  0  0  0  0  # atno 7974 bound_to 7965
  155.2227  140.0422  157.2950 H   0  0  0  0  0  0  0  0  0  0  0  0  # atno 8008 bound_to 7997
  154.5939  140.2434  155.7854 H   0  0  0  0  0  0  0  0  0  0  0  0  # atno 8009 bound_to 7997
  156.2277  140.2949  156.0118 H   0  0  0  0  0  0  0  0  0  0  0  0  # atno 8010 bound_to 7997
  140.1109  143.4529  152.1753 H   0  0  0  0  0  0  0  0  0  0  0  0  # atno 10167 bound_to 10162
  157.5879  131.1068  150.8058 H   0  0  0  0  0  0  0  0  0  0  0  0  # atno 10718 bound_to 10713
  153.0666  135.4982  154.8214 H   0  0  0  0  0  0  0  0  0  0  0  0  # atno 10763 bound_to 10752
  154.6963  135.2993  154.9409 H   0  0  0  0  0  0  0  0  0  0  0  0  # atno 10764 bound_to 10752
  154.0148  135.6749  153.4821 H   0  0  0  0  0  0  0  0  0  0  0  0  # atno 10765 bound_to 10752
  140.6179  134.4781  157.5221 H   0  0  0  0  0  0  0  0  0  0  0  0  # atno 11005 bound_to 11000
  145.3011  141.0194  143.3608 LP  0  0  0  0  0  0  0  0  0  0  0  0  # atno 17320 bound_to 7965
  144.9005  139.4655  143.6634 LP  0  0  0  0  0  0  0  0  0  0  0  0  # atno 17321 bound_to 7965
  139.5620  144.7411  151.4129 LP  0  0  0  0  0  0  0  0  0  0  0  0  # atno 17342 bound_to 10162
  140.6926  143.7825  150.7278 LP  0  0  0  0  0  0  0  0  0  0  0  0  # atno 17343 bound_to 10162
  156.8488  130.5073  149.5314 LP  0  0  0  0  0  0  0  0  0  0  0  0  # atno 17370 bound_to 10713
  156.0930  130.5910  150.9765 LP  0  0  0  0  0  0  0  0  0  0  0  0  # atno 17371 bound_to 10713
  139.9165  134.8235  156.1348 LP  0  0  0  0  0  0  0  0  0  0  0  0  # atno 17394 bound_to 11000
  141.0763  133.6774  156.2243 LP  0  0  0  0  0  0  0  0  0  0  0  0  # atno 17395 bound_to 11000

$$$$
