AV-unprocessed.smi:2419|AV-procd|sdf|9552|dock3
  -GOLD-   2272013183D 1   1.00000     0.00000
 Structure written by MMmdl.
 28 29  0  0  0  0  0  0  0  0  1 V2000
  146.0404  138.9196  153.8476 O   0  0  0  0  0  0  0  0  0  0  0  0
  146.8907  138.2192  153.2973 C   0  0  0  0  0  0  0  0  0  0  0  0
  146.5910  137.1657  152.5268 N   0  0  0  0  0  0  0  0  0  0  0  0
  145.2353  136.7154  152.2354 C   0  0  0  0  0  0  0  0  0  0  0  0
  145.2249  135.7010  151.0857 C   0  0  0  0  0  0  0  0  0  0  0  0
  145.3021  136.4768  149.9058 O   0  0  0  0  0  0  0  0  0  0  0  0
  146.2014  134.5110  151.1417 C   0  0  0  0  0  0  0  0  0  0  0  0
  145.0836  133.5959  150.6392 C   0  0  0  0  0  0  0  0  0  0  0  0
  144.0813  134.6708  151.0641 C   0  0  0  0  0  0  0  0  0  0  0  0
  148.2206  138.3981  153.3818 N   0  0  0  0  0  0  0  0  0  0  0  0
  148.9282  139.3950  154.1036 C   0  0  0  0  0  0  0  0  0  0  0  0
  150.0707  139.1797  154.7663 N   0  0  0  0  0  0  0  0  0  0  0  0
  150.5451  140.3395  155.3842 C   0  0  0  0  0  0  0  0  0  0  0  0
  149.7457  141.4368  155.1799 C   0  0  0  0  0  0  0  0  0  0  0  0
  148.3570  141.0546  154.1978 S   0  0  0  0  0  0  0  0  0  0  0  0
  147.3453  136.6439  152.1054 H   0  0  0  0  0  0  0  0  0  0  0  0
  144.8316  136.2572  153.1399 H   0  0  0  0  0  0  0  0  0  0  0  0
  144.5975  137.5748  152.0201 H   0  0  0  0  0  0  0  0  0  0  0  0
  144.6027  137.1110  149.9458 H   0  0  0  0  0  0  0  0  0  0  0  0
  147.0559  134.5866  150.4683 H   0  0  0  0  0  0  0  0  0  0  0  0
  146.5161  134.2667  152.1576 H   0  0  0  0  0  0  0  0  0  0  0  0
  145.1120  133.4493  149.5586 H   0  0  0  0  0  0  0  0  0  0  0  0
  144.9928  132.6509  151.1755 H   0  0  0  0  0  0  0  0  0  0  0  0
  143.6579  134.4789  152.0513 H   0  0  0  0  0  0  0  0  0  0  0  0
  143.2987  134.8672  150.3302 H   0  0  0  0  0  0  0  0  0  0  0  0
  148.7944  137.7432  152.8716 H   0  0  0  0  0  0  0  0  0  0  0  0
  151.4627  140.2943  155.9519 H   0  0  0  0  0  0  0  0  0  0  0  0
  149.8893  142.4423  155.5466 H   0  0  0  0  0  0  0  0  0  0  0  0
  1  2  2  0  0  0  0
  2  3  1  0  0  0  0
  2 10  1  0  0  0  0
  3  4  1  0  0  0  0
  3 16  1  0  0  0  0
  4  5  1  0  0  0  0
  4 17  1  0  0  0  0
  4 18  1  0  0  0  0
  5  9  1  0  0  0  0
  5  6  1  0  0  0  0
  5  7  1  0  0  0  0
  6 19  1  0  0  0  0
  7  8  1  0  0  0  0
  7 20  1  0  0  0  0
  7 21  1  0  0  0  0
  8  9  1  0  0  0  0
  8 22  1  0  0  0  0
  8 23  1  0  0  0  0
  9 24  1  0  0  0  0
  9 25  1  0  0  0  0
 10 11  1  0  0  0  0
 10 26  1  0  0  0  0
 11 15  1  0  0  0  0
 11 12  2  0  0  0  0
 12 13  1  0  0  0  0
 13 14  2  0  0  0  0
 13 27  1  0  0  0  0
 14 15  1  0  0  0  0
 14 28  1  0  0  0  0
M  END
> <s_m_source_file>
AV-unprocessed.smi

> <i_m_source_file_index>
2419

> <i_lp_mmshare_version>
43012

> <i_f3d_flags>
0

> <s_epik_input>
czFbY0hdW2NIXW5jMVtOSF1DKD1PKVtOSF1bQ0gyXUMyKFtPSF0pW0NIMl1bQ0gyXVtDSDJdMg==

> <s_epik_cmdline>
J2VwaWtfcHl0aG9uJywgJy1waCcsICc3LjAnLCAnLXRuJywgJzgnLCAnLW1hJywgJzIwMCcsICctbWV0YWxfYmluZGluZycsICctaW1hZScsICc8aW5maWxlLm1hZT4nLCAnLW9tYWUnLCAnPG91dGZpbGUubWFlPic=

> <r_lp_tautomer_probability>
0.999

> <r_epik_Ionization_Penalty>
0.000351348

> <r_epik_Ionization_Penalty_Charging>
0

> <r_epik_Ionization_Penalty_Neutral>
0.000351348

> <r_epik_State_Penalty>
0.000177984

> <r_epik_Charging_Adjusted_Penalty>
0.000177984

> <i_epik_Tot_Q>
0

> <i_epik_Tot_abs_Q>
0

> <r_epik_Metal_State_Penalty>
0.00728824

> <b_epik_Metal_Only>
0

> <s_lp_Force_Field>
OPLS_2005

> <r_lp_Energy>
10.8103

> <b_lp_Chiralities_Consistent>
1

> <s_lp_Variant>
AV-unprocessed.smi:2419-1

> <Gold.Version>
5.8.1

> <Gold.Id.Protein>
6NUR|6NUR_protein|mol2

> <Gold.PLP.Fitness>
38.6708

> <Gold.PLP.PLP>
-27.9178

> <Gold.PLP.part.hbond>
-4.8542

> <Gold.PLP.part.metal>
0.0000

> <Gold.PLP.part.buried>
-3.0476

> <Gold.PLP.part.nonpolar>
-21.2496

> <Gold.PLP.part.repulsive>
0.3614

> <Gold.PLP.ligand.clash>
0.0000

> <Gold.PLP.ligand.torsion>
0.6611

> <Gold.PLP.Chemscore.Hbond>
3.0000

> <Gold.PLP.Chemscore.CHOScore>
1.0000

> <Gold.PLP.Chemscore.Metal>
0.0000

> <Gold.Chemscore.Hbonds>
donor molecule, donor type, donor heavy atom, donor atom, acceptor molecule, acceptor atom, score
      L1  H     3    16       P1  7948  1.00
      L1  H     6    19       P1 10171  1.00
      L1  H    10    26       P1  7948  1.00
      L1  C    14    28       P1  8028  1.00

> <Gold.PLP.Chemscore.Internal.Correction>
0.0753

> <Gold.Rescore>
     Score         DG    S(hbond)    S(metal)    S(lipo)     H(rot)  DE(clash)    DE(int)     intcor
     15.88     -16.38       2.94        0.00      50.85       1.91       0.07       0.42       ----

> <Gold.Chemscore.Fitness>
15.8841

> <Gold.Chemscore.DG>
-16.3782

> <Gold.Chemscore.ZeroCoef>
-5.4800

> <Gold.Chemscore.Hbond>
2.9437

> <Gold.Chemscore.Metal>
0.0000

> <Gold.Chemscore.Lipo>
50.8538

> <Gold.Chemscore.Internal_Hbond>
0.0000

> <Gold.Chemscore.DEClash>
0.0711

> <Gold.Chemscore.DEInternal>
0.4230

> <Gold.Chemscore.Rot>
1.9077

> <Gold.Chemscore.Internal.Correction>
   9.000000E+99

> <Gold.Chemscore.Hbonds>
donor molecule, donor type, donor heavy atom, donor atom, acceptor molecule, acceptor atom, score
      L1  H     3    16       P1  7948  0.98
      L1  H     6    19       P1 10171  0.98
      L1  H    10    26       P1  7948  0.95

> <Gold.Chemscore.Hbond.Weighted>
-9.8320

> <Gold.Chemscore.Metal.Weighted>
-0.0000

> <Gold.Chemscore.Lipo.Weighted>
-5.9499

> <Gold.Chemscore.Internal_Hbond.Weighted>
0.0000

> <Gold.Chemscore.DEClash.Weighted>
0.0711

> <Gold.Chemscore.DEInternal.Weighted>
0.4230

> <Gold.Chemscore.Rot.Weighted>
4.8837

> <Gold.Chemscore.Internal.Correction.Weighted>
   9.000000E+99

> <Gold.Protein.RotatedTorsions>
[ 6907 6896 6895 6894 ] final   18.78 input  -60.11 | X-H torsion
[ 7974 7965 7964 7962 ] final  138.47 input  175.53 | X-H torsion
[ 8008 7997 7996 7995 ] final  100.62 input   59.86 | X-H torsion
[ 10167 10162 10161 10158 ] final -156.08 input  -65.29 | X-H torsion
[ 10718 10713 10712 10709 ] final   70.52 input   66.30 | X-H torsion
[ 10763 10752 10751 10750 ] final   35.54 input  -60.55 | X-H torsion
[ 11005 11000 10999 10996 ] final   35.29 input  -57.11 | X-H torsion

> <Gold.Protein.ActiveResidues>
 VAL166  LYS551  ARG553  GLY616  TRP617  ASP618  TYR619  PRO620  LYS621  CYS622 
 ASP623  PHE694  ASN695  SER759  ASP760  ASP761  ALA762  ILE779  LEU786  VAL792 
 PHE793  MET794  SER795  GLU796  ALA797  LYS798  CYS799  TRP800  GLU811  SER814 

> <Gold.Protein.RotatedAtoms>
  151.8706  135.0491  160.0478 H   0  0  0  0  0  0  0  0  0  0  0  0  # atno 6907 bound_to 6896
  152.2591  133.5277  159.5379 H   0  0  0  0  0  0  0  0  0  0  0  0  # atno 6908 bound_to 6896
  150.7110  134.0771  159.3927 H   0  0  0  0  0  0  0  0  0  0  0  0  # atno 6909 bound_to 6896
  144.9369  139.4978  143.5590 H   0  0  0  0  0  0  0  0  0  0  0  0  # atno 7974 bound_to 7965
  156.1221  140.3210  155.8223 H   0  0  0  0  0  0  0  0  0  0  0  0  # atno 8008 bound_to 7997
  155.4486  140.0531  157.3020 H   0  0  0  0  0  0  0  0  0  0  0  0  # atno 8009 bound_to 7997
  154.4835  140.2063  155.9723 H   0  0  0  0  0  0  0  0  0  0  0  0  # atno 8010 bound_to 7997
  139.6879  143.9470  152.2370 H   0  0  0  0  0  0  0  0  0  0  0  0  # atno 10167 bound_to 10162
  157.6404  130.9481  150.0662 H   0  0  0  0  0  0  0  0  0  0  0  0  # atno 10718 bound_to 10713
  153.0115  135.6330  154.1843 H   0  0  0  0  0  0  0  0  0  0  0  0  # atno 10763 bound_to 10752
  154.1584  135.2825  155.3117 H   0  0  0  0  0  0  0  0  0  0  0  0  # atno 10764 bound_to 10752
  154.6000  135.5590  153.7425 H   0  0  0  0  0  0  0  0  0  0  0  0  # atno 10765 bound_to 10752
  140.2441  134.3380  155.7914 H   0  0  0  0  0  0  0  0  0  0  0  0  # atno 11005 bound_to 11000
  146.3270  139.8360  142.8899 LP  0  0  0  0  0  0  0  0  0  0  0  0  # atno 17320 bound_to 7965
  145.3052  141.0205  143.3586 LP  0  0  0  0  0  0  0  0  0  0  0  0  # atno 17321 bound_to 7965
  139.9278  144.6760  150.8394 LP  0  0  0  0  0  0  0  0  0  0  0  0  # atno 17342 bound_to 10162
  140.7673  143.3330  151.2370 LP  0  0  0  0  0  0  0  0  0  0  0  0  # atno 17343 bound_to 10162
  156.1680  130.3645  149.9205 LP  0  0  0  0  0  0  0  0  0  0  0  0  # atno 17370 bound_to 10713
  156.7187  130.8998  151.3616 LP  0  0  0  0  0  0  0  0  0  0  0  0  # atno 17371 bound_to 10713
  141.2208  133.7316  156.8933 LP  0  0  0  0  0  0  0  0  0  0  0  0  # atno 17394 bound_to 11000
  140.1623  134.9157  157.2731 LP  0  0  0  0  0  0  0  0  0  0  0  0  # atno 17395 bound_to 11000

$$$$
