AV-unprocessed.smi:3162|AV-procd|sdf|12070|dock4
  -GOLD-   2272017503D 1   1.00000     0.00000
 Structure written by MMmdl.
 36 36  0  0  0  0  0  0  0  0  1 V2000
  148.4319  140.0035  153.7810 C   0  0  0  0  0  0  0  0  0  0  0  0
  149.3285  141.1018  154.3743 C   0  0  0  0  0  0  0  0  0  0  0  0
  149.2884  141.1922  155.9159 C   0  0  1  0  0  0  0  0  0  0  0  0
  150.1819  142.2784  156.3634 N   0  0  0  0  0  0  0  0  0  0  0  0
  150.6053  142.2242  157.7614 C   0  0  1  0  0  0  0  0  0  0  0  0
  151.2575  140.8510  157.9931 C   0  0  0  0  0  0  0  0  0  0  0  0
  151.5681  143.3955  158.0615 C   0  0  0  0  0  0  0  0  0  0  0  0
  151.8892  143.5101  159.4721 N   0  0  0  0  0  0  0  0  0  0  0  0
  152.4995  142.5847  160.2915 C   0  0  0  0  0  0  0  0  0  0  0  0
  152.5952  143.1382  161.5369 C   0  0  0  0  0  0  0  0  0  0  0  0
  153.1752  142.5402  162.7862 C   0  0  0  0  0  0  0  0  0  0  0  0
  152.0117  144.4265  161.3715 C   0  0  0  0  0  0  0  0  0  0  0  0
  151.5934  144.6476  160.1362 N   0  0  0  0  0  0  0  0  0  0  0  0
  147.8489  141.3424  156.4421 C   0  0  0  0  0  0  0  0  0  0  0  0
  147.2176  142.4889  156.1775 N   0  0  0  0  0  0  0  0  0  0  0  0
  147.3089  140.4271  157.0607 O   0  0  0  0  0  0  0  0  0  0  0  0
  148.5570  139.9473  152.6996 H   0  0  0  0  0  0  0  0  0  0  0  0
  147.3764  140.1919  153.9783 H   0  0  0  0  0  0  0  0  0  0  0  0
  148.6825  139.0262  154.1944 H   0  0  0  0  0  0  0  0  0  0  0  0
  150.3541  140.9042  154.0592 H   0  0  0  0  0  0  0  0  0  0  0  0
  149.0635  142.0636  153.9325 H   0  0  0  0  0  0  0  0  0  0  0  0
  149.6957  140.2566  156.3042 H   0  0  0  0  0  0  0  0  0  0  0  0
  149.8128  143.1919  156.1408 H   0  0  0  0  0  0  0  0  0  0  0  0
  149.7367  142.2831  158.4193 H   0  0  0  0  0  0  0  0  0  0  0  0
  151.5424  140.7162  159.0369 H   0  0  0  0  0  0  0  0  0  0  0  0
  152.1548  140.7274  157.3858 H   0  0  0  0  0  0  0  0  0  0  0  0
  150.5705  140.0424  157.7413 H   0  0  0  0  0  0  0  0  0  0  0  0
  152.4996  143.2688  157.5078 H   0  0  0  0  0  0  0  0  0  0  0  0
  151.1466  144.3471  157.7380 H   0  0  0  0  0  0  0  0  0  0  0  0
  152.8091  141.6170  159.9251 H   0  0  0  0  0  0  0  0  0  0  0  0
  153.1338  143.2348  163.6257 H   0  0  0  0  0  0  0  0  0  0  0  0
  154.2206  142.2622  162.6508 H   0  0  0  0  0  0  0  0  0  0  0  0
  152.6387  141.6402  163.0873 H   0  0  0  0  0  0  0  0  0  0  0  0
  151.8815  145.2039  162.1098 H   0  0  0  0  0  0  0  0  0  0  0  0
  146.2736  142.6317  156.5053 H   0  0  0  0  0  0  0  0  0  0  0  0
  147.6892  143.2106  155.6518 H   0  0  0  0  0  0  0  0  0  0  0  0
  1  2  1  0  0  0  0
  1 17  1  0  0  0  0
  1 18  1  0  0  0  0
  1 19  1  0  0  0  0
  2  3  1  0  0  0  0
  2 20  1  0  0  0  0
  2 21  1  0  0  0  0
  3  4  1  0  0  0  0
  3 14  1  0  0  0  0
  3 22  1  0  0  0  0
  4  5  1  0  0  0  0
  4 23  1  0  0  0  0
  5  6  1  0  0  0  0
  5  7  1  0  0  0  0
  5 24  1  0  0  0  0
  6 25  1  0  0  0  0
  6 26  1  0  0  0  0
  6 27  1  0  0  0  0
  7  8  1  0  0  0  0
  7 28  1  0  0  0  0
  7 29  1  0  0  0  0
  8 13  1  0  0  0  0
  8  9  1  0  0  0  0
  9 10  2  0  0  0  0
  9 30  1  0  0  0  0
 10 11  1  0  0  0  0
 10 12  1  0  0  0  0
 11 31  1  0  0  0  0
 11 32  1  0  0  0  0
 11 33  1  0  0  0  0
 12 13  2  0  0  0  0
 12 34  1  0  0  0  0
 14 15  1  0  0  0  0
 14 16  2  0  0  0  0
 15 35  1  0  0  0  0
 15 36  1  0  0  0  0
M  END
> <s_m_source_file>
AV-unprocessed.smi

> <i_m_source_file_index>
3162

> <i_lp_mmshare_version>
43012

> <i_f3d_flags>
0

> <s_epik_input>
W0NIM11bQ0gyXVtDQEBIXShDKD1PKVtOSDJdKVtOSF1bQ0BIXShbQ0gzXSlbQ0gyXW4xW2NIXWMoW0NIM10pW2NIXW4x

> <s_epik_cmdline>
J2VwaWtfcHl0aG9uJywgJy1waCcsICc3LjAnLCAnLXRuJywgJzgnLCAnLW1hJywgJzIwMCcsICctbWV0YWxfYmluZGluZycsICctaW1hZScsICc8aW5maWxlLm1hZT4nLCAnLW9tYWUnLCAnPG91dGZpbGUubWFlPic=

> <r_lp_tautomer_probability>
1

> <r_epik_Ionization_Penalty>
1.04167

> <r_epik_Ionization_Penalty_Charging>
0

> <r_epik_Ionization_Penalty_Neutral>
1.04167

> <r_epik_State_Penalty>
1.09367

> <r_epik_Charging_Adjusted_Penalty>
1.09367

> <i_epik_Tot_Q>
0

> <i_epik_Tot_abs_Q>
0

> <r_epik_Metal_State_Penalty>
1.09362

> <b_epik_Metal_Only>
0

> <s_lp_Force_Field>
OPLS_2005

> <r_lp_Energy>
2.92594

> <b_lp_Chiralities_Consistent>
1

> <s_lp_Variant>
AV-unprocessed.smi:3162-8

> <Gold.Version>
5.8.1

> <Gold.Id.Protein>
6NUR|6NUR_protein|mol2

> <Gold.PLP.Fitness>
41.4051

> <Gold.PLP.PLP>
-36.1551

> <Gold.PLP.part.hbond>
-2.0000

> <Gold.PLP.part.metal>
0.0000

> <Gold.PLP.part.buried>
-3.4764

> <Gold.PLP.part.nonpolar>
-30.0195

> <Gold.PLP.part.repulsive>
0.1011

> <Gold.PLP.ligand.clash>
0.0000

> <Gold.PLP.ligand.torsion>
0.2909

> <Gold.PLP.Chemscore.Hbond>
1.9000

> <Gold.PLP.Chemscore.CHOScore>
0.0000

> <Gold.PLP.Chemscore.Metal>
0.0000

> <Gold.Chemscore.Hbonds>
donor molecule, donor type, donor heavy atom, donor atom, acceptor molecule, acceptor atom, score
      L1  H     4    23       P1  8028  1.00
      L1  H    15    36       P1  8028  0.98

> <Gold.PLP.Chemscore.Internal.Correction>
0.1317

> <Gold.Rescore>
     Score         DG    S(hbond)    S(metal)    S(lipo)     H(rot)  DE(clash)    DE(int)     intcor
     14.13     -14.63       1.41        0.00      91.06       2.43       0.09       0.41       ----

> <Gold.Chemscore.Fitness>
14.1328

> <Gold.Chemscore.DG>
-14.6312

> <Gold.Chemscore.ZeroCoef>
-5.4800

> <Gold.Chemscore.Hbond>
1.4147

> <Gold.Chemscore.Metal>
0.0000

> <Gold.Chemscore.Lipo>
91.0606

> <Gold.Chemscore.Internal_Hbond>
0.0000

> <Gold.Chemscore.DEClash>
0.0901

> <Gold.Chemscore.DEInternal>
0.4083

> <Gold.Chemscore.Rot>
2.4328

> <Gold.Chemscore.Internal.Correction>
   9.000000E+99

> <Gold.Chemscore.Hbonds>
donor molecule, donor type, donor heavy atom, donor atom, acceptor molecule, acceptor atom, score
      L1  H     4    23       P1  8028  1.00
      L1  H    15    36       P1  8028  0.24

> <Gold.Chemscore.Hbond.Weighted>
-4.7251

> <Gold.Chemscore.Metal.Weighted>
-0.0000

> <Gold.Chemscore.Lipo.Weighted>
-10.6541

> <Gold.Chemscore.Internal_Hbond.Weighted>
0.0000

> <Gold.Chemscore.DEClash.Weighted>
0.0901

> <Gold.Chemscore.DEInternal.Weighted>
0.4083

> <Gold.Chemscore.Rot.Weighted>
6.2279

> <Gold.Chemscore.Internal.Correction.Weighted>
   9.000000E+99

> <Gold.Protein.RotatedTorsions>
[ 6907 6896 6895 6894 ] final -167.42 input  -60.11 | X-H torsion
[ 7974 7965 7964 7962 ] final   53.41 input  175.53 | X-H torsion
[ 8008 7997 7996 7995 ] final  119.98 input   59.86 | X-H torsion
[ 10167 10162 10161 10158 ] final   93.58 input  -65.29 | X-H torsion
[ 10718 10713 10712 10709 ] final  -20.14 input   66.30 | X-H torsion
[ 10763 10752 10751 10750 ] final -164.21 input  -60.55 | X-H torsion
[ 11005 11000 10999 10996 ] final  -16.84 input  -57.11 | X-H torsion

> <Gold.Protein.ActiveResidues>
 VAL166  LYS551  ARG553  GLY616  TRP617  ASP618  TYR619  PRO620  LYS621  CYS622 
 ASP623  PHE694  ASN695  SER759  ASP760  ASP761  ALA762  ILE779  LEU786  VAL792 
 PHE793  MET794  SER795  GLU796  ALA797  LYS798  CYS799  TRP800  GLU811  SER814 

> <Gold.Protein.RotatedAtoms>
  151.4592  133.3597  159.2806 H   0  0  0  0  0  0  0  0  0  0  0  0  # atno 6907 bound_to 6896
  150.9037  134.8452  159.7388 H   0  0  0  0  0  0  0  0  0  0  0  0  # atno 6908 bound_to 6896
  152.4894  134.4515  159.9628 H   0  0  0  0  0  0  0  0  0  0  0  0  # atno 6909 bound_to 6896
  145.9715  139.4153  143.0187 H   0  0  0  0  0  0  0  0  0  0  0  0  # atno 7974 bound_to 7965
  156.2621  140.2841  156.1077 H   0  0  0  0  0  0  0  0  0  0  0  0  # atno 8008 bound_to 7997
  155.1291  140.0393  157.2787 H   0  0  0  0  0  0  0  0  0  0  0  0  # atno 8009 bound_to 7997
  154.6613  140.2567  155.7112 H   0  0  0  0  0  0  0  0  0  0  0  0  # atno 8010 bound_to 7997
  139.8166  144.6750  150.9572 H   0  0  0  0  0  0  0  0  0  0  0  0  # atno 10167 bound_to 10162
  156.5359  130.4666  149.6523 H   0  0  0  0  0  0  0  0  0  0  0  0  # atno 10718 bound_to 10713
  154.7050  135.2995  154.9284 H   0  0  0  0  0  0  0  0  0  0  0  0  # atno 10763 bound_to 10752
  154.0204  135.6683  153.4776 H   0  0  0  0  0  0  0  0  0  0  0  0  # atno 10764 bound_to 10752
  153.0710  135.5061  154.8216 H   0  0  0  0  0  0  0  0  0  0  0  0  # atno 10765 bound_to 10752
  140.8108  133.8142  155.9561 H   0  0  0  0  0  0  0  0  0  0  0  0  # atno 11005 bound_to 11000
  145.7899  140.9819  143.1054 LP  0  0  0  0  0  0  0  0  0  0  0  0  # atno 17320 bound_to 7965
  144.6838  139.9670  143.7481 LP  0  0  0  0  0  0  0  0  0  0  0  0  # atno 17321 bound_to 7965
  140.7815  143.4132  151.0958 LP  0  0  0  0  0  0  0  0  0  0  0  0  # atno 17342 bound_to 10162
  139.7796  143.8375  152.3135 LP  0  0  0  0  0  0  0  0  0  0  0  0  # atno 17343 bound_to 10162
  156.3016  130.7180  151.2053 LP  0  0  0  0  0  0  0  0  0  0  0  0  # atno 17370 bound_to 10713
  157.7414  131.0505  150.5101 LP  0  0  0  0  0  0  0  0  0  0  0  0  # atno 17371 bound_to 10713
  140.9200  134.2154  157.4932 LP  0  0  0  0  0  0  0  0  0  0  0  0  # atno 17394 bound_to 11000
  139.8714  134.9788  156.5011 LP  0  0  0  0  0  0  0  0  0  0  0  0  # atno 17395 bound_to 11000

$$$$
