AV-unprocessed.smi:2865|AV-procd|sdf|11015|dock8
  -GOLD-   2272015473D 1   1.00000     0.00000
 Structure written by MMmdl.
 38 41  0  0  0  0  0  0  0  0  1 V2000
  146.2551  137.4174  154.9371 O   0  0  0  0  0  0  0  0  0  0  0  0
  147.0666  137.0619  154.0857 C   0  0  0  0  0  0  0  0  0  0  0  0
  148.2824  137.6135  153.9042 N   0  0  0  0  0  0  0  0  0  0  0  0
  148.9187  138.6363  154.6575 C   0  0  0  0  0  0  0  0  0  0  0  0
  148.5367  139.0567  155.9557 C   0  0  0  0  0  0  0  0  0  0  0  0
  149.2089  140.0264  156.6134 N   0  0  0  0  0  0  0  0  0  0  0  0
  150.2492  140.5786  155.9832 C   0  0  0  0  0  0  0  0  0  0  0  0
  151.0132  141.6245  156.7350 C   0  0  0  0  0  0  0  0  0  0  0  0
  151.7941  141.2679  157.9833 C   0  0  0  0  0  0  0  0  0  0  0  0
  150.5461  142.0981  158.0964 C   0  0  0  0  0  0  0  0  0  0  0  0
  150.7125  140.2502  154.7741 N   0  0  0  0  0  0  0  0  0  0  0  0
  150.0469  139.2816  154.1094 C   0  0  0  0  0  0  0  0  0  0  0  0
  146.7766  136.0759  153.2185 N   0  0  0  0  0  0  0  0  0  0  0  0
  145.5534  135.2755  153.1395 C   0  0  2  0  0  0  0  0  0  0  0  0
  145.8192  133.8154  152.7497 C   0  0  0  0  0  0  0  0  0  0  0  0
  144.9880  133.6740  151.4676 C   0  0  1  0  0  0  0  0  0  0  0  0
  143.4785  133.7067  151.7491 C   0  0  0  0  0  0  0  0  0  0  0  0
  143.2508  135.1818  152.0807 C   0  0  0  0  0  0  0  0  0  0  0  0
  144.6730  135.7466  151.9692 C   0  0  2  0  0  0  0  0  0  0  0  0
  145.1759  134.9586  150.9028 O   0  0  0  0  0  0  0  0  0  0  0  0
  148.8069  137.2702  153.1130 H   0  0  0  0  0  0  0  0  0  0  0  0
  147.7119  138.6193  156.4955 H   0  0  0  0  0  0  0  0  0  0  0  0
  151.4440  142.3617  156.0602 H   0  0  0  0  0  0  0  0  0  0  0  0
  151.7450  140.2400  158.3378 H   0  0  0  0  0  0  0  0  0  0  0  0
  152.7476  141.7692  158.1373 H   0  0  0  0  0  0  0  0  0  0  0  0
  150.6639  143.1549  158.3268 H   0  0  0  0  0  0  0  0  0  0  0  0
  149.6669  141.6222  158.5263 H   0  0  0  0  0  0  0  0  0  0  0  0
  150.4217  139.0186  153.1310 H   0  0  0  0  0  0  0  0  0  0  0  0
  147.4748  135.8738  152.5174 H   0  0  0  0  0  0  0  0  0  0  0  0
  144.9997  135.3513  154.0771 H   0  0  0  0  0  0  0  0  0  0  0  0
  146.8750  133.6422  152.5355 H   0  0  0  0  0  0  0  0  0  0  0  0
  145.5124  133.1103  153.5230 H   0  0  0  0  0  0  0  0  0  0  0  0
  145.3020  132.8502  150.8262 H   0  0  0  0  0  0  0  0  0  0  0  0
  142.9107  133.4237  150.8621 H   0  0  0  0  0  0  0  0  0  0  0  0
  143.1951  133.0401  152.5642 H   0  0  0  0  0  0  0  0  0  0  0  0
  142.5929  135.6424  151.3429 H   0  0  0  0  0  0  0  0  0  0  0  0
  142.8153  135.3337  153.0689 H   0  0  0  0  0  0  0  0  0  0  0  0
  144.7007  136.8218  151.7876 H   0  0  0  0  0  0  0  0  0  0  0  0
  1  2  2  0  0  0  0
  2  3  1  0  0  0  0
  2 13  1  0  0  0  0
  3  4  1  0  0  0  0
  3 21  1  0  0  0  0
  4 12  1  0  0  0  0
  4  5  2  0  0  0  0
  5  6  1  0  0  0  0
  5 22  1  0  0  0  0
  6  7  2  0  0  0  0
  7  8  1  0  0  0  0
  7 11  1  0  0  0  0
  8 10  1  0  0  0  0
  8  9  1  0  0  0  0
  8 23  1  0  0  0  0
  9 10  1  0  0  0  0
  9 24  1  0  0  0  0
  9 25  1  0  0  0  0
 10 26  1  0  0  0  0
 10 27  1  0  0  0  0
 11 12  2  0  0  0  0
 12 28  1  0  0  0  0
 13 14  1  0  0  0  0
 13 29  1  0  0  0  0
 14 19  1  0  0  0  0
 14 15  1  0  0  0  0
 14 30  1  0  0  0  0
 15 16  1  0  0  0  0
 15 31  1  0  0  0  0
 15 32  1  0  0  0  0
 16 20  1  0  0  0  0
 16 17  1  0  0  0  0
 16 33  1  0  0  0  0
 17 18  1  0  0  0  0
 17 34  1  0  0  0  0
 17 35  1  0  0  0  0
 18 19  1  0  0  0  0
 18 36  1  0  0  0  0
 18 37  1  0  0  0  0
 19 20  1  0  0  0  0
 19 38  1  0  0  0  0
M  END
> <s_m_source_file>
AV-unprocessed.smi

> <i_m_source_file_index>
2865

> <i_lp_mmshare_version>
43012

> <i_f3d_flags>
0

> <s_epik_input>
W0NIMl0xW0NIMl1bQ0BIXShPMilbQ0BASF0oW0NIMl1bQ0BASF0xMilbTkhdQyg9TylbTkhdYzNbY0hdbmMobltjSF0zKVtDSF00W0NIMl1bQ0gyXTQ=

> <s_epik_cmdline>
J2VwaWtfcHl0aG9uJywgJy1waCcsICc3LjAnLCAnLXRuJywgJzgnLCAnLW1hJywgJzIwMCcsICctbWV0YWxfYmluZGluZycsICctaW1hZScsICc8aW5maWxlLm1hZT4nLCAnLW9tYWUnLCAnPG91dGZpbGUubWFlPic=

> <r_lp_tautomer_probability>
1

> <r_epik_Ionization_Penalty>
2.43104e-05

> <r_epik_Ionization_Penalty_Charging>
0

> <r_epik_Ionization_Penalty_Neutral>
2.43104e-05

> <r_epik_State_Penalty>
-0

> <r_epik_Charging_Adjusted_Penalty>
0

> <i_epik_Tot_Q>
0

> <i_epik_Tot_abs_Q>
0

> <r_epik_Metal_State_Penalty>
-0

> <b_epik_Metal_Only>
0

> <s_lp_Force_Field>
OPLS_2005

> <r_lp_Energy>
45.9934

> <b_lp_Chiralities_Consistent>
1

> <s_lp_Variant>
AV-unprocessed.smi:2865-1

> <Gold.Version>
5.8.1

> <Gold.Id.Protein>
6NUR|6NUR_protein|mol2

> <Gold.PLP.Fitness>
36.1658

> <Gold.PLP.PLP>
-25.2649

> <Gold.PLP.part.hbond>
-3.0000

> <Gold.PLP.part.metal>
0.0000

> <Gold.PLP.part.buried>
-2.8788

> <Gold.PLP.part.nonpolar>
-19.7482

> <Gold.PLP.part.repulsive>
0.3519

> <Gold.PLP.ligand.clash>
0.0000

> <Gold.PLP.ligand.torsion>
0.3964

> <Gold.PLP.Chemscore.Hbond>
2.9920

> <Gold.PLP.Chemscore.CHOScore>
0.8573

> <Gold.PLP.Chemscore.Metal>
0.0000

> <Gold.Chemscore.Hbonds>
donor molecule, donor type, donor heavy atom, donor atom, acceptor molecule, acceptor atom, score
      L1  H     3    21       P1  7948  1.00
      L1  H    13    29       P1  7948  0.99
      P1  H  7989  7998       L1    11  0.95
      L1  C    12    28       P1  7957  0.86

> <Gold.PLP.Chemscore.Internal.Correction>
0.1458

> <Gold.Rescore>
     Score         DG    S(hbond)    S(metal)    S(lipo)     H(rot)  DE(clash)    DE(int)     intcor
     16.30     -18.15       2.59        0.00      60.63       1.20       0.34       1.52       ----

> <Gold.Chemscore.Fitness>
16.2997

> <Gold.Chemscore.DG>
-18.1514

> <Gold.Chemscore.ZeroCoef>
-5.4800

> <Gold.Chemscore.Hbond>
2.5906

> <Gold.Chemscore.Metal>
0.0000

> <Gold.Chemscore.Lipo>
60.6326

> <Gold.Chemscore.Internal_Hbond>
0.0000

> <Gold.Chemscore.DEClash>
0.3364

> <Gold.Chemscore.DEInternal>
1.5153

> <Gold.Chemscore.Rot>
1.2012

> <Gold.Chemscore.Internal.Correction>
   9.000000E+99

> <Gold.Chemscore.Hbonds>
donor molecule, donor type, donor heavy atom, donor atom, acceptor molecule, acceptor atom, score
      L1  H     3    21       P1  7948  0.95
      L1  H    13    29       P1  7948  0.93
      P1  H  7989  7998       L1    11  0.21

> <Gold.Chemscore.Hbond.Weighted>
-8.6525

> <Gold.Chemscore.Metal.Weighted>
-0.0000

> <Gold.Chemscore.Lipo.Weighted>
-7.0940

> <Gold.Chemscore.Internal_Hbond.Weighted>
0.0000

> <Gold.Chemscore.DEClash.Weighted>
0.3364

> <Gold.Chemscore.DEInternal.Weighted>
1.5153

> <Gold.Chemscore.Rot.Weighted>
3.0752

> <Gold.Chemscore.Internal.Correction.Weighted>
   9.000000E+99

> <Gold.Protein.RotatedTorsions>
[ 6907 6896 6895 6894 ] final   27.88 input  -60.11 | X-H torsion
[ 7974 7965 7964 7962 ] final   19.45 input  175.53 | X-H torsion
[ 8008 7997 7996 7995 ] final   50.83 input   59.86 | X-H torsion
[ 10167 10162 10161 10158 ] final   12.27 input  -65.29 | X-H torsion
[ 10718 10713 10712 10709 ] final   36.02 input   66.30 | X-H torsion
[ 10763 10752 10751 10750 ] final  -10.71 input  -60.55 | X-H torsion
[ 11005 11000 10999 10996 ] final -159.04 input  -57.11 | X-H torsion

> <Gold.Protein.ActiveResidues>
 VAL166  LYS551  ARG553  GLY616  TRP617  ASP618  TYR619  PRO620  LYS621  CYS622 
 ASP623  PHE694  ASN695  SER759  ASP760  ASP761  ALA762  ILE779  LEU786  VAL792 
 PHE793  MET794  SER795  GLU796  ALA797  LYS798  CYS799  TRP800  GLU811  SER814 

> <Gold.Protein.RotatedAtoms>
  152.0088  134.9888  160.0567 H   0  0  0  0  0  0  0  0  0  0  0  0  # atno 6907 bound_to 6896
  152.1449  133.4481  159.4793 H   0  0  0  0  0  0  0  0  0  0  0  0  # atno 6908 bound_to 6896
  150.6869  134.2179  159.4428 H   0  0  0  0  0  0  0  0  0  0  0  0  # atno 6909 bound_to 6896
  146.2149  139.8311  142.8660 H   0  0  0  0  0  0  0  0  0  0  0  0  # atno 7974 bound_to 7965
  155.4253  140.3448  155.4275 H   0  0  0  0  0  0  0  0  0  0  0  0  # atno 8008 bound_to 7997
  156.1368  140.1530  156.9012 H   0  0  0  0  0  0  0  0  0  0  0  0  # atno 8009 bound_to 7997
  154.4939  140.0833  156.7634 H   0  0  0  0  0  0  0  0  0  0  0  0  # atno 8010 bound_to 7997
  140.6078  143.8470  150.7033 H   0  0  0  0  0  0  0  0  0  0  0  0  # atno 10167 bound_to 10162
  157.3298  130.7491  149.6839 H   0  0  0  0  0  0  0  0  0  0  0  0  # atno 10718 bound_to 10713
  153.4732  135.7017  153.5981 H   0  0  0  0  0  0  0  0  0  0  0  0  # atno 10763 bound_to 10752
  153.4226  135.3822  155.2121 H   0  0  0  0  0  0  0  0  0  0  0  0  # atno 10764 bound_to 10752
  154.8724  135.3931  154.4172 H   0  0  0  0  0  0  0  0  0  0  0  0  # atno 10765 bound_to 10752
  140.6470  134.4491  157.5234 H   0  0  0  0  0  0  0  0  0  0  0  0  # atno 11005 bound_to 11000
  145.2996  141.0190  143.3616 LP  0  0  0  0  0  0  0  0  0  0  0  0  # atno 17320 bound_to 7965
  144.9016  139.4643  143.6630 LP  0  0  0  0  0  0  0  0  0  0  0  0  # atno 17321 bound_to 7965
  140.2032  143.3943  152.1776 LP  0  0  0  0  0  0  0  0  0  0  0  0  # atno 17342 bound_to 10162
  139.5338  144.7188  151.4962 LP  0  0  0  0  0  0  0  0  0  0  0  0  # atno 17343 bound_to 10162
  155.9694  130.4198  150.4395 LP  0  0  0  0  0  0  0  0  0  0  0  0  # atno 17370 bound_to 10713
  157.2425  131.0528  151.2428 LP  0  0  0  0  0  0  0  0  0  0  0  0  # atno 17371 bound_to 10713
  139.9059  134.8449  156.1707 LP  0  0  0  0  0  0  0  0  0  0  0  0  # atno 17394 bound_to 11000
  141.0565  133.6862  156.1870 LP  0  0  0  0  0  0  0  0  0  0  0  0  # atno 17395 bound_to 11000

$$$$
