AV-unprocessed.smi:1006|AV-procd|sdf|4395|dock2
  -GOLD-   22720 2323D 1   1.00000     0.00000
 Structure written by MMmdl.
 46 48  0  0  0  0  0  0  0  0  2 V2000
  147.3098  137.2866  163.0528 C   0  0  0  0  0  0  0  0  0  0  0  0
  147.7570  136.3824  161.9242 C   0  0  0  0  0  0  0  0  0  0  0  0
  147.6736  134.9772  162.0272 C   0  0  0  0  0  0  0  0  0  0  0  0
  148.1236  134.2429  160.9102 C   0  0  0  0  0  0  0  0  0  0  0  0
  148.0821  132.8511  160.9089 N   0  0  0  0  0  0  0  0  0  0  0  0
  148.6067  134.8512  159.8060 N   0  0  0  0  0  0  0  0  0  0  0  0
  148.6340  136.1857  159.8226 C   0  0  0  0  0  0  0  0  0  0  0  0
  149.2791  136.9492  158.3443 S   0  0  0  0  0  0  0  0  0  0  0  0
  149.9811  138.5048  158.9757 C   0  0  0  0  0  0  0  0  0  0  0  0
  151.4990  138.5873  158.7496 C   0  0  1  0  0  0  0  0  0  0  0  0
  152.0639  137.3000  158.9113 O   0  0  0  0  0  0  0  0  0  0  0  0
  151.8419  139.1394  157.3524 C   0  0  0  0  0  0  0  0  0  0  0  0
  151.3953  140.5273  157.1647 N   0  0  0  0  0  0  0  0  0  0  0  0
  150.6658  141.0730  156.1541 C   0  0  0  0  0  0  0  0  0  0  0  0
  150.5032  142.3960  156.4322 N   0  3  0  0  0  0  0  0  0  0  0  0
  151.1368  142.7000  157.6388 C   0  0  0  0  0  0  0  0  0  0  0  0
  151.2456  143.8999  158.3317 C   0  0  0  0  0  0  0  0  0  0  0  0
  151.9609  143.8786  159.5502 C   0  0  0  0  0  0  0  0  0  0  0  0
  152.0967  145.1731  160.3342 C   0  0  0  0  0  0  0  0  0  0  0  0
  152.5389  142.6774  160.0364 C   0  0  0  0  0  0  0  0  0  0  0  0
  153.3025  142.6651  161.3498 C   0  0  0  0  0  0  0  0  0  0  0  0
  152.4190  141.4679  159.3153 C   0  0  0  0  0  0  0  0  0  0  0  0
  151.7115  141.5054  158.1156 C   0  0  0  0  0  0  0  0  0  0  0  0
  148.2405  136.9880  160.8169 N   0  0  0  0  0  0  0  0  0  0  0  0
  146.7739  136.7239  163.8178 H   0  0  0  0  0  0  0  0  0  0  0  0
  146.6460  138.0660  162.6776 H   0  0  0  0  0  0  0  0  0  0  0  0
  148.1723  137.7631  163.5192 H   0  0  0  0  0  0  0  0  0  0  0  0
  147.2871  134.4918  162.9117 H   0  0  0  0  0  0  0  0  0  0  0  0
  147.7319  132.3312  161.7003 H   0  0  0  0  0  0  0  0  0  0  0  0
  148.3944  132.3182  160.1101 H   0  0  0  0  0  0  0  0  0  0  0  0
  149.4835  139.3477  158.4941 H   0  0  0  0  0  0  0  0  0  0  0  0
  149.7648  138.5695  160.0425 H   0  0  0  0  0  0  0  0  0  0  0  0
  151.9374  139.2421  159.5040 H   0  0  0  0  0  0  0  0  0  0  0  0
  152.4974  137.2645  159.7501 H   0  0  0  0  0  0  0  0  0  0  0  0
  152.9106  139.0710  157.1488 H   0  0  0  0  0  0  0  0  0  0  0  0
  151.3481  138.5396  156.5867 H   0  0  0  0  0  0  0  0  0  0  0  0
  150.2830  140.5504  155.2894 H   0  0  0  0  0  0  0  0  0  0  0  0
  150.8009  144.8101  157.9565 H   0  0  0  0  0  0  0  0  0  0  0  0
  153.1472  145.4261  160.4794 H   0  0  0  0  0  0  0  0  0  0  0  0
  151.6239  145.0787  161.3121 H   0  0  0  0  0  0  0  0  0  0  0  0
  151.6230  146.0060  159.8138 H   0  0  0  0  0  0  0  0  0  0  0  0
  153.6557  141.6636  161.5972 H   0  0  0  0  0  0  0  0  0  0  0  0
  152.6660  143.0037  162.1673 H   0  0  0  0  0  0  0  0  0  0  0  0
  154.1720  143.3200  161.2924 H   0  0  0  0  0  0  0  0  0  0  0  0
  152.8565  140.5545  159.6895 H   0  0  0  0  0  0  0  0  0  0  0  0
  149.9941  143.0411  155.8416 H   0  0  0  0  0  0  0  0  0  0  0  0
  1  2  1  0  0  0  0
  1 25  1  0  0  0  0
  1 26  1  0  0  0  0
  1 27  1  0  0  0  0
  2 24  1  0  0  0  0
  2  3  2  0  0  0  0
  3  4  1  0  0  0  0
  3 28  1  0  0  0  0
  4  5  1  0  0  0  0
  4  6  2  0  0  0  0
  5 29  1  0  0  0  0
  5 30  1  0  0  0  0
  6  7  1  0  0  0  0
  7  8  1  0  0  0  0
  7 24  2  0  0  0  0
  8  9  1  0  0  0  0
  9 10  1  0  0  0  0
  9 31  1  0  0  0  0
  9 32  1  0  0  0  0
 10 11  1  0  0  0  0
 10 12  1  0  0  0  0
 10 33  1  0  0  0  0
 11 34  1  0  0  0  0
 12 13  1  0  0  0  0
 12 35  1  0  0  0  0
 12 36  1  0  0  0  0
 13 23  1  0  0  0  0
 13 14  1  0  0  0  0
 14 15  2  0  0  0  0
 14 37  1  0  0  0  0
 15 16  1  0  0  0  0
 15 46  1  0  0  0  0
 16 23  2  0  0  0  0
 16 17  1  0  0  0  0
 17 18  2  0  0  0  0
 17 38  1  0  0  0  0
 18 19  1  0  0  0  0
 18 20  1  0  0  0  0
 19 39  1  0  0  0  0
 19 40  1  0  0  0  0
 19 41  1  0  0  0  0
 20 21  1  0  0  0  0
 20 22  2  0  0  0  0
 21 42  1  0  0  0  0
 21 43  1  0  0  0  0
 21 44  1  0  0  0  0
 22 23  1  0  0  0  0
 22 45  1  0  0  0  0
M  CHG  1  15   1
M  END
> <s_m_source_file>
AV-unprocessed.smi

> <i_m_source_file_index>
1006

> <i_lp_mmshare_version>
43012

> <i_f3d_flags>
0

> <s_epik_input>
W0NIM11jMVtjSF1jKFtOSDJdKW5jKG4xKVNbQ0gyXVtDQEhdKFtPSF0pW0NIMl1uKFtjSF1uMiljKGMyMylbY0hdYyhbQ0gzXSljKFtjSF0zKVtDSDNd

> <s_epik_cmdline>
J2VwaWtfcHl0aG9uJywgJy1waCcsICc3LjAnLCAnLXRuJywgJzgnLCAnLW1hJywgJzIwMCcsICctbWV0YWxfYmluZGluZycsICctaW1hZScsICc8aW5maWxlLm1hZT4nLCAnLW9tYWUnLCAnPG91dGZpbGUubWFlPic=

> <r_epik_Ionization_Penalty>
1.4378

> <r_epik_Ionization_Penalty_Charging>
1.06724

> <r_epik_Ionization_Penalty_Neutral>
0.370564

> <r_epik_State_Penalty>
1.48666

> <r_epik_Charging_Adjusted_Penalty>
2.5539

> <i_epik_Tot_Q>
1

> <i_epik_Tot_abs_Q>
1

> <r_epik_Metal_State_Penalty>
1.38026

> <b_epik_Metal_Only>
0

> <s_lp_Force_Field>
OPLS_2005

> <r_lp_Energy>
7.15152

> <b_lp_Chiralities_Consistent>
1

> <s_lp_Variant>
AV-unprocessed.smi:1006-6

> <Gold.Version>
5.8.1

> <Gold.Id.Protein>
6NUR|6NUR_protein|mol2

> <Gold.PLP.Fitness>
58.7644

> <Gold.PLP.PLP>
-50.7884

> <Gold.PLP.part.hbond>
-3.6672

> <Gold.PLP.part.metal>
0.0000

> <Gold.PLP.part.buried>
-6.4343

> <Gold.PLP.part.nonpolar>
-41.3963

> <Gold.PLP.part.repulsive>
0.1435

> <Gold.PLP.ligand.clash>
0.0000

> <Gold.PLP.ligand.torsion>
1.1243

> <Gold.PLP.Chemscore.Hbond>
3.4031

> <Gold.PLP.Chemscore.CHOScore>
0.0000

> <Gold.PLP.Chemscore.Metal>
0.0000

> <Gold.Chemscore.Hbonds>
donor molecule, donor type, donor heavy atom, donor atom, acceptor molecule, acceptor atom, score
      L1  H    15    46       P1  8028  1.98
      P1  H  6896  6909       L1     6  0.79
      P1  H  6931  6943       L1    24  0.44
      P1  H  6934  6947       L1    24  0.25

> <Gold.PLP.Chemscore.Internal.Correction>
0.0155

> <Gold.Rescore>
     Score         DG    S(hbond)    S(metal)    S(lipo)     H(rot)  DE(clash)    DE(int)     intcor
     15.97     -17.48       1.48        0.00     123.67       2.89       0.46       1.05       ----

> <Gold.Chemscore.Fitness>
15.9698

> <Gold.Chemscore.DG>
-17.4807

> <Gold.Chemscore.ZeroCoef>
-5.4800

> <Gold.Chemscore.Hbond>
1.4768

> <Gold.Chemscore.Metal>
0.0000

> <Gold.Chemscore.Lipo>
123.6692

> <Gold.Chemscore.Internal_Hbond>
0.0000

> <Gold.Chemscore.DEClash>
0.4561

> <Gold.Chemscore.DEInternal>
1.0548

> <Gold.Chemscore.Rot>
2.8910

> <Gold.Chemscore.Internal.Correction>
   9.000000E+99

> <Gold.Chemscore.Hbonds>
donor molecule, donor type, donor heavy atom, donor atom, acceptor molecule, acceptor atom, score
      L1  H    15    46       P1  8028  0.88
      P1  H  6896  6909       L1     6  0.18
      P1  H  6931  6943       L1    24  0.01
      P1  H  6934  6947       L1    24  0.07

> <Gold.Chemscore.Hbond.Weighted>
-4.9324

> <Gold.Chemscore.Metal.Weighted>
-0.0000

> <Gold.Chemscore.Lipo.Weighted>
-14.4693

> <Gold.Chemscore.Internal_Hbond.Weighted>
0.0000

> <Gold.Chemscore.DEClash.Weighted>
0.4561

> <Gold.Chemscore.DEInternal.Weighted>
1.0548

> <Gold.Chemscore.Rot.Weighted>
7.4009

> <Gold.Chemscore.Internal.Correction.Weighted>
   9.000000E+99

> <Gold.Protein.RotatedTorsions>
[ 6907 6896 6895 6894 ] final   39.84 input  -60.11 | X-H torsion
[ 7974 7965 7964 7962 ] final -135.47 input  175.53 | X-H torsion
[ 8008 7997 7996 7995 ] final  123.59 input   59.86 | X-H torsion
[ 10167 10162 10161 10158 ] final  -55.40 input  -65.29 | X-H torsion
[ 10718 10713 10712 10709 ] final   36.15 input   66.30 | X-H torsion
[ 10763 10752 10751 10750 ] final  155.90 input  -60.55 | X-H torsion
[ 11005 11000 10999 10996 ] final  -84.92 input  -57.11 | X-H torsion

> <Gold.Protein.ActiveResidues>
 VAL166  LYS551  ARG553  GLY616  TRP617  ASP618  TYR619  PRO620  LYS621  CYS622 
 ASP623  PHE694  ASN695  SER759  ASP760  ASP761  ALA762  ILE779  LEU786  VAL792 
 PHE793  MET794  SER795  GLU796  ALA797  LYS798  CYS799  TRP800  GLU811  SER814 

> <Gold.Protein.RotatedAtoms>
  152.1747  134.8804  160.0531 H   0  0  0  0  0  0  0  0  0  0  0  0  # atno 6907 bound_to 6896
  151.9751  133.3734  159.4094 H   0  0  0  0  0  0  0  0  0  0  0  0  # atno 6908 bound_to 6896
  150.6907  134.4021  159.5167 H   0  0  0  0  0  0  0  0  0  0  0  0  # atno 6909 bound_to 6896
  144.9011  140.6772  143.5084 H   0  0  0  0  0  0  0  0  0  0  0  0  # atno 7974 bound_to 7965
  156.2771  140.2759  156.1652 H   0  0  0  0  0  0  0  0  0  0  0  0  # atno 8008 bound_to 7997
  155.0712  140.0387  157.2627 H   0  0  0  0  0  0  0  0  0  0  0  0  # atno 8009 bound_to 7997
  154.7038  140.2654  155.6699 H   0  0  0  0  0  0  0  0  0  0  0  0  # atno 8010 bound_to 7997
  140.6376  143.2490  151.5075 H   0  0  0  0  0  0  0  0  0  0  0  0  # atno 10167 bound_to 10162
  157.3314  130.7500  149.6850 H   0  0  0  0  0  0  0  0  0  0  0  0  # atno 10718 bound_to 10713
  154.1757  135.2802  155.3067 H   0  0  0  0  0  0  0  0  0  0  0  0  # atno 10763 bound_to 10752
  154.6041  135.5520  153.7408 H   0  0  0  0  0  0  0  0  0  0  0  0  # atno 10764 bound_to 10752
  153.0152  135.6399  154.1896 H   0  0  0  0  0  0  0  0  0  0  0  0  # atno 10765 bound_to 10752
  141.1646  133.7372  156.8940 H   0  0  0  0  0  0  0  0  0  0  0  0  # atno 11005 bound_to 11000
  145.3615  139.1680  143.4381 LP  0  0  0  0  0  0  0  0  0  0  0  0  # atno 17320 bound_to 7965
  146.3109  140.3677  142.8671 LP  0  0  0  0  0  0  0  0  0  0  0  0  # atno 17321 bound_to 7965
  139.5586  144.2212  152.1654 LP  0  0  0  0  0  0  0  0  0  0  0  0  # atno 17342 bound_to 10162
  140.1474  144.5146  150.6708 LP  0  0  0  0  0  0  0  0  0  0  0  0  # atno 17343 bound_to 10162
  155.9696  130.4194  150.4374 LP  0  0  0  0  0  0  0  0  0  0  0  0  # atno 17370 bound_to 10713
  157.2406  131.0524  151.2439 LP  0  0  0  0  0  0  0  0  0  0  0  0  # atno 17371 bound_to 10713
  140.1629  134.9153  157.2737 LP  0  0  0  0  0  0  0  0  0  0  0  0  # atno 17394 bound_to 11000
  140.2590  134.3593  155.7413 LP  0  0  0  0  0  0  0  0  0  0  0  0  # atno 17395 bound_to 11000

$$$$
