AV-unprocessed.smi:2856|AV-procd|sdf|10995|dock5
  -GOLD-   2272015453D 1   1.00000     0.00000
 Structure written by MMmdl.
 37 38  0  0  0  0  0  0  0  0  1 V2000
  146.1747  132.7591  155.4690 C   0  0  0  0  0  0  0  0  0  0  0  0
  146.3367  134.5626  155.3834 S   0  0  0  0  0  0  0  0  0  0  0  0
  145.4203  134.9244  153.8509 C   0  0  2  0  0  0  0  0  0  0  0  0
  145.9072  134.0184  152.7031 C   0  0  0  0  0  0  0  0  0  0  0  0
  145.1257  134.2816  151.4062 C   0  0  0  0  0  0  0  0  0  0  0  0
  145.1980  135.7617  151.0018 C   0  0  0  0  0  0  0  0  0  0  0  0
  144.7135  136.6743  152.1415 C   0  0  0  0  0  0  0  0  0  0  0  0
  145.4797  136.4217  153.4582 C   0  0  2  0  0  0  0  0  0  0  0  0
  146.8652  136.8805  153.3496 N   0  0  0  0  0  0  0  0  0  0  0  0
  147.4214  137.8544  154.0835 C   0  0  0  0  0  0  0  0  0  0  0  0
  146.8105  138.4946  154.9397 O   0  0  0  0  0  0  0  0  0  0  0  0
  148.7134  138.0302  153.7590 N   0  0  0  0  0  0  0  0  0  0  0  0
  149.6261  138.9601  154.3184 C   0  0  0  0  0  0  0  0  0  0  0  0
  149.1623  140.0991  155.0290 C   0  0  0  0  0  0  0  0  0  0  0  0
  150.3203  140.7256  155.3960 C   0  0  0  0  0  0  0  0  0  0  0  0
  150.6001  141.9746  156.1593 C   0  0  0  0  0  0  0  0  0  0  0  0
  151.3991  140.0287  154.9463 O   0  0  0  0  0  0  0  0  0  0  0  0
  150.9475  138.8971  154.2569 N   0  0  0  0  0  0  0  0  0  0  0  0
  146.7517  132.3734  156.3092 H   0  0  0  0  0  0  0  0  0  0  0  0
  146.5471  132.2976  154.5546 H   0  0  0  0  0  0  0  0  0  0  0  0
  145.1340  132.4690  155.6105 H   0  0  0  0  0  0  0  0  0  0  0  0
  144.3786  134.6672  154.0477 H   0  0  0  0  0  0  0  0  0  0  0  0
  146.9716  134.1790  152.5264 H   0  0  0  0  0  0  0  0  0  0  0  0
  145.7992  132.9709  152.9862 H   0  0  0  0  0  0  0  0  0  0  0  0
  145.5176  133.6572  150.6029 H   0  0  0  0  0  0  0  0  0  0  0  0
  144.0833  133.9914  151.5430 H   0  0  0  0  0  0  0  0  0  0  0  0
  146.2234  136.0188  150.7329 H   0  0  0  0  0  0  0  0  0  0  0  0
  144.5949  135.9320  150.1095 H   0  0  0  0  0  0  0  0  0  0  0  0
  144.7991  137.7201  151.8440 H   0  0  0  0  0  0  0  0  0  0  0  0
  143.6505  136.4968  152.3096 H   0  0  0  0  0  0  0  0  0  0  0  0
  144.9881  136.9986  154.2423 H   0  0  0  0  0  0  0  0  0  0  0  0
  147.4442  136.4066  152.6720 H   0  0  0  0  0  0  0  0  0  0  0  0
  149.0847  137.4329  153.0352 H   0  0  0  0  0  0  0  0  0  0  0  0
  148.1487  140.4089  155.2363 H   0  0  0  0  0  0  0  0  0  0  0  0
  149.7095  142.3161  156.6870 H   0  0  0  0  0  0  0  0  0  0  0  0
  150.9229  142.7713  155.4891 H   0  0  0  0  0  0  0  0  0  0  0  0
  151.3871  141.8116  156.8957 H   0  0  0  0  0  0  0  0  0  0  0  0
  1  2  1  0  0  0  0
  1 19  1  0  0  0  0
  1 20  1  0  0  0  0
  1 21  1  0  0  0  0
  2  3  1  0  0  0  0
  3  8  1  0  0  0  0
  3  4  1  0  0  0  0
  3 22  1  0  0  0  0
  4  5  1  0  0  0  0
  4 23  1  0  0  0  0
  4 24  1  0  0  0  0
  5  6  1  0  0  0  0
  5 25  1  0  0  0  0
  5 26  1  0  0  0  0
  6  7  1  0  0  0  0
  6 27  1  0  0  0  0
  6 28  1  0  0  0  0
  7  8  1  0  0  0  0
  7 29  1  0  0  0  0
  7 30  1  0  0  0  0
  8  9  1  0  0  0  0
  8 31  1  0  0  0  0
  9 10  1  0  0  0  0
  9 32  1  0  0  0  0
 10 11  2  0  0  0  0
 10 12  1  0  0  0  0
 12 13  1  0  0  0  0
 12 33  1  0  0  0  0
 13 18  2  0  0  0  0
 13 14  1  0  0  0  0
 14 15  2  0  0  0  0
 14 34  1  0  0  0  0
 15 16  1  0  0  0  0
 15 17  1  0  0  0  0
 16 35  1  0  0  0  0
 16 36  1  0  0  0  0
 16 37  1  0  0  0  0
 17 18  1  0  0  0  0
M  END
> <s_m_source_file>
AV-unprocessed.smi

> <i_m_source_file_index>
2856

> <i_lp_mmshare_version>
43012

> <i_f3d_flags>
0

> <s_epik_input>
W0NIM11TW0NAQEhdMVtDSDJdW0NIMl1bQ0gyXVtDSDJdW0NASF0xW05IXUMoPU8pW05IXWMyW2NIXWMoW0NIM10pb24y

> <s_epik_cmdline>
J2VwaWtfcHl0aG9uJywgJy1waCcsICc3LjAnLCAnLXRuJywgJzgnLCAnLW1hJywgJzIwMCcsICctbWV0YWxfYmluZGluZycsICctaW1hZScsICc8aW5maWxlLm1hZT4nLCAnLW9tYWUnLCAnPG91dGZpbGUubWFlPic=

> <r_lp_tautomer_probability>
1

> <r_epik_Ionization_Penalty>
2.20874e-05

> <r_epik_Ionization_Penalty_Charging>
0

> <r_epik_Ionization_Penalty_Neutral>
2.20874e-05

> <r_epik_State_Penalty>
-0

> <r_epik_Charging_Adjusted_Penalty>
0

> <i_epik_Tot_Q>
0

> <i_epik_Tot_abs_Q>
0

> <r_epik_Metal_State_Penalty>
-0

> <b_epik_Metal_Only>
0

> <s_lp_Force_Field>
OPLS_2005

> <r_lp_Energy>
4.88366

> <b_lp_Chiralities_Consistent>
1

> <s_lp_Variant>
AV-unprocessed.smi:2856-3

> <Gold.Version>
5.8.1

> <Gold.Id.Protein>
6NUR|6NUR_protein|mol2

> <Gold.PLP.Fitness>
30.4736

> <Gold.PLP.PLP>
-22.9759

> <Gold.PLP.part.hbond>
-3.4894

> <Gold.PLP.part.metal>
0.0000

> <Gold.PLP.part.buried>
-2.5544

> <Gold.PLP.part.nonpolar>
-17.7719

> <Gold.PLP.part.repulsive>
0.3060

> <Gold.PLP.ligand.clash>
0.0000

> <Gold.PLP.ligand.torsion>
0.1148

> <Gold.PLP.Chemscore.Hbond>
2.5700

> <Gold.PLP.Chemscore.CHOScore>
0.0000

> <Gold.PLP.Chemscore.Metal>
0.0000

> <Gold.Chemscore.Hbonds>
donor molecule, donor type, donor heavy atom, donor atom, acceptor molecule, acceptor atom, score
      L1  H     9    32       P1  7948  1.00
      L1  H    12    33       P1  7948  1.00
      P1  H  7989  7998       L1    17  0.54

> <Gold.PLP.Chemscore.Internal.Correction>
0.0173

> <Gold.Rescore>
     Score         DG    S(hbond)    S(metal)    S(lipo)     H(rot)  DE(clash)    DE(int)     intcor
     12.78     -14.20       1.95        0.00      45.26       1.21       0.00       1.42       ----

> <Gold.Chemscore.Fitness>
12.7786

> <Gold.Chemscore.DG>
-14.1987

> <Gold.Chemscore.ZeroCoef>
-5.4800

> <Gold.Chemscore.Hbond>
1.9531

> <Gold.Chemscore.Metal>
0.0000

> <Gold.Chemscore.Lipo>
45.2596

> <Gold.Chemscore.Internal_Hbond>
0.0000

> <Gold.Chemscore.DEClash>
0.0030

> <Gold.Chemscore.DEInternal>
1.4171

> <Gold.Chemscore.Rot>
1.2109

> <Gold.Chemscore.Internal.Correction>
   9.000000E+99

> <Gold.Chemscore.Hbonds>
donor molecule, donor type, donor heavy atom, donor atom, acceptor molecule, acceptor atom, score
      L1  H     9    32       P1  7948  0.95
      L1  H    12    33       P1  7948  0.98
      P1  H  7989  7998       L1    17  0.01

> <Gold.Chemscore.Hbond.Weighted>
-6.5233

> <Gold.Chemscore.Metal.Weighted>
-0.0000

> <Gold.Chemscore.Lipo.Weighted>
-5.2954

> <Gold.Chemscore.Internal_Hbond.Weighted>
0.0000

> <Gold.Chemscore.DEClash.Weighted>
0.0030

> <Gold.Chemscore.DEInternal.Weighted>
1.4171

> <Gold.Chemscore.Rot.Weighted>
3.1000

> <Gold.Chemscore.Internal.Correction.Weighted>
   9.000000E+99

> <Gold.Protein.RotatedTorsions>
[ 6907 6896 6895 6894 ] final   31.50 input  -60.11 | X-H torsion
[ 7974 7965 7964 7962 ] final   52.01 input  175.53 | X-H torsion
[ 8008 7997 7996 7995 ] final -170.26 input   59.86 | X-H torsion
[ 10167 10162 10161 10158 ] final   30.92 input  -65.29 | X-H torsion
[ 10718 10713 10712 10709 ] final  147.97 input   66.30 | X-H torsion
[ 10763 10752 10751 10750 ] final  -64.56 input  -60.55 | X-H torsion
[ 11005 11000 10999 10996 ] final   53.04 input  -57.11 | X-H torsion

> <Gold.Protein.ActiveResidues>
 VAL166  LYS551  ARG553  GLY616  TRP617  ASP618  TYR619  PRO620  LYS621  CYS622 
 ASP623  PHE694  ASN695  SER759  ASP760  ASP761  ALA762  ILE779  LEU786  VAL792 
 PHE793  MET794  SER795  GLU796  ALA797  LYS798  CYS799  TRP800  GLU811  SER814 

> <Gold.Protein.RotatedAtoms>
  152.0612  134.9593  160.0574 H   0  0  0  0  0  0  0  0  0  0  0  0  # atno 6907 bound_to 6896
  152.0955  133.4218  159.4571 H   0  0  0  0  0  0  0  0  0  0  0  0  # atno 6908 bound_to 6896
  150.6838  134.2740  159.4643 H   0  0  0  0  0  0  0  0  0  0  0  0  # atno 6909 bound_to 6896
  145.9856  139.4286  143.0105 H   0  0  0  0  0  0  0  0  0  0  0  0  # atno 7974 bound_to 7965
  155.9160  140.1066  157.1243 H   0  0  0  0  0  0  0  0  0  0  0  0  # atno 8008 bound_to 7997
  154.4046  140.1265  156.4683 H   0  0  0  0  0  0  0  0  0  0  0  0  # atno 8009 bound_to 7997
  155.7253  140.3469  155.5037 H   0  0  0  0  0  0  0  0  0  0  0  0  # atno 8010 bound_to 7997
  140.4635  144.0871  150.6218 H   0  0  0  0  0  0  0  0  0  0  0  0  # atno 10167 bound_to 10162
  157.3144  131.0893  151.1290 H   0  0  0  0  0  0  0  0  0  0  0  0  # atno 10718 bound_to 10713
  154.3320  135.6174  153.5555 H   0  0  0  0  0  0  0  0  0  0  0  0  # atno 10763 bound_to 10752
  152.9811  135.5749  154.4951 H   0  0  0  0  0  0  0  0  0  0  0  0  # atno 10764 bound_to 10752
  154.4639  135.2857  155.1669 H   0  0  0  0  0  0  0  0  0  0  0  0  # atno 10765 bound_to 10752
  140.0800  134.5352  155.8957 H   0  0  0  0  0  0  0  0  0  0  0  0  # atno 11005 bound_to 11000
  145.7706  140.9898  143.1151 LP  0  0  0  0  0  0  0  0  0  0  0  0  # atno 17320 bound_to 7965
  144.6874  139.9442  143.7476 LP  0  0  0  0  0  0  0  0  0  0  0  0  # atno 17321 bound_to 7965
  140.4065  143.2678  151.9885 LP  0  0  0  0  0  0  0  0  0  0  0  0  # atno 17342 bound_to 10162
  139.4809  144.5953  151.7702 LP  0  0  0  0  0  0  0  0  0  0  0  0  # atno 17343 bound_to 10162
  157.2600  130.6654  149.5970 LP  0  0  0  0  0  0  0  0  0  0  0  0  # atno 17370 bound_to 10713
  155.9680  130.4511  150.5725 LP  0  0  0  0  0  0  0  0  0  0  0  0  # atno 17371 bound_to 10713
  141.2043  133.6638  156.6114 LP  0  0  0  0  0  0  0  0  0  0  0  0  # atno 17394 bound_to 11000
  140.3502  134.7775  157.4461 LP  0  0  0  0  0  0  0  0  0  0  0  0  # atno 17395 bound_to 11000

$$$$
