AV-unprocessed.smi:1830|AV-procd|sdf|7433|dock6
  -GOLD-   22720 9123D 1   1.00000     0.00000
 Structure written by MMmdl.
 53 56  0  0  0  0  0  0  0  0  2 V2000
  149.3118  135.6616  156.2972 O   0  0  0  0  0  0  0  0  0  0  0  0
  149.1127  135.8448  155.0964 C   0  0  0  0  0  0  0  0  0  0  0  0
  148.8876  137.0513  154.5594 N   0  0  0  0  0  0  0  0  0  0  0  0
  148.8239  138.3009  155.3084 C   0  0  0  0  0  0  0  0  0  0  0  0
  149.6283  139.4256  154.6179 C   0  0  1  0  0  0  0  0  0  0  0  0
  149.4179  140.8099  155.2782 C   0  0  0  0  0  0  0  0  0  0  0  0
  150.1680  140.8583  156.5472 N   0  3  2  0  0  0  0  0  0  0  0  0
  150.1043  142.0947  157.3457 C   0  0  0  0  0  0  0  0  0  0  0  0
  151.3838  142.0764  158.2056 C   0  0  0  0  0  0  0  0  0  0  0  0
  152.2084  140.8779  157.7021 C   0  0  0  0  0  0  0  0  0  0  0  0
  151.5906  140.5804  156.3394 C   0  0  1  0  0  0  0  0  0  0  0  0
  151.7477  139.1653  155.7716 C   0  0  0  0  0  0  0  0  0  0  0  0
  151.0262  139.1035  154.5386 O   0  0  0  0  0  0  0  0  0  0  0  0
  149.0665  134.8823  154.1613 N   0  0  0  0  0  0  0  0  0  0  0  0
  149.1697  133.4759  154.3491 C   0  0  0  0  0  0  0  0  0  0  0  0
  150.0567  132.9214  155.3037 C   0  0  0  0  0  0  0  0  0  0  0  0
  150.1772  131.5246  155.4024 C   0  0  0  0  0  0  0  0  0  0  0  0
  149.4169  130.7289  154.5294 C   0  0  0  0  0  0  0  0  0  0  0  0
  148.5778  131.2414  153.6074 N   0  0  0  0  0  0  0  0  0  0  0  0
  148.4392  132.5866  153.5098 C   0  0  0  0  0  0  0  0  0  0  0  0
  147.5306  133.0678  152.5393 N   0  0  0  0  0  0  0  0  0  0  0  0
  147.0470  132.1896  151.4790 C   0  0  0  0  0  0  0  0  0  0  0  0
  145.8339  132.9075  150.8949 C   0  0  0  0  0  0  0  0  0  0  0  0
  145.2216  133.5669  152.1268 C   0  0  0  0  0  0  0  0  0  0  0  0
  146.4357  133.9209  152.9926 C   0  0  0  0  0  0  0  0  0  0  0  0
  148.7324  137.1061  153.5632 H   0  0  0  0  0  0  0  0  0  0  0  0
  147.7822  138.6036  155.4266 H   0  0  0  0  0  0  0  0  0  0  0  0
  149.1958  138.1137  156.3153 H   0  0  0  0  0  0  0  0  0  0  0  0
  149.2724  139.5011  153.5899 H   0  0  0  0  0  0  0  0  0  0  0  0
  149.7761  141.5992  154.6154 H   0  0  0  0  0  0  0  0  0  0  0  0
  148.3594  140.9992  155.4593 H   0  0  0  0  0  0  0  0  0  0  0  0
  150.1080  142.9648  156.6874 H   0  0  0  0  0  0  0  0  0  0  0  0
  149.1953  142.1268  157.9468 H   0  0  0  0  0  0  0  0  0  0  0  0
  151.9353  143.0086  158.0779 H   0  0  0  0  0  0  0  0  0  0  0  0
  151.1550  141.9728  159.2669 H   0  0  0  0  0  0  0  0  0  0  0  0
  153.2760  141.0922  157.6436 H   0  0  0  0  0  0  0  0  0  0  0  0
  152.0719  140.0276  158.3720 H   0  0  0  0  0  0  0  0  0  0  0  0
  151.9854  141.2998  155.6183 H   0  0  0  0  0  0  0  0  0  0  0  0
  152.7983  138.9479  155.5784 H   0  0  0  0  0  0  0  0  0  0  0  0
  151.3895  138.4098  156.4714 H   0  0  0  0  0  0  0  0  0  0  0  0
  148.8033  135.1748  153.2317 H   0  0  0  0  0  0  0  0  0  0  0  0
  150.6628  133.5447  155.9439 H   0  0  0  0  0  0  0  0  0  0  0  0
  150.8470  131.0753  156.1207 H   0  0  0  0  0  0  0  0  0  0  0  0
  149.4878  129.6519  154.5677 H   0  0  0  0  0  0  0  0  0  0  0  0
  147.8160  132.0142  150.7260 H   0  0  0  0  0  0  0  0  0  0  0  0
  146.7367  131.2258  151.8845 H   0  0  0  0  0  0  0  0  0  0  0  0
  146.1560  133.6702  150.1844 H   0  0  0  0  0  0  0  0  0  0  0  0
  145.1467  132.2331  150.3835 H   0  0  0  0  0  0  0  0  0  0  0  0
  144.6068  134.4342  151.8852 H   0  0  0  0  0  0  0  0  0  0  0  0
  144.5942  132.8457  152.6527 H   0  0  0  0  0  0  0  0  0  0  0  0
  146.2206  133.7843  154.0535 H   0  0  0  0  0  0  0  0  0  0  0  0
  146.7120  134.9635  152.8343 H   0  0  0  0  0  0  0  0  0  0  0  0
  149.8141  140.1184  157.1368 H   0  0  0  0  0  0  0  0  0  0  0  0
  1  2  2  0  0  0  0
  2  3  1  0  0  0  0
  2 14  1  0  0  0  0
  3  4  1  0  0  0  0
  3 26  1  0  0  0  0
  4  5  1  0  0  0  0
  4 27  1  0  0  0  0
  4 28  1  0  0  0  0
  5 13  1  0  0  0  0
  5  6  1  0  0  0  0
  5 29  1  0  0  0  0
  6  7  1  0  0  0  0
  6 30  1  0  0  0  0
  6 31  1  0  0  0  0
  7 11  1  0  0  0  0
  7  8  1  0  0  0  0
  7 53  1  0  0  0  0
  8  9  1  0  0  0  0
  8 32  1  0  0  0  0
  8 33  1  0  0  0  0
  9 10  1  0  0  0  0
  9 34  1  0  0  0  0
  9 35  1  0  0  0  0
 10 11  1  0  0  0  0
 10 36  1  0  0  0  0
 10 37  1  0  0  0  0
 11 12  1  0  0  0  0
 11 38  1  0  0  0  0
 12 13  1  0  0  0  0
 12 39  1  0  0  0  0
 12 40  1  0  0  0  0
 14 15  1  0  0  0  0
 14 41  1  0  0  0  0
 15 20  1  0  0  0  0
 15 16  2  0  0  0  0
 16 17  1  0  0  0  0
 16 42  1  0  0  0  0
 17 18  2  0  0  0  0
 17 43  1  0  0  0  0
 18 19  1  0  0  0  0
 18 44  1  0  0  0  0
 19 20  2  0  0  0  0
 20 21  1  0  0  0  0
 21 25  1  0  0  0  0
 21 22  1  0  0  0  0
 22 23  1  0  0  0  0
 22 45  1  0  0  0  0
 22 46  1  0  0  0  0
 23 24  1  0  0  0  0
 23 47  1  0  0  0  0
 23 48  1  0  0  0  0
 24 25  1  0  0  0  0
 24 49  1  0  0  0  0
 24 50  1  0  0  0  0
 25 51  1  0  0  0  0
 25 52  1  0  0  0  0
M  CHG  1   7   1
M  END
> <s_m_source_file>
AV-unprocessed.smi

> <i_m_source_file_index>
1830

> <i_lp_mmshare_version>
43012

> <i_f3d_flags>
0

> <s_epik_input>
W0NIMl0xW0NIMl1bQ0gyXVtDQEhdKE4xMilbQ0gyXU9bQ0BASF0oW0NIMl0yKVtDSDJdW05IXUMoPU8pW05IXWMzW2NIXVtjSF1bY0hdbmMzTjRbQ0gyXVtDSDJdW0NIMl1bQ0gyXTQ=

> <s_epik_cmdline>
J2VwaWtfcHl0aG9uJywgJy1waCcsICc3LjAnLCAnLXRuJywgJzgnLCAnLW1hJywgJzIwMCcsICctbWV0YWxfYmluZGluZycsICctaW1hZScsICc8aW5maWxlLm1hZT4nLCAnLW9tYWUnLCAnPG91dGZpbGUubWFlPic=

> <r_lp_tautomer_probability>
1

> <r_epik_Ionization_Penalty>
0.193547

> <r_epik_Ionization_Penalty_Charging>
0.10673

> <r_epik_Ionization_Penalty_Neutral>
0.0868166

> <r_epik_State_Penalty>
0.173595

> <r_epik_Charging_Adjusted_Penalty>
0.280326

> <i_epik_Tot_Q>
1

> <i_epik_Tot_abs_Q>
1

> <r_epik_Metal_State_Penalty>
0.164683

> <b_epik_Metal_Only>
0

> <s_lp_Force_Field>
OPLS_2005

> <r_lp_Energy>
66.0686

> <b_lp_Chiralities_Consistent>
1

> <s_lp_Variant>
AV-unprocessed.smi:1830-2

> <Gold.Version>
5.8.1

> <Gold.Id.Protein>
6NUR|6NUR_protein|mol2

> <Gold.PLP.Fitness>
43.5623

> <Gold.PLP.PLP>
-35.7366

> <Gold.PLP.part.hbond>
-3.0000

> <Gold.PLP.part.metal>
0.0000

> <Gold.PLP.part.buried>
-0.4251

> <Gold.PLP.part.nonpolar>
-32.1361

> <Gold.PLP.part.repulsive>
0.5043

> <Gold.PLP.ligand.clash>
0.0000

> <Gold.PLP.ligand.torsion>
0.5696

> <Gold.PLP.Chemscore.Hbond>
2.8800

> <Gold.PLP.Chemscore.CHOScore>
0.0000

> <Gold.PLP.Chemscore.Metal>
0.0000

> <Gold.Chemscore.Hbonds>
donor molecule, donor type, donor heavy atom, donor atom, acceptor molecule, acceptor atom, score
      L1  H     3    26       P1  7948  0.91
      L1  H    14    41       P1  7948  1.00
      P1  H  7989  7998       L1    13  0.64

> <Gold.PLP.Chemscore.Internal.Correction>
0.3250

> <Gold.Rescore>
     Score         DG    S(hbond)    S(metal)    S(lipo)     H(rot)  DE(clash)    DE(int)     intcor
     15.32     -17.78       1.55        0.00      91.55       1.41       0.84       1.62       ----

> <Gold.Chemscore.Fitness>
15.3200

> <Gold.Chemscore.DG>
-17.7835

> <Gold.Chemscore.ZeroCoef>
-5.4800

> <Gold.Chemscore.Hbond>
1.5547

> <Gold.Chemscore.Metal>
0.0000

> <Gold.Chemscore.Lipo>
91.5546

> <Gold.Chemscore.Internal_Hbond>
0.0000

> <Gold.Chemscore.DEClash>
0.8424

> <Gold.Chemscore.DEInternal>
1.6211

> <Gold.Chemscore.Rot>
1.4067

> <Gold.Chemscore.Internal.Correction>
   9.000000E+99

> <Gold.Chemscore.Hbonds>
donor molecule, donor type, donor heavy atom, donor atom, acceptor molecule, acceptor atom, score
      L1  H     3    26       P1  7948  0.89
      L1  H    14    41       P1  7948  0.58
      P1  H  7989  7998       L1    13  0.05

> <Gold.Chemscore.Hbond.Weighted>
-5.1927

> <Gold.Chemscore.Metal.Weighted>
-0.0000

> <Gold.Chemscore.Lipo.Weighted>
-10.7119

> <Gold.Chemscore.Internal_Hbond.Weighted>
0.0000

> <Gold.Chemscore.DEClash.Weighted>
0.8424

> <Gold.Chemscore.DEInternal.Weighted>
1.6211

> <Gold.Chemscore.Rot.Weighted>
3.6011

> <Gold.Chemscore.Internal.Correction.Weighted>
   9.000000E+99

> <Gold.Protein.RotatedTorsions>
[ 6907 6896 6895 6894 ] final -122.22 input  -60.11 | X-H torsion
[ 7974 7965 7964 7962 ] final  -69.13 input  175.53 | X-H torsion
[ 8008 7997 7996 7995 ] final -129.86 input   59.86 | X-H torsion
[ 10167 10162 10161 10158 ] final   90.67 input  -65.29 | X-H torsion
[ 10718 10713 10712 10709 ] final  -11.68 input   66.30 | X-H torsion
[ 10763 10752 10751 10750 ] final  129.86 input  -60.55 | X-H torsion
[ 11005 11000 10999 10996 ] final   56.53 input  -57.11 | X-H torsion

> <Gold.Protein.ActiveResidues>
 VAL166  LYS551  ARG553  GLY616  TRP617  ASP618  TYR619  PRO620  LYS621  CYS622 
 ASP623  PHE694  ASN695  SER759  ASP760  ASP761  ALA762  ILE779  LEU786  VAL792 
 PHE793  MET794  SER795  GLU796  ALA797  LYS798  CYS799  TRP800  GLU811  SER814 

> <Gold.Protein.RotatedAtoms>
  150.8555  133.7721  159.3010 H   0  0  0  0  0  0  0  0  0  0  0  0  # atno 6907 bound_to 6896
  151.5380  135.1067  159.9929 H   0  0  0  0  0  0  0  0  0  0  0  0  # atno 6908 bound_to 6896
  152.4586  133.7732  159.6866 H   0  0  0  0  0  0  0  0  0  0  0  0  # atno 6909 bound_to 6896
  145.7077  140.9091  143.0697 H   0  0  0  0  0  0  0  0  0  0  0  0  # atno 7974 bound_to 7965
  155.2862  140.0446  157.3019 H   0  0  0  0  0  0  0  0  0  0  0  0  # atno 8008 bound_to 7997
  154.5568  140.2334  155.8365 H   0  0  0  0  0  0  0  0  0  0  0  0  # atno 8009 bound_to 7997
  156.2014  140.3024  155.9541 H   0  0  0  0  0  0  0  0  0  0  0  0  # atno 8010 bound_to 7997
  139.8450  144.6622  150.9238 H   0  0  0  0  0  0  0  0  0  0  0  0  # atno 10167 bound_to 10162
  156.6555  130.4967  149.6048 H   0  0  0  0  0  0  0  0  0  0  0  0  # atno 10718 bound_to 10713
  153.7486  135.3213  155.3317 H   0  0  0  0  0  0  0  0  0  0  0  0  # atno 10763 bound_to 10752
  154.8271  135.4562  154.0954 H   0  0  0  0  0  0  0  0  0  0  0  0  # atno 10764 bound_to 10752
  153.2150  135.6941  153.8150 H   0  0  0  0  0  0  0  0  0  0  0  0  # atno 10765 bound_to 10752
  140.0522  134.5721  155.9250 H   0  0  0  0  0  0  0  0  0  0  0  0  # atno 11005 bound_to 11000
  144.6950  139.9033  143.7459 LP  0  0  0  0  0  0  0  0  0  0  0  0  # atno 17320 bound_to 7965
  146.0740  139.3729  143.0505 LP  0  0  0  0  0  0  0  0  0  0  0  0  # atno 17321 bound_to 7965
  140.7794  143.3878  151.1363 LP  0  0  0  0  0  0  0  0  0  0  0  0  # atno 17342 bound_to 10162
  139.7521  143.8762  152.3079 LP  0  0  0  0  0  0  0  0  0  0  0  0  # atno 17343 bound_to 10162
  156.2051  130.6644  151.1210 LP  0  0  0  0  0  0  0  0  0  0  0  0  # atno 17370 bound_to 10713
  157.7127  131.0726  150.6442 LP  0  0  0  0  0  0  0  0  0  0  0  0  # atno 17371 bound_to 10713
  141.1935  133.6579  156.5553 LP  0  0  0  0  0  0  0  0  0  0  0  0  # atno 17394 bound_to 11000
  140.3899  134.7449  157.4715 LP  0  0  0  0  0  0  0  0  0  0  0  0  # atno 17395 bound_to 11000

$$$$
