AV-unprocessed.smi:2377|AV-procd|sdf|9445|dock5
  -GOLD-   2272013 73D 1   1.00000     0.00000
 Structure written by MMmdl.
 24 24  0  0  0  0  0  0  0  0  2 V2000
  146.7307  138.9978  152.6450 C   0  0  0  0  0  0  0  0  0  0  0  0
  148.1738  138.8346  152.9000 N   0  3  0  0  0  0  0  0  0  0  0  0
  148.5712  139.1140  154.2946 C   0  0  0  0  0  0  0  0  0  0  0  0
  148.9793  140.5860  154.4821 C   0  0  2  0  0  0  0  0  0  0  0  0
  149.4035  141.1038  153.2357 O   0  0  0  0  0  0  0  0  0  0  0  0
  150.0548  140.7252  155.5474 C   0  0  0  0  0  0  0  0  0  0  0  0
  151.1968  139.8943  155.5554 C   0  0  0  0  0  0  0  0  0  0  0  0
  152.1553  140.0639  156.5729 C   0  0  0  0  0  0  0  0  0  0  0  0
  151.9318  141.0578  157.5460 C   0  0  0  0  0  0  0  0  0  0  0  0
  150.8425  141.8557  157.5527 N   0  0  0  0  0  0  0  0  0  0  0  0
  149.9291  141.6877  156.5730 C   0  0  0  0  0  0  0  0  0  0  0  0
  146.5090  138.7744  151.6014 H   0  0  0  0  0  0  0  0  0  0  0  0
  146.4141  140.0210  152.8503 H   0  0  0  0  0  0  0  0  0  0  0  0
  146.1479  138.3206  153.2703 H   0  0  0  0  0  0  0  0  0  0  0  0
  148.4351  137.8830  152.6827 H   0  0  0  0  0  0  0  0  0  0  0  0
  147.7280  138.8801  154.9464 H   0  0  0  0  0  0  0  0  0  0  0  0
  149.3899  138.4521  154.5815 H   0  0  0  0  0  0  0  0  0  0  0  0
  148.1082  141.1639  154.7946 H   0  0  0  0  0  0  0  0  0  0  0  0
  149.2892  140.4350  152.5769 H   0  0  0  0  0  0  0  0  0  0  0  0
  151.3380  139.1377  154.7974 H   0  0  0  0  0  0  0  0  0  0  0  0
  153.0410  139.4467  156.6071 H   0  0  0  0  0  0  0  0  0  0  0  0
  152.6457  141.2149  158.3411 H   0  0  0  0  0  0  0  0  0  0  0  0
  149.0701  142.3414  156.6119 H   0  0  0  0  0  0  0  0  0  0  0  0
  148.6834  139.4565  152.2888 H   0  0  0  0  0  0  0  0  0  0  0  0
  1  2  1  0  0  0  0
  1 12  1  0  0  0  0
  1 13  1  0  0  0  0
  1 14  1  0  0  0  0
  2  3  1  0  0  0  0
  2 15  1  0  0  0  0
  2 24  1  0  0  0  0
  3  4  1  0  0  0  0
  3 16  1  0  0  0  0
  3 17  1  0  0  0  0
  4  5  1  0  0  0  0
  4  6  1  0  0  0  0
  4 18  1  0  0  0  0
  5 19  1  0  0  0  0
  6 11  1  0  0  0  0
  6  7  2  0  0  0  0
  7  8  1  0  0  0  0
  7 20  1  0  0  0  0
  8  9  2  0  0  0  0
  8 21  1  0  0  0  0
  9 10  1  0  0  0  0
  9 22  1  0  0  0  0
 10 11  2  0  0  0  0
 11 23  1  0  0  0  0
M  CHG  1   2   1
M  END
> <s_m_source_file>
AV-unprocessed.smi

> <i_m_source_file_index>
2377

> <i_lp_mmshare_version>
43012

> <i_f3d_flags>
0

> <s_epik_input>
W0NIM11bTkhdW0NIMl1bQ0BIXShbT0hdKWMxW2NIXVtjSF1bY0hdbltjSF0x

> <s_epik_cmdline>
J2VwaWtfcHl0aG9uJywgJy1waCcsICc3LjAnLCAnLXRuJywgJzgnLCAnLW1hJywgJzIwMCcsICctbWV0YWxfYmluZGluZycsICctaW1hZScsICc8aW5maWxlLm1hZT4nLCAnLW9tYWUnLCAnPG91dGZpbGUubWFlPic=

> <r_epik_Ionization_Penalty>
0.00990913

> <r_epik_Ionization_Penalty_Charging>
0.00939893

> <r_epik_Ionization_Penalty_Neutral>
0.000510194

> <r_epik_State_Penalty>
0.00713549

> <r_epik_Charging_Adjusted_Penalty>
0.0165344

> <i_epik_Tot_Q>
1

> <i_epik_Tot_abs_Q>
1

> <r_epik_Metal_State_Penalty>
0.00716299

> <b_epik_Metal_Only>
0

> <s_lp_Force_Field>
OPLS_2005

> <r_lp_Energy>
6.48909

> <b_lp_Chiralities_Consistent>
1

> <s_lp_Variant>
AV-unprocessed.smi:2377-1

> <Gold.Version>
5.8.1

> <Gold.Id.Protein>
6NUR|6NUR_protein|mol2

> <Gold.PLP.Fitness>
39.0238

> <Gold.PLP.PLP>
-23.4494

> <Gold.PLP.part.hbond>
-4.3258

> <Gold.PLP.part.metal>
0.0000

> <Gold.PLP.part.buried>
-2.8607

> <Gold.PLP.part.nonpolar>
-16.7335

> <Gold.PLP.part.repulsive>
0.1322

> <Gold.PLP.ligand.clash>
0.0000

> <Gold.PLP.ligand.torsion>
0.9448

> <Gold.PLP.Chemscore.Hbond>
4.9306

> <Gold.PLP.Chemscore.CHOScore>
0.8873

> <Gold.PLP.Chemscore.Metal>
0.0000

> <Gold.Chemscore.Hbonds>
donor molecule, donor type, donor heavy atom, donor atom, acceptor molecule, acceptor atom, score
      L1  H     2    15       P1  7948  2.00
      L1  H     2    24       P1  7957  1.00
      L1  H     5    19       P1  7957  0.82
      P1  H  7989  7998       L1     5  0.06
      P1  H  8011  8017       L1     5  1.00
      L1  C    11    23       P1  8028  0.87

> <Gold.PLP.Chemscore.Internal.Correction>
0.0105

> <Gold.Rescore>
     Score         DG    S(hbond)    S(metal)    S(lipo)     H(rot)  DE(clash)    DE(int)     intcor
     16.94     -17.50       3.31        0.00      52.89       2.03       0.01       0.55       ----

> <Gold.Chemscore.Fitness>
16.9420

> <Gold.Chemscore.DG>
-17.5034

> <Gold.Chemscore.ZeroCoef>
-5.4800

> <Gold.Chemscore.Hbond>
3.3063

> <Gold.Chemscore.Metal>
0.0000

> <Gold.Chemscore.Lipo>
52.8923

> <Gold.Chemscore.Internal_Hbond>
0.0000

> <Gold.Chemscore.DEClash>
0.0149

> <Gold.Chemscore.DEInternal>
0.5466

> <Gold.Chemscore.Rot>
2.0344

> <Gold.Chemscore.Internal.Correction>
   9.000000E+99

> <Gold.Chemscore.Hbonds>
donor molecule, donor type, donor heavy atom, donor atom, acceptor molecule, acceptor atom, score
      L1  H     2    15       P1  7948  1.00
      L1  H     2    24       P1  7957  0.96
      L1  H     5    19       P1  7957  0.77
      P1  H  8011  8017       L1     5  0.34

> <Gold.Chemscore.Hbond.Weighted>
-11.0430

> <Gold.Chemscore.Metal.Weighted>
-0.0000

> <Gold.Chemscore.Lipo.Weighted>
-6.1884

> <Gold.Chemscore.Internal_Hbond.Weighted>
0.0000

> <Gold.Chemscore.DEClash.Weighted>
0.0149

> <Gold.Chemscore.DEInternal.Weighted>
0.5466

> <Gold.Chemscore.Rot.Weighted>
5.2080

> <Gold.Chemscore.Internal.Correction.Weighted>
   9.000000E+99

> <Gold.Protein.RotatedTorsions>
[ 6907 6896 6895 6894 ] final  -30.18 input  -60.11 | X-H torsion
[ 7974 7965 7964 7962 ] final   94.20 input  175.53 | X-H torsion
[ 8008 7997 7996 7995 ] final  -51.55 input   59.86 | X-H torsion
[ 10167 10162 10161 10158 ] final   78.41 input  -65.29 | X-H torsion
[ 10718 10713 10712 10709 ] final -169.52 input   66.30 | X-H torsion
[ 10763 10752 10751 10750 ] final -161.59 input  -60.55 | X-H torsion
[ 11005 11000 10999 10996 ] final   75.79 input  -57.11 | X-H torsion

> <Gold.Protein.ActiveResidues>
 VAL166  LYS551  ARG553  GLY616  TRP617  ASP618  TYR619  PRO620  LYS621  CYS622 
 ASP623  PHE694  ASN695  SER759  ASP760  ASP761  ALA762  ILE779  LEU786  VAL792 
 PHE793  MET794  SER795  GLU796  ALA797  LYS798  CYS799  TRP800  GLU811  SER814 

> <Gold.Protein.RotatedAtoms>
  151.1090  135.0016  159.8484 H   0  0  0  0  0  0  0  0  0  0  0  0  # atno 6907 bound_to 6896
  152.5442  134.1858  159.8664 H   0  0  0  0  0  0  0  0  0  0  0  0  # atno 6908 bound_to 6896
  151.1907  133.4624  159.2628 H   0  0  0  0  0  0  0  0  0  0  0  0  # atno 6909 bound_to 6896
  145.4687  139.2283  143.2947 H   0  0  0  0  0  0  0  0  0  0  0  0  # atno 7974 bound_to 7965
  154.4085  140.1245  156.4847 H   0  0  0  0  0  0  0  0  0  0  0  0  # atno 8008 bound_to 7997
  155.7050  140.3494  155.4929 H   0  0  0  0  0  0  0  0  0  0  0  0  # atno 8009 bound_to 7997
  155.9351  140.1077  157.1091 H   0  0  0  0  0  0  0  0  0  0  0  0  # atno 8010 bound_to 7997
  139.9712  144.5893  150.7984 H   0  0  0  0  0  0  0  0  0  0  0  0  # atno 10167 bound_to 10162
  156.7127  130.9240  151.3090 H   0  0  0  0  0  0  0  0  0  0  0  0  # atno 10718 bound_to 10713
  154.7290  135.3042  154.8923 H   0  0  0  0  0  0  0  0  0  0  0  0  # atno 10763 bound_to 10752
  153.9771  135.6735  153.4753 H   0  0  0  0  0  0  0  0  0  0  0  0  # atno 10764 bound_to 10752
  153.0901  135.4964  154.8594 H   0  0  0  0  0  0  0  0  0  0  0  0  # atno 10765 bound_to 10752
  139.9327  134.7547  156.1315 H   0  0  0  0  0  0  0  0  0  0  0  0  # atno 11005 bound_to 11000
  146.2409  140.5463  142.8934 LP  0  0  0  0  0  0  0  0  0  0  0  0  # atno 17320 bound_to 7965
  144.7958  140.6120  143.6511 LP  0  0  0  0  0  0  0  0  0  0  0  0  # atno 17321 bound_to 7965
  140.7521  143.2985  151.3143 LP  0  0  0  0  0  0  0  0  0  0  0  0  # atno 17342 bound_to 10162
  139.6480  144.0415  152.2605 LP  0  0  0  0  0  0  0  0  0  0  0  0  # atno 17343 bound_to 10162
  157.6929  130.9252  150.0565 LP  0  0  0  0  0  0  0  0  0  0  0  0  # atno 17370 bound_to 10713
  156.1649  130.3645  149.9246 LP  0  0  0  0  0  0  0  0  0  0  0  0  # atno 17371 bound_to 10713
  141.0925  133.6708  156.2572 LP  0  0  0  0  0  0  0  0  0  0  0  0  # atno 17394 bound_to 11000
  140.6157  134.5413  157.5540 LP  0  0  0  0  0  0  0  0  0  0  0  0  # atno 17395 bound_to 11000

$$$$
