AV-unprocessed.smi:3095|AV-procd|sdf|11794|dock6
  -GOLD-   2272017173D 1   1.00000     0.00000
 Structure written by MMmdl.
 24 25  0  0  0  0  0  0  0  0  1 V2000
  153.0691  141.8403  161.0492 C   0  0  0  0  0  0  0  0  0  0  0  0
  152.4919  142.1979  159.7157 C   0  0  0  0  0  0  0  0  0  0  0  0
  151.8706  143.3728  159.3730 C   0  0  0  0  0  0  0  0  0  0  0  0
  151.3429  143.3676  157.7129 S   0  0  0  0  0  0  0  0  0  0  0  0
  152.0111  141.7488  157.5350 C   0  0  0  0  0  0  0  0  0  0  0  0
  151.9084  140.9664  156.2644 C   0  0  2  0  0  0  0  0  0  0  0  0
  150.4490  140.7936  155.8011 C   0  0  0  0  0  0  0  0  0  0  0  0
  150.3945  139.9607  154.6008 N   0  0  0  0  0  0  0  0  0  0  0  0
  151.0575  138.6759  154.8195 C   0  0  0  0  0  0  0  0  0  0  0  0
  152.4988  138.8938  155.3146 C   0  0  0  0  0  0  0  0  0  0  0  0
  152.4842  139.6834  156.4995 O   0  0  0  0  0  0  0  0  0  0  0  0
  152.5558  141.2805  158.6630 N   0  0  0  0  0  0  0  0  0  0  0  0
  152.8856  142.6229  161.7860 H   0  0  0  0  0  0  0  0  0  0  0  0
  154.1476  141.6945  160.9847 H   0  0  0  0  0  0  0  0  0  0  0  0
  152.6322  140.9182  161.4330 H   0  0  0  0  0  0  0  0  0  0  0  0
  151.6890  144.2372  159.9944 H   0  0  0  0  0  0  0  0  0  0  0  0
  152.4868  141.4886  155.5000 H   0  0  0  0  0  0  0  0  0  0  0  0
  149.8618  140.3329  156.5967 H   0  0  0  0  0  0  0  0  0  0  0  0
  149.9996  141.7667  155.6022 H   0  0  0  0  0  0  0  0  0  0  0  0
  149.4262  139.8037  154.3397 H   0  0  0  0  0  0  0  0  0  0  0  0
  150.5026  138.0927  155.5553 H   0  0  0  0  0  0  0  0  0  0  0  0
  151.0612  138.0948  153.8973 H   0  0  0  0  0  0  0  0  0  0  0  0
  152.9676  137.9350  155.5362 H   0  0  0  0  0  0  0  0  0  0  0  0
  153.1073  139.3753  154.5471 H   0  0  0  0  0  0  0  0  0  0  0  0
  1  2  1  0  0  0  0
  1 13  1  0  0  0  0
  1 14  1  0  0  0  0
  1 15  1  0  0  0  0
  2 12  1  0  0  0  0
  2  3  2  0  0  0  0
  3  4  1  0  0  0  0
  3 16  1  0  0  0  0
  4  5  1  0  0  0  0
  5  6  1  0  0  0  0
  5 12  2  0  0  0  0
  6 11  1  0  0  0  0
  6  7  1  0  0  0  0
  6 17  1  0  0  0  0
  7  8  1  0  0  0  0
  7 18  1  0  0  0  0
  7 19  1  0  0  0  0
  8  9  1  0  0  0  0
  8 20  1  0  0  0  0
  9 10  1  0  0  0  0
  9 21  1  0  0  0  0
  9 22  1  0  0  0  0
 10 11  1  0  0  0  0
 10 23  1  0  0  0  0
 10 24  1  0  0  0  0
M  END
> <s_m_source_file>
AV-unprocessed.smi

> <i_m_source_file_index>
3095

> <i_lp_mmshare_version>
43012

> <i_f3d_flags>
0

> <s_epik_input>
W0NIM11jMVtjSF1zYyhuMSlbQ0BASF0yW0NIMl1bTkhdW0NIMl1bQ0gyXU8y

> <s_epik_cmdline>
J2VwaWtfcHl0aG9uJywgJy1waCcsICc3LjAnLCAnLXRuJywgJzgnLCAnLW1hJywgJzIwMCcsICctbWV0YWxfYmluZGluZycsICctaW1hZScsICc8aW5maWxlLm1hZT4nLCAnLW9tYWUnLCAnPG91dGZpbGUubWFlPic=

> <r_epik_Ionization_Penalty>
0.982843

> <r_epik_Ionization_Penalty_Charging>
0

> <r_epik_Ionization_Penalty_Neutral>
0.982843

> <r_epik_State_Penalty>
2.16535

> <r_epik_Charging_Adjusted_Penalty>
2.16535

> <i_epik_Tot_Q>
0

> <i_epik_Tot_abs_Q>
0

> <r_epik_Metal_State_Penalty>
2.16288

> <b_epik_Metal_Only>
0

> <s_lp_Force_Field>
OPLS_2005

> <r_lp_Energy>
7.28811

> <b_lp_Chiralities_Consistent>
1

> <s_lp_Variant>
AV-unprocessed.smi:3095-3

> <Gold.Version>
5.8.1

> <Gold.Id.Protein>
6NUR|6NUR_protein|mol2

> <Gold.PLP.Fitness>
31.2834

> <Gold.PLP.PLP>
-25.2974

> <Gold.PLP.part.hbond>
-2.0000

> <Gold.PLP.part.metal>
0.0000

> <Gold.PLP.part.buried>
-4.4632

> <Gold.PLP.part.nonpolar>
-18.4688

> <Gold.PLP.part.repulsive>
0.0000

> <Gold.PLP.ligand.clash>
0.0000

> <Gold.PLP.ligand.torsion>
0.0125

> <Gold.PLP.Chemscore.Hbond>
2.0000

> <Gold.PLP.Chemscore.CHOScore>
0.0000

> <Gold.PLP.Chemscore.Metal>
0.0000

> <Gold.Chemscore.Hbonds>
donor molecule, donor type, donor heavy atom, donor atom, acceptor molecule, acceptor atom, score
      P1  H  7989  7998       L1     8  1.00
      P1  H  7997  8008       L1    11  0.90

> <Gold.PLP.Chemscore.Internal.Correction>
0.0110

> <Gold.Rescore>
     Score         DG    S(hbond)    S(metal)    S(lipo)     H(rot)  DE(clash)    DE(int)     intcor
     11.97     -12.00       0.00        0.00      77.56       1.00       0.02       0.01       ----

> <Gold.Chemscore.Fitness>
11.9707

> <Gold.Chemscore.DG>
-11.9959

> <Gold.Chemscore.ZeroCoef>
-5.4800

> <Gold.Chemscore.Hbond>
0.0003

> <Gold.Chemscore.Metal>
0.0000

> <Gold.Chemscore.Lipo>
77.5621

> <Gold.Chemscore.Internal_Hbond>
0.0000

> <Gold.Chemscore.DEClash>
0.0174

> <Gold.Chemscore.DEInternal>
0.0078

> <Gold.Chemscore.Rot>
1.0000

> <Gold.Chemscore.Internal.Correction>
   9.000000E+99

> <Gold.Chemscore.Hbonds>
donor molecule, donor type, donor heavy atom, donor atom, acceptor molecule, acceptor atom, score
      P1  H  7989  7998       L1     8  0.12
      P1  H  7997  8008       L1    11  0.06

> <Gold.Chemscore.Hbond.Weighted>
-0.0011

> <Gold.Chemscore.Metal.Weighted>
-0.0000

> <Gold.Chemscore.Lipo.Weighted>
-9.0748

> <Gold.Chemscore.Internal_Hbond.Weighted>
0.0000

> <Gold.Chemscore.DEClash.Weighted>
0.0174

> <Gold.Chemscore.DEInternal.Weighted>
0.0078

> <Gold.Chemscore.Rot.Weighted>
2.5600

> <Gold.Chemscore.Internal.Correction.Weighted>
   9.000000E+99

> <Gold.Protein.RotatedTorsions>
[ 6907 6896 6895 6894 ] final  137.92 input  -60.11 | X-H torsion
[ 7974 7965 7964 7962 ] final   32.48 input  175.53 | X-H torsion
[ 8008 7997 7996 7995 ] final  -56.84 input   59.86 | X-H torsion
[ 10167 10162 10161 10158 ] final  136.49 input  -65.29 | X-H torsion
[ 10718 10713 10712 10709 ] final -145.06 input   66.30 | X-H torsion
[ 10763 10752 10751 10750 ] final -150.34 input  -60.55 | X-H torsion
[ 11005 11000 10999 10996 ] final  126.50 input  -57.11 | X-H torsion

> <Gold.Protein.ActiveResidues>
 VAL166  LYS551  ARG553  GLY616  TRP617  ASP618  TYR619  PRO620  LYS621  CYS622 
 ASP623  PHE694  ASN695  SER759  ASP760  ASP761  ALA762  ILE779  LEU786  VAL792 
 PHE793  MET794  SER795  GLU796  ALA797  LYS798  CYS799  TRP800  GLU811  SER814 

> <Gold.Protein.RotatedAtoms>
  152.2725  133.5396  159.5447 H   0  0  0  0  0  0  0  0  0  0  0  0  # atno 6907 bound_to 6896
  150.7165  134.0677  159.3862 H   0  0  0  0  0  0  0  0  0  0  0  0  # atno 6908 bound_to 6896
  151.8591  135.0530  160.0518 H   0  0  0  0  0  0  0  0  0  0  0  0  # atno 6909 bound_to 6896
  146.1484  139.6521  142.9116 H   0  0  0  0  0  0  0  0  0  0  0  0  # atno 7974 bound_to 7965
  154.4245  140.1120  156.5702 H   0  0  0  0  0  0  0  0  0  0  0  0  # atno 8008 bound_to 7997
  155.6220  140.3495  155.4636 H   0  0  0  0  0  0  0  0  0  0  0  0  # atno 8009 bound_to 7997
  156.0017  140.1200  157.0531 H   0  0  0  0  0  0  0  0  0  0  0  0  # atno 8010 bound_to 7997
  139.5178  144.6461  151.5434 H   0  0  0  0  0  0  0  0  0  0  0  0  # atno 10167 bound_to 10162
  156.3777  130.7821  151.2009 H   0  0  0  0  0  0  0  0  0  0  0  0  # atno 10718 bound_to 10713
  154.8124  135.3287  154.7268 H   0  0  0  0  0  0  0  0  0  0  0  0  # atno 10763 bound_to 10752
  153.7914  135.6910  153.4875 H   0  0  0  0  0  0  0  0  0  0  0  0  # atno 10764 bound_to 10752
  153.1914  135.4549  155.0100 H   0  0  0  0  0  0  0  0  0  0  0  0  # atno 10765 bound_to 10752
  139.9459  134.9629  156.8717 H   0  0  0  0  0  0  0  0  0  0  0  0  # atno 11005 bound_to 11000
  145.4883  141.0438  143.2607 LP  0  0  0  0  0  0  0  0  0  0  0  0  # atno 17320 bound_to 7965
  144.7873  139.6399  143.7128 LP  0  0  0  0  0  0  0  0  0  0  0  0  # atno 17321 bound_to 7965
  140.6247  143.9191  150.6555 LP  0  0  0  0  0  0  0  0  0  0  0  0  # atno 17342 bound_to 10162
  140.2476  143.3617  152.1433 LP  0  0  0  0  0  0  0  0  0  0  0  0  # atno 17343 bound_to 10162
  157.7490  131.0353  150.4358 LP  0  0  0  0  0  0  0  0  0  0  0  0  # atno 17370 bound_to 10713
  156.4596  130.4029  149.6584 LP  0  0  0  0  0  0  0  0  0  0  0  0  # atno 17371 bound_to 10713
  140.5835  134.0329  155.7473 LP  0  0  0  0  0  0  0  0  0  0  0  0  # atno 17394 bound_to 11000
  141.1110  133.9617  157.2911 LP  0  0  0  0  0  0  0  0  0  0  0  0  # atno 17395 bound_to 11000

$$$$
