AV-unprocessed.smi:2567|AV-procd|sdf|10076|dock1
  -GOLD-   2272014103D 1   1.00000     0.00000
 Structure written by MMmdl.
 34 35  0  0  0  0  0  0  0  0  2 V2000
  150.3726  144.5238  159.9639 C   0  0  0  0  0  0  0  0  0  0  0  0
  151.6451  144.0094  159.2626 C   0  0  0  0  0  0  0  0  0  0  0  0
  152.2319  145.1196  158.3700 C   0  0  0  0  0  0  0  0  0  0  0  0
  152.6848  143.6658  160.3527 C   0  0  0  0  0  0  0  0  0  0  0  0
  151.3060  142.8060  158.4153 C   0  0  0  0  0  0  0  0  0  0  0  0
  150.3411  142.8021  157.4886 N   0  0  0  0  0  0  0  0  0  0  0  0
  150.2640  141.5825  156.9164 N   0  0  0  0  0  0  0  0  0  0  0  0
  151.2283  140.9185  157.5497 C   0  0  0  0  0  0  0  0  0  0  0  0
  151.4810  139.4716  157.2611 C   0  0  2  0  0  0  0  0  0  0  0  0
  151.2482  138.5832  158.4978 C   0  0  0  0  0  0  0  0  0  0  0  0
  151.6097  137.1864  158.1872 N   0  3  0  0  0  0  0  0  0  0  0  0
  152.9918  137.0869  157.6775 C   0  0  0  0  0  0  0  0  0  0  0  0
  153.1829  138.0277  156.4745 C   0  0  0  0  0  0  0  0  0  0  0  0
  152.8405  139.3594  156.8446 O   0  0  0  0  0  0  0  0  0  0  0  0
  151.9010  141.6190  158.5127 N   0  0  0  0  0  0  0  0  0  0  0  0
  150.5865  145.3896  160.5917 H   0  0  0  0  0  0  0  0  0  0  0  0
  149.9336  143.7557  160.6018 H   0  0  0  0  0  0  0  0  0  0  0  0
  149.6118  144.8259  159.2433 H   0  0  0  0  0  0  0  0  0  0  0  0
  151.5221  145.4345  157.6040 H   0  0  0  0  0  0  0  0  0  0  0  0
  153.1354  144.7820  157.8609 H   0  0  0  0  0  0  0  0  0  0  0  0
  152.4938  146.0030  158.9535 H   0  0  0  0  0  0  0  0  0  0  0  0
  152.9187  144.5373  160.9654 H   0  0  0  0  0  0  0  0  0  0  0  0
  153.6226  143.3172  159.9181 H   0  0  0  0  0  0  0  0  0  0  0  0
  152.3193  142.8878  161.0243 H   0  0  0  0  0  0  0  0  0  0  0  0
  150.8284  139.1580  156.4439 H   0  0  0  0  0  0  0  0  0  0  0  0
  151.8545  138.9296  159.3362 H   0  0  0  0  0  0  0  0  0  0  0  0
  150.2056  138.6257  158.8141 H   0  0  0  0  0  0  0  0  0  0  0  0
  151.5156  136.6214  159.0192 H   0  0  0  0  0  0  0  0  0  0  0  0
  153.6877  137.3498  158.4751 H   0  0  0  0  0  0  0  0  0  0  0  0
  153.2000  136.0547  157.3955 H   0  0  0  0  0  0  0  0  0  0  0  0
  154.2214  138.0090  156.1436 H   0  0  0  0  0  0  0  0  0  0  0  0
  152.5736  137.7064  155.6282 H   0  0  0  0  0  0  0  0  0  0  0  0
  150.9781  136.8390  157.4796 H   0  0  0  0  0  0  0  0  0  0  0  0
  149.7373  143.5704  157.2321 H   0  0  0  0  0  0  0  0  0  0  0  0
  1  2  1  0  0  0  0
  1 16  1  0  0  0  0
  1 17  1  0  0  0  0
  1 18  1  0  0  0  0
  2  3  1  0  0  0  0
  2  4  1  0  0  0  0
  2  5  1  0  0  0  0
  3 19  1  0  0  0  0
  3 20  1  0  0  0  0
  3 21  1  0  0  0  0
  4 22  1  0  0  0  0
  4 23  1  0  0  0  0
  4 24  1  0  0  0  0
  5 15  2  0  0  0  0
  5  6  1  0  0  0  0
  6  7  1  0  0  0  0
  6 34  1  0  0  0  0
  7  8  2  0  0  0  0
  8  9  1  0  0  0  0
  8 15  1  0  0  0  0
  9 14  1  0  0  0  0
  9 10  1  0  0  0  0
  9 25  1  0  0  0  0
 10 11  1  0  0  0  0
 10 26  1  0  0  0  0
 10 27  1  0  0  0  0
 11 12  1  0  0  0  0
 11 28  1  0  0  0  0
 11 33  1  0  0  0  0
 12 13  1  0  0  0  0
 12 29  1  0  0  0  0
 12 30  1  0  0  0  0
 13 14  1  0  0  0  0
 13 31  1  0  0  0  0
 13 32  1  0  0  0  0
M  CHG  1  11   1
M  END
> <s_m_source_file>
AV-unprocessed.smi

> <i_m_source_file_index>
2567

> <i_lp_mmshare_version>
43012

> <i_f3d_flags>
0

> <s_epik_input>
W0NIM11DKFtDSDNdKShbQ0gzXSljMW5bbkhdYyhuMSlbQ0BASF0yW0NIMl1bTkhdW0NIMl1bQ0gyXU8y

> <s_epik_cmdline>
J2VwaWtfcHl0aG9uJywgJy1waCcsICc3LjAnLCAnLXRuJywgJzgnLCAnLW1hJywgJzIwMCcsICctbWV0YWxfYmluZGluZycsICctaW1hZScsICc8aW5maWxlLm1hZT4nLCAnLW9tYWUnLCAnPG91dGZpbGUubWFlPic=

> <r_lp_tautomer_probability>
0.948284

> <r_epik_Ionization_Penalty>
0.108767

> <r_epik_Ionization_Penalty_Charging>
0.100865

> <r_epik_Ionization_Penalty_Neutral>
0.00790271

> <r_epik_State_Penalty>
0.197684

> <r_epik_Charging_Adjusted_Penalty>
0.298549

> <i_epik_Tot_Q>
1

> <i_epik_Tot_abs_Q>
1

> <r_epik_Metal_State_Penalty>
0.508163

> <b_epik_Metal_Only>
0

> <s_lp_Force_Field>
OPLS_2005

> <r_lp_Energy>
13.5153

> <b_lp_Chiralities_Consistent>
1

> <s_lp_Variant>
AV-unprocessed.smi:2567-1

> <Gold.Version>
5.8.1

> <Gold.Id.Protein>
6NUR|6NUR_protein|mol2

> <Gold.PLP.Fitness>
31.9465

> <Gold.PLP.PLP>
-26.1449

> <Gold.PLP.part.hbond>
-2.0000

> <Gold.PLP.part.metal>
0.0000

> <Gold.PLP.part.buried>
-5.7888

> <Gold.PLP.part.nonpolar>
-18.7694

> <Gold.PLP.part.repulsive>
0.1841

> <Gold.PLP.ligand.clash>
0.0000

> <Gold.PLP.ligand.torsion>
0.1086

> <Gold.PLP.Chemscore.Hbond>
2.0000

> <Gold.PLP.Chemscore.CHOScore>
0.0000

> <Gold.PLP.Chemscore.Metal>
0.0000

> <Gold.Chemscore.Hbonds>
donor molecule, donor type, donor heavy atom, donor atom, acceptor molecule, acceptor atom, score
      L1  H     6    34       P1  8028  0.76
      P1  H  7997  8008       L1    14  0.90

> <Gold.PLP.Chemscore.Internal.Correction>
0.0188

> <Gold.Rescore>
     Score         DG    S(hbond)    S(metal)    S(lipo)     H(rot)  DE(clash)    DE(int)     intcor
     15.48     -15.57       1.69        0.00      65.52       1.26       0.07       0.01       ----

> <Gold.Chemscore.Fitness>
15.4823

> <Gold.Chemscore.DG>
-15.5678

> <Gold.Chemscore.ZeroCoef>
-5.4800

> <Gold.Chemscore.Hbond>
1.6943

> <Gold.Chemscore.Metal>
0.0000

> <Gold.Chemscore.Lipo>
65.5239

> <Gold.Chemscore.Internal_Hbond>
0.0000

> <Gold.Chemscore.DEClash>
0.0727

> <Gold.Chemscore.DEInternal>
0.0128

> <Gold.Chemscore.Rot>
1.2647

> <Gold.Chemscore.Internal.Correction>
   9.000000E+99

> <Gold.Chemscore.Hbonds>
donor molecule, donor type, donor heavy atom, donor atom, acceptor molecule, acceptor atom, score
      L1  H     6    34       P1  8028  0.66
      P1  H  7997  8008       L1    14  0.18

> <Gold.Chemscore.Hbond.Weighted>
-5.6591

> <Gold.Chemscore.Metal.Weighted>
-0.0000

> <Gold.Chemscore.Lipo.Weighted>
-7.6663

> <Gold.Chemscore.Internal_Hbond.Weighted>
0.0000

> <Gold.Chemscore.DEClash.Weighted>
0.0727

> <Gold.Chemscore.DEInternal.Weighted>
0.0128

> <Gold.Chemscore.Rot.Weighted>
3.2375

> <Gold.Chemscore.Internal.Correction.Weighted>
   9.000000E+99

> <Gold.Protein.RotatedTorsions>
[ 6907 6896 6895 6894 ] final -135.47 input  -60.11 | X-H torsion
[ 7974 7965 7964 7962 ] final   84.78 input  175.53 | X-H torsion
[ 8008 7997 7996 7995 ] final  -56.83 input   59.86 | X-H torsion
[ 10167 10162 10161 10158 ] final   95.62 input  -65.29 | X-H torsion
[ 10718 10713 10712 10709 ] final  169.29 input   66.30 | X-H torsion
[ 10763 10752 10751 10750 ] final   87.57 input  -60.55 | X-H torsion
[ 11005 11000 10999 10996 ] final  102.10 input  -57.11 | X-H torsion

> <Gold.Protein.ActiveResidues>
 VAL166  LYS551  ARG553  GLY616  TRP617  ASP618  TYR619  PRO620  LYS621  CYS622 
 ASP623  PHE694  ASN695  SER759  ASP760  ASP761  ALA762  ILE779  LEU786  VAL792 
 PHE793  MET794  SER795  GLU796  ALA797  LYS798  CYS799  TRP800  GLU811  SER814 

> <Gold.Protein.RotatedAtoms>
  150.9983  133.6081  159.2698 H   0  0  0  0  0  0  0  0  0  0  0  0  # atno 6907 bound_to 6896
  151.3277  135.0833  159.9337 H   0  0  0  0  0  0  0  0  0  0  0  0  # atno 6908 bound_to 6896
  152.5266  133.9618  159.7775 H   0  0  0  0  0  0  0  0  0  0  0  0  # atno 6909 bound_to 6896
  145.5942  139.2342  143.2282 H   0  0  0  0  0  0  0  0  0  0  0  0  # atno 7974 bound_to 7965
  154.4244  140.1121  156.5700 H   0  0  0  0  0  0  0  0  0  0  0  0  # atno 8008 bound_to 7997
  155.6222  140.3495  155.4637 H   0  0  0  0  0  0  0  0  0  0  0  0  # atno 8009 bound_to 7997
  156.0015  140.1200  157.0532 H   0  0  0  0  0  0  0  0  0  0  0  0  # atno 8010 bound_to 7997
  139.7972  144.6828  150.9813 H   0  0  0  0  0  0  0  0  0  0  0  0  # atno 10167 bound_to 10162
  157.0247  131.0242  151.2763 H   0  0  0  0  0  0  0  0  0  0  0  0  # atno 10718 bound_to 10713
  153.1681  135.4539  154.9865 H   0  0  0  0  0  0  0  0  0  0  0  0  # atno 10763 bound_to 10752
  154.7946  135.3233  154.7699 H   0  0  0  0  0  0  0  0  0  0  0  0  # atno 10764 bound_to 10752
  153.8179  135.6949  153.4886 H   0  0  0  0  0  0  0  0  0  0  0  0  # atno 10765 bound_to 10752
  139.8776  134.9210  156.5007 H   0  0  0  0  0  0  0  0  0  0  0  0  # atno 11005 bound_to 11000
  146.1624  140.6767  142.9271 LP  0  0  0  0  0  0  0  0  0  0  0  0  # atno 17320 bound_to 7965
  144.7338  140.4749  143.6918 LP  0  0  0  0  0  0  0  0  0  0  0  0  # atno 17321 bound_to 7965
  140.7820  143.4319  151.0681 LP  0  0  0  0  0  0  0  0  0  0  0  0  # atno 17342 bound_to 10162
  139.7993  143.8106  152.3161 LP  0  0  0  0  0  0  0  0  0  0  0  0  # atno 17343 bound_to 10162
  157.5223  130.8006  149.7823 LP  0  0  0  0  0  0  0  0  0  0  0  0  # atno 17370 bound_to 10713
  156.0090  130.3842  150.2330 LP  0  0  0  0  0  0  0  0  0  0  0  0  # atno 17371 bound_to 10713
  140.8592  133.8073  155.9247 LP  0  0  0  0  0  0  0  0  0  0  0  0  # atno 17394 bound_to 11000
  140.9067  134.2312  157.5010 LP  0  0  0  0  0  0  0  0  0  0  0  0  # atno 17395 bound_to 11000

$$$$
