AV-unprocessed.smi:70|AV-procd|sdf|660|dock1
  -GOLD-   2262016563D 1   1.00000     0.00000
 Structure written by MMmdl.
 25 26  0  0  0  0  0  0  0  0  2 V2000
  149.3449  141.1495  153.2942 O   0  0  0  0  0  0  0  0  0  0  0  0
  148.9242  140.4297  154.4408 C   0  0  2  0  0  0  0  0  0  0  0  0
  149.4603  138.9816  154.3504 C   0  0  0  0  0  0  0  0  0  0  0  0
  150.9118  138.8997  154.3798 N   0  0  0  0  0  0  0  0  0  0  0  0
  151.7186  137.8296  154.0502 C   0  0  0  0  0  0  0  0  0  0  0  0
  152.9809  138.3048  154.2639 C   0  0  0  0  0  0  0  0  0  0  0  0
  152.8921  139.6235  154.7054 N   0  0  0  0  0  0  0  0  0  0  0  0
  151.6454  139.9717  154.7645 N   0  0  0  0  0  0  0  0  0  0  0  0
  147.3982  140.5094  154.5316 C   0  0  0  0  0  0  0  0  0  0  0  0
  147.1387  141.8817  155.1564 C   0  0  0  0  0  0  0  0  0  0  0  0
  148.3153  142.1816  155.9953 N   0  3  0  0  0  0  0  0  0  0  0  0
  149.3777  141.2012  155.6914 C   0  0  0  0  0  0  0  0  0  0  0  0
  149.4712  140.5399  152.5823 H   0  0  0  0  0  0  0  0  0  0  0  0
  149.0811  138.3929  155.1867 H   0  0  0  0  0  0  0  0  0  0  0  0
  149.0962  138.4928  153.4451 H   0  0  0  0  0  0  0  0  0  0  0  0
  151.3451  136.8747  153.7105 H   0  0  0  0  0  0  0  0  0  0  0  0
  153.9351  137.8143  154.1379 H   0  0  0  0  0  0  0  0  0  0  0  0
  146.8979  140.3774  153.5711 H   0  0  0  0  0  0  0  0  0  0  0  0
  147.0244  139.7358  155.2041 H   0  0  0  0  0  0  0  0  0  0  0  0
  147.0700  142.6422  154.3778 H   0  0  0  0  0  0  0  0  0  0  0  0
  146.2157  141.9091  155.7360 H   0  0  0  0  0  0  0  0  0  0  0  0
  148.6399  143.1152  155.7876 H   0  0  0  0  0  0  0  0  0  0  0  0
  149.4477  140.5253  156.5445 H   0  0  0  0  0  0  0  0  0  0  0  0
  150.3499  141.6822  155.5736 H   0  0  0  0  0  0  0  0  0  0  0  0
  148.0703  142.1171  156.9730 H   0  0  0  0  0  0  0  0  0  0  0  0
  1  2  1  0  0  0  0
  1 13  1  0  0  0  0
  2 12  1  0  0  0  0
  2  3  1  0  0  0  0
  2  9  1  0  0  0  0
  3  4  1  0  0  0  0
  3 14  1  0  0  0  0
  3 15  1  0  0  0  0
  4  8  1  0  0  0  0
  4  5  1  0  0  0  0
  5  6  2  0  0  0  0
  5 16  1  0  0  0  0
  6  7  1  0  0  0  0
  6 17  1  0  0  0  0
  7  8  2  0  0  0  0
  9 10  1  0  0  0  0
  9 18  1  0  0  0  0
  9 19  1  0  0  0  0
 10 11  1  0  0  0  0
 10 20  1  0  0  0  0
 10 21  1  0  0  0  0
 11 12  1  0  0  0  0
 11 22  1  0  0  0  0
 11 25  1  0  0  0  0
 12 23  1  0  0  0  0
 12 24  1  0  0  0  0
M  CHG  1  11   1
M  END
> <s_m_source_file>
AV-unprocessed.smi

> <i_m_source_file_index>
70

> <i_lp_mmshare_version>
43012

> <i_f3d_flags>
0

> <s_epik_input>
W0NIMl0xW05IXVtDSDJdW0NIMl1bQ0BAXTEoW09IXSlbQ0gyXW4yW2NIXVtjSF1ubjI=

> <s_epik_cmdline>
J2VwaWtfcHl0aG9uJywgJy1waCcsICc3LjAnLCAnLXRuJywgJzgnLCAnLW1hJywgJzIwMCcsICctbWV0YWxfYmluZGluZycsICctaW1hZScsICc8aW5maWxlLm1hZT4nLCAnLW9tYWUnLCAnPG91dGZpbGUubWFlPic=

> <r_lp_tautomer_probability>
1

> <r_epik_Ionization_Penalty>
0.00649776

> <r_epik_Ionization_Penalty_Charging>
0.00648305

> <r_epik_Ionization_Penalty_Neutral>
1.4704e-05

> <r_epik_State_Penalty>
0.00479756

> <r_epik_Charging_Adjusted_Penalty>
0.0112806

> <i_epik_Tot_Q>
1

> <i_epik_Tot_abs_Q>
1

> <r_epik_Metal_State_Penalty>
-0

> <b_epik_Metal_Only>
0

> <s_lp_Force_Field>
OPLS_2005

> <r_lp_Energy>
24.9841

> <b_lp_Chiralities_Consistent>
1

> <s_lp_Variant>
AV-unprocessed.smi:70-2

> <Gold.Version>
5.8.1

> <Gold.Id.Protein>
6NUR|6NUR_protein|mol2

> <Gold.PLP.Fitness>
45.9164

> <Gold.PLP.PLP>
-27.0219

> <Gold.PLP.part.hbond>
-6.5465

> <Gold.PLP.part.metal>
0.0000

> <Gold.PLP.part.buried>
-3.9381

> <Gold.PLP.part.nonpolar>
-18.3574

> <Gold.PLP.part.repulsive>
0.1242

> <Gold.PLP.ligand.clash>
0.3268

> <Gold.PLP.ligand.torsion>
0.1869

> <Gold.PLP.Chemscore.Hbond>
5.5587

> <Gold.PLP.Chemscore.CHOScore>
0.9723

> <Gold.PLP.Chemscore.Metal>
0.0000

> <Gold.Chemscore.Hbonds>
donor molecule, donor type, donor heavy atom, donor atom, acceptor molecule, acceptor atom, score
      L1  H     1    13       P1  7957  0.94
      L1  H    11    22       P1  8028  2.00
      P1  H  7989  7998       L1     8  0.80
      P1  H  7997  8010       L1     7  0.99
      P1  H  8011  8017       L1     1  0.55
      L1  C     5    16       P1  7949  1.00

> <Gold.PLP.Chemscore.Internal.Correction>
0.0021

> <Gold.Rescore>
     Score         DG    S(hbond)    S(metal)    S(lipo)     H(rot)  DE(clash)    DE(int)     intcor
     13.73     -16.61       3.15        0.00      46.15       1.87       0.15       2.74       ----

> <Gold.Chemscore.Fitness>
13.7326

> <Gold.Chemscore.DG>
-16.6135

> <Gold.Chemscore.ZeroCoef>
-5.4800

> <Gold.Chemscore.Hbond>
3.1478

> <Gold.Chemscore.Metal>
0.0000

> <Gold.Chemscore.Lipo>
46.1458

> <Gold.Chemscore.Internal_Hbond>
0.0000

> <Gold.Chemscore.DEClash>
0.1455

> <Gold.Chemscore.DEInternal>
2.7353

> <Gold.Chemscore.Rot>
1.8669

> <Gold.Chemscore.Internal.Correction>
   9.000000E+99

> <Gold.Chemscore.Hbonds>
donor molecule, donor type, donor heavy atom, donor atom, acceptor molecule, acceptor atom, score
      L1  H     1    13       P1  7957  0.89
      L1  H    11    22       P1  8028  0.99
      P1  H  7989  7998       L1     8  0.04
      P1  H  7997  8010       L1     7  0.79
      P1  H  8011  8017       L1     1  0.03

> <Gold.Chemscore.Hbond.Weighted>
-10.5135

> <Gold.Chemscore.Metal.Weighted>
-0.0000

> <Gold.Chemscore.Lipo.Weighted>
-5.3991

> <Gold.Chemscore.Internal_Hbond.Weighted>
0.0000

> <Gold.Chemscore.DEClash.Weighted>
0.1455

> <Gold.Chemscore.DEInternal.Weighted>
2.7353

> <Gold.Chemscore.Rot.Weighted>
4.7791

> <Gold.Chemscore.Internal.Correction.Weighted>
   9.000000E+99

> <Gold.Protein.RotatedTorsions>
[ 6907 6896 6895 6894 ] final   44.63 input  -60.11 | X-H torsion
[ 7974 7965 7964 7962 ] final  -63.21 input  175.53 | X-H torsion
[ 8008 7997 7996 7995 ] final  111.15 input   59.86 | X-H torsion
[ 10167 10162 10161 10158 ] final   70.19 input  -65.29 | X-H torsion
[ 10718 10713 10712 10709 ] final -154.90 input   66.30 | X-H torsion
[ 10763 10752 10751 10750 ] final   88.18 input  -60.55 | X-H torsion
[ 11005 11000 10999 10996 ] final   52.99 input  -57.11 | X-H torsion

> <Gold.Protein.ActiveResidues>
 VAL166  LYS551  ARG553  GLY616  TRP617  ASP618  TYR619  PRO620  LYS621  CYS622 
 ASP623  PHE694  ASN695  SER759  ASP760  ASP761  ALA762  ILE779  LEU786  VAL792 
 PHE793  MET794  SER795  GLU796  ALA797  LYS798  CYS799  TRP800  GLU811  SER814 

> <Gold.Protein.RotatedAtoms>
  152.2348  134.8286  160.0468 H   0  0  0  0  0  0  0  0  0  0  0  0  # atno 6907 bound_to 6896
  151.9022  133.3535  159.3843 H   0  0  0  0  0  0  0  0  0  0  0  0  # atno 6908 bound_to 6896
  150.7036  134.4742  159.5484 H   0  0  0  0  0  0  0  0  0  0  0  0  # atno 6909 bound_to 6896
  145.7818  140.8758  143.0326 H   0  0  0  0  0  0  0  0  0  0  0  0  # atno 7974 bound_to 7965
  156.2104  140.3025  155.9719 H   0  0  0  0  0  0  0  0  0  0  0  0  # atno 8008 bound_to 7997
  155.2738  140.0435  157.3026 H   0  0  0  0  0  0  0  0  0  0  0  0  # atno 8009 bound_to 7997
  154.5691  140.2343  155.8227 H   0  0  0  0  0  0  0  0  0  0  0  0  # atno 8010 bound_to 7997
  140.0596  144.5244  150.7304 H   0  0  0  0  0  0  0  0  0  0  0  0  # atno 10167 bound_to 10162
  156.5055  130.8411  151.2626 H   0  0  0  0  0  0  0  0  0  0  0  0  # atno 10718 bound_to 10713
  153.1743  135.4516  154.9943 H   0  0  0  0  0  0  0  0  0  0  0  0  # atno 10763 bound_to 10752
  154.7987  135.3247  154.7606 H   0  0  0  0  0  0  0  0  0  0  0  0  # atno 10764 bound_to 10752
  153.8078  135.6957  153.4900 H   0  0  0  0  0  0  0  0  0  0  0  0  # atno 10765 bound_to 10752
  140.0804  134.5346  155.8953 H   0  0  0  0  0  0  0  0  0  0  0  0  # atno 11005 bound_to 11000
  144.6795  140.0000  143.7484 LP  0  0  0  0  0  0  0  0  0  0  0  0  # atno 17320 bound_to 7965
  146.0066  139.3135  143.0896 LP  0  0  0  0  0  0  0  0  0  0  0  0  # atno 17321 bound_to 7965
  140.7178  143.2560  151.4378 LP  0  0  0  0  0  0  0  0  0  0  0  0  # atno 17342 bound_to 10162
  139.5902  144.1516  152.2078 LP  0  0  0  0  0  0  0  0  0  0  0  0  # atno 17343 bound_to 10162
  157.7457  130.9967  150.2790 LP  0  0  0  0  0  0  0  0  0  0  0  0  # atno 17370 bound_to 10713
  156.3291  130.3797  149.7507 LP  0  0  0  0  0  0  0  0  0  0  0  0  # atno 17371 bound_to 10713
  141.2044  133.6639  156.6122 LP  0  0  0  0  0  0  0  0  0  0  0  0  # atno 17394 bound_to 11000
  140.3496  134.7780  157.4457 LP  0  0  0  0  0  0  0  0  0  0  0  0  # atno 17395 bound_to 11000

$$$$
