AV-unprocessed.smi:2631|AV-procd|sdf|10249|dock2
  -GOLD-   2272014263D 1   1.00000     0.00000
 Structure written by MMmdl.
 34 35  0  0  0  0  0  0  0  0  2 V2000
  147.8423  136.1900  162.4906 C   0  0  0  0  0  0  0  0  0  0  0  0
  148.0587  137.0966  161.4247 O   0  0  0  0  0  0  0  0  0  0  0  0
  148.7082  136.4930  160.3183 C   0  0  0  0  0  0  0  0  0  0  0  0
  148.4973  137.3477  159.0568 C   0  0  0  0  0  0  0  0  0  0  0  0
  149.7815  137.7798  158.4644 N   0  0  0  0  0  0  0  0  0  0  0  0
  149.9846  139.1602  158.2000 C   0  0  0  0  0  0  0  0  0  0  0  0
  148.9872  140.0771  158.4898 N   0  0  0  0  0  0  0  0  0  0  0  0
  151.1603  139.5676  157.6713 C   0  0  0  0  0  0  0  0  0  0  0  0
  151.6084  141.2483  157.2984 S   0  0  0  0  0  0  0  0  0  0  0  0
  152.1709  141.7973  158.8761 C   0  0  0  0  0  0  0  0  0  0  0  0
  153.1025  141.0252  159.5979 C   0  0  0  0  0  0  0  0  0  0  0  0
  153.5591  141.4699  160.8540 C   0  0  0  0  0  0  0  0  0  0  0  0
  153.0839  142.6844  161.3875 C   0  0  0  0  0  0  0  0  0  0  0  0
  153.6461  143.2294  162.9249 Cl  0  0  0  0  0  0  0  0  0  0  0  0
  152.1497  143.4539  160.6657 C   0  0  0  0  0  0  0  0  0  0  0  0
  151.6917  143.0102  159.4099 C   0  0  0  0  0  0  0  0  0  0  0  0
  152.2142  138.5981  157.3658 C   0  0  0  0  0  0  0  0  0  0  0  0
  153.2858  138.9522  156.8724 O   0  0  0  0  0  0  0  0  0  0  0  0
  151.9467  137.2960  157.6569 N   0  5  0  0  0  0  0  0  0  0  0  0
  150.7688  136.8661  158.2003 C   0  0  0  0  0  0  0  0  0  0  0  0
  150.5750  135.6773  158.4580 O   0  0  0  0  0  0  0  0  0  0  0  0
  147.3416  136.7036  163.3114 H   0  0  0  0  0  0  0  0  0  0  0  0
  148.7853  135.7915  162.8672 H   0  0  0  0  0  0  0  0  0  0  0  0
  147.2092  135.3587  162.1778 H   0  0  0  0  0  0  0  0  0  0  0  0
  149.7758  136.4132  160.5278 H   0  0  0  0  0  0  0  0  0  0  0  0
  148.3335  135.4802  160.1631 H   0  0  0  0  0  0  0  0  0  0  0  0
  147.8789  136.7986  158.3452 H   0  0  0  0  0  0  0  0  0  0  0  0
  147.8898  138.2186  159.3034 H   0  0  0  0  0  0  0  0  0  0  0  0
  148.1058  139.7892  158.8897 H   0  0  0  0  0  0  0  0  0  0  0  0
  149.1523  141.0718  158.4378 H   0  0  0  0  0  0  0  0  0  0  0  0
  153.4704  140.0954  159.1897 H   0  0  0  0  0  0  0  0  0  0  0  0
  154.2750  140.8789  161.4061 H   0  0  0  0  0  0  0  0  0  0  0  0
  151.7843  144.3853  161.0724 H   0  0  0  0  0  0  0  0  0  0  0  0
  150.9783  143.6037  158.8569 H   0  0  0  0  0  0  0  0  0  0  0  0
  1  2  1  0  0  0  0
  1 22  1  0  0  0  0
  1 23  1  0  0  0  0
  1 24  1  0  0  0  0
  2  3  1  0  0  0  0
  3  4  1  0  0  0  0
  3 25  1  0  0  0  0
  3 26  1  0  0  0  0
  4  5  1  0  0  0  0
  4 27  1  0  0  0  0
  4 28  1  0  0  0  0
  5 20  1  0  0  0  0
  5  6  1  0  0  0  0
  6  7  1  0  0  0  0
  6  8  2  0  0  0  0
  7 29  1  0  0  0  0
  7 30  1  0  0  0  0
  8  9  1  0  0  0  0
  8 17  1  0  0  0  0
  9 10  1  0  0  0  0
 10 16  1  0  0  0  0
 10 11  2  0  0  0  0
 11 12  1  0  0  0  0
 11 31  1  0  0  0  0
 12 13  2  0  0  0  0
 12 32  1  0  0  0  0
 13 14  1  0  0  0  0
 13 15  1  0  0  0  0
 15 16  2  0  0  0  0
 15 33  1  0  0  0  0
 16 34  1  0  0  0  0
 17 18  2  0  0  0  0
 17 19  1  0  0  0  0
 19 20  1  0  0  0  0
 20 21  2  0  0  0  0
M  CHG  1  19  -1
M  END
> <s_m_source_file>
AV-unprocessed.smi

> <i_m_source_file_index>
2631

> <i_lp_mmshare_version>
43012

> <i_f3d_flags>
0

> <s_epik_input>
W0NIM11PW0NIMl1bQ0gyXW4xYyhbTkgyXSljKGMoPU8pW25IXWMxPU8pU2MyW2NIXVtjSF1jKENsKVtjSF1bY0hdMg==

> <s_epik_cmdline>
J2VwaWtfcHl0aG9uJywgJy1waCcsICc3LjAnLCAnLXRuJywgJzgnLCAnLW1hJywgJzIwMCcsICctbWV0YWxfYmluZGluZycsICctaW1hZScsICc8aW5maWxlLm1hZT4nLCAnLW9tYWUnLCAnPG91dGZpbGUubWFlPic=

> <r_lp_tautomer_probability>
1

> <r_epik_Ionization_Penalty>
5.35309

> <r_epik_Ionization_Penalty_Charging>
0.0281434

> <r_epik_Ionization_Penalty_Neutral>
5.32495

> <r_epik_State_Penalty>
5.32488

> <r_epik_Charging_Adjusted_Penalty>
5.35302

> <i_epik_Tot_Q>
-1

> <i_epik_Tot_abs_Q>
1

> <r_epik_Metal_State_Penalty>
1.30191

> <b_epik_Metal_Only>
1

> <s_epik_Chemistry_Notes>
This compound has an imine and may undergo hydrolysis.

> <s_lp_Force_Field>
OPLS_2005

> <r_lp_Energy>
29.1443

> <b_lp_Chiralities_Consistent>
1

> <s_lp_Variant>
AV-unprocessed.smi:2631-2

> <Gold.Version>
5.8.1

> <Gold.Id.Protein>
6NUR|6NUR_protein|mol2

> <Gold.PLP.Fitness>
46.7347

> <Gold.PLP.PLP>
-38.2677

> <Gold.PLP.part.hbond>
-4.0000

> <Gold.PLP.part.metal>
0.0000

> <Gold.PLP.part.buried>
-5.4287

> <Gold.PLP.part.nonpolar>
-28.8733

> <Gold.PLP.part.repulsive>
0.2191

> <Gold.PLP.ligand.clash>
0.0000

> <Gold.PLP.ligand.torsion>
0.9616

> <Gold.PLP.Chemscore.Hbond>
3.4400

> <Gold.PLP.Chemscore.CHOScore>
0.0000

> <Gold.PLP.Chemscore.Metal>
0.0000

> <Gold.Chemscore.Hbonds>
donor molecule, donor type, donor heavy atom, donor atom, acceptor molecule, acceptor atom, score
      P1  H  6896  6908       L1    21  0.63
      P1  H  6931  6943       L1     2  1.00
      P1  H  6934  6947       L1     2  0.44
      P1  H  7997  8008       L1    18  0.88

> <Gold.PLP.Chemscore.Internal.Correction>
0.0703

> <Gold.Rescore>
     Score         DG    S(hbond)    S(metal)    S(lipo)     H(rot)  DE(clash)    DE(int)     intcor
     18.56     -20.83       2.80        0.00      95.44       2.02       0.05       2.22       ----

> <Gold.Chemscore.Fitness>
18.5618

> <Gold.Chemscore.DG>
-20.8333

> <Gold.Chemscore.ZeroCoef>
-5.4800

> <Gold.Chemscore.Hbond>
2.8043

> <Gold.Chemscore.Metal>
0.0000

> <Gold.Chemscore.Lipo>
95.4439

> <Gold.Chemscore.Internal_Hbond>
0.0000

> <Gold.Chemscore.DEClash>
0.0475

> <Gold.Chemscore.DEInternal>
2.2241

> <Gold.Chemscore.Rot>
2.0234

> <Gold.Chemscore.Internal.Correction>
   9.000000E+99

> <Gold.Chemscore.Hbonds>
donor molecule, donor type, donor heavy atom, donor atom, acceptor molecule, acceptor atom, score
      P1  H  6896  6908       L1    21  0.60
      P1  H  6931  6943       L1     2  0.34
      P1  H  6934  6947       L1     2  0.38
      P1  H  7997  8008       L1    18  0.86

> <Gold.Chemscore.Hbond.Weighted>
-9.3662

> <Gold.Chemscore.Metal.Weighted>
-0.0000

> <Gold.Chemscore.Lipo.Weighted>
-11.1669

> <Gold.Chemscore.Internal_Hbond.Weighted>
0.0000

> <Gold.Chemscore.DEClash.Weighted>
0.0475

> <Gold.Chemscore.DEInternal.Weighted>
2.2241

> <Gold.Chemscore.Rot.Weighted>
5.1798

> <Gold.Chemscore.Internal.Correction.Weighted>
   9.000000E+99

> <Gold.Protein.RotatedTorsions>
[ 6907 6896 6895 6894 ] final  172.20 input  -60.11 | X-H torsion
[ 7974 7965 7964 7962 ] final   97.04 input  175.53 | X-H torsion
[ 8008 7997 7996 7995 ] final  -40.48 input   59.86 | X-H torsion
[ 10167 10162 10161 10158 ] final  156.50 input  -65.29 | X-H torsion
[ 10718 10713 10712 10709 ] final  161.32 input   66.30 | X-H torsion
[ 10763 10752 10751 10750 ] final -115.58 input  -60.55 | X-H torsion
[ 11005 11000 10999 10996 ] final  -94.95 input  -57.11 | X-H torsion

> <Gold.Protein.ActiveResidues>
 VAL166  LYS551  ARG553  GLY616  TRP617  ASP618  TYR619  PRO620  LYS621  CYS622 
 ASP623  PHE694  ASN695  SER759  ASP760  ASP761  ALA762  ILE779  LEU786  VAL792 
 PHE793  MET794  SER795  GLU796  ALA797  LYS798  CYS799  TRP800  GLU811  SER814 

> <Gold.Protein.RotatedAtoms>
  151.7880  133.3356  159.3490 H   0  0  0  0  0  0  0  0  0  0  0  0  # atno 6907 bound_to 6896
  150.7402  134.5869  159.5976 H   0  0  0  0  0  0  0  0  0  0  0  0  # atno 6908 bound_to 6896
  152.3230  134.7358  160.0360 H   0  0  0  0  0  0  0  0  0  0  0  0  # atno 6909 bound_to 6896
  145.4308  139.2311  143.3145 H   0  0  0  0  0  0  0  0  0  0  0  0  # atno 7974 bound_to 7965
  154.4012  140.1524  156.3034 H   0  0  0  0  0  0  0  0  0  0  0  0  # atno 8008 bound_to 7997
  155.8680  140.3450  155.5780 H   0  0  0  0  0  0  0  0  0  0  0  0  # atno 8009 bound_to 7997
  155.7806  140.0843  157.2052 H   0  0  0  0  0  0  0  0  0  0  0  0  # atno 8010 bound_to 7997
  139.4821  144.5003  151.8179 H   0  0  0  0  0  0  0  0  0  0  0  0  # atno 10167 bound_to 10162
  157.1381  131.0533  151.2340 H   0  0  0  0  0  0  0  0  0  0  0  0  # atno 10718 bound_to 10713
  154.8487  135.4376  154.1686 H   0  0  0  0  0  0  0  0  0  0  0  0  # atno 10763 bound_to 10752
  153.2805  135.6953  153.7396 H   0  0  0  0  0  0  0  0  0  0  0  0  # atno 10764 bound_to 10752
  153.6602  135.3436  155.3100 H   0  0  0  0  0  0  0  0  0  0  0  0  # atno 10765 bound_to 10752
  141.1456  133.7991  157.0368 H   0  0  0  0  0  0  0  0  0  0  0  0  # atno 11005 bound_to 11000
  146.2608  140.5044  142.8854 LP  0  0  0  0  0  0  0  0  0  0  0  0  # atno 17320 bound_to 7965
  144.8184  140.6508  143.6369 LP  0  0  0  0  0  0  0  0  0  0  0  0  # atno 17321 bound_to 7965
  140.4495  144.1875  150.5896 LP  0  0  0  0  0  0  0  0  0  0  0  0  # atno 17342 bound_to 10162
  140.4599  143.2453  151.9233 LP  0  0  0  0  0  0  0  0  0  0  0  0  # atno 17343 bound_to 10162
  157.4332  130.7502  149.7007 LP  0  0  0  0  0  0  0  0  0  0  0  0  # atno 17370 bound_to 10713
  155.9794  130.4040  150.3590 LP  0  0  0  0  0  0  0  0  0  0  0  0  # atno 17371 bound_to 10713
  140.0719  134.9698  157.1481 LP  0  0  0  0  0  0  0  0  0  0  0  0  # atno 17394 bound_to 11000
  140.3699  134.2401  155.7179 LP  0  0  0  0  0  0  0  0  0  0  0  0  # atno 17395 bound_to 11000

$$$$
