AV-unprocessed.smi:1492|AV-procd|sdf|6036|dock9
  -GOLD-   22720 6143D 1   1.00000     0.00000
 Structure written by MMmdl.
 52 53  0  0  0  0  0  0  0  0  1 V2000
  151.5257  141.7318  157.5723 C   0  0  0  0  0  0  0  0  0  0  0  0
  151.0560  140.2761  157.7578 C   0  0  0  0  0  0  0  0  0  0  0  0
  150.7499  139.4364  156.4702 C   0  0  1  0  0  0  0  0  0  0  0  0
  151.9672  139.5446  155.5169 C   0  0  0  0  0  0  0  0  0  0  0  0
  150.6195  137.9376  156.8780 C   0  0  0  0  0  0  0  0  0  0  0  0
  149.5284  137.7337  157.8222 N   0  0  0  0  0  0  0  0  0  0  0  0
  149.6701  137.3088  159.0838 C   0  0  0  0  0  0  0  0  0  0  0  0
  150.7459  136.9590  159.5678 O   0  0  0  0  0  0  0  0  0  0  0  0
  148.3982  137.2965  159.9307 C   0  0  0  0  0  0  0  0  0  0  0  0
  148.0377  135.9366  160.5278 C   0  0  0  0  0  0  0  0  0  0  0  0
  147.8012  135.7490  161.8594 C   0  0  0  0  0  0  0  0  0  0  0  0
  147.8794  136.8741  162.8766 C   0  0  0  0  0  0  0  0  0  0  0  0
  147.4693  134.4891  162.3765 N   0  0  0  0  0  0  0  0  0  0  0  0
  147.3836  133.4869  161.5652 C   0  0  0  0  0  0  0  0  0  0  0  0
  147.0393  132.0777  161.9985 C   0  0  0  0  0  0  0  0  0  0  0  0
  147.6045  133.6118  160.1947 N   0  0  0  0  0  0  0  0  0  0  0  0
  147.9270  134.7867  159.6089 C   0  0  0  0  0  0  0  0  0  0  0  0
  148.0962  134.8486  158.3919 O   0  0  0  0  0  0  0  0  0  0  0  0
  149.4880  139.9266  155.8342 N   0  0  0  0  0  0  0  0  0  0  0  0
  148.9642  139.0906  154.7447 C   0  0  0  0  0  0  0  0  0  0  0  0
  147.6061  139.5915  154.2245 C   0  0  0  0  0  0  0  0  0  0  0  0
  147.7226  140.9432  153.8006 O   0  0  0  0  0  0  0  0  0  0  0  0
  148.1604  141.7989  154.8478 C   0  0  0  0  0  0  0  0  0  0  0  0
  149.5249  141.3209  155.3721 C   0  0  0  0  0  0  0  0  0  0  0  0
  147.5178  132.7944  159.6083 H   0  0  0  0  0  0  0  0  0  0  0  0
  151.6054  142.2270  158.5402 H   0  0  0  0  0  0  0  0  0  0  0  0
  150.8300  142.3139  156.9692 H   0  0  0  0  0  0  0  0  0  0  0  0
  152.5116  141.7887  157.1109 H   0  0  0  0  0  0  0  0  0  0  0  0
  151.8074  139.7597  158.3576 H   0  0  0  0  0  0  0  0  0  0  0  0
  150.1641  140.3246  158.3820 H   0  0  0  0  0  0  0  0  0  0  0  0
  152.8731  139.1513  155.9774 H   0  0  0  0  0  0  0  0  0  0  0  0
  152.1803  140.5758  155.2369 H   0  0  0  0  0  0  0  0  0  0  0  0
  151.8216  138.9761  154.5989 H   0  0  0  0  0  0  0  0  0  0  0  0
  150.4765  137.2887  156.0147 H   0  0  0  0  0  0  0  0  0  0  0  0
  151.5486  137.5794  157.3225 H   0  0  0  0  0  0  0  0  0  0  0  0
  148.6028  137.9844  157.5050 H   0  0  0  0  0  0  0  0  0  0  0  0
  148.4945  138.0442  160.7193 H   0  0  0  0  0  0  0  0  0  0  0  0
  147.5704  137.6505  159.3161 H   0  0  0  0  0  0  0  0  0  0  0  0
  147.2050  137.6864  162.6060 H   0  0  0  0  0  0  0  0  0  0  0  0
  148.8943  137.2679  162.9339 H   0  0  0  0  0  0  0  0  0  0  0  0
  147.5991  136.5280  163.8723 H   0  0  0  0  0  0  0  0  0  0  0  0
  147.7733  131.7182  162.7203 H   0  0  0  0  0  0  0  0  0  0  0  0
  147.0254  131.3878  161.1537 H   0  0  0  0  0  0  0  0  0  0  0  0
  146.0567  132.0600  162.4706 H   0  0  0  0  0  0  0  0  0  0  0  0
  149.6692  139.0650  153.9140 H   0  0  0  0  0  0  0  0  0  0  0  0
  148.8190  138.0635  155.0715 H   0  0  0  0  0  0  0  0  0  0  0  0
  147.2759  138.9826  153.3828 H   0  0  0  0  0  0  0  0  0  0  0  0
  146.8420  139.5091  154.9989 H   0  0  0  0  0  0  0  0  0  0  0  0
  148.2377  142.8168  154.4659 H   0  0  0  0  0  0  0  0  0  0  0  0
  147.4214  141.8133  155.6504 H   0  0  0  0  0  0  0  0  0  0  0  0
  149.8135  141.9941  156.1764 H   0  0  0  0  0  0  0  0  0  0  0  0
  150.2646  141.4360  154.5798 H   0  0  0  0  0  0  0  0  0  0  0  0
  1  2  1  0  0  0  0
  1 26  1  0  0  0  0
  1 27  1  0  0  0  0
  1 28  1  0  0  0  0
  2  3  1  0  0  0  0
  2 29  1  0  0  0  0
  2 30  1  0  0  0  0
  3  4  1  0  0  0  0
  3  5  1  0  0  0  0
  3 19  1  0  0  0  0
  4 31  1  0  0  0  0
  4 32  1  0  0  0  0
  4 33  1  0  0  0  0
  5  6  1  0  0  0  0
  5 34  1  0  0  0  0
  5 35  1  0  0  0  0
  6  7  1  0  0  0  0
  6 36  1  0  0  0  0
  7  8  2  0  0  0  0
  7  9  1  0  0  0  0
  9 10  1  0  0  0  0
  9 37  1  0  0  0  0
  9 38  1  0  0  0  0
 10 17  1  0  0  0  0
 10 11  2  0  0  0  0
 11 12  1  0  0  0  0
 11 13  1  0  0  0  0
 12 39  1  0  0  0  0
 12 40  1  0  0  0  0
 12 41  1  0  0  0  0
 13 14  2  0  0  0  0
 14 15  1  0  0  0  0
 14 16  1  0  0  0  0
 15 42  1  0  0  0  0
 15 43  1  0  0  0  0
 15 44  1  0  0  0  0
 16 25  1  0  0  0  0
 16 17  1  0  0  0  0
 17 18  2  0  0  0  0
 19 24  1  0  0  0  0
 19 20  1  0  0  0  0
 20 21  1  0  0  0  0
 20 45  1  0  0  0  0
 20 46  1  0  0  0  0
 21 22  1  0  0  0  0
 21 47  1  0  0  0  0
 21 48  1  0  0  0  0
 22 23  1  0  0  0  0
 23 24  1  0  0  0  0
 23 49  1  0  0  0  0
 23 50  1  0  0  0  0
 24 51  1  0  0  0  0
 24 52  1  0  0  0  0
M  END
> <s_m_source_file>
AV-unprocessed.smi

> <i_m_source_file_index>
1492

> <i_lp_mmshare_version>
43012

> <i_f3d_flags>
0

> <s_epik_input>
W0NIMl0xW0NIMl1PW0NIMl1bQ0gyXU4xW0NAQF0oW0NIM10pKFtDSDJdW0NIM10pW0NIMl1bTkhdQyg9TylbQ0gyXWMyYyhbQ0gzXSluYyhbQ0gzXSlbbkhdYzI9Tw==

> <s_epik_cmdline>
J2VwaWtfcHl0aG9uJywgJy1waCcsICc3LjAnLCAnLXRuJywgJzgnLCAnLW1hJywgJzIwMCcsICctbWV0YWxfYmluZGluZycsICctaW1hZScsICc8aW5maWxlLm1hZT4nLCAnLW9tYWUnLCAnPG91dGZpbGUubWFlPic=

> <r_lp_tautomer_probability>
0.839158

> <r_epik_Ionization_Penalty>
0.328652

> <r_epik_Ionization_Penalty_Charging>
0.000364731

> <r_epik_Ionization_Penalty_Neutral>
0.328288

> <r_epik_State_Penalty>
0.414451

> <r_epik_Charging_Adjusted_Penalty>
0.414816

> <i_epik_Tot_Q>
0

> <i_epik_Tot_abs_Q>
0

> <r_epik_Metal_State_Penalty>
0.592978

> <b_epik_Metal_Only>
0

> <s_lp_Force_Field>
OPLS_2005

> <r_lp_Energy>
47.024

> <b_lp_Chiralities_Consistent>
1

> <s_lp_Variant>
AV-unprocessed.smi:1492-1

> <Gold.Version>
5.8.1

> <Gold.Id.Protein>
6NUR|6NUR_protein|mol2

> <Gold.PLP.Fitness>
38.3981

> <Gold.PLP.PLP>
-35.7434

> <Gold.PLP.part.hbond>
-1.0000

> <Gold.PLP.part.metal>
0.0000

> <Gold.PLP.part.buried>
-5.2188

> <Gold.PLP.part.nonpolar>
-30.9715

> <Gold.PLP.part.repulsive>
1.4936

> <Gold.PLP.ligand.clash>
0.0000

> <Gold.PLP.ligand.torsion>
0.2192

> <Gold.PLP.Chemscore.Hbond>
1.0000

> <Gold.PLP.Chemscore.CHOScore>
0.0000

> <Gold.PLP.Chemscore.Metal>
0.0000

> <Gold.Chemscore.Hbonds>
donor molecule, donor type, donor heavy atom, donor atom, acceptor molecule, acceptor atom, score
      P1  H  6896  6908       L1     8  1.00

> <Gold.PLP.Chemscore.Internal.Correction>
0.0930

> <Gold.Rescore>
     Score         DG    S(hbond)    S(metal)    S(lipo)     H(rot)  DE(clash)    DE(int)     intcor
     12.98     -13.46       1.00        0.00      86.09       2.12       0.10       0.38       ----

> <Gold.Chemscore.Fitness>
12.9844

> <Gold.Chemscore.DG>
-13.4631

> <Gold.Chemscore.ZeroCoef>
-5.4800

> <Gold.Chemscore.Hbond>
0.9957

> <Gold.Chemscore.Metal>
0.0000

> <Gold.Chemscore.Lipo>
86.0945

> <Gold.Chemscore.Internal_Hbond>
0.0000

> <Gold.Chemscore.DEClash>
0.0962

> <Gold.Chemscore.DEInternal>
0.3825

> <Gold.Chemscore.Rot>
2.1155

> <Gold.Chemscore.Internal.Correction>
   9.000000E+99

> <Gold.Chemscore.Hbonds>
donor molecule, donor type, donor heavy atom, donor atom, acceptor molecule, acceptor atom, score
      P1  H  6896  6908       L1     8  0.99

> <Gold.Chemscore.Hbond.Weighted>
-3.3257

> <Gold.Chemscore.Metal.Weighted>
-0.0000

> <Gold.Chemscore.Lipo.Weighted>
-10.0731

> <Gold.Chemscore.Internal_Hbond.Weighted>
0.0000

> <Gold.Chemscore.DEClash.Weighted>
0.0962

> <Gold.Chemscore.DEInternal.Weighted>
0.3825

> <Gold.Chemscore.Rot.Weighted>
5.4157

> <Gold.Chemscore.Internal.Correction.Weighted>
   9.000000E+99

> <Gold.Protein.RotatedTorsions>
[ 6907 6896 6895 6894 ] final -131.22 input  -60.11 | X-H torsion
[ 7974 7965 7964 7962 ] final   28.96 input  175.53 | X-H torsion
[ 8008 7997 7996 7995 ] final  -59.99 input   59.86 | X-H torsion
[ 10167 10162 10161 10158 ] final   34.32 input  -65.29 | X-H torsion
[ 10718 10713 10712 10709 ] final  -11.32 input   66.30 | X-H torsion
[ 10763 10752 10751 10750 ] final  172.54 input  -60.55 | X-H torsion
[ 11005 11000 10999 10996 ] final -168.91 input  -57.11 | X-H torsion

> <Gold.Protein.ActiveResidues>
 VAL166  LYS551  ARG553  GLY616  TRP617  ASP618  TYR619  PRO620  LYS621  CYS622 
 ASP623  PHE694  ASN695  SER759  ASP760  ASP761  ALA762  ILE779  LEU786  VAL792 
 PHE793  MET794  SER795  GLU796  ALA797  LYS798  CYS799  TRP800  GLU811  SER814 

> <Gold.Protein.RotatedAtoms>
  150.9485  133.6575  159.2776 H   0  0  0  0  0  0  0  0  0  0  0  0  # atno 6907 bound_to 6896
  151.3940  135.0959  159.9544 H   0  0  0  0  0  0  0  0  0  0  0  0  # atno 6908 bound_to 6896
  152.5100  133.8994  159.7488 H   0  0  0  0  0  0  0  0  0  0  0  0  # atno 6909 bound_to 6896
  146.1699  139.6985  142.8975 H   0  0  0  0  0  0  0  0  0  0  0  0  # atno 7974 bound_to 7965
  154.4378  140.1049  156.6203 H   0  0  0  0  0  0  0  0  0  0  0  0  # atno 8008 bound_to 7997
  155.5715  140.3489  155.4498 H   0  0  0  0  0  0  0  0  0  0  0  0  # atno 8009 bound_to 7997
  156.0386  140.1277  157.0170 H   0  0  0  0  0  0  0  0  0  0  0  0  # atno 8010 bound_to 7997
  140.4325  144.1303  150.6161 H   0  0  0  0  0  0  0  0  0  0  0  0  # atno 10167 bound_to 10162
  156.6607  130.4981  149.6031 H   0  0  0  0  0  0  0  0  0  0  0  0  # atno 10718 bound_to 10713
  154.4274  135.2759  155.1935 H   0  0  0  0  0  0  0  0  0  0  0  0  # atno 10763 bound_to 10752
  154.3855  135.6078  153.5818 H   0  0  0  0  0  0  0  0  0  0  0  0  # atno 10764 bound_to 10752
  152.9835  135.5890  154.4580 H   0  0  0  0  0  0  0  0  0  0  0  0  # atno 10765 bound_to 10752
  140.5366  134.5563  157.5089 H   0  0  0  0  0  0  0  0  0  0  0  0  # atno 11005 bound_to 11000
  145.4368  141.0419  143.2879 LP  0  0  0  0  0  0  0  0  0  0  0  0  # atno 17320 bound_to 7965
  144.8147  139.5898  143.7014 LP  0  0  0  0  0  0  0  0  0  0  0  0  # atno 17321 bound_to 7965
  140.4410  143.2526  151.9472 LP  0  0  0  0  0  0  0  0  0  0  0  0  # atno 17342 bound_to 10162
  139.4785  144.5654  151.8173 LP  0  0  0  0  0  0  0  0  0  0  0  0  # atno 17343 bound_to 10162
  156.2013  130.6621  151.1170 LP  0  0  0  0  0  0  0  0  0  0  0  0  # atno 17370 bound_to 10713
  157.7110  131.0734  150.6499 LP  0  0  0  0  0  0  0  0  0  0  0  0  # atno 17371 bound_to 10713
  139.9526  134.7591  156.0414 LP  0  0  0  0  0  0  0  0  0  0  0  0  # atno 17394 bound_to 11000
  141.1251  133.6601  156.3315 LP  0  0  0  0  0  0  0  0  0  0  0  0  # atno 17395 bound_to 11000

$$$$
