AV-unprocessed.smi:3236|AV-procd|sdf|12362|dock8
  -GOLD-   2272018223D 1   1.00000     0.00000
 Structure written by MMmdl.
 40 41  0  0  0  0  0  0  0  0  1 V2000
  149.6537  145.0570  160.3870 C   0  0  0  0  0  0  0  0  0  0  0  0
  151.0657  144.6306  159.9626 C   0  0  0  0  0  0  0  0  0  0  0  0
  151.0614  143.9260  158.5888 C   0  0  0  0  0  0  0  0  0  0  0  0
  152.4668  143.4176  158.2200 C   0  0  0  0  0  0  0  0  0  0  0  0
  152.9395  142.5221  159.2847 N   0  0  0  0  0  0  0  0  0  0  0  0
  153.0975  141.1801  159.1756 C   0  0  0  0  0  0  0  0  0  0  0  0
  152.9036  140.5821  158.1149 O   0  0  0  0  0  0  0  0  0  0  0  0
  153.5398  140.3800  160.4131 C   0  0  0  0  0  0  0  0  0  0  0  0
  154.7830  139.6285  160.2011 N   0  0  0  0  0  0  0  0  0  0  0  0
  155.0736  138.7718  161.3419 C   0  0  0  0  0  0  0  0  0  0  0  0
  154.1866  137.5159  161.3050 C   0  0  0  0  0  0  0  0  0  0  0  0
  154.2702  136.7413  162.5304 N   0  0  0  0  0  0  0  0  0  0  0  0
  153.8299  137.0830  163.7916 C   0  0  0  0  0  0  0  0  0  0  0  0
  154.1305  136.0421  164.6226 C   0  0  0  0  0  0  0  0  0  0  0  0
  154.7624  135.0976  163.7663 C   0  0  0  0  0  0  0  0  0  0  0  0
  154.8428  135.5178  162.5138 N   0  0  0  0  0  0  0  0  0  0  0  0
  153.1141  143.2409  160.5534 C   0  0  0  0  0  0  0  0  0  0  0  0
  151.7410  143.7463  161.0326 C   0  0  0  0  0  0  0  0  0  0  0  0
  148.9976  144.1943  160.5059 H   0  0  0  0  0  0  0  0  0  0  0  0
  149.2040  145.7179  159.6456 H   0  0  0  0  0  0  0  0  0  0  0  0
  149.6744  145.5930  161.3362 H   0  0  0  0  0  0  0  0  0  0  0  0
  151.6649  145.5369  159.8627 H   0  0  0  0  0  0  0  0  0  0  0  0
  150.3664  143.0851  158.6055 H   0  0  0  0  0  0  0  0  0  0  0  0
  150.7018  144.6097  157.8192 H   0  0  0  0  0  0  0  0  0  0  0  0
  152.4444  142.9574  157.2338 H   0  0  0  0  0  0  0  0  0  0  0  0
  153.1548  144.2594  158.1295 H   0  0  0  0  0  0  0  0  0  0  0  0
  153.6767  141.0680  161.2489 H   0  0  0  0  0  0  0  0  0  0  0  0
  152.7446  139.6816  160.6781 H   0  0  0  0  0  0  0  0  0  0  0  0
  155.5643  140.2474  160.0374 H   0  0  0  0  0  0  0  0  0  0  0  0
  156.1230  138.4755  161.3095 H   0  0  0  0  0  0  0  0  0  0  0  0
  154.9206  139.3157  162.2754 H   0  0  0  0  0  0  0  0  0  0  0  0
  153.1443  137.7851  161.1283 H   0  0  0  0  0  0  0  0  0  0  0  0
  154.4859  136.8751  160.4746 H   0  0  0  0  0  0  0  0  0  0  0  0
  153.3483  138.0290  163.9907 H   0  0  0  0  0  0  0  0  0  0  0  0
  153.9315  135.9681  165.6812 H   0  0  0  0  0  0  0  0  0  0  0  0
  155.1624  134.1260  164.0163 H   0  0  0  0  0  0  0  0  0  0  0  0
  153.5731  142.6279  161.3301 H   0  0  0  0  0  0  0  0  0  0  0  0
  153.7920  144.0820  160.4017 H   0  0  0  0  0  0  0  0  0  0  0  0
  151.8571  144.3054  161.9617 H   0  0  0  0  0  0  0  0  0  0  0  0
  151.1028  142.8918  161.2634 H   0  0  0  0  0  0  0  0  0  0  0  0
  1  2  1  0  0  0  0
  1 19  1  0  0  0  0
  1 20  1  0  0  0  0
  1 21  1  0  0  0  0
  2 18  1  0  0  0  0
  2  3  1  0  0  0  0
  2 22  1  0  0  0  0
  3  4  1  0  0  0  0
  3 23  1  0  0  0  0
  3 24  1  0  0  0  0
  4  5  1  0  0  0  0
  4 25  1  0  0  0  0
  4 26  1  0  0  0  0
  5  6  1  0  0  0  0
  5 17  1  0  0  0  0
  6  7  2  0  0  0  0
  6  8  1  0  0  0  0
  8  9  1  0  0  0  0
  8 27  1  0  0  0  0
  8 28  1  0  0  0  0
  9 10  1  0  0  0  0
  9 29  1  0  0  0  0
 10 11  1  0  0  0  0
 10 30  1  0  0  0  0
 10 31  1  0  0  0  0
 11 12  1  0  0  0  0
 11 32  1  0  0  0  0
 11 33  1  0  0  0  0
 12 16  1  0  0  0  0
 12 13  1  0  0  0  0
 13 14  2  0  0  0  0
 13 34  1  0  0  0  0
 14 15  1  0  0  0  0
 14 35  1  0  0  0  0
 15 16  2  0  0  0  0
 15 36  1  0  0  0  0
 17 18  1  0  0  0  0
 17 37  1  0  0  0  0
 17 38  1  0  0  0  0
 18 39  1  0  0  0  0
 18 40  1  0  0  0  0
M  END
> <s_m_source_file>
AV-unprocessed.smi

> <i_m_source_file_index>
3236

> <i_lp_mmshare_version>
43012

> <i_f3d_flags>
0

> <s_epik_input>
W0NIM11bQ0hdMVtDSDJdW0NIMl1OKFtDSDJdW0NIMl0xKUMoPU8pW0NIMl1bTkhdW0NIMl1bQ0gyXW4yW2NIXVtjSF1bY0hdbjI=

> <s_epik_cmdline>
J2VwaWtfcHl0aG9uJywgJy1waCcsICc3LjAnLCAnLXRuJywgJzgnLCAnLW1hJywgJzIwMCcsICctbWV0YWxfYmluZGluZycsICctaW1hZScsICc8aW5maWxlLm1hZT4nLCAnLW9tYWUnLCAnPG91dGZpbGUubWFlPic=

> <r_lp_tautomer_probability>
1

> <r_epik_Ionization_Penalty>
0.778591

> <r_epik_Ionization_Penalty_Charging>
0

> <r_epik_Ionization_Penalty_Neutral>
0.778591

> <r_epik_State_Penalty>
0.806071

> <r_epik_Charging_Adjusted_Penalty>
0.806071

> <i_epik_Tot_Q>
0

> <i_epik_Tot_abs_Q>
0

> <r_epik_Metal_State_Penalty>
0.80479

> <b_epik_Metal_Only>
0

> <s_lp_Force_Field>
OPLS_2005

> <r_lp_Energy>
26.1059

> <b_lp_Chiralities_Consistent>
1

> <s_lp_Variant>
AV-unprocessed.smi:3236-2

> <Gold.Version>
5.8.1

> <Gold.Id.Protein>
6NUR|6NUR_protein|mol2

> <Gold.PLP.Fitness>
42.8904

> <Gold.PLP.PLP>
-40.9783

> <Gold.PLP.part.hbond>
-1.0000

> <Gold.PLP.part.metal>
0.0000

> <Gold.PLP.part.buried>
-3.5027

> <Gold.PLP.part.nonpolar>
-35.7547

> <Gold.PLP.part.repulsive>
0.0000

> <Gold.PLP.ligand.clash>
0.0000

> <Gold.PLP.ligand.torsion>
0.1701

> <Gold.PLP.Chemscore.Hbond>
0.7389

> <Gold.PLP.Chemscore.CHOScore>
0.0000

> <Gold.PLP.Chemscore.Metal>
0.0000

> <Gold.Chemscore.Hbonds>
donor molecule, donor type, donor heavy atom, donor atom, acceptor molecule, acceptor atom, score
      P1  H  7997  8008       L1     7  0.73

> <Gold.PLP.Chemscore.Internal.Correction>
0.0356

> <Gold.Rescore>
     Score         DG    S(hbond)    S(metal)    S(lipo)     H(rot)  DE(clash)    DE(int)     intcor
     16.03     -16.50       0.67        0.00     113.01       1.73       0.24       0.23       ----

> <Gold.Chemscore.Fitness>
16.0308

> <Gold.Chemscore.DG>
-16.5010

> <Gold.Chemscore.ZeroCoef>
-5.4800

> <Gold.Chemscore.Hbond>
0.6665

> <Gold.Chemscore.Metal>
0.0000

> <Gold.Chemscore.Lipo>
113.0143

> <Gold.Chemscore.Internal_Hbond>
0.0000

> <Gold.Chemscore.DEClash>
0.2446

> <Gold.Chemscore.DEInternal>
0.2256

> <Gold.Chemscore.Rot>
1.7296

> <Gold.Chemscore.Internal.Correction>
   9.000000E+99

> <Gold.Chemscore.Hbonds>
donor molecule, donor type, donor heavy atom, donor atom, acceptor molecule, acceptor atom, score
      P1  H  7997  8008       L1     7  0.67

> <Gold.Chemscore.Hbond.Weighted>
-2.2261

> <Gold.Chemscore.Metal.Weighted>
-0.0000

> <Gold.Chemscore.Lipo.Weighted>
-13.2227

> <Gold.Chemscore.Internal_Hbond.Weighted>
0.0000

> <Gold.Chemscore.DEClash.Weighted>
0.2446

> <Gold.Chemscore.DEInternal.Weighted>
0.2256

> <Gold.Chemscore.Rot.Weighted>
4.4278

> <Gold.Chemscore.Internal.Correction.Weighted>
   9.000000E+99

> <Gold.Protein.RotatedTorsions>
[ 6907 6896 6895 6894 ] final -101.74 input  -60.11 | X-H torsion
[ 7974 7965 7964 7962 ] final  151.15 input  175.53 | X-H torsion
[ 8008 7997 7996 7995 ] final  -78.32 input   59.86 | X-H torsion
[ 10167 10162 10161 10158 ] final  103.57 input  -65.29 | X-H torsion
[ 10718 10713 10712 10709 ] final  -31.27 input   66.30 | X-H torsion
[ 10763 10752 10751 10750 ] final    5.95 input  -60.55 | X-H torsion
[ 11005 11000 10999 10996 ] final -131.08 input  -57.11 | X-H torsion

> <Gold.Protein.ActiveResidues>
 VAL166  LYS551  ARG553  GLY616  TRP617  ASP618  TYR619  PRO620  LYS621  CYS622 
 ASP623  PHE694  ASN695  SER759  ASP760  ASP761  ALA762  ILE779  LEU786  VAL792 
 PHE793  MET794  SER795  GLU796  ALA797  LYS798  CYS799  TRP800  GLU811  SER814 

> <Gold.Protein.RotatedAtoms>
  150.7167  134.0689  159.3856 H   0  0  0  0  0  0  0  0  0  0  0  0  # atno 6907 bound_to 6896
  151.8670  135.0501  160.0484 H   0  0  0  0  0  0  0  0  0  0  0  0  # atno 6908 bound_to 6896
  152.2673  133.5314  159.5454 H   0  0  0  0  0  0  0  0  0  0  0  0  # atno 6909 bound_to 6896
  144.8313  139.6500  143.6057 H   0  0  0  0  0  0  0  0  0  0  0  0  # atno 7974 bound_to 7965
  154.5678  140.0696  156.8918 H   0  0  0  0  0  0  0  0  0  0  0  0  # atno 8008 bound_to 7997
  155.2690  140.3364  155.4248 H   0  0  0  0  0  0  0  0  0  0  0  0  # atno 8009 bound_to 7997
  156.2094  140.1753  156.7713 H   0  0  0  0  0  0  0  0  0  0  0  0  # atno 8010 bound_to 7997
  139.7251  144.7049  151.0810 H   0  0  0  0  0  0  0  0  0  0  0  0  # atno 10167 bound_to 10162
  156.3894  130.4370  149.7407 H   0  0  0  0  0  0  0  0  0  0  0  0  # atno 10718 bound_to 10713
  153.2534  135.6916  153.7655 H   0  0  0  0  0  0  0  0  0  0  0  0  # atno 10763 bound_to 10752
  153.6741  135.3339  155.3162 H   0  0  0  0  0  0  0  0  0  0  0  0  # atno 10764 bound_to 10752
  154.8403  135.4507  154.1499 H   0  0  0  0  0  0  0  0  0  0  0  0  # atno 10765 bound_to 10752
  140.9290  134.1344  157.4251 H   0  0  0  0  0  0  0  0  0  0  0  0  # atno 11005 bound_to 11000
  146.2616  139.6423  142.9358 LP  0  0  0  0  0  0  0  0  0  0  0  0  # atno 17320 bound_to 7965
  145.4889  141.0438  143.2604 LP  0  0  0  0  0  0  0  0  0  0  0  0  # atno 17321 bound_to 7965
  140.7761  143.5115  150.9647 LP  0  0  0  0  0  0  0  0  0  0  0  0  # atno 17342 bound_to 10162
  139.8802  143.7081  152.3157 LP  0  0  0  0  0  0  0  0  0  0  0  0  # atno 17343 bound_to 10162
  156.4466  130.7886  151.2908 LP  0  0  0  0  0  0  0  0  0  0  0  0  # atno 17370 bound_to 10713
  157.7498  131.0108  150.3321 LP  0  0  0  0  0  0  0  0  0  0  0  0  # atno 17371 bound_to 10713
  139.8792  134.9998  156.5976 LP  0  0  0  0  0  0  0  0  0  0  0  0  # atno 17394 bound_to 11000
  140.7888  133.8599  155.8628 LP  0  0  0  0  0  0  0  0  0  0  0  0  # atno 17395 bound_to 11000

$$$$
