AV-unprocessed.smi:1774|AV-procd|sdf|7170|dock2
  -GOLD-   22720 8403D 1   1.00000     0.00000
 Structure written by MMmdl.
 46 47  0  0  0  0  0  0  0  0  2 V2000
  145.4521  134.9595  150.7270 C   0  0  0  0  0  0  0  0  0  0  0  0
  145.5078  133.4908  151.1152 C   0  0  0  0  0  0  0  0  0  0  0  0
  144.6504  132.5733  150.4713 C   0  0  0  0  0  0  0  0  0  0  0  0
  144.7040  131.2157  150.8309 C   0  0  0  0  0  0  0  0  0  0  0  0
  145.6186  130.8307  151.8259 C   0  0  0  0  0  0  0  0  0  0  0  0
  146.4412  131.7006  152.4469 N   0  0  0  0  0  0  0  0  0  0  0  0
  146.4030  133.0146  152.1106 C   0  0  0  0  0  0  0  0  0  0  0  0
  147.2382  133.9887  152.7269 N   0  0  0  0  0  0  0  0  0  0  0  0
  147.7043  134.0124  153.9881 C   0  0  0  0  0  0  0  0  0  0  0  0
  147.5001  133.1494  154.8425 O   0  0  0  0  0  0  0  0  0  0  0  0
  148.4392  135.1110  154.2156 N   0  0  0  0  0  0  0  0  0  0  0  0
  149.1010  135.4211  155.4776 C   0  0  0  0  0  0  0  0  0  0  0  0
  149.2194  136.9421  155.6990 C   0  0  0  0  0  0  0  0  0  0  0  0
  149.7297  137.6535  154.4972 N   0  3  1  0  0  0  0  0  0  0  0  0
  149.2605  139.0572  154.3972 C   0  0  0  0  0  0  0  0  0  0  0  0
  150.0417  139.9797  155.3554 C   0  0  2  0  0  0  0  0  0  0  0  0
  149.6311  141.4480  155.2026 C   0  0  0  0  0  0  0  0  0  0  0  0
  151.4309  139.8771  155.0627 O   0  0  0  0  0  0  0  0  0  0  0  0
  151.9414  138.5620  155.2549 C   0  0  2  0  0  0  0  0  0  0  0  0
  153.4488  138.5930  154.9807 C   0  0  0  0  0  0  0  0  0  0  0  0
  151.2024  137.5884  154.3115 C   0  0  0  0  0  0  0  0  0  0  0  0
  144.7227  135.1342  149.9356 H   0  0  0  0  0  0  0  0  0  0  0  0
  146.4245  135.2965  150.3663 H   0  0  0  0  0  0  0  0  0  0  0  0
  145.1690  135.5701  151.5850 H   0  0  0  0  0  0  0  0  0  0  0  0
  143.9585  132.9025  149.7100 H   0  0  0  0  0  0  0  0  0  0  0  0
  144.0613  130.4888  150.3566 H   0  0  0  0  0  0  0  0  0  0  0  0
  145.6923  129.7978  152.1326 H   0  0  0  0  0  0  0  0  0  0  0  0
  147.5099  134.7590  152.1341 H   0  0  0  0  0  0  0  0  0  0  0  0
  148.5608  135.7701  153.4602 H   0  0  0  0  0  0  0  0  0  0  0  0
  148.5550  134.9376  156.2878 H   0  0  0  0  0  0  0  0  0  0  0  0
  150.0934  134.9699  155.4603 H   0  0  0  0  0  0  0  0  0  0  0  0
  148.2257  137.3221  155.9407 H   0  0  0  0  0  0  0  0  0  0  0  0
  149.8451  137.1633  156.5632 H   0  0  0  0  0  0  0  0  0  0  0  0
  149.4079  139.3927  153.3695 H   0  0  0  0  0  0  0  0  0  0  0  0
  148.1879  139.1169  154.5856 H   0  0  0  0  0  0  0  0  0  0  0  0
  149.8679  139.6810  156.3905 H   0  0  0  0  0  0  0  0  0  0  0  0
  148.5729  141.5856  155.4265 H   0  0  0  0  0  0  0  0  0  0  0  0
  149.8078  141.8042  154.1872 H   0  0  0  0  0  0  0  0  0  0  0  0
  150.1995  142.0839  155.8819 H   0  0  0  0  0  0  0  0  0  0  0  0
  151.7933  138.2684  156.2951 H   0  0  0  0  0  0  0  0  0  0  0  0
  153.8937  137.6077  155.1228 H   0  0  0  0  0  0  0  0  0  0  0  0
  153.9535  139.2851  155.6554 H   0  0  0  0  0  0  0  0  0  0  0  0
  153.6593  138.9112  153.9591 H   0  0  0  0  0  0  0  0  0  0  0  0
  151.5732  136.5726  154.4410 H   0  0  0  0  0  0  0  0  0  0  0  0
  151.4193  137.8567  153.2765 H   0  0  0  0  0  0  0  0  0  0  0  0
  149.3189  137.1695  153.7117 H   0  0  0  0  0  0  0  0  0  0  0  0
  1  2  1  0  0  0  0
  1 22  1  0  0  0  0
  1 23  1  0  0  0  0
  1 24  1  0  0  0  0
  2  7  1  0  0  0  0
  2  3  2  0  0  0  0
  3  4  1  0  0  0  0
  3 25  1  0  0  0  0
  4  5  2  0  0  0  0
  4 26  1  0  0  0  0
  5  6  1  0  0  0  0
  5 27  1  0  0  0  0
  6  7  2  0  0  0  0
  7  8  1  0  0  0  0
  8  9  1  0  0  0  0
  8 28  1  0  0  0  0
  9 10  2  0  0  0  0
  9 11  1  0  0  0  0
 11 12  1  0  0  0  0
 11 29  1  0  0  0  0
 12 13  1  0  0  0  0
 12 30  1  0  0  0  0
 12 31  1  0  0  0  0
 13 14  1  0  0  0  0
 13 32  1  0  0  0  0
 13 33  1  0  0  0  0
 14 21  1  0  0  0  0
 14 15  1  0  0  0  0
 14 46  1  0  0  0  0
 15 16  1  0  0  0  0
 15 34  1  0  0  0  0
 15 35  1  0  0  0  0
 16 17  1  0  0  0  0
 16 18  1  0  0  0  0
 16 36  1  0  0  0  0
 17 37  1  0  0  0  0
 17 38  1  0  0  0  0
 17 39  1  0  0  0  0
 18 19  1  0  0  0  0
 19 20  1  0  0  0  0
 19 21  1  0  0  0  0
 19 40  1  0  0  0  0
 20 41  1  0  0  0  0
 20 42  1  0  0  0  0
 20 43  1  0  0  0  0
 21 44  1  0  0  0  0
 21 45  1  0  0  0  0
M  CHG  1  14   1
M  END
> <s_m_source_file>
AV-unprocessed.smi

> <i_m_source_file_index>
1774

> <i_lp_mmshare_version>
43012

> <i_f3d_flags>
0

> <s_epik_input>
W0NIM11jMVtjSF1bY0hdW2NIXW5jMVtOSF1DKD1PKVtOSF1bQ0gyXVtDSDJdTjJbQ0gyXVtDQEBIXShbQ0gzXSlPW0NAQEhdKFtDSDNdKVtDSDJdMg==

> <s_epik_cmdline>
J2VwaWtfcHl0aG9uJywgJy1waCcsICc3LjAnLCAnLXRuJywgJzgnLCAnLW1hJywgJzIwMCcsICctbWV0YWxfYmluZGluZycsICctaW1hZScsICc8aW5maWxlLm1hZT4nLCAnLW9tYWUnLCAnPG91dGZpbGUubWFlPic=

> <r_epik_Ionization_Penalty>
0.602573

> <r_epik_Ionization_Penalty_Charging>
0.602531

> <r_epik_Ionization_Penalty_Neutral>
4.21996e-05

> <r_epik_State_Penalty>
0.617039

> <r_epik_Charging_Adjusted_Penalty>
1.21957

> <i_epik_Tot_Q>
1

> <i_epik_Tot_abs_Q>
1

> <r_epik_Metal_State_Penalty>
0.617042

> <b_epik_Metal_Only>
0

> <s_lp_Force_Field>
OPLS_2005

> <r_lp_Energy>
17.7689

> <b_lp_Chiralities_Consistent>
1

> <s_lp_Variant>
AV-unprocessed.smi:1774-7

> <Gold.Version>
5.8.1

> <Gold.Id.Protein>
6NUR|6NUR_protein|mol2

> <Gold.PLP.Fitness>
51.7644

> <Gold.PLP.PLP>
-38.6792

> <Gold.PLP.part.hbond>
-3.9273

> <Gold.PLP.part.metal>
0.0000

> <Gold.PLP.part.buried>
-3.3386

> <Gold.PLP.part.nonpolar>
-31.5692

> <Gold.PLP.part.repulsive>
0.2399

> <Gold.PLP.ligand.clash>
0.0000

> <Gold.PLP.ligand.torsion>
0.7039

> <Gold.PLP.Chemscore.Hbond>
4.8160

> <Gold.PLP.Chemscore.CHOScore>
0.0000

> <Gold.PLP.Chemscore.Metal>
0.0000

> <Gold.Chemscore.Hbonds>
donor molecule, donor type, donor heavy atom, donor atom, acceptor molecule, acceptor atom, score
      L1  H     8    28       P1  7948  0.87
      L1  H    11    29       P1  7948  1.00
      L1  H    14    46       P1  7948  1.72
      P1  H  7989  7998       L1    18  1.00

> <Gold.PLP.Chemscore.Internal.Correction>
0.0450

> <Gold.Rescore>
     Score         DG    S(hbond)    S(metal)    S(lipo)     H(rot)  DE(clash)    DE(int)     intcor
     21.41     -23.57       3.30        0.00      93.14       1.49       0.37       1.79       ----

> <Gold.Chemscore.Fitness>
21.4118

> <Gold.Chemscore.DG>
-23.5692

> <Gold.Chemscore.ZeroCoef>
-5.4800

> <Gold.Chemscore.Hbond>
3.2987

> <Gold.Chemscore.Metal>
0.0000

> <Gold.Chemscore.Lipo>
93.1417

> <Gold.Chemscore.Internal_Hbond>
0.0000

> <Gold.Chemscore.DEClash>
0.3680

> <Gold.Chemscore.DEInternal>
1.7894

> <Gold.Chemscore.Rot>
1.4946

> <Gold.Chemscore.Internal.Correction>
   9.000000E+99

> <Gold.Chemscore.Hbonds>
donor molecule, donor type, donor heavy atom, donor atom, acceptor molecule, acceptor atom, score
      L1  H     8    28       P1  7948  0.66
      L1  H    11    29       P1  7948  0.97
      L1  H    14    46       P1  7948  0.82
      P1  H  7989  7998       L1    18  0.49

> <Gold.Chemscore.Hbond.Weighted>
-11.0177

> <Gold.Chemscore.Metal.Weighted>
-0.0000

> <Gold.Chemscore.Lipo.Weighted>
-10.8976

> <Gold.Chemscore.Internal_Hbond.Weighted>
0.0000

> <Gold.Chemscore.DEClash.Weighted>
0.3680

> <Gold.Chemscore.DEInternal.Weighted>
1.7894

> <Gold.Chemscore.Rot.Weighted>
3.8261

> <Gold.Chemscore.Internal.Correction.Weighted>
   9.000000E+99

> <Gold.Protein.RotatedTorsions>
[ 6907 6896 6895 6894 ] final -165.33 input  -60.11 | X-H torsion
[ 7974 7965 7964 7962 ] final -158.57 input  175.53 | X-H torsion
[ 8008 7997 7996 7995 ] final -125.69 input   59.86 | X-H torsion
[ 10167 10162 10161 10158 ] final -174.17 input  -65.29 | X-H torsion
[ 10718 10713 10712 10709 ] final   70.09 input   66.30 | X-H torsion
[ 10763 10752 10751 10750 ] final -162.84 input  -60.55 | X-H torsion
[ 11005 11000 10999 10996 ] final -127.19 input  -57.11 | X-H torsion

> <Gold.Protein.ActiveResidues>
 VAL166  LYS551  ARG553  GLY616  TRP617  ASP618  TYR619  PRO620  LYS621  CYS622 
 ASP623  PHE694  ASN695  SER759  ASP760  ASP761  ALA762  ILE779  LEU786  VAL792 
 PHE793  MET794  SER795  GLU796  ALA797  LYS798  CYS799  TRP800  GLU811  SER814 

> <Gold.Protein.RotatedAtoms>
  151.4260  133.3684  159.2762 H   0  0  0  0  0  0  0  0  0  0  0  0  # atno 6907 bound_to 6896
  150.9259  134.8677  159.7530 H   0  0  0  0  0  0  0  0  0  0  0  0  # atno 6908 bound_to 6896
  152.5005  134.4201  159.9530 H   0  0  0  0  0  0  0  0  0  0  0  0  # atno 6909 bound_to 6896
  144.7500  140.3808  143.6055 H   0  0  0  0  0  0  0  0  0  0  0  0  # atno 7974 bound_to 7965
  155.2174  140.0421  157.2943 H   0  0  0  0  0  0  0  0  0  0  0  0  # atno 8008 bound_to 7997
  154.5972  140.2442  155.7812 H   0  0  0  0  0  0  0  0  0  0  0  0  # atno 8009 bound_to 7997
  156.2297  140.2942  156.0167 H   0  0  0  0  0  0  0  0  0  0  0  0  # atno 8010 bound_to 7997
  139.5648  144.1781  152.1296 H   0  0  0  0  0  0  0  0  0  0  0  0  # atno 10167 bound_to 10162
  157.6381  130.9459  150.0603 H   0  0  0  0  0  0  0  0  0  0  0  0  # atno 10718 bound_to 10713
  154.7177  135.3019  154.9097 H   0  0  0  0  0  0  0  0  0  0  0  0  # atno 10763 bound_to 10752
  153.9978  135.6710  153.4761 H   0  0  0  0  0  0  0  0  0  0  0  0  # atno 10764 bound_to 10752
  153.0808  135.5010  154.8414 H   0  0  0  0  0  0  0  0  0  0  0  0  # atno 10765 bound_to 10752
  140.9620  134.0923  157.3959 H   0  0  0  0  0  0  0  0  0  0  0  0  # atno 11005 bound_to 11000
  145.6979  139.1654  143.2610 LP  0  0  0  0  0  0  0  0  0  0  0  0  # atno 17320 bound_to 7965
  146.1437  140.7023  142.9355 LP  0  0  0  0  0  0  0  0  0  0  0  0  # atno 17321 bound_to 7965
  140.1302  144.5295  150.6807 LP  0  0  0  0  0  0  0  0  0  0  0  0  # atno 17342 bound_to 10162
  140.6931  143.2387  151.5076 LP  0  0  0  0  0  0  0  0  0  0  0  0  # atno 17343 bound_to 10162
  156.1638  130.3644  149.9262 LP  0  0  0  0  0  0  0  0  0  0  0  0  # atno 17370 bound_to 10713
  156.7254  130.9023  151.3621 LP  0  0  0  0  0  0  0  0  0  0  0  0  # atno 17371 bound_to 10713
  139.8881  135.0095  156.6602 LP  0  0  0  0  0  0  0  0  0  0  0  0  # atno 17394 bound_to 11000
  140.7454  133.8942  155.8308 LP  0  0  0  0  0  0  0  0  0  0  0  0  # atno 17395 bound_to 11000

$$$$
