AV-unprocessed.smi:976|AV-procd|sdf|4303|dock6
  -GOLD-   22720 2213D 1   1.00000     0.00000
 Structure written by MMmdl.
 41 42  0  0  0  0  0  0  0  0  1 V2000
  146.5445  136.6037  158.0597 C   0  0  0  0  0  0  0  0  0  0  0  0
  147.7038  136.9468  159.0071 C   0  0  1  0  0  0  0  0  0  0  0  0
  147.7545  135.9335  160.0083 O   0  0  0  0  0  0  0  0  0  0  0  0
  146.5518  135.7369  160.7456 C   0  0  0  0  0  0  0  0  0  0  0  0
  146.8542  134.9027  161.9962 C   0  0  0  0  0  0  0  0  0  0  0  0
  147.6804  135.5836  162.7894 F   0  0  0  0  0  0  0  0  0  0  0  0
  145.7296  134.6509  162.6653 F   0  0  0  0  0  0  0  0  0  0  0  0
  147.4391  133.7551  161.6542 F   0  0  0  0  0  0  0  0  0  0  0  0
  149.0405  137.0208  158.2515 C   0  0  0  0  0  0  0  0  0  0  0  0
  149.9593  136.2609  158.5572 O   0  0  0  0  0  0  0  0  0  0  0  0
  149.1077  137.9422  157.2740 N   0  0  0  0  0  0  0  0  0  0  0  0
  150.2029  138.2378  156.4134 C   0  0  0  0  0  0  0  0  0  0  0  0
  151.3697  137.4366  156.3714 C   0  0  0  0  0  0  0  0  0  0  0  0
  152.4339  137.8165  155.5341 C   0  0  0  0  0  0  0  0  0  0  0  0
  152.2993  138.9926  154.7760 C   0  0  0  0  0  0  0  0  0  0  0  0
  151.2012  139.7743  154.8157 N   0  0  0  0  0  0  0  0  0  0  0  0
  150.1687  139.4141  155.6168 C   0  0  0  0  0  0  0  0  0  0  0  0
  149.0293  140.2439  155.6186 N   0  0  0  0  0  0  0  0  0  0  0  0
  148.6892  140.9097  156.8723 C   0  0  0  0  0  0  0  0  0  0  0  0
  147.3109  141.5818  156.7508 C   0  0  0  0  0  0  0  0  0  0  0  0
  147.3106  142.4765  155.6417 O   0  0  0  0  0  0  0  0  0  0  0  0
  147.5714  141.8068  154.4112 C   0  0  0  0  0  0  0  0  0  0  0  0
  148.9556  141.1383  154.4688 C   0  0  0  0  0  0  0  0  0  0  0  0
  146.4564  137.3380  157.2582 H   0  0  0  0  0  0  0  0  0  0  0  0
  145.5968  136.5900  158.5985 H   0  0  0  0  0  0  0  0  0  0  0  0
  146.6754  135.6219  157.6027 H   0  0  0  0  0  0  0  0  0  0  0  0
  147.4879  137.9086  159.4767 H   0  0  0  0  0  0  0  0  0  0  0  0
  146.1152  136.6906  161.0440 H   0  0  0  0  0  0  0  0  0  0  0  0
  145.8162  135.2209  160.1267 H   0  0  0  0  0  0  0  0  0  0  0  0
  148.2479  138.4275  157.0616 H   0  0  0  0  0  0  0  0  0  0  0  0
  151.4742  136.5513  156.9797 H   0  0  0  0  0  0  0  0  0  0  0  0
  153.3354  137.2244  155.4813 H   0  0  0  0  0  0  0  0  0  0  0  0
  153.0966  139.3187  154.1245 H   0  0  0  0  0  0  0  0  0  0  0  0
  148.6819  140.1855  157.6878 H   0  0  0  0  0  0  0  0  0  0  0  0
  149.4447  141.6603  157.1091 H   0  0  0  0  0  0  0  0  0  0  0  0
  146.5237  140.8359  156.6296 H   0  0  0  0  0  0  0  0  0  0  0  0
  147.0842  142.1408  157.6588 H   0  0  0  0  0  0  0  0  0  0  0  0
  146.7918  141.0693  154.2133 H   0  0  0  0  0  0  0  0  0  0  0  0
  147.5380  142.5318  153.5980 H   0  0  0  0  0  0  0  0  0  0  0  0
  149.7338  141.8976  154.5587 H   0  0  0  0  0  0  0  0  0  0  0  0
  149.1445  140.5982  153.5411 H   0  0  0  0  0  0  0  0  0  0  0  0
  1  2  1  0  0  0  0
  1 24  1  0  0  0  0
  1 25  1  0  0  0  0
  1 26  1  0  0  0  0
  2  3  1  0  0  0  0
  2  9  1  0  0  0  0
  2 27  1  0  0  0  0
  3  4  1  0  0  0  0
  4  5  1  0  0  0  0
  4 28  1  0  0  0  0
  4 29  1  0  0  0  0
  5  6  1  0  0  0  0
  5  7  1  0  0  0  0
  5  8  1  0  0  0  0
  9 10  2  0  0  0  0
  9 11  1  0  0  0  0
 11 12  1  0  0  0  0
 11 30  1  0  0  0  0
 12 17  1  0  0  0  0
 12 13  2  0  0  0  0
 13 14  1  0  0  0  0
 13 31  1  0  0  0  0
 14 15  2  0  0  0  0
 14 32  1  0  0  0  0
 15 16  1  0  0  0  0
 15 33  1  0  0  0  0
 16 17  2  0  0  0  0
 17 18  1  0  0  0  0
 18 23  1  0  0  0  0
 18 19  1  0  0  0  0
 19 20  1  0  0  0  0
 19 34  1  0  0  0  0
 19 35  1  0  0  0  0
 20 21  1  0  0  0  0
 20 36  1  0  0  0  0
 20 37  1  0  0  0  0
 21 22  1  0  0  0  0
 22 23  1  0  0  0  0
 22 38  1  0  0  0  0
 22 39  1  0  0  0  0
 23 40  1  0  0  0  0
 23 41  1  0  0  0  0
M  END
> <s_m_source_file>
AV-unprocessed.smi

> <i_m_source_file_index>
976

> <i_lp_mmshare_version>
43012

> <i_f3d_flags>
0

> <s_epik_input>
RkMoRikoRilbQ0gyXU9bQ0BASF0oW0NIM10pQyg9TylbTkhdYzFbY0hdW2NIXVtjSF1uYzFOMltDSDJdW0NIMl1PW0NIMl1bQ0gyXTI=

> <s_epik_cmdline>
J2VwaWtfcHl0aG9uJywgJy1waCcsICc3LjAnLCAnLXRuJywgJzgnLCAnLW1hJywgJzIwMCcsICctbWV0YWxfYmluZGluZycsICctaW1hZScsICc8aW5maWxlLm1hZT4nLCAnLW9tYWUnLCAnPG91dGZpbGUubWFlPic=

> <r_lp_tautomer_probability>
1

> <r_epik_Ionization_Penalty>
0.000443367

> <r_epik_Ionization_Penalty_Charging>
0

> <r_epik_Ionization_Penalty_Neutral>
0.000443367

> <r_epik_State_Penalty>
0.00027288

> <r_epik_Charging_Adjusted_Penalty>
0.00027288

> <i_epik_Tot_Q>
0

> <i_epik_Tot_abs_Q>
0

> <r_epik_Metal_State_Penalty>
-0

> <b_epik_Metal_Only>
0

> <s_lp_Force_Field>
OPLS_2005

> <r_lp_Energy>
26.1197

> <b_lp_Chiralities_Consistent>
1

> <s_lp_Variant>
AV-unprocessed.smi:976-2

> <Gold.Version>
5.8.1

> <Gold.Id.Protein>
6NUR|6NUR_protein|mol2

> <Gold.PLP.Fitness>
41.6871

> <Gold.PLP.PLP>
-36.1661

> <Gold.PLP.part.hbond>
-2.0000

> <Gold.PLP.part.metal>
0.0000

> <Gold.PLP.part.buried>
-6.5739

> <Gold.PLP.part.nonpolar>
-29.2407

> <Gold.PLP.part.repulsive>
1.4195

> <Gold.PLP.ligand.clash>
0.0000

> <Gold.PLP.ligand.torsion>
0.3581

> <Gold.PLP.Chemscore.Hbond>
2.0000

> <Gold.PLP.Chemscore.CHOScore>
0.0000

> <Gold.PLP.Chemscore.Metal>
0.0000

> <Gold.Chemscore.Hbonds>
donor molecule, donor type, donor heavy atom, donor atom, acceptor molecule, acceptor atom, score
      P1  H  6896  6909       L1    10  1.00
      P1  H  7989  7998       L1    16  0.85

> <Gold.PLP.Chemscore.Internal.Correction>
0.2371

> <Gold.Rescore>
     Score         DG    S(hbond)    S(metal)    S(lipo)     H(rot)  DE(clash)    DE(int)     intcor
     11.92     -13.85       1.86        0.00      61.22       1.95       0.11       1.82       ----

> <Gold.Chemscore.Fitness>
11.9168

> <Gold.Chemscore.DG>
-13.8523

> <Gold.Chemscore.ZeroCoef>
-5.4800

> <Gold.Chemscore.Hbond>
1.8560

> <Gold.Chemscore.Metal>
0.0000

> <Gold.Chemscore.Lipo>
61.2229

> <Gold.Chemscore.Internal_Hbond>
0.0000

> <Gold.Chemscore.DEClash>
0.1108

> <Gold.Chemscore.DEInternal>
1.8246

> <Gold.Chemscore.Rot>
1.9491

> <Gold.Chemscore.Internal.Correction>
   9.000000E+99

> <Gold.Chemscore.Hbonds>
donor molecule, donor type, donor heavy atom, donor atom, acceptor molecule, acceptor atom, score
      P1  H  6896  6909       L1    10  0.95
      P1  H  7989  7998       L1    16  0.15

> <Gold.Chemscore.Hbond.Weighted>
-6.1990

> <Gold.Chemscore.Metal.Weighted>
-0.0000

> <Gold.Chemscore.Lipo.Weighted>
-7.1631

> <Gold.Chemscore.Internal_Hbond.Weighted>
0.0000

> <Gold.Chemscore.DEClash.Weighted>
0.1108

> <Gold.Chemscore.DEInternal.Weighted>
1.8246

> <Gold.Chemscore.Rot.Weighted>
4.9897

> <Gold.Chemscore.Internal.Correction.Weighted>
   9.000000E+99

> <Gold.Protein.RotatedTorsions>
[ 6907 6896 6895 6894 ] final   66.78 input  -60.11 | X-H torsion
[ 7974 7965 7964 7962 ] final -158.89 input  175.53 | X-H torsion
[ 8008 7997 7996 7995 ] final    1.22 input   59.86 | X-H torsion
[ 10167 10162 10161 10158 ] final  162.97 input  -65.29 | X-H torsion
[ 10718 10713 10712 10709 ] final   70.40 input   66.30 | X-H torsion
[ 10763 10752 10751 10750 ] final  107.32 input  -60.55 | X-H torsion
[ 11005 11000 10999 10996 ] final -138.92 input  -57.11 | X-H torsion

> <Gold.Protein.ActiveResidues>
 VAL166  LYS551  ARG553  GLY616  TRP617  ASP618  TYR619  PRO620  LYS621  CYS622 
 ASP623  PHE694  ASN695  SER759  ASP760  ASP761  ALA762  ILE779  LEU786  VAL792 
 PHE793  MET794  SER795  GLU796  ALA797  LYS798  CYS799  TRP800  GLU811  SER814 

> <Gold.Protein.RotatedAtoms>
  152.4505  134.5403  159.9836 H   0  0  0  0  0  0  0  0  0  0  0  0  # atno 6907 bound_to 6896
  151.5476  133.3417  159.2955 H   0  0  0  0  0  0  0  0  0  0  0  0  # atno 6908 bound_to 6896
  150.8433  134.7765  159.7013 H   0  0  0  0  0  0  0  0  0  0  0  0  # atno 6909 bound_to 6896
  144.7487  140.3763  143.6065 H   0  0  0  0  0  0  0  0  0  0  0  0  # atno 7974 bound_to 7965
  154.6771  140.2624  155.6946 H   0  0  0  0  0  0  0  0  0  0  0  0  # atno 8008 bound_to 7997
  156.2682  140.2817  156.1225 H   0  0  0  0  0  0  0  0  0  0  0  0  # atno 8009 bound_to 7997
  155.1084  140.0375  157.2707 H   0  0  0  0  0  0  0  0  0  0  0  0  # atno 8010 bound_to 7997
  139.4867  144.4384  151.8983 H   0  0  0  0  0  0  0  0  0  0  0  0  # atno 10167 bound_to 10162
  157.6398  130.9475  150.0646 H   0  0  0  0  0  0  0  0  0  0  0  0  # atno 10718 bound_to 10713
  153.4051  135.3848  155.2013 H   0  0  0  0  0  0  0  0  0  0  0  0  # atno 10763 bound_to 10752
  154.8733  135.3780  154.4571 H   0  0  0  0  0  0  0  0  0  0  0  0  # atno 10764 bound_to 10752
  153.5072  135.7087  153.5862 H   0  0  0  0  0  0  0  0  0  0  0  0  # atno 10765 bound_to 10752
  140.8569  134.2216  157.4729 H   0  0  0  0  0  0  0  0  0  0  0  0  # atno 11005 bound_to 11000
  145.7024  139.1664  143.2585 LP  0  0  0  0  0  0  0  0  0  0  0  0  # atno 17320 bound_to 7965
  146.1406  140.7063  142.9369 LP  0  0  0  0  0  0  0  0  0  0  0  0  # atno 17321 bound_to 7965
  140.3834  144.2707  150.5906 LP  0  0  0  0  0  0  0  0  0  0  0  0  # atno 17342 bound_to 10162
  140.5212  143.2265  151.8386 LP  0  0  0  0  0  0  0  0  0  0  0  0  # atno 17343 bound_to 10162
  156.1668  130.3645  149.9221 LP  0  0  0  0  0  0  0  0  0  0  0  0  # atno 17370 bound_to 10713
  156.7206  130.9005  151.3618 LP  0  0  0  0  0  0  0  0  0  0  0  0  # atno 17371 bound_to 10713
  139.8705  134.9711  156.4724 LP  0  0  0  0  0  0  0  0  0  0  0  0  # atno 17394 bound_to 11000
  140.8727  133.7976  155.9381 LP  0  0  0  0  0  0  0  0  0  0  0  0  # atno 17395 bound_to 11000

$$$$
