AV-unprocessed.smi:3330|AV-procd|sdf|12809|dock4
  -GOLD-   2272019173D 1   1.00000     0.00000
 Structure written by MMmdl.
 38 39  0  0  0  0  0  0  0  0  3 V2000
  151.8418  141.2434  158.0989 C   0  0  0  0  0  0  0  0  0  0  0  0
  150.8242  142.3652  157.8329 C   0  0  2  0  0  0  0  0  0  0  0  0
  150.4743  142.3417  156.3946 N   0  3  0  0  0  0  0  0  0  0  0  0
  149.7299  141.1463  155.9452 C   0  0  0  0  0  0  0  0  0  0  0  0
  150.2626  140.6106  154.6036 C   0  0  0  0  0  0  0  0  0  0  0  0
  150.8144  139.2545  154.7203 N   0  0  0  0  0  0  0  0  0  0  0  0
  150.0908  138.1321  154.6520 C   0  0  0  0  0  0  0  0  0  0  0  0
  148.8762  138.0269  154.4830 O   0  0  0  0  0  0  0  0  0  0  0  0
  151.0431  136.9671  154.7839 C   0  0  0  0  0  0  0  0  0  0  0  0
  152.3219  137.6285  154.9095 N   0  5  0  0  0  0  0  0  0  0  0  0
  152.1213  138.9657  154.8686 C   0  0  0  0  0  0  0  0  0  0  0  0
  152.9813  139.8427  154.9397 O   0  0  0  0  0  0  0  0  0  0  0  0
  151.3537  143.7671  158.2404 C   0  0  2  0  0  0  0  0  0  0  0  0
  152.6339  144.1774  157.4871 C   0  0  0  0  0  0  0  0  0  0  0  0
  151.5768  143.8585  159.6791 N   0  0  0  0  0  0  0  0  0  0  0  0
  151.3957  144.9507  160.5029 C   0  0  0  0  0  0  0  0  0  0  0  0
  151.7230  144.5652  161.7712 C   0  0  0  0  0  0  0  0  0  0  0  0
  152.1004  143.2016  161.6236 C   0  0  0  0  0  0  0  0  0  0  0  0
  152.0110  142.7814  160.3723 N   0  0  0  0  0  0  0  0  0  0  0  0
  152.0498  141.1287  159.1624 H   0  0  0  0  0  0  0  0  0  0  0  0
  152.7873  141.4337  157.5897 H   0  0  0  0  0  0  0  0  0  0  0  0
  151.4633  140.2835  157.7454 H   0  0  0  0  0  0  0  0  0  0  0  0
  149.9326  142.1403  158.4212 H   0  0  0  0  0  0  0  0  0  0  0  0
  149.9296  143.1640  156.1784 H   0  0  0  0  0  0  0  0  0  0  0  0
  149.8115  140.3730  156.7101 H   0  0  0  0  0  0  0  0  0  0  0  0
  148.6713  141.3867  155.8488 H   0  0  0  0  0  0  0  0  0  0  0  0
  149.4632  140.6161  153.8611 H   0  0  0  0  0  0  0  0  0  0  0  0
  151.0215  141.2931  154.2175 H   0  0  0  0  0  0  0  0  0  0  0  0
  150.7792  136.3680  155.6562 H   0  0  0  0  0  0  0  0  0  0  0  0
  150.9732  136.3292  153.9022 H   0  0  0  0  0  0  0  0  0  0  0  0
  150.5856  144.5022  157.9943 H   0  0  0  0  0  0  0  0  0  0  0  0
  152.4510  144.3035  156.4204 H   0  0  0  0  0  0  0  0  0  0  0  0
  153.4240  143.4350  157.6048 H   0  0  0  0  0  0  0  0  0  0  0  0
  153.0165  145.1293  157.8572 H   0  0  0  0  0  0  0  0  0  0  0  0
  151.0521  145.9019  160.1233 H   0  0  0  0  0  0  0  0  0  0  0  0
  151.6993  145.1662  162.6683 H   0  0  0  0  0  0  0  0  0  0  0  0
  152.4334  142.5096  162.3829 H   0  0  0  0  0  0  0  0  0  0  0  0
  151.3331  142.3815  155.8643 H   0  0  0  0  0  0  0  0  0  0  0  0
  1  2  1  0  0  0  0
  1 20  1  0  0  0  0
  1 21  1  0  0  0  0
  1 22  1  0  0  0  0
  2  3  1  0  0  0  0
  2 13  1  0  0  0  0
  2 23  1  0  0  0  0
  3  4  1  0  0  0  0
  3 24  1  0  0  0  0
  3 38  1  0  0  0  0
  4  5  1  0  0  0  0
  4 25  1  0  0  0  0
  4 26  1  0  0  0  0
  5  6  1  0  0  0  0
  5 27  1  0  0  0  0
  5 28  1  0  0  0  0
  6 11  1  0  0  0  0
  6  7  1  0  0  0  0
  7  8  2  0  0  0  0
  7  9  1  0  0  0  0
  9 10  1  0  0  0  0
  9 29  1  0  0  0  0
  9 30  1  0  0  0  0
 10 11  1  0  0  0  0
 11 12  2  0  0  0  0
 13 14  1  0  0  0  0
 13 15  1  0  0  0  0
 13 31  1  0  0  0  0
 14 32  1  0  0  0  0
 14 33  1  0  0  0  0
 14 34  1  0  0  0  0
 15 19  1  0  0  0  0
 15 16  1  0  0  0  0
 16 17  2  0  0  0  0
 16 35  1  0  0  0  0
 17 18  1  0  0  0  0
 17 36  1  0  0  0  0
 18 19  2  0  0  0  0
 18 37  1  0  0  0  0
M  CHG  1   3   1
M  CHG  1  10  -1
M  END
> <s_m_source_file>
AV-unprocessed.smi

> <i_m_source_file_index>
3330

> <i_lp_mmshare_version>
43012

> <i_f3d_flags>
0

> <s_epik_input>
bjFbY0hdW2NIXVtjSF1uMVtDQEBIXShbQ0gzXSlbQ0BIXShbQ0gzXSlbTkhdW0NIMl1bQ0gyXU4yQyg9TylbQ0gyXVtOSF1DMj1P

> <s_epik_cmdline>
J2VwaWtfcHl0aG9uJywgJy1waCcsICc3LjAnLCAnLXRuJywgJzgnLCAnLW1hJywgJzIwMCcsICctbWV0YWxfYmluZGluZycsICctaW1hZScsICc8aW5maWxlLm1hZT4nLCAnLW9tYWUnLCAnPG91dGZpbGUubWFlPic=

> <r_lp_tautomer_probability>
1

> <r_epik_Ionization_Penalty>
5.18149

> <r_epik_Ionization_Penalty_Charging>
5.18148

> <r_epik_Ionization_Penalty_Neutral>
9.83265e-06

> <r_epik_State_Penalty>
5.18201

> <r_epik_Charging_Adjusted_Penalty>
10.3635

> <i_epik_Tot_Q>
0

> <i_epik_Tot_abs_Q>
2

> <r_epik_Metal_State_Penalty>
1.25422

> <b_epik_Metal_Only>
1

> <s_lp_Force_Field>
OPLS_2005

> <r_lp_Energy>
23.9108

> <b_lp_Chiralities_Consistent>
1

> <s_lp_Variant>
AV-unprocessed.smi:3330-9

> <Gold.Version>
5.8.1

> <Gold.Id.Protein>
6NUR|6NUR_protein|mol2

> <Gold.PLP.Fitness>
48.0961

> <Gold.PLP.PLP>
-39.7145

> <Gold.PLP.part.hbond>
-3.8561

> <Gold.PLP.part.metal>
0.0000

> <Gold.PLP.part.buried>
-3.9447

> <Gold.PLP.part.nonpolar>
-33.0338

> <Gold.PLP.part.repulsive>
0.3726

> <Gold.PLP.ligand.clash>
0.0000

> <Gold.PLP.ligand.torsion>
1.7946

> <Gold.PLP.Chemscore.Hbond>
3.9090

> <Gold.PLP.Chemscore.CHOScore>
0.0000

> <Gold.PLP.Chemscore.Metal>
0.0000

> <Gold.Chemscore.Hbonds>
donor molecule, donor type, donor heavy atom, donor atom, acceptor molecule, acceptor atom, score
      L1  H     3    24       P1  8028  2.00
      P1  H  7989  7998       L1    12  0.05
      P1  H  7997  8008       L1    12  1.00
      P1  H 10752 10765       L1    10  0.04

> <Gold.PLP.Chemscore.Internal.Correction>
0.2438

> <Gold.Rescore>
     Score         DG    S(hbond)    S(metal)    S(lipo)     H(rot)  DE(clash)    DE(int)     intcor
     11.81     -17.28       1.99        0.00     100.74       2.59       2.79       2.68       ----

> <Gold.Chemscore.Fitness>
11.8128

> <Gold.Chemscore.DG>
-17.2794

> <Gold.Chemscore.ZeroCoef>
-5.4800

> <Gold.Chemscore.Hbond>
1.9892

> <Gold.Chemscore.Metal>
0.0000

> <Gold.Chemscore.Lipo>
100.7401

> <Gold.Chemscore.Internal_Hbond>
0.0000

> <Gold.Chemscore.DEClash>
2.7881

> <Gold.Chemscore.DEInternal>
2.6785

> <Gold.Chemscore.Rot>
2.5903

> <Gold.Chemscore.Internal.Correction>
   9.000000E+99

> <Gold.Chemscore.Hbonds>
donor molecule, donor type, donor heavy atom, donor atom, acceptor molecule, acceptor atom, score
      L1  H     3    24       P1  8028  0.99
      P1  H  7997  8008       L1    12  1.00

> <Gold.Chemscore.Hbond.Weighted>
-6.6439

> <Gold.Chemscore.Metal.Weighted>
-0.0000

> <Gold.Chemscore.Lipo.Weighted>
-11.7866

> <Gold.Chemscore.Internal_Hbond.Weighted>
0.0000

> <Gold.Chemscore.DEClash.Weighted>
2.7881

> <Gold.Chemscore.DEInternal.Weighted>
2.6785

> <Gold.Chemscore.Rot.Weighted>
6.6311

> <Gold.Chemscore.Internal.Correction.Weighted>
   9.000000E+99

> <Gold.Protein.RotatedTorsions>
[ 6907 6896 6895 6894 ] final  -59.88 input  -60.11 | X-H torsion
[ 7974 7965 7964 7962 ] final   69.87 input  175.53 | X-H torsion
[ 8008 7997 7996 7995 ] final  -10.82 input   59.86 | X-H torsion
[ 10167 10162 10161 10158 ] final -126.85 input  -65.29 | X-H torsion
[ 10718 10713 10712 10709 ] final  146.33 input   66.30 | X-H torsion
[ 10763 10752 10751 10750 ] final  157.05 input  -60.55 | X-H torsion
[ 11005 11000 10999 10996 ] final  103.77 input  -57.11 | X-H torsion

> <Gold.Protein.ActiveResidues>
 VAL166  LYS551  ARG553  GLY616  TRP617  ASP618  TYR619  PRO620  LYS621  CYS622 
 ASP623  PHE694  ASN695  SER759  ASP760  ASP761  ALA762  ILE779  LEU786  VAL792 
 PHE793  MET794  SER795  GLU796  ALA797  LYS798  CYS799  TRP800  GLU811  SER814 

> <Gold.Protein.RotatedAtoms>
  150.7897  134.6910  159.6496 H   0  0  0  0  0  0  0  0  0  0  0  0  # atno 6907 bound_to 6896
  152.4000  134.6299  160.0082 H   0  0  0  0  0  0  0  0  0  0  0  0  # atno 6908 bound_to 6896
  151.6573  133.3281  159.3202 H   0  0  0  0  0  0  0  0  0  0  0  0  # atno 6909 bound_to 6896
  145.7852  139.2907  143.1242 H   0  0  0  0  0  0  0  0  0  0  0  0  # atno 7974 bound_to 7965
  154.5520  140.2319  155.8470 H   0  0  0  0  0  0  0  0  0  0  0  0  # atno 8008 bound_to 7997
  156.1955  140.3066  155.9379 H   0  0  0  0  0  0  0  0  0  0  0  0  # atno 8009 bound_to 7997
  155.3053  140.0433  157.3022 H   0  0  0  0  0  0  0  0  0  0  0  0  # atno 8010 bound_to 7997
  139.9671  143.5886  152.2425 H   0  0  0  0  0  0  0  0  0  0  0  0  # atno 10167 bound_to 10162
  157.3345  131.0926  151.1135 H   0  0  0  0  0  0  0  0  0  0  0  0  # atno 10718 bound_to 10713
  154.1941  135.2793  155.3012 H   0  0  0  0  0  0  0  0  0  0  0  0  # atno 10763 bound_to 10752
  154.5906  135.5561  153.7277 H   0  0  0  0  0  0  0  0  0  0  0  0  # atno 10764 bound_to 10752
  153.0104  135.6367  154.2080 H   0  0  0  0  0  0  0  0  0  0  0  0  # atno 10765 bound_to 10752
  139.8786  134.9276  156.5260 H   0  0  0  0  0  0  0  0  0  0  0  0  # atno 11005 bound_to 11000
  146.0033  140.8500  143.0007 LP  0  0  0  0  0  0  0  0  0  0  0  0  # atno 17320 bound_to 7965
  144.6790  140.2384  143.7347 LP  0  0  0  0  0  0  0  0  0  0  0  0  # atno 17321 bound_to 7965
  139.6509  144.7660  151.2149 LP  0  0  0  0  0  0  0  0  0  0  0  0  # atno 17342 bound_to 10162
  140.7534  143.6162  150.8557 LP  0  0  0  0  0  0  0  0  0  0  0  0  # atno 17343 bound_to 10162
  157.2370  130.6552  149.5873 LP  0  0  0  0  0  0  0  0  0  0  0  0  # atno 17370 bound_to 10713
  155.9700  130.4580  150.5984 LP  0  0  0  0  0  0  0  0  0  0  0  0  # atno 17371 bound_to 10713
  140.8415  133.8201  155.9080 LP  0  0  0  0  0  0  0  0  0  0  0  0  # atno 17394 bound_to 11000
  140.9232  134.2115  157.4913 LP  0  0  0  0  0  0  0  0  0  0  0  0  # atno 17395 bound_to 11000

$$$$
