AV-unprocessed.smi:2061|AV-procd|sdf|8375|dock1
  -GOLD-   2272011 53D 1   1.00000     0.00000
 Structure written by MMmdl.
 44 45  0  0  0  0  0  0  0  0  2 V2000
  145.3268  134.0656  162.7957 C   0  0  0  0  0  0  0  0  0  0  0  0
  146.2945  134.8081  161.9392 C   0  0  0  0  0  0  0  0  0  0  0  0
  146.6438  136.1263  161.8632 C   0  0  0  0  0  0  0  0  0  0  0  0
  147.6272  136.1428  160.8365 C   0  0  0  0  0  0  0  0  0  0  0  0
  148.2719  137.2270  160.3785 N   0  5  0  0  0  0  0  0  0  0  0  0
  149.2337  137.1006  159.4351 C   0  0  0  0  0  0  0  0  0  0  0  0
  149.6826  136.0429  158.9880 O   0  0  0  0  0  0  0  0  0  0  0  0
  149.7079  138.2747  158.9923 N   0  0  0  0  0  0  0  0  0  0  0  0
  150.7484  138.4712  157.9841 C   0  0  0  0  0  0  0  0  0  0  0  0
  150.8941  139.9557  157.5429 C   0  0  1  0  0  0  0  0  0  0  0  0
  149.5276  140.4651  157.0170 C   0  0  0  0  0  0  0  0  0  0  0  0
  151.4612  140.8278  158.5997 N   0  0  0  0  0  0  0  0  0  0  0  0
  151.6375  142.2135  158.1512 C   0  0  0  0  0  0  0  0  0  0  0  0
  152.2444  143.1243  159.2354 C   0  0  2  0  0  0  0  0  0  0  0  0
  152.4927  144.5475  158.7241 C   0  0  0  0  0  0  0  0  0  0  0  0
  153.4884  142.5809  159.6584 O   0  0  0  0  0  0  0  0  0  0  0  0
  153.3610  141.2638  160.1787 C   0  0  2  0  0  0  0  0  0  0  0  0
  154.7471  140.7890  160.6275 C   0  0  0  0  0  0  0  0  0  0  0  0
  152.7544  140.3476  159.0986 C   0  0  0  0  0  0  0  0  0  0  0  0
  147.8426  134.9432  160.3229 N   0  0  0  0  0  0  0  0  0  0  0  0
  146.9960  134.0803  161.0290 O   0  0  0  0  0  0  0  0  0  0  0  0
  144.3014  134.3026  162.5121 H   0  0  0  0  0  0  0  0  0  0  0  0
  145.4580  134.3311  163.8448 H   0  0  0  0  0  0  0  0  0  0  0  0
  145.4639  132.9881  162.7009 H   0  0  0  0  0  0  0  0  0  0  0  0
  146.2616  136.9481  162.4498 H   0  0  0  0  0  0  0  0  0  0  0  0
  149.3070  139.1095  159.3936 H   0  0  0  0  0  0  0  0  0  0  0  0
  151.7124  138.0820  158.3151 H   0  0  0  0  0  0  0  0  0  0  0  0
  150.4352  137.8422  157.1533 H   0  0  0  0  0  0  0  0  0  0  0  0
  151.5818  139.9667  156.6956 H   0  0  0  0  0  0  0  0  0  0  0  0
  149.1042  139.8086  156.2582 H   0  0  0  0  0  0  0  0  0  0  0  0
  149.6030  141.4368  156.5317 H   0  0  0  0  0  0  0  0  0  0  0  0
  148.7995  140.5444  157.8248 H   0  0  0  0  0  0  0  0  0  0  0  0
  152.2686  142.2347  157.2611 H   0  0  0  0  0  0  0  0  0  0  0  0
  150.6803  142.6489  157.8709 H   0  0  0  0  0  0  0  0  0  0  0  0
  151.5687  143.1740  160.0910 H   0  0  0  0  0  0  0  0  0  0  0  0
  151.5636  145.0143  158.3961 H   0  0  0  0  0  0  0  0  0  0  0  0
  153.1844  144.5485  157.8811 H   0  0  0  0  0  0  0  0  0  0  0  0
  152.9207  145.1737  159.5072 H   0  0  0  0  0  0  0  0  0  0  0  0
  152.7019  141.2882  161.0484 H   0  0  0  0  0  0  0  0  0  0  0  0
  154.7001  139.7851  161.0502 H   0  0  0  0  0  0  0  0  0  0  0  0
  155.1585  141.4517  161.3893 H   0  0  0  0  0  0  0  0  0  0  0  0
  155.4464  140.7677  159.7911 H   0  0  0  0  0  0  0  0  0  0  0  0
  152.6494  139.3620  159.5474 H   0  0  0  0  0  0  0  0  0  0  0  0
  153.4546  140.2466  158.2676 H   0  0  0  0  0  0  0  0  0  0  0  0
  1  2  1  0  0  0  0
  1 22  1  0  0  0  0
  1 23  1  0  0  0  0
  1 24  1  0  0  0  0
  2 21  1  0  0  0  0
  2  3  2  0  0  0  0
  3  4  1  0  0  0  0
  3 25  1  0  0  0  0
  4  5  1  0  0  0  0
  4 20  2  0  0  0  0
  5  6  1  0  0  0  0
  6  7  2  0  0  0  0
  6  8  1  0  0  0  0
  8  9  1  0  0  0  0
  8 26  1  0  0  0  0
  9 10  1  0  0  0  0
  9 27  1  0  0  0  0
  9 28  1  0  0  0  0
 10 11  1  0  0  0  0
 10 12  1  0  0  0  0
 10 29  1  0  0  0  0
 11 30  1  0  0  0  0
 11 31  1  0  0  0  0
 11 32  1  0  0  0  0
 12 19  1  0  0  0  0
 12 13  1  0  0  0  0
 13 14  1  0  0  0  0
 13 33  1  0  0  0  0
 13 34  1  0  0  0  0
 14 15  1  0  0  0  0
 14 16  1  0  0  0  0
 14 35  1  0  0  0  0
 15 36  1  0  0  0  0
 15 37  1  0  0  0  0
 15 38  1  0  0  0  0
 16 17  1  0  0  0  0
 17 18  1  0  0  0  0
 17 19  1  0  0  0  0
 17 39  1  0  0  0  0
 18 40  1  0  0  0  0
 18 41  1  0  0  0  0
 18 42  1  0  0  0  0
 19 43  1  0  0  0  0
 19 44  1  0  0  0  0
 20 21  1  0  0  0  0
M  CHG  1   5  -1
M  END
> <s_m_source_file>
AV-unprocessed.smi

> <i_m_source_file_index>
2061

> <i_lp_mmshare_version>
43012

> <i_f3d_flags>
0

> <s_epik_input>
W0NIM11jMVtjSF1jKG5vMSlbTkhdQyg9TylbTkhdW0NIMl1bQ0BIXShbQ0gzXSlOMltDSDJdW0NAQEhdKFtDSDNdKU9bQ0BASF0oW0NIM10pW0NIMl0y

> <s_epik_cmdline>
J2VwaWtfcHl0aG9uJywgJy1waCcsICc3LjAnLCAnLXRuJywgJzgnLCAnLW1hJywgJzIwMCcsICctbWV0YWxfYmluZGluZycsICctaW1hZScsICc8aW5maWxlLm1hZT4nLCAnLW9tYWUnLCAnPG91dGZpbGUubWFlPic=

> <r_epik_Ionization_Penalty>
6.88367

> <r_epik_Ionization_Penalty_Charging>
6.57198

> <r_epik_Ionization_Penalty_Neutral>
0.311681

> <r_epik_State_Penalty>
6.77619

> <r_epik_Charging_Adjusted_Penalty>
13.3482

> <i_epik_Tot_Q>
-1

> <i_epik_Tot_abs_Q>
1

> <r_epik_Metal_State_Penalty>
2.70524

> <b_epik_Metal_Only>
1

> <s_lp_Force_Field>
OPLS_2005

> <r_lp_Energy>
21.0449

> <b_lp_Chiralities_Consistent>
1

> <s_lp_Variant>
AV-unprocessed.smi:2061-16

> <Gold.Version>
5.8.1

> <Gold.Id.Protein>
6NUR|6NUR_protein|mol2

> <Gold.PLP.Fitness>
47.1016

> <Gold.PLP.PLP>
-37.6953

> <Gold.PLP.part.hbond>
-3.0000

> <Gold.PLP.part.metal>
0.0000

> <Gold.PLP.part.buried>
-5.8165

> <Gold.PLP.part.nonpolar>
-30.3792

> <Gold.PLP.part.repulsive>
0.2370

> <Gold.PLP.ligand.clash>
0.0000

> <Gold.PLP.ligand.torsion>
0.0853

> <Gold.PLP.Chemscore.Hbond>
3.1584

> <Gold.PLP.Chemscore.CHOScore>
0.0000

> <Gold.PLP.Chemscore.Metal>
0.0000

> <Gold.Chemscore.Hbonds>
donor molecule, donor type, donor heavy atom, donor atom, acceptor molecule, acceptor atom, score
      P1  H  6896  6907       L1     7  1.00
      P1  H  6931  6943       L1     5  1.38
      P1  H  6934  6947       L1     5  0.85

> <Gold.PLP.Chemscore.Internal.Correction>
0.1017

> <Gold.Rescore>
     Score         DG    S(hbond)    S(metal)    S(lipo)     H(rot)  DE(clash)    DE(int)     intcor
     16.79     -18.69       1.81        0.00      94.51       1.52       0.07       1.83       ----

> <Gold.Chemscore.Fitness>
16.7939

> <Gold.Chemscore.DG>
-18.6872

> <Gold.Chemscore.ZeroCoef>
-5.4800

> <Gold.Chemscore.Hbond>
1.8078

> <Gold.Chemscore.Metal>
0.0000

> <Gold.Chemscore.Lipo>
94.5120

> <Gold.Chemscore.Internal_Hbond>
0.0000

> <Gold.Chemscore.DEClash>
0.0650

> <Gold.Chemscore.DEInternal>
1.8282

> <Gold.Chemscore.Rot>
1.5190

> <Gold.Chemscore.Internal.Correction>
   9.000000E+99

> <Gold.Chemscore.Hbonds>
donor molecule, donor type, donor heavy atom, donor atom, acceptor molecule, acceptor atom, score
      P1  H  6896  6907       L1     7  1.00
      P1  H  6931  6943       L1     5  0.32
      P1  H  6934  6947       L1     5  0.32

> <Gold.Chemscore.Hbond.Weighted>
-6.0379

> <Gold.Chemscore.Metal.Weighted>
-0.0000

> <Gold.Chemscore.Lipo.Weighted>
-11.0579

> <Gold.Chemscore.Internal_Hbond.Weighted>
0.0000

> <Gold.Chemscore.DEClash.Weighted>
0.0650

> <Gold.Chemscore.DEInternal.Weighted>
1.8282

> <Gold.Chemscore.Rot.Weighted>
3.8886

> <Gold.Chemscore.Internal.Correction.Weighted>
   9.000000E+99

> <Gold.Protein.RotatedTorsions>
[ 6907 6896 6895 6894 ] final  -66.57 input  -60.11 | X-H torsion
[ 7974 7965 7964 7962 ] final  134.76 input  175.53 | X-H torsion
[ 8008 7997 7996 7995 ] final   54.74 input   59.86 | X-H torsion
[ 10167 10162 10161 10158 ] final -163.23 input  -65.29 | X-H torsion
[ 10718 10713 10712 10709 ] final  -69.77 input   66.30 | X-H torsion
[ 10763 10752 10751 10750 ] final  156.49 input  -60.55 | X-H torsion
[ 11005 11000 10999 10996 ] final  -84.43 input  -57.11 | X-H torsion

> <Gold.Protein.ActiveResidues>
 VAL166  LYS551  ARG553  GLY616  TRP617  ASP618  TYR619  PRO620  LYS621  CYS622 
 ASP623  PHE694  ASN695  SER759  ASP760  ASP761  ALA762  ILE779  LEU786  VAL792 
 PHE793  MET794  SER795  GLU796  ALA797  LYS798  CYS799  TRP800  GLU811  SER814 

> <Gold.Protein.RotatedAtoms>
  150.7458  134.6002  159.6032 H   0  0  0  0  0  0  0  0  0  0  0  0  # atno 6907 bound_to 6896
  152.3365  134.7188  160.0284 H   0  0  0  0  0  0  0  0  0  0  0  0  # atno 6908 bound_to 6896
  151.7654  133.3301  159.3466 H   0  0  0  0  0  0  0  0  0  0  0  0  # atno 6909 bound_to 6896
  144.9731  139.4584  143.5423 H   0  0  0  0  0  0  0  0  0  0  0  0  # atno 7974 bound_to 7965
  155.4897  140.3471  155.4353 H   0  0  0  0  0  0  0  0  0  0  0  0  # atno 8008 bound_to 7997
  156.0985  140.1429  156.9527 H   0  0  0  0  0  0  0  0  0  0  0  0  # atno 8009 bound_to 7997
  154.4678  140.0911  156.7045 H   0  0  0  0  0  0  0  0  0  0  0  0  # atno 8010 bound_to 7997
  139.6335  144.0394  152.2035 H   0  0  0  0  0  0  0  0  0  0  0  0  # atno 10167 bound_to 10162
  156.0439  130.4319  150.2196 H   0  0  0  0  0  0  0  0  0  0  0  0  # atno 10718 bound_to 10713
  154.1852  135.2797  155.3039 H   0  0  0  0  0  0  0  0  0  0  0  0  # atno 10763 bound_to 10752
  154.5972  135.5541  153.7341 H   0  0  0  0  0  0  0  0  0  0  0  0  # atno 10764 bound_to 10752
  153.0127  135.6383  154.1990 H   0  0  0  0  0  0  0  0  0  0  0  0  # atno 10765 bound_to 10752
  141.1650  133.7345  156.8867 H   0  0  0  0  0  0  0  0  0  0  0  0  # atno 11005 bound_to 11000
  146.3387  139.8956  142.8802 LP  0  0  0  0  0  0  0  0  0  0  0  0  # atno 17320 bound_to 7965
  145.2530  141.0050  143.3870 LP  0  0  0  0  0  0  0  0  0  0  0  0  # atno 17321 bound_to 7965
  140.0065  144.6255  150.7684 LP  0  0  0  0  0  0  0  0  0  0  0  0  # atno 17342 bound_to 10162
  140.7452  143.2872  151.3429 LP  0  0  0  0  0  0  0  0  0  0  0  0  # atno 17343 bound_to 10162
  157.0288  131.0001  151.3318 LP  0  0  0  0  0  0  0  0  0  0  0  0  # atno 17370 bound_to 10713
  157.5292  130.8047  149.7897 LP  0  0  0  0  0  0  0  0  0  0  0  0  # atno 17371 bound_to 10713
  140.1677  134.9121  157.2795 LP  0  0  0  0  0  0  0  0  0  0  0  0  # atno 17394 bound_to 11000
  140.2538  134.3652  155.7432 LP  0  0  0  0  0  0  0  0  0  0  0  0  # atno 17395 bound_to 11000

$$$$
