AV-unprocessed.smi:3285|AV-procd|sdf|12581|dock9
  -GOLD-   2272018503D 1   1.00000     0.00000
 Structure written by MMmdl.
 45 46  0  0  0  0  0  0  0  0  2 V2000
  146.3894  142.1195  153.7786 C   0  0  0  0  0  0  0  0  0  0  0  0
  147.1682  140.8383  153.8668 C   0  0  0  0  0  0  0  0  0  0  0  0
  146.5874  139.6997  153.5290 N   0  0  0  0  0  0  0  0  0  0  0  0
  147.5509  138.7053  153.7226 O   0  0  0  0  0  0  0  0  0  0  0  0
  148.6872  139.2913  154.1776 C   0  0  0  0  0  0  0  0  0  0  0  0
  149.8437  138.3904  154.4524 C   0  0  0  0  0  0  0  0  0  0  0  0
  148.5134  140.6429  154.2936 C   0  0  0  0  0  0  0  0  0  0  0  0
  149.4987  141.6787  154.7634 C   0  0  0  0  0  0  0  0  0  0  0  0
  150.1200  141.2910  156.1113 C   0  0  0  0  0  0  0  0  0  0  0  0
  149.9830  142.3882  157.0915 N   0  3  0  0  0  0  0  0  0  0  0  0
  151.2457  142.8398  157.7173 C   0  0  1  0  0  0  0  0  0  0  0  0
  151.0949  144.2943  158.1978 C   0  0  0  0  0  0  0  0  0  0  0  0
  152.3727  144.7972  158.8904 C   0  0  0  0  0  0  0  0  0  0  0  0
  152.7951  143.8941  160.0672 C   0  0  1  0  0  0  0  0  0  0  0  0
  151.8616  144.0690  161.2823 C   0  0  0  0  0  0  0  0  0  0  0  0
  152.9421  142.4286  159.5840 C   0  0  1  0  0  0  0  0  0  0  0  0
  153.4078  141.4672  160.6901 C   0  0  0  0  0  0  0  0  0  0  0  0
  151.6609  141.9235  158.8886 C   0  0  0  0  0  0  0  0  0  0  0  0
  145.9286  142.3606  154.7366 H   0  0  0  0  0  0  0  0  0  0  0  0
  145.5949  142.0553  153.0341 H   0  0  0  0  0  0  0  0  0  0  0  0
  147.0324  142.9540  153.4994 H   0  0  0  0  0  0  0  0  0  0  0  0
  150.1232  138.4324  155.5049 H   0  0  0  0  0  0  0  0  0  0  0  0
  150.7102  138.6840  153.8600 H   0  0  0  0  0  0  0  0  0  0  0  0
  149.6038  137.3553  154.2080 H   0  0  0  0  0  0  0  0  0  0  0  0
  150.2921  141.8133  154.0271 H   0  0  0  0  0  0  0  0  0  0  0  0
  149.0148  142.6518  154.8543 H   0  0  0  0  0  0  0  0  0  0  0  0
  149.6356  140.3923  156.4930 H   0  0  0  0  0  0  0  0  0  0  0  0
  151.1772  141.0576  155.9772 H   0  0  0  0  0  0  0  0  0  0  0  0
  149.5870  143.1780  156.6020 H   0  0  0  0  0  0  0  0  0  0  0  0
  152.0278  142.8193  156.9565 H   0  0  0  0  0  0  0  0  0  0  0  0
  150.8648  144.9424  157.3511 H   0  0  0  0  0  0  0  0  0  0  0  0
  150.2488  144.3764  158.8811 H   0  0  0  0  0  0  0  0  0  0  0  0
  153.1814  144.8344  158.1592 H   0  0  0  0  0  0  0  0  0  0  0  0
  152.2320  145.8229  159.2332 H   0  0  0  0  0  0  0  0  0  0  0  0
  153.7811  144.2329  160.3885 H   0  0  0  0  0  0  0  0  0  0  0  0
  150.8550  143.7011  161.0864 H   0  0  0  0  0  0  0  0  0  0  0  0
  151.7776  145.1204  161.5587 H   0  0  0  0  0  0  0  0  0  0  0  0
  152.2418  143.5426  162.1577 H   0  0  0  0  0  0  0  0  0  0  0  0
  153.7314  142.4262  158.8304 H   0  0  0  0  0  0  0  0  0  0  0  0
  152.6440  141.3303  161.4559 H   0  0  0  0  0  0  0  0  0  0  0  0
  154.3106  141.8359  161.1777 H   0  0  0  0  0  0  0  0  0  0  0  0
  153.6362  140.4832  160.2796 H   0  0  0  0  0  0  0  0  0  0  0  0
  150.8475  141.8515  159.6117 H   0  0  0  0  0  0  0  0  0  0  0  0
  151.8351  140.9102  158.5269 H   0  0  0  0  0  0  0  0  0  0  0  0
  149.3399  142.1080  157.8181 H   0  0  0  0  0  0  0  0  0  0  0  0
  1  2  1  0  0  0  0
  1 19  1  0  0  0  0
  1 20  1  0  0  0  0
  1 21  1  0  0  0  0
  2  7  1  0  0  0  0
  2  3  2  0  0  0  0
  3  4  1  0  0  0  0
  4  5  1  0  0  0  0
  5  6  1  0  0  0  0
  5  7  2  0  0  0  0
  6 22  1  0  0  0  0
  6 23  1  0  0  0  0
  6 24  1  0  0  0  0
  7  8  1  0  0  0  0
  8  9  1  0  0  0  0
  8 25  1  0  0  0  0
  8 26  1  0  0  0  0
  9 10  1  0  0  0  0
  9 27  1  0  0  0  0
  9 28  1  0  0  0  0
 10 11  1  0  0  0  0
 10 29  1  0  0  0  0
 10 45  1  0  0  0  0
 11 18  1  0  0  0  0
 11 12  1  0  0  0  0
 11 30  1  0  0  0  0
 12 13  1  0  0  0  0
 12 31  1  0  0  0  0
 12 32  1  0  0  0  0
 13 14  1  0  0  0  0
 13 33  1  0  0  0  0
 13 34  1  0  0  0  0
 14 15  1  0  0  0  0
 14 16  1  0  0  0  0
 14 35  1  0  0  0  0
 15 36  1  0  0  0  0
 15 37  1  0  0  0  0
 15 38  1  0  0  0  0
 16 17  1  0  0  0  0
 16 18  1  0  0  0  0
 16 39  1  0  0  0  0
 17 40  1  0  0  0  0
 17 41  1  0  0  0  0
 17 42  1  0  0  0  0
 18 43  1  0  0  0  0
 18 44  1  0  0  0  0
M  CHG  1  10   1
M  END
> <s_m_source_file>
AV-unprocessed.smi

> <i_m_source_file_index>
3285

> <i_lp_mmshare_version>
43012

> <i_f3d_flags>
0

> <s_epik_input>
W0NIM11jMW5vYyhbQ0gzXSljMVtDSDJdW0NIMl1bTkhdW0NAQEhdMltDSDJdW0NIMl1bQ0BASF0oW0NIM10pW0NAQEhdKFtDSDNdKVtDSDJdMg==

> <s_epik_cmdline>
J2VwaWtfcHl0aG9uJywgJy1waCcsICc3LjAnLCAnLXRuJywgJzgnLCAnLW1hJywgJzIwMCcsICctbWV0YWxfYmluZGluZycsICctaW1hZScsICc8aW5maWxlLm1hZT4nLCAnLW9tYWUnLCAnPG91dGZpbGUubWFlPic=

> <r_lp_tautomer_probability>
1

> <r_epik_Ionization_Penalty>
0.000204615

> <r_epik_Ionization_Penalty_Charging>
0.000204615

> <r_epik_Ionization_Penalty_Neutral>
9.28663e-11

> <r_epik_State_Penalty>
-0

> <r_epik_Charging_Adjusted_Penalty>
0.000204615

> <i_epik_Tot_Q>
1

> <i_epik_Tot_abs_Q>
1

> <r_epik_Metal_State_Penalty>
-0

> <b_epik_Metal_Only>
0

> <s_lp_Force_Field>
OPLS_2005

> <r_lp_Energy>
12.3416

> <b_lp_Chiralities_Consistent>
1

> <s_lp_Variant>
AV-unprocessed.smi:3285-2

> <Gold.Version>
5.8.1

> <Gold.Id.Protein>
6NUR|6NUR_protein|mol2

> <Gold.PLP.Fitness>
48.5148

> <Gold.PLP.PLP>
-44.5958

> <Gold.PLP.part.hbond>
-1.0000

> <Gold.PLP.part.metal>
0.0000

> <Gold.PLP.part.buried>
-3.0659

> <Gold.PLP.part.nonpolar>
-41.3447

> <Gold.PLP.part.repulsive>
0.4130

> <Gold.PLP.ligand.clash>
0.0000

> <Gold.PLP.ligand.torsion>
1.0460

> <Gold.PLP.Chemscore.Hbond>
2.0000

> <Gold.PLP.Chemscore.CHOScore>
0.0000

> <Gold.PLP.Chemscore.Metal>
0.0000

> <Gold.Chemscore.Hbonds>
donor molecule, donor type, donor heavy atom, donor atom, acceptor molecule, acceptor atom, score
      L1  H    10    29       P1  8028  2.00

> <Gold.PLP.Chemscore.Internal.Correction>
0.0111

> <Gold.Rescore>
     Score         DG    S(hbond)    S(metal)    S(lipo)     H(rot)  DE(clash)    DE(int)     intcor
     20.44     -21.39       1.00        0.00     136.90       1.35       0.00       0.95       ----

> <Gold.Chemscore.Fitness>
20.4352

> <Gold.Chemscore.DG>
-21.3903

> <Gold.Chemscore.ZeroCoef>
-5.4800

> <Gold.Chemscore.Hbond>
0.9999

> <Gold.Chemscore.Metal>
0.0000

> <Gold.Chemscore.Lipo>
136.9038

> <Gold.Chemscore.Internal_Hbond>
0.0000

> <Gold.Chemscore.DEClash>
0.0029

> <Gold.Chemscore.DEInternal>
0.9521

> <Gold.Chemscore.Rot>
1.3465

> <Gold.Chemscore.Internal.Correction>
   9.000000E+99

> <Gold.Chemscore.Hbonds>
donor molecule, donor type, donor heavy atom, donor atom, acceptor molecule, acceptor atom, score
      L1  H    10    29       P1  8028  0.99

> <Gold.Chemscore.Hbond.Weighted>
-3.3395

> <Gold.Chemscore.Metal.Weighted>
-0.0000

> <Gold.Chemscore.Lipo.Weighted>
-16.0177

> <Gold.Chemscore.Internal_Hbond.Weighted>
0.0000

> <Gold.Chemscore.DEClash.Weighted>
0.0029

> <Gold.Chemscore.DEInternal.Weighted>
0.9521

> <Gold.Chemscore.Rot.Weighted>
3.4470

> <Gold.Chemscore.Internal.Correction.Weighted>
   9.000000E+99

> <Gold.Protein.RotatedTorsions>
[ 6907 6896 6895 6894 ] final  -94.02 input  -60.11 | X-H torsion
[ 7974 7965 7964 7962 ] final   -6.49 input  175.53 | X-H torsion
[ 8008 7997 7996 7995 ] final   24.91 input   59.86 | X-H torsion
[ 10167 10162 10161 10158 ] final  155.89 input  -65.29 | X-H torsion
[ 10718 10713 10712 10709 ] final  -77.58 input   66.30 | X-H torsion
[ 10763 10752 10751 10750 ] final -158.61 input  -60.55 | X-H torsion
[ 11005 11000 10999 10996 ] final -159.27 input  -57.11 | X-H torsion

> <Gold.Protein.ActiveResidues>
 VAL166  LYS551  ARG553  GLY616  TRP617  ASP618  TYR619  PRO620  LYS621  CYS622 
 ASP623  PHE694  ASN695  SER759  ASP760  ASP761  ALA762  ILE779  LEU786  VAL792 
 PHE793  MET794  SER795  GLU796  ALA797  LYS798  CYS799  TRP800  GLU811  SER814 

> <Gold.Protein.RotatedAtoms>
  150.6933  134.1877  159.4272 H   0  0  0  0  0  0  0  0  0  0  0  0  # atno 6907 bound_to 6896
  151.9849  135.0007  160.0568 H   0  0  0  0  0  0  0  0  0  0  0  0  # atno 6908 bound_to 6896
  152.1721  133.4615  159.4951 H   0  0  0  0  0  0  0  0  0  0  0  0  # atno 6909 bound_to 6896
  146.2329  140.2178  142.8337 H   0  0  0  0  0  0  0  0  0  0  0  0  # atno 7974 bound_to 7965
  155.0036  140.3128  155.4857 H   0  0  0  0  0  0  0  0  0  0  0  0  # atno 8008 bound_to 7997
  156.2921  140.2227  156.5088 H   0  0  0  0  0  0  0  0  0  0  0  0  # atno 8009 bound_to 7997
  154.7597  140.0460  157.0951 H   0  0  0  0  0  0  0  0  0  0  0  0  # atno 8010 bound_to 7997
  139.4821  144.5058  151.8100 H   0  0  0  0  0  0  0  0  0  0  0  0  # atno 10167 bound_to 10162
  156.0141  130.4495  150.3366 H   0  0  0  0  0  0  0  0  0  0  0  0  # atno 10718 bound_to 10713
  154.7543  135.3100  154.8500 H   0  0  0  0  0  0  0  0  0  0  0  0  # atno 10763 bound_to 10752
  153.9278  135.6788  153.4750 H   0  0  0  0  0  0  0  0  0  0  0  0  # atno 10764 bound_to 10752
  153.1140  135.4853  154.9012 H   0  0  0  0  0  0  0  0  0  0  0  0  # atno 10765 bound_to 10752
  140.6444  134.4517  157.5234 H   0  0  0  0  0  0  0  0  0  0  0  0  # atno 11005 bound_to 11000
  144.9655  140.8318  143.5487 LP  0  0  0  0  0  0  0  0  0  0  0  0  # atno 17320 bound_to 7965
  145.2154  139.2184  143.5121 LP  0  0  0  0  0  0  0  0  0  0  0  0  # atno 17321 bound_to 7965
  140.4556  144.1794  150.5901 LP  0  0  0  0  0  0  0  0  0  0  0  0  # atno 17342 bound_to 10162
  140.4539  143.2475  151.9311 LP  0  0  0  0  0  0  0  0  0  0  0  0  # atno 17343 bound_to 10162
  157.1462  131.0309  151.2905 LP  0  0  0  0  0  0  0  0  0  0  0  0  # atno 17370 bound_to 10713
  157.4430  130.7555  149.7085 LP  0  0  0  0  0  0  0  0  0  0  0  0  # atno 17371 bound_to 10713
  139.9068  134.8431  156.1675 LP  0  0  0  0  0  0  0  0  0  0  0  0  # atno 17394 bound_to 11000
  141.0583  133.6854  156.1902 LP  0  0  0  0  0  0  0  0  0  0  0  0  # atno 17395 bound_to 11000

$$$$
