AV-unprocessed.smi:2096|AV-procd|sdf|8562|dock3
  -GOLD-   2272011293D 1   1.00000     0.00000
 Structure written by MMmdl.
 35 36  0  0  0  0  0  0  0  0  1 V2000
  154.2346  140.8839  161.7989 C   0  0  0  0  0  0  0  0  0  0  0  0
  153.4431  142.0361  161.4214 N   0  0  0  0  0  0  0  0  0  0  0  0
  153.1119  143.0010  162.4039 C   0  0  0  0  0  0  0  0  0  0  0  0
  153.4751  142.9082  163.5768 O   0  0  0  0  0  0  0  0  0  0  0  0
  152.3075  144.1122  161.9094 C   0  0  0  0  0  0  0  0  0  0  0  0
  151.9346  144.1771  160.6125 C   0  0  0  0  0  0  0  0  0  0  0  0
  152.2750  143.2216  159.6726 N   0  0  0  0  0  0  0  0  0  0  0  0
  151.8156  143.3671  158.2855 C   0  0  0  0  0  0  0  0  0  0  0  0
  150.9912  142.1670  157.8012 C   0  0  0  0  0  0  0  0  0  0  0  0
  151.0109  141.1005  158.4174 O   0  0  0  0  0  0  0  0  0  0  0  0
  150.2501  142.3646  156.7023 N   0  0  0  0  0  0  0  0  0  0  0  0
  149.4012  141.3526  156.0896 C   0  0  0  0  0  0  0  0  0  0  0  0
  150.1860  140.5519  155.0578 C   0  0  0  0  0  0  0  0  0  0  0  0
  149.4961  139.4050  154.3046 C   0  0  0  0  0  0  0  0  0  0  0  0
  150.8281  138.6503  154.3243 C   0  0  0  0  0  0  0  0  0  0  0  0
  151.2261  139.5194  155.5200 C   0  0  0  0  0  0  0  0  0  0  0  0
  153.0496  142.1099  160.0674 C   0  0  0  0  0  0  0  0  0  0  0  0
  153.3655  141.2399  159.2515 O   0  0  0  0  0  0  0  0  0  0  0  0
  154.4831  140.9012  162.8595 H   0  0  0  0  0  0  0  0  0  0  0  0
  155.1492  140.9116  161.2037 H   0  0  0  0  0  0  0  0  0  0  0  0
  153.6404  139.9962  161.5743 H   0  0  0  0  0  0  0  0  0  0  0  0
  152.0057  144.8935  162.5913 H   0  0  0  0  0  0  0  0  0  0  0  0
  151.3357  145.0191  160.2969 H   0  0  0  0  0  0  0  0  0  0  0  0
  151.2000  144.2625  158.1901 H   0  0  0  0  0  0  0  0  0  0  0  0
  152.6685  143.5250  157.6223 H   0  0  0  0  0  0  0  0  0  0  0  0
  150.2845  143.2693  156.2556 H   0  0  0  0  0  0  0  0  0  0  0  0
  149.0067  140.6925  156.8639 H   0  0  0  0  0  0  0  0  0  0  0  0
  148.5449  141.8398  155.6214 H   0  0  0  0  0  0  0  0  0  0  0  0
  150.6518  141.2151  154.3255 H   0  0  0  0  0  0  0  0  0  0  0  0
  148.7246  138.9111  154.8979 H   0  0  0  0  0  0  0  0  0  0  0  0
  149.1326  139.6662  153.3102 H   0  0  0  0  0  0  0  0  0  0  0  0
  150.7473  137.5846  154.5401 H   0  0  0  0  0  0  0  0  0  0  0  0
  151.4369  138.8419  153.4394 H   0  0  0  0  0  0  0  0  0  0  0  0
  152.2575  139.8727  155.5052 H   0  0  0  0  0  0  0  0  0  0  0  0
  150.9721  139.0604  156.4771 H   0  0  0  0  0  0  0  0  0  0  0  0
  1  2  1  0  0  0  0
  1 19  1  0  0  0  0
  1 20  1  0  0  0  0
  1 21  1  0  0  0  0
  2 17  1  0  0  0  0
  2  3  1  0  0  0  0
  3  4  2  0  0  0  0
  3  5  1  0  0  0  0
  5  6  2  0  0  0  0
  5 22  1  0  0  0  0
  6  7  1  0  0  0  0
  6 23  1  0  0  0  0
  7  8  1  0  0  0  0
  7 17  1  0  0  0  0
  8  9  1  0  0  0  0
  8 24  1  0  0  0  0
  8 25  1  0  0  0  0
  9 10  2  0  0  0  0
  9 11  1  0  0  0  0
 11 12  1  0  0  0  0
 11 26  1  0  0  0  0
 12 13  1  0  0  0  0
 12 27  1  0  0  0  0
 12 28  1  0  0  0  0
 13 16  1  0  0  0  0
 13 14  1  0  0  0  0
 13 29  1  0  0  0  0
 14 15  1  0  0  0  0
 14 30  1  0  0  0  0
 14 31  1  0  0  0  0
 15 16  1  0  0  0  0
 15 32  1  0  0  0  0
 15 33  1  0  0  0  0
 16 34  1  0  0  0  0
 16 35  1  0  0  0  0
 17 18  2  0  0  0  0
M  END
> <s_m_source_file>
AV-unprocessed.smi

> <i_m_source_file_index>
2096

> <i_lp_mmshare_version>
43012

> <i_f3d_flags>
0

> <s_epik_input>
W0NIM11uMWMoPU8pW2NIXVtjSF1uKGMxPU8pW0NIMl1DKD1PKVtOSF1bQ0gyXVtDSF0yW0NIMl1bQ0gyXVtDSDJdMg==

> <s_epik_cmdline>
J2VwaWtfcHl0aG9uJywgJy1waCcsICc3LjAnLCAnLXRuJywgJzgnLCAnLW1hJywgJzIwMCcsICctbWV0YWxfYmluZGluZycsICctaW1hZScsICc8aW5maWxlLm1hZT4nLCAnLW9tYWUnLCAnPG91dGZpbGUubWFlPic=

> <r_lp_tautomer_probability>
1

> <r_epik_Ionization_Penalty>
3.11585e-08

> <r_epik_Ionization_Penalty_Charging>
1.18568e-08

> <r_epik_Ionization_Penalty_Neutral>
1.93017e-08

> <r_epik_State_Penalty>
-0

> <r_epik_Charging_Adjusted_Penalty>
1.18568e-08

> <i_epik_Tot_Q>
0

> <i_epik_Tot_abs_Q>
0

> <r_epik_Metal_State_Penalty>
-0

> <b_epik_Metal_Only>
0

> <s_lp_Force_Field>
OPLS_2005

> <r_lp_Energy>
20.363

> <b_lp_Chiralities_Consistent>
1

> <s_lp_Variant>
AV-unprocessed.smi:2096-1

> <Gold.Version>
5.8.1

> <Gold.Id.Protein>
6NUR|6NUR_protein|mol2

> <Gold.PLP.Fitness>
46.7260

> <Gold.PLP.PLP>
-45.1588

> <Gold.PLP.part.hbond>
-1.0000

> <Gold.PLP.part.metal>
0.0000

> <Gold.PLP.part.buried>
-4.6895

> <Gold.PLP.part.nonpolar>
-39.6405

> <Gold.PLP.part.repulsive>
0.1347

> <Gold.PLP.ligand.clash>
0.0000

> <Gold.PLP.ligand.torsion>
0.4585

> <Gold.PLP.Chemscore.Hbond>
0.8000

> <Gold.PLP.Chemscore.CHOScore>
0.0000

> <Gold.PLP.Chemscore.Metal>
0.0000

> <Gold.Chemscore.Hbonds>
donor molecule, donor type, donor heavy atom, donor atom, acceptor molecule, acceptor atom, score
      L1  H    11    26       P1  8028  0.61

> <Gold.PLP.Chemscore.Internal.Correction>
0.0842

> <Gold.Rescore>
     Score         DG    S(hbond)    S(metal)    S(lipo)     H(rot)  DE(clash)    DE(int)     intcor
      8.17     -12.67       0.88        0.00      75.40       1.78       0.01       4.49       ----

> <Gold.Chemscore.Fitness>
8.1743

> <Gold.Chemscore.DG>
-12.6750

> <Gold.Chemscore.ZeroCoef>
-5.4800

> <Gold.Chemscore.Hbond>
0.8792

> <Gold.Chemscore.Metal>
0.0000

> <Gold.Chemscore.Lipo>
75.4031

> <Gold.Chemscore.Internal_Hbond>
0.0000

> <Gold.Chemscore.DEClash>
0.0149

> <Gold.Chemscore.DEInternal>
4.4858

> <Gold.Chemscore.Rot>
1.7827

> <Gold.Chemscore.Internal.Correction>
   9.000000E+99

> <Gold.Chemscore.Hbonds>
donor molecule, donor type, donor heavy atom, donor atom, acceptor molecule, acceptor atom, score
      L1  H    11    26       P1  8028  0.61

> <Gold.Chemscore.Hbond.Weighted>
-2.9364

> <Gold.Chemscore.Metal.Weighted>
-0.0000

> <Gold.Chemscore.Lipo.Weighted>
-8.8222

> <Gold.Chemscore.Internal_Hbond.Weighted>
0.0000

> <Gold.Chemscore.DEClash.Weighted>
0.0149

> <Gold.Chemscore.DEInternal.Weighted>
4.4858

> <Gold.Chemscore.Rot.Weighted>
4.5636

> <Gold.Chemscore.Internal.Correction.Weighted>
   9.000000E+99

> <Gold.Protein.RotatedTorsions>
[ 6907 6896 6895 6894 ] final -106.59 input  -60.11 | X-H torsion
[ 7974 7965 7964 7962 ] final -114.72 input  175.53 | X-H torsion
[ 8008 7997 7996 7995 ] final   97.51 input   59.86 | X-H torsion
[ 10167 10162 10161 10158 ] final  -41.29 input  -65.29 | X-H torsion
[ 10718 10713 10712 10709 ] final   24.15 input   66.30 | X-H torsion
[ 10763 10752 10751 10750 ] final  -71.04 input  -60.55 | X-H torsion
[ 11005 11000 10999 10996 ] final -134.50 input  -57.11 | X-H torsion

> <Gold.Protein.ActiveResidues>
 VAL166  LYS551  ARG553  GLY616  TRP617  ASP618  TYR619  PRO620  LYS621  CYS622 
 ASP623  PHE694  ASN695  SER759  ASP760  ASP761  ALA762  ILE779  LEU786  VAL792 
 PHE793  MET794  SER795  GLU796  ALA797  LYS798  CYS799  TRP800  GLU811  SER814 

> <Gold.Protein.RotatedAtoms>
  150.7397  133.9953  159.3620 H   0  0  0  0  0  0  0  0  0  0  0  0  # atno 6907 bound_to 6896
  151.7904  135.0735  160.0396 H   0  0  0  0  0  0  0  0  0  0  0  0  # atno 6908 bound_to 6896
  152.3212  133.5819  159.5782 H   0  0  0  0  0  0  0  0  0  0  0  0  # atno 6909 bound_to 6896
  145.1168  140.8645  143.3837 H   0  0  0  0  0  0  0  0  0  0  0  0  # atno 7974 bound_to 7965
  156.0909  140.3257  155.7814 H   0  0  0  0  0  0  0  0  0  0  0  0  # atno 8008 bound_to 7997
  155.4998  140.0568  157.2958 H   0  0  0  0  0  0  0  0  0  0  0  0  # atno 8009 bound_to 7997
  154.4637  140.1979  156.0192 H   0  0  0  0  0  0  0  0  0  0  0  0  # atno 8010 bound_to 7997
  140.7007  143.3103  151.3045 H   0  0  0  0  0  0  0  0  0  0  0  0  # atno 10167 bound_to 10162
  157.1759  130.6780  149.6095 H   0  0  0  0  0  0  0  0  0  0  0  0  # atno 10718 bound_to 10713
  154.4261  135.5975  153.6040 H   0  0  0  0  0  0  0  0  0  0  0  0  # atno 10763 bound_to 10752
  152.9796  135.5964  154.3896 H   0  0  0  0  0  0  0  0  0  0  0  0  # atno 10764 bound_to 10752
  154.3727  135.2841  155.2235 H   0  0  0  0  0  0  0  0  0  0  0  0  # atno 10765 bound_to 10752
  140.8984  134.1721  157.4478 H   0  0  0  0  0  0  0  0  0  0  0  0  # atno 11005 bound_to 11000
  145.0785  139.2978  143.5796 LP  0  0  0  0  0  0  0  0  0  0  0  0  # atno 17320 bound_to 7965
  146.3523  140.0283  142.8652 LP  0  0  0  0  0  0  0  0  0  0  0  0  # atno 17321 bound_to 7965
  139.6524  144.0338  152.2635 LP  0  0  0  0  0  0  0  0  0  0  0  0  # atno 17342 bound_to 10162
  139.9879  144.6382  150.7841 LP  0  0  0  0  0  0  0  0  0  0  0  0  # atno 17343 bound_to 10162
  155.9731  130.4663  150.6285 LP  0  0  0  0  0  0  0  0  0  0  0  0  # atno 17370 bound_to 10713
  157.3999  131.0808  151.1318 LP  0  0  0  0  0  0  0  0  0  0  0  0  # atno 17371 bound_to 10713
  139.8739  134.9888  156.5428 LP  0  0  0  0  0  0  0  0  0  0  0  0  # atno 17394 bound_to 11000
  140.8260  133.8316  155.8939 LP  0  0  0  0  0  0  0  0  0  0  0  0  # atno 17395 bound_to 11000

$$$$
