AV-unprocessed.smi:3338|AV-procd|sdf|12875|dock5
  -GOLD-   2272019273D 1   1.00000     0.00000
 Structure written by MMmdl.
 44 45  0  0  0  0  0  0  0  0  2 V2000
  147.3225  133.5560  152.8230 C   0  0  0  0  0  0  0  0  0  0  0  0
  145.8339  133.9127  152.9800 C   0  0  2  0  0  0  0  0  0  0  0  0
  145.0092  133.6032  151.7173 C   0  0  0  0  0  0  0  0  0  0  0  0
  145.2900  134.6244  150.6065 C   0  0  0  0  0  0  0  0  0  0  0  0
  145.0880  136.0608  151.1144 C   0  0  0  0  0  0  0  0  0  0  0  0
  145.9266  136.3318  152.3108 N   0  3  1  0  0  0  0  0  0  0  0  0
  145.8585  137.7553  152.7281 C   0  0  0  0  0  0  0  0  0  0  0  0
  146.6930  138.6763  151.8234 C   0  0  0  0  0  0  0  0  0  0  0  0
  147.1803  139.8231  152.5763 N   0  0  0  0  0  0  0  0  0  0  0  0
  148.0945  139.7522  153.5558 C   0  0  0  0  0  0  0  0  0  0  0  0
  148.5865  138.6875  153.9317 O   0  0  0  0  0  0  0  0  0  0  0  0
  148.5060  141.0867  154.2025 C   0  0  1  0  0  0  0  0  0  0  0  0
  147.3207  141.8422  154.8357 C   0  0  0  0  0  0  0  0  0  0  0  0
  149.5882  140.8864  155.1604 N   0  0  0  0  0  0  0  0  0  0  0  0
  149.7510  141.4811  156.3952 C   0  0  0  0  0  0  0  0  0  0  0  0
  150.9157  141.0084  156.9284 C   0  0  0  0  0  0  0  0  0  0  0  0
  151.4060  140.1177  155.9337 C   0  0  0  0  0  0  0  0  0  0  0  0
  150.6137  140.0496  154.8765 N   0  0  0  0  0  0  0  0  0  0  0  0
  145.6287  135.3787  153.4153 C   0  0  0  0  0  0  0  0  0  0  0  0
  147.8107  134.1659  152.0627 H   0  0  0  0  0  0  0  0  0  0  0  0
  147.4472  132.5104  152.5397 H   0  0  0  0  0  0  0  0  0  0  0  0
  147.8607  133.7065  153.7592 H   0  0  0  0  0  0  0  0  0  0  0  0
  145.4503  133.2778  153.7799 H   0  0  0  0  0  0  0  0  0  0  0  0
  145.2129  132.5918  151.3641 H   0  0  0  0  0  0  0  0  0  0  0  0
  143.9474  133.6311  151.9660 H   0  0  0  0  0  0  0  0  0  0  0  0
  146.3086  134.5037  150.2368 H   0  0  0  0  0  0  0  0  0  0  0  0
  144.6337  134.4361  149.7561 H   0  0  0  0  0  0  0  0  0  0  0  0
  145.3451  136.7580  150.3159 H   0  0  0  0  0  0  0  0  0  0  0  0
  144.0382  136.2312  151.3592 H   0  0  0  0  0  0  0  0  0  0  0  0
  144.8216  138.0921  152.6822 H   0  0  0  0  0  0  0  0  0  0  0  0
  146.1674  137.8500  153.7705 H   0  0  0  0  0  0  0  0  0  0  0  0
  147.5496  138.1479  151.4044 H   0  0  0  0  0  0  0  0  0  0  0  0
  146.0865  139.0259  150.9861 H   0  0  0  0  0  0  0  0  0  0  0  0
  146.8196  140.7320  152.3243 H   0  0  0  0  0  0  0  0  0  0  0  0
  148.8976  141.7159  153.4016 H   0  0  0  0  0  0  0  0  0  0  0  0
  146.5421  142.0431  154.0990 H   0  0  0  0  0  0  0  0  0  0  0  0
  147.6439  142.8029  155.2377 H   0  0  0  0  0  0  0  0  0  0  0  0
  146.8671  141.2793  155.6527 H   0  0  0  0  0  0  0  0  0  0  0  0
  149.0317  142.1842  156.7889 H   0  0  0  0  0  0  0  0  0  0  0  0
  151.3515  141.2598  157.8842 H   0  0  0  0  0  0  0  0  0  0  0  0
  152.3083  139.5243  155.9469 H   0  0  0  0  0  0  0  0  0  0  0  0
  144.5972  135.5244  153.7405 H   0  0  0  0  0  0  0  0  0  0  0  0
  146.2560  135.5835  154.2820 H   0  0  0  0  0  0  0  0  0  0  0  0
  146.8814  136.1632  152.0272 H   0  0  0  0  0  0  0  0  0  0  0  0
  1  2  1  0  0  0  0
  1 20  1  0  0  0  0
  1 21  1  0  0  0  0
  1 22  1  0  0  0  0
  2 19  1  0  0  0  0
  2  3  1  0  0  0  0
  2 23  1  0  0  0  0
  3  4  1  0  0  0  0
  3 24  1  0  0  0  0
  3 25  1  0  0  0  0
  4  5  1  0  0  0  0
  4 26  1  0  0  0  0
  4 27  1  0  0  0  0
  5  6  1  0  0  0  0
  5 28  1  0  0  0  0
  5 29  1  0  0  0  0
  6  7  1  0  0  0  0
  6 19  1  0  0  0  0
  6 44  1  0  0  0  0
  7  8  1  0  0  0  0
  7 30  1  0  0  0  0
  7 31  1  0  0  0  0
  8  9  1  0  0  0  0
  8 32  1  0  0  0  0
  8 33  1  0  0  0  0
  9 10  1  0  0  0  0
  9 34  1  0  0  0  0
 10 11  2  0  0  0  0
 10 12  1  0  0  0  0
 12 13  1  0  0  0  0
 12 14  1  0  0  0  0
 12 35  1  0  0  0  0
 13 36  1  0  0  0  0
 13 37  1  0  0  0  0
 13 38  1  0  0  0  0
 14 18  1  0  0  0  0
 14 15  1  0  0  0  0
 15 16  2  0  0  0  0
 15 39  1  0  0  0  0
 16 17  1  0  0  0  0
 16 40  1  0  0  0  0
 17 18  2  0  0  0  0
 17 41  1  0  0  0  0
 19 42  1  0  0  0  0
 19 43  1  0  0  0  0
M  CHG  1   6   1
M  END
> <s_m_source_file>
AV-unprocessed.smi

> <i_m_source_file_index>
3338

> <i_lp_mmshare_version>
43012

> <i_f3d_flags>
0

> <s_epik_input>
W0NIM11bQ0BASF0xW0NIMl1bQ0gyXVtDSDJdTihbQ0gyXTEpW0NIMl1bQ0gyXVtOSF1DKD1PKVtDQEhdKFtDSDNdKW4yW2NIXVtjSF1bY0hdbjI=

> <s_epik_cmdline>
J2VwaWtfcHl0aG9uJywgJy1waCcsICc3LjAnLCAnLXRuJywgJzgnLCAnLW1hJywgJzIwMCcsICctbWV0YWxfYmluZGluZycsICctaW1hZScsICc8aW5maWxlLm1hZT4nLCAnLW9tYWUnLCAnPG91dGZpbGUubWFlPic=

> <r_lp_tautomer_probability>
1

> <r_epik_Ionization_Penalty>
0.00225707

> <r_epik_Ionization_Penalty_Charging>
0.00223709

> <r_epik_Ionization_Penalty_Neutral>
1.99775e-05

> <r_epik_State_Penalty>
0.00153978

> <r_epik_Charging_Adjusted_Penalty>
0.00377687

> <i_epik_Tot_Q>
1

> <i_epik_Tot_abs_Q>
1

> <r_epik_Metal_State_Penalty>
-0

> <b_epik_Metal_Only>
0

> <s_lp_Force_Field>
OPLS_2005

> <r_lp_Energy>
23.0994

> <b_lp_Chiralities_Consistent>
1

> <s_lp_Variant>
AV-unprocessed.smi:3338-7

> <Gold.Version>
5.8.1

> <Gold.Id.Protein>
6NUR|6NUR_protein|mol2

> <Gold.PLP.Fitness>
46.0090

> <Gold.PLP.PLP>
-35.9475

> <Gold.PLP.part.hbond>
-3.0000

> <Gold.PLP.part.metal>
0.0000

> <Gold.PLP.part.buried>
1.3194

> <Gold.PLP.part.nonpolar>
-33.5180

> <Gold.PLP.part.repulsive>
0.3675

> <Gold.PLP.ligand.clash>
0.0000

> <Gold.PLP.ligand.torsion>
0.8337

> <Gold.PLP.Chemscore.Hbond>
3.0000

> <Gold.PLP.Chemscore.CHOScore>
0.8662

> <Gold.PLP.Chemscore.Metal>
0.0000

> <Gold.Chemscore.Hbonds>
donor molecule, donor type, donor heavy atom, donor atom, acceptor molecule, acceptor atom, score
      L1  H     6    44       P1  7948  1.85
      P1  H  7989  7998       L1    18  1.00
      L1  C    15    39       P1  8028  0.30

> <Gold.PLP.Chemscore.Internal.Correction>
0.1302

> <Gold.Rescore>
     Score         DG    S(hbond)    S(metal)    S(lipo)     H(rot)  DE(clash)    DE(int)     intcor
     13.24     -15.58       1.93        0.00      69.65       1.76       0.56       1.78       ----

> <Gold.Chemscore.Fitness>
13.2359

> <Gold.Chemscore.DG>
-15.5808

> <Gold.Chemscore.ZeroCoef>
-5.4800

> <Gold.Chemscore.Hbond>
1.9311

> <Gold.Chemscore.Metal>
0.0000

> <Gold.Chemscore.Lipo>
69.6495

> <Gold.Chemscore.Internal_Hbond>
0.0000

> <Gold.Chemscore.DEClash>
0.5612

> <Gold.Chemscore.DEInternal>
1.7837

> <Gold.Chemscore.Rot>
1.7570

> <Gold.Chemscore.Internal.Correction>
   9.000000E+99

> <Gold.Chemscore.Hbonds>
donor molecule, donor type, donor heavy atom, donor atom, acceptor molecule, acceptor atom, score
      L1  H     6    44       P1  7948  0.89
      P1  H  7989  7998       L1    18  0.27

> <Gold.Chemscore.Hbond.Weighted>
-6.4497

> <Gold.Chemscore.Metal.Weighted>
-0.0000

> <Gold.Chemscore.Lipo.Weighted>
-8.1490

> <Gold.Chemscore.Internal_Hbond.Weighted>
0.0000

> <Gold.Chemscore.DEClash.Weighted>
0.5612

> <Gold.Chemscore.DEInternal.Weighted>
1.7837

> <Gold.Chemscore.Rot.Weighted>
4.4979

> <Gold.Chemscore.Internal.Correction.Weighted>
   9.000000E+99

> <Gold.Protein.RotatedTorsions>
[ 6907 6896 6895 6894 ] final -116.45 input  -60.11 | X-H torsion
[ 7974 7965 7964 7962 ] final  143.10 input  175.53 | X-H torsion
[ 8008 7997 7996 7995 ] final   23.05 input   59.86 | X-H torsion
[ 10167 10162 10161 10158 ] final -143.06 input  -65.29 | X-H torsion
[ 10718 10713 10712 10709 ] final   15.01 input   66.30 | X-H torsion
[ 10763 10752 10751 10750 ] final  -50.57 input  -60.55 | X-H torsion
[ 11005 11000 10999 10996 ] final  -45.60 input  -57.11 | X-H torsion

> <Gold.Protein.ActiveResidues>
 VAL166  LYS551  ARG553  GLY616  TRP617  ASP618  TYR619  PRO620  LYS621  CYS622 
 ASP623  PHE694  ASN695  SER759  ASP760  ASP761  ALA762  ILE779  LEU786  VAL792 
 PHE793  MET794  SER795  GLU796  ALA797  LYS798  CYS799  TRP800  GLU811  SER814 

> <Gold.Protein.RotatedAtoms>
  150.8057  133.8515  159.3206 H   0  0  0  0  0  0  0  0  0  0  0  0  # atno 6907 bound_to 6896
  151.6315  135.1020  160.0132 H   0  0  0  0  0  0  0  0  0  0  0  0  # atno 6908 bound_to 6896
  152.4147  133.6980  159.6464 H   0  0  0  0  0  0  0  0  0  0  0  0  # atno 6909 bound_to 6896
  144.8950  139.5504  143.5780 H   0  0  0  0  0  0  0  0  0  0  0  0  # atno 7974 bound_to 7965
  154.9751  140.3095  155.4971 H   0  0  0  0  0  0  0  0  0  0  0  0  # atno 8008 bound_to 7997
  156.2961  140.2277  156.4785 H   0  0  0  0  0  0  0  0  0  0  0  0  # atno 8009 bound_to 7997
  154.7841  140.0444  157.1138 H   0  0  0  0  0  0  0  0  0  0  0  0  # atno 8010 bound_to 7997
  139.8029  143.7809  152.2659 H   0  0  0  0  0  0  0  0  0  0  0  0  # atno 10167 bound_to 10162
  157.0474  130.6256  149.5761 H   0  0  0  0  0  0  0  0  0  0  0  0  # atno 10718 bound_to 10713
  154.1125  135.6547  153.4888 H   0  0  0  0  0  0  0  0  0  0  0  0  # atno 10763 bound_to 10752
  153.0252  135.5251  154.7178 H   0  0  0  0  0  0  0  0  0  0  0  0  # atno 10764 bound_to 10752
  154.6362  135.2982  155.0128 H   0  0  0  0  0  0  0  0  0  0  0  0  # atno 10765 bound_to 10752
  141.0526  133.6737  156.3036 H   0  0  0  0  0  0  0  0  0  0  0  0  # atno 11005 bound_to 11000
  146.3076  139.7633  142.9044 LP  0  0  0  0  0  0  0  0  0  0  0  0  # atno 17320 bound_to 7965
  145.3716  141.0343  143.3228 LP  0  0  0  0  0  0  0  0  0  0  0  0  # atno 17321 bound_to 7965
  139.7934  144.7401  150.9923 LP  0  0  0  0  0  0  0  0  0  0  0  0  # atno 17342 bound_to 10162
  140.7820  143.4418  151.0540 LP  0  0  0  0  0  0  0  0  0  0  0  0  # atno 17343 bound_to 10162
  156.0018  130.5099  150.7691 LP  0  0  0  0  0  0  0  0  0  0  0  0  # atno 17370 bound_to 10713
  157.5057  131.0922  151.0260 LP  0  0  0  0  0  0  0  0  0  0  0  0  # atno 17371 bound_to 10713
  140.6027  134.5539  157.5520 LP  0  0  0  0  0  0  0  0  0  0  0  0  # atno 17394 bound_to 11000
  139.9363  134.7870  156.0795 LP  0  0  0  0  0  0  0  0  0  0  0  0  # atno 17395 bound_to 11000

$$$$
