AV-unprocessed.smi:21|AV-procd|sdf|154|dock2
  -GOLD-   2262015383D 1   1.00000     0.00000
 Structure written by MMmdl.
 61 64  0  0  0  0  0  0  0  0  1 V2000
  151.9220  145.6850  159.1404 C   0  0  0  0  0  0  0  0  0  0  0  0
  152.4726  144.5207  159.7350 O   0  0  0  0  0  0  0  0  0  0  0  0
  152.8035  143.5101  158.7935 C   0  0  2  0  0  0  0  0  0  0  0  0
  151.5847  143.0019  158.0010 C   0  0  0  0  0  0  0  0  0  0  0  0
  151.5032  141.5025  158.3309 C   0  0  1  0  0  0  0  0  0  0  0  0
  150.9183  140.6485  157.1839 C   0  0  0  0  0  0  0  0  0  0  0  0
  150.6876  139.2549  157.5646 N   0  0  0  0  0  0  0  0  0  0  0  0
  151.6834  138.2625  157.1630 C   0  0  0  0  0  0  0  0  0  0  0  0
  149.4406  138.8292  157.9260 C   0  0  0  0  0  0  0  0  0  0  0  0
  148.3646  139.5314  157.4759 N   0  0  0  0  0  0  0  0  0  0  0  0
  147.1209  139.1735  157.8034 C   0  0  0  0  0  0  0  0  0  0  0  0
  146.7211  138.1532  158.5607 N   0  0  0  0  0  0  0  0  0  0  0  0
  147.7849  137.4327  159.0141 C   0  0  0  0  0  0  0  0  0  0  0  0
  149.1625  137.6924  158.7491 C   0  0  0  0  0  0  0  0  0  0  0  0
  149.9380  136.7246  159.3820 N   0  0  0  0  0  0  0  0  0  0  0  0
  149.0784  135.9508  159.9836 C   0  0  0  0  0  0  0  0  0  0  0  0
  147.7613  136.3014  159.8106 N   0  0  0  0  0  0  0  0  0  0  0  0
  146.6051  135.6152  160.3588 C   0  0  0  0  0  0  0  0  0  0  0  0
  145.9228  136.3692  161.5307 C   0  0  2  0  0  0  0  0  0  0  0  0
  146.8365  136.4749  162.7792 C   0  0  0  0  0  0  0  0  0  0  0  0
  147.6777  137.6089  162.7213 O   0  0  0  0  0  0  0  0  0  0  0  0
  144.5700  135.7009  161.8895 C   0  0  2  0  0  0  0  0  0  0  0  0
  143.8198  136.3445  163.0441 C   0  0  0  0  0  0  0  0  0  0  0  0
  142.8518  135.2417  163.4505 C   0  0  0  0  0  0  0  0  0  0  0  0
  143.5753  134.0328  163.2677 O   0  0  0  0  0  0  0  0  0  0  0  0
  144.6803  134.2549  162.3953 C   0  0  0  0  0  0  0  0  0  0  0  0
  152.8511  141.1331  158.7316 N   0  0  0  0  0  0  0  0  0  0  0  0
  152.9207  139.8787  159.4695 C   0  0  0  0  0  0  0  0  0  0  0  0
  153.2952  142.2601  159.5273 C   0  0  0  0  0  0  0  0  0  0  0  0
  153.5828  143.8528  158.1103 H   0  0  0  0  0  0  0  0  0  0  0  0
  150.8576  141.4036  159.2052 H   0  0  0  0  0  0  0  0  0  0  0  0
  151.6964  146.4178  159.9147 H   0  0  0  0  0  0  0  0  0  0  0  0
  150.9963  145.4670  158.6069 H   0  0  0  0  0  0  0  0  0  0  0  0
  152.6266  146.1404  158.4434 H   0  0  0  0  0  0  0  0  0  0  0  0
  150.6591  143.5101  158.2739 H   0  0  0  0  0  0  0  0  0  0  0  0
  151.7496  143.1637  156.9351 H   0  0  0  0  0  0  0  0  0  0  0  0
  149.9747  141.0897  156.8608 H   0  0  0  0  0  0  0  0  0  0  0  0
  151.5485  140.6817  156.2980 H   0  0  0  0  0  0  0  0  0  0  0  0
  151.8240  137.5179  157.9475 H   0  0  0  0  0  0  0  0  0  0  0  0
  152.6519  138.7265  156.9759 H   0  0  0  0  0  0  0  0  0  0  0  0
  151.3752  137.7520  156.2498 H   0  0  0  0  0  0  0  0  0  0  0  0
  146.3343  139.7953  157.4023 H   0  0  0  0  0  0  0  0  0  0  0  0
  149.3821  135.0934  160.5664 H   0  0  0  0  0  0  0  0  0  0  0  0
  145.9036  135.4660  159.5380 H   0  0  0  0  0  0  0  0  0  0  0  0
  146.9126  134.6203  160.6824 H   0  0  0  0  0  0  0  0  0  0  0  0
  145.6999  137.3826  161.1921 H   0  0  0  0  0  0  0  0  0  0  0  0
  146.2520  136.5753  163.6926 H   0  0  0  0  0  0  0  0  0  0  0  0
  147.4410  135.5747  162.8948 H   0  0  0  0  0  0  0  0  0  0  0  0
  147.5629  138.1103  163.5143 H   0  0  0  0  0  0  0  0  0  0  0  0
  143.9190  135.7126  161.0136 H   0  0  0  0  0  0  0  0  0  0  0  0
  144.4999  136.5678  163.8675 H   0  0  0  0  0  0  0  0  0  0  0  0
  143.3038  137.2639  162.7659 H   0  0  0  0  0  0  0  0  0  0  0  0
  142.4989  135.3480  164.4765 H   0  0  0  0  0  0  0  0  0  0  0  0
  141.9835  135.2344  162.7904 H   0  0  0  0  0  0  0  0  0  0  0  0
  144.6749  133.5312  161.5802 H   0  0  0  0  0  0  0  0  0  0  0  0
  145.5973  134.1089  162.9675 H   0  0  0  0  0  0  0  0  0  0  0  0
  153.9426  139.6820  159.7952 H   0  0  0  0  0  0  0  0  0  0  0  0
  152.6074  139.0404  158.8476 H   0  0  0  0  0  0  0  0  0  0  0  0
  152.2822  139.9031  160.3537 H   0  0  0  0  0  0  0  0  0  0  0  0
  154.3771  142.2571  159.6638 H   0  0  0  0  0  0  0  0  0  0  0  0
  152.8364  142.2165  160.5169 H   0  0  0  0  0  0  0  0  0  0  0  0
  1  2  1  0  0  0  0
  1 32  1  0  0  0  0
  1 33  1  0  0  0  0
  1 34  1  0  0  0  0
  2  3  1  0  0  0  0
  3 30  1  0  0  0  0
  3 29  1  0  0  0  0
  3  4  1  0  0  0  0
  4  5  1  0  0  0  0
  4 35  1  0  0  0  0
  4 36  1  0  0  0  0
  5 31  1  0  0  0  0
  5  6  1  0  0  0  0
  5 27  1  0  0  0  0
  6  7  1  0  0  0  0
  6 37  1  0  0  0  0
  6 38  1  0  0  0  0
  7  8  1  0  0  0  0
  7  9  1  0  0  0  0
  8 39  1  0  0  0  0
  8 40  1  0  0  0  0
  8 41  1  0  0  0  0
  9 14  1  0  0  0  0
  9 10  2  0  0  0  0
 10 11  1  0  0  0  0
 11 12  2  0  0  0  0
 11 42  1  0  0  0  0
 12 13  1  0  0  0  0
 13 17  1  0  0  0  0
 13 14  2  0  0  0  0
 14 15  1  0  0  0  0
 15 16  2  0  0  0  0
 16 17  1  0  0  0  0
 16 43  1  0  0  0  0
 17 18  1  0  0  0  0
 18 19  1  0  0  0  0
 18 44  1  0  0  0  0
 18 45  1  0  0  0  0
 19 20  1  0  0  0  0
 19 22  1  0  0  0  0
 19 46  1  0  0  0  0
 20 21  1  0  0  0  0
 20 47  1  0  0  0  0
 20 48  1  0  0  0  0
 21 49  1  0  0  0  0
 22 26  1  0  0  0  0
 22 23  1  0  0  0  0
 22 50  1  0  0  0  0
 23 24  1  0  0  0  0
 23 51  1  0  0  0  0
 23 52  1  0  0  0  0
 24 25  1  0  0  0  0
 24 53  1  0  0  0  0
 24 54  1  0  0  0  0
 25 26  1  0  0  0  0
 26 55  1  0  0  0  0
 26 56  1  0  0  0  0
 27 28  1  0  0  0  0
 27 29  1  0  0  0  0
 28 57  1  0  0  0  0
 28 58  1  0  0  0  0
 28 59  1  0  0  0  0
 29 60  1  0  0  0  0
 29 61  1  0  0  0  0
M  END
> <s_m_source_file>
AV-unprocessed.smi

> <i_m_source_file_index>
21

> <i_lp_mmshare_version>
43012

> <i_f3d_flags>
0

> <s_epik_input>
W0NIM11PW0NASF0xW0NIMl1bQ0BIXShOKFtDSDNdKVtDSDJdMSlbQ0gyXU4oW0NIM10pYyhuW2NIXW4yKWMoYzIzKW5bY0hdbjNbQ0gyXVtDQEhdKFtDSDJdW09IXSlbQ0BASF00W0NIMl1bQ0gyXU9bQ0gyXTQ=

> <s_epik_cmdline>
J2VwaWtfcHl0aG9uJywgJy1waCcsICc3LjAnLCAnLXRuJywgJzgnLCAnLW1hJywgJzIwMCcsICctbWV0YWxfYmluZGluZycsICctaW1hZScsICc8aW5maWxlLm1hZT4nLCAnLW9tYWUnLCAnPG91dGZpbGUubWFlPic=

> <r_lp_tautomer_probability>
1

> <r_epik_Ionization_Penalty>
2.17574

> <r_epik_Ionization_Penalty_Charging>
0

> <r_epik_Ionization_Penalty_Neutral>
2.17574

> <r_epik_State_Penalty>
2.31336

> <r_epik_Charging_Adjusted_Penalty>
2.31336

> <i_epik_Tot_Q>
0

> <i_epik_Tot_abs_Q>
0

> <r_epik_Metal_State_Penalty>
2.31025

> <b_epik_Metal_Only>
0

> <s_lp_Force_Field>
OPLS_2005

> <r_lp_Energy>
69.0307

> <b_lp_Chiralities_Consistent>
1

> <s_lp_Variant>
AV-unprocessed.smi:21-34

> <Gold.Version>
5.8.1

> <Gold.Id.Protein>
6NUR|6NUR_protein|mol2

> <Gold.PLP.Fitness>
43.7515

> <Gold.PLP.PLP>
-43.3368

> <Gold.PLP.part.hbond>
-2.7051

> <Gold.PLP.part.metal>
0.0000

> <Gold.PLP.part.buried>
-5.6687

> <Gold.PLP.part.nonpolar>
-33.9160

> <Gold.PLP.part.repulsive>
0.1472

> <Gold.PLP.ligand.clash>
0.0000

> <Gold.PLP.ligand.torsion>
1.3454

> <Gold.PLP.Chemscore.Hbond>
0.9157

> <Gold.PLP.Chemscore.CHOScore>
0.0000

> <Gold.PLP.Chemscore.Metal>
0.0000

> <Gold.Chemscore.Hbonds>
donor molecule, donor type, donor heavy atom, donor atom, acceptor molecule, acceptor atom, score
      P1  H  6931  6943       L1    21  0.58
      P1  H  6934  6947       L1    21  0.09

> <Gold.PLP.Chemscore.Internal.Correction>
0.3583

> <Gold.Rescore>
     Score         DG    S(hbond)    S(metal)    S(lipo)     H(rot)  DE(clash)    DE(int)     intcor
     10.09     -12.51       0.61        0.00     108.48       3.00       0.11       2.31       ----

> <Gold.Chemscore.Fitness>
10.0922

> <Gold.Chemscore.DG>
-12.5145

> <Gold.Chemscore.ZeroCoef>
-5.4800

> <Gold.Chemscore.Hbond>
0.6080

> <Gold.Chemscore.Metal>
0.0000

> <Gold.Chemscore.Lipo>
108.4779

> <Gold.Chemscore.Internal_Hbond>
0.0000

> <Gold.Chemscore.DEClash>
0.1095

> <Gold.Chemscore.DEInternal>
2.3128

> <Gold.Chemscore.Rot>
3.0031

> <Gold.Chemscore.Internal.Correction>
   9.000000E+99

> <Gold.Chemscore.Hbonds>
donor molecule, donor type, donor heavy atom, donor atom, acceptor molecule, acceptor atom, score
      P1  H  6931  6943       L1    21  0.31
      P1  H  6934  6947       L1    21  0.05

> <Gold.Chemscore.Hbond.Weighted>
-2.0306

> <Gold.Chemscore.Metal.Weighted>
-0.0000

> <Gold.Chemscore.Lipo.Weighted>
-12.6919

> <Gold.Chemscore.Internal_Hbond.Weighted>
0.0000

> <Gold.Chemscore.DEClash.Weighted>
0.1095

> <Gold.Chemscore.DEInternal.Weighted>
2.3128

> <Gold.Chemscore.Rot.Weighted>
7.6880

> <Gold.Chemscore.Internal.Correction.Weighted>
   9.000000E+99

> <Gold.Protein.RotatedTorsions>
[ 6907 6896 6895 6894 ] final  -40.07 input  -60.11 | X-H torsion
[ 7974 7965 7964 7962 ] final  -58.75 input  175.53 | X-H torsion
[ 8008 7997 7996 7995 ] final  100.93 input   59.86 | X-H torsion
[ 10167 10162 10161 10158 ] final -123.24 input  -65.29 | X-H torsion
[ 10718 10713 10712 10709 ] final   59.02 input   66.30 | X-H torsion
[ 10763 10752 10751 10750 ] final  131.69 input  -60.55 | X-H torsion
[ 11005 11000 10999 10996 ] final  125.67 input  -57.11 | X-H torsion

> <Gold.Protein.ActiveResidues>
 VAL166  LYS551  ARG553  GLY616  TRP617  ASP618  TYR619  PRO620  LYS621  CYS622 
 ASP623  PHE694  ASN695  SER759  ASP760  ASP761  ALA762  ILE779  LEU786  VAL792 
 PHE793  MET794  SER795  GLU796  ALA797  LYS798  CYS799  TRP800  GLU811  SER814 

> <Gold.Protein.RotatedAtoms>
  150.9828  134.9180  159.7854 H   0  0  0  0  0  0  0  0  0  0  0  0  # atno 6907 bound_to 6896
  152.5227  134.3387  159.9219 H   0  0  0  0  0  0  0  0  0  0  0  0  # atno 6908 bound_to 6896
  151.3394  133.3927  159.2704 H   0  0  0  0  0  0  0  0  0  0  0  0  # atno 6909 bound_to 6896
  145.8356  140.8451  143.0061 H   0  0  0  0  0  0  0  0  0  0  0  0  # atno 7974 bound_to 7965
  156.1250  140.3205  155.8264 H   0  0  0  0  0  0  0  0  0  0  0  0  # atno 8008 bound_to 7997
  155.4435  140.0527  157.3025 H   0  0  0  0  0  0  0  0  0  0  0  0  # atno 8009 bound_to 7997
  154.4856  140.2071  155.9677 H   0  0  0  0  0  0  0  0  0  0  0  0  # atno 8010 bound_to 7997
  140.0057  143.5494  152.2285 H   0  0  0  0  0  0  0  0  0  0  0  0  # atno 10167 bound_to 10162
  157.5643  130.8859  149.9161 H   0  0  0  0  0  0  0  0  0  0  0  0  # atno 10718 bound_to 10713
  153.7785  135.3172  155.3362 H   0  0  0  0  0  0  0  0  0  0  0  0  # atno 10763 bound_to 10752
  154.8170  135.4629  154.0675 H   0  0  0  0  0  0  0  0  0  0  0  0  # atno 10764 bound_to 10752
  153.1956  135.6915  153.8382 H   0  0  0  0  0  0  0  0  0  0  0  0  # atno 10765 bound_to 10752
  139.9418  134.9634  156.8592 H   0  0  0  0  0  0  0  0  0  0  0  0  # atno 11005 bound_to 11000
  144.6736  140.0737  143.7472 LP  0  0  0  0  0  0  0  0  0  0  0  0  # atno 17320 bound_to 7965
  145.9522  139.2741  143.1205 LP  0  0  0  0  0  0  0  0  0  0  0  0  # atno 17321 bound_to 7965
  139.6240  144.7634  151.2678 LP  0  0  0  0  0  0  0  0  0  0  0  0  # atno 17342 bound_to 10162
  140.7401  143.6596  150.8175 LP  0  0  0  0  0  0  0  0  0  0  0  0  # atno 17343 bound_to 10162
  156.0692  130.3687  150.0812 LP  0  0  0  0  0  0  0  0  0  0  0  0  # atno 17370 bound_to 10713
  156.8972  130.9608  151.3581 LP  0  0  0  0  0  0  0  0  0  0  0  0  # atno 17371 bound_to 10713
  140.5934  134.0240  155.7508 LP  0  0  0  0  0  0  0  0  0  0  0  0  # atno 17394 bound_to 11000
  141.1055  133.9701  157.3005 LP  0  0  0  0  0  0  0  0  0  0  0  0  # atno 17395 bound_to 11000

$$$$
