AV-unprocessed.smi:1993|AV-procd|sdf|8071|dock3
  -GOLD-   2272010283D 1   1.00000     0.00000
 Structure written by MMmdl.
 50 51  0  0  0  0  0  0  0  0  1 V2000
  148.9458  132.4652  153.2228 C   0  0  0  0  0  0  0  0  0  0  0  0
  147.6505  133.0733  153.7491 C   0  0  0  0  0  0  0  0  0  0  0  0
  146.9957  132.4839  154.6082 O   0  0  0  0  0  0  0  0  0  0  0  0
  147.2943  134.2576  153.2271 N   0  0  0  0  0  0  0  0  0  0  0  0
  146.1027  135.0238  153.5960 C   0  0  1  0  0  0  0  0  0  0  0  0
  146.4634  135.9381  154.7819 C   0  0  0  0  0  0  0  0  0  0  0  0
  145.8604  135.8407  155.8522 O   0  0  0  0  0  0  0  0  0  0  0  0
  147.4616  136.8106  154.5776 N   0  0  0  0  0  0  0  0  0  0  0  0
  147.9855  137.7312  155.5789 C   0  0  0  0  0  0  0  0  0  0  0  0
  149.4237  138.1464  155.2976 C   0  0  0  0  0  0  0  0  0  0  0  0
  150.4305  137.1609  155.2218 C   0  0  0  0  0  0  0  0  0  0  0  0
  151.7551  137.5524  154.9554 C   0  0  0  0  0  0  0  0  0  0  0  0
  152.0222  138.9216  154.7736 C   0  0  0  0  0  0  0  0  0  0  0  0
  151.0704  139.8756  154.8409 N   0  0  0  0  0  0  0  0  0  0  0  0
  149.7935  139.5016  155.0987 C   0  0  0  0  0  0  0  0  0  0  0  0
  148.8210  140.5134  155.1479 N   0  0  0  0  0  0  0  0  0  0  0  0
  148.2245  140.6690  156.4672 C   0  0  0  0  0  0  0  0  0  0  0  0
  147.3105  141.9056  156.4865 C   0  0  0  0  0  0  0  0  0  0  0  0
  146.3318  141.7931  155.4566 O   0  0  0  0  0  0  0  0  0  0  0  0
  146.9218  141.7088  154.1620 C   0  0  0  0  0  0  0  0  0  0  0  0
  147.8234  140.4647  154.0861 C   0  0  0  0  0  0  0  0  0  0  0  0
  145.6577  135.8815  152.3740 C   0  0  0  0  0  0  0  0  0  0  0  0
  144.3445  136.6522  152.6220 C   0  0  0  0  0  0  0  0  0  0  0  0
  145.5055  135.0294  151.0984 C   0  0  0  0  0  0  0  0  0  0  0  0
  149.0080  132.5639  152.1385 H   0  0  0  0  0  0  0  0  0  0  0  0
  149.0041  131.4052  153.4718 H   0  0  0  0  0  0  0  0  0  0  0  0
  149.8053  132.9683  153.6660 H   0  0  0  0  0  0  0  0  0  0  0  0
  147.8992  134.6700  152.5320 H   0  0  0  0  0  0  0  0  0  0  0  0
  145.2947  134.3441  153.8758 H   0  0  0  0  0  0  0  0  0  0  0  0
  147.8974  136.8300  153.6671 H   0  0  0  0  0  0  0  0  0  0  0  0
  147.3509  138.6174  155.6009 H   0  0  0  0  0  0  0  0  0  0  0  0
  147.9105  137.2880  156.5733 H   0  0  0  0  0  0  0  0  0  0  0  0
  150.1920  136.1169  155.3622 H   0  0  0  0  0  0  0  0  0  0  0  0
  152.5465  136.8207  154.8909 H   0  0  0  0  0  0  0  0  0  0  0  0
  153.0266  139.2604  154.5666 H   0  0  0  0  0  0  0  0  0  0  0  0
  147.6512  139.7755  156.7179 H   0  0  0  0  0  0  0  0  0  0  0  0
  149.0068  140.7716  157.2182 H   0  0  0  0  0  0  0  0  0  0  0  0
  146.8068  141.9863  157.4497 H   0  0  0  0  0  0  0  0  0  0  0  0
  147.8918  142.8193  156.3523 H   0  0  0  0  0  0  0  0  0  0  0  0
  146.1317  141.6476  153.4137 H   0  0  0  0  0  0  0  0  0  0  0  0
  147.4913  142.6154  153.9514 H   0  0  0  0  0  0  0  0  0  0  0  0
  148.3188  140.4170  153.1157 H   0  0  0  0  0  0  0  0  0  0  0  0
  147.2167  139.5638  154.1865 H   0  0  0  0  0  0  0  0  0  0  0  0
  146.4324  136.6228  152.1699 H   0  0  0  0  0  0  0  0  0  0  0  0
  143.5252  135.9688  152.8450 H   0  0  0  0  0  0  0  0  0  0  0  0
  144.0589  137.2301  151.7429 H   0  0  0  0  0  0  0  0  0  0  0  0
  144.4274  137.3586  153.4483 H   0  0  0  0  0  0  0  0  0  0  0  0
  144.7691  134.2375  151.2390 H   0  0  0  0  0  0  0  0  0  0  0  0
  146.4452  134.5616  150.8044 H   0  0  0  0  0  0  0  0  0  0  0  0
  145.1788  135.6391  150.2555 H   0  0  0  0  0  0  0  0  0  0  0  0
  1  2  1  0  0  0  0
  1 25  1  0  0  0  0
  1 26  1  0  0  0  0
  1 27  1  0  0  0  0
  2  3  2  0  0  0  0
  2  4  1  0  0  0  0
  4  5  1  0  0  0  0
  4 28  1  0  0  0  0
  5  6  1  0  0  0  0
  5 22  1  0  0  0  0
  5 29  1  0  0  0  0
  6  7  2  0  0  0  0
  6  8  1  0  0  0  0
  8  9  1  0  0  0  0
  8 30  1  0  0  0  0
  9 10  1  0  0  0  0
  9 31  1  0  0  0  0
  9 32  1  0  0  0  0
 10 15  1  0  0  0  0
 10 11  2  0  0  0  0
 11 12  1  0  0  0  0
 11 33  1  0  0  0  0
 12 13  2  0  0  0  0
 12 34  1  0  0  0  0
 13 14  1  0  0  0  0
 13 35  1  0  0  0  0
 14 15  2  0  0  0  0
 15 16  1  0  0  0  0
 16 21  1  0  0  0  0
 16 17  1  0  0  0  0
 17 18  1  0  0  0  0
 17 36  1  0  0  0  0
 17 37  1  0  0  0  0
 18 19  1  0  0  0  0
 18 38  1  0  0  0  0
 18 39  1  0  0  0  0
 19 20  1  0  0  0  0
 20 21  1  0  0  0  0
 20 40  1  0  0  0  0
 20 41  1  0  0  0  0
 21 42  1  0  0  0  0
 21 43  1  0  0  0  0
 22 23  1  0  0  0  0
 22 24  1  0  0  0  0
 22 44  1  0  0  0  0
 23 45  1  0  0  0  0
 23 46  1  0  0  0  0
 23 47  1  0  0  0  0
 24 48  1  0  0  0  0
 24 49  1  0  0  0  0
 24 50  1  0  0  0  0
M  END
> <s_m_source_file>
AV-unprocessed.smi

> <i_m_source_file_index>
1993

> <i_lp_mmshare_version>
43012

> <i_f3d_flags>
0

> <s_epik_input>
W0NIM11DKD1PKVtOSF1bQ0BASF0oW0NIXShbQ0gzXSlbQ0gzXSlDKD1PKVtOSF1bQ0gyXWMxW2NIXVtjSF1bY0hdbmMxTjJbQ0gyXVtDSDJdT1tDSDJdW0NIMl0y

> <s_epik_cmdline>
J2VwaWtfcHl0aG9uJywgJy1waCcsICc3LjAnLCAnLXRuJywgJzgnLCAnLW1hJywgJzIwMCcsICctbWV0YWxfYmluZGluZycsICctaW1hZScsICc8aW5maWxlLm1hZT4nLCAnLW9tYWUnLCAnPG91dGZpbGUubWFlPic=

> <r_lp_tautomer_probability>
1

> <r_epik_Ionization_Penalty>
0.00485175

> <r_epik_Ionization_Penalty_Charging>
0

> <r_epik_Ionization_Penalty_Neutral>
0.00485175

> <r_epik_State_Penalty>
0.00351951

> <r_epik_Charging_Adjusted_Penalty>
0.00351951

> <i_epik_Tot_Q>
0

> <i_epik_Tot_abs_Q>
0

> <r_epik_Metal_State_Penalty>
-0

> <b_epik_Metal_Only>
0

> <s_lp_Force_Field>
OPLS_2005

> <r_lp_Energy>
18.9648

> <b_lp_Chiralities_Consistent>
1

> <s_lp_Variant>
AV-unprocessed.smi:1993-2

> <Gold.Version>
5.8.1

> <Gold.Id.Protein>
6NUR|6NUR_protein|mol2

> <Gold.PLP.Fitness>
39.4651

> <Gold.PLP.PLP>
-31.6966

> <Gold.PLP.part.hbond>
-3.0000

> <Gold.PLP.part.metal>
0.0000

> <Gold.PLP.part.buried>
-3.3625

> <Gold.PLP.part.nonpolar>
-25.5140

> <Gold.PLP.part.repulsive>
0.3550

> <Gold.PLP.ligand.clash>
0.0000

> <Gold.PLP.ligand.torsion>
0.6613

> <Gold.PLP.Chemscore.Hbond>
2.9513

> <Gold.PLP.Chemscore.CHOScore>
0.0000

> <Gold.PLP.Chemscore.Metal>
0.0000

> <Gold.Chemscore.Hbonds>
donor molecule, donor type, donor heavy atom, donor atom, acceptor molecule, acceptor atom, score
      L1  H     4    28       P1  7948  1.00
      L1  H     8    30       P1  7948  0.63
      P1  H  7989  7998       L1    14  0.85

> <Gold.PLP.Chemscore.Internal.Correction>
0.2374

> <Gold.Rescore>
     Score         DG    S(hbond)    S(metal)    S(lipo)     H(rot)  DE(clash)    DE(int)     intcor
     13.96     -15.53       2.31        0.00      67.55       2.18       0.44       1.13       ----

> <Gold.Chemscore.Fitness>
13.9624

> <Gold.Chemscore.DG>
-15.5301

> <Gold.Chemscore.ZeroCoef>
-5.4800

> <Gold.Chemscore.Hbond>
2.3146

> <Gold.Chemscore.Metal>
0.0000

> <Gold.Chemscore.Lipo>
67.5521

> <Gold.Chemscore.Internal_Hbond>
0.0000

> <Gold.Chemscore.DEClash>
0.4383

> <Gold.Chemscore.DEInternal>
1.1294

> <Gold.Chemscore.Rot>
2.1813

> <Gold.Chemscore.Internal.Correction>
   9.000000E+99

> <Gold.Chemscore.Hbonds>
donor molecule, donor type, donor heavy atom, donor atom, acceptor molecule, acceptor atom, score
      L1  H     4    28       P1  7948  0.66
      L1  H     8    30       P1  7948  0.65
      P1  H  7989  7998       L1    14  0.15

> <Gold.Chemscore.Hbond.Weighted>
-7.7307

> <Gold.Chemscore.Metal.Weighted>
-0.0000

> <Gold.Chemscore.Lipo.Weighted>
-7.9036

> <Gold.Chemscore.Internal_Hbond.Weighted>
0.0000

> <Gold.Chemscore.DEClash.Weighted>
0.4383

> <Gold.Chemscore.DEInternal.Weighted>
1.1294

> <Gold.Chemscore.Rot.Weighted>
5.5842

> <Gold.Chemscore.Internal.Correction.Weighted>
   9.000000E+99

> <Gold.Protein.RotatedTorsions>
[ 6907 6896 6895 6894 ] final -144.92 input  -60.11 | X-H torsion
[ 7974 7965 7964 7962 ] final  -56.76 input  175.53 | X-H torsion
[ 8008 7997 7996 7995 ] final  118.18 input   59.86 | X-H torsion
[ 10167 10162 10161 10158 ] final   91.76 input  -65.29 | X-H torsion
[ 10718 10713 10712 10709 ] final  -47.43 input   66.30 | X-H torsion
[ 10763 10752 10751 10750 ] final -134.27 input  -60.55 | X-H torsion
[ 11005 11000 10999 10996 ] final -171.97 input  -57.11 | X-H torsion

> <Gold.Protein.ActiveResidues>
 VAL166  LYS551  ARG553  GLY616  TRP617  ASP618  TYR619  PRO620  LYS621  CYS622 
 ASP623  PHE694  ASN695  SER759  ASP760  ASP761  ALA762  ILE779  LEU786  VAL792 
 PHE793  MET794  SER795  GLU796  ALA797  LYS798  CYS799  TRP800  GLU811  SER814 

> <Gold.Protein.RotatedAtoms>
  151.1206  133.5107  159.2602 H   0  0  0  0  0  0  0  0  0  0  0  0  # atno 6907 bound_to 6896
  151.1865  135.0383  159.8825 H   0  0  0  0  0  0  0  0  0  0  0  0  # atno 6908 bound_to 6896
  152.5455  134.1052  159.8388 H   0  0  0  0  0  0  0  0  0  0  0  0  # atno 6909 bound_to 6896
  145.8589  140.8299  142.9947 H   0  0  0  0  0  0  0  0  0  0  0  0  # atno 7974 bound_to 7965
  156.2533  140.2880  156.0795 H   0  0  0  0  0  0  0  0  0  0  0  0  # atno 8008 bound_to 7997
  155.1582  140.0399  157.2854 H   0  0  0  0  0  0  0  0  0  0  0  0  # atno 8009 bound_to 7997
  154.6412  140.2522  155.7327 H   0  0  0  0  0  0  0  0  0  0  0  0  # atno 8010 bound_to 7997
  139.8343  144.6672  150.9361 H   0  0  0  0  0  0  0  0  0  0  0  0  # atno 10167 bound_to 10162
  156.2085  130.4159  149.9145 H   0  0  0  0  0  0  0  0  0  0  0  0  # atno 10718 bound_to 10713
  154.8721  135.3740  154.4708 H   0  0  0  0  0  0  0  0  0  0  0  0  # atno 10763 bound_to 10752
  153.5368  135.7027  153.5661 H   0  0  0  0  0  0  0  0  0  0  0  0  # atno 10764 bound_to 10752
  153.3840  135.3989  155.1842 H   0  0  0  0  0  0  0  0  0  0  0  0  # atno 10765 bound_to 10752
  140.5023  134.5882  157.4992 H   0  0  0  0  0  0  0  0  0  0  0  0  # atno 11005 bound_to 11000
  144.6727  140.1066  143.7457 LP  0  0  0  0  0  0  0  0  0  0  0  0  # atno 17320 bound_to 7965
  145.9271  139.2582  143.1347 LP  0  0  0  0  0  0  0  0  0  0  0  0  # atno 17321 bound_to 7965
  140.7804  143.3971  151.1210 LP  0  0  0  0  0  0  0  0  0  0  0  0  # atno 17342 bound_to 10162
  139.7623  143.8617  152.3103 LP  0  0  0  0  0  0  0  0  0  0  0  0  # atno 17343 bound_to 10162
  156.6831  130.8866  151.3578 LP  0  0  0  0  0  0  0  0  0  0  0  0  # atno 17370 bound_to 10713
  157.7026  130.9349  150.0831 LP  0  0  0  0  0  0  0  0  0  0  0  0  # atno 17371 bound_to 10713
  139.9706  134.7299  156.0049 LP  0  0  0  0  0  0  0  0  0  0  0  0  # atno 17394 bound_to 11000
  141.1429  133.6561  156.3782 LP  0  0  0  0  0  0  0  0  0  0  0  0  # atno 17395 bound_to 11000

$$$$
