AV-unprocessed.smi:2928|AV-procd|sdf|11231|dock4
  -GOLD-   2272016123D 1   1.00000     0.00000
 Structure written by MMmdl.
 55 58  0  0  0  0  0  0  0  0  2 V2000
  143.1952  132.5298  151.2970 C   0  0  0  0  0  0  0  0  0  0  0  0
  144.0261  133.2002  152.3254 N   0  3  2  0  0  0  0  0  0  0  0  0
  143.7771  134.6537  152.4767 C   0  0  2  0  0  0  0  0  0  0  0  0
  144.2879  135.4467  151.2465 C   0  0  0  0  0  0  0  0  0  0  0  0
  145.7413  135.1321  150.8448 C   0  0  0  0  0  0  0  0  0  0  0  0
  146.0851  133.6364  150.9661 C   0  0  0  0  0  0  0  0  0  0  0  0
  145.4815  132.9430  152.2133 C   0  0  1  0  0  0  0  0  0  0  0  0
  146.1617  133.2933  153.5572 C   0  0  0  0  0  0  0  0  0  0  0  0
  145.7786  134.6693  154.1692 C   0  0  1  0  0  0  0  0  0  0  0  0
  146.7440  135.7202  153.8628 N   0  0  0  0  0  0  0  0  0  0  0  0
  146.5769  137.0328  154.0749 C   0  0  0  0  0  0  0  0  0  0  0  0
  145.5457  137.5254  154.5318 O   0  0  0  0  0  0  0  0  0  0  0  0
  147.6875  137.7121  153.7488 N   0  0  0  0  0  0  0  0  0  0  0  0
  147.9617  139.0945  153.9381 C   0  0  0  0  0  0  0  0  0  0  0  0
  146.9922  140.1050  153.7312 C   0  0  0  0  0  0  0  0  0  0  0  0
  147.3571  141.4505  153.9195 C   0  0  0  0  0  0  0  0  0  0  0  0
  148.6799  141.7383  154.3012 C   0  0  0  0  0  0  0  0  0  0  0  0
  149.6186  140.7879  154.4875 N   0  0  0  0  0  0  0  0  0  0  0  0
  149.2730  139.4903  154.3055 C   0  0  0  0  0  0  0  0  0  0  0  0
  150.2648  138.5135  154.5066 N   0  0  0  0  0  0  0  0  0  0  0  0
  151.6183  139.0146  154.6729 C   0  0  0  0  0  0  0  0  0  0  0  0
  152.4206  137.8349  155.2282 C   0  0  0  0  0  0  0  0  0  0  0  0
  151.3734  136.9048  155.8540 C   0  0  0  0  0  0  0  0  0  0  0  0
  150.0331  137.6055  155.6172 C   0  0  0  0  0  0  0  0  0  0  0  0
  144.3322  135.1202  153.8434 C   0  0  0  0  0  0  0  0  0  0  0  0
  143.4015  132.8980  150.2927 H   0  0  0  0  0  0  0  0  0  0  0  0
  142.1362  132.6866  151.5029 H   0  0  0  0  0  0  0  0  0  0  0  0
  143.3755  131.4546  151.3053 H   0  0  0  0  0  0  0  0  0  0  0  0
  142.6970  134.8019  152.5224 H   0  0  0  0  0  0  0  0  0  0  0  0
  143.6436  135.2216  150.3960 H   0  0  0  0  0  0  0  0  0  0  0  0
  144.1756  136.5180  151.4157 H   0  0  0  0  0  0  0  0  0  0  0  0
  145.9116  135.4594  149.8187 H   0  0  0  0  0  0  0  0  0  0  0  0
  146.4348  135.7270  151.4293 H   0  0  0  0  0  0  0  0  0  0  0  0
  145.7192  133.1282  150.0736 H   0  0  0  0  0  0  0  0  0  0  0  0
  147.1674  133.5041  150.9492 H   0  0  0  0  0  0  0  0  0  0  0  0
  145.6182  131.8692  152.0756 H   0  0  0  0  0  0  0  0  0  0  0  0
  145.8553  132.5309  154.2750 H   0  0  0  0  0  0  0  0  0  0  0  0
  147.2431  133.1790  153.4744 H   0  0  0  0  0  0  0  0  0  0  0  0
  145.8254  134.5600  155.2546 H   0  0  0  0  0  0  0  0  0  0  0  0
  147.6291  135.4204  153.4807 H   0  0  0  0  0  0  0  0  0  0  0  0
  148.4780  137.1559  153.4569 H   0  0  0  0  0  0  0  0  0  0  0  0
  145.9856  139.8730  153.4187 H   0  0  0  0  0  0  0  0  0  0  0  0
  146.6398  142.2440  153.7702 H   0  0  0  0  0  0  0  0  0  0  0  0
  148.9949  142.7599  154.4547 H   0  0  0  0  0  0  0  0  0  0  0  0
  152.0260  139.3673  153.7251 H   0  0  0  0  0  0  0  0  0  0  0  0
  151.6354  139.8463  155.3787 H   0  0  0  0  0  0  0  0  0  0  0  0
  152.9410  137.3173  154.4215 H   0  0  0  0  0  0  0  0  0  0  0  0
  153.1693  138.1634  155.9496 H   0  0  0  0  0  0  0  0  0  0  0  0
  151.3892  135.9369  155.3518 H   0  0  0  0  0  0  0  0  0  0  0  0
  151.5527  136.7316  156.9154 H   0  0  0  0  0  0  0  0  0  0  0  0
  149.7370  138.1591  156.5095 H   0  0  0  0  0  0  0  0  0  0  0  0
  149.2418  136.8924  155.3841 H   0  0  0  0  0  0  0  0  0  0  0  0
  144.2264  136.2006  153.9520 H   0  0  0  0  0  0  0  0  0  0  0  0
  143.6837  134.6951  154.6112 H   0  0  0  0  0  0  0  0  0  0  0  0
  143.7401  132.7805  153.1986 H   0  0  0  0  0  0  0  0  0  0  0  0
  1  2  1  0  0  0  0
  1 26  1  0  0  0  0
  1 27  1  0  0  0  0
  1 28  1  0  0  0  0
  2  7  1  0  0  0  0
  2  3  1  0  0  0  0
  2 55  1  0  0  0  0
  3 25  1  0  0  0  0
  3  4  1  0  0  0  0
  3 29  1  0  0  0  0
  4  5  1  0  0  0  0
  4 30  1  0  0  0  0
  4 31  1  0  0  0  0
  5  6  1  0  0  0  0
  5 32  1  0  0  0  0
  5 33  1  0  0  0  0
  6  7  1  0  0  0  0
  6 34  1  0  0  0  0
  6 35  1  0  0  0  0
  7  8  1  0  0  0  0
  7 36  1  0  0  0  0
  8  9  1  0  0  0  0
  8 37  1  0  0  0  0
  8 38  1  0  0  0  0
  9 10  1  0  0  0  0
  9 25  1  0  0  0  0
  9 39  1  0  0  0  0
 10 11  1  0  0  0  0
 10 40  1  0  0  0  0
 11 12  2  0  0  0  0
 11 13  1  0  0  0  0
 13 14  1  0  0  0  0
 13 41  1  0  0  0  0
 14 19  1  0  0  0  0
 14 15  2  0  0  0  0
 15 16  1  0  0  0  0
 15 42  1  0  0  0  0
 16 17  2  0  0  0  0
 16 43  1  0  0  0  0
 17 18  1  0  0  0  0
 17 44  1  0  0  0  0
 18 19  2  0  0  0  0
 19 20  1  0  0  0  0
 20 24  1  0  0  0  0
 20 21  1  0  0  0  0
 21 22  1  0  0  0  0
 21 45  1  0  0  0  0
 21 46  1  0  0  0  0
 22 23  1  0  0  0  0
 22 47  1  0  0  0  0
 22 48  1  0  0  0  0
 23 24  1  0  0  0  0
 23 49  1  0  0  0  0
 23 50  1  0  0  0  0
 24 51  1  0  0  0  0
 24 52  1  0  0  0  0
 25 53  1  0  0  0  0
 25 54  1  0  0  0  0
M  CHG  1   2   1
M  END
> <s_m_source_file>
AV-unprocessed.smi

> <i_m_source_file_index>
2928

> <i_lp_mmshare_version>
43012

> <i_f3d_flags>
0

> <s_epik_input>
W0NIMl0xW0NIMl1bQ0gyXVtDQEhdKE4oW0NIM10pW0NIXTEyKVtDSDJdW0NASF0oW0NIMl0yKVtOSF1DKD1PKVtOSF1jM1tjSF1bY0hdW2NIXW5jM040W0NIMl1bQ0gyXVtDSDJdW0NIMl00

> <s_epik_cmdline>
J2VwaWtfcHl0aG9uJywgJy1waCcsICc3LjAnLCAnLXRuJywgJzgnLCAnLW1hJywgJzIwMCcsICctbWV0YWxfYmluZGluZycsICctaW1hZScsICc8aW5maWxlLm1hZT4nLCAnLW9tYWUnLCAnPG91dGZpbGUubWFlPic=

> <r_lp_tautomer_probability>
1

> <r_epik_Ionization_Penalty>
0.07954

> <r_epik_Ionization_Penalty_Charging>
0.00089841

> <r_epik_Ionization_Penalty_Neutral>
0.0786416

> <r_epik_State_Penalty>
0.0689917

> <r_epik_Charging_Adjusted_Penalty>
0.0698901

> <i_epik_Tot_Q>
1

> <i_epik_Tot_abs_Q>
1

> <r_epik_Metal_State_Penalty>
0.0608947

> <b_epik_Metal_Only>
0

> <s_lp_Force_Field>
OPLS_2005

> <r_lp_Energy>
66.344

> <b_lp_Chiralities_Consistent>
1

> <s_lp_Variant>
AV-unprocessed.smi:2928-1

> <Gold.Version>
5.8.1

> <Gold.Id.Protein>
6NUR|6NUR_protein|mol2

> <Gold.PLP.Fitness>
45.8112

> <Gold.PLP.PLP>
-35.2481

> <Gold.PLP.part.hbond>
-3.5782

> <Gold.PLP.part.metal>
0.0000

> <Gold.PLP.part.buried>
-2.6491

> <Gold.PLP.part.nonpolar>
-30.7794

> <Gold.PLP.part.repulsive>
0.3928

> <Gold.PLP.ligand.clash>
0.0000

> <Gold.PLP.ligand.torsion>
0.6089

> <Gold.PLP.Chemscore.Hbond>
2.9025

> <Gold.PLP.Chemscore.CHOScore>
1.0000

> <Gold.PLP.Chemscore.Metal>
0.0000

> <Gold.Chemscore.Hbonds>
donor molecule, donor type, donor heavy atom, donor atom, acceptor molecule, acceptor atom, score
      L1  H     2    55       P1 10957  1.37
      L1  H    10    40       P1  7948  0.34
      L1  H    13    41       P1  7948  0.70
      P1  H  7989  7998       L1    18  0.33
      L1  C    17    44       P1  8028  1.00

> <Gold.PLP.Chemscore.Internal.Correction>
0.0734

> <Gold.Rescore>
     Score         DG    S(hbond)    S(metal)    S(lipo)     H(rot)  DE(clash)    DE(int)     intcor
     14.88     -19.51       1.87        0.00      92.35       1.18       0.85       3.78       ----

> <Gold.Chemscore.Fitness>
14.8775

> <Gold.Chemscore.DG>
-19.5119

> <Gold.Chemscore.ZeroCoef>
-5.4800

> <Gold.Chemscore.Hbond>
1.8687

> <Gold.Chemscore.Metal>
0.0000

> <Gold.Chemscore.Lipo>
92.3515

> <Gold.Chemscore.Internal_Hbond>
0.0000

> <Gold.Chemscore.DEClash>
0.8538

> <Gold.Chemscore.DEInternal>
3.7806

> <Gold.Chemscore.Rot>
1.1776

> <Gold.Chemscore.Internal.Correction>
   9.000000E+99

> <Gold.Chemscore.Hbonds>
donor molecule, donor type, donor heavy atom, donor atom, acceptor molecule, acceptor atom, score
      L1  H     2    55       P1 10957  0.27
      L1  H    10    40       P1  7948  0.34
      L1  H    13    41       P1  7948  0.70
      P1  H  7989  7998       L1    18  0.11

> <Gold.Chemscore.Hbond.Weighted>
-6.2415

> <Gold.Chemscore.Metal.Weighted>
-0.0000

> <Gold.Chemscore.Lipo.Weighted>
-10.8051

> <Gold.Chemscore.Internal_Hbond.Weighted>
0.0000

> <Gold.Chemscore.DEClash.Weighted>
0.8538

> <Gold.Chemscore.DEInternal.Weighted>
3.7806

> <Gold.Chemscore.Rot.Weighted>
3.0147

> <Gold.Chemscore.Internal.Correction.Weighted>
   9.000000E+99

> <Gold.Protein.RotatedTorsions>
[ 6907 6896 6895 6894 ] final -142.23 input  -60.11 | X-H torsion
[ 7974 7965 7964 7962 ] final  -15.71 input  175.53 | X-H torsion
[ 8008 7997 7996 7995 ] final   62.57 input   59.86 | X-H torsion
[ 10167 10162 10161 10158 ] final  176.33 input  -65.29 | X-H torsion
[ 10718 10713 10712 10709 ] final  -37.89 input   66.30 | X-H torsion
[ 10763 10752 10751 10750 ] final   22.03 input  -60.55 | X-H torsion
[ 11005 11000 10999 10996 ] final    8.12 input  -57.11 | X-H torsion

> <Gold.Protein.ActiveResidues>
 VAL166  LYS551  ARG553  GLY616  TRP617  ASP618  TYR619  PRO620  LYS621  CYS622 
 ASP623  PHE694  ASN695  SER759  ASP760  ASP761  ALA762  ILE779  LEU786  VAL792 
 PHE793  MET794  SER795  GLU796  ALA797  LYS798  CYS799  TRP800  GLU811  SER814 

> <Gold.Protein.RotatedAtoms>
  151.0842  133.5366  159.2618 H   0  0  0  0  0  0  0  0  0  0  0  0  # atno 6907 bound_to 6896
  151.2257  135.0535  159.8977 H   0  0  0  0  0  0  0  0  0  0  0  0  # atno 6908 bound_to 6896
  152.5427  134.0639  159.8217 H   0  0  0  0  0  0  0  0  0  0  0  0  # atno 6909 bound_to 6896
  146.2020  140.3532  142.8420 H   0  0  0  0  0  0  0  0  0  0  0  0  # atno 7974 bound_to 7965
  155.6164  140.3495  155.4638 H   0  0  0  0  0  0  0  0  0  0  0  0  # atno 8008 bound_to 7997
  156.0114  140.1234  157.0474 H   0  0  0  0  0  0  0  0  0  0  0  0  # atno 8009 bound_to 7997
  154.4282  140.1081  156.5820 H   0  0  0  0  0  0  0  0  0  0  0  0  # atno 8010 bound_to 7997
  139.5210  144.2928  152.0448 H   0  0  0  0  0  0  0  0  0  0  0  0  # atno 10167 bound_to 10162
  156.3100  130.4251  149.8060 H   0  0  0  0  0  0  0  0  0  0  0  0  # atno 10718 bound_to 10713
  153.0948  135.6657  153.9784 H   0  0  0  0  0  0  0  0  0  0  0  0  # atno 10763 bound_to 10752
  153.9371  135.2998  155.3445 H   0  0  0  0  0  0  0  0  0  0  0  0  # atno 10764 bound_to 10752
  154.7366  135.5099  153.9125 H   0  0  0  0  0  0  0  0  0  0  0  0  # atno 10765 bound_to 10752
  140.5406  134.0378  155.7903 H   0  0  0  0  0  0  0  0  0  0  0  0  # atno 11005 bound_to 11000
  144.8705  140.7265  143.6050 LP  0  0  0  0  0  0  0  0  0  0  0  0  # atno 17320 bound_to 7965
  145.3451  139.1721  143.4465 LP  0  0  0  0  0  0  0  0  0  0  0  0  # atno 17321 bound_to 7965
  140.2379  144.4300  150.6272 LP  0  0  0  0  0  0  0  0  0  0  0  0  # atno 17342 bound_to 10162
  140.6311  143.2187  151.6494 LP  0  0  0  0  0  0  0  0  0  0  0  0  # atno 17343 bound_to 10162
  156.5407  130.8298  151.3268 LP  0  0  0  0  0  0  0  0  0  0  0  0  # atno 17370 bound_to 10713
  157.7388  130.9821  150.2278 LP  0  0  0  0  0  0  0  0  0  0  0  0  # atno 17371 bound_to 10713
  141.1229  133.9431  157.2693 LP  0  0  0  0  0  0  0  0  0  0  0  0  # atno 17394 bound_to 11000
  139.9506  135.0176  156.8983 LP  0  0  0  0  0  0  0  0  0  0  0  0  # atno 17395 bound_to 11000

$$$$
