AV-unprocessed.smi:2592|AV-procd|sdf|10159|dock6
  -GOLD-   2272014173D 1   1.00000     0.00000
 Structure written by MMmdl.
 43 44  0  0  0  0  0  0  0  0  2 V2000
  141.9690  134.3301  152.8162 C   0  0  0  0  0  0  0  0  0  0  0  0
  143.3333  134.5011  152.2218 C   0  0  0  0  0  0  0  0  0  0  0  0
  144.1220  135.5883  152.6093 N   0  0  0  0  0  0  0  0  0  0  0  0
  145.3059  135.6022  151.9890 C   0  0  0  0  0  0  0  0  0  0  0  0
  146.3032  136.5927  152.1887 N   0  0  0  0  0  0  0  0  0  0  0  0
  146.1420  137.8569  152.6175 C   0  0  0  0  0  0  0  0  0  0  0  0
  145.0672  138.3743  152.9236 O   0  0  0  0  0  0  0  0  0  0  0  0
  147.3147  138.5049  152.6785 N   0  0  0  0  0  0  0  0  0  0  0  0
  147.4791  139.8943  153.0920 C   0  0  0  0  0  0  0  0  0  0  0  0
  148.4991  140.0336  154.2347 C   0  0  0  0  0  0  0  0  0  0  0  0
  148.7843  141.5041  154.5839 C   0  0  0  0  0  0  0  0  0  0  0  0
  147.6110  142.1846  155.1872 N   0  3  0  0  0  0  0  0  0  0  0  0
  146.5885  142.5472  154.1763 C   0  0  0  0  0  0  0  0  0  0  0  0
  145.4141  143.2901  154.8358 C   0  0  0  0  0  0  0  0  0  0  0  0
  144.8581  142.4843  155.8670 O   0  0  0  0  0  0  0  0  0  0  0  0
  145.8046  142.2054  156.8908 C   0  0  0  0  0  0  0  0  0  0  0  0
  146.9895  141.4233  156.2997 C   0  0  0  0  0  0  0  0  0  0  0  0
  145.5336  134.2635  150.8772 S   0  0  0  0  0  0  0  0  0  0  0  0
  143.9414  133.6826  151.2978 C   0  0  0  0  0  0  0  0  0  0  0  0
  143.3903  132.4431  150.6749 C   0  0  0  0  0  0  0  0  0  0  0  0
  141.9522  133.5032  153.5263 H   0  0  0  0  0  0  0  0  0  0  0  0
  141.2268  134.1200  152.0457 H   0  0  0  0  0  0  0  0  0  0  0  0
  141.6449  135.2263  153.3460 H   0  0  0  0  0  0  0  0  0  0  0  0
  147.2472  136.3052  151.9767 H   0  0  0  0  0  0  0  0  0  0  0  0
  148.1500  138.0073  152.4062 H   0  0  0  0  0  0  0  0  0  0  0  0
  147.8094  140.4675  152.2255 H   0  0  0  0  0  0  0  0  0  0  0  0
  146.5138  140.3087  153.3882 H   0  0  0  0  0  0  0  0  0  0  0  0
  148.1234  139.5084  155.1125 H   0  0  0  0  0  0  0  0  0  0  0  0
  149.4293  139.5388  153.9524 H   0  0  0  0  0  0  0  0  0  0  0  0
  149.6115  141.5279  155.2949 H   0  0  0  0  0  0  0  0  0  0  0  0
  149.1193  142.0534  153.7026 H   0  0  0  0  0  0  0  0  0  0  0  0
  147.0345  143.1801  153.4081 H   0  0  0  0  0  0  0  0  0  0  0  0
  146.2280  141.6447  153.6800 H   0  0  0  0  0  0  0  0  0  0  0  0
  145.7369  144.2502  155.2416 H   0  0  0  0  0  0  0  0  0  0  0  0
  144.6408  143.5005  154.0970 H   0  0  0  0  0  0  0  0  0  0  0  0
  146.1425  143.1339  157.3543 H   0  0  0  0  0  0  0  0  0  0  0  0
  145.3189  141.6188  157.6708 H   0  0  0  0  0  0  0  0  0  0  0  0
  146.6484  140.4531  155.9347 H   0  0  0  0  0  0  0  0  0  0  0  0
  147.7171  141.2305  157.0871 H   0  0  0  0  0  0  0  0  0  0  0  0
  142.6530  132.6914  149.9114 H   0  0  0  0  0  0  0  0  0  0  0  0
  142.9053  131.8147  151.4221 H   0  0  0  0  0  0  0  0  0  0  0  0
  144.1780  131.8541  150.2050 H   0  0  0  0  0  0  0  0  0  0  0  0
  147.9475  143.0548  155.5741 H   0  0  0  0  0  0  0  0  0  0  0  0
  1  2  1  0  0  0  0
  1 21  1  0  0  0  0
  1 22  1  0  0  0  0
  1 23  1  0  0  0  0
  2 19  2  0  0  0  0
  2  3  1  0  0  0  0
  3  4  2  0  0  0  0
  4  5  1  0  0  0  0
  4 18  1  0  0  0  0
  5  6  1  0  0  0  0
  5 24  1  0  0  0  0
  6  7  2  0  0  0  0
  6  8  1  0  0  0  0
  8  9  1  0  0  0  0
  8 25  1  0  0  0  0
  9 10  1  0  0  0  0
  9 26  1  0  0  0  0
  9 27  1  0  0  0  0
 10 11  1  0  0  0  0
 10 28  1  0  0  0  0
 10 29  1  0  0  0  0
 11 12  1  0  0  0  0
 11 30  1  0  0  0  0
 11 31  1  0  0  0  0
 12 17  1  0  0  0  0
 12 13  1  0  0  0  0
 12 43  1  0  0  0  0
 13 14  1  0  0  0  0
 13 32  1  0  0  0  0
 13 33  1  0  0  0  0
 14 15  1  0  0  0  0
 14 34  1  0  0  0  0
 14 35  1  0  0  0  0
 15 16  1  0  0  0  0
 16 17  1  0  0  0  0
 16 36  1  0  0  0  0
 16 37  1  0  0  0  0
 17 38  1  0  0  0  0
 17 39  1  0  0  0  0
 18 19  1  0  0  0  0
 19 20  1  0  0  0  0
 20 40  1  0  0  0  0
 20 41  1  0  0  0  0
 20 42  1  0  0  0  0
M  CHG  1  12   1
M  END
> <s_m_source_file>
AV-unprocessed.smi

> <i_m_source_file_index>
2592

> <i_lp_mmshare_version>
43012

> <i_f3d_flags>
0

> <s_epik_input>
W0NIM11jMW5jKHNjMVtDSDNdKVtOSF1DKD1PKVtOSF1bQ0gyXVtDSDJdW0NIMl1OMltDSDJdW0NIMl1PW0NIMl1bQ0gyXTI=

> <s_epik_cmdline>
J2VwaWtfcHl0aG9uJywgJy1waCcsICc3LjAnLCAnLXRuJywgJzgnLCAnLW1hJywgJzIwMCcsICctbWV0YWxfYmluZGluZycsICctaW1hZScsICc8aW5maWxlLm1hZT4nLCAnLW9tYWUnLCAnPG91dGZpbGUubWFlPic=

> <r_lp_tautomer_probability>
0.999

> <r_epik_Ionization_Penalty>
0.281876

> <r_epik_Ionization_Penalty_Charging>
0.281705

> <r_epik_Ionization_Penalty_Neutral>
0.000171168

> <r_epik_State_Penalty>
0.274317

> <r_epik_Charging_Adjusted_Penalty>
0.556022

> <i_epik_Tot_Q>
1

> <i_epik_Tot_abs_Q>
1

> <r_epik_Metal_State_Penalty>
0.293174

> <b_epik_Metal_Only>
0

> <s_lp_Force_Field>
OPLS_2005

> <r_lp_Energy>
13.2764

> <b_lp_Chiralities_Consistent>
1

> <s_lp_Variant>
AV-unprocessed.smi:2592-1

> <Gold.Version>
5.8.1

> <Gold.Id.Protein>
6NUR|6NUR_protein|mol2

> <Gold.PLP.Fitness>
43.7879

> <Gold.PLP.PLP>
-32.4425

> <Gold.PLP.part.hbond>
-3.9555

> <Gold.PLP.part.metal>
0.0000

> <Gold.PLP.part.buried>
-2.5633

> <Gold.PLP.part.nonpolar>
-30.7483

> <Gold.PLP.part.repulsive>
4.2979

> <Gold.PLP.ligand.clash>
0.0000

> <Gold.PLP.ligand.torsion>
0.2633

> <Gold.PLP.Chemscore.Hbond>
3.9440

> <Gold.PLP.Chemscore.CHOScore>
0.0000

> <Gold.PLP.Chemscore.Metal>
0.0000

> <Gold.Chemscore.Hbonds>
donor molecule, donor type, donor heavy atom, donor atom, acceptor molecule, acceptor atom, score
      L1  H     5    24       P1  7948  1.00
      L1  H     8    25       P1  7948  0.94
      L1  H    12    43       P1  8028  2.00

> <Gold.PLP.Chemscore.Internal.Correction>
0.0399

> <Gold.Rescore>
     Score         DG    S(hbond)    S(metal)    S(lipo)     H(rot)  DE(clash)    DE(int)     intcor
     14.81     -19.29       2.92        0.00      73.29       1.76       2.97       1.51       ----

> <Gold.Chemscore.Fitness>
14.8072

> <Gold.Chemscore.DG>
-19.2905

> <Gold.Chemscore.ZeroCoef>
-5.4800

> <Gold.Chemscore.Hbond>
2.9162

> <Gold.Chemscore.Metal>
0.0000

> <Gold.Chemscore.Lipo>
73.2860

> <Gold.Chemscore.Internal_Hbond>
0.0000

> <Gold.Chemscore.DEClash>
2.9720

> <Gold.Chemscore.DEInternal>
1.5114

> <Gold.Chemscore.Rot>
1.7593

> <Gold.Chemscore.Internal.Correction>
   9.000000E+99

> <Gold.Chemscore.Hbonds>
donor molecule, donor type, donor heavy atom, donor atom, acceptor molecule, acceptor atom, score
      L1  H     5    24       P1  7948  1.00
      L1  H     8    25       P1  7948  0.87
      L1  H    12    43       P1  8028  0.69

> <Gold.Chemscore.Hbond.Weighted>
-9.7400

> <Gold.Chemscore.Metal.Weighted>
-0.0000

> <Gold.Chemscore.Lipo.Weighted>
-8.5745

> <Gold.Chemscore.Internal_Hbond.Weighted>
0.0000

> <Gold.Chemscore.DEClash.Weighted>
2.9720

> <Gold.Chemscore.DEInternal.Weighted>
1.5114

> <Gold.Chemscore.Rot.Weighted>
4.5039

> <Gold.Chemscore.Internal.Correction.Weighted>
   9.000000E+99

> <Gold.Protein.RotatedTorsions>
[ 6907 6896 6895 6894 ] final  154.82 input  -60.11 | X-H torsion
[ 7974 7965 7964 7962 ] final -122.37 input  175.53 | X-H torsion
[ 8008 7997 7996 7995 ] final   72.19 input   59.86 | X-H torsion
[ 10167 10162 10161 10158 ] final  -10.29 input  -65.29 | X-H torsion
[ 10718 10713 10712 10709 ] final  143.35 input   66.30 | X-H torsion
[ 10763 10752 10751 10750 ] final  -57.78 input  -60.55 | X-H torsion
[ 11005 11000 10999 10996 ] final   84.03 input  -57.11 | X-H torsion

> <Gold.Protein.ActiveResidues>
 VAL166  LYS551  ARG553  GLY616  TRP617  ASP618  TYR619  PRO620  LYS621  CYS622 
 ASP623  PHE694  ASN695  SER759  ASP760  ASP761  ALA762  ILE779  LEU786  VAL792 
 PHE793  MET794  SER795  GLU796  ALA797  LYS798  CYS799  TRP800  GLU811  SER814 

> <Gold.Protein.RotatedAtoms>
  152.0531  133.4028  159.4385 H   0  0  0  0  0  0  0  0  0  0  0  0  # atno 6907 bound_to 6896
  150.6869  134.3285  159.4826 H   0  0  0  0  0  0  0  0  0  0  0  0  # atno 6908 bound_to 6896
  152.1098  134.9282  160.0617 H   0  0  0  0  0  0  0  0  0  0  0  0  # atno 6909 bound_to 6896
  145.0302  140.8061  143.4328 H   0  0  0  0  0  0  0  0  0  0  0  0  # atno 7974 bound_to 7965
  155.7651  140.3485  155.5218 H   0  0  0  0  0  0  0  0  0  0  0  0  # atno 8008 bound_to 7997
  155.8876  140.1012  157.1462 H   0  0  0  0  0  0  0  0  0  0  0  0  # atno 8009 bound_to 7997
  154.4030  140.1310  156.4262 H   0  0  0  0  0  0  0  0  0  0  0  0  # atno 8010 bound_to 7997
  140.7110  143.5764  150.9038 H   0  0  0  0  0  0  0  0  0  0  0  0  # atno 10167 bound_to 10162
  157.3700  131.0977  151.0837 H   0  0  0  0  0  0  0  0  0  0  0  0  # atno 10718 bound_to 10713
  154.2278  135.6366  153.5165 H   0  0  0  0  0  0  0  0  0  0  0  0  # atno 10763 bound_to 10752
  152.9955  135.5512  154.6045 H   0  0  0  0  0  0  0  0  0  0  0  0  # atno 10764 bound_to 10752
  154.5521  135.2902  155.0973 H   0  0  0  0  0  0  0  0  0  0  0  0  # atno 10765 bound_to 10752
  139.9012  134.8187  156.2390 H   0  0  0  0  0  0  0  0  0  0  0  0  # atno 11005 bound_to 11000
  145.1780  139.2367  143.5307 LP  0  0  0  0  0  0  0  0  0  0  0  0  # atno 17320 bound_to 7965
  146.3497  140.1547  142.8592 LP  0  0  0  0  0  0  0  0  0  0  0  0  # atno 17321 bound_to 7965
  139.9490  143.6294  152.3034 LP  0  0  0  0  0  0  0  0  0  0  0  0  # atno 17342 bound_to 10162
  139.6806  144.7656  151.1616 LP  0  0  0  0  0  0  0  0  0  0  0  0  # atno 17343 bound_to 10162
  157.1945  130.6367  149.5716 LP  0  0  0  0  0  0  0  0  0  0  0  0  # atno 17370 bound_to 10713
  155.9753  130.4711  150.6454 LP  0  0  0  0  0  0  0  0  0  0  0  0  # atno 17371 bound_to 10713
  141.0297  133.6995  156.1408 LP  0  0  0  0  0  0  0  0  0  0  0  0  # atno 17394 bound_to 11000
  140.7114  134.4457  157.5581 LP  0  0  0  0  0  0  0  0  0  0  0  0  # atno 17395 bound_to 11000

$$$$
