AV-unprocessed.smi:1578|AV-procd|sdf|6352|dock10
  -GOLD-   22720 6573D 1   1.00000     0.00000
 Structure written by MMmdl.
 45 46  0  0  0  0  0  0  0  0  2 V2000
  146.2781  143.0231  154.2756 C   0  0  0  0  0  0  0  0  0  0  0  0
  146.6524  141.5433  154.1194 C   0  0  2  0  0  0  0  0  0  0  0  0
  145.9289  140.6584  155.1584 C   0  0  0  0  0  0  0  0  0  0  0  0
  144.4523  140.6804  155.0004 N   0  3  0  0  0  0  0  0  0  0  0  0
  143.7926  139.4498  155.4945 C   0  0  0  0  0  0  0  0  0  0  0  0
  142.2812  139.5108  155.2155 C   0  0  0  0  0  0  0  0  0  0  0  0
  141.7296  140.6756  155.8176 O   0  0  0  0  0  0  0  0  0  0  0  0
  142.3008  141.8692  155.2952 C   0  0  0  0  0  0  0  0  0  0  0  0
  143.8114  141.8844  155.5811 C   0  0  0  0  0  0  0  0  0  0  0  0
  148.1010  141.3936  154.2483 N   0  0  0  0  0  0  0  0  0  0  0  0
  148.7975  141.3247  155.3969 C   0  0  0  0  0  0  0  0  0  0  0  0
  148.2621  141.3313  156.5043 O   0  0  0  0  0  0  0  0  0  0  0  0
  150.3328  141.2951  155.3107 C   0  0  0  0  0  0  0  0  0  0  0  0
  151.0145  141.3191  156.6172 N   0  0  0  0  0  0  0  0  0  0  0  0
  151.0464  142.5584  157.2867 C   0  0  0  0  0  0  0  0  0  0  0  0
  151.6450  142.7325  158.4801 C   0  0  0  0  0  0  0  0  0  0  0  0
  151.7272  144.1007  159.1388 C   0  0  0  0  0  0  0  0  0  0  0  0
  150.5140  144.6264  159.3079 F   0  0  0  0  0  0  0  0  0  0  0  0
  152.3192  144.0231  160.3314 F   0  0  0  0  0  0  0  0  0  0  0  0
  152.4381  144.9295  158.3760 F   0  0  0  0  0  0  0  0  0  0  0  0
  152.2905  141.5675  159.0528 C   0  0  0  0  0  0  0  0  0  0  0  0
  152.2834  140.3789  158.4182 C   0  0  0  0  0  0  0  0  0  0  0  0
  151.6254  140.2053  157.1212 C   0  0  0  0  0  0  0  0  0  0  0  0
  151.6341  139.1317  156.5197 O   0  0  0  0  0  0  0  0  0  0  0  0
  145.2031  143.1688  154.1661 H   0  0  0  0  0  0  0  0  0  0  0  0
  146.7710  143.6343  153.5189 H   0  0  0  0  0  0  0  0  0  0  0  0
  146.5682  143.4073  155.2543 H   0  0  0  0  0  0  0  0  0  0  0  0
  146.3367  141.2398  153.1204 H   0  0  0  0  0  0  0  0  0  0  0  0
  146.2793  139.6331  155.0288 H   0  0  0  0  0  0  0  0  0  0  0  0
  146.2017  140.9465  156.1747 H   0  0  0  0  0  0  0  0  0  0  0  0
  144.2196  138.5758  155.0013 H   0  0  0  0  0  0  0  0  0  0  0  0
  143.9754  139.3391  156.5645 H   0  0  0  0  0  0  0  0  0  0  0  0
  142.0835  139.5149  154.1422 H   0  0  0  0  0  0  0  0  0  0  0  0
  141.7865  138.6307  155.6268 H   0  0  0  0  0  0  0  0  0  0  0  0
  142.1067  141.9427  154.2237 H   0  0  0  0  0  0  0  0  0  0  0  0
  141.8205  142.7272  155.7656 H   0  0  0  0  0  0  0  0  0  0  0  0
  143.9880  141.9128  156.6573 H   0  0  0  0  0  0  0  0  0  0  0  0
  144.2514  142.7885  155.1612 H   0  0  0  0  0  0  0  0  0  0  0  0
  148.6260  141.3690  153.3858 H   0  0  0  0  0  0  0  0  0  0  0  0
  150.6278  140.3959  154.7673 H   0  0  0  0  0  0  0  0  0  0  0  0
  150.6578  142.1226  154.6783 H   0  0  0  0  0  0  0  0  0  0  0  0
  150.5640  143.3661  156.7545 H   0  0  0  0  0  0  0  0  0  0  0  0
  152.7841  141.6467  160.0103 H   0  0  0  0  0  0  0  0  0  0  0  0
  152.7726  139.5316  158.8766 H   0  0  0  0  0  0  0  0  0  0  0  0
  144.2781  140.7092  154.0059 H   0  0  0  0  0  0  0  0  0  0  0  0
  1  2  1  0  0  0  0
  1 25  1  0  0  0  0
  1 26  1  0  0  0  0
  1 27  1  0  0  0  0
  2  3  1  0  0  0  0
  2 10  1  0  0  0  0
  2 28  1  0  0  0  0
  3  4  1  0  0  0  0
  3 29  1  0  0  0  0
  3 30  1  0  0  0  0
  4  9  1  0  0  0  0
  4  5  1  0  0  0  0
  4 45  1  0  0  0  0
  5  6  1  0  0  0  0
  5 31  1  0  0  0  0
  5 32  1  0  0  0  0
  6  7  1  0  0  0  0
  6 33  1  0  0  0  0
  6 34  1  0  0  0  0
  7  8  1  0  0  0  0
  8  9  1  0  0  0  0
  8 35  1  0  0  0  0
  8 36  1  0  0  0  0
  9 37  1  0  0  0  0
  9 38  1  0  0  0  0
 10 11  1  0  0  0  0
 10 39  1  0  0  0  0
 11 12  2  0  0  0  0
 11 13  1  0  0  0  0
 13 14  1  0  0  0  0
 13 40  1  0  0  0  0
 13 41  1  0  0  0  0
 14 23  1  0  0  0  0
 14 15  1  0  0  0  0
 15 16  2  0  0  0  0
 15 42  1  0  0  0  0
 16 17  1  0  0  0  0
 16 21  1  0  0  0  0
 17 18  1  0  0  0  0
 17 19  1  0  0  0  0
 17 20  1  0  0  0  0
 21 22  2  0  0  0  0
 21 43  1  0  0  0  0
 22 23  1  0  0  0  0
 22 44  1  0  0  0  0
 23 24  2  0  0  0  0
M  CHG  1   4   1
M  END
> <s_m_source_file>
AV-unprocessed.smi

> <i_m_source_file_index>
1578

> <i_lp_mmshare_version>
43012

> <i_f3d_flags>
0

> <s_epik_input>
W0NIMl0xW0NIMl1PW0NIMl1bQ0gyXU4xW0NIMl1bQ0BASF0oW0NIM10pW05IXUMoPU8pW0NIMl1uMltjSF1jKEMoRikoRilGKVtjSF1bY0hdYzI9Tw==

> <s_epik_cmdline>
J2VwaWtfcHl0aG9uJywgJy1waCcsICc3LjAnLCAnLXRuJywgJzgnLCAnLW1hJywgJzIwMCcsICctbWV0YWxfYmluZGluZycsICctaW1hZScsICc8aW5maWxlLm1hZT4nLCAnLW9tYWUnLCAnPG91dGZpbGUubWFlPic=

> <r_lp_tautomer_probability>
1

> <r_epik_Ionization_Penalty>
0.656654

> <r_epik_Ionization_Penalty_Charging>
0.656653

> <r_epik_Ionization_Penalty_Neutral>
9.12373e-08

> <r_epik_State_Penalty>
0.675641

> <r_epik_Charging_Adjusted_Penalty>
1.33229

> <i_epik_Tot_Q>
1

> <i_epik_Tot_abs_Q>
1

> <r_epik_Metal_State_Penalty>
0.675695

> <b_epik_Metal_Only>
0

> <s_lp_Force_Field>
OPLS_2005

> <r_lp_Energy>
34.2523

> <b_lp_Chiralities_Consistent>
1

> <s_lp_Variant>
AV-unprocessed.smi:1578-3

> <Gold.Version>
5.8.1

> <Gold.Id.Protein>
6NUR|6NUR_protein|mol2

> <Gold.PLP.Fitness>
49.6943

> <Gold.PLP.PLP>
-42.1927

> <Gold.PLP.part.hbond>
-1.0000

> <Gold.PLP.part.metal>
0.0000

> <Gold.PLP.part.buried>
-4.8250

> <Gold.PLP.part.nonpolar>
-35.6452

> <Gold.PLP.part.repulsive>
0.3397

> <Gold.PLP.ligand.clash>
0.0000

> <Gold.PLP.ligand.torsion>
0.8102

> <Gold.PLP.Chemscore.Hbond>
2.0000

> <Gold.PLP.Chemscore.CHOScore>
1.0000

> <Gold.PLP.Chemscore.Metal>
0.0000

> <Gold.Chemscore.Hbonds>
donor molecule, donor type, donor heavy atom, donor atom, acceptor molecule, acceptor atom, score
      L1  H     4    45       P1 10175  2.00
      L1  C    15    42       P1  8028  1.00

> <Gold.PLP.Chemscore.Internal.Correction>
0.1221

> <Gold.Rescore>
     Score         DG    S(hbond)    S(metal)    S(lipo)     H(rot)  DE(clash)    DE(int)     intcor
      9.44     -11.78       1.00        0.00      72.87       2.17       0.08       2.26       ----

> <Gold.Chemscore.Fitness>
9.4418

> <Gold.Chemscore.DG>
-11.7755

> <Gold.Chemscore.ZeroCoef>
-5.4800

> <Gold.Chemscore.Hbond>
0.9966

> <Gold.Chemscore.Metal>
0.0000

> <Gold.Chemscore.Lipo>
72.8725

> <Gold.Chemscore.Internal_Hbond>
0.0000

> <Gold.Chemscore.DEClash>
0.0752

> <Gold.Chemscore.DEInternal>
2.2585

> <Gold.Chemscore.Rot>
2.1716

> <Gold.Chemscore.Internal.Correction>
   9.000000E+99

> <Gold.Chemscore.Hbonds>
donor molecule, donor type, donor heavy atom, donor atom, acceptor molecule, acceptor atom, score
      L1  H     4    45       P1 10175  0.98

> <Gold.Chemscore.Hbond.Weighted>
-3.3286

> <Gold.Chemscore.Metal.Weighted>
-0.0000

> <Gold.Chemscore.Lipo.Weighted>
-8.5261

> <Gold.Chemscore.Internal_Hbond.Weighted>
0.0000

> <Gold.Chemscore.DEClash.Weighted>
0.0752

> <Gold.Chemscore.DEInternal.Weighted>
2.2585

> <Gold.Chemscore.Rot.Weighted>
5.5592

> <Gold.Chemscore.Internal.Correction.Weighted>
   9.000000E+99

> <Gold.Protein.RotatedTorsions>
[ 6907 6896 6895 6894 ] final  -56.00 input  -60.11 | X-H torsion
[ 7974 7965 7964 7962 ] final  -91.71 input  175.53 | X-H torsion
[ 8008 7997 7996 7995 ] final  137.54 input   59.86 | X-H torsion
[ 10167 10162 10161 10158 ] final   48.76 input  -65.29 | X-H torsion
[ 10718 10713 10712 10709 ] final  -16.88 input   66.30 | X-H torsion
[ 10763 10752 10751 10750 ] final   47.25 input  -60.55 | X-H torsion
[ 11005 11000 10999 10996 ] final  132.31 input  -57.11 | X-H torsion

> <Gold.Protein.ActiveResidues>
 VAL166  LYS551  ARG553  GLY616  TRP617  ASP618  TYR619  PRO620  LYS621  CYS622 
 ASP623  PHE694  ASN695  SER759  ASP760  ASP761  ALA762  ILE779  LEU786  VAL792 
 PHE793  MET794  SER795  GLU796  ALA797  LYS798  CYS799  TRP800  GLU811  SER814 

> <Gold.Protein.RotatedAtoms>
  150.8204  134.7408  159.6766 H   0  0  0  0  0  0  0  0  0  0  0  0  # atno 6907 bound_to 6896
  152.4320  134.5756  159.9943 H   0  0  0  0  0  0  0  0  0  0  0  0  # atno 6908 bound_to 6896
  151.5942  133.3326  159.3070 H   0  0  0  0  0  0  0  0  0  0  0  0  # atno 6909 bound_to 6896
  145.4095  140.9544  143.2242 H   0  0  0  0  0  0  0  0  0  0  0  0  # atno 7974 bound_to 7965
  156.3001  140.2417  156.3926 H   0  0  0  0  0  0  0  0  0  0  0  0  # atno 8008 bound_to 7997
  154.8600  140.0420  157.1679 H   0  0  0  0  0  0  0  0  0  0  0  0  # atno 8009 bound_to 7997
  154.8907  140.2962  155.5376 H   0  0  0  0  0  0  0  0  0  0  0  0  # atno 8010 bound_to 7997
  140.2899  144.3058  150.6243 H   0  0  0  0  0  0  0  0  0  0  0  0  # atno 10167 bound_to 10162
  156.5813  130.4775  149.6319 H   0  0  0  0  0  0  0  0  0  0  0  0  # atno 10718 bound_to 10713
  152.9802  135.5982  154.3732 H   0  0  0  0  0  0  0  0  0  0  0  0  # atno 10763 bound_to 10752
  154.3403  135.2768  155.2428 H   0  0  0  0  0  0  0  0  0  0  0  0  # atno 10764 bound_to 10752
  154.4512  135.5989  153.6248 H   0  0  0  0  0  0  0  0  0  0  0  0  # atno 10765 bound_to 10752
  139.9783  134.9556  156.9564 H   0  0  0  0  0  0  0  0  0  0  0  0  # atno 11005 bound_to 11000
  144.8319  139.5615  143.6940 LP  0  0  0  0  0  0  0  0  0  0  0  0  # atno 17320 bound_to 7965
  146.2712  139.6640  142.9295 LP  0  0  0  0  0  0  0  0  0  0  0  0  # atno 17321 bound_to 7965
  140.5741  143.2178  151.7547 LP  0  0  0  0  0  0  0  0  0  0  0  0  # atno 17342 bound_to 10162
  139.4940  144.4175  152.0014 LP  0  0  0  0  0  0  0  0  0  0  0  0  # atno 17343 bound_to 10162
  156.2629  130.6972  151.1746 LP  0  0  0  0  0  0  0  0  0  0  0  0  # atno 17370 bound_to 10713
  157.7326  131.0598  150.5621 LP  0  0  0  0  0  0  0  0  0  0  0  0  # atno 17371 bound_to 10713
  140.5150  134.0964  155.7279 LP  0  0  0  0  0  0  0  0  0  0  0  0  # atno 17394 bound_to 11000
  141.1457  133.9058  157.2220 LP  0  0  0  0  0  0  0  0  0  0  0  0  # atno 17395 bound_to 11000

$$$$
