AV-unprocessed.smi:34|AV-procd|sdf|245|dock6
  -GOLD-   2262016 03D 1   1.00000     0.00000
 Structure written by MMmdl.
 54 58  0  0  0  0  0  0  0  0  2 V2000
  153.4712  139.7160  158.3410 O   0  0  0  0  0  0  0  0  0  0  0  0
  152.9434  140.5853  157.6442 C   0  0  0  0  0  0  0  0  0  0  0  0
  152.6704  140.5366  156.3156 N   0  5  0  0  0  0  0  0  0  0  0  0
  151.8899  139.5608  155.8268 C   0  0  0  0  0  0  0  0  0  0  0  0
  150.9189  139.8465  154.9226 N   0  0  0  0  0  0  0  0  0  0  0  0
  150.1507  138.8702  154.4256 C   0  0  0  0  0  0  0  0  0  0  0  0
  150.1856  137.5598  154.6846 N   0  0  0  0  0  0  0  0  0  0  0  0
  151.1602  137.2569  155.5913 C   0  0  0  0  0  0  0  0  0  0  0  0
  152.0459  138.1965  156.1961 C   0  0  0  0  0  0  0  0  0  0  0  0
  152.9230  137.5614  157.0627 N   0  0  0  0  0  0  0  0  0  0  0  0
  152.5385  136.2925  156.9500 C   0  0  0  0  0  0  0  0  0  0  0  0
  151.5148  136.0226  156.1154 N   0  0  0  0  0  0  0  0  0  0  0  0
  150.9158  134.6795  155.8313 C   0  0  2  0  0  0  0  0  0  0  0  0
  151.4858  133.7461  156.6986 O   0  0  0  0  0  0  0  0  0  0  0  0
  151.7389  132.5437  155.9829 C   0  0  2  0  0  0  0  0  0  0  0  0
  152.7914  131.6919  156.7047 C   0  0  0  0  0  0  0  0  0  0  0  0
  152.7276  131.9413  158.0999 O   0  0  0  0  0  0  0  0  0  0  0  0
  152.3934  130.9476  158.9469 C   0  0  0  0  0  0  0  0  0  0  0  0
  152.5841  129.7537  158.7061 O   0  0  0  0  0  0  0  0  0  0  0  0
  151.7743  131.4435  160.2102 C   0  0  0  0  0  0  0  0  0  0  0  0
  151.9869  132.7850  160.6058 C   0  0  0  0  0  0  0  0  0  0  0  0
  151.4120  133.2835  161.7909 C   0  0  0  0  0  0  0  0  0  0  0  0
  150.6183  132.4461  162.5962 C   0  0  0  0  0  0  0  0  0  0  0  0
  150.4013  131.1089  162.2153 C   0  0  0  0  0  0  0  0  0  0  0  0
  150.9749  130.6088  161.0298 C   0  0  0  0  0  0  0  0  0  0  0  0
  152.1332  133.0306  154.5870 C   0  0  2  0  0  0  0  0  0  0  0  0
  153.4006  133.4491  154.5997 F   0  0  0  0  0  0  0  0  0  0  0  0
  151.1720  134.1935  154.3880 C   0  0  2  0  0  0  0  0  0  0  0  0
  151.6740  135.1632  153.4853 O   0  0  0  0  0  0  0  0  0  0  0  0
  152.4668  141.8527  158.3021 C   0  0  0  0  0  0  0  0  0  0  0  0
  153.1777  142.3805  159.4041 C   0  0  0  0  0  0  0  0  0  0  0  0
  152.7630  143.5794  160.0166 C   0  0  0  0  0  0  0  0  0  0  0  0
  151.6379  144.2688  159.5268 C   0  0  0  0  0  0  0  0  0  0  0  0
  150.9303  143.7606  158.4215 C   0  0  0  0  0  0  0  0  0  0  0  0
  151.3442  142.5618  157.8088 C   0  0  0  0  0  0  0  0  0  0  0  0
  149.4008  139.1843  153.7150 H   0  0  0  0  0  0  0  0  0  0  0  0
  153.0298  135.5112  157.5108 H   0  0  0  0  0  0  0  0  0  0  0  0
  149.8544  134.8034  156.0509 H   0  0  0  0  0  0  0  0  0  0  0  0
  150.7983  131.9927  155.9244 H   0  0  0  0  0  0  0  0  0  0  0  0
  152.6409  130.6314  156.4985 H   0  0  0  0  0  0  0  0  0  0  0  0
  153.7853  131.9549  156.3401 H   0  0  0  0  0  0  0  0  0  0  0  0
  152.5916  133.4472  160.0030 H   0  0  0  0  0  0  0  0  0  0  0  0
  151.5800  134.3101  162.0814 H   0  0  0  0  0  0  0  0  0  0  0  0
  150.1770  132.8288  163.5048 H   0  0  0  0  0  0  0  0  0  0  0  0
  149.7933  130.4649  162.8337 H   0  0  0  0  0  0  0  0  0  0  0  0
  150.7885  129.5776  160.7671 H   0  0  0  0  0  0  0  0  0  0  0  0
  152.0479  132.2613  153.8191 H   0  0  0  0  0  0  0  0  0  0  0  0
  150.2251  133.8141  154.0018 H   0  0  0  0  0  0  0  0  0  0  0  0
  150.9490  135.6659  153.1468 H   0  0  0  0  0  0  0  0  0  0  0  0
  154.0450  141.8645  159.7904 H   0  0  0  0  0  0  0  0  0  0  0  0
  153.3103  143.9700  160.8615 H   0  0  0  0  0  0  0  0  0  0  0  0
  151.3203  145.1885  159.9954 H   0  0  0  0  0  0  0  0  0  0  0  0
  150.0709  144.2916  158.0399 H   0  0  0  0  0  0  0  0  0  0  0  0
  150.7939  142.1948  156.9544 H   0  0  0  0  0  0  0  0  0  0  0  0
  1  2  2  0  0  0  0
  2  3  1  0  0  0  0
  2 30  1  0  0  0  0
  3  4  1  0  0  0  0
  4  9  1  0  0  0  0
  4  5  2  0  0  0  0
  5  6  1  0  0  0  0
  6  7  2  0  0  0  0
  6 36  1  0  0  0  0
  7  8  1  0  0  0  0
  8 12  1  0  0  0  0
  8  9  2  0  0  0  0
  9 10  1  0  0  0  0
 10 11  2  0  0  0  0
 11 12  1  0  0  0  0
 11 37  1  0  0  0  0
 12 13  1  0  0  0  0
 13 28  1  0  0  0  0
 13 14  1  0  0  0  0
 13 38  1  0  0  0  0
 14 15  1  0  0  0  0
 15 16  1  0  0  0  0
 15 26  1  0  0  0  0
 15 39  1  0  0  0  0
 16 17  1  0  0  0  0
 16 40  1  0  0  0  0
 16 41  1  0  0  0  0
 17 18  1  0  0  0  0
 18 19  2  0  0  0  0
 18 20  1  0  0  0  0
 20 25  1  0  0  0  0
 20 21  2  0  0  0  0
 21 22  1  0  0  0  0
 21 42  1  0  0  0  0
 22 23  2  0  0  0  0
 22 43  1  0  0  0  0
 23 24  1  0  0  0  0
 23 44  1  0  0  0  0
 24 25  2  0  0  0  0
 24 45  1  0  0  0  0
 25 46  1  0  0  0  0
 26 27  1  0  0  0  0
 26 28  1  0  0  0  0
 26 47  1  0  0  0  0
 28 29  1  0  0  0  0
 28 48  1  0  0  0  0
 29 49  1  0  0  0  0
 30 35  1  0  0  0  0
 30 31  2  0  0  0  0
 31 32  1  0  0  0  0
 31 50  1  0  0  0  0
 32 33  2  0  0  0  0
 32 51  1  0  0  0  0
 33 34  1  0  0  0  0
 33 52  1  0  0  0  0
 34 35  2  0  0  0  0
 34 53  1  0  0  0  0
 35 54  1  0  0  0  0
M  CHG  1   3  -1
M  END
> <s_m_source_file>
AV-unprocessed.smi

> <i_m_source_file_index>
34

> <i_lp_mmshare_version>
43012

> <i_f3d_flags>
0

> <s_epik_input>
W2NIXTFbY0hdW2NIXVtjSF1bY0hdYzFDKD1PKVtOSF1jKG5bY0hdbjIpYyhjMjMpbltjSF1uM1tDQEBIXTRPW0NASF0oW0NAQEhdKEYpW0NASF00W09IXSlbQ0gyXU9DKD1PKWM1W2NIXVtjSF1bY0hdW2NIXVtjSF01

> <s_epik_cmdline>
J2VwaWtfcHl0aG9uJywgJy1waCcsICc3LjAnLCAnLXRuJywgJzgnLCAnLW1hJywgJzIwMCcsICctbWV0YWxfYmluZGluZycsICctaW1hZScsICc8aW5maWxlLm1hZT4nLCAnLW9tYWUnLCAnPG91dGZpbGUubWFlPic=

> <r_lp_tautomer_probability>
1

> <r_epik_Ionization_Penalty>
4.33227

> <r_epik_Ionization_Penalty_Charging>
3.41027

> <r_epik_Ionization_Penalty_Neutral>
0.922001

> <r_epik_State_Penalty>
3.41358

> <r_epik_Charging_Adjusted_Penalty>
6.82385

> <i_epik_Tot_Q>
-1

> <i_epik_Tot_abs_Q>
1

> <r_epik_Metal_State_Penalty>
0.496292

> <b_epik_Metal_Only>
1

> <s_epik_Chemistry_Notes>
This compound has an ester and may undergo hydrolysis at high or low pH. This compound contains an acetal/aminal-like group ( X-CH(R)-Y where X, Y are N, S, or O) that may be acid/base labile, releasing an aldehyde.

> <s_lp_Force_Field>
OPLS_2005

> <r_lp_Energy>
53.545

> <b_lp_Chiralities_Consistent>
1

> <s_lp_Variant>
AV-unprocessed.smi:34-31

> <Gold.Version>
5.8.1

> <Gold.Id.Protein>
6NUR|6NUR_protein|mol2

> <Gold.PLP.Fitness>
62.8605

> <Gold.PLP.PLP>
-53.4086

> <Gold.PLP.part.hbond>
-4.1492

> <Gold.PLP.part.metal>
0.0000

> <Gold.PLP.part.buried>
-5.7430

> <Gold.PLP.part.nonpolar>
-44.3604

> <Gold.PLP.part.repulsive>
0.2222

> <Gold.PLP.ligand.clash>
0.0000

> <Gold.PLP.ligand.torsion>
2.7746

> <Gold.PLP.Chemscore.Hbond>
3.8296

> <Gold.PLP.Chemscore.CHOScore>
1.0000

> <Gold.PLP.Chemscore.Metal>
0.0000

> <Gold.Chemscore.Hbonds>
donor molecule, donor type, donor heavy atom, donor atom, acceptor molecule, acceptor atom, score
      L1  H    29    49       P1  7949  0.13
      P1  H  7989  7998       L1     5  1.00
      P1  H 10752 10763       L1    29  0.03
      L1  C     6    36       P1  7957  0.58

> <Gold.PLP.Chemscore.Internal.Correction>
0.5123

> <Gold.Rescore>
     Score         DG    S(hbond)    S(metal)    S(lipo)     H(rot)  DE(clash)    DE(int)     intcor
     10.22     -18.21       1.22        0.00     132.88       2.69       0.16       7.84       ----

> <Gold.Chemscore.Fitness>
10.2190

> <Gold.Chemscore.DG>
-18.2105

> <Gold.Chemscore.ZeroCoef>
-5.4800

> <Gold.Chemscore.Hbond>
1.2220

> <Gold.Chemscore.Metal>
0.0000

> <Gold.Chemscore.Lipo>
132.8769

> <Gold.Chemscore.Internal_Hbond>
0.0000

> <Gold.Chemscore.DEClash>
0.1552

> <Gold.Chemscore.DEInternal>
7.8363

> <Gold.Chemscore.Rot>
2.6944

> <Gold.Chemscore.Internal.Correction>
   9.000000E+99

> <Gold.Chemscore.Hbonds>
donor molecule, donor type, donor heavy atom, donor atom, acceptor molecule, acceptor atom, score
      L1  H    29    49       P1  7949  0.01
      P1  H  7989  7998       L1     5  0.52
      P1  H 10752 10763       L1    29  0.08

> <Gold.Chemscore.Hbond.Weighted>
-4.0814

> <Gold.Chemscore.Metal.Weighted>
-0.0000

> <Gold.Chemscore.Lipo.Weighted>
-15.5466

> <Gold.Chemscore.Internal_Hbond.Weighted>
0.0000

> <Gold.Chemscore.DEClash.Weighted>
0.1552

> <Gold.Chemscore.DEInternal.Weighted>
7.8363

> <Gold.Chemscore.Rot.Weighted>
6.8975

> <Gold.Chemscore.Internal.Correction.Weighted>
   9.000000E+99

> <Gold.Protein.RotatedTorsions>
[ 6907 6896 6895 6894 ] final  136.24 input  -60.11 | X-H torsion
[ 7974 7965 7964 7962 ] final   28.42 input  175.53 | X-H torsion
[ 8008 7997 7996 7995 ] final  -43.95 input   59.86 | X-H torsion
[ 10167 10162 10161 10158 ] final  -59.17 input  -65.29 | X-H torsion
[ 10718 10713 10712 10709 ] final  -61.98 input   66.30 | X-H torsion
[ 10763 10752 10751 10750 ] final  -16.25 input  -60.55 | X-H torsion
[ 11005 11000 10999 10996 ] final    7.45 input  -57.11 | X-H torsion

> <Gold.Protein.ActiveResidues>
 VAL166  LYS551  ARG553  GLY616  TRP617  ASP618  TYR619  PRO620  LYS621  CYS622 
 ASP623  PHE694  ASN695  SER759  ASP760  ASP761  ALA762  ILE779  LEU786  VAL792 
 PHE793  MET794  SER795  GLU796  ALA797  LYS798  CYS799  TRP800  GLU811  SER814 

> <Gold.Protein.RotatedAtoms>
  152.2916  133.5566  159.5560 H   0  0  0  0  0  0  0  0  0  0  0  0  # atno 6907 bound_to 6896
  150.7238  134.0421  159.3778 H   0  0  0  0  0  0  0  0  0  0  0  0  # atno 6908 bound_to 6896
  151.8326  135.0617  160.0489 H   0  0  0  0  0  0  0  0  0  0  0  0  # atno 6909 bound_to 6896
  146.1730  139.7058  142.8954 H   0  0  0  0  0  0  0  0  0  0  0  0  # atno 7974 bound_to 7965
  154.3997  140.1434  156.3603 H   0  0  0  0  0  0  0  0  0  0  0  0  # atno 8008 bound_to 7997
  155.8187  140.3470  155.5480 H   0  0  0  0  0  0  0  0  0  0  0  0  # atno 8009 bound_to 7997
  155.8310  140.0912  157.1783 H   0  0  0  0  0  0  0  0  0  0  0  0  # atno 8010 bound_to 7997
  140.6152  143.2400  151.5614 H   0  0  0  0  0  0  0  0  0  0  0  0  # atno 10167 bound_to 10162
  156.0885  130.4204  150.1071 H   0  0  0  0  0  0  0  0  0  0  0  0  # atno 10718 bound_to 10713
  153.5556  135.7011  153.5571 H   0  0  0  0  0  0  0  0  0  0  0  0  # atno 10763 bound_to 10752
  153.3475  135.4004  155.1620 H   0  0  0  0  0  0  0  0  0  0  0  0  # atno 10764 bound_to 10752
  154.8655  135.3757  154.5070 H   0  0  0  0  0  0  0  0  0  0  0  0  # atno 10765 bound_to 10752
  140.5481  134.0310  155.7927 H   0  0  0  0  0  0  0  0  0  0  0  0  # atno 11005 bound_to 11000
  145.4289  141.0413  143.2921 LP  0  0  0  0  0  0  0  0  0  0  0  0  # atno 17320 bound_to 7965
  144.8192  139.5823  143.6995 LP  0  0  0  0  0  0  0  0  0  0  0  0  # atno 17321 bound_to 7965
  139.5393  144.2693  152.1317 LP  0  0  0  0  0  0  0  0  0  0  0  0  # atno 17342 bound_to 10162
  140.1901  144.4760  150.6483 LP  0  0  0  0  0  0  0  0  0  0  0  0  # atno 17343 bound_to 10162
  156.9086  130.9644  151.3566 LP  0  0  0  0  0  0  0  0  0  0  0  0  # atno 17370 bound_to 10713
  157.6027  130.8524  149.8827 LP  0  0  0  0  0  0  0  0  0  0  0  0  # atno 17371 bound_to 10713
  141.1188  133.9496  157.2770 LP  0  0  0  0  0  0  0  0  0  0  0  0  # atno 17394 bound_to 11000
  139.9469  135.0182  156.8880 LP  0  0  0  0  0  0  0  0  0  0  0  0  # atno 17395 bound_to 11000

$$$$
