AV-unprocessed.smi:2647|AV-procd|sdf|10283|dock9
  -GOLD-   2272014293D 1   1.00000     0.00000
 Structure written by MMmdl.
 32 33  0  0  0  0  0  0  0  0  1 V2000
  150.2619  140.5229  154.2401 O   0  0  0  0  0  0  0  0  0  0  0  0
  149.4653  140.5625  155.1783 C   0  0  0  0  0  0  0  0  0  0  0  0
  149.7389  141.1420  156.3558 N   0  0  0  0  0  0  0  0  0  0  0  0
  150.9948  141.8053  156.6912 C   0  0  0  0  0  0  0  0  0  0  0  0
  151.1798  141.9765  158.2092 C   0  0  0  0  0  0  0  0  0  0  0  0
  152.3521  142.9018  158.5870 C   0  0  0  0  0  0  0  0  0  0  0  0
  152.5972  142.8873  160.0323 N   0  0  0  0  0  0  0  0  0  0  0  0
  153.2772  141.9237  160.6694 C   0  0  0  0  0  0  0  0  0  0  0  0
  153.7756  140.9224  160.1561 O   0  0  0  0  0  0  0  0  0  0  0  0
  153.3779  142.2198  162.1597 C   0  0  0  0  0  0  0  0  0  0  0  0
  152.6338  143.5519  162.2990 C   0  0  0  0  0  0  0  0  0  0  0  0
  152.1994  143.8545  160.8711 C   0  0  0  0  0  0  0  0  0  0  0  0
  151.5712  144.8688  160.5689 O   0  0  0  0  0  0  0  0  0  0  0  0
  148.2240  140.0458  155.1679 N   0  0  0  0  0  0  0  0  0  0  0  0
  147.5720  139.3419  154.1212 C   0  0  0  0  0  0  0  0  0  0  0  0
  147.2875  138.0309  154.1692 N   0  0  0  0  0  0  0  0  0  0  0  0
  146.6439  137.5963  153.0176 N   0  0  0  0  0  0  0  0  0  0  0  0
  146.4692  138.5948  152.1473 C   0  0  0  0  0  0  0  0  0  0  0  0
  147.0732  140.1643  152.6499 S   0  0  0  0  0  0  0  0  0  0  0  0
  149.0270  141.1284  157.0714 H   0  0  0  0  0  0  0  0  0  0  0  0
  151.8133  141.2118  156.2833 H   0  0  0  0  0  0  0  0  0  0  0  0
  151.0440  142.7765  156.1960 H   0  0  0  0  0  0  0  0  0  0  0  0
  150.2564  142.3780  158.6278 H   0  0  0  0  0  0  0  0  0  0  0  0
  151.3189  140.9989  158.6730 H   0  0  0  0  0  0  0  0  0  0  0  0
  153.2579  142.6016  158.0577 H   0  0  0  0  0  0  0  0  0  0  0  0
  152.1431  143.9201  158.2542 H   0  0  0  0  0  0  0  0  0  0  0  0
  152.9052  141.4269  162.7402 H   0  0  0  0  0  0  0  0  0  0  0  0
  154.4220  142.3041  162.4629 H   0  0  0  0  0  0  0  0  0  0  0  0
  151.7656  143.4663  162.9532 H   0  0  0  0  0  0  0  0  0  0  0  0
  153.2833  144.3425  162.6763 H   0  0  0  0  0  0  0  0  0  0  0  0
  147.6827  140.1646  156.0114 H   0  0  0  0  0  0  0  0  0  0  0  0
  145.9811  138.4062  151.2027 H   0  0  0  0  0  0  0  0  0  0  0  0
  1  2  2  0  0  0  0
  2  3  1  0  0  0  0
  2 14  1  0  0  0  0
  3  4  1  0  0  0  0
  3 20  1  0  0  0  0
  4  5  1  0  0  0  0
  4 21  1  0  0  0  0
  4 22  1  0  0  0  0
  5  6  1  0  0  0  0
  5 23  1  0  0  0  0
  5 24  1  0  0  0  0
  6  7  1  0  0  0  0
  6 25  1  0  0  0  0
  6 26  1  0  0  0  0
  7 12  1  0  0  0  0
  7  8  1  0  0  0  0
  8  9  2  0  0  0  0
  8 10  1  0  0  0  0
 10 11  1  0  0  0  0
 10 27  1  0  0  0  0
 10 28  1  0  0  0  0
 11 12  1  0  0  0  0
 11 29  1  0  0  0  0
 11 30  1  0  0  0  0
 12 13  2  0  0  0  0
 14 15  1  0  0  0  0
 14 31  1  0  0  0  0
 15 19  1  0  0  0  0
 15 16  2  0  0  0  0
 16 17  1  0  0  0  0
 17 18  2  0  0  0  0
 18 19  1  0  0  0  0
 18 32  1  0  0  0  0
M  END
> <s_m_source_file>
AV-unprocessed.smi

> <i_m_source_file_index>
2647

> <i_lp_mmshare_version>
43012

> <i_f3d_flags>
0

> <s_epik_input>
czFbY0hdbm5jMVtOSF1DKD1PKVtOSF1bQ0gyXVtDSDJdW0NIMl1OMkMoPU8pW0NIMl1bQ0gyXUMyPU8=

> <s_epik_cmdline>
J2VwaWtfcHl0aG9uJywgJy1waCcsICc3LjAnLCAnLXRuJywgJzgnLCAnLW1hJywgJzIwMCcsICctbWV0YWxfYmluZGluZycsICctaW1hZScsICc8aW5maWxlLm1hZT4nLCAnLW9tYWUnLCAnPG91dGZpbGUubWFlPic=

> <r_lp_tautomer_probability>
1

> <r_epik_Ionization_Penalty>
0.00175263

> <r_epik_Ionization_Penalty_Charging>
0

> <r_epik_Ionization_Penalty_Neutral>
0.00175263

> <r_epik_State_Penalty>
-0

> <r_epik_Charging_Adjusted_Penalty>
0

> <i_epik_Tot_Q>
0

> <i_epik_Tot_abs_Q>
0

> <r_epik_Metal_State_Penalty>
0.330668

> <b_epik_Metal_Only>
0

> <s_lp_Force_Field>
OPLS_2005

> <r_lp_Energy>
10.1998

> <b_lp_Chiralities_Consistent>
1

> <s_lp_Variant>
AV-unprocessed.smi:2647-1

> <Gold.Version>
5.8.1

> <Gold.Id.Protein>
6NUR|6NUR_protein|mol2

> <Gold.PLP.Fitness>
41.6794

> <Gold.PLP.PLP>
-37.9732

> <Gold.PLP.part.hbond>
-1.0000

> <Gold.PLP.part.metal>
0.0000

> <Gold.PLP.part.buried>
-3.9573

> <Gold.PLP.part.nonpolar>
-34.6562

> <Gold.PLP.part.repulsive>
0.9411

> <Gold.PLP.ligand.clash>
0.0000

> <Gold.PLP.ligand.torsion>
1.0927

> <Gold.PLP.Chemscore.Hbond>
0.9600

> <Gold.PLP.Chemscore.CHOScore>
1.0000

> <Gold.PLP.Chemscore.Metal>
0.0000

> <Gold.Chemscore.Hbonds>
donor molecule, donor type, donor heavy atom, donor atom, acceptor molecule, acceptor atom, score
      P1  H  7989  7998       L1     1  0.86
      L1  C    18    32       P1 10171  1.00

> <Gold.PLP.Chemscore.Internal.Correction>
0.0116

> <Gold.Rescore>
     Score         DG    S(hbond)    S(metal)    S(lipo)     H(rot)  DE(clash)    DE(int)     intcor
      8.85     -10.34       0.91        0.00      67.25       2.36       0.35       1.14       ----

> <Gold.Chemscore.Fitness>
8.8523

> <Gold.Chemscore.DG>
-10.3357

> <Gold.Chemscore.ZeroCoef>
-5.4800

> <Gold.Chemscore.Hbond>
0.9091

> <Gold.Chemscore.Metal>
0.0000

> <Gold.Chemscore.Lipo>
67.2498

> <Gold.Chemscore.Internal_Hbond>
0.0000

> <Gold.Chemscore.DEClash>
0.3461

> <Gold.Chemscore.DEInternal>
1.1373

> <Gold.Chemscore.Rot>
2.3629

> <Gold.Chemscore.Internal.Correction>
   9.000000E+99

> <Gold.Chemscore.Hbonds>
donor molecule, donor type, donor heavy atom, donor atom, acceptor molecule, acceptor atom, score
      P1  H  7989  7998       L1     1  0.83

> <Gold.Chemscore.Hbond.Weighted>
-3.0365

> <Gold.Chemscore.Metal.Weighted>
-0.0000

> <Gold.Chemscore.Lipo.Weighted>
-7.8682

> <Gold.Chemscore.Internal_Hbond.Weighted>
0.0000

> <Gold.Chemscore.DEClash.Weighted>
0.3461

> <Gold.Chemscore.DEInternal.Weighted>
1.1373

> <Gold.Chemscore.Rot.Weighted>
6.0490

> <Gold.Chemscore.Internal.Correction.Weighted>
   9.000000E+99

> <Gold.Protein.RotatedTorsions>
[ 6907 6896 6895 6894 ] final   24.60 input  -60.11 | X-H torsion
[ 7974 7965 7964 7962 ] final  -39.47 input  175.53 | X-H torsion
[ 8008 7997 7996 7995 ] final   55.81 input   59.86 | X-H torsion
[ 10167 10162 10161 10158 ] final   63.04 input  -65.29 | X-H torsion
[ 10718 10713 10712 10709 ] final  153.17 input   66.30 | X-H torsion
[ 10763 10752 10751 10750 ] final   10.99 input  -60.55 | X-H torsion
[ 11005 11000 10999 10996 ] final  -42.50 input  -57.11 | X-H torsion

> <Gold.Protein.ActiveResidues>
 VAL166  LYS551  ARG553  GLY616  TRP617  ASP618  TYR619  PRO620  LYS621  CYS622 
 ASP623  PHE694  ASN695  SER759  ASP760  ASP761  ALA762  ILE779  LEU786  VAL792 
 PHE793  MET794  SER795  GLU796  ALA797  LYS798  CYS799  TRP800  GLU811  SER814 

> <Gold.Protein.RotatedAtoms>
  151.9600  135.0128  160.0546 H   0  0  0  0  0  0  0  0  0  0  0  0  # atno 6907 bound_to 6896
  152.1877  133.4746  159.5000 H   0  0  0  0  0  0  0  0  0  0  0  0  # atno 6908 bound_to 6896
  150.6929  134.1670  159.4240 H   0  0  0  0  0  0  0  0  0  0  0  0  # atno 6909 bound_to 6896
  146.0394  140.6629  142.9094 H   0  0  0  0  0  0  0  0  0  0  0  0  # atno 7974 bound_to 7965
  155.5072  140.3476  155.4382 H   0  0  0  0  0  0  0  0  0  0  0  0  # atno 8008 bound_to 7997
  156.0874  140.1402  156.9663 H   0  0  0  0  0  0  0  0  0  0  0  0  # atno 8009 bound_to 7997
  154.4615  140.0933  156.6881 H   0  0  0  0  0  0  0  0  0  0  0  0  # atno 8010 bound_to 7997
  140.1374  144.4586  150.6830 H   0  0  0  0  0  0  0  0  0  0  0  0  # atno 10167 bound_to 10162
  157.2483  131.0773  151.1747 H   0  0  0  0  0  0  0  0  0  0  0  0  # atno 10718 bound_to 10713
  153.1974  135.6851  153.8275 H   0  0  0  0  0  0  0  0  0  0  0  0  # atno 10763 bound_to 10752
  153.7553  135.3218  155.3329 H   0  0  0  0  0  0  0  0  0  0  0  0  # atno 10764 bound_to 10752
  154.8152  135.4690  154.0724 H   0  0  0  0  0  0  0  0  0  0  0  0  # atno 10765 bound_to 10752
  141.0320  133.6816  156.2603 H   0  0  0  0  0  0  0  0  0  0  0  0  # atno 11005 bound_to 11000
  144.7067  140.3879  143.7112 LP  0  0  0  0  0  0  0  0  0  0  0  0  # atno 17320 bound_to 7965
  145.6910  139.1639  143.2647 LP  0  0  0  0  0  0  0  0  0  0  0  0  # atno 17321 bound_to 7965
  140.6781  143.2314  151.5455 LP  0  0  0  0  0  0  0  0  0  0  0  0  # atno 17342 bound_to 10162
  139.5489  144.2447  152.1494 LP  0  0  0  0  0  0  0  0  0  0  0  0  # atno 17343 bound_to 10162
  157.3306  130.6983  149.6322 LP  0  0  0  0  0  0  0  0  0  0  0  0  # atno 17370 bound_to 10713
  155.9667  130.4309  150.4895 LP  0  0  0  0  0  0  0  0  0  0  0  0  # atno 17371 bound_to 10713
  140.6390  134.5186  157.5567 LP  0  0  0  0  0  0  0  0  0  0  0  0  # atno 17394 bound_to 11000
  139.9214  134.8141  156.1199 LP  0  0  0  0  0  0  0  0  0  0  0  0  # atno 17395 bound_to 11000

$$$$
