AV-unprocessed.smi:2148|AV-procd|sdf|8750|dock6
  -GOLD-   2272011523D 1   1.00000     0.00000
 Structure written by MMmdl.
 44 45  0  0  0  0  0  0  0  0  1 V2000
  155.9531  141.1579  166.6115 C   0  0  0  0  0  0  0  0  0  0  0  0
  155.7830  140.0347  165.1975 S   0  0  0  0  0  0  0  0  0  0  0  0
  155.5055  141.2188  163.8457 C   0  0  2  0  0  0  0  0  0  0  0  0
  154.5726  142.3473  164.3124 C   0  0  0  0  0  0  0  0  0  0  0  0
  154.9559  140.5329  162.5882 C   0  0  0  0  0  0  0  0  0  0  0  0
  155.1873  139.3396  162.3961 O   0  0  0  0  0  0  0  0  0  0  0  0
  154.2624  141.3240  161.7479 N   0  0  0  0  0  0  0  0  0  0  0  0
  153.6457  140.9953  160.5097 C   0  0  0  0  0  0  0  0  0  0  0  0
  152.5331  141.7590  160.1072 C   0  0  0  0  0  0  0  0  0  0  0  0
  151.8881  141.4541  158.8938 C   0  0  0  0  0  0  0  0  0  0  0  0
  152.3713  140.3832  158.1055 C   0  0  0  0  0  0  0  0  0  0  0  0
  151.7453  140.0591  156.8817 N   0  0  0  0  0  0  0  0  0  0  0  0
  150.8258  141.0599  156.3493 C   0  0  0  0  0  0  0  0  0  0  0  0
  149.9412  140.4435  155.2509 C   0  0  1  0  0  0  0  0  0  0  0  0
  149.0490  141.4929  154.5795 C   0  0  0  0  0  0  0  0  0  0  0  0
  150.7664  139.8566  154.2456 O   0  0  0  0  0  0  0  0  0  0  0  0
  151.6617  138.8489  154.7205 C   0  0  2  0  0  0  0  0  0  0  0  0
  150.9260  137.5544  155.1096 C   0  0  0  0  0  0  0  0  0  0  0  0
  152.5504  139.4122  155.8470 C   0  0  0  0  0  0  0  0  0  0  0  0
  153.4302  139.6360  158.5031 N   0  0  0  0  0  0  0  0  0  0  0  0
  154.0463  139.9312  159.6671 C   0  0  0  0  0  0  0  0  0  0  0  0
  156.0889  140.5853  167.5289 H   0  0  0  0  0  0  0  0  0  0  0  0
  155.0612  141.7750  166.7185 H   0  0  0  0  0  0  0  0  0  0  0  0
  156.8171  141.8104  166.4857 H   0  0  0  0  0  0  0  0  0  0  0  0
  156.4713  141.6683  163.6090 H   0  0  0  0  0  0  0  0  0  0  0  0
  154.3933  143.0699  163.5152 H   0  0  0  0  0  0  0  0  0  0  0  0
  155.0088  142.8893  165.1519 H   0  0  0  0  0  0  0  0  0  0  0  0
  153.6055  141.9610  164.6375 H   0  0  0  0  0  0  0  0  0  0  0  0
  154.2123  142.2985  162.0072 H   0  0  0  0  0  0  0  0  0  0  0  0
  152.1733  142.5730  160.7198 H   0  0  0  0  0  0  0  0  0  0  0  0
  151.0282  142.0334  158.5927 H   0  0  0  0  0  0  0  0  0  0  0  0
  150.1871  141.4784  157.1258 H   0  0  0  0  0  0  0  0  0  0  0  0
  151.4093  141.8864  155.9417 H   0  0  0  0  0  0  0  0  0  0  0  0
  149.2943  139.6823  155.6872 H   0  0  0  0  0  0  0  0  0  0  0  0
  148.3891  141.9690  155.3052 H   0  0  0  0  0  0  0  0  0  0  0  0
  148.4240  141.0377  153.8106 H   0  0  0  0  0  0  0  0  0  0  0  0
  149.6453  142.2733  154.1059 H   0  0  0  0  0  0  0  0  0  0  0  0
  152.3112  138.6000  153.8809 H   0  0  0  0  0  0  0  0  0  0  0  0
  151.6377  136.7590  155.3315 H   0  0  0  0  0  0  0  0  0  0  0  0
  150.2899  137.2092  154.2944 H   0  0  0  0  0  0  0  0  0  0  0  0
  150.3002  137.6825  155.9924 H   0  0  0  0  0  0  0  0  0  0  0  0
  153.2423  140.1477  155.4338 H   0  0  0  0  0  0  0  0  0  0  0  0
  153.1522  138.6082  156.2725 H   0  0  0  0  0  0  0  0  0  0  0  0
  154.8635  139.2739  159.9168 H   0  0  0  0  0  0  0  0  0  0  0  0
  1  2  1  0  0  0  0
  1 22  1  0  0  0  0
  1 23  1  0  0  0  0
  1 24  1  0  0  0  0
  2  3  1  0  0  0  0
  3  4  1  0  0  0  0
  3  5  1  0  0  0  0
  3 25  1  0  0  0  0
  4 26  1  0  0  0  0
  4 27  1  0  0  0  0
  4 28  1  0  0  0  0
  5  6  2  0  0  0  0
  5  7  1  0  0  0  0
  7  8  1  0  0  0  0
  7 29  1  0  0  0  0
  8 21  1  0  0  0  0
  8  9  2  0  0  0  0
  9 10  1  0  0  0  0
  9 30  1  0  0  0  0
 10 11  2  0  0  0  0
 10 31  1  0  0  0  0
 11 12  1  0  0  0  0
 11 20  1  0  0  0  0
 12 19  1  0  0  0  0
 12 13  1  0  0  0  0
 13 14  1  0  0  0  0
 13 32  1  0  0  0  0
 13 33  1  0  0  0  0
 14 15  1  0  0  0  0
 14 16  1  0  0  0  0
 14 34  1  0  0  0  0
 15 35  1  0  0  0  0
 15 36  1  0  0  0  0
 15 37  1  0  0  0  0
 16 17  1  0  0  0  0
 17 18  1  0  0  0  0
 17 19  1  0  0  0  0
 17 38  1  0  0  0  0
 18 39  1  0  0  0  0
 18 40  1  0  0  0  0
 18 41  1  0  0  0  0
 19 42  1  0  0  0  0
 19 43  1  0  0  0  0
 20 21  2  0  0  0  0
 21 44  1  0  0  0  0
M  END
> <s_m_source_file>
AV-unprocessed.smi

> <i_m_source_file_index>
2148

> <i_lp_mmshare_version>
43012

> <i_f3d_flags>
0

> <s_epik_input>
W0NIM11TW0NASF0oW0NIM10pQyg9TylbTkhdYzFbY0hdW2NIXWMobltjSF0xKU4yW0NIMl1bQ0BASF0oW0NIM10pT1tDQEBIXShbQ0gzXSlbQ0gyXTI=

> <s_epik_cmdline>
J2VwaWtfcHl0aG9uJywgJy1waCcsICc3LjAnLCAnLXRuJywgJzgnLCAnLW1hJywgJzIwMCcsICctbWV0YWxfYmluZGluZycsICctaW1hZScsICc8aW5maWxlLm1hZT4nLCAnLW9tYWUnLCAnPG91dGZpbGUubWFlPic=

> <r_lp_tautomer_probability>
1

> <r_epik_Ionization_Penalty>
0.000646494

> <r_epik_Ionization_Penalty_Charging>
0

> <r_epik_Ionization_Penalty_Neutral>
0.000646494

> <r_epik_State_Penalty>
0.000408447

> <r_epik_Charging_Adjusted_Penalty>
0.000408447

> <i_epik_Tot_Q>
0

> <i_epik_Tot_abs_Q>
0

> <r_epik_Metal_State_Penalty>
-0

> <b_epik_Metal_Only>
0

> <s_lp_Force_Field>
OPLS_2005

> <r_lp_Energy>
25.6467

> <b_lp_Chiralities_Consistent>
1

> <s_lp_Variant>
AV-unprocessed.smi:2148-5

> <Gold.Version>
5.8.1

> <Gold.Id.Protein>
6NUR|6NUR_protein|mol2

> <Gold.PLP.Fitness>
43.4554

> <Gold.PLP.PLP>
-40.1781

> <Gold.PLP.part.hbond>
-2.7200

> <Gold.PLP.part.metal>
0.0000

> <Gold.PLP.part.buried>
1.1095

> <Gold.PLP.part.nonpolar>
-37.2749

> <Gold.PLP.part.repulsive>
0.1371

> <Gold.PLP.ligand.clash>
0.0000

> <Gold.PLP.ligand.torsion>
1.5457

> <Gold.PLP.Chemscore.Hbond>
2.0000

> <Gold.PLP.Chemscore.CHOScore>
0.0000

> <Gold.PLP.Chemscore.Metal>
0.0000

> <Gold.Chemscore.Hbonds>
donor molecule, donor type, donor heavy atom, donor atom, acceptor molecule, acceptor atom, score
      P1  H  7989  7998       L1    16  0.99
      P1  H  7997  8008       L1    20  1.00

> <Gold.PLP.Chemscore.Internal.Correction>
0.3686

> <Gold.Rescore>
     Score         DG    S(hbond)    S(metal)    S(lipo)     H(rot)  DE(clash)    DE(int)     intcor
     13.89     -17.32       0.84        0.00     104.77       1.27       0.92       2.51       ----

> <Gold.Chemscore.Fitness>
13.8863

> <Gold.Chemscore.DG>
-17.3160

> <Gold.Chemscore.ZeroCoef>
-5.4800

> <Gold.Chemscore.Hbond>
0.8437

> <Gold.Chemscore.Metal>
0.0000

> <Gold.Chemscore.Lipo>
104.7746

> <Gold.Chemscore.Internal_Hbond>
0.0000

> <Gold.Chemscore.DEClash>
0.9240

> <Gold.Chemscore.DEInternal>
2.5057

> <Gold.Chemscore.Rot>
1.2659

> <Gold.Chemscore.Internal.Correction>
   9.000000E+99

> <Gold.Chemscore.Hbonds>
donor molecule, donor type, donor heavy atom, donor atom, acceptor molecule, acceptor atom, score
      P1  H  7989  7998       L1    16  0.45
      P1  H  7997  8008       L1    20  0.17

> <Gold.Chemscore.Hbond.Weighted>
-2.8179

> <Gold.Chemscore.Metal.Weighted>
-0.0000

> <Gold.Chemscore.Lipo.Weighted>
-12.2586

> <Gold.Chemscore.Internal_Hbond.Weighted>
0.0000

> <Gold.Chemscore.DEClash.Weighted>
0.9240

> <Gold.Chemscore.DEInternal.Weighted>
2.5057

> <Gold.Chemscore.Rot.Weighted>
3.2406

> <Gold.Chemscore.Internal.Correction.Weighted>
   9.000000E+99

> <Gold.Protein.RotatedTorsions>
[ 6907 6896 6895 6894 ] final  -51.79 input  -60.11 | X-H torsion
[ 7974 7965 7964 7962 ] final -163.37 input  175.53 | X-H torsion
[ 8008 7997 7996 7995 ] final -103.49 input   59.86 | X-H torsion
[ 10167 10162 10161 10158 ] final   23.88 input  -65.29 | X-H torsion
[ 10718 10713 10712 10709 ] final -145.74 input   66.30 | X-H torsion
[ 10763 10752 10751 10750 ] final   82.79 input  -60.55 | X-H torsion
[ 11005 11000 10999 10996 ] final    2.15 input  -57.11 | X-H torsion

> <Gold.Protein.ActiveResidues>
 VAL166  LYS551  ARG553  GLY616  TRP617  ASP618  TYR619  PRO620  LYS621  CYS622 
 ASP623  PHE694  ASN695  SER759  ASP760  ASP761  ALA762  ILE779  LEU786  VAL792 
 PHE793  MET794  SER795  GLU796  ALA797  LYS798  CYS799  TRP800  GLU811  SER814 

> <Gold.Protein.RotatedAtoms>
  150.8578  134.7921  159.7058 H   0  0  0  0  0  0  0  0  0  0  0  0  # atno 6907 bound_to 6896
  152.4624  134.5150  159.9775 H   0  0  0  0  0  0  0  0  0  0  0  0  # atno 6908 bound_to 6896
  151.5259  133.3419  159.2945 H   0  0  0  0  0  0  0  0  0  0  0  0  # atno 6909 bound_to 6896
  144.7328  140.3117  143.6186 H   0  0  0  0  0  0  0  0  0  0  0  0  # atno 7974 bound_to 7965
  154.8716  140.0422  157.1728 H   0  0  0  0  0  0  0  0  0  0  0  0  # atno 8008 bound_to 7997
  154.8732  140.2961  155.5448 H   0  0  0  0  0  0  0  0  0  0  0  0  # atno 8009 bound_to 7997
  156.2999  140.2425  156.3724 H   0  0  0  0  0  0  0  0  0  0  0  0  # atno 8010 bound_to 7997
  140.5233  143.9965  150.6428 H   0  0  0  0  0  0  0  0  0  0  0  0  # atno 10167 bound_to 10162
  156.3862  130.7862  151.2060 H   0  0  0  0  0  0  0  0  0  0  0  0  # atno 10718 bound_to 10713
  153.1233  135.4715  154.9231 H   0  0  0  0  0  0  0  0  0  0  0  0  # atno 10763 bound_to 10752
  154.7596  135.3128  154.8405 H   0  0  0  0  0  0  0  0  0  0  0  0  # atno 10764 bound_to 10752
  153.8965  135.6879  153.4811 H   0  0  0  0  0  0  0  0  0  0  0  0  # atno 10765 bound_to 10752
  140.6075  133.9778  155.8161 H   0  0  0  0  0  0  0  0  0  0  0  0  # atno 11005 bound_to 11000
  145.7658  139.1840  143.2241 LP  0  0  0  0  0  0  0  0  0  0  0  0  # atno 17320 bound_to 7965
  146.0950  140.7611  142.9576 LP  0  0  0  0  0  0  0  0  0  0  0  0  # atno 17321 bound_to 7965
  140.3320  143.3072  152.0677 LP  0  0  0  0  0  0  0  0  0  0  0  0  # atno 17342 bound_to 10162
  139.4930  144.6502  151.6691 LP  0  0  0  0  0  0  0  0  0  0  0  0  # atno 17343 bound_to 10162
  157.7496  131.0329  150.4248 LP  0  0  0  0  0  0  0  0  0  0  0  0  # atno 17370 bound_to 10713
  156.4501  130.4010  149.6641 LP  0  0  0  0  0  0  0  0  0  0  0  0  # atno 17371 bound_to 10713
  141.0830  134.0033  157.3356 LP  0  0  0  0  0  0  0  0  0  0  0  0  # atno 17394 bound_to 11000
  139.9206  135.0200  156.8049 LP  0  0  0  0  0  0  0  0  0  0  0  0  # atno 17395 bound_to 11000

$$$$
