AV-unprocessed.smi:1830|AV-procd|sdf|7435|dock3
  -GOLD-   22720 9123D 1   1.00000     0.00000
 Structure written by MMmdl.
 53 56  0  0  0  0  0  0  0  0  2 V2000
  146.0841  137.2591  154.5467 O   0  0  0  0  0  0  0  0  0  0  0  0
  145.4565  138.1437  153.9642 C   0  0  0  0  0  0  0  0  0  0  0  0
  145.1920  138.1159  152.6507 N   0  0  0  0  0  0  0  0  0  0  0  0
  145.5915  137.0457  151.7429 C   0  0  0  0  0  0  0  0  0  0  0  0
  144.5199  135.9454  151.6401 C   0  0  1  0  0  0  0  0  0  0  0  0
  144.8044  134.9759  150.4824 C   0  0  0  0  0  0  0  0  0  0  0  0
  143.7851  133.8982  150.4160 N   0  3  1  0  0  0  0  0  0  0  0  0
  144.1860  132.8027  149.5054 C   0  0  0  0  0  0  0  0  0  0  0  0
  144.7861  131.6925  150.3878 C   0  0  0  0  0  0  0  0  0  0  0  0
  144.6117  132.1713  151.8334 C   0  0  0  0  0  0  0  0  0  0  0  0
  143.5379  133.2539  151.7245 C   0  0  1  0  0  0  0  0  0  0  0  0
  143.4639  134.2562  152.8949 C   0  0  0  0  0  0  0  0  0  0  0  0
  144.5339  135.1891  152.8444 O   0  0  0  0  0  0  0  0  0  0  0  0
  144.9378  139.2391  154.5435 N   0  0  0  0  0  0  0  0  0  0  0  0
  144.9837  139.6183  155.9155 C   0  0  0  0  0  0  0  0  0  0  0  0
  145.2093  138.6696  156.9431 C   0  0  0  0  0  0  0  0  0  0  0  0
  145.2264  139.0929  158.2828 C   0  0  0  0  0  0  0  0  0  0  0  0
  145.0193  140.4557  158.5512 C   0  0  0  0  0  0  0  0  0  0  0  0
  144.8236  141.3746  157.5850 N   0  0  0  0  0  0  0  0  0  0  0  0
  144.8205  140.9845  156.2863 C   0  0  0  0  0  0  0  0  0  0  0  0
  144.6343  141.9972  155.3173 N   0  0  0  0  0  0  0  0  0  0  0  0
  145.6582  142.1612  154.2895 C   0  0  0  0  0  0  0  0  0  0  0  0
  145.7711  143.6664  154.0249 C   0  0  0  0  0  0  0  0  0  0  0  0
  144.4400  144.2209  154.5227 C   0  0  0  0  0  0  0  0  0  0  0  0
  144.1295  143.3100  155.7067 C   0  0  0  0  0  0  0  0  0  0  0  0
  144.6679  138.8812  152.2520 H   0  0  0  0  0  0  0  0  0  0  0  0
  145.7971  137.4677  150.7577 H   0  0  0  0  0  0  0  0  0  0  0  0
  146.5314  136.6231  152.0994 H   0  0  0  0  0  0  0  0  0  0  0  0
  143.5398  136.4039  151.4958 H   0  0  0  0  0  0  0  0  0  0  0  0
  144.8137  135.5127  149.5329 H   0  0  0  0  0  0  0  0  0  0  0  0
  145.7971  134.5405  150.6093 H   0  0  0  0  0  0  0  0  0  0  0  0
  143.2916  132.4289  149.0056 H   0  0  0  0  0  0  0  0  0  0  0  0
  144.8744  133.1362  148.7272 H   0  0  0  0  0  0  0  0  0  0  0  0
  144.2544  130.7545  150.2240 H   0  0  0  0  0  0  0  0  0  0  0  0
  145.8376  131.5180  150.1584 H   0  0  0  0  0  0  0  0  0  0  0  0
  144.3296  131.3660  152.5124 H   0  0  0  0  0  0  0  0  0  0  0  0
  145.5466  132.6007  152.1961 H   0  0  0  0  0  0  0  0  0  0  0  0
  142.5736  132.7475  151.6534 H   0  0  0  0  0  0  0  0  0  0  0  0
  142.5161  134.7964  152.8696 H   0  0  0  0  0  0  0  0  0  0  0  0
  143.4933  133.7277  153.8479 H   0  0  0  0  0  0  0  0  0  0  0  0
  144.3606  139.8219  153.9553 H   0  0  0  0  0  0  0  0  0  0  0  0
  145.3770  137.6257  156.7268 H   0  0  0  0  0  0  0  0  0  0  0  0
  145.3917  138.3890  159.0850 H   0  0  0  0  0  0  0  0  0  0  0  0
  145.0188  140.8203  159.5676 H   0  0  0  0  0  0  0  0  0  0  0  0
  146.6171  141.7372  154.5914 H   0  0  0  0  0  0  0  0  0  0  0  0
  145.3303  141.6501  153.3843 H   0  0  0  0  0  0  0  0  0  0  0  0
  146.5856  144.0830  154.6187 H   0  0  0  0  0  0  0  0  0  0  0  0
  145.9654  143.8993  152.9777 H   0  0  0  0  0  0  0  0  0  0  0  0
  144.4910  145.2743  154.7991 H   0  0  0  0  0  0  0  0  0  0  0  0
  143.6767  144.1067  153.7519 H   0  0  0  0  0  0  0  0  0  0  0  0
  143.0616  143.2770  155.9234 H   0  0  0  0  0  0  0  0  0  0  0  0
  144.6476  143.6797  156.5926 H   0  0  0  0  0  0  0  0  0  0  0  0
  142.9250  134.3145  150.0881 H   0  0  0  0  0  0  0  0  0  0  0  0
  1  2  2  0  0  0  0
  2  3  1  0  0  0  0
  2 14  1  0  0  0  0
  3  4  1  0  0  0  0
  3 26  1  0  0  0  0
  4  5  1  0  0  0  0
  4 27  1  0  0  0  0
  4 28  1  0  0  0  0
  5 13  1  0  0  0  0
  5  6  1  0  0  0  0
  5 29  1  0  0  0  0
  6  7  1  0  0  0  0
  6 30  1  0  0  0  0
  6 31  1  0  0  0  0
  7 11  1  0  0  0  0
  7  8  1  0  0  0  0
  7 53  1  0  0  0  0
  8  9  1  0  0  0  0
  8 32  1  0  0  0  0
  8 33  1  0  0  0  0
  9 10  1  0  0  0  0
  9 34  1  0  0  0  0
  9 35  1  0  0  0  0
 10 11  1  0  0  0  0
 10 36  1  0  0  0  0
 10 37  1  0  0  0  0
 11 12  1  0  0  0  0
 11 38  1  0  0  0  0
 12 13  1  0  0  0  0
 12 39  1  0  0  0  0
 12 40  1  0  0  0  0
 14 15  1  0  0  0  0
 14 41  1  0  0  0  0
 15 20  1  0  0  0  0
 15 16  2  0  0  0  0
 16 17  1  0  0  0  0
 16 42  1  0  0  0  0
 17 18  2  0  0  0  0
 17 43  1  0  0  0  0
 18 19  1  0  0  0  0
 18 44  1  0  0  0  0
 19 20  2  0  0  0  0
 20 21  1  0  0  0  0
 21 25  1  0  0  0  0
 21 22  1  0  0  0  0
 22 23  1  0  0  0  0
 22 45  1  0  0  0  0
 22 46  1  0  0  0  0
 23 24  1  0  0  0  0
 23 47  1  0  0  0  0
 23 48  1  0  0  0  0
 24 25  1  0  0  0  0
 24 49  1  0  0  0  0
 24 50  1  0  0  0  0
 25 51  1  0  0  0  0
 25 52  1  0  0  0  0
M  CHG  1   7   1
M  END
> <s_m_source_file>
AV-unprocessed.smi

> <i_m_source_file_index>
1830

> <i_lp_mmshare_version>
43012

> <i_f3d_flags>
0

> <s_epik_input>
W0NIMl0xW0NIMl1bQ0gyXVtDQEhdKE4xMilbQ0gyXU9bQ0BASF0oW0NIMl0yKVtDSDJdW05IXUMoPU8pW05IXWMzW2NIXVtjSF1bY0hdbmMzTjRbQ0gyXVtDSDJdW0NIMl1bQ0gyXTQ=

> <s_epik_cmdline>
J2VwaWtfcHl0aG9uJywgJy1waCcsICc3LjAnLCAnLXRuJywgJzgnLCAnLW1hJywgJzIwMCcsICctbWV0YWxfYmluZGluZycsICctaW1hZScsICc8aW5maWxlLm1hZT4nLCAnLW9tYWUnLCAnPG91dGZpbGUubWFlPic=

> <r_lp_tautomer_probability>
1

> <r_epik_Ionization_Penalty>
0.193547

> <r_epik_Ionization_Penalty_Charging>
0.10673

> <r_epik_Ionization_Penalty_Neutral>
0.0868166

> <r_epik_State_Penalty>
0.173595

> <r_epik_Charging_Adjusted_Penalty>
0.280326

> <i_epik_Tot_Q>
1

> <i_epik_Tot_abs_Q>
1

> <r_epik_Metal_State_Penalty>
0.164683

> <b_epik_Metal_Only>
0

> <s_lp_Force_Field>
OPLS_2005

> <r_lp_Energy>
64.3317

> <b_lp_Chiralities_Consistent>
1

> <s_lp_Variant>
AV-unprocessed.smi:1830-4

> <Gold.Version>
5.8.1

> <Gold.Id.Protein>
6NUR|6NUR_protein|mol2

> <Gold.PLP.Fitness>
43.3232

> <Gold.PLP.PLP>
-32.1620

> <Gold.PLP.part.hbond>
-3.5321

> <Gold.PLP.part.metal>
0.0000

> <Gold.PLP.part.buried>
-2.3975

> <Gold.PLP.part.nonpolar>
-27.6391

> <Gold.PLP.part.repulsive>
0.3077

> <Gold.PLP.ligand.clash>
0.0000

> <Gold.PLP.ligand.torsion>
0.5807

> <Gold.PLP.Chemscore.Hbond>
4.0000

> <Gold.PLP.Chemscore.CHOScore>
0.0000

> <Gold.PLP.Chemscore.Metal>
0.0000

> <Gold.Chemscore.Hbonds>
donor molecule, donor type, donor heavy atom, donor atom, acceptor molecule, acceptor atom, score
      L1  H     3    26       P1 10175  1.00
      L1  H     7    53       P1 10186  2.00
      L1  H    14    41       P1 10175  1.00

> <Gold.PLP.Chemscore.Internal.Correction>
0.3227

> <Gold.Rescore>
     Score         DG    S(hbond)    S(metal)    S(lipo)     H(rot)  DE(clash)    DE(int)     intcor
     18.38     -20.76       2.86        0.00      79.75       1.41       0.36       2.01       ----

> <Gold.Chemscore.Fitness>
18.3829

> <Gold.Chemscore.DG>
-20.7562

> <Gold.Chemscore.ZeroCoef>
-5.4800

> <Gold.Chemscore.Hbond>
2.8583

> <Gold.Chemscore.Metal>
0.0000

> <Gold.Chemscore.Lipo>
79.7494

> <Gold.Chemscore.Internal_Hbond>
0.0000

> <Gold.Chemscore.DEClash>
0.3644

> <Gold.Chemscore.DEInternal>
2.0090

> <Gold.Chemscore.Rot>
1.4067

> <Gold.Chemscore.Internal.Correction>
   9.000000E+99

> <Gold.Chemscore.Hbonds>
donor molecule, donor type, donor heavy atom, donor atom, acceptor molecule, acceptor atom, score
      L1  H     3    26       P1 10175  0.95
      L1  H     7    53       P1 10186  0.89
      L1  H    14    41       P1 10175  0.99

> <Gold.Chemscore.Hbond.Weighted>
-9.5467

> <Gold.Chemscore.Metal.Weighted>
-0.0000

> <Gold.Chemscore.Lipo.Weighted>
-9.3307

> <Gold.Chemscore.Internal_Hbond.Weighted>
0.0000

> <Gold.Chemscore.DEClash.Weighted>
0.3644

> <Gold.Chemscore.DEInternal.Weighted>
2.0090

> <Gold.Chemscore.Rot.Weighted>
3.6011

> <Gold.Chemscore.Internal.Correction.Weighted>
   9.000000E+99

> <Gold.Protein.RotatedTorsions>
[ 6907 6896 6895 6894 ] final -139.14 input  -60.11 | X-H torsion
[ 7974 7965 7964 7962 ] final -144.32 input  175.53 | X-H torsion
[ 8008 7997 7996 7995 ] final  110.75 input   59.86 | X-H torsion
[ 10167 10162 10161 10158 ] final  169.26 input  -65.29 | X-H torsion
[ 10718 10713 10712 10709 ] final   85.92 input   66.30 | X-H torsion
[ 10763 10752 10751 10750 ] final -105.32 input  -60.55 | X-H torsion
[ 11005 11000 10999 10996 ] final    4.12 input  -57.11 | X-H torsion

> <Gold.Protein.ActiveResidues>
 VAL166  LYS551  ARG553  GLY616  TRP617  ASP618  TYR619  PRO620  LYS621  CYS622 
 ASP623  PHE694  ASN695  SER759  ASP760  ASP761  ALA762  ILE779  LEU786  VAL792 
 PHE793  MET794  SER795  GLU796  ALA797  LYS798  CYS799  TRP800  GLU811  SER814 

> <Gold.Protein.RotatedAtoms>
  151.0440  133.5682  159.2648 H   0  0  0  0  0  0  0  0  0  0  0  0  # atno 6907 bound_to 6896
  151.2718  135.0686  159.9146 H   0  0  0  0  0  0  0  0  0  0  0  0  # atno 6908 bound_to 6896
  152.5369  134.0169  159.8018 H   0  0  0  0  0  0  0  0  0  0  0  0  # atno 6909 bound_to 6896
  144.8306  140.5725  143.5517 H   0  0  0  0  0  0  0  0  0  0  0  0  # atno 7974 bound_to 7965
  156.2075  140.3032  155.9659 H   0  0  0  0  0  0  0  0  0  0  0  0  # atno 8008 bound_to 7997
  155.2805  140.0437  157.3032 H   0  0  0  0  0  0  0  0  0  0  0  0  # atno 8009 bound_to 7997
  154.5653  140.2332  155.8281 H   0  0  0  0  0  0  0  0  0  0  0  0  # atno 8010 bound_to 7997
  139.4988  144.3725  151.9709 H   0  0  0  0  0  0  0  0  0  0  0  0  # atno 10167 bound_to 10162
  157.6921  131.0194  150.2894 H   0  0  0  0  0  0  0  0  0  0  0  0  # atno 10718 bound_to 10713
  154.7939  135.4753  154.0115 H   0  0  0  0  0  0  0  0  0  0  0  0  # atno 10763 bound_to 10752
  153.1673  135.6819  153.8665 H   0  0  0  0  0  0  0  0  0  0  0  0  # atno 10764 bound_to 10752
  153.8259  135.3198  155.3392 H   0  0  0  0  0  0  0  0  0  0  0  0  # atno 10765 bound_to 10752
  140.5855  133.9973  155.8066 H   0  0  0  0  0  0  0  0  0  0  0  0  # atno 11005 bound_to 11000
  145.4904  139.1489  143.3713 LP  0  0  0  0  0  0  0  0  0  0  0  0  # atno 17320 bound_to 7965
  146.2609  140.5042  142.8854 LP  0  0  0  0  0  0  0  0  0  0  0  0  # atno 17321 bound_to 7965
  140.3161  144.3482  150.6021 LP  0  0  0  0  0  0  0  0  0  0  0  0  # atno 17342 bound_to 10162
  140.5760  143.2176  151.7514 LP  0  0  0  0  0  0  0  0  0  0  0  0  # atno 17343 bound_to 10162
  156.3428  130.3818  149.7394 LP  0  0  0  0  0  0  0  0  0  0  0  0  # atno 17370 bound_to 10713
  156.4898  130.8079  151.3090 LP  0  0  0  0  0  0  0  0  0  0  0  0  # atno 17371 bound_to 10713
  141.0969  133.9829  157.3145 LP  0  0  0  0  0  0  0  0  0  0  0  0  # atno 17394 bound_to 11000
  139.9298  135.0200  156.8360 LP  0  0  0  0  0  0  0  0  0  0  0  0  # atno 17395 bound_to 11000

$$$$
