AV-unprocessed.smi:3117|AV-procd|sdf|11880|dock6
  -GOLD-   2272017263D 1   1.00000     0.00000
 Structure written by MMmdl.
 37 37  0  0  0  0  0  0  0  0  2 V2000
  151.0373  140.4496  157.2675 C   0  0  0  0  0  0  0  0  0  0  0  0
  150.5383  141.8962  157.4367 C   0  0  2  0  0  0  0  0  0  0  0  0
  149.8965  142.3290  156.1756 N   0  3  0  0  0  0  0  0  0  0  0  0
  148.6593  141.6008  155.8205 C   0  0  0  0  0  0  0  0  0  0  0  0
  148.7922  140.8423  154.4828 C   0  0  0  0  0  0  0  0  0  0  0  0
  149.8624  139.7437  154.5961 C   0  0  0  0  0  0  0  0  0  0  0  0
  147.4527  140.2374  154.0229 C   0  0  0  0  0  0  0  0  0  0  0  0
  149.2404  141.7514  153.4959 O   0  0  0  0  0  0  0  0  0  0  0  0
  151.6613  142.8900  157.8343 C   0  0  1  0  0  0  0  0  0  0  0  0
  151.1614  144.3411  157.9594 C   0  0  0  0  0  0  0  0  0  0  0  0
  152.3296  142.4883  159.0660 N   0  0  0  0  0  0  0  0  0  0  0  0
  152.4583  143.1894  160.2490 C   0  0  0  0  0  0  0  0  0  0  0  0
  153.1530  142.3991  161.1188 C   0  0  0  0  0  0  0  0  0  0  0  0
  153.4067  141.2156  160.3712 C   0  0  0  0  0  0  0  0  0  0  0  0
  152.9116  141.2714  159.1454 N   0  0  0  0  0  0  0  0  0  0  0  0
  151.4276  140.0421  158.2004 H   0  0  0  0  0  0  0  0  0  0  0  0
  151.8298  140.3882  156.5208 H   0  0  0  0  0  0  0  0  0  0  0  0
  150.2281  139.7923  156.9477 H   0  0  0  0  0  0  0  0  0  0  0  0
  149.7916  141.8838  158.2329 H   0  0  0  0  0  0  0  0  0  0  0  0
  149.6820  143.3132  156.2485 H   0  0  0  0  0  0  0  0  0  0  0  0
  148.4208  140.9064  156.6276 H   0  0  0  0  0  0  0  0  0  0  0  0
  147.8321  142.3093  155.7587 H   0  0  0  0  0  0  0  0  0  0  0  0
  149.5869  139.0008  155.3456 H   0  0  0  0  0  0  0  0  0  0  0  0
  150.8300  140.1572  154.8843 H   0  0  0  0  0  0  0  0  0  0  0  0
  149.9988  139.2193  153.6494 H   0  0  0  0  0  0  0  0  0  0  0  0
  147.0635  139.5378  154.7635 H   0  0  0  0  0  0  0  0  0  0  0  0
  147.5646  139.6924  153.0848 H   0  0  0  0  0  0  0  0  0  0  0  0
  146.6932  141.0033  153.8634 H   0  0  0  0  0  0  0  0  0  0  0  0
  149.6882  141.2660  152.8190 H   0  0  0  0  0  0  0  0  0  0  0  0
  152.4123  142.8760  157.0415 H   0  0  0  0  0  0  0  0  0  0  0  0
  150.7790  144.7162  157.0102 H   0  0  0  0  0  0  0  0  0  0  0  0
  151.9693  145.0069  158.2648 H   0  0  0  0  0  0  0  0  0  0  0  0
  150.3628  144.4282  158.6968 H   0  0  0  0  0  0  0  0  0  0  0  0
  152.0491  144.1812  160.3725 H   0  0  0  0  0  0  0  0  0  0  0  0
  153.4358  142.6307  162.1351 H   0  0  0  0  0  0  0  0  0  0  0  0
  153.9309  140.3234  160.6806 H   0  0  0  0  0  0  0  0  0  0  0  0
  150.5554  142.2040  155.4201 H   0  0  0  0  0  0  0  0  0  0  0  0
  1  2  1  0  0  0  0
  1 16  1  0  0  0  0
  1 17  1  0  0  0  0
  1 18  1  0  0  0  0
  2  3  1  0  0  0  0
  2  9  1  0  0  0  0
  2 19  1  0  0  0  0
  3  4  1  0  0  0  0
  3 20  1  0  0  0  0
  3 37  1  0  0  0  0
  4  5  1  0  0  0  0
  4 21  1  0  0  0  0
  4 22  1  0  0  0  0
  5  6  1  0  0  0  0
  5  7  1  0  0  0  0
  5  8  1  0  0  0  0
  6 23  1  0  0  0  0
  6 24  1  0  0  0  0
  6 25  1  0  0  0  0
  7 26  1  0  0  0  0
  7 27  1  0  0  0  0
  7 28  1  0  0  0  0
  8 29  1  0  0  0  0
  9 10  1  0  0  0  0
  9 11  1  0  0  0  0
  9 30  1  0  0  0  0
 10 31  1  0  0  0  0
 10 32  1  0  0  0  0
 10 33  1  0  0  0  0
 11 15  1  0  0  0  0
 11 12  1  0  0  0  0
 12 13  2  0  0  0  0
 12 34  1  0  0  0  0
 13 14  1  0  0  0  0
 13 35  1  0  0  0  0
 14 15  2  0  0  0  0
 14 36  1  0  0  0  0
M  CHG  1   3   1
M  END
> <s_m_source_file>
AV-unprocessed.smi

> <i_m_source_file_index>
3117

> <i_lp_mmshare_version>
43012

> <i_f3d_flags>
0

> <s_epik_input>
W0NIM11DKFtDSDNdKShbT0hdKVtDSDJdW05IXVtDQEBIXShbQ0gzXSlbQ0BIXShbQ0gzXSluMVtjSF1bY0hdW2NIXW4x

> <s_epik_cmdline>
J2VwaWtfcHl0aG9uJywgJy1waCcsICc3LjAnLCAnLXRuJywgJzgnLCAnLW1hJywgJzIwMCcsICctbWV0YWxfYmluZGluZycsICctaW1hZScsICc8aW5maWxlLm1hZT4nLCAnLW9tYWUnLCAnPG91dGZpbGUubWFlPic=

> <r_lp_tautomer_probability>
1

> <r_epik_Ionization_Penalty>
0.0164263

> <r_epik_Ionization_Penalty_Charging>
0.0164138

> <r_epik_Ionization_Penalty_Neutral>
1.24697e-05

> <r_epik_State_Penalty>
0.0129543

> <r_epik_Charging_Adjusted_Penalty>
0.0293681

> <i_epik_Tot_Q>
1

> <i_epik_Tot_abs_Q>
1

> <r_epik_Metal_State_Penalty>
0.0129806

> <b_epik_Metal_Only>
0

> <s_lp_Force_Field>
OPLS_2005

> <r_lp_Energy>
14.6887

> <b_lp_Chiralities_Consistent>
1

> <s_lp_Variant>
AV-unprocessed.smi:3117-3

> <Gold.Version>
5.8.1

> <Gold.Id.Protein>
6NUR|6NUR_protein|mol2

> <Gold.PLP.Fitness>
43.2492

> <Gold.PLP.PLP>
-35.1005

> <Gold.PLP.part.hbond>
-3.5417

> <Gold.PLP.part.metal>
0.0000

> <Gold.PLP.part.buried>
-2.1120

> <Gold.PLP.part.nonpolar>
-28.3113

> <Gold.PLP.part.repulsive>
0.0918

> <Gold.PLP.ligand.clash>
0.0000

> <Gold.PLP.ligand.torsion>
0.4687

> <Gold.PLP.Chemscore.Hbond>
3.0000

> <Gold.PLP.Chemscore.CHOScore>
0.0000

> <Gold.PLP.Chemscore.Metal>
0.0000

> <Gold.Chemscore.Hbonds>
donor molecule, donor type, donor heavy atom, donor atom, acceptor molecule, acceptor atom, score
      L1  H     3    20       P1  8028  2.00
      L1  H     8    29       P1  7957  0.95

> <Gold.PLP.Chemscore.Internal.Correction>
0.0861

> <Gold.Rescore>
     Score         DG    S(hbond)    S(metal)    S(lipo)     H(rot)  DE(clash)    DE(int)     intcor
     14.55     -16.88       1.98        0.00      90.55       2.27       0.15       2.18       ----

> <Gold.Chemscore.Fitness>
14.5543

> <Gold.Chemscore.DG>
-16.8831

> <Gold.Chemscore.ZeroCoef>
-5.4800

> <Gold.Chemscore.Hbond>
1.9839

> <Gold.Chemscore.Metal>
0.0000

> <Gold.Chemscore.Lipo>
90.5524

> <Gold.Chemscore.Internal_Hbond>
0.0000

> <Gold.Chemscore.DEClash>
0.1463

> <Gold.Chemscore.DEInternal>
2.1826

> <Gold.Chemscore.Rot>
2.2725

> <Gold.Chemscore.Internal.Correction>
   9.000000E+99

> <Gold.Chemscore.Hbonds>
donor molecule, donor type, donor heavy atom, donor atom, acceptor molecule, acceptor atom, score
      L1  H     3    20       P1  8028  0.95
      L1  H     8    29       P1  7957  0.85

> <Gold.Chemscore.Hbond.Weighted>
-6.6261

> <Gold.Chemscore.Metal.Weighted>
-0.0000

> <Gold.Chemscore.Lipo.Weighted>
-10.5946

> <Gold.Chemscore.Internal_Hbond.Weighted>
0.0000

> <Gold.Chemscore.DEClash.Weighted>
0.1463

> <Gold.Chemscore.DEInternal.Weighted>
2.1826

> <Gold.Chemscore.Rot.Weighted>
5.8176

> <Gold.Chemscore.Internal.Correction.Weighted>
   9.000000E+99

> <Gold.Protein.RotatedTorsions>
[ 6907 6896 6895 6894 ] final  124.28 input  -60.11 | X-H torsion
[ 7974 7965 7964 7962 ] final   12.23 input  175.53 | X-H torsion
[ 8008 7997 7996 7995 ] final   -1.37 input   59.86 | X-H torsion
[ 10167 10162 10161 10158 ] final  104.31 input  -65.29 | X-H torsion
[ 10718 10713 10712 10709 ] final  -47.03 input   66.30 | X-H torsion
[ 10763 10752 10751 10750 ] final    9.63 input  -60.55 | X-H torsion
[ 11005 11000 10999 10996 ] final  -12.20 input  -57.11 | X-H torsion

> <Gold.Protein.ActiveResidues>
 VAL166  LYS551  ARG553  GLY616  TRP617  ASP618  TYR619  PRO620  LYS621  CYS622 
 ASP623  PHE694  ASN695  SER759  ASP760  ASP761  ALA762  ILE779  LEU786  VAL792 
 PHE793  MET794  SER795  GLU796  ALA797  LYS798  CYS799  TRP800  GLU811  SER814 

> <Gold.Protein.RotatedAtoms>
  152.4091  133.6935  159.6381 H   0  0  0  0  0  0  0  0  0  0  0  0  # atno 6907 bound_to 6896
  150.7973  133.8656  159.3253 H   0  0  0  0  0  0  0  0  0  0  0  0  # atno 6908 bound_to 6896
  151.6403  135.1015  160.0191 H   0  0  0  0  0  0  0  0  0  0  0  0  # atno 6909 bound_to 6896
  146.2355  139.9368  142.8488 H   0  0  0  0  0  0  0  0  0  0  0  0  # atno 7974 bound_to 7965
  154.6476  140.2561  155.7250 H   0  0  0  0  0  0  0  0  0  0  0  0  # atno 8008 bound_to 7997
  156.2559  140.2874  156.0817 H   0  0  0  0  0  0  0  0  0  0  0  0  # atno 8009 bound_to 7997
  155.1500  140.0382  157.2809 H   0  0  0  0  0  0  0  0  0  0  0  0  # atno 8010 bound_to 7997
  139.7188  144.7062  151.0906 H   0  0  0  0  0  0  0  0  0  0  0  0  # atno 10167 bound_to 10162
  156.2124  130.4161  149.9097 H   0  0  0  0  0  0  0  0  0  0  0  0  # atno 10718 bound_to 10713
  153.2119  135.6870  153.8103 H   0  0  0  0  0  0  0  0  0  0  0  0  # atno 10763 bound_to 10752
  153.7333  135.3249  155.3291 H   0  0  0  0  0  0  0  0  0  0  0  0  # atno 10764 bound_to 10752
  154.8226  135.4641  154.0930 H   0  0  0  0  0  0  0  0  0  0  0  0  # atno 10765 bound_to 10752
  140.7633  133.8497  155.9143 H   0  0  0  0  0  0  0  0  0  0  0  0  # atno 11005 bound_to 11000
  145.1991  140.9846  143.4166 LP  0  0  0  0  0  0  0  0  0  0  0  0  # atno 17320 bound_to 7965
  144.9789  139.3803  143.6272 LP  0  0  0  0  0  0  0  0  0  0  0  0  # atno 17321 bound_to 7965
  140.7749  143.5194  150.9555 LP  0  0  0  0  0  0  0  0  0  0  0  0  # atno 17342 bound_to 10162
  139.8880  143.6988  152.3149 LP  0  0  0  0  0  0  0  0  0  0  0  0  # atno 17343 bound_to 10162
  156.6771  130.8843  151.3570 LP  0  0  0  0  0  0  0  0  0  0  0  0  # atno 17370 bound_to 10713
  157.7045  130.9370  150.0889 LP  0  0  0  0  0  0  0  0  0  0  0  0  # atno 17371 bound_to 10713
  140.9643  134.1615  157.4629 LP  0  0  0  0  0  0  0  0  0  0  0  0  # atno 17394 bound_to 11000
  139.8767  134.9956  156.5751 LP  0  0  0  0  0  0  0  0  0  0  0  0  # atno 17395 bound_to 11000

$$$$
