AV-unprocessed.smi:3090|AV-procd|sdf|11774|dock6
  -GOLD-   2272017153D 1   1.00000     0.00000
 Structure written by MMmdl.
 22 22  0  0  0  0  0  0  0  0  2 V2000
  148.8779  133.2453  153.2983 C   0  0  0  0  0  0  0  0  0  0  0  0
  147.7571  132.7733  152.5140 N   0  0  0  0  0  0  0  0  0  0  0  0
  147.1437  133.3785  151.4387 C   0  0  0  0  0  0  0  0  0  0  0  0
  146.1317  132.5563  151.0249 C   0  0  0  0  0  0  0  0  0  0  0  0
  145.1491  132.7432  149.8991 C   0  0  2  0  0  0  0  0  0  0  0  0
  144.9230  134.1137  149.6339 O   0  0  0  0  0  0  0  0  0  0  0  0
  143.8011  132.0844  150.2407 C   0  0  0  0  0  0  0  0  0  0  0  0
  142.7662  132.4039  149.2418 N   0  3  0  0  0  0  0  0  0  0  0  0
  146.2123  131.4588  151.9296 C   0  0  0  0  0  0  0  0  0  0  0  0
  147.1836  131.5915  152.8175 N   0  0  0  0  0  0  0  0  0  0  0  0
  149.2172  134.2114  152.9232 H   0  0  0  0  0  0  0  0  0  0  0  0
  149.7002  132.5321  153.2339 H   0  0  0  0  0  0  0  0  0  0  0  0
  148.5791  133.3556  154.3411 H   0  0  0  0  0  0  0  0  0  0  0  0
  147.4735  134.3351  151.0602 H   0  0  0  0  0  0  0  0  0  0  0  0
  145.5421  132.2969  148.9847 H   0  0  0  0  0  0  0  0  0  0  0  0
  145.1259  134.2814  148.7256 H   0  0  0  0  0  0  0  0  0  0  0  0
  143.9123  130.9999  150.2713 H   0  0  0  0  0  0  0  0  0  0  0  0
  143.4552  132.3969  151.2271 H   0  0  0  0  0  0  0  0  0  0  0  0
  143.1692  132.3773  148.3161 H   0  0  0  0  0  0  0  0  0  0  0  0
  142.3950  133.3254  149.4233 H   0  0  0  0  0  0  0  0  0  0  0  0
  145.5940  130.5738  151.9670 H   0  0  0  0  0  0  0  0  0  0  0  0
  142.0224  131.7234  149.3064 H   0  0  0  0  0  0  0  0  0  0  0  0
  1  2  1  0  0  0  0
  1 11  1  0  0  0  0
  1 12  1  0  0  0  0
  1 13  1  0  0  0  0
  2 10  1  0  0  0  0
  2  3  1  0  0  0  0
  3  4  2  0  0  0  0
  3 14  1  0  0  0  0
  4  5  1  0  0  0  0
  4  9  1  0  0  0  0
  5  6  1  0  0  0  0
  5  7  1  0  0  0  0
  5 15  1  0  0  0  0
  6 16  1  0  0  0  0
  7  8  1  0  0  0  0
  7 17  1  0  0  0  0
  7 18  1  0  0  0  0
  8 19  1  0  0  0  0
  8 20  1  0  0  0  0
  8 22  1  0  0  0  0
  9 10  2  0  0  0  0
  9 21  1  0  0  0  0
M  CHG  1   8   1
M  END
> <s_m_source_file>
AV-unprocessed.smi

> <i_m_source_file_index>
3090

> <i_lp_mmshare_version>
43012

> <i_f3d_flags>
0

> <s_epik_input>
W0NIM11uMVtjSF1jKFtjSF1uMSlbQ0BIXShbT0hdKVtDSDJdW05IMl0=

> <s_epik_cmdline>
J2VwaWtfcHl0aG9uJywgJy1waCcsICc3LjAnLCAnLXRuJywgJzgnLCAnLW1hJywgJzIwMCcsICctbWV0YWxfYmluZGluZycsICctaW1hZScsICc8aW5maWxlLm1hZT4nLCAnLW9tYWUnLCAnPG91dGZpbGUubWFlPic=

> <r_lp_tautomer_probability>
1

> <r_epik_Ionization_Penalty>
0.014056

> <r_epik_Ionization_Penalty_Charging>
0.0140431

> <r_epik_Ionization_Penalty_Neutral>
1.29738e-05

> <r_epik_State_Penalty>
0.0109628

> <r_epik_Charging_Adjusted_Penalty>
0.0250059

> <i_epik_Tot_Q>
1

> <i_epik_Tot_abs_Q>
1

> <r_epik_Metal_State_Penalty>
0.0109636

> <b_epik_Metal_Only>
0

> <s_lp_Force_Field>
OPLS_2005

> <r_lp_Energy>
1.35566

> <b_lp_Chiralities_Consistent>
1

> <s_lp_Variant>
AV-unprocessed.smi:3090-1

> <Gold.Version>
5.8.1

> <Gold.Id.Protein>
6NUR|6NUR_protein|mol2

> <Gold.PLP.Fitness>
37.1948

> <Gold.PLP.PLP>
-23.7628

> <Gold.PLP.part.hbond>
-3.0000

> <Gold.PLP.part.metal>
0.0000

> <Gold.PLP.part.buried>
-3.9587

> <Gold.PLP.part.nonpolar>
-17.0708

> <Gold.PLP.part.repulsive>
0.2584

> <Gold.PLP.ligand.clash>
0.0000

> <Gold.PLP.ligand.torsion>
0.7819

> <Gold.PLP.Chemscore.Hbond>
4.0000

> <Gold.PLP.Chemscore.CHOScore>
0.9978

> <Gold.PLP.Chemscore.Metal>
0.0000

> <Gold.Chemscore.Hbonds>
donor molecule, donor type, donor heavy atom, donor atom, acceptor molecule, acceptor atom, score
      L1  H     6    16       P1  7921  1.00
      L1  H     8    20       P1 10186  1.98
      L1  H     8    22       P1 10952  1.00
      L1  C     3    14       P1  7948  0.62

> <Gold.PLP.Chemscore.Internal.Correction>
0.0024

> <Gold.Rescore>
     Score         DG    S(hbond)    S(metal)    S(lipo)     H(rot)  DE(clash)    DE(int)     intcor
     15.61     -16.37       2.98        0.00      50.79       1.96       0.01       0.75       ----

> <Gold.Chemscore.Fitness>
15.6052

> <Gold.Chemscore.DG>
-16.3686

> <Gold.Chemscore.ZeroCoef>
-5.4800

> <Gold.Chemscore.Hbond>
2.9794

> <Gold.Chemscore.Metal>
0.0000

> <Gold.Chemscore.Lipo>
50.7909

> <Gold.Chemscore.Internal_Hbond>
0.0000

> <Gold.Chemscore.DEClash>
0.0137

> <Gold.Chemscore.DEInternal>
0.7497

> <Gold.Chemscore.Rot>
1.9551

> <Gold.Chemscore.Internal.Correction>
   9.000000E+99

> <Gold.Chemscore.Hbonds>
donor molecule, donor type, donor heavy atom, donor atom, acceptor molecule, acceptor atom, score
      L1  H     6    16       P1  7921  0.92
      L1  H     8    20       P1 10186  0.93
      L1  H     8    22       P1 10952  1.00

> <Gold.Chemscore.Hbond.Weighted>
-9.9512

> <Gold.Chemscore.Metal.Weighted>
-0.0000

> <Gold.Chemscore.Lipo.Weighted>
-5.9425

> <Gold.Chemscore.Internal_Hbond.Weighted>
0.0000

> <Gold.Chemscore.DEClash.Weighted>
0.0137

> <Gold.Chemscore.DEInternal.Weighted>
0.7497

> <Gold.Chemscore.Rot.Weighted>
5.0051

> <Gold.Chemscore.Internal.Correction.Weighted>
   9.000000E+99

> <Gold.Protein.RotatedTorsions>
[ 6907 6896 6895 6894 ] final  -31.23 input  -60.11 | X-H torsion
[ 7974 7965 7964 7962 ] final   12.51 input  175.53 | X-H torsion
[ 8008 7997 7996 7995 ] final -165.18 input   59.86 | X-H torsion
[ 10167 10162 10161 10158 ] final -131.20 input  -65.29 | X-H torsion
[ 10718 10713 10712 10709 ] final    8.43 input   66.30 | X-H torsion
[ 10763 10752 10751 10750 ] final  -40.44 input  -60.55 | X-H torsion
[ 11005 11000 10999 10996 ] final   31.33 input  -57.11 | X-H torsion

> <Gold.Protein.ActiveResidues>
 VAL166  LYS551  ARG553  GLY616  TRP617  ASP618  TYR619  PRO620  LYS621  CYS622 
 ASP623  PHE694  ASN695  SER759  ASP760  ASP761  ALA762  ILE779  LEU786  VAL792 
 PHE793  MET794  SER795  GLU796  ALA797  LYS798  CYS799  TRP800  GLU811  SER814 

> <Gold.Protein.RotatedAtoms>
  151.0949  134.9938  159.8420 H   0  0  0  0  0  0  0  0  0  0  0  0  # atno 6907 bound_to 6896
  152.5432  134.2021  159.8726 H   0  0  0  0  0  0  0  0  0  0  0  0  # atno 6908 bound_to 6896
  151.2060  133.4539  159.2630 H   0  0  0  0  0  0  0  0  0  0  0  0  # atno 6909 bound_to 6896
  146.2350  139.9327  142.8494 H   0  0  0  0  0  0  0  0  0  0  0  0  # atno 7974 bound_to 7965
  155.8462  140.0956  157.1703 H   0  0  0  0  0  0  0  0  0  0  0  0  # atno 8008 bound_to 7997
  154.3983  140.1392  156.3850 H   0  0  0  0  0  0  0  0  0  0  0  0  # atno 8009 bound_to 7997
  155.8011  140.3453  155.5405 H   0  0  0  0  0  0  0  0  0  0  0  0  # atno 8010 bound_to 7997
  139.9214  143.6378  152.2553 H   0  0  0  0  0  0  0  0  0  0  0  0  # atno 10167 bound_to 10162
  156.9515  130.5898  149.5657 H   0  0  0  0  0  0  0  0  0  0  0  0  # atno 10718 bound_to 10713
  153.9460  135.6756  153.4744 H   0  0  0  0  0  0  0  0  0  0  0  0  # atno 10763 bound_to 10752
  153.0908  135.4876  154.8682 H   0  0  0  0  0  0  0  0  0  0  0  0  # atno 10764 bound_to 10752
  154.7351  135.3147  154.8784 H   0  0  0  0  0  0  0  0  0  0  0  0  # atno 10765 bound_to 10752
  140.2850  134.2929  155.7790 H   0  0  0  0  0  0  0  0  0  0  0  0  # atno 11005 bound_to 11000
  145.2029  140.9862  143.4145 LP  0  0  0  0  0  0  0  0  0  0  0  0  # atno 17320 bound_to 7965
  144.9758  139.3833  143.6286 LP  0  0  0  0  0  0  0  0  0  0  0  0  # atno 17321 bound_to 7965
  139.6859  144.7651  151.1525 LP  0  0  0  0  0  0  0  0  0  0  0  0  # atno 17342 bound_to 10162
  140.7661  143.5658  150.9049 LP  0  0  0  0  0  0  0  0  0  0  0  0  # atno 17343 bound_to 10162
  156.0361  130.5448  150.8656 LP  0  0  0  0  0  0  0  0  0  0  0  0  # atno 17370 bound_to 10713
  157.5719  131.0946  150.9405 LP  0  0  0  0  0  0  0  0  0  0  0  0  # atno 17371 bound_to 10713
  141.2156  133.7549  156.9539 LP  0  0  0  0  0  0  0  0  0  0  0  0  # atno 17394 bound_to 11000
  140.1248  134.9394  157.2254 LP  0  0  0  0  0  0  0  0  0  0  0  0  # atno 17395 bound_to 11000

$$$$
