AV-unprocessed.smi:1075|AV-procd|sdf|4693|dock7
  -GOLD-   22720 3213D 1   1.00000     0.00000
 Structure written by MMmdl.
 50 51  0  0  0  0  0  0  0  0  1 V2000
  151.0386  145.6609  159.9881 C   0  0  0  0  0  0  0  0  0  0  0  0
  151.8687  144.5181  160.4994 C   0  0  0  0  0  0  0  0  0  0  0  0
  152.3820  144.5855  161.7156 N   0  0  0  0  0  0  0  0  0  0  0  0
  153.0657  143.4342  161.8640 N   0  0  0  0  0  0  0  0  0  0  0  0
  153.7663  143.1806  163.1083 C   0  0  0  0  0  0  0  0  0  0  0  0
  152.9883  142.6381  160.7377 C   0  0  0  0  0  0  0  0  0  0  0  0
  153.6816  141.3143  160.6615 C   0  0  0  0  0  0  0  0  0  0  0  0
  152.2104  143.3077  159.8261 C   0  0  0  0  0  0  0  0  0  0  0  0
  151.7976  142.9103  158.4208 C   0  0  2  0  0  0  0  0  0  0  0  0
  151.7133  144.1362  157.4916 C   0  0  0  0  0  0  0  0  0  0  0  0
  150.4989  142.0819  158.4486 C   0  0  0  0  0  0  0  0  0  0  0  0
  149.9285  141.8507  159.5148 O   0  0  0  0  0  0  0  0  0  0  0  0
  150.0420  141.6557  157.2564 N   0  0  0  0  0  0  0  0  0  0  0  0
  148.8517  140.8505  156.9538 C   0  0  1  0  0  0  0  0  0  0  0  0
  147.5814  141.5846  157.4353 C   0  0  0  0  0  0  0  0  0  0  0  0
  148.7567  140.5307  155.4394 C   0  0  0  0  0  0  0  0  0  0  0  0
  149.9327  139.6731  154.9372 C   0  0  0  0  0  0  0  0  0  0  0  0
  150.0537  138.3597  155.7315 C   0  0  1  0  0  0  0  0  0  0  0  0
  151.2357  137.5124  155.2405 C   0  0  0  0  0  0  0  0  0  0  0  0
  150.1566  138.6502  157.2398 C   0  0  0  0  0  0  0  0  0  0  0  0
  148.9833  139.5191  157.7314 C   0  0  0  0  0  0  0  0  0  0  0  0
  151.4709  146.0768  159.0777 H   0  0  0  0  0  0  0  0  0  0  0  0
  150.9654  146.4681  160.7180 H   0  0  0  0  0  0  0  0  0  0  0  0
  150.0255  145.3319  159.7557 H   0  0  0  0  0  0  0  0  0  0  0  0
  153.4753  142.2064  163.5010 H   0  0  0  0  0  0  0  0  0  0  0  0
  153.5249  143.9436  163.8497 H   0  0  0  0  0  0  0  0  0  0  0  0
  154.8417  143.1871  162.9302 H   0  0  0  0  0  0  0  0  0  0  0  0
  153.7338  140.9478  159.6371 H   0  0  0  0  0  0  0  0  0  0  0  0
  153.1554  140.5694  161.2584 H   0  0  0  0  0  0  0  0  0  0  0  0
  154.7040  141.3866  161.0330 H   0  0  0  0  0  0  0  0  0  0  0  0
  152.5500  142.2476  157.9920 H   0  0  0  0  0  0  0  0  0  0  0  0
  150.9560  144.8478  157.8209 H   0  0  0  0  0  0  0  0  0  0  0  0
  151.4727  143.8455  156.4685 H   0  0  0  0  0  0  0  0  0  0  0  0
  152.6677  144.6625  157.4605 H   0  0  0  0  0  0  0  0  0  0  0  0
  150.5980  141.9137  156.4538 H   0  0  0  0  0  0  0  0  0  0  0  0
  146.6971  140.9569  157.3210 H   0  0  0  0  0  0  0  0  0  0  0  0
  147.3958  142.4984  156.8715 H   0  0  0  0  0  0  0  0  0  0  0  0
  147.6556  141.8561  158.4891 H   0  0  0  0  0  0  0  0  0  0  0  0
  147.8269  139.9946  155.2436 H   0  0  0  0  0  0  0  0  0  0  0  0
  148.6944  141.4455  154.8502 H   0  0  0  0  0  0  0  0  0  0  0  0
  149.7937  139.4534  153.8781 H   0  0  0  0  0  0  0  0  0  0  0  0
  150.8620  140.2395  155.0103 H   0  0  0  0  0  0  0  0  0  0  0  0
  149.1434  137.7820  155.5635 H   0  0  0  0  0  0  0  0  0  0  0  0
  152.1833  138.0332  155.3828 H   0  0  0  0  0  0  0  0  0  0  0  0
  151.1388  137.2815  154.1793 H   0  0  0  0  0  0  0  0  0  0  0  0
  151.2912  136.5662  155.7796 H   0  0  0  0  0  0  0  0  0  0  0  0
  150.1703  137.7129  157.7972 H   0  0  0  0  0  0  0  0  0  0  0  0
  151.1033  139.1461  157.4588 H   0  0  0  0  0  0  0  0  0  0  0  0
  149.0997  139.7165  158.7981 H   0  0  0  0  0  0  0  0  0  0  0  0
  148.0604  138.9455  157.6325 H   0  0  0  0  0  0  0  0  0  0  0  0
  1  2  1  0  0  0  0
  1 22  1  0  0  0  0
  1 23  1  0  0  0  0
  1 24  1  0  0  0  0
  2  8  1  0  0  0  0
  2  3  2  0  0  0  0
  3  4  1  0  0  0  0
  4  5  1  0  0  0  0
  4  6  1  0  0  0  0
  5 25  1  0  0  0  0
  5 26  1  0  0  0  0
  5 27  1  0  0  0  0
  6  7  1  0  0  0  0
  6  8  2  0  0  0  0
  7 28  1  0  0  0  0
  7 29  1  0  0  0  0
  7 30  1  0  0  0  0
  8  9  1  0  0  0  0
  9 10  1  0  0  0  0
  9 11  1  0  0  0  0
  9 31  1  0  0  0  0
 10 32  1  0  0  0  0
 10 33  1  0  0  0  0
 10 34  1  0  0  0  0
 11 12  2  0  0  0  0
 11 13  1  0  0  0  0
 13 14  1  0  0  0  0
 13 35  1  0  0  0  0
 14 21  1  0  0  0  0
 14 15  1  0  0  0  0
 14 16  1  0  0  0  0
 15 36  1  0  0  0  0
 15 37  1  0  0  0  0
 15 38  1  0  0  0  0
 16 17  1  0  0  0  0
 16 39  1  0  0  0  0
 16 40  1  0  0  0  0
 17 18  1  0  0  0  0
 17 41  1  0  0  0  0
 17 42  1  0  0  0  0
 18 19  1  0  0  0  0
 18 20  1  0  0  0  0
 18 43  1  0  0  0  0
 19 44  1  0  0  0  0
 19 45  1  0  0  0  0
 19 46  1  0  0  0  0
 20 21  1  0  0  0  0
 20 47  1  0  0  0  0
 20 48  1  0  0  0  0
 21 49  1  0  0  0  0
 21 50  1  0  0  0  0
M  END
> <s_m_source_file>
AV-unprocessed.smi

> <i_m_source_file_index>
1075

> <i_lp_mmshare_version>
43012

> <i_f3d_flags>
0

> <s_epik_input>
W0NIM11jMW5uKFtDSDNdKWMoW0NIM10pYzFbQ0BIXShbQ0gzXSlDKD1PKVtOSF1bQ0BAXTIoW0NIM10pW0NIMl1bQ0gyXVtDQEBIXShbQ0gzXSlbQ0gyXVtDSDJdMg==

> <s_epik_cmdline>
J2VwaWtfcHl0aG9uJywgJy1waCcsICc3LjAnLCAnLXRuJywgJzgnLCAnLW1hJywgJzIwMCcsICctbWV0YWxfYmluZGluZycsICctaW1hZScsICc8aW5maWxlLm1hZT4nLCAnLW9tYWUnLCAnPG91dGZpbGUubWFlPic=

> <r_lp_tautomer_probability>
1

> <r_epik_Ionization_Penalty>
0.00502928

> <r_epik_Ionization_Penalty_Charging>
0

> <r_epik_Ionization_Penalty_Neutral>
0.00502928

> <r_epik_State_Penalty>
0.0036576

> <r_epik_Charging_Adjusted_Penalty>
0.0036576

> <i_epik_Tot_Q>
0

> <i_epik_Tot_abs_Q>
0

> <r_epik_Metal_State_Penalty>
-0

> <b_epik_Metal_Only>
0

> <s_lp_Force_Field>
OPLS_2005

> <r_lp_Energy>
4.57547

> <b_lp_Chiralities_Consistent>
1

> <s_lp_Variant>
AV-unprocessed.smi:1075-1

> <Gold.Version>
5.8.1

> <Gold.Id.Protein>
6NUR|6NUR_protein|mol2

> <Gold.PLP.Fitness>
45.4485

> <Gold.PLP.PLP>
-46.8656

> <Gold.PLP.part.hbond>
-1.3829

> <Gold.PLP.part.metal>
0.0000

> <Gold.PLP.part.buried>
-0.4168

> <Gold.PLP.part.nonpolar>
-45.5266

> <Gold.PLP.part.repulsive>
0.2518

> <Gold.PLP.ligand.clash>
0.0000

> <Gold.PLP.ligand.torsion>
0.7532

> <Gold.PLP.Chemscore.Hbond>
0.0000

> <Gold.PLP.Chemscore.CHOScore>
0.0000

> <Gold.PLP.Chemscore.Metal>
0.0000

> <Gold.PLP.Chemscore.Internal.Correction>
0.0893

> <Gold.Rescore>
     Score         DG    S(hbond)    S(metal)    S(lipo)     H(rot)  DE(clash)    DE(int)     intcor
     14.38     -16.78       0.00        0.00     123.50       1.23       0.16       2.24       ----

> <Gold.Chemscore.Fitness>
14.3795

> <Gold.Chemscore.DG>
-16.7751

> <Gold.Chemscore.ZeroCoef>
-5.4800

> <Gold.Chemscore.Hbond>
0.0000

> <Gold.Chemscore.Metal>
0.0000

> <Gold.Chemscore.Lipo>
123.4970

> <Gold.Chemscore.Internal_Hbond>
0.0000

> <Gold.Chemscore.DEClash>
0.1589

> <Gold.Chemscore.DEInternal>
2.2367

> <Gold.Chemscore.Rot>
1.2321

> <Gold.Chemscore.Internal.Correction>
   9.000000E+99

> <Gold.Chemscore.Hbond.Weighted>
-0.0000

> <Gold.Chemscore.Metal.Weighted>
-0.0000

> <Gold.Chemscore.Lipo.Weighted>
-14.4492

> <Gold.Chemscore.Internal_Hbond.Weighted>
0.0000

> <Gold.Chemscore.DEClash.Weighted>
0.1589

> <Gold.Chemscore.DEInternal.Weighted>
2.2367

> <Gold.Chemscore.Rot.Weighted>
3.1541

> <Gold.Chemscore.Internal.Correction.Weighted>
   9.000000E+99

> <Gold.Protein.RotatedTorsions>
[ 6907 6896 6895 6894 ] final   69.40 input  -60.11 | X-H torsion
[ 7974 7965 7964 7962 ] final  -87.62 input  175.53 | X-H torsion
[ 8008 7997 7996 7995 ] final   45.45 input   59.86 | X-H torsion
[ 10167 10162 10161 10158 ] final  128.36 input  -65.29 | X-H torsion
[ 10718 10713 10712 10709 ] final   87.30 input   66.30 | X-H torsion
[ 10763 10752 10751 10750 ] final  114.29 input  -60.55 | X-H torsion
[ 11005 11000 10999 10996 ] final  -19.67 input  -57.11 | X-H torsion

> <Gold.Protein.ActiveResidues>
 VAL166  LYS551  ARG553  GLY616  TRP617  ASP618  TYR619  PRO620  LYS621  CYS622 
 ASP623  PHE694  ASN695  SER759  ASP760  ASP761  ALA762  ILE779  LEU786  VAL792 
 PHE793  MET794  SER795  GLU796  ALA797  LYS798  CYS799  TRP800  GLU811  SER814 

> <Gold.Protein.RotatedAtoms>
  152.4683  134.5021  159.9727 H   0  0  0  0  0  0  0  0  0  0  0  0  # atno 6907 bound_to 6896
  151.5054  133.3490  159.2884 H   0  0  0  0  0  0  0  0  0  0  0  0  # atno 6908 bound_to 6896
  150.8679  134.8075  159.7195 H   0  0  0  0  0  0  0  0  0  0  0  0  # atno 6909 bound_to 6896
  145.4641  140.9560  143.1953 H   0  0  0  0  0  0  0  0  0  0  0  0  # atno 7974 bound_to 7965
  155.3360  140.3405  155.4239 H   0  0  0  0  0  0  0  0  0  0  0  0  # atno 8008 bound_to 7997
  156.1837  140.1673  156.8262 H   0  0  0  0  0  0  0  0  0  0  0  0  # atno 8009 bound_to 7997
  154.5362  140.0734  156.8415 H   0  0  0  0  0  0  0  0  0  0  0  0  # atno 8010 bound_to 7997
  139.5531  144.6828  151.4263 H   0  0  0  0  0  0  0  0  0  0  0  0  # atno 10167 bound_to 10162
  157.6938  131.0250  150.3102 H   0  0  0  0  0  0  0  0  0  0  0  0  # atno 10718 bound_to 10713
  153.5051  135.3629  155.2559 H   0  0  0  0  0  0  0  0  0  0  0  0  # atno 10763 bound_to 10752
  154.8745  135.4009  154.3433 H   0  0  0  0  0  0  0  0  0  0  0  0  # atno 10764 bound_to 10752
  153.4076  135.7077  153.6448 H   0  0  0  0  0  0  0  0  0  0  0  0  # atno 10765 bound_to 10752
  140.8390  133.7941  155.9840 H   0  0  0  0  0  0  0  0  0  0  0  0  # atno 11005 bound_to 11000
  144.7985  139.6187  143.7082 LP  0  0  0  0  0  0  0  0  0  0  0  0  # atno 17320 bound_to 7965
  146.2434  139.6048  142.9476 LP  0  0  0  0  0  0  0  0  0  0  0  0  # atno 17321 bound_to 7965
  140.6798  143.8107  150.7106 LP  0  0  0  0  0  0  0  0  0  0  0  0  # atno 17342 bound_to 10162
  140.1557  143.4319  152.2101 LP  0  0  0  0  0  0  0  0  0  0  0  0  # atno 17343 bound_to 10162
  156.3605  130.3846  149.7255 LP  0  0  0  0  0  0  0  0  0  0  0  0  # atno 17370 bound_to 10713
  156.4703  130.7993  151.3011 LP  0  0  0  0  0  0  0  0  0  0  0  0  # atno 17371 bound_to 10713
  140.8916  134.2488  157.5091 LP  0  0  0  0  0  0  0  0  0  0  0  0  # atno 17394 bound_to 11000
  139.8703  134.9664  156.4562 LP  0  0  0  0  0  0  0  0  0  0  0  0  # atno 17395 bound_to 11000

$$$$
