AV-unprocessed.smi:634|AV-procd|sdf|3137|dock8
  -GOLD-   22720 0 63D 1   1.00000     0.00000
 Structure written by MMmdl.
 32 33  0  0  0  0  0  0  0  0  2 V2000
  146.2472  131.0947  152.0449 C   0  0  0  0  0  0  0  0  0  0  0  0
  147.1827  131.8848  152.8940 C   0  0  0  0  0  0  0  0  0  0  0  0
  147.9055  133.0229  152.6716 C   0  0  0  0  0  0  0  0  0  0  0  0
  148.5834  133.2193  153.9044 C   0  0  0  0  0  0  0  0  0  0  0  0
  149.4613  134.3213  154.0799 N   0  0  0  0  0  0  0  0  0  0  0  0
  150.3253  134.5592  155.0830 C   0  0  0  0  0  0  0  0  0  0  0  0
  150.4101  133.7754  156.0342 O   0  0  0  0  0  0  0  0  0  0  0  0
  151.0310  135.7093  154.8911 N   0  5  0  0  0  0  0  0  0  0  0  0
  150.6502  137.0806  155.2777 C   0  0  1  0  0  0  0  0  0  0  0  0
  149.3186  137.3871  154.5608 C   0  0  0  0  0  0  0  0  0  0  0  0
  150.4562  137.2195  156.8123 C   0  0  0  0  0  0  0  0  0  0  0  0
  150.4205  138.7093  157.1898 C   0  0  0  0  0  0  0  0  0  0  0  0
  151.4834  139.5685  155.9656 S   0  0  0  0  0  0  0  0  0  0  0  0
  150.6839  140.5927  155.2748 O   0  0  0  0  0  0  0  0  0  0  0  0
  152.7701  139.9151  156.5891 O   0  0  0  0  0  0  0  0  0  0  0  0
  151.7191  138.1185  154.8619 C   0  0  0  0  0  0  0  0  0  0  0  0
  148.2962  132.2853  154.7995 N   0  0  0  0  0  0  0  0  0  0  0  0
  147.3977  131.4257  154.1566 O   0  0  0  0  0  0  0  0  0  0  0  0
  146.3180  131.3987  151.0003 H   0  0  0  0  0  0  0  0  0  0  0  0
  145.2172  131.2377  152.3710 H   0  0  0  0  0  0  0  0  0  0  0  0
  146.4769  130.0306  152.1027 H   0  0  0  0  0  0  0  0  0  0  0  0
  147.9443  133.6170  151.7705 H   0  0  0  0  0  0  0  0  0  0  0  0
  149.4465  135.0128  153.3450 H   0  0  0  0  0  0  0  0  0  0  0  0
  148.9614  138.3949  154.7724 H   0  0  0  0  0  0  0  0  0  0  0  0
  148.5337  136.6941  154.8668 H   0  0  0  0  0  0  0  0  0  0  0  0
  149.4227  137.3042  153.4781 H   0  0  0  0  0  0  0  0  0  0  0  0
  149.5634  136.6996  157.1617 H   0  0  0  0  0  0  0  0  0  0  0  0
  151.2963  136.7731  157.3435 H   0  0  0  0  0  0  0  0  0  0  0  0
  149.4117  139.1165  157.1125 H   0  0  0  0  0  0  0  0  0  0  0  0
  150.7889  138.8941  158.1988 H   0  0  0  0  0  0  0  0  0  0  0  0
  152.7342  137.7592  155.0273 H   0  0  0  0  0  0  0  0  0  0  0  0
  151.6401  138.4253  153.8189 H   0  0  0  0  0  0  0  0  0  0  0  0
  1  2  1  0  0  0  0
  1 19  1  0  0  0  0
  1 20  1  0  0  0  0
  1 21  1  0  0  0  0
  2 18  1  0  0  0  0
  2  3  2  0  0  0  0
  3  4  1  0  0  0  0
  3 22  1  0  0  0  0
  4  5  1  0  0  0  0
  4 17  2  0  0  0  0
  5  6  1  0  0  0  0
  5 23  1  0  0  0  0
  6  7  2  0  0  0  0
  6  8  1  0  0  0  0
  8  9  1  0  0  0  0
  9 16  1  0  0  0  0
  9 10  1  0  0  0  0
  9 11  1  0  0  0  0
 10 24  1  0  0  0  0
 10 25  1  0  0  0  0
 10 26  1  0  0  0  0
 11 12  1  0  0  0  0
 11 27  1  0  0  0  0
 11 28  1  0  0  0  0
 12 13  1  0  0  0  0
 12 29  1  0  0  0  0
 12 30  1  0  0  0  0
 13 14  2  0  0  0  0
 13 15  2  0  0  0  0
 13 16  1  0  0  0  0
 16 31  1  0  0  0  0
 16 32  1  0  0  0  0
 17 18  1  0  0  0  0
M  CHG  1   8  -1
M  END
> <s_m_source_file>
AV-unprocessed.smi

> <i_m_source_file_index>
634

> <i_lp_mmshare_version>
43012

> <i_f3d_flags>
0

> <s_epik_input>
W0NIM11jMVtjSF1jKG5vMSlbTkhdQyg9TylbTkhdW0NAQF0yKFtDSDNdKVtDSDJdW0NIMl1TKD1PKSg9TylbQ0gyXTI=

> <s_epik_cmdline>
J2VwaWtfcHl0aG9uJywgJy1waCcsICc3LjAnLCAnLXRuJywgJzgnLCAnLW1hJywgJzIwMCcsICctbWV0YWxfYmluZGluZycsICctaW1hZScsICc8aW5maWxlLm1hZT4nLCAnLW9tYWUnLCAnPG91dGZpbGUubWFlPic=

> <r_lp_tautomer_probability>
1

> <r_epik_Ionization_Penalty>
6.62388

> <r_epik_Ionization_Penalty_Charging>
6.62387

> <r_epik_Ionization_Penalty_Neutral>
5.45748e-06

> <r_epik_State_Penalty>
6.65157

> <r_epik_Charging_Adjusted_Penalty>
13.2754

> <i_epik_Tot_Q>
-1

> <i_epik_Tot_abs_Q>
1

> <r_epik_Metal_State_Penalty>
2.59195

> <b_epik_Metal_Only>
1

> <s_lp_Force_Field>
OPLS_2005

> <r_lp_Energy>
8.12985

> <b_lp_Chiralities_Consistent>
1

> <s_lp_Variant>
AV-unprocessed.smi:634-5

> <Gold.Version>
5.8.1

> <Gold.Id.Protein>
6NUR|6NUR_protein|mol2

> <Gold.PLP.Fitness>
35.1625

> <Gold.PLP.PLP>
-23.1002

> <Gold.PLP.part.hbond>
-4.0000

> <Gold.PLP.part.metal>
0.0000

> <Gold.PLP.part.buried>
-0.8552

> <Gold.PLP.part.nonpolar>
-18.1009

> <Gold.PLP.part.repulsive>
0.3197

> <Gold.PLP.ligand.clash>
0.0000

> <Gold.PLP.ligand.torsion>
0.7746

> <Gold.PLP.Chemscore.Hbond>
4.5360

> <Gold.PLP.Chemscore.CHOScore>
0.0000

> <Gold.PLP.Chemscore.Metal>
0.0000

> <Gold.Chemscore.Hbonds>
donor molecule, donor type, donor heavy atom, donor atom, acceptor molecule, acceptor atom, score
      L1  H     5    23       P1  7948  0.50
      P1  H  7989  7998       L1    14  0.94
      P1  H  7997  8008       L1    15  0.99
      P1  H 10752 10764       L1     8  2.00

> <Gold.PLP.Chemscore.Internal.Correction>
0.0034

> <Gold.Rescore>
     Score         DG    S(hbond)    S(metal)    S(lipo)     H(rot)  DE(clash)    DE(int)     intcor
     13.70     -16.08       2.44        0.00      42.75       1.00       0.29       2.08       ----

> <Gold.Chemscore.Fitness>
13.7039

> <Gold.Chemscore.DG>
-16.0802

> <Gold.Chemscore.ZeroCoef>
-5.4800

> <Gold.Chemscore.Hbond>
2.4426

> <Gold.Chemscore.Metal>
0.0000

> <Gold.Chemscore.Lipo>
42.7517

> <Gold.Chemscore.Internal_Hbond>
0.0000

> <Gold.Chemscore.DEClash>
0.2928

> <Gold.Chemscore.DEInternal>
2.0835

> <Gold.Chemscore.Rot>
1.0000

> <Gold.Chemscore.Internal.Correction>
   9.000000E+99

> <Gold.Chemscore.Hbonds>
donor molecule, donor type, donor heavy atom, donor atom, acceptor molecule, acceptor atom, score
      L1  H     5    23       P1  7948  0.02
      P1  H  7989  7998       L1    14  0.42
      P1  H  7997  8008       L1    15  0.94
      P1  H 10752 10764       L1     8  0.73

> <Gold.Chemscore.Hbond.Weighted>
-8.1583

> <Gold.Chemscore.Metal.Weighted>
-0.0000

> <Gold.Chemscore.Lipo.Weighted>
-5.0020

> <Gold.Chemscore.Internal_Hbond.Weighted>
0.0000

> <Gold.Chemscore.DEClash.Weighted>
0.2928

> <Gold.Chemscore.DEInternal.Weighted>
2.0835

> <Gold.Chemscore.Rot.Weighted>
2.5600

> <Gold.Chemscore.Internal.Correction.Weighted>
   9.000000E+99

> <Gold.Protein.RotatedTorsions>
[ 6907 6896 6895 6894 ] final -129.83 input  -60.11 | X-H torsion
[ 7974 7965 7964 7962 ] final  -25.38 input  175.53 | X-H torsion
[ 8008 7997 7996 7995 ] final  -32.74 input   59.86 | X-H torsion
[ 10167 10162 10161 10158 ] final  107.00 input  -65.29 | X-H torsion
[ 10718 10713 10712 10709 ] final  -65.07 input   66.30 | X-H torsion
[ 10763 10752 10751 10750 ] final  -52.73 input  -60.55 | X-H torsion
[ 11005 11000 10999 10996 ] final  -74.67 input  -57.11 | X-H torsion

> <Gold.Protein.ActiveResidues>
 VAL166  LYS551  ARG553  GLY616  TRP617  ASP618  TYR619  PRO620  LYS621  CYS622 
 ASP623  PHE694  ASN695  SER759  ASP760  ASP761  ALA762  ILE779  LEU786  VAL792 
 PHE793  MET794  SER795  GLU796  ALA797  LYS798  CYS799  TRP800  GLU811  SER814 

> <Gold.Protein.RotatedAtoms>
  150.9330  133.6745  159.2806 H   0  0  0  0  0  0  0  0  0  0  0  0  # atno 6907 bound_to 6896
  151.4160  135.0990  159.9609 H   0  0  0  0  0  0  0  0  0  0  0  0  # atno 6908 bound_to 6896
  152.5034  133.8792  159.7392 H   0  0  0  0  0  0  0  0  0  0  0  0  # atno 6909 bound_to 6896
  146.1495  140.4878  142.8617 H   0  0  0  0  0  0  0  0  0  0  0  0  # atno 7974 bound_to 7965
  154.4170  140.1729  156.1775 H   0  0  0  0  0  0  0  0  0  0  0  0  # atno 8008 bound_to 7997
  155.9709  140.3386  155.6551 H   0  0  0  0  0  0  0  0  0  0  0  0  # atno 8009 bound_to 7997
  155.6626  140.0702  157.2539 H   0  0  0  0  0  0  0  0  0  0  0  0  # atno 8010 bound_to 7997
  139.6963  144.7101  151.1261 H   0  0  0  0  0  0  0  0  0  0  0  0  # atno 10167 bound_to 10162
  156.0691  130.4242  150.1510 H   0  0  0  0  0  0  0  0  0  0  0  0  # atno 10718 bound_to 10713
  154.1474  135.6495  153.4955 H   0  0  0  0  0  0  0  0  0  0  0  0  # atno 10763 bound_to 10752
  153.0148  135.5330  154.6843 H   0  0  0  0  0  0  0  0  0  0  0  0  # atno 10764 bound_to 10752
  154.6121  135.2955  155.0391 H   0  0  0  0  0  0  0  0  0  0  0  0  # atno 10765 bound_to 10752
  141.1637  133.6919  156.7400 H   0  0  0  0  0  0  0  0  0  0  0  0  # atno 11005 bound_to 11000
  144.7886  140.5987  143.6557 LP  0  0  0  0  0  0  0  0  0  0  0  0  # atno 17320 bound_to 7965
  145.4858  139.1492  143.3737 LP  0  0  0  0  0  0  0  0  0  0  0  0  # atno 17321 bound_to 7965
  140.7697  143.5487  150.9229 LP  0  0  0  0  0  0  0  0  0  0  0  0  # atno 17342 bound_to 10162
  139.9167  143.6655  152.3105 LP  0  0  0  0  0  0  0  0  0  0  0  0  # atno 17343 bound_to 10162
  156.9565  130.9791  151.3488 LP  0  0  0  0  0  0  0  0  0  0  0  0  # atno 17370 bound_to 10713
  157.5752  130.8338  149.8445 LP  0  0  0  0  0  0  0  0  0  0  0  0  # atno 17371 bound_to 10713
  140.2682  134.8413  157.3822 LP  0  0  0  0  0  0  0  0  0  0  0  0  # atno 17394 bound_to 11000
  140.1547  134.4805  155.7936 LP  0  0  0  0  0  0  0  0  0  0  0  0  # atno 17395 bound_to 11000

$$$$
