AV-unprocessed.smi:287|AV-procd|sdf|2195|dock3
  -GOLD-   2262021593D 1   1.00000     0.00000
 Structure written by MMmdl.
 55 58  0  0  0  0  0  0  0  0  1 V2000
  151.9545  145.0044  159.0251 C   0  0  0  0  0  0  0  0  0  0  0  0
  152.2409  143.5420  159.0388 C   0  0  0  0  0  0  0  0  0  0  0  0
  151.9570  142.5167  158.1846 C   0  0  0  0  0  0  0  0  0  0  0  0
  152.4923  141.3238  158.7574 C   0  0  0  0  0  0  0  0  0  0  0  0
  152.4279  139.9236  158.1616 C   0  0  1  0  0  0  0  0  0  0  0  0
  151.8933  139.9996  156.7223 C   0  0  0  0  0  0  0  0  0  0  0  0
  153.7023  139.3171  158.0616 O   0  0  0  0  0  0  0  0  0  0  0  0
  151.5617  138.9540  158.9987 C   0  0  0  0  0  0  0  0  0  0  0  0
  151.4287  137.6386  158.3854 N   0  0  0  0  0  0  0  0  0  0  0  0
  150.2269  137.0316  158.2952 C   0  0  0  0  0  0  0  0  0  0  0  0
  149.7286  136.5585  159.4611 N   0  0  0  0  0  0  0  0  0  0  0  0
  148.5443  135.9445  159.4822 C   0  0  0  0  0  0  0  0  0  0  0  0
  147.7135  135.7065  158.4678 N   0  0  0  0  0  0  0  0  0  0  0  0
  148.2018  136.1738  157.2819 C   0  0  0  0  0  0  0  0  0  0  0  0
  149.4502  136.8440  157.1127 C   0  0  0  0  0  0  0  0  0  0  0  0
  149.6215  137.1632  155.7718 N   0  0  0  0  0  0  0  0  0  0  0  0
  148.5456  136.7099  155.1920 C   0  0  0  0  0  0  0  0  0  0  0  0
  147.6251  136.1113  156.0222 N   0  0  0  0  0  0  0  0  0  0  0  0
  146.3271  135.4870  155.5827 C   0  0  1  0  0  0  0  0  0  0  0  0
  145.6023  136.4368  154.8698 O   0  0  0  0  0  0  0  0  0  0  0  0
  145.8419  136.2784  153.4790 C   0  0  2  0  0  0  0  0  0  0  0  0
  144.6798  136.8890  152.6812 C   0  0  0  0  0  0  0  0  0  0  0  0
  144.9627  138.2361  152.3679 O   0  0  0  0  0  0  0  0  0  0  0  0
  145.9566  134.7536  153.3211 C   0  0  1  0  0  0  0  0  0  0  0  0
  146.8501  134.4340  152.2735 O   0  0  0  0  0  0  0  0  0  0  0  0
  146.4978  134.2616  154.6677 C   0  0  2  0  0  0  0  0  0  0  0  0
  145.7281  133.1697  155.1297 O   0  0  0  0  0  0  0  0  0  0  0  0
  153.0893  141.7341  159.9246 C   0  0  0  0  0  0  0  0  0  0  0  0
  153.8548  141.0307  160.9963 C   0  0  0  0  0  0  0  0  0  0  0  0
  152.9355  143.0753  160.1069 O   0  0  0  0  0  0  0  0  0  0  0  0
  145.8211  135.2560  156.5213 H   0  0  0  0  0  0  0  0  0  0  0  0
  146.7809  136.7650  153.2148 H   0  0  0  0  0  0  0  0  0  0  0  0
  144.9756  134.3219  153.1149 H   0  0  0  0  0  0  0  0  0  0  0  0
  147.5401  133.9465  154.6312 H   0  0  0  0  0  0  0  0  0  0  0  0
  151.2622  145.2573  158.2219 H   0  0  0  0  0  0  0  0  0  0  0  0
  152.8705  145.5757  158.8746 H   0  0  0  0  0  0  0  0  0  0  0  0
  151.5074  145.3211  159.9676 H   0  0  0  0  0  0  0  0  0  0  0  0
  151.4172  142.6103  157.2538 H   0  0  0  0  0  0  0  0  0  0  0  0
  150.8910  140.4289  156.6965 H   0  0  0  0  0  0  0  0  0  0  0  0
  151.8384  139.0121  156.2626 H   0  0  0  0  0  0  0  0  0  0  0  0
  152.5320  140.6218  156.0938 H   0  0  0  0  0  0  0  0  0  0  0  0
  153.5857  138.3806  158.0136 H   0  0  0  0  0  0  0  0  0  0  0  0
  152.0404  138.8161  159.9690 H   0  0  0  0  0  0  0  0  0  0  0  0
  150.5761  139.3814  159.1888 H   0  0  0  0  0  0  0  0  0  0  0  0
  152.2968  137.1801  158.1486 H   0  0  0  0  0  0  0  0  0  0  0  0
  148.2140  135.5958  160.4494 H   0  0  0  0  0  0  0  0  0  0  0  0
  148.3931  136.8006  154.1264 H   0  0  0  0  0  0  0  0  0  0  0  0
  144.5511  136.3546  151.7394 H   0  0  0  0  0  0  0  0  0  0  0  0
  143.7393  136.8148  153.2281 H   0  0  0  0  0  0  0  0  0  0  0  0
  144.7614  138.3824  151.4564 H   0  0  0  0  0  0  0  0  0  0  0  0
  147.4592  135.1493  152.1706 H   0  0  0  0  0  0  0  0  0  0  0  0
  144.9679  133.0831  154.5750 H   0  0  0  0  0  0  0  0  0  0  0  0
  154.6383  140.4071  160.5657 H   0  0  0  0  0  0  0  0  0  0  0  0
  153.1963  140.3908  161.5835 H   0  0  0  0  0  0  0  0  0  0  0  0
  154.3278  141.7406  161.6755 H   0  0  0  0  0  0  0  0  0  0  0  0
  1  2  1  0  0  0  0
  1 35  1  0  0  0  0
  1 36  1  0  0  0  0
  1 37  1  0  0  0  0
  2 30  1  0  0  0  0
  2  3  2  0  0  0  0
  3  4  1  0  0  0  0
  3 38  1  0  0  0  0
  4  5  1  0  0  0  0
  4 28  2  0  0  0  0
  5  6  1  0  0  0  0
  5  7  1  0  0  0  0
  5  8  1  0  0  0  0
  6 39  1  0  0  0  0
  6 40  1  0  0  0  0
  6 41  1  0  0  0  0
  7 42  1  0  0  0  0
  8  9  1  0  0  0  0
  8 43  1  0  0  0  0
  8 44  1  0  0  0  0
  9 10  1  0  0  0  0
  9 45  1  0  0  0  0
 10 15  1  0  0  0  0
 10 11  2  0  0  0  0
 11 12  1  0  0  0  0
 12 13  2  0  0  0  0
 12 46  1  0  0  0  0
 13 14  1  0  0  0  0
 14 18  1  0  0  0  0
 14 15  2  0  0  0  0
 15 16  1  0  0  0  0
 16 17  2  0  0  0  0
 17 18  1  0  0  0  0
 17 47  1  0  0  0  0
 18 19  1  0  0  0  0
 19 31  1  0  0  0  0
 19 26  1  0  0  0  0
 19 20  1  0  0  0  0
 20 21  1  0  0  0  0
 21 32  1  0  0  0  0
 21 22  1  0  0  0  0
 21 24  1  0  0  0  0
 22 23  1  0  0  0  0
 22 48  1  0  0  0  0
 22 49  1  0  0  0  0
 23 50  1  0  0  0  0
 24 33  1  0  0  0  0
 24 25  1  0  0  0  0
 24 26  1  0  0  0  0
 25 51  1  0  0  0  0
 26 34  1  0  0  0  0
 26 27  1  0  0  0  0
 27 52  1  0  0  0  0
 28 29  1  0  0  0  0
 28 30  1  0  0  0  0
 29 53  1  0  0  0  0
 29 54  1  0  0  0  0
 29 55  1  0  0  0  0
M  END
> <s_m_source_file>
AV-unprocessed.smi

> <i_m_source_file_index>
287

> <i_lp_mmshare_version>
43012

> <i_f3d_flags>
0

> <s_epik_input>
W0NIM11jMVtjSF1jKGMobzEpW0NIM10pW0NAQF0oW0NIM10pKFtPSF0pW0NIMl1bTkhdYyhuW2NIXW4yKWMoYzIzKW5bY0hdbjNbQ0BASF00T1tDQEhdKFtDSDJdW09IXSlbQ0BASF0oW09IXSlbQ0BIXTRbT0hd

> <s_epik_cmdline>
J2VwaWtfcHl0aG9uJywgJy1waCcsICc3LjAnLCAnLXRuJywgJzgnLCAnLW1hJywgJzIwMCcsICctbWV0YWxfYmluZGluZycsICctaW1hZScsICc8aW5maWxlLm1hZT4nLCAnLW9tYWUnLCAnPG91dGZpbGUubWFlPic=

> <r_lp_tautomer_probability>
1

> <r_epik_Ionization_Penalty>
0.000992612

> <r_epik_Ionization_Penalty_Charging>
0

> <r_epik_Ionization_Penalty_Neutral>
0.000992612

> <r_epik_State_Penalty>
-0

> <r_epik_Charging_Adjusted_Penalty>
0

> <i_epik_Tot_Q>
0

> <i_epik_Tot_abs_Q>
0

> <r_epik_Metal_State_Penalty>
-0

> <b_epik_Metal_Only>
0

> <s_epik_Chemistry_Notes>
This compound contains an acetal/aminal-like group ( X-CH(R)-Y where X, Y are N, S, or O) that may be acid/base labile, releasing an aldehyde.

> <s_lp_Force_Field>
OPLS_2005

> <r_lp_Energy>
36.8397

> <b_lp_Chiralities_Consistent>
1

> <s_lp_Variant>
AV-unprocessed.smi:287-19

> <Gold.Version>
5.8.1

> <Gold.Id.Protein>
6NUR|6NUR_protein|mol2

> <Gold.PLP.Fitness>
51.1727

> <Gold.PLP.PLP>
-38.7920

> <Gold.PLP.part.hbond>
-4.9289

> <Gold.PLP.part.metal>
0.0000

> <Gold.PLP.part.buried>
-7.4035

> <Gold.PLP.part.nonpolar>
-27.4584

> <Gold.PLP.part.repulsive>
0.1845

> <Gold.PLP.ligand.clash>
0.0000

> <Gold.PLP.ligand.torsion>
1.4053

> <Gold.PLP.Chemscore.Hbond>
4.0000

> <Gold.PLP.Chemscore.CHOScore>
1.0000

> <Gold.PLP.Chemscore.Metal>
0.0000

> <Gold.Chemscore.Hbonds>
donor molecule, donor type, donor heavy atom, donor atom, acceptor molecule, acceptor atom, score
      L1  H    23    50       P1 10171  1.00
      L1  H    25    51       P1  7948  1.00
      P1  H  6896  6909       L1    11  0.90
      P1  H  7997  8008       L1     7  1.00
      L1  C    17    47       P1  7948  1.00

> <Gold.PLP.Chemscore.Internal.Correction>
0.1912

> <Gold.Rescore>
     Score         DG    S(hbond)    S(metal)    S(lipo)     H(rot)  DE(clash)    DE(int)     intcor
     11.67     -12.87       3.02        0.00      92.12       5.27       0.02       1.18       ----

> <Gold.Chemscore.Fitness>
11.6669

> <Gold.Chemscore.DG>
-12.8741

> <Gold.Chemscore.ZeroCoef>
-5.4800

> <Gold.Chemscore.Hbond>
3.0240

> <Gold.Chemscore.Metal>
0.0000

> <Gold.Chemscore.Lipo>
92.1171

> <Gold.Chemscore.Internal_Hbond>
0.0000

> <Gold.Chemscore.DEClash>
0.0224

> <Gold.Chemscore.DEInternal>
1.1848

> <Gold.Chemscore.Rot>
5.2672

> <Gold.Chemscore.Internal.Correction>
   9.000000E+99

> <Gold.Chemscore.Hbonds>
donor molecule, donor type, donor heavy atom, donor atom, acceptor molecule, acceptor atom, score
      L1  H    23    50       P1 10171  1.00
      L1  H    25    51       P1  7948  0.98
      P1  H  6896  6909       L1    11  0.05
      P1  H  7997  8008       L1     7  0.78

> <Gold.Chemscore.Hbond.Weighted>
-10.1003

> <Gold.Chemscore.Metal.Weighted>
-0.0000

> <Gold.Chemscore.Lipo.Weighted>
-10.7777

> <Gold.Chemscore.Internal_Hbond.Weighted>
0.0000

> <Gold.Chemscore.DEClash.Weighted>
0.0224

> <Gold.Chemscore.DEInternal.Weighted>
1.1848

> <Gold.Chemscore.Rot.Weighted>
13.4839

> <Gold.Chemscore.Internal.Correction.Weighted>
   9.000000E+99

> <Gold.Protein.RotatedTorsions>
[ 6907 6896 6895 6894 ] final   76.57 input  -60.11 | X-H torsion
[ 7974 7965 7964 7962 ] final  -51.21 input  175.53 | X-H torsion
[ 8008 7997 7996 7995 ] final  -88.56 input   59.86 | X-H torsion
[ 10167 10162 10161 10158 ] final   -8.93 input  -65.29 | X-H torsion
[ 10718 10713 10712 10709 ] final   88.41 input   66.30 | X-H torsion
[ 10763 10752 10751 10750 ] final  -35.43 input  -60.55 | X-H torsion
[ 11005 11000 10999 10996 ] final -136.31 input  -57.11 | X-H torsion

> <Gold.Protein.ActiveResidues>
 VAL166  LYS551  ARG553  GLY616  TRP617  ASP618  TYR619  PRO620  LYS621  CYS622 
 ASP623  PHE694  ASN695  SER759  ASP760  ASP761  ALA762  ILE779  LEU786  VAL792 
 PHE793  MET794  SER795  GLU796  ALA797  LYS798  CYS799  TRP800  GLU811  SER814 

> <Gold.Protein.RotatedAtoms>
  152.5079  134.3948  159.9396 H   0  0  0  0  0  0  0  0  0  0  0  0  # atno 6907 bound_to 6896
  151.3910  133.3783  159.2728 H   0  0  0  0  0  0  0  0  0  0  0  0  # atno 6908 bound_to 6896
  150.9433  134.8861  159.7685 H   0  0  0  0  0  0  0  0  0  0  0  0  # atno 6909 bound_to 6896
  145.9214  140.7830  142.9645 H   0  0  0  0  0  0  0  0  0  0  0  0  # atno 7974 bound_to 7965
  154.6762  140.0552  157.0218 H   0  0  0  0  0  0  0  0  0  0  0  0  # atno 8008 bound_to 7997
  155.1017  140.3229  155.4526 H   0  0  0  0  0  0  0  0  0  0  0  0  # atno 8009 bound_to 7997
  156.2677  140.2030  156.6143 H   0  0  0  0  0  0  0  0  0  0  0  0  # atno 8010 bound_to 7997
  140.7073  143.5914  150.8890 H   0  0  0  0  0  0  0  0  0  0  0  0  # atno 10167 bound_to 10162
  157.6949  131.0293  150.3270 H   0  0  0  0  0  0  0  0  0  0  0  0  # atno 10718 bound_to 10713
  153.8630  135.6838  153.4781 H   0  0  0  0  0  0  0  0  0  0  0  0  # atno 10763 bound_to 10752
  153.1331  135.4689  154.9377 H   0  0  0  0  0  0  0  0  0  0  0  0  # atno 10764 bound_to 10752
  154.7750  135.3250  154.8061 H   0  0  0  0  0  0  0  0  0  0  0  0  # atno 10765 bound_to 10752
  140.8817  134.1923  157.4586 H   0  0  0  0  0  0  0  0  0  0  0  0  # atno 11005 bound_to 11000
  144.6753  140.1982  143.7390 LP  0  0  0  0  0  0  0  0  0  0  0  0  # atno 17320 bound_to 7965
  145.8545  139.2192  143.1753 LP  0  0  0  0  0  0  0  0  0  0  0  0  # atno 17321 bound_to 7965
  139.9639  143.6132  152.2994 LP  0  0  0  0  0  0  0  0  0  0  0  0  # atno 17342 bound_to 10162
  139.6695  144.7661  151.1810 LP  0  0  0  0  0  0  0  0  0  0  0  0  # atno 17343 bound_to 10162
  156.3750  130.3870  149.7146 LP  0  0  0  0  0  0  0  0  0  0  0  0  # atno 17370 bound_to 10713
  156.4548  130.7924  151.2945 LP  0  0  0  0  0  0  0  0  0  0  0  0  # atno 17371 bound_to 10713
  139.8720  134.9820  156.5139 LP  0  0  0  0  0  0  0  0  0  0  0  0  # atno 17394 bound_to 11000
  140.8453  133.8174  155.9115 LP  0  0  0  0  0  0  0  0  0  0  0  0  # atno 17395 bound_to 11000

$$$$
