AV-unprocessed.smi:2289|AV-procd|sdf|9208|dock2
  -GOLD-   2272012423D 1   1.00000     0.00000
 Structure written by MMmdl.
 40 41  0  0  0  0  0  0  0  0  1 V2000
  152.1712  143.9691  161.5746 C   0  0  0  0  0  0  0  0  0  0  0  0
  152.0837  143.2615  160.2340 C   0  0  0  0  0  0  0  0  0  0  0  0
  151.2858  143.8868  159.2721 N   0  0  0  0  0  0  0  0  0  0  0  0
  151.1493  143.3533  158.1026 C   0  0  0  0  0  0  0  0  0  0  0  0
  151.7822  142.1467  157.7606 N   0  0  0  0  0  0  0  0  0  0  0  0
  151.5388  141.6641  156.3874 C   0  0  0  0  0  0  0  0  0  0  0  0
  151.0526  140.1939  156.2973 C   0  0  2  0  0  0  0  0  0  0  0  0
  151.3432  139.6921  155.0076 O   0  0  0  0  0  0  0  0  0  0  0  0
  149.5687  139.9456  156.6510 C   0  0  0  0  0  0  0  0  0  0  0  0
  148.6300  140.1738  155.4726 C   0  0  0  0  0  0  0  0  0  0  0  0
  148.4749  141.4955  155.0006 C   0  0  0  0  0  0  0  0  0  0  0  0
  147.6257  141.7778  153.9162 C   0  0  0  0  0  0  0  0  0  0  0  0
  146.9184  140.7353  153.2946 C   0  0  0  0  0  0  0  0  0  0  0  0
  147.0619  139.4149  153.7586 C   0  0  0  0  0  0  0  0  0  0  0  0
  147.9159  139.1136  154.8462 C   0  0  0  0  0  0  0  0  0  0  0  0
  148.0319  137.6640  155.3231 C   0  0  0  0  0  0  0  0  0  0  0  0
  147.2520  136.8486  154.6120 F   0  0  0  0  0  0  0  0  0  0  0  0
  149.2832  137.2203  155.2060 F   0  0  0  0  0  0  0  0  0  0  0  0
  147.6550  137.5777  156.5988 F   0  0  0  0  0  0  0  0  0  0  0  0
  152.5891  141.4782  158.6367 C   0  0  0  0  0  0  0  0  0  0  0  0
  153.1500  140.4244  158.3296 O   0  0  0  0  0  0  0  0  0  0  0  0
  152.7318  142.0953  159.9653 C   0  0  0  0  0  0  0  0  0  0  0  0
  153.6140  141.3695  160.9737 C   0  0  0  0  0  0  0  0  0  0  0  0
  153.2015  144.2541  161.7888 H   0  0  0  0  0  0  0  0  0  0  0  0
  151.8144  143.3196  162.3743 H   0  0  0  0  0  0  0  0  0  0  0  0
  151.5639  144.8751  161.5866 H   0  0  0  0  0  0  0  0  0  0  0  0
  150.5393  143.8005  157.3158 H   0  0  0  0  0  0  0  0  0  0  0  0
  150.8451  142.3280  155.8671 H   0  0  0  0  0  0  0  0  0  0  0  0
  152.4555  141.7481  155.8019 H   0  0  0  0  0  0  0  0  0  0  0  0
  151.6737  139.6188  156.9849 H   0  0  0  0  0  0  0  0  0  0  0  0
  151.1302  138.7715  154.9878 H   0  0  0  0  0  0  0  0  0  0  0  0
  149.4349  138.9276  157.0070 H   0  0  0  0  0  0  0  0  0  0  0  0
  149.2668  140.5803  157.4857 H   0  0  0  0  0  0  0  0  0  0  0  0
  149.0151  142.3035  155.4723 H   0  0  0  0  0  0  0  0  0  0  0  0
  147.5172  142.7929  153.5634 H   0  0  0  0  0  0  0  0  0  0  0  0
  146.2634  140.9478  152.4627 H   0  0  0  0  0  0  0  0  0  0  0  0
  146.5017  138.6346  153.2657 H   0  0  0  0  0  0  0  0  0  0  0  0
  153.2254  140.3680  161.1607 H   0  0  0  0  0  0  0  0  0  0  0  0
  153.6794  141.8801  161.9330 H   0  0  0  0  0  0  0  0  0  0  0  0
  154.6281  141.2718  160.5846 H   0  0  0  0  0  0  0  0  0  0  0  0
  1  2  1  0  0  0  0
  1 24  1  0  0  0  0
  1 25  1  0  0  0  0
  1 26  1  0  0  0  0
  2 22  2  0  0  0  0
  2  3  1  0  0  0  0
  3  4  2  0  0  0  0
  4  5  1  0  0  0  0
  4 27  1  0  0  0  0
  5  6  1  0  0  0  0
  5 20  1  0  0  0  0
  6  7  1  0  0  0  0
  6 28  1  0  0  0  0
  6 29  1  0  0  0  0
  7  8  1  0  0  0  0
  7  9  1  0  0  0  0
  7 30  1  0  0  0  0
  8 31  1  0  0  0  0
  9 10  1  0  0  0  0
  9 32  1  0  0  0  0
  9 33  1  0  0  0  0
 10 15  1  0  0  0  0
 10 11  2  0  0  0  0
 11 12  1  0  0  0  0
 11 34  1  0  0  0  0
 12 13  2  0  0  0  0
 12 35  1  0  0  0  0
 13 14  1  0  0  0  0
 13 36  1  0  0  0  0
 14 15  2  0  0  0  0
 14 37  1  0  0  0  0
 15 16  1  0  0  0  0
 16 17  1  0  0  0  0
 16 18  1  0  0  0  0
 16 19  1  0  0  0  0
 20 21  2  0  0  0  0
 20 22  1  0  0  0  0
 22 23  1  0  0  0  0
 23 38  1  0  0  0  0
 23 39  1  0  0  0  0
 23 40  1  0  0  0  0
M  END
> <s_m_source_file>
AV-unprocessed.smi

> <i_m_source_file_index>
2289

> <i_lp_mmshare_version>
43012

> <i_f3d_flags>
0

> <s_epik_input>
W0NIM11jMW5bY0hdbihjKD1PKWMxW0NIM10pW0NIMl1bQ0BIXShbT0hdKVtDSDJdYzJbY0hdW2NIXVtjSF1bY0hdYzJDKEYpKEYpRg==

> <s_epik_cmdline>
J2VwaWtfcHl0aG9uJywgJy1waCcsICc3LjAnLCAnLXRuJywgJzgnLCAnLW1hJywgJzIwMCcsICctbWV0YWxfYmluZGluZycsICctaW1hZScsICc8aW5maWxlLm1hZT4nLCAnLW9tYWUnLCAnPG91dGZpbGUubWFlPic=

> <r_lp_tautomer_probability>
1

> <r_epik_Ionization_Penalty>
8.92636e-05

> <r_epik_Ionization_Penalty_Charging>
8.63033e-08

> <r_epik_Ionization_Penalty_Neutral>
8.91773e-05

> <r_epik_State_Penalty>
-0

> <r_epik_Charging_Adjusted_Penalty>
8.63033e-08

> <i_epik_Tot_Q>
0

> <i_epik_Tot_abs_Q>
0

> <r_epik_Metal_State_Penalty>
-0

> <b_epik_Metal_Only>
0

> <s_lp_Force_Field>
OPLS_2005

> <r_lp_Energy>
23.7682

> <b_lp_Chiralities_Consistent>
1

> <s_lp_Variant>
AV-unprocessed.smi:2289-1

> <Gold.Version>
5.8.1

> <Gold.Id.Protein>
6NUR|6NUR_protein|mol2

> <Gold.PLP.Fitness>
44.8838

> <Gold.PLP.PLP>
-37.1196

> <Gold.PLP.part.hbond>
-2.0000

> <Gold.PLP.part.metal>
0.0000

> <Gold.PLP.part.buried>
-6.3266

> <Gold.PLP.part.nonpolar>
-28.4532

> <Gold.PLP.part.repulsive>
0.0565

> <Gold.PLP.ligand.clash>
1.4038

> <Gold.PLP.ligand.torsion>
0.5374

> <Gold.PLP.Chemscore.Hbond>
1.9120

> <Gold.PLP.Chemscore.CHOScore>
0.9993

> <Gold.PLP.Chemscore.Metal>
0.0000

> <Gold.Chemscore.Hbonds>
donor molecule, donor type, donor heavy atom, donor atom, acceptor molecule, acceptor atom, score
      P1  H  7989  7998       L1     8  1.00
      P1  H  7997  8010       L1    21  0.83
      L1  C     4    27       P1  8028  1.00

> <Gold.PLP.Chemscore.Internal.Correction>
1.5089

> <Gold.Rescore>
     Score         DG    S(hbond)    S(metal)    S(lipo)     H(rot)  DE(clash)    DE(int)     intcor
     13.15     -16.94       1.80        0.00      98.29       2.37       1.67       2.12       ----

> <Gold.Chemscore.Fitness>
13.1487

> <Gold.Chemscore.DG>
-16.9440

> <Gold.Chemscore.ZeroCoef>
-5.4800

> <Gold.Chemscore.Hbond>
1.8043

> <Gold.Chemscore.Metal>
0.0000

> <Gold.Chemscore.Lipo>
98.2900

> <Gold.Chemscore.Internal_Hbond>
0.0000

> <Gold.Chemscore.DEClash>
1.6733

> <Gold.Chemscore.DEInternal>
2.1220

> <Gold.Chemscore.Rot>
2.3681

> <Gold.Chemscore.Internal.Correction>
   9.000000E+99

> <Gold.Chemscore.Hbonds>
donor molecule, donor type, donor heavy atom, donor atom, acceptor molecule, acceptor atom, score
      P1  H  7989  7998       L1     8  0.98
      P1  H  7997  8010       L1    21  0.81

> <Gold.Chemscore.Hbond.Weighted>
-6.0265

> <Gold.Chemscore.Metal.Weighted>
-0.0000

> <Gold.Chemscore.Lipo.Weighted>
-11.4999

> <Gold.Chemscore.Internal_Hbond.Weighted>
0.0000

> <Gold.Chemscore.DEClash.Weighted>
1.6733

> <Gold.Chemscore.DEInternal.Weighted>
2.1220

> <Gold.Chemscore.Rot.Weighted>
6.0624

> <Gold.Chemscore.Internal.Correction.Weighted>
   9.000000E+99

> <Gold.Protein.RotatedTorsions>
[ 6907 6896 6895 6894 ] final  149.50 input  -60.11 | X-H torsion
[ 7974 7965 7964 7962 ] final  -60.57 input  175.53 | X-H torsion
[ 8008 7997 7996 7995 ] final   37.77 input   59.86 | X-H torsion
[ 10167 10162 10161 10158 ] final   41.40 input  -65.29 | X-H torsion
[ 10718 10713 10712 10709 ] final   49.31 input   66.30 | X-H torsion
[ 10763 10752 10751 10750 ] final  -28.68 input  -60.55 | X-H torsion
[ 11005 11000 10999 10996 ] final  -11.52 input  -57.11 | X-H torsion

> <Gold.Protein.ActiveResidues>
 VAL166  LYS551  ARG553  GLY616  TRP617  ASP618  TYR619  PRO620  LYS621  CYS622 
 ASP623  PHE694  ASN695  SER759  ASP760  ASP761  ALA762  ILE779  LEU786  VAL792 
 PHE793  MET794  SER795  GLU796  ALA797  LYS798  CYS799  TRP800  GLU811  SER814 

> <Gold.Protein.RotatedAtoms>
  152.1271  133.4386  159.4702 H   0  0  0  0  0  0  0  0  0  0  0  0  # atno 6907 bound_to 6896
  150.6875  134.2465  159.4502 H   0  0  0  0  0  0  0  0  0  0  0  0  # atno 6908 bound_to 6896
  152.0346  134.9747  160.0623 H   0  0  0  0  0  0  0  0  0  0  0  0  # atno 6909 bound_to 6896
  145.8140  140.8581  143.0167 H   0  0  0  0  0  0  0  0  0  0  0  0  # atno 7974 bound_to 7965
  155.2092  140.3322  155.4331 H   0  0  0  0  0  0  0  0  0  0  0  0  # atno 8008 bound_to 7997
  156.2377  140.1880  156.7123 H   0  0  0  0  0  0  0  0  0  0  0  0  # atno 8009 bound_to 7997
  154.6089  140.0612  156.9454 H   0  0  0  0  0  0  0  0  0  0  0  0  # atno 8010 bound_to 7997
  140.3647  144.2183  150.6136 H   0  0  0  0  0  0  0  0  0  0  0  0  # atno 10167 bound_to 10162
  157.4774  130.8293  149.8054 H   0  0  0  0  0  0  0  0  0  0  0  0  # atno 10718 bound_to 10713
  153.7522  135.6925  153.4943 H   0  0  0  0  0  0  0  0  0  0  0  0  # atno 10763 bound_to 10752
  153.1995  135.4441  155.0248 H   0  0  0  0  0  0  0  0  0  0  0  0  # atno 10764 bound_to 10752
  154.8183  135.3409  154.7042 H   0  0  0  0  0  0  0  0  0  0  0  0  # atno 10765 bound_to 10752
  140.7561  133.8553  155.9085 H   0  0  0  0  0  0  0  0  0  0  0  0  # atno 11005 bound_to 11000
  144.6754  140.0436  143.7480 LP  0  0  0  0  0  0  0  0  0  0  0  0  # atno 17320 bound_to 7965
  145.9747  139.2896  143.1078 LP  0  0  0  0  0  0  0  0  0  0  0  0  # atno 17321 bound_to 7965
  140.5092  143.2295  151.8561 LP  0  0  0  0  0  0  0  0  0  0  0  0  # atno 17342 bound_to 10162
  139.4810  144.4969  151.9111 LP  0  0  0  0  0  0  0  0  0  0  0  0  # atno 17343 bound_to 10162
  156.0104  130.3836  150.2286 LP  0  0  0  0  0  0  0  0  0  0  0  0  # atno 17370 bound_to 10713
  157.0471  131.0052  151.3265 LP  0  0  0  0  0  0  0  0  0  0  0  0  # atno 17371 bound_to 10713
  140.9706  134.1536  157.4579 LP  0  0  0  0  0  0  0  0  0  0  0  0  # atno 17394 bound_to 11000
  139.8779  134.9977  156.5862 LP  0  0  0  0  0  0  0  0  0  0  0  0  # atno 17395 bound_to 11000

$$$$
