AV-unprocessed.smi:1139|AV-procd|sdf|4869|dock7
  -GOLD-   22720 3443D 1   1.00000     0.00000
 Structure written by MMmdl.
 43 44  0  0  0  0  0  0  0  0  2 V2000
  153.4680  138.2527  155.4399 C   0  0  0  0  0  0  0  0  0  0  0  0
  152.2780  139.1430  155.6566 C   0  0  0  0  0  0  0  0  0  0  0  0
  152.3865  140.1943  156.4515 N   0  0  0  0  0  0  0  0  0  0  0  0
  151.1321  140.8117  156.4441 O   0  0  0  0  0  0  0  0  0  0  0  0
  150.3075  140.0990  155.6351 C   0  0  0  0  0  0  0  0  0  0  0  0
  148.9106  140.6016  155.4924 C   0  0  0  0  0  0  0  0  0  0  0  0
  150.9704  139.0271  155.1029 C   0  0  0  0  0  0  0  0  0  0  0  0
  150.4500  137.9754  154.1580 C   0  0  0  0  0  0  0  0  0  0  0  0
  150.4044  136.6225  154.8688 C   0  0  0  0  0  0  0  0  0  0  0  0
  150.9225  136.4920  155.9777 O   0  0  0  0  0  0  0  0  0  0  0  0
  149.7829  135.6247  154.2208 N   0  0  0  0  0  0  0  0  0  0  0  0
  149.6676  134.2471  154.6931 C   0  0  0  0  0  0  0  0  0  0  0  0
  149.3222  133.2426  153.5629 C   0  0  2  0  0  0  0  0  0  0  0  0
  150.5886  132.7910  152.8005 C   0  0  0  0  0  0  0  0  0  0  0  0
  148.3155  133.8214  152.6236 N   0  3  0  0  0  0  0  0  0  0  0  0
  147.9924  132.9845  151.4471 C   0  0  0  0  0  0  0  0  0  0  0  0
  146.6620  133.5095  150.9038 C   0  0  0  0  0  0  0  0  0  0  0  0
  146.0135  134.2617  152.0680 C   0  0  0  0  0  0  0  0  0  0  0  0
  147.0078  134.1598  153.2274 C   0  0  0  0  0  0  0  0  0  0  0  0
  153.1778  137.2022  155.4423 H   0  0  0  0  0  0  0  0  0  0  0  0
  154.2189  138.3867  156.2196 H   0  0  0  0  0  0  0  0  0  0  0  0
  153.9423  138.4648  154.4817 H   0  0  0  0  0  0  0  0  0  0  0  0
  148.2079  139.7737  155.3975 H   0  0  0  0  0  0  0  0  0  0  0  0
  148.8158  141.2281  154.6056 H   0  0  0  0  0  0  0  0  0  0  0  0
  148.6163  141.1940  156.3589 H   0  0  0  0  0  0  0  0  0  0  0  0
  149.4459  138.2189  153.8090 H   0  0  0  0  0  0  0  0  0  0  0  0
  151.0697  137.9031  153.2631 H   0  0  0  0  0  0  0  0  0  0  0  0
  149.3856  135.8298  153.3152 H   0  0  0  0  0  0  0  0  0  0  0  0
  150.6333  134.0072  155.1367 H   0  0  0  0  0  0  0  0  0  0  0  0
  148.9379  134.1715  155.5014 H   0  0  0  0  0  0  0  0  0  0  0  0
  148.8773  132.3580  154.0220 H   0  0  0  0  0  0  0  0  0  0  0  0
  151.3193  132.3333  153.4663 H   0  0  0  0  0  0  0  0  0  0  0  0
  151.0735  133.6337  152.3064 H   0  0  0  0  0  0  0  0  0  0  0  0
  150.3680  132.0405  152.0422 H   0  0  0  0  0  0  0  0  0  0  0  0
  148.7762  133.0213  150.6900 H   0  0  0  0  0  0  0  0  0  0  0  0
  147.8729  131.9460  151.7610 H   0  0  0  0  0  0  0  0  0  0  0  0
  146.8373  134.1945  150.0732 H   0  0  0  0  0  0  0  0  0  0  0  0
  146.0322  132.6996  150.5338 H   0  0  0  0  0  0  0  0  0  0  0  0
  145.8560  135.3054  151.7923 H   0  0  0  0  0  0  0  0  0  0  0  0
  145.0430  133.8435  152.3373 H   0  0  0  0  0  0  0  0  0  0  0  0
  146.6997  133.3582  153.9008 H   0  0  0  0  0  0  0  0  0  0  0  0
  147.0498  135.0860  153.8012 H   0  0  0  0  0  0  0  0  0  0  0  0
  148.6964  134.6852  152.2639 H   0  0  0  0  0  0  0  0  0  0  0  0
  1  2  1  0  0  0  0
  1 20  1  0  0  0  0
  1 21  1  0  0  0  0
  1 22  1  0  0  0  0
  2  7  1  0  0  0  0
  2  3  2  0  0  0  0
  3  4  1  0  0  0  0
  4  5  1  0  0  0  0
  5  6  1  0  0  0  0
  5  7  2  0  0  0  0
  6 23  1  0  0  0  0
  6 24  1  0  0  0  0
  6 25  1  0  0  0  0
  7  8  1  0  0  0  0
  8  9  1  0  0  0  0
  8 26  1  0  0  0  0
  8 27  1  0  0  0  0
  9 10  2  0  0  0  0
  9 11  1  0  0  0  0
 11 12  1  0  0  0  0
 11 28  1  0  0  0  0
 12 13  1  0  0  0  0
 12 29  1  0  0  0  0
 12 30  1  0  0  0  0
 13 14  1  0  0  0  0
 13 15  1  0  0  0  0
 13 31  1  0  0  0  0
 14 32  1  0  0  0  0
 14 33  1  0  0  0  0
 14 34  1  0  0  0  0
 15 19  1  0  0  0  0
 15 16  1  0  0  0  0
 15 43  1  0  0  0  0
 16 17  1  0  0  0  0
 16 35  1  0  0  0  0
 16 36  1  0  0  0  0
 17 18  1  0  0  0  0
 17 37  1  0  0  0  0
 17 38  1  0  0  0  0
 18 19  1  0  0  0  0
 18 39  1  0  0  0  0
 18 40  1  0  0  0  0
 19 41  1  0  0  0  0
 19 42  1  0  0  0  0
M  CHG  1  15   1
M  END
> <s_m_source_file>
AV-unprocessed.smi

> <i_m_source_file_index>
1139

> <i_lp_mmshare_version>
43012

> <i_f3d_flags>
0

> <s_epik_input>
W0NIM11jMW5vYyhbQ0gzXSljMVtDSDJdQyg9TylbTkhdW0NIMl1bQ0BIXShbQ0gzXSlOMltDSDJdW0NIMl1bQ0gyXVtDSDJdMg==

> <s_epik_cmdline>
J2VwaWtfcHl0aG9uJywgJy1waCcsICc3LjAnLCAnLXRuJywgJzgnLCAnLW1hJywgJzIwMCcsICctbWV0YWxfYmluZGluZycsICctaW1hZScsICc8aW5maWxlLm1hZT4nLCAnLW9tYWUnLCAnPG91dGZpbGUubWFlPic=

> <r_epik_Ionization_Penalty>
0.0050436

> <r_epik_Ionization_Penalty_Charging>
0.0050435

> <r_epik_Ionization_Penalty_Neutral>
9.69799e-08

> <r_epik_State_Penalty>
0.00366867

> <r_epik_Charging_Adjusted_Penalty>
0.00871217

> <i_epik_Tot_Q>
1

> <i_epik_Tot_abs_Q>
1

> <r_epik_Metal_State_Penalty>
-0

> <b_epik_Metal_Only>
0

> <s_lp_Force_Field>
OPLS_2005

> <r_lp_Energy>
25.3713

> <b_lp_Chiralities_Consistent>
1

> <s_lp_Variant>
AV-unprocessed.smi:1139-1

> <Gold.Version>
5.8.1

> <Gold.Id.Protein>
6NUR|6NUR_protein|mol2

> <Gold.PLP.Fitness>
41.5053

> <Gold.PLP.PLP>
-30.4624

> <Gold.PLP.part.hbond>
-3.0000

> <Gold.PLP.part.metal>
0.0000

> <Gold.PLP.part.buried>
1.0940

> <Gold.PLP.part.nonpolar>
-27.5651

> <Gold.PLP.part.repulsive>
0.0455

> <Gold.PLP.ligand.clash>
0.0000

> <Gold.PLP.ligand.torsion>
0.5143

> <Gold.PLP.Chemscore.Hbond>
4.0000

> <Gold.PLP.Chemscore.CHOScore>
0.0000

> <Gold.PLP.Chemscore.Metal>
0.0000

> <Gold.Chemscore.Hbonds>
donor molecule, donor type, donor heavy atom, donor atom, acceptor molecule, acceptor atom, score
      L1  H    11    28       P1  7948  1.00
      L1  H    15    43       P1  7948  0.70
      P1  H  7997  8010       L1     3  0.50

> <Gold.PLP.Chemscore.Internal.Correction>
0.0714

> <Gold.Rescore>
     Score         DG    S(hbond)    S(metal)    S(lipo)     H(rot)  DE(clash)    DE(int)     intcor
     16.96     -19.40       2.93        0.00      72.92       1.72       1.58       0.86       ----

> <Gold.Chemscore.Fitness>
16.9634

> <Gold.Chemscore.DG>
-19.3992

> <Gold.Chemscore.ZeroCoef>
-5.4800

> <Gold.Chemscore.Hbond>
2.9308

> <Gold.Chemscore.Metal>
0.0000

> <Gold.Chemscore.Lipo>
72.9231

> <Gold.Chemscore.Internal_Hbond>
0.0000

> <Gold.Chemscore.DEClash>
1.5752

> <Gold.Chemscore.DEInternal>
0.8605

> <Gold.Chemscore.Rot>
1.7195

> <Gold.Chemscore.Internal.Correction>
   9.000000E+99

> <Gold.Chemscore.Hbonds>
donor molecule, donor type, donor heavy atom, donor atom, acceptor molecule, acceptor atom, score
      L1  H    11    28       P1  7948  0.32
      L1  H    15    43       P1  7948  0.01
      P1  H  7997  8010       L1     3  0.02

> <Gold.Chemscore.Hbond.Weighted>
-9.7890

> <Gold.Chemscore.Metal.Weighted>
-0.0000

> <Gold.Chemscore.Lipo.Weighted>
-8.5320

> <Gold.Chemscore.Internal_Hbond.Weighted>
0.0000

> <Gold.Chemscore.DEClash.Weighted>
1.5752

> <Gold.Chemscore.DEInternal.Weighted>
0.8605

> <Gold.Chemscore.Rot.Weighted>
4.4018

> <Gold.Chemscore.Internal.Correction.Weighted>
   9.000000E+99

> <Gold.Protein.RotatedTorsions>
[ 6907 6896 6895 6894 ] final   55.27 input  -60.11 | X-H torsion
[ 7974 7965 7964 7962 ] final   46.76 input  175.53 | X-H torsion
[ 8008 7997 7996 7995 ] final   83.64 input   59.86 | X-H torsion
[ 10167 10162 10161 10158 ] final  -83.11 input  -65.29 | X-H torsion
[ 10718 10713 10712 10709 ] final -106.96 input   66.30 | X-H torsion
[ 10763 10752 10751 10750 ] final  -24.62 input  -60.55 | X-H torsion
[ 11005 11000 10999 10996 ] final  108.28 input  -57.11 | X-H torsion

> <Gold.Protein.ActiveResidues>
 VAL166  LYS551  ARG553  GLY616  TRP617  ASP618  TYR619  PRO620  LYS621  CYS622 
 ASP623  PHE694  ASN695  SER759  ASP760  ASP761  ALA762  ILE779  LEU786  VAL792 
 PHE793  MET794  SER795  GLU796  ALA797  LYS798  CYS799  TRP800  GLU811  SER814 

> <Gold.Protein.RotatedAtoms>
  152.3522  134.6990  160.0232 H   0  0  0  0  0  0  0  0  0  0  0  0  # atno 6907 bound_to 6896
  151.7340  133.3313  159.3356 H   0  0  0  0  0  0  0  0  0  0  0  0  # atno 6908 bound_to 6896
  150.7548  134.6271  159.6211 H   0  0  0  0  0  0  0  0  0  0  0  0  # atno 6909 bound_to 6896
  146.0360  139.4821  142.9808 H   0  0  0  0  0  0  0  0  0  0  0  0  # atno 7974 bound_to 7965
  155.9266  140.3417  155.6215 H   0  0  0  0  0  0  0  0  0  0  0  0  # atno 8008 bound_to 7997
  155.7208  140.0783  157.2350 H   0  0  0  0  0  0  0  0  0  0  0  0  # atno 8009 bound_to 7997
  154.4078  140.1606  156.2387 H   0  0  0  0  0  0  0  0  0  0  0  0  # atno 8010 bound_to 7997
  140.4257  143.2567  151.8828 H   0  0  0  0  0  0  0  0  0  0  0  0  # atno 10167 bound_to 10162
  156.0414  130.5639  150.7755 H   0  0  0  0  0  0  0  0  0  0  0  0  # atno 10718 bound_to 10713
  153.6867  135.6964  153.5102 H   0  0  0  0  0  0  0  0  0  0  0  0  # atno 10763 bound_to 10752
  153.2444  135.4295  155.0731 H   0  0  0  0  0  0  0  0  0  0  0  0  # atno 10764 bound_to 10752
  154.8384  135.3515  154.6410 H   0  0  0  0  0  0  0  0  0  0  0  0  # atno 10765 bound_to 10752
  139.8841  134.9426  156.5949 H   0  0  0  0  0  0  0  0  0  0  0  0  # atno 11005 bound_to 11000
  145.6962  141.0149  143.1528 LP  0  0  0  0  0  0  0  0  0  0  0  0  # atno 17320 bound_to 7965
  144.7052  139.8591  143.7432 LP  0  0  0  0  0  0  0  0  0  0  0  0  # atno 17321 bound_to 7965
  139.4783  144.5389  151.8557 LP  0  0  0  0  0  0  0  0  0  0  0  0  # atno 17342 bound_to 10162
  140.4483  144.1890  150.5895 LP  0  0  0  0  0  0  0  0  0  0  0  0  # atno 17343 bound_to 10162
  157.5237  131.0933  151.0045 LP  0  0  0  0  0  0  0  0  0  0  0  0  # atno 17370 bound_to 10713
  157.0369  130.5734  149.5351 LP  0  0  0  0  0  0  0  0  0  0  0  0  # atno 17371 bound_to 10713
  140.7928  133.8569  155.8660 LP  0  0  0  0  0  0  0  0  0  0  0  0  # atno 17394 bound_to 11000
  140.9662  134.1591  157.4614 LP  0  0  0  0  0  0  0  0  0  0  0  0  # atno 17395 bound_to 11000

$$$$
