AV-unprocessed.smi:1123|AV-procd|sdf|4830|dock5
  -GOLD-   22720 3393D 1   1.00000     0.00000
 Structure written by MMmdl.
 37 38  0  0  0  0  0  0  0  0  1 V2000
  146.5573  142.0758  155.5033 C   0  0  0  0  0  0  0  0  0  0  0  0
  147.2863  141.3802  154.3356 C   0  0  1  0  0  0  0  0  0  0  0  0
  148.8142  141.3660  154.5075 C   0  0  0  0  0  0  0  0  0  0  0  0
  149.5419  140.8870  153.6370 O   0  0  0  0  0  0  0  0  0  0  0  0
  149.2887  141.8981  155.6454 N   0  0  0  0  0  0  0  0  0  0  0  0
  150.6988  141.9956  156.0009 C   0  0  0  0  0  0  0  0  0  0  0  0
  150.9546  141.4783  157.4291 C   0  0  0  0  0  0  0  0  0  0  0  0
  151.9465  142.2356  158.1901 N   0  0  0  0  0  0  0  0  0  0  0  0
  152.1761  141.6837  159.5237 C   0  0  0  0  0  0  0  0  0  0  0  0
  153.2008  142.5117  160.3195 C   0  0  0  0  0  0  0  0  0  0  0  0
  152.7686  143.8661  160.3965 O   0  0  0  0  0  0  0  0  0  0  0  0
  152.5794  144.4545  159.1139 C   0  0  0  0  0  0  0  0  0  0  0  0
  151.5493  143.6338  158.3190 C   0  0  0  0  0  0  0  0  0  0  0  0
  146.7882  140.0292  154.1070 N   0  0  0  0  0  0  0  0  0  0  0  0
  147.0747  139.1628  153.1329 C   0  0  0  0  0  0  0  0  0  0  0  0
  146.4657  137.9920  153.2565 N   0  0  0  0  0  0  0  0  0  0  0  0
  145.7770  138.2148  154.4149 C   0  0  0  0  0  0  0  0  0  0  0  0
  145.9422  139.4146  154.9711 N   0  0  0  0  0  0  0  0  0  0  0  0
  146.9004  143.1039  155.6238 H   0  0  0  0  0  0  0  0  0  0  0  0
  146.7171  141.5611  156.4517 H   0  0  0  0  0  0  0  0  0  0  0  0
  145.4824  142.1099  155.3240 H   0  0  0  0  0  0  0  0  0  0  0  0
  147.0710  141.9570  153.4345 H   0  0  0  0  0  0  0  0  0  0  0  0
  148.6247  142.2685  156.3096 H   0  0  0  0  0  0  0  0  0  0  0  0
  151.2562  141.4091  155.2715 H   0  0  0  0  0  0  0  0  0  0  0  0
  151.0405  143.0271  155.9002 H   0  0  0  0  0  0  0  0  0  0  0  0
  150.0077  141.5082  157.9697 H   0  0  0  0  0  0  0  0  0  0  0  0
  151.2429  140.4267  157.3913 H   0  0  0  0  0  0  0  0  0  0  0  0
  151.2360  141.6463  160.0761 H   0  0  0  0  0  0  0  0  0  0  0  0
  152.5395  140.6594  159.4533 H   0  0  0  0  0  0  0  0  0  0  0  0
  153.3090  142.1137  161.3284 H   0  0  0  0  0  0  0  0  0  0  0  0
  154.1840  142.4632  159.8490 H   0  0  0  0  0  0  0  0  0  0  0  0
  152.2326  145.4801  159.2395 H   0  0  0  0  0  0  0  0  0  0  0  0
  153.5312  144.5001  158.5823 H   0  0  0  0  0  0  0  0  0  0  0  0
  151.4248  144.0759  157.3299 H   0  0  0  0  0  0  0  0  0  0  0  0
  150.5789  143.6989  158.8133 H   0  0  0  0  0  0  0  0  0  0  0  0
  147.7456  139.3919  152.3181 H   0  0  0  0  0  0  0  0  0  0  0  0
  145.1393  137.4682  154.8650 H   0  0  0  0  0  0  0  0  0  0  0  0
  1  2  1  0  0  0  0
  1 19  1  0  0  0  0
  1 20  1  0  0  0  0
  1 21  1  0  0  0  0
  2  3  1  0  0  0  0
  2 14  1  0  0  0  0
  2 22  1  0  0  0  0
  3  4  2  0  0  0  0
  3  5  1  0  0  0  0
  5  6  1  0  0  0  0
  5 23  1  0  0  0  0
  6  7  1  0  0  0  0
  6 24  1  0  0  0  0
  6 25  1  0  0  0  0
  7  8  1  0  0  0  0
  7 26  1  0  0  0  0
  7 27  1  0  0  0  0
  8 13  1  0  0  0  0
  8  9  1  0  0  0  0
  9 10  1  0  0  0  0
  9 28  1  0  0  0  0
  9 29  1  0  0  0  0
 10 11  1  0  0  0  0
 10 30  1  0  0  0  0
 10 31  1  0  0  0  0
 11 12  1  0  0  0  0
 12 13  1  0  0  0  0
 12 32  1  0  0  0  0
 12 33  1  0  0  0  0
 13 34  1  0  0  0  0
 13 35  1  0  0  0  0
 14 18  1  0  0  0  0
 14 15  1  0  0  0  0
 15 16  2  0  0  0  0
 15 36  1  0  0  0  0
 16 17  1  0  0  0  0
 17 18  2  0  0  0  0
 17 37  1  0  0  0  0
M  END
> <s_m_source_file>
AV-unprocessed.smi

> <i_m_source_file_index>
1123

> <i_lp_mmshare_version>
43012

> <i_f3d_flags>
0

> <s_epik_input>
bjFbY0hdbltjSF1uMVtDQEhdKFtDSDNdKUMoPU8pW05IXVtDSDJdW0NIMl1OMltDSDJdW0NIMl1PW0NIMl1bQ0gyXTI=

> <s_epik_cmdline>
J2VwaWtfcHl0aG9uJywgJy1waCcsICc3LjAnLCAnLXRuJywgJzgnLCAnLW1hJywgJzIwMCcsICctbWV0YWxfYmluZGluZycsICctaW1hZScsICc8aW5maWxlLm1hZT4nLCAnLW9tYWUnLCAnPG91dGZpbGUubWFlPic=

> <r_lp_tautomer_probability>
1

> <r_epik_Ionization_Penalty>
0.211373

> <r_epik_Ionization_Penalty_Charging>
0

> <r_epik_Ionization_Penalty_Neutral>
0.211373

> <r_epik_State_Penalty>
0.201459

> <r_epik_Charging_Adjusted_Penalty>
0.201459

> <i_epik_Tot_Q>
0

> <i_epik_Tot_abs_Q>
0

> <r_epik_Metal_State_Penalty>
0.201458

> <b_epik_Metal_Only>
0

> <s_lp_Force_Field>
OPLS_2005

> <r_lp_Energy>
26.9465

> <b_lp_Chiralities_Consistent>
1

> <s_lp_Variant>
AV-unprocessed.smi:1123-2

> <Gold.Version>
5.8.1

> <Gold.Id.Protein>
6NUR|6NUR_protein|mol2

> <Gold.PLP.Fitness>
38.0946

> <Gold.PLP.PLP>
-32.1161

> <Gold.PLP.part.hbond>
-3.0000

> <Gold.PLP.part.metal>
0.0000

> <Gold.PLP.part.buried>
-4.7960

> <Gold.PLP.part.nonpolar>
-28.1823

> <Gold.PLP.part.repulsive>
4.2728

> <Gold.PLP.ligand.clash>
0.3335

> <Gold.PLP.ligand.torsion>
0.4146

> <Gold.PLP.Chemscore.Hbond>
1.3360

> <Gold.PLP.Chemscore.CHOScore>
1.0000

> <Gold.PLP.Chemscore.Metal>
0.0000

> <Gold.Chemscore.Hbonds>
donor molecule, donor type, donor heavy atom, donor atom, acceptor molecule, acceptor atom, score
      P1  H  7989  7998       L1     4  0.33
      P1  H  8011  8017       L1     4  1.00
      L1  C    15    36       P1  7957  1.00

> <Gold.PLP.Chemscore.Internal.Correction>
0.1332

> <Gold.Rescore>
     Score         DG    S(hbond)    S(metal)    S(lipo)     H(rot)  DE(clash)    DE(int)     intcor
      8.95      -9.99       0.98        0.00      67.67       2.61       0.51       0.54       ----

> <Gold.Chemscore.Fitness>
8.9459

> <Gold.Chemscore.DG>
-9.9916

> <Gold.Chemscore.ZeroCoef>
-5.4800

> <Gold.Chemscore.Hbond>
0.9804

> <Gold.Chemscore.Metal>
0.0000

> <Gold.Chemscore.Lipo>
67.6749

> <Gold.Chemscore.Internal_Hbond>
0.0000

> <Gold.Chemscore.DEClash>
0.5072

> <Gold.Chemscore.DEInternal>
0.5385

> <Gold.Chemscore.Rot>
2.6097

> <Gold.Chemscore.Internal.Correction>
   9.000000E+99

> <Gold.Chemscore.Hbonds>
donor molecule, donor type, donor heavy atom, donor atom, acceptor molecule, acceptor atom, score
      P1  H  7989  7998       L1     4  0.32
      P1  H  8011  8017       L1     4  0.41

> <Gold.Chemscore.Hbond.Weighted>
-3.2745

> <Gold.Chemscore.Metal.Weighted>
-0.0000

> <Gold.Chemscore.Lipo.Weighted>
-7.9180

> <Gold.Chemscore.Internal_Hbond.Weighted>
0.0000

> <Gold.Chemscore.DEClash.Weighted>
0.5072

> <Gold.Chemscore.DEInternal.Weighted>
0.5385

> <Gold.Chemscore.Rot.Weighted>
6.6809

> <Gold.Chemscore.Internal.Correction.Weighted>
   9.000000E+99

> <Gold.Protein.RotatedTorsions>
[ 6907 6896 6895 6894 ] final  155.08 input  -60.11 | X-H torsion
[ 7974 7965 7964 7962 ] final  120.31 input  175.53 | X-H torsion
[ 8008 7997 7996 7995 ] final  150.18 input   59.86 | X-H torsion
[ 10167 10162 10161 10158 ] final   88.12 input  -65.29 | X-H torsion
[ 10718 10713 10712 10709 ] final   20.30 input   66.30 | X-H torsion
[ 10763 10752 10751 10750 ] final  102.32 input  -60.55 | X-H torsion
[ 11005 11000 10999 10996 ] final  -18.12 input  -57.11 | X-H torsion

> <Gold.Protein.ActiveResidues>
 VAL166  LYS551  ARG553  GLY616  TRP617  ASP618  TYR619  PRO620  LYS621  CYS622 
 ASP623  PHE694  ASN695  SER759  ASP760  ASP761  ALA762  ILE779  LEU786  VAL792 
 PHE793  MET794  SER795  GLU796  ALA797  LYS798  CYS799  TRP800  GLU811  SER814 

> <Gold.Protein.RotatedAtoms>
  152.0493  133.4012  159.4370 H   0  0  0  0  0  0  0  0  0  0  0  0  # atno 6907 bound_to 6896
  150.6871  134.3326  159.4843 H   0  0  0  0  0  0  0  0  0  0  0  0  # atno 6908 bound_to 6896
  152.1134  134.9258  160.0616 H   0  0  0  0  0  0  0  0  0  0  0  0  # atno 6909 bound_to 6896
  145.1327  139.3317  143.4657 H   0  0  0  0  0  0  0  0  0  0  0  0  # atno 7974 bound_to 7965
  156.2726  140.2082  156.5976 H   0  0  0  0  0  0  0  0  0  0  0  0  # atno 8008 bound_to 7997
  154.6932  140.0528  157.0408 H   0  0  0  0  0  0  0  0  0  0  0  0  # atno 8009 bound_to 7997
  155.0837  140.3189  155.4597 H   0  0  0  0  0  0  0  0  0  0  0  0  # atno 8010 bound_to 7997
  139.8704  144.6496  150.8955 H   0  0  0  0  0  0  0  0  0  0  0  0  # atno 10167 bound_to 10162
  157.1225  130.6556  149.5928 H   0  0  0  0  0  0  0  0  0  0  0  0  # atno 10718 bound_to 10713
  153.3380  135.4014  155.1549 H   0  0  0  0  0  0  0  0  0  0  0  0  # atno 10763 bound_to 10752
  154.8637  135.3626  154.5383 H   0  0  0  0  0  0  0  0  0  0  0  0  # atno 10764 bound_to 10752
  153.5826  135.7076  153.5516 H   0  0  0  0  0  0  0  0  0  0  0  0  # atno 10765 bound_to 10752
  140.8237  133.8049  155.9685 H   0  0  0  0  0  0  0  0  0  0  0  0  # atno 11005 bound_to 11000
  146.3512  140.1332  142.8596 LP  0  0  0  0  0  0  0  0  0  0  0  0  # atno 17320 bound_to 7965
  145.0618  140.9093  143.4934 LP  0  0  0  0  0  0  0  0  0  0  0  0  # atno 17321 bound_to 7965
  140.7761  143.3668  151.1723 LP  0  0  0  0  0  0  0  0  0  0  0  0  # atno 17342 bound_to 10162
  139.7289  143.9104  152.3012 LP  0  0  0  0  0  0  0  0  0  0  0  0  # atno 17343 bound_to 10162
  155.9825  130.4839  150.6886 LP  0  0  0  0  0  0  0  0  0  0  0  0  # atno 17370 bound_to 10713
  157.4463  131.0867  151.0892 LP  0  0  0  0  0  0  0  0  0  0  0  0  # atno 17371 bound_to 10713
  140.9072  134.2305  157.5007 LP  0  0  0  0  0  0  0  0  0  0  0  0  # atno 17394 bound_to 11000
  139.8707  134.9734  156.4807 LP  0  0  0  0  0  0  0  0  0  0  0  0  # atno 17395 bound_to 11000

$$$$
