AV-unprocessed.smi:2397|AV-procd|sdf|9495|dock1
  -GOLD-   2272013123D 1   1.00000     0.00000
 Structure written by MMmdl.
 37 38  0  0  0  0  0  0  0  0  2 V2000
  146.3732  138.1225  151.5059 C   0  0  0  0  0  0  0  0  0  0  0  0
  146.5705  138.1220  153.0297 C   0  0  0  0  0  0  0  0  0  0  0  0
  145.2783  137.8188  153.8032 C   0  0  0  0  0  0  0  0  0  0  0  0
  147.2364  139.4016  153.5138 C   0  0  0  0  0  0  0  0  0  0  0  0
  146.5886  140.5689  153.3741 N   0  3  0  0  0  0  0  0  0  0  0  0
  147.1675  141.7138  153.8101 C   0  0  0  0  0  0  0  0  0  0  0  0
  148.4394  141.6848  154.4115 C   0  0  0  0  0  0  0  0  0  0  0  0
  149.0640  140.4287  154.5346 C   0  0  0  0  0  0  0  0  0  0  0  0
  150.3429  140.3277  155.1243 N   0  0  0  0  0  0  0  0  0  0  0  0
  150.9717  139.0555  154.7700 C   0  0  0  0  0  0  0  0  0  0  0  0
  152.4199  138.9968  155.2739 C   0  0  0  0  0  0  0  0  0  0  0  0
  152.4286  139.2197  156.6758 O   0  0  0  0  0  0  0  0  0  0  0  0
  151.9513  140.5195  156.9975 C   0  0  0  0  0  0  0  0  0  0  0  0
  150.4806  140.6929  156.5479 C   0  0  1  0  0  0  0  0  0  0  0  0
  150.0448  142.1233  156.9286 C   0  0  0  0  0  0  0  0  0  0  0  0
  150.7004  143.1546  156.3856 N   0  0  0  0  0  0  0  0  0  0  0  0
  149.1034  142.2914  157.7000 O   0  0  0  0  0  0  0  0  0  0  0  0
  148.4507  139.3152  154.0731 N   0  0  0  0  0  0  0  0  0  0  0  0
  147.3218  138.2668  150.9881 H   0  0  0  0  0  0  0  0  0  0  0  0
  145.6974  138.9187  151.1911 H   0  0  0  0  0  0  0  0  0  0  0  0
  145.9515  137.1770  151.1642 H   0  0  0  0  0  0  0  0  0  0  0  0
  147.2578  137.3034  153.2495 H   0  0  0  0  0  0  0  0  0  0  0  0
  145.4682  137.7558  154.8751 H   0  0  0  0  0  0  0  0  0  0  0  0
  144.8464  136.8682  153.4887 H   0  0  0  0  0  0  0  0  0  0  0  0
  144.5263  138.5921  153.6424 H   0  0  0  0  0  0  0  0  0  0  0  0
  146.5916  142.6163  153.6665 H   0  0  0  0  0  0  0  0  0  0  0  0
  148.9098  142.5898  154.7683 H   0  0  0  0  0  0  0  0  0  0  0  0
  150.3971  138.2362  155.2062 H   0  0  0  0  0  0  0  0  0  0  0  0
  150.9682  138.9057  153.6898 H   0  0  0  0  0  0  0  0  0  0  0  0
  152.8498  138.0164  155.0685 H   0  0  0  0  0  0  0  0  0  0  0  0
  153.0454  139.7327  154.7657 H   0  0  0  0  0  0  0  0  0  0  0  0
  152.0383  140.6541  158.0765 H   0  0  0  0  0  0  0  0  0  0  0  0
  152.5976  141.2688  156.5358 H   0  0  0  0  0  0  0  0  0  0  0  0
  149.8758  139.9966  157.1323 H   0  0  0  0  0  0  0  0  0  0  0  0
  150.4210  144.1003  156.6022 H   0  0  0  0  0  0  0  0  0  0  0  0
  151.4605  142.9820  155.7432 H   0  0  0  0  0  0  0  0  0  0  0  0
  145.6640  140.6027  152.9438 H   0  0  0  0  0  0  0  0  0  0  0  0
  1  2  1  0  0  0  0
  1 19  1  0  0  0  0
  1 20  1  0  0  0  0
  1 21  1  0  0  0  0
  2  3  1  0  0  0  0
  2  4  1  0  0  0  0
  2 22  1  0  0  0  0
  3 23  1  0  0  0  0
  3 24  1  0  0  0  0
  3 25  1  0  0  0  0
  4 18  1  0  0  0  0
  4  5  2  0  0  0  0
  5  6  1  0  0  0  0
  5 37  1  0  0  0  0
  6  7  2  0  0  0  0
  6 26  1  0  0  0  0
  7  8  1  0  0  0  0
  7 27  1  0  0  0  0
  8  9  1  0  0  0  0
  8 18  2  0  0  0  0
  9 14  1  0  0  0  0
  9 10  1  0  0  0  0
 10 11  1  0  0  0  0
 10 28  1  0  0  0  0
 10 29  1  0  0  0  0
 11 12  1  0  0  0  0
 11 30  1  0  0  0  0
 11 31  1  0  0  0  0
 12 13  1  0  0  0  0
 13 14  1  0  0  0  0
 13 32  1  0  0  0  0
 13 33  1  0  0  0  0
 14 15  1  0  0  0  0
 14 34  1  0  0  0  0
 15 16  1  0  0  0  0
 15 17  2  0  0  0  0
 16 35  1  0  0  0  0
 16 36  1  0  0  0  0
M  CHG  1   5   1
M  END
> <s_m_source_file>
AV-unprocessed.smi

> <i_m_source_file_index>
2397

> <i_lp_mmshare_version>
43012

> <i_f3d_flags>
0

> <s_epik_input>
W0NIM11bQ0hdKFtDSDNdKWMxbltjSF1bY0hdYyhuMSlOMltDSDJdW0NIMl1PW0NIMl1bQ0BIXTJDKD1PKVtOSDJd

> <s_epik_cmdline>
J2VwaWtfcHl0aG9uJywgJy1waCcsICc3LjAnLCAnLXRuJywgJzgnLCAnLW1hJywgJzIwMCcsICctbWV0YWxfYmluZGluZycsICctaW1hZScsICc8aW5maWxlLm1hZT4nLCAnLW9tYWUnLCAnPG91dGZpbGUubWFlPic=

> <r_lp_tautomer_probability>
0.999336

> <r_epik_Ionization_Penalty>
1.74009

> <r_epik_Ionization_Penalty_Charging>
1.74009

> <r_epik_Ionization_Penalty_Neutral>
2.46902e-07

> <r_epik_State_Penalty>
1.8491

> <r_epik_Charging_Adjusted_Penalty>
3.5892

> <i_epik_Tot_Q>
1

> <i_epik_Tot_abs_Q>
1

> <r_epik_Metal_State_Penalty>
1.87997

> <b_epik_Metal_Only>
0

> <s_lp_Force_Field>
OPLS_2005

> <r_lp_Energy>
12.3684

> <b_lp_Chiralities_Consistent>
1

> <s_lp_Variant>
AV-unprocessed.smi:2397-3

> <Gold.Version>
5.8.1

> <Gold.Id.Protein>
6NUR|6NUR_protein|mol2

> <Gold.PLP.Fitness>
38.8941

> <Gold.PLP.PLP>
-31.5259

> <Gold.PLP.part.hbond>
-3.7431

> <Gold.PLP.part.metal>
0.0000

> <Gold.PLP.part.buried>
0.5790

> <Gold.PLP.part.nonpolar>
-29.1084

> <Gold.PLP.part.repulsive>
1.2328

> <Gold.PLP.ligand.clash>
0.0000

> <Gold.PLP.ligand.torsion>
0.3008

> <Gold.PLP.Chemscore.Hbond>
2.5593

> <Gold.PLP.Chemscore.CHOScore>
0.0000

> <Gold.PLP.Chemscore.Metal>
0.0000

> <Gold.Chemscore.Hbonds>
donor molecule, donor type, donor heavy atom, donor atom, acceptor molecule, acceptor atom, score
      L1  H     5    37       P1 10175  1.98
      L1  H    16    35       P1  8028  0.32
      P1  H  7997  8010       L1    12  0.16

> <Gold.PLP.Chemscore.Internal.Correction>
0.2920

> <Gold.Rescore>
     Score         DG    S(hbond)    S(metal)    S(lipo)     H(rot)  DE(clash)    DE(int)     intcor
     11.85     -13.33       1.82        0.00      54.07       1.77       0.23       1.25       ----

> <Gold.Chemscore.Fitness>
11.8533

> <Gold.Chemscore.DG>
-13.3350

> <Gold.Chemscore.ZeroCoef>
-5.4800

> <Gold.Chemscore.Hbond>
1.8156

> <Gold.Chemscore.Metal>
0.0000

> <Gold.Chemscore.Lipo>
54.0728

> <Gold.Chemscore.Internal_Hbond>
0.0000

> <Gold.Chemscore.DEClash>
0.2343

> <Gold.Chemscore.DEInternal>
1.2473

> <Gold.Chemscore.Rot>
1.7717

> <Gold.Chemscore.Internal.Correction>
   9.000000E+99

> <Gold.Chemscore.Hbonds>
donor molecule, donor type, donor heavy atom, donor atom, acceptor molecule, acceptor atom, score
      L1  H     5    37       P1 10175  0.65
      L1  H    16    35       P1  8028  0.32

> <Gold.Chemscore.Hbond.Weighted>
-6.0641

> <Gold.Chemscore.Metal.Weighted>
-0.0000

> <Gold.Chemscore.Lipo.Weighted>
-6.3265

> <Gold.Chemscore.Internal_Hbond.Weighted>
0.0000

> <Gold.Chemscore.DEClash.Weighted>
0.2343

> <Gold.Chemscore.DEInternal.Weighted>
1.2473

> <Gold.Chemscore.Rot.Weighted>
4.5357

> <Gold.Chemscore.Internal.Correction.Weighted>
   9.000000E+99

> <Gold.Protein.RotatedTorsions>
[ 6907 6896 6895 6894 ] final    8.19 input  -60.11 | X-H torsion
[ 7974 7965 7964 7962 ] final  -51.78 input  175.53 | X-H torsion
[ 8008 7997 7996 7995 ] final   61.02 input   59.86 | X-H torsion
[ 10167 10162 10161 10158 ] final -156.81 input  -65.29 | X-H torsion
[ 10718 10713 10712 10709 ] final  -67.26 input   66.30 | X-H torsion
[ 10763 10752 10751 10750 ] final   17.39 input  -60.55 | X-H torsion
[ 11005 11000 10999 10996 ] final   38.24 input  -57.11 | X-H torsion

> <Gold.Protein.ActiveResidues>
 VAL166  LYS551  ARG553  GLY616  TRP617  ASP618  TYR619  PRO620  LYS621  CYS622 
 ASP623  PHE694  ASN695  SER759  ASP760  ASP761  ALA762  ILE779  LEU786  VAL792 
 PHE793  MET794  SER795  GLU796  ALA797  LYS798  CYS799  TRP800  GLU811  SER814 

> <Gold.Protein.RotatedAtoms>
  151.7020  135.0928  160.0252 H   0  0  0  0  0  0  0  0  0  0  0  0  # atno 6907 bound_to 6896
  152.3715  133.6421  159.6099 H   0  0  0  0  0  0  0  0  0  0  0  0  # atno 6908 bound_to 6896
  150.7677  133.9179  159.3430 H   0  0  0  0  0  0  0  0  0  0  0  0  # atno 6909 bound_to 6896
  145.9152  140.7881  142.9675 H   0  0  0  0  0  0  0  0  0  0  0  0  # atno 7974 bound_to 7965
  155.5916  140.3493  155.4568 H   0  0  0  0  0  0  0  0  0  0  0  0  # atno 8008 bound_to 7997
  156.0297  140.1272  157.0296 H   0  0  0  0  0  0  0  0  0  0  0  0  # atno 8009 bound_to 7997
  154.4347  140.1046  156.6067 H   0  0  0  0  0  0  0  0  0  0  0  0  # atno 8010 bound_to 7997
  139.6820  143.9565  152.2342 H   0  0  0  0  0  0  0  0  0  0  0  0  # atno 10167 bound_to 10162
  156.0567  130.4275  150.1828 H   0  0  0  0  0  0  0  0  0  0  0  0  # atno 10718 bound_to 10713
  153.1343  135.6747  153.9128 H   0  0  0  0  0  0  0  0  0  0  0  0  # atno 10763 bound_to 10752
  153.8604  135.3082  155.3438 H   0  0  0  0  0  0  0  0  0  0  0  0  # atno 10764 bound_to 10752
  154.7734  135.4927  153.9777 H   0  0  0  0  0  0  0  0  0  0  0  0  # atno 10765 bound_to 10752
  140.2146  134.3714  155.8033 H   0  0  0  0  0  0  0  0  0  0  0  0  # atno 11005 bound_to 11000
  144.6747  140.1888  143.7398 LP  0  0  0  0  0  0  0  0  0  0  0  0  # atno 17320 bound_to 7965
  145.8621  139.2228  143.1711 LP  0  0  0  0  0  0  0  0  0  0  0  0  # atno 17321 bound_to 7965
  139.9357  144.6713  150.8317 LP  0  0  0  0  0  0  0  0  0  0  0  0  # atno 17342 bound_to 10162
  140.7655  143.3278  151.2477 LP  0  0  0  0  0  0  0  0  0  0  0  0  # atno 17343 bound_to 10162
  156.9903  130.9891  151.3416 LP  0  0  0  0  0  0  0  0  0  0  0  0  # atno 17370 bound_to 10713
  157.5543  130.8203  149.8185 LP  0  0  0  0  0  0  0  0  0  0  0  0  # atno 17371 bound_to 10713
  141.2225  133.7161  156.8475 LP  0  0  0  0  0  0  0  0  0  0  0  0  # atno 17394 bound_to 11000
  140.1914  134.8963  157.3065 LP  0  0  0  0  0  0  0  0  0  0  0  0  # atno 17395 bound_to 11000

$$$$
