AV-unprocessed.smi:490|AV-procd|sdf|2703|dock10
  -GOLD-   2262023143D 1   1.00000     0.00000
 Structure written by MMmdl.
 49 51  0  0  0  0  0  0  0  0  1 V2000
  147.4989  131.4946  160.4060 C   0  0  0  0  0  0  0  0  0  0  0  0
  147.3708  132.9131  160.9341 C   0  0  0  0  0  0  0  0  0  0  0  0
  146.9410  133.1106  162.2620 C   0  0  0  0  0  0  0  0  0  0  0  0
  146.8130  134.4097  162.7834 C   0  0  0  0  0  0  0  0  0  0  0  0
  147.1028  135.5276  161.9778 C   0  0  0  0  0  0  0  0  0  0  0  0
  146.9619  136.9244  162.5535 C   0  0  0  0  0  0  0  0  0  0  0  0
  147.5180  135.3411  160.6393 C   0  0  0  0  0  0  0  0  0  0  0  0
  147.7852  136.4392  159.8628 O   0  0  0  0  0  0  0  0  0  0  0  0
  149.1507  136.5514  159.4878 C   0  0  0  0  0  0  0  0  0  0  0  0
  149.3189  137.7787  158.5820 C   0  0  2  0  0  0  0  0  0  0  0  0
  148.1320  137.9517  157.8338 O   0  0  0  0  0  0  0  0  0  0  0  0
  150.5287  137.6471  157.6343 C   0  0  0  0  0  0  0  0  0  0  0  0
  150.7054  138.8156  156.7830 N   0  0  0  0  0  0  0  0  0  0  0  0
  150.9179  138.8457  155.4432 C   0  0  0  0  0  0  0  0  0  0  0  0
  150.9869  137.5815  154.6335 C   0  0  0  0  0  0  0  0  0  0  0  0
  152.2195  137.3917  153.9684 O   0  0  0  0  0  0  0  0  0  0  0  0
  151.0436  140.0621  154.9070 N   0  0  0  0  0  0  0  0  0  0  0  0
  150.9018  140.8951  155.9993 C   0  0  0  0  0  0  0  0  0  0  0  0
  150.9389  142.3048  156.0897 C   0  0  0  0  0  0  0  0  0  0  0  0
  150.7630  142.9454  157.3338 C   0  0  0  0  0  0  0  0  0  0  0  0
  150.5474  142.1869  158.5026 C   0  0  0  0  0  0  0  0  0  0  0  0
  150.5081  140.7809  158.4347 C   0  0  0  0  0  0  0  0  0  0  0  0
  150.6851  140.1463  157.1903 C   0  0  0  0  0  0  0  0  0  0  0  0
  147.6747  134.0317  160.1182 C   0  0  0  0  0  0  0  0  0  0  0  0
  148.1659  133.8287  158.6911 C   0  0  0  0  0  0  0  0  0  0  0  0
  147.0810  130.7707  161.1063 H   0  0  0  0  0  0  0  0  0  0  0  0
  148.5471  131.2412  160.2474 H   0  0  0  0  0  0  0  0  0  0  0  0
  146.9672  131.3860  159.4604 H   0  0  0  0  0  0  0  0  0  0  0  0
  146.7104  132.2636  162.8913 H   0  0  0  0  0  0  0  0  0  0  0  0
  146.4886  134.5432  163.8050 H   0  0  0  0  0  0  0  0  0  0  0  0
  147.8354  137.5302  162.3109 H   0  0  0  0  0  0  0  0  0  0  0  0
  146.8635  136.8973  163.6389 H   0  0  0  0  0  0  0  0  0  0  0  0
  146.0785  137.4145  162.1446 H   0  0  0  0  0  0  0  0  0  0  0  0
  149.7941  136.6337  160.3655 H   0  0  0  0  0  0  0  0  0  0  0  0
  149.4504  135.6489  158.9525 H   0  0  0  0  0  0  0  0  0  0  0  0
  149.4345  138.6628  159.2093 H   0  0  0  0  0  0  0  0  0  0  0  0
  148.3604  138.0281  156.9201 H   0  0  0  0  0  0  0  0  0  0  0  0
  151.4442  137.4912  158.2054 H   0  0  0  0  0  0  0  0  0  0  0  0
  150.4192  136.7667  157.0001 H   0  0  0  0  0  0  0  0  0  0  0  0
  150.8177  136.7220  155.2811 H   0  0  0  0  0  0  0  0  0  0  0  0
  150.1875  137.5934  153.8922 H   0  0  0  0  0  0  0  0  0  0  0  0
  152.0438  137.1836  153.0638 H   0  0  0  0  0  0  0  0  0  0  0  0
  151.1033  142.8942  155.1997 H   0  0  0  0  0  0  0  0  0  0  0  0
  150.7939  144.0236  157.3912 H   0  0  0  0  0  0  0  0  0  0  0  0
  150.4135  142.6853  159.4516 H   0  0  0  0  0  0  0  0  0  0  0  0
  150.3467  140.1977  159.3288 H   0  0  0  0  0  0  0  0  0  0  0  0
  148.6425  134.7224  158.2898 H   0  0  0  0  0  0  0  0  0  0  0  0
  147.3307  133.5685  158.0408 H   0  0  0  0  0  0  0  0  0  0  0  0
  148.9038  133.0285  158.6410 H   0  0  0  0  0  0  0  0  0  0  0  0
  1  2  1  0  0  0  0
  1 26  1  0  0  0  0
  1 27  1  0  0  0  0
  1 28  1  0  0  0  0
  2 24  1  0  0  0  0
  2  3  2  0  0  0  0
  3  4  1  0  0  0  0
  3 29  1  0  0  0  0
  4  5  2  0  0  0  0
  4 30  1  0  0  0  0
  5  6  1  0  0  0  0
  5  7  1  0  0  0  0
  6 31  1  0  0  0  0
  6 32  1  0  0  0  0
  6 33  1  0  0  0  0
  7  8  1  0  0  0  0
  7 24  2  0  0  0  0
  8  9  1  0  0  0  0
  9 10  1  0  0  0  0
  9 34  1  0  0  0  0
  9 35  1  0  0  0  0
 10 11  1  0  0  0  0
 10 12  1  0  0  0  0
 10 36  1  0  0  0  0
 11 37  1  0  0  0  0
 12 13  1  0  0  0  0
 12 38  1  0  0  0  0
 12 39  1  0  0  0  0
 13 23  1  0  0  0  0
 13 14  1  0  0  0  0
 14 15  1  0  0  0  0
 14 17  2  0  0  0  0
 15 16  1  0  0  0  0
 15 40  1  0  0  0  0
 15 41  1  0  0  0  0
 16 42  1  0  0  0  0
 17 18  1  0  0  0  0
 18 23  2  0  0  0  0
 18 19  1  0  0  0  0
 19 20  2  0  0  0  0
 19 43  1  0  0  0  0
 20 21  1  0  0  0  0
 20 44  1  0  0  0  0
 21 22  2  0  0  0  0
 21 45  1  0  0  0  0
 22 23  1  0  0  0  0
 22 46  1  0  0  0  0
 24 25  1  0  0  0  0
 25 47  1  0  0  0  0
 25 48  1  0  0  0  0
 25 49  1  0  0  0  0
M  END
> <s_m_source_file>
AV-unprocessed.smi

> <i_m_source_file_index>
490

> <i_lp_mmshare_version>
43012

> <i_f3d_flags>
0

> <s_epik_input>
W0NIM11jMVtjSF1bY0hdYyhbQ0gzXSljKGMxW0NIM10pT1tDSDJdW0NASF0oW09IXSlbQ0gyXW4oYyhuMilbQ0gyXVtPSF0pYyhjMjMpW2NIXVtjSF1bY0hdW2NIXTM=

> <s_epik_cmdline>
J2VwaWtfcHl0aG9uJywgJy1waCcsICc3LjAnLCAnLXRuJywgJzgnLCAnLW1hJywgJzIwMCcsICctbWV0YWxfYmluZGluZycsICctaW1hZScsICc8aW5maWxlLm1hZT4nLCAnLW9tYWUnLCAnPG91dGZpbGUubWFlPic=

> <r_lp_tautomer_probability>
1

> <r_epik_Ionization_Penalty>
0.0555874

> <r_epik_Ionization_Penalty_Charging>
0

> <r_epik_Ionization_Penalty_Neutral>
0.0555874

> <r_epik_State_Penalty>
0.0478234

> <r_epik_Charging_Adjusted_Penalty>
0.0478234

> <i_epik_Tot_Q>
0

> <i_epik_Tot_abs_Q>
0

> <r_epik_Metal_State_Penalty>
4.98044e-05

> <b_epik_Metal_Only>
0

> <s_lp_Force_Field>
OPLS_2005

> <r_lp_Energy>
19.7492

> <b_lp_Chiralities_Consistent>
1

> <s_lp_Variant>
AV-unprocessed.smi:490-1

> <Gold.Version>
5.8.1

> <Gold.Id.Protein>
6NUR|6NUR_protein|mol2

> <Gold.PLP.Fitness>
51.6824

> <Gold.PLP.PLP>
-43.7246

> <Gold.PLP.part.hbond>
-3.0000

> <Gold.PLP.part.metal>
0.0000

> <Gold.PLP.part.buried>
-5.6095

> <Gold.PLP.part.nonpolar>
-35.7963

> <Gold.PLP.part.repulsive>
0.0557

> <Gold.PLP.ligand.clash>
0.0000

> <Gold.PLP.ligand.torsion>
0.4877

> <Gold.PLP.Chemscore.Hbond>
2.9440

> <Gold.PLP.Chemscore.CHOScore>
0.0000

> <Gold.PLP.Chemscore.Metal>
0.0000

> <Gold.Chemscore.Hbonds>
donor molecule, donor type, donor heavy atom, donor atom, acceptor molecule, acceptor atom, score
      L1  H    16    42       P1  7949  0.70
      P1  H  7989  7998       L1    17  1.00
      P1  H 10752 10764       L1    16  0.48

> <Gold.PLP.Chemscore.Internal.Correction>
0.1012

> <Gold.Rescore>
     Score         DG    S(hbond)    S(metal)    S(lipo)     H(rot)  DE(clash)    DE(int)     intcor
     17.43     -19.09       2.14        0.00     119.38       2.93       0.17       1.50       ----

> <Gold.Chemscore.Fitness>
17.4266

> <Gold.Chemscore.DG>
-19.0908

> <Gold.Chemscore.ZeroCoef>
-5.4800

> <Gold.Chemscore.Hbond>
2.1373

> <Gold.Chemscore.Metal>
0.0000

> <Gold.Chemscore.Lipo>
119.3811

> <Gold.Chemscore.Internal_Hbond>
0.0000

> <Gold.Chemscore.DEClash>
0.1686

> <Gold.Chemscore.DEInternal>
1.4955

> <Gold.Chemscore.Rot>
2.9279

> <Gold.Chemscore.Internal.Correction>
   9.000000E+99

> <Gold.Chemscore.Hbonds>
donor molecule, donor type, donor heavy atom, donor atom, acceptor molecule, acceptor atom, score
      L1  H    16    42       P1  7949  0.67
      P1  H  7989  7998       L1    17  0.85
      P1  H 10752 10764       L1    16  0.03

> <Gold.Chemscore.Hbond.Weighted>
-7.1386

> <Gold.Chemscore.Metal.Weighted>
-0.0000

> <Gold.Chemscore.Lipo.Weighted>
-13.9676

> <Gold.Chemscore.Internal_Hbond.Weighted>
0.0000

> <Gold.Chemscore.DEClash.Weighted>
0.1686

> <Gold.Chemscore.DEInternal.Weighted>
1.4955

> <Gold.Chemscore.Rot.Weighted>
7.4954

> <Gold.Chemscore.Internal.Correction.Weighted>
   9.000000E+99

> <Gold.Protein.RotatedTorsions>
[ 6907 6896 6895 6894 ] final    3.00 input  -60.11 | X-H torsion
[ 7974 7965 7964 7962 ] final   27.81 input  175.53 | X-H torsion
[ 8008 7997 7996 7995 ] final   44.29 input   59.86 | X-H torsion
[ 10167 10162 10161 10158 ] final -177.09 input  -65.29 | X-H torsion
[ 10718 10713 10712 10709 ] final   78.12 input   66.30 | X-H torsion
[ 10763 10752 10751 10750 ] final  -77.03 input  -60.55 | X-H torsion
[ 11005 11000 10999 10996 ] final   49.43 input  -57.11 | X-H torsion

> <Gold.Protein.ActiveResidues>
 VAL166  LYS551  ARG553  GLY616  TRP617  ASP618  TYR619  PRO620  LYS621  CYS622 
 ASP623  PHE694  ASN695  SER759  ASP760  ASP761  ALA762  ILE779  LEU786  VAL792 
 PHE793  MET794  SER795  GLU796  ALA797  LYS798  CYS799  TRP800  GLU811  SER814 

> <Gold.Protein.RotatedAtoms>
  151.6180  135.1034  160.0095 H   0  0  0  0  0  0  0  0  0  0  0  0  # atno 6907 bound_to 6896
  152.4173  133.7055  159.6459 H   0  0  0  0  0  0  0  0  0  0  0  0  # atno 6908 bound_to 6896
  150.8061  133.8434  159.3226 H   0  0  0  0  0  0  0  0  0  0  0  0  # atno 6909 bound_to 6896
  146.1764  139.7141  142.8931 H   0  0  0  0  0  0  0  0  0  0  0  0  # atno 7974 bound_to 7965
  155.3168  140.3394  155.4242 H   0  0  0  0  0  0  0  0  0  0  0  0  # atno 8008 bound_to 7997
  156.1929  140.1704  156.8095 H   0  0  0  0  0  0  0  0  0  0  0  0  # atno 8009 bound_to 7997
  154.5463  140.0714  156.8578 H   0  0  0  0  0  0  0  0  0  0  0  0  # atno 8010 bound_to 7997
  139.5497  144.2141  152.1055 H   0  0  0  0  0  0  0  0  0  0  0  0  # atno 10167 bound_to 10162
  157.6734  130.9853  150.1740 H   0  0  0  0  0  0  0  0  0  0  0  0  # atno 10718 bound_to 10713
  154.5076  135.5777  153.6580 H   0  0  0  0  0  0  0  0  0  0  0  0  # atno 10763 bound_to 10752
  152.9891  135.6151  154.2920 H   0  0  0  0  0  0  0  0  0  0  0  0  # atno 10764 bound_to 10752
  154.2833  135.2850  155.2667 H   0  0  0  0  0  0  0  0  0  0  0  0  # atno 10765 bound_to 10752
  140.1104  134.4963  155.8683 H   0  0  0  0  0  0  0  0  0  0  0  0  # atno 11005 bound_to 11000
  145.4200  141.0405  143.2969 LP  0  0  0  0  0  0  0  0  0  0  0  0  # atno 17320 bound_to 7965
  144.8243  139.5737  143.6973 LP  0  0  0  0  0  0  0  0  0  0  0  0  # atno 17321 bound_to 7965
  140.1634  144.5004  150.6619 LP  0  0  0  0  0  0  0  0  0  0  0  0  # atno 17342 bound_to 10162
  140.6756  143.2304  151.5515 LP  0  0  0  0  0  0  0  0  0  0  0  0  # atno 17343 bound_to 10162
  156.2487  130.3698  149.8256 LP  0  0  0  0  0  0  0  0  0  0  0  0  # atno 17370 bound_to 10713
  156.6035  130.8556  151.3437 LP  0  0  0  0  0  0  0  0  0  0  0  0  # atno 17371 bound_to 10713
  141.2128  133.6725  156.6693 LP  0  0  0  0  0  0  0  0  0  0  0  0  # atno 17394 bound_to 11000
  140.3099  134.8094  157.4168 LP  0  0  0  0  0  0  0  0  0  0  0  0  # atno 17395 bound_to 11000

$$$$
