AV-unprocessed.smi:317|AV-procd|sdf|2327|dock7
  -GOLD-   2262022233D 1   1.00000     0.00000
 Structure written by MMmdl.
 39 40  0  0  0  0  0  0  0  0  1 V2000
  152.0710  138.0647  154.9297 C   0  0  0  0  0  0  0  0  0  0  0  0
  150.5569  138.1165  155.1807 C   0  0  1  0  0  0  0  0  0  0  0  0
  149.9432  139.4304  154.6512 C   0  0  0  0  0  0  0  0  0  0  0  0
  150.5533  139.8086  153.4358 O   0  0  0  0  0  0  0  0  0  0  0  0
  149.9460  136.9688  154.5154 N   0  0  0  0  0  0  0  0  0  0  0  0
  149.5728  135.8310  155.1177 C   0  0  0  0  0  0  0  0  0  0  0  0
  149.7130  135.6162  156.3216 O   0  0  0  0  0  0  0  0  0  0  0  0
  149.0145  134.9809  154.2403 N   0  0  0  0  0  0  0  0  0  0  0  0
  148.4608  133.6956  154.4986 C   0  0  0  0  0  0  0  0  0  0  0  0
  148.8803  132.9213  155.6077 C   0  0  0  0  0  0  0  0  0  0  0  0
  148.3605  131.6272  155.7819 C   0  0  0  0  0  0  0  0  0  0  0  0
  147.4482  131.1442  154.8294 C   0  0  0  0  0  0  0  0  0  0  0  0
  147.0483  131.8635  153.7616 N   0  0  0  0  0  0  0  0  0  0  0  0
  147.5295  133.1194  153.5875 C   0  0  0  0  0  0  0  0  0  0  0  0
  147.0605  133.8327  152.4602 N   0  0  0  0  0  0  0  0  0  0  0  0
  146.5807  133.1195  151.2811 C   0  0  0  0  0  0  0  0  0  0  0  0
  145.8192  134.1641  150.4706 C   0  0  0  0  0  0  0  0  0  0  0  0
  145.1815  135.0206  151.5603 C   0  0  0  0  0  0  0  0  0  0  0  0
  146.2149  135.0006  152.6916 C   0  0  0  0  0  0  0  0  0  0  0  0
  152.5810  138.8856  155.4348 H   0  0  0  0  0  0  0  0  0  0  0  0
  152.3015  138.1340  153.8659 H   0  0  0  0  0  0  0  0  0  0  0  0
  152.4997  137.1349  155.3048 H   0  0  0  0  0  0  0  0  0  0  0  0
  150.4121  138.0457  156.2609 H   0  0  0  0  0  0  0  0  0  0  0  0
  148.8814  139.2984  154.4412 H   0  0  0  0  0  0  0  0  0  0  0  0
  150.0204  140.2385  155.3797 H   0  0  0  0  0  0  0  0  0  0  0  0
  150.0681  139.4237  152.7223 H   0  0  0  0  0  0  0  0  0  0  0  0
  149.7884  137.0525  153.5219 H   0  0  0  0  0  0  0  0  0  0  0  0
  148.8733  135.3333  153.3049 H   0  0  0  0  0  0  0  0  0  0  0  0
  149.6097  133.2897  156.3130 H   0  0  0  0  0  0  0  0  0  0  0  0
  148.6652  131.0156  156.6181 H   0  0  0  0  0  0  0  0  0  0  0  0
  147.0326  130.1520  154.9227 H   0  0  0  0  0  0  0  0  0  0  0  0
  147.4060  132.6884  150.7137 H   0  0  0  0  0  0  0  0  0  0  0  0
  145.9009  132.3145  151.5642 H   0  0  0  0  0  0  0  0  0  0  0  0
  146.5165  134.7643  149.8843 H   0  0  0  0  0  0  0  0  0  0  0  0
  145.0902  133.7251  149.7891 H   0  0  0  0  0  0  0  0  0  0  0  0
  144.9421  136.0297  151.2240 H   0  0  0  0  0  0  0  0  0  0  0  0
  144.2572  134.5511  151.8994 H   0  0  0  0  0  0  0  0  0  0  0  0
  145.7324  134.9717  153.6699 H   0  0  0  0  0  0  0  0  0  0  0  0
  146.8324  135.8980  152.6456 H   0  0  0  0  0  0  0  0  0  0  0  0
  1  2  1  0  0  0  0
  1 20  1  0  0  0  0
  1 21  1  0  0  0  0
  1 22  1  0  0  0  0
  2  3  1  0  0  0  0
  2  5  1  0  0  0  0
  2 23  1  0  0  0  0
  3  4  1  0  0  0  0
  3 24  1  0  0  0  0
  3 25  1  0  0  0  0
  4 26  1  0  0  0  0
  5  6  1  0  0  0  0
  5 27  1  0  0  0  0
  6  7  2  0  0  0  0
  6  8  1  0  0  0  0
  8  9  1  0  0  0  0
  8 28  1  0  0  0  0
  9 14  1  0  0  0  0
  9 10  2  0  0  0  0
 10 11  1  0  0  0  0
 10 29  1  0  0  0  0
 11 12  2  0  0  0  0
 11 30  1  0  0  0  0
 12 13  1  0  0  0  0
 12 31  1  0  0  0  0
 13 14  2  0  0  0  0
 14 15  1  0  0  0  0
 15 19  1  0  0  0  0
 15 16  1  0  0  0  0
 16 17  1  0  0  0  0
 16 32  1  0  0  0  0
 16 33  1  0  0  0  0
 17 18  1  0  0  0  0
 17 34  1  0  0  0  0
 17 35  1  0  0  0  0
 18 19  1  0  0  0  0
 18 36  1  0  0  0  0
 18 37  1  0  0  0  0
 19 38  1  0  0  0  0
 19 39  1  0  0  0  0
M  END
> <s_m_source_file>
AV-unprocessed.smi

> <i_m_source_file_index>
317

> <i_lp_mmshare_version>
43012

> <i_f3d_flags>
0

> <s_epik_input>
W09IXVtDSDJdW0NAQEhdKFtDSDNdKVtOSF1DKD1PKVtOSF1jMVtjSF1bY0hdW2NIXW5jMU4yW0NIMl1bQ0gyXVtDSDJdW0NIMl0y

> <s_epik_cmdline>
J2VwaWtfcHl0aG9uJywgJy1waCcsICc3LjAnLCAnLXRuJywgJzgnLCAnLW1hJywgJzIwMCcsICctbWV0YWxfYmluZGluZycsICctaW1hZScsICc8aW5maWxlLm1hZT4nLCAnLW9tYWUnLCAnPG91dGZpbGUubWFlPic=

> <r_lp_tautomer_probability>
1

> <r_epik_Ionization_Penalty>
0.098371

> <r_epik_Ionization_Penalty_Charging>
0

> <r_epik_Ionization_Penalty_Neutral>
0.098371

> <r_epik_State_Penalty>
0.0879016

> <r_epik_Charging_Adjusted_Penalty>
0.0879016

> <i_epik_Tot_Q>
0

> <i_epik_Tot_abs_Q>
0

> <r_epik_Metal_State_Penalty>
0.0753294

> <b_epik_Metal_Only>
0

> <s_lp_Force_Field>
OPLS_2005

> <r_lp_Energy>
32.3253

> <b_lp_Chiralities_Consistent>
1

> <s_lp_Variant>
AV-unprocessed.smi:317-2

> <Gold.Version>
5.8.1

> <Gold.Id.Protein>
6NUR|6NUR_protein|mol2

> <Gold.PLP.Fitness>
40.1342

> <Gold.PLP.PLP>
-32.1283

> <Gold.PLP.part.hbond>
-5.0491

> <Gold.PLP.part.metal>
0.0000

> <Gold.PLP.part.buried>
-2.5558

> <Gold.PLP.part.nonpolar>
-25.9413

> <Gold.PLP.part.repulsive>
0.6077

> <Gold.PLP.ligand.clash>
0.0000

> <Gold.PLP.ligand.torsion>
1.0019

> <Gold.PLP.Chemscore.Hbond>
3.2284

> <Gold.PLP.Chemscore.CHOScore>
0.0000

> <Gold.PLP.Chemscore.Metal>
0.0000

> <Gold.Chemscore.Hbonds>
donor molecule, donor type, donor heavy atom, donor atom, acceptor molecule, acceptor atom, score
      L1  H     4    26       P1  7957  0.64
      L1  H     5    27       P1  7948  0.94
      L1  H     8    28       P1  7948  1.00
      P1  H  7989  7998       L1     4  0.69

> <Gold.PLP.Chemscore.Internal.Correction>
0.3244

> <Gold.Rescore>
     Score         DG    S(hbond)    S(metal)    S(lipo)     H(rot)  DE(clash)    DE(int)     intcor
     13.17     -15.56       2.70        0.00      54.52       2.08       0.03       2.36       ----

> <Gold.Chemscore.Fitness>
13.1675

> <Gold.Chemscore.DG>
-15.5610

> <Gold.Chemscore.ZeroCoef>
-5.4800

> <Gold.Chemscore.Hbond>
2.7006

> <Gold.Chemscore.Metal>
0.0000

> <Gold.Chemscore.Lipo>
54.5202

> <Gold.Chemscore.Internal_Hbond>
0.0000

> <Gold.Chemscore.DEClash>
0.0310

> <Gold.Chemscore.DEInternal>
2.3625

> <Gold.Chemscore.Rot>
2.0773

> <Gold.Chemscore.Internal.Correction>
   9.000000E+99

> <Gold.Chemscore.Hbonds>
donor molecule, donor type, donor heavy atom, donor atom, acceptor molecule, acceptor atom, score
      L1  H     4    26       P1  7957  0.59
      L1  H     5    27       P1  7948  0.49
      L1  H     8    28       P1  7948  0.65
      P1  H  7989  7998       L1     4  0.64

> <Gold.Chemscore.Hbond.Weighted>
-9.0199

> <Gold.Chemscore.Metal.Weighted>
-0.0000

> <Gold.Chemscore.Lipo.Weighted>
-6.3789

> <Gold.Chemscore.Internal_Hbond.Weighted>
0.0000

> <Gold.Chemscore.DEClash.Weighted>
0.0310

> <Gold.Chemscore.DEInternal.Weighted>
2.3625

> <Gold.Chemscore.Rot.Weighted>
5.3178

> <Gold.Chemscore.Internal.Correction.Weighted>
   9.000000E+99

> <Gold.Protein.RotatedTorsions>
[ 6907 6896 6895 6894 ] final  120.17 input  -60.11 | X-H torsion
[ 7974 7965 7964 7962 ] final  -66.74 input  175.53 | X-H torsion
[ 8008 7997 7996 7995 ] final  -92.46 input   59.86 | X-H torsion
[ 10167 10162 10161 10158 ] final -117.16 input  -65.29 | X-H torsion
[ 10718 10713 10712 10709 ] final -149.95 input   66.30 | X-H torsion
[ 10763 10752 10751 10750 ] final  128.41 input  -60.55 | X-H torsion
[ 11005 11000 10999 10996 ] final -129.86 input  -57.11 | X-H torsion

> <Gold.Protein.ActiveResidues>
 VAL166  LYS551  ARG553  GLY616  TRP617  ASP618  TYR619  PRO620  LYS621  CYS622 
 ASP623  PHE694  ASN695  SER759  ASP760  ASP761  ALA762  ILE779  LEU786  VAL792 
 PHE793  MET794  SER795  GLU796  ALA797  LYS798  CYS799  TRP800  GLU811  SER814 

> <Gold.Protein.RotatedAtoms>
  152.4418  133.7462  159.6667 H   0  0  0  0  0  0  0  0  0  0  0  0  # atno 6907 bound_to 6896
  150.8310  133.8081  159.3105 H   0  0  0  0  0  0  0  0  0  0  0  0  # atno 6908 bound_to 6896
  151.5735  135.1064  160.0052 H   0  0  0  0  0  0  0  0  0  0  0  0  # atno 6909 bound_to 6896
  145.7380  140.8967  143.0545 H   0  0  0  0  0  0  0  0  0  0  0  0  # atno 7974 bound_to 7965
  154.7233  140.0509  157.0660 H   0  0  0  0  0  0  0  0  0  0  0  0  # atno 8008 bound_to 7997
  155.0398  140.3167  155.4709 H   0  0  0  0  0  0  0  0  0  0  0  0  # atno 8009 bound_to 7997
  156.2822  140.2135  156.5521 H   0  0  0  0  0  0  0  0  0  0  0  0  # atno 8010 bound_to 7997
  140.0713  143.4874  152.1978 H   0  0  0  0  0  0  0  0  0  0  0  0  # atno 10167 bound_to 10162
  156.4397  130.8116  151.2345 H   0  0  0  0  0  0  0  0  0  0  0  0  # atno 10718 bound_to 10713
  153.7250  135.3247  155.3274 H   0  0  0  0  0  0  0  0  0  0  0  0  # atno 10763 bound_to 10752
  154.8344  135.4508  154.1179 H   0  0  0  0  0  0  0  0  0  0  0  0  # atno 10764 bound_to 10752
  153.2310  135.6960  153.7970 H   0  0  0  0  0  0  0  0  0  0  0  0  # atno 10765 bound_to 10752
  140.9395  134.1212  157.4163 H   0  0  0  0  0  0  0  0  0  0  0  0  # atno 11005 bound_to 11000
  144.6877  139.9421  143.7475 LP  0  0  0  0  0  0  0  0  0  0  0  0  # atno 17320 bound_to 7965
  146.0475  139.3479  143.0660 LP  0  0  0  0  0  0  0  0  0  0  0  0  # atno 17321 bound_to 7965
  139.5834  144.7520  151.3582 LP  0  0  0  0  0  0  0  0  0  0  0  0  # atno 17342 bound_to 10162
  140.7124  143.7356  150.7591 LP  0  0  0  0  0  0  0  0  0  0  0  0  # atno 17343 bound_to 10162
  157.7506  131.0172  150.3575 LP  0  0  0  0  0  0  0  0  0  0  0  0  # atno 17370 bound_to 10713
  156.3930  130.3901  149.7015 LP  0  0  0  0  0  0  0  0  0  0  0  0  # atno 17371 bound_to 10713
  139.8816  135.0032  156.6172 LP  0  0  0  0  0  0  0  0  0  0  0  0  # atno 17394 bound_to 11000
  140.7753  133.8704  155.8524 LP  0  0  0  0  0  0  0  0  0  0  0  0  # atno 17395 bound_to 11000

$$$$
