AV-unprocessed.smi:40|AV-procd|sdf|373|dock5
  -GOLD-   2262016223D 1   1.00000     0.00000
 Structure written by MMmdl.
 47 48  0  0  0  0  0  0  0  0  1 V2000
  152.3856  144.4142  158.2463 C   0  0  0  0  0  0  0  0  0  0  0  0
  151.7247  143.0875  158.6431 C   0  0  0  0  0  0  0  0  0  0  0  0
  152.1500  142.5715  160.0276 C   0  0  0  0  0  0  0  0  0  0  0  0
  153.3899  141.6599  159.9941 C   0  0  0  0  0  0  0  0  0  0  0  0
  153.1318  140.3146  159.3020 C   0  0  0  0  0  0  0  0  0  0  0  0
  152.7671  140.5523  157.9523 O   0  0  0  0  0  0  0  0  0  0  0  0
  151.6936  139.9507  157.4066 C   0  0  0  0  0  0  0  0  0  0  0  0
  151.1783  138.9203  157.8392 O   0  0  0  0  0  0  0  0  0  0  0  0
  151.2545  140.6632  156.2233 N   0  0  0  0  0  0  0  0  0  0  0  0
  150.2086  140.3353  155.4331 C   0  0  0  0  0  0  0  0  0  0  0  0
  149.2190  141.2035  155.3445 N   0  0  0  0  0  0  0  0  0  0  0  0
  148.0906  140.9947  154.5978 C   0  0  0  0  0  0  0  0  0  0  0  0
  147.1849  141.8268  154.5850 O   0  0  0  0  0  0  0  0  0  0  0  0
  148.0060  139.7928  153.8533 N   0  0  0  0  0  0  0  0  0  0  0  0
  146.7398  139.5397  153.0515 C   0  0  2  0  0  0  0  0  0  0  0  0
  145.6710  139.2816  153.9117 O   0  0  0  0  0  0  0  0  0  0  0  0
  145.5269  137.8782  154.0788 C   0  0  1  0  0  0  0  0  0  0  0  0
  144.1201  137.5513  154.5914 C   0  0  0  0  0  0  0  0  0  0  0  0
  145.8326  137.3278  152.6863 C   0  0  2  0  0  0  0  0  0  0  0  0
  146.3569  136.0188  152.7849 O   0  0  0  0  0  0  0  0  0  0  0  0
  146.8819  138.2968  152.1408 C   0  0  1  0  0  0  0  0  0  0  0  0
  146.5996  138.6075  150.7912 O   0  0  0  0  0  0  0  0  0  0  0  0
  149.0363  138.8643  153.9436 C   0  0  0  0  0  0  0  0  0  0  0  0
  150.1368  139.0879  154.6932 C   0  0  0  0  0  0  0  0  0  0  0  0
  151.1251  138.1773  154.7343 F   0  0  0  0  0  0  0  0  0  0  0  0
  146.5644  140.4745  152.5151 H   0  0  0  0  0  0  0  0  0  0  0  0
  146.2734  137.5271  154.7929 H   0  0  0  0  0  0  0  0  0  0  0  0
  144.9314  137.3323  152.0707 H   0  0  0  0  0  0  0  0  0  0  0  0
  147.8885  137.8829  152.2202 H   0  0  0  0  0  0  0  0  0  0  0  0
  152.0982  144.6999  157.2343 H   0  0  0  0  0  0  0  0  0  0  0  0
  153.4727  144.3358  158.2721 H   0  0  0  0  0  0  0  0  0  0  0  0
  152.0903  145.2255  158.9112 H   0  0  0  0  0  0  0  0  0  0  0  0
  150.6395  143.1888  158.6029 H   0  0  0  0  0  0  0  0  0  0  0  0
  151.9849  142.3363  157.8968 H   0  0  0  0  0  0  0  0  0  0  0  0
  152.3603  143.4353  160.6595 H   0  0  0  0  0  0  0  0  0  0  0  0
  151.3170  142.0490  160.4992 H   0  0  0  0  0  0  0  0  0  0  0  0
  154.2015  142.1658  159.4720 H   0  0  0  0  0  0  0  0  0  0  0  0
  153.7438  141.4799  161.0099 H   0  0  0  0  0  0  0  0  0  0  0  0
  154.0196  139.6824  159.3379 H   0  0  0  0  0  0  0  0  0  0  0  0
  152.3328  139.7886  159.8266 H   0  0  0  0  0  0  0  0  0  0  0  0
  151.7447  141.5260  156.0383 H   0  0  0  0  0  0  0  0  0  0  0  0
  143.9823  136.4748  154.6954 H   0  0  0  0  0  0  0  0  0  0  0  0
  143.3543  137.9233  153.9105 H   0  0  0  0  0  0  0  0  0  0  0  0
  143.9469  138.0056  155.5671 H   0  0  0  0  0  0  0  0  0  0  0  0
  147.2404  136.0221  152.4500 H   0  0  0  0  0  0  0  0  0  0  0  0
  145.6838  138.4399  150.6296 H   0  0  0  0  0  0  0  0  0  0  0  0
  148.9901  137.9251  153.4146 H   0  0  0  0  0  0  0  0  0  0  0  0
  1  2  1  0  0  0  0
  1 30  1  0  0  0  0
  1 31  1  0  0  0  0
  1 32  1  0  0  0  0
  2  3  1  0  0  0  0
  2 33  1  0  0  0  0
  2 34  1  0  0  0  0
  3  4  1  0  0  0  0
  3 35  1  0  0  0  0
  3 36  1  0  0  0  0
  4  5  1  0  0  0  0
  4 37  1  0  0  0  0
  4 38  1  0  0  0  0
  5  6  1  0  0  0  0
  5 39  1  0  0  0  0
  5 40  1  0  0  0  0
  6  7  1  0  0  0  0
  7  8  2  0  0  0  0
  7  9  1  0  0  0  0
  9 10  1  0  0  0  0
  9 41  1  0  0  0  0
 10 24  1  0  0  0  0
 10 11  2  0  0  0  0
 11 12  1  0  0  0  0
 12 13  2  0  0  0  0
 12 14  1  0  0  0  0
 14 15  1  0  0  0  0
 14 23  1  0  0  0  0
 15 26  1  0  0  0  0
 15 21  1  0  0  0  0
 15 16  1  0  0  0  0
 16 17  1  0  0  0  0
 17 27  1  0  0  0  0
 17 18  1  0  0  0  0
 17 19  1  0  0  0  0
 18 42  1  0  0  0  0
 18 43  1  0  0  0  0
 18 44  1  0  0  0  0
 19 28  1  0  0  0  0
 19 20  1  0  0  0  0
 19 21  1  0  0  0  0
 20 45  1  0  0  0  0
 21 29  1  0  0  0  0
 21 22  1  0  0  0  0
 22 46  1  0  0  0  0
 23 24  2  0  0  0  0
 23 47  1  0  0  0  0
 24 25  1  0  0  0  0
M  END
> <s_m_source_file>
AV-unprocessed.smi

> <i_m_source_file_index>
40

> <i_lp_mmshare_version>
43012

> <i_f3d_flags>
0

> <s_epik_input>
W0NIM11bQ0gyXVtDSDJdW0NIMl1bQ0gyXU9DKD1PKVtOSF1jMW5jKD1PKW4oW2NIXWMxRilbQ0BASF0yT1tDQEhdKFtDSDNdKVtDQEBIXShbT0hdKVtDQEhdMltPSF0=

> <s_epik_cmdline>
J2VwaWtfcHl0aG9uJywgJy1waCcsICc3LjAnLCAnLXRuJywgJzgnLCAnLW1hJywgJzIwMCcsICctbWV0YWxfYmluZGluZycsICctaW1hZScsICc8aW5maWxlLm1hZT4nLCAnLW9tYWUnLCAnPG91dGZpbGUubWFlPic=

> <r_lp_tautomer_probability>
1

> <r_epik_Ionization_Penalty>
2.29506e-06

> <r_epik_Ionization_Penalty_Charging>
8.26867e-09

> <r_epik_Ionization_Penalty_Neutral>
2.2868e-06

> <r_epik_State_Penalty>
-0

> <r_epik_Charging_Adjusted_Penalty>
8.26867e-09

> <i_epik_Tot_Q>
0

> <i_epik_Tot_abs_Q>
0

> <r_epik_Metal_State_Penalty>
-0

> <b_epik_Metal_Only>
0

> <s_epik_Chemistry_Notes>
This compound has an ester and may undergo hydrolysis at high or low pH. This compound contains an acetal/aminal-like group ( X-CH(R)-Y where X, Y are N, S, or O) that may be acid/base labile, releasing an aldehyde.

> <s_lp_Force_Field>
OPLS_2005

> <r_lp_Energy>
31.7957

> <b_lp_Chiralities_Consistent>
1

> <s_lp_Variant>
AV-unprocessed.smi:40-7

> <Gold.Version>
5.8.1

> <Gold.Id.Protein>
6NUR|6NUR_protein|mol2

> <Gold.PLP.Fitness>
49.8613

> <Gold.PLP.PLP>
-42.4431

> <Gold.PLP.part.hbond>
-4.7442

> <Gold.PLP.part.metal>
0.0000

> <Gold.PLP.part.buried>
-0.6692

> <Gold.PLP.part.nonpolar>
-39.5928

> <Gold.PLP.part.repulsive>
2.4925

> <Gold.PLP.ligand.clash>
0.0000

> <Gold.PLP.ligand.torsion>
1.6442

> <Gold.PLP.Chemscore.Hbond>
2.5463

> <Gold.PLP.Chemscore.CHOScore>
1.0000

> <Gold.PLP.Chemscore.Metal>
0.0000

> <Gold.Chemscore.Hbonds>
donor molecule, donor type, donor heavy atom, donor atom, acceptor molecule, acceptor atom, score
      L1  H    20    45       P1  7948  1.00
      L1  H    22    46       P1 10171  1.00
      P1  H  7954  7966       L1    22  0.90
      L1  C    23    47       P1  7948  1.00

> <Gold.PLP.Chemscore.Internal.Correction>
0.0678

> <Gold.Rescore>
     Score         DG    S(hbond)    S(metal)    S(lipo)     H(rot)  DE(clash)    DE(int)     intcor
      6.98     -12.08       1.98        0.00      80.70       3.70       1.34       3.76       ----

> <Gold.Chemscore.Fitness>
6.9831

> <Gold.Chemscore.DG>
-12.0782

> <Gold.Chemscore.ZeroCoef>
-5.4800

> <Gold.Chemscore.Hbond>
1.9813

> <Gold.Chemscore.Metal>
0.0000

> <Gold.Chemscore.Lipo>
80.6970

> <Gold.Chemscore.Internal_Hbond>
0.0000

> <Gold.Chemscore.DEClash>
1.3384

> <Gold.Chemscore.DEInternal>
3.7567

> <Gold.Chemscore.Rot>
3.6957

> <Gold.Chemscore.Internal.Correction>
   9.000000E+99

> <Gold.Chemscore.Hbonds>
donor molecule, donor type, donor heavy atom, donor atom, acceptor molecule, acceptor atom, score
      L1  H    20    45       P1  7948  1.00
      L1  H    22    46       P1 10171  0.97
      P1  H  7954  7966       L1    22  0.30

> <Gold.Chemscore.Hbond.Weighted>
-6.6176

> <Gold.Chemscore.Metal.Weighted>
-0.0000

> <Gold.Chemscore.Lipo.Weighted>
-9.4415

> <Gold.Chemscore.Internal_Hbond.Weighted>
0.0000

> <Gold.Chemscore.DEClash.Weighted>
1.3384

> <Gold.Chemscore.DEInternal.Weighted>
3.7567

> <Gold.Chemscore.Rot.Weighted>
9.4610

> <Gold.Chemscore.Internal.Correction.Weighted>
   9.000000E+99

> <Gold.Protein.RotatedTorsions>
[ 6907 6896 6895 6894 ] final  -10.51 input  -60.11 | X-H torsion
[ 7974 7965 7964 7962 ] final  -96.09 input  175.53 | X-H torsion
[ 8008 7997 7996 7995 ] final   94.22 input   59.86 | X-H torsion
[ 10167 10162 10161 10158 ] final  -54.33 input  -65.29 | X-H torsion
[ 10718 10713 10712 10709 ] final  106.49 input   66.30 | X-H torsion
[ 10763 10752 10751 10750 ] final -143.47 input  -60.55 | X-H torsion
[ 11005 11000 10999 10996 ] final  -45.17 input  -57.11 | X-H torsion

> <Gold.Protein.ActiveResidues>
 VAL166  LYS551  ARG553  GLY616  TRP617  ASP618  TYR619  PRO620  LYS621  CYS622 
 ASP623  PHE694  ASN695  SER759  ASP760  ASP761  ALA762  ILE779  LEU786  VAL792 
 PHE793  MET794  SER795  GLU796  ALA797  LYS798  CYS799  TRP800  GLU811  SER814 

> <Gold.Protein.RotatedAtoms>
  151.4008  135.0970  159.9554 H   0  0  0  0  0  0  0  0  0  0  0  0  # atno 6907 bound_to 6896
  152.5051  133.8890  159.7395 H   0  0  0  0  0  0  0  0  0  0  0  0  # atno 6908 bound_to 6896
  150.9364  133.6651  159.2828 H   0  0  0  0  0  0  0  0  0  0  0  0  # atno 6909 bound_to 6896
  145.3514  140.9477  143.2552 H   0  0  0  0  0  0  0  0  0  0  0  0  # atno 7974 bound_to 7965
  156.0555  140.3302  155.7400 H   0  0  0  0  0  0  0  0  0  0  0  0  # atno 8008 bound_to 7997
  155.5535  140.0612  157.2862 H   0  0  0  0  0  0  0  0  0  0  0  0  # atno 8009 bound_to 7997
  154.4456  140.1890  156.0699 H   0  0  0  0  0  0  0  0  0  0  0  0  # atno 8010 bound_to 7997
  140.6437  143.2522  151.4920 H   0  0  0  0  0  0  0  0  0  0  0  0  # atno 10167 bound_to 10162
  157.6666  131.0852  150.6014 H   0  0  0  0  0  0  0  0  0  0  0  0  # atno 10718 bound_to 10713
  154.8468  135.3467  154.6192 H   0  0  0  0  0  0  0  0  0  0  0  0  # atno 10763 bound_to 10752
  153.6801  135.6980  153.5125 H   0  0  0  0  0  0  0  0  0  0  0  0  # atno 10764 bound_to 10752
  153.2675  135.4303  155.0911 H   0  0  0  0  0  0  0  0  0  0  0  0  # atno 10765 bound_to 10752
  141.0498  133.6747  156.2975 H   0  0  0  0  0  0  0  0  0  0  0  0  # atno 11005 bound_to 11000
  144.8715  139.5032  143.6765 LP  0  0  0  0  0  0  0  0  0  0  0  0  # atno 17320 bound_to 7965
  146.2966  139.7297  142.9122 LP  0  0  0  0  0  0  0  0  0  0  0  0  # atno 17321 bound_to 7965
  139.5646  144.2073  152.1745 LP  0  0  0  0  0  0  0  0  0  0  0  0  # atno 17342 bound_to 10162
  140.1351  144.5253  150.6778 LP  0  0  0  0  0  0  0  0  0  0  0  0  # atno 17343 bound_to 10162
  156.6315  130.4433  149.5785 LP  0  0  0  0  0  0  0  0  0  0  0  0  # atno 17370 bound_to 10713
  156.2278  130.6776  151.1433 LP  0  0  0  0  0  0  0  0  0  0  0  0  # atno 17371 bound_to 10713
  140.6077  134.5490  157.5528 LP  0  0  0  0  0  0  0  0  0  0  0  0  # atno 17394 bound_to 11000
  139.9341  134.7908  156.0850 LP  0  0  0  0  0  0  0  0  0  0  0  0  # atno 17395 bound_to 11000

$$$$
