AV-unprocessed.smi:1046|AV-procd|sdf|4554|dock2
  -GOLD-   22720 2583D 1   1.00000     0.00000
 Structure written by MMmdl.
 54 56  0  0  0  0  0  0  0  0  3 V2000
  152.8463  142.9542  161.5577 C   0  0  0  0  0  0  0  0  0  0  0  0
  152.2706  142.6625  160.1830 C   0  0  0  0  0  0  0  0  0  0  0  0
  152.6536  141.4775  159.5149 C   0  0  0  0  0  0  0  0  0  0  0  0
  152.1416  141.1702  158.2354 C   0  0  0  0  0  0  0  0  0  0  0  0
  152.3743  140.0833  157.4102 N   0  0  0  0  0  0  0  0  0  0  0  0
  151.6124  140.3746  156.3601 C   0  0  0  0  0  0  0  0  0  0  0  0
  150.9064  141.5208  156.4106 N   0  0  0  0  0  0  0  0  0  0  0  0
  150.0108  142.0470  155.3964 C   0  0  0  0  0  0  0  0  0  0  0  0
  149.2625  140.9328  154.6399 C   0  0  2  0  0  0  0  0  0  0  0  0
  150.1528  140.3013  153.7397 O   0  0  0  0  0  0  0  0  0  0  0  0
  148.0642  141.4889  153.8454 C   0  0  0  0  0  0  0  0  0  0  0  0
  147.1990  142.3837  154.6571 N   0  3  2  0  0  0  0  0  0  0  0  0
  146.8402  141.7838  155.9661 C   0  0  0  0  0  0  0  0  0  0  0  0
  146.0279  142.7661  156.8286 C   0  0  0  0  0  0  0  0  0  0  0  0
  144.8155  143.2345  156.1100 N   0  3  1  0  0  0  0  0  0  0  0  0
  143.9492  144.1256  156.9241 C   0  0  0  0  0  0  0  0  0  0  0  0
  144.6079  145.4844  157.2187 C   0  0  0  0  0  0  0  0  0  0  0  0
  145.4727  145.3708  158.3290 O   0  0  0  0  0  0  0  0  0  0  0  0
  145.1746  143.8360  154.8022 C   0  0  0  0  0  0  0  0  0  0  0  0
  145.9864  142.8535  153.9390 C   0  0  0  0  0  0  0  0  0  0  0  0
  151.2294  142.0882  157.6381 C   0  0  0  0  0  0  0  0  0  0  0  0
  150.8416  143.2709  158.2919 C   0  0  0  0  0  0  0  0  0  0  0  0
  151.3614  143.5620  159.5705 C   0  0  0  0  0  0  0  0  0  0  0  0
  150.9364  144.8412  160.2693 C   0  0  0  0  0  0  0  0  0  0  0  0
  153.5319  142.1690  161.8778 H   0  0  0  0  0  0  0  0  0  0  0  0
  152.0495  143.0245  162.2985 H   0  0  0  0  0  0  0  0  0  0  0  0
  153.3964  143.8955  161.5495 H   0  0  0  0  0  0  0  0  0  0  0  0
  153.3467  140.7927  159.9811 H   0  0  0  0  0  0  0  0  0  0  0  0
  151.5605  139.7140  155.5068 H   0  0  0  0  0  0  0  0  0  0  0  0
  149.3002  142.7133  155.8872 H   0  0  0  0  0  0  0  0  0  0  0  0
  150.5876  142.6618  154.7034 H   0  0  0  0  0  0  0  0  0  0  0  0
  148.9274  140.1901  155.3629 H   0  0  0  0  0  0  0  0  0  0  0  0
  149.7650  140.3115  152.8769 H   0  0  0  0  0  0  0  0  0  0  0  0
  148.4080  142.0261  152.9600 H   0  0  0  0  0  0  0  0  0  0  0  0
  147.4753  140.6460  153.4793 H   0  0  0  0  0  0  0  0  0  0  0  0
  146.2697  140.8679  155.8027 H   0  0  0  0  0  0  0  0  0  0  0  0
  147.7468  141.5011  156.5026 H   0  0  0  0  0  0  0  0  0  0  0  0
  145.7509  142.2739  157.7602 H   0  0  0  0  0  0  0  0  0  0  0  0
  146.6465  143.6241  157.0970 H   0  0  0  0  0  0  0  0  0  0  0  0
  142.9943  144.2689  156.4164 H   0  0  0  0  0  0  0  0  0  0  0  0
  143.7174  143.6458  157.8764 H   0  0  0  0  0  0  0  0  0  0  0  0
  145.1577  145.8719  156.3617 H   0  0  0  0  0  0  0  0  0  0  0  0
  143.8403  146.2207  157.4582 H   0  0  0  0  0  0  0  0  0  0  0  0
  146.3240  145.7031  158.0843 H   0  0  0  0  0  0  0  0  0  0  0  0
  144.2681  144.1204  154.2664 H   0  0  0  0  0  0  0  0  0  0  0  0
  145.7464  144.7509  154.9671 H   0  0  0  0  0  0  0  0  0  0  0  0
  146.2609  143.3486  153.0085 H   0  0  0  0  0  0  0  0  0  0  0  0
  145.3676  141.9962  153.6688 H   0  0  0  0  0  0  0  0  0  0  0  0
  150.1504  143.9487  157.8136 H   0  0  0  0  0  0  0  0  0  0  0  0
  150.2124  145.3987  159.6745 H   0  0  0  0  0  0  0  0  0  0  0  0
  151.7986  145.4866  160.4384 H   0  0  0  0  0  0  0  0  0  0  0  0
  150.4763  144.6178  161.2321 H   0  0  0  0  0  0  0  0  0  0  0  0
  147.7594  143.1993  154.8623 H   0  0  0  0  0  0  0  0  0  0  0  0
  144.2565  142.4184  155.9030 H   0  0  0  0  0  0  0  0  0  0  0  0
  1  2  1  0  0  0  0
  1 25  1  0  0  0  0
  1 26  1  0  0  0  0
  1 27  1  0  0  0  0
  2 23  1  0  0  0  0
  2  3  2  0  0  0  0
  3  4  1  0  0  0  0
  3 28  1  0  0  0  0
  4 21  2  0  0  0  0
  4  5  1  0  0  0  0
  5  6  2  0  0  0  0
  6  7  1  0  0  0  0
  6 29  1  0  0  0  0
  7  8  1  0  0  0  0
  7 21  1  0  0  0  0
  8  9  1  0  0  0  0
  8 30  1  0  0  0  0
  8 31  1  0  0  0  0
  9 10  1  0  0  0  0
  9 11  1  0  0  0  0
  9 32  1  0  0  0  0
 10 33  1  0  0  0  0
 11 12  1  0  0  0  0
 11 34  1  0  0  0  0
 11 35  1  0  0  0  0
 12 20  1  0  0  0  0
 12 13  1  0  0  0  0
 12 53  1  0  0  0  0
 13 14  1  0  0  0  0
 13 36  1  0  0  0  0
 13 37  1  0  0  0  0
 14 15  1  0  0  0  0
 14 38  1  0  0  0  0
 14 39  1  0  0  0  0
 15 16  1  0  0  0  0
 15 19  1  0  0  0  0
 15 54  1  0  0  0  0
 16 17  1  0  0  0  0
 16 40  1  0  0  0  0
 16 41  1  0  0  0  0
 17 18  1  0  0  0  0
 17 42  1  0  0  0  0
 17 43  1  0  0  0  0
 18 44  1  0  0  0  0
 19 20  1  0  0  0  0
 19 45  1  0  0  0  0
 19 46  1  0  0  0  0
 20 47  1  0  0  0  0
 20 48  1  0  0  0  0
 21 22  1  0  0  0  0
 22 23  2  0  0  0  0
 22 49  1  0  0  0  0
 23 24  1  0  0  0  0
 24 50  1  0  0  0  0
 24 51  1  0  0  0  0
 24 52  1  0  0  0  0
M  CHG  1  12   1
M  CHG  1  15   1
M  END
> <s_m_source_file>
AV-unprocessed.smi

> <i_m_source_file_index>
1046

> <i_lp_mmshare_version>
43012

> <i_f3d_flags>
0

> <s_epik_input>
W0NIM11jKFtjSF0xKWMoW0NIM10pW2NIXWMoYzEyKW4oW2NIXW4yKVtDSDJdW0NASF0oW09IXSlbQ0gyXU4zW0NIMl1bQ0gyXU4oW0NIMl1bQ0gyXTMpW0NIMl1bQ0gyXVtPSF0=

> <s_epik_cmdline>
J2VwaWtfcHl0aG9uJywgJy1waCcsICc3LjAnLCAnLXRuJywgJzgnLCAnLW1hJywgJzIwMCcsICctbWV0YWxfYmluZGluZycsICctaW1hZScsICc8aW5maWxlLm1hZT4nLCAnLW9tYWUnLCAnPG91dGZpbGUubWFlPic=

> <r_epik_Ionization_Penalty>
3.17398

> <r_epik_Ionization_Penalty_Charging>
3.09061

> <r_epik_Ionization_Penalty_Neutral>
0.0833726

> <r_epik_State_Penalty>
2.17606

> <r_epik_Charging_Adjusted_Penalty>
5.26667

> <i_epik_Tot_Q>
2

> <i_epik_Tot_abs_Q>
2

> <r_epik_Metal_State_Penalty>
2.08587

> <b_epik_Metal_Only>
0

> <s_lp_Force_Field>
OPLS_2005

> <r_lp_Energy>
27.9633

> <b_lp_Chiralities_Consistent>
1

> <s_lp_Variant>
AV-unprocessed.smi:1046-7

> <Gold.Version>
5.8.1

> <Gold.Id.Protein>
6NUR|6NUR_protein|mol2

> <Gold.PLP.Fitness>
65.6422

> <Gold.PLP.PLP>
-49.4020

> <Gold.PLP.part.hbond>
-4.8755

> <Gold.PLP.part.metal>
0.0000

> <Gold.PLP.part.buried>
-4.6214

> <Gold.PLP.part.nonpolar>
-38.4959

> <Gold.PLP.part.repulsive>
0.1104

> <Gold.PLP.ligand.clash>
0.0000

> <Gold.PLP.ligand.torsion>
0.6968

> <Gold.PLP.Chemscore.Hbond>
5.7430

> <Gold.PLP.Chemscore.CHOScore>
0.0000

> <Gold.PLP.Chemscore.Metal>
0.0000

> <Gold.Chemscore.Hbonds>
donor molecule, donor type, donor heavy atom, donor atom, acceptor molecule, acceptor atom, score
      L1  H    10    33       P1  7957  1.00
      L1  H    12    53       P1  8028  2.00
      L1  H    18    44       P1  8029  1.00
      P1  H  7989  7998       L1    10  0.74
      P1  H  7997  8009       L1     5  0.73

> <Gold.PLP.Chemscore.Internal.Correction>
0.4047

> <Gold.Rescore>
     Score         DG    S(hbond)    S(metal)    S(lipo)     H(rot)  DE(clash)    DE(int)     intcor
     21.74     -24.69       3.98        0.00     122.35       3.28       1.17       1.77       ----

> <Gold.Chemscore.Fitness>
21.7443

> <Gold.Chemscore.DG>
-24.6880

> <Gold.Chemscore.ZeroCoef>
-5.4800

> <Gold.Chemscore.Hbond>
3.9812

> <Gold.Chemscore.Metal>
0.0000

> <Gold.Chemscore.Lipo>
122.3472

> <Gold.Chemscore.Internal_Hbond>
0.0000

> <Gold.Chemscore.DEClash>
1.1702

> <Gold.Chemscore.DEInternal>
1.7735

> <Gold.Chemscore.Rot>
3.2828

> <Gold.Chemscore.Internal.Correction>
   9.000000E+99

> <Gold.Chemscore.Hbonds>
donor molecule, donor type, donor heavy atom, donor atom, acceptor molecule, acceptor atom, score
      L1  H    10    33       P1  7957  0.99
      L1  H    12    53       P1  8028  0.62
      L1  H    18    44       P1  8029  0.99
      P1  H  7989  7998       L1    10  0.24
      P1  H  7997  8009       L1     5  0.35

> <Gold.Chemscore.Hbond.Weighted>
-13.2974

> <Gold.Chemscore.Metal.Weighted>
-0.0000

> <Gold.Chemscore.Lipo.Weighted>
-14.3146

> <Gold.Chemscore.Internal_Hbond.Weighted>
0.0000

> <Gold.Chemscore.DEClash.Weighted>
1.1702

> <Gold.Chemscore.DEInternal.Weighted>
1.7735

> <Gold.Chemscore.Rot.Weighted>
8.4039

> <Gold.Chemscore.Internal.Correction.Weighted>
   9.000000E+99

> <Gold.Protein.RotatedTorsions>
[ 6907 6896 6895 6894 ] final   55.67 input  -60.11 | X-H torsion
[ 7974 7965 7964 7962 ] final -103.36 input  175.53 | X-H torsion
[ 8008 7997 7996 7995 ] final  172.59 input   59.86 | X-H torsion
[ 10167 10162 10161 10158 ] final   -7.18 input  -65.29 | X-H torsion
[ 10718 10713 10712 10709 ] final   88.32 input   66.30 | X-H torsion
[ 10763 10752 10751 10750 ] final   82.12 input  -60.55 | X-H torsion
[ 11005 11000 10999 10996 ] final   75.61 input  -57.11 | X-H torsion

> <Gold.Protein.ActiveResidues>
 VAL166  LYS551  ARG553  GLY616  TRP617  ASP618  TYR619  PRO620  LYS621  CYS622 
 ASP623  PHE694  ASN695  SER759  ASP760  ASP761  ALA762  ILE779  LEU786  VAL792 
 PHE793  MET794  SER795  GLU796  ALA797  LYS798  CYS799  TRP800  GLU811  SER814 

> <Gold.Protein.RotatedAtoms>
  152.3561  134.6937  160.0221 H   0  0  0  0  0  0  0  0  0  0  0  0  # atno 6907 bound_to 6896
  151.7275  133.3311  159.3339 H   0  0  0  0  0  0  0  0  0  0  0  0  # atno 6908 bound_to 6896
  150.7573  134.6326  159.6239 H   0  0  0  0  0  0  0  0  0  0  0  0  # atno 6909 bound_to 6896
  145.2569  140.9256  143.3063 H   0  0  0  0  0  0  0  0  0  0  0  0  # atno 7974 bound_to 7965
  156.1159  140.1482  156.9273 H   0  0  0  0  0  0  0  0  0  0  0  0  # atno 8008 bound_to 7997
  154.4800  140.0882  156.7398 H   0  0  0  0  0  0  0  0  0  0  0  0  # atno 8009 bound_to 7997
  155.4514  140.3435  155.4303 H   0  0  0  0  0  0  0  0  0  0  0  0  # atno 8010 bound_to 7997
  140.7021  143.6109  150.8704 H   0  0  0  0  0  0  0  0  0  0  0  0  # atno 10167 bound_to 10162
  157.6948  131.0290  150.3256 H   0  0  0  0  0  0  0  0  0  0  0  0  # atno 10718 bound_to 10713
  153.1175  135.4740  154.9140 H   0  0  0  0  0  0  0  0  0  0  0  0  # atno 10763 bound_to 10752
  154.7543  135.3114  154.8501 H   0  0  0  0  0  0  0  0  0  0  0  0  # atno 10764 bound_to 10752
  153.9074  135.6868  153.4806 H   0  0  0  0  0  0  0  0  0  0  0  0  # atno 10765 bound_to 10752
  139.9335  134.7532  156.1293 H   0  0  0  0  0  0  0  0  0  0  0  0  # atno 11005 bound_to 11000
  144.9453  139.4143  143.6429 LP  0  0  0  0  0  0  0  0  0  0  0  0  # atno 17320 bound_to 7965
  146.3286  139.8433  142.8886 LP  0  0  0  0  0  0  0  0  0  0  0  0  # atno 17321 bound_to 7965
  139.9832  143.5928  152.2936 LP  0  0  0  0  0  0  0  0  0  0  0  0  # atno 17342 bound_to 10162
  139.6556  144.7662  151.2062 LP  0  0  0  0  0  0  0  0  0  0  0  0  # atno 17343 bound_to 10162
  156.3737  130.3868  149.7155 LP  0  0  0  0  0  0  0  0  0  0  0  0  # atno 17370 bound_to 10713
  156.4561  130.7929  151.2950 LP  0  0  0  0  0  0  0  0  0  0  0  0  # atno 17371 bound_to 10713
  141.0937  133.6704  156.2598 LP  0  0  0  0  0  0  0  0  0  0  0  0  # atno 17394 bound_to 11000
  140.6137  134.5433  157.5537 LP  0  0  0  0  0  0  0  0  0  0  0  0  # atno 17395 bound_to 11000

$$$$
