AV-unprocessed.smi:2882|AV-procd|sdf|11072|dock1
  -GOLD-   2272015543D 1   1.00000     0.00000
 Structure written by MMmdl.
 28 30  0  0  0  0  0  0  0  0  1 V2000
  154.1521  138.3567  157.9398 N   0  0  0  0  0  0  0  0  0  0  0  0
  153.3509  138.4374  157.1086 C   0  0  0  0  0  0  0  0  0  0  0  0
  152.3413  138.5401  156.0625 C   0  0  0  0  0  0  0  0  0  0  0  0
  152.0922  137.4198  155.3454 N   0  0  0  0  0  0  0  0  0  0  0  0
  151.1630  137.5045  154.3697 C   0  0  0  0  0  0  0  0  0  0  0  0
  150.4779  138.7062  154.1059 C   0  0  0  0  0  0  0  0  0  0  0  0
  150.7195  139.8279  154.8164 N   0  0  0  0  0  0  0  0  0  0  0  0
  151.6532  139.7577  155.7980 C   0  0  0  0  0  0  0  0  0  0  0  0
  151.9156  140.9188  156.5479 N   0  0  0  0  0  0  0  0  0  0  0  0
  151.4491  141.0476  157.9251 C   0  0  1  0  0  0  0  0  0  0  0  0
  152.5768  140.9211  158.9520 C   0  0  0  0  0  0  0  0  0  0  0  0
  152.4028  142.2071  159.7727 C   0  0  1  0  0  0  0  0  0  0  0  0
  152.8978  143.4385  159.0030 C   0  0  0  0  0  0  0  0  0  0  0  0
  151.8053  143.6044  157.9486 C   0  0  0  0  0  0  0  0  0  0  0  0
  150.8654  142.4314  158.2760 C   0  0  2  0  0  0  0  0  0  0  0  0
  151.0001  142.3954  159.6869 O   0  0  0  0  0  0  0  0  0  0  0  0
  150.9648  136.6102  153.7976 H   0  0  0  0  0  0  0  0  0  0  0  0
  149.7350  138.7675  153.3243 H   0  0  0  0  0  0  0  0  0  0  0  0
  152.1611  141.7656  156.0556 H   0  0  0  0  0  0  0  0  0  0  0  0
  150.7070  140.2749  158.1311 H   0  0  0  0  0  0  0  0  0  0  0  0
  152.4217  140.0390  159.5742 H   0  0  0  0  0  0  0  0  0  0  0  0
  153.5714  140.8503  158.5089 H   0  0  0  0  0  0  0  0  0  0  0  0
  152.7874  142.1386  160.7906 H   0  0  0  0  0  0  0  0  0  0  0  0
  152.9384  144.3135  159.6526 H   0  0  0  0  0  0  0  0  0  0  0  0
  153.8870  143.2880  158.5696 H   0  0  0  0  0  0  0  0  0  0  0  0
  151.2899  144.5558  158.0863 H   0  0  0  0  0  0  0  0  0  0  0  0
  152.1889  143.5761  156.9285 H   0  0  0  0  0  0  0  0  0  0  0  0
  149.8414  142.5803  157.9328 H   0  0  0  0  0  0  0  0  0  0  0  0
  1  2  3  0  0  0  0
  2  3  1  0  0  0  0
  3  8  1  0  0  0  0
  3  4  2  0  0  0  0
  4  5  1  0  0  0  0
  5  6  2  0  0  0  0
  5 17  1  0  0  0  0
  6  7  1  0  0  0  0
  6 18  1  0  0  0  0
  7  8  2  0  0  0  0
  8  9  1  0  0  0  0
  9 10  1  0  0  0  0
  9 19  1  0  0  0  0
 10 15  1  0  0  0  0
 10 11  1  0  0  0  0
 10 20  1  0  0  0  0
 11 12  1  0  0  0  0
 11 21  1  0  0  0  0
 11 22  1  0  0  0  0
 12 16  1  0  0  0  0
 12 13  1  0  0  0  0
 12 23  1  0  0  0  0
 13 14  1  0  0  0  0
 13 24  1  0  0  0  0
 13 25  1  0  0  0  0
 14 15  1  0  0  0  0
 14 26  1  0  0  0  0
 14 27  1  0  0  0  0
 15 16  1  0  0  0  0
 15 28  1  0  0  0  0
M  END
> <s_m_source_file>
AV-unprocessed.smi

> <i_m_source_file_index>
2882

> <i_lp_mmshare_version>
43012

> <i_f3d_flags>
0

> <s_epik_input>
TiNDYzFuW2NIXVtjSF1uYzFbTkhdW0NASF0oW0NIMl1bQ0BASF0yMylbQ0BASF0oTzMpW0NIMl1bQ0gyXTI=

> <s_epik_cmdline>
J2VwaWtfcHl0aG9uJywgJy1waCcsICc3LjAnLCAnLXRuJywgJzgnLCAnLW1hJywgJzIwMCcsICctbWV0YWxfYmluZGluZycsICctaW1hZScsICc8aW5maWxlLm1hZT4nLCAnLW9tYWUnLCAnPG91dGZpbGUubWFlPic=

> <r_lp_tautomer_probability>
1

> <r_epik_Ionization_Penalty>
4.95445e-05

> <r_epik_Ionization_Penalty_Charging>
0

> <r_epik_Ionization_Penalty_Neutral>
4.95445e-05

> <r_epik_State_Penalty>
-0

> <r_epik_Charging_Adjusted_Penalty>
0

> <i_epik_Tot_Q>
0

> <i_epik_Tot_abs_Q>
0

> <r_epik_Metal_State_Penalty>
-0

> <b_epik_Metal_Only>
0

> <s_lp_Force_Field>
OPLS_2005

> <r_lp_Energy>
50.4858

> <b_lp_Chiralities_Consistent>
1

> <s_lp_Variant>
AV-unprocessed.smi:2882-2

> <Gold.Version>
5.8.1

> <Gold.Id.Protein>
6NUR|6NUR_protein|mol2

> <Gold.PLP.Fitness>
40.4378

> <Gold.PLP.PLP>
-29.7271

> <Gold.PLP.part.hbond>
-4.0000

> <Gold.PLP.part.metal>
0.0000

> <Gold.PLP.part.buried>
-0.0196

> <Gold.PLP.part.nonpolar>
-26.1559

> <Gold.PLP.part.repulsive>
0.2666

> <Gold.PLP.ligand.clash>
0.0000

> <Gold.PLP.ligand.torsion>
0.8852

> <Gold.PLP.Chemscore.Hbond>
2.1231

> <Gold.PLP.Chemscore.CHOScore>
2.0339

> <Gold.PLP.Chemscore.Metal>
0.0000

> <Gold.Chemscore.Hbonds>
donor molecule, donor type, donor heavy atom, donor atom, acceptor molecule, acceptor atom, score
      P1  H  7989  7998       L1     7  1.00
      P1  H  7997  8009       L1     1  0.49
      P1  H 10752 10765       L1     4  0.60
      L1  C     5    17       P1  7948  0.06
      L1  C     5    17       P1  7949  0.98
      L1  C     6    18       P1  7957  1.00

> <Gold.PLP.Chemscore.Internal.Correction>
0.0100

> <Gold.Rescore>
     Score         DG    S(hbond)    S(metal)    S(lipo)     H(rot)  DE(clash)    DE(int)     intcor
     11.77     -12.68       0.29        0.00      75.15       1.00       0.02       0.90       ----

> <Gold.Chemscore.Fitness>
11.7665

> <Gold.Chemscore.DG>
-12.6830

> <Gold.Chemscore.ZeroCoef>
-5.4800

> <Gold.Chemscore.Hbond>
0.2904

> <Gold.Chemscore.Metal>
0.0000

> <Gold.Chemscore.Lipo>
75.1529

> <Gold.Chemscore.Internal_Hbond>
0.0000

> <Gold.Chemscore.DEClash>
0.0189

> <Gold.Chemscore.DEInternal>
0.8976

> <Gold.Chemscore.Rot>
1.0000

> <Gold.Chemscore.Internal.Correction>
   9.000000E+99

> <Gold.Chemscore.Hbonds>
donor molecule, donor type, donor heavy atom, donor atom, acceptor molecule, acceptor atom, score
      P1  H  7989  7998       L1     7  0.09
      P1  H  7997  8009       L1     1  0.04
      P1  H 10752 10765       L1     4  0.15

> <Gold.Chemscore.Hbond.Weighted>
-0.9701

> <Gold.Chemscore.Metal.Weighted>
-0.0000

> <Gold.Chemscore.Lipo.Weighted>
-8.7929

> <Gold.Chemscore.Internal_Hbond.Weighted>
0.0000

> <Gold.Chemscore.DEClash.Weighted>
0.0189

> <Gold.Chemscore.DEInternal.Weighted>
0.8976

> <Gold.Chemscore.Rot.Weighted>
2.5600

> <Gold.Chemscore.Internal.Correction.Weighted>
   9.000000E+99

> <Gold.Protein.RotatedTorsions>
[ 6907 6896 6895 6894 ] final  -47.50 input  -60.11 | X-H torsion
[ 7974 7965 7964 7962 ] final -120.70 input  175.53 | X-H torsion
[ 8008 7997 7996 7995 ] final  117.02 input   59.86 | X-H torsion
[ 10167 10162 10161 10158 ] final  176.50 input  -65.29 | X-H torsion
[ 10718 10713 10712 10709 ] final  160.36 input   66.30 | X-H torsion
[ 10763 10752 10751 10750 ] final -166.41 input  -60.55 | X-H torsion
[ 11005 11000 10999 10996 ] final   74.70 input  -57.11 | X-H torsion

> <Gold.Protein.ActiveResidues>
 VAL166  LYS551  ARG553  GLY616  TRP617  ASP618  TYR619  PRO620  LYS621  CYS622 
 ASP623  PHE694  ASN695  SER759  ASP760  ASP761  ALA762  ILE779  LEU786  VAL792 
 PHE793  MET794  SER795  GLU796  ALA797  LYS798  CYS799  TRP800  GLU811  SER814 

> <Gold.Protein.RotatedAtoms>
  150.9001  134.8413  159.7353 H   0  0  0  0  0  0  0  0  0  0  0  0  # atno 6907 bound_to 6896
  152.4887  134.4515  159.9586 H   0  0  0  0  0  0  0  0  0  0  0  0  # atno 6908 bound_to 6896
  151.4568  133.3564  159.2838 H   0  0  0  0  0  0  0  0  0  0  0  0  # atno 6909 bound_to 6896
  145.0485  140.8200  143.4223 H   0  0  0  0  0  0  0  0  0  0  0  0  # atno 7974 bound_to 7965
  156.2471  140.2905  156.0613 H   0  0  0  0  0  0  0  0  0  0  0  0  # atno 8008 bound_to 7997
  155.1772  140.0403  157.2892 H   0  0  0  0  0  0  0  0  0  0  0  0  # atno 8009 bound_to 7997
  154.6285  140.2493  155.7470 H   0  0  0  0  0  0  0  0  0  0  0  0  # atno 8010 bound_to 7997
  139.5217  144.2908  152.0465 H   0  0  0  0  0  0  0  0  0  0  0  0  # atno 10167 bound_to 10162
  157.1514  131.0565  151.2278 H   0  0  0  0  0  0  0  0  0  0  0  0  # atno 10718 bound_to 10713
  154.6835  135.2958  154.9579 H   0  0  0  0  0  0  0  0  0  0  0  0  # atno 10763 bound_to 10752
  154.0566  135.6637  153.4810 H   0  0  0  0  0  0  0  0  0  0  0  0  # atno 10764 bound_to 10752
  153.0563  135.5142  154.7891 H   0  0  0  0  0  0  0  0  0  0  0  0  # atno 10765 bound_to 10752
  139.9378  134.7455  156.1180 H   0  0  0  0  0  0  0  0  0  0  0  0  # atno 11005 bound_to 11000
  145.1557  139.2488  143.5417 LP  0  0  0  0  0  0  0  0  0  0  0  0  # atno 17320 bound_to 7965
  146.3516  140.1271  142.8598 LP  0  0  0  0  0  0  0  0  0  0  0  0  # atno 17321 bound_to 7965
  140.2359  144.4320  150.6280 LP  0  0  0  0  0  0  0  0  0  0  0  0  # atno 17342 bound_to 10162
  140.6323  143.2189  151.6468 LP  0  0  0  0  0  0  0  0  0  0  0  0  # atno 17343 bound_to 10162
  157.4217  130.7441  149.6918 LP  0  0  0  0  0  0  0  0  0  0  0  0  # atno 17370 bound_to 10713
  155.9770  130.4069  150.3743 LP  0  0  0  0  0  0  0  0  0  0  0  0  # atno 17371 bound_to 10713
  141.1000  133.6681  156.2732 LP  0  0  0  0  0  0  0  0  0  0  0  0  # atno 17394 bound_to 11000
  140.6029  134.5536  157.5520 LP  0  0  0  0  0  0  0  0  0  0  0  0  # atno 17395 bound_to 11000

$$$$
