AV-unprocessed.smi:3043|AV-procd|sdf|11603|dock2
  -GOLD-   2272016583D 1   1.00000     0.00000
 Structure written by MMmdl.
 44 45  0  0  0  0  0  0  0  0  2 V2000
  150.2033  140.0095  157.1689 C   0  0  0  0  0  0  0  0  0  0  0  0
  149.3794  140.9516  156.2882 C   0  0  0  0  0  0  0  0  0  0  0  0
  148.9346  141.9790  156.7997 O   0  0  0  0  0  0  0  0  0  0  0  0
  149.1712  140.6321  154.9881 N   0  0  0  0  0  0  0  0  0  0  0  0
  149.6459  139.3766  154.3942 C   0  0  0  0  0  0  0  0  0  0  0  0
  148.4319  138.4830  154.0825 C   0  0  0  0  0  0  0  0  0  0  0  0
  147.4258  139.2016  153.1561 C   0  0  0  0  0  0  0  0  0  0  0  0
  146.1745  138.3371  152.9176 C   0  0  0  0  0  0  0  0  0  0  0  0
  146.5101  136.8971  152.8866 N   0  3  0  0  0  0  0  0  0  0  0  0
  145.6893  136.0711  151.9731 C   0  0  2  0  0  0  0  0  0  0  0  0
  144.1874  136.2467  152.2724 C   0  0  0  0  0  0  0  0  0  0  0  0
  146.1480  134.6016  152.0731 C   0  0  0  0  0  0  0  0  0  0  0  0
  145.5260  133.7429  151.0808 N   0  0  0  0  0  0  0  0  0  0  0  0
  146.1152  132.7727  150.2977 C   0  0  0  0  0  0  0  0  0  0  0  0
  145.1351  132.2313  149.5161 C   0  0  0  0  0  0  0  0  0  0  0  0
  143.9639  132.9420  149.9013 C   0  0  0  0  0  0  0  0  0  0  0  0
  144.2013  133.8451  150.8393 N   0  0  0  0  0  0  0  0  0  0  0  0
  147.0790  140.5999  153.7204 C   0  0  0  0  0  0  0  0  0  0  0  0
  148.3522  141.4024  154.0439 C   0  0  0  0  0  0  0  0  0  0  0  0
  151.2030  139.8681  156.7572 H   0  0  0  0  0  0  0  0  0  0  0  0
  149.7149  139.0389  157.2601 H   0  0  0  0  0  0  0  0  0  0  0  0
  150.3138  140.4218  158.1723 H   0  0  0  0  0  0  0  0  0  0  0  0
  150.1980  139.5953  153.4790 H   0  0  0  0  0  0  0  0  0  0  0  0
  150.3434  138.8405  155.0393 H   0  0  0  0  0  0  0  0  0  0  0  0
  148.7699  137.5545  153.6210 H   0  0  0  0  0  0  0  0  0  0  0  0
  147.9415  138.2025  155.0160 H   0  0  0  0  0  0  0  0  0  0  0  0
  147.9226  139.3447  152.1947 H   0  0  0  0  0  0  0  0  0  0  0  0
  145.4537  138.5192  153.7145 H   0  0  0  0  0  0  0  0  0  0  0  0
  145.6918  138.6228  151.9818 H   0  0  0  0  0  0  0  0  0  0  0  0
  147.4710  136.8239  152.5843 H   0  0  0  0  0  0  0  0  0  0  0  0
  145.8801  136.4063  150.9524 H   0  0  0  0  0  0  0  0  0  0  0  0
  143.5715  135.6823  151.5719 H   0  0  0  0  0  0  0  0  0  0  0  0
  143.8747  137.2872  152.1926 H   0  0  0  0  0  0  0  0  0  0  0  0
  143.9432  135.9027  153.2779 H   0  0  0  0  0  0  0  0  0  0  0  0
  147.2290  134.5361  151.9420 H   0  0  0  0  0  0  0  0  0  0  0  0
  145.9330  134.2042  153.0669 H   0  0  0  0  0  0  0  0  0  0  0  0
  147.1709  132.5518  150.3593 H   0  0  0  0  0  0  0  0  0  0  0  0
  145.2380  131.4460  148.7818 H   0  0  0  0  0  0  0  0  0  0  0  0
  142.9558  132.8295  149.5302 H   0  0  0  0  0  0  0  0  0  0  0  0
  146.4710  141.1572  153.0072 H   0  0  0  0  0  0  0  0  0  0  0  0
  146.4782  140.4972  154.6254 H   0  0  0  0  0  0  0  0  0  0  0  0
  148.0825  142.3931  154.4065 H   0  0  0  0  0  0  0  0  0  0  0  0
  148.9255  141.5747  153.1319 H   0  0  0  0  0  0  0  0  0  0  0  0
  146.4393  136.5172  153.8199 H   0  0  0  0  0  0  0  0  0  0  0  0
  1  2  1  0  0  0  0
  1 20  1  0  0  0  0
  1 21  1  0  0  0  0
  1 22  1  0  0  0  0
  2  3  2  0  0  0  0
  2  4  1  0  0  0  0
  4 19  1  0  0  0  0
  4  5  1  0  0  0  0
  5  6  1  0  0  0  0
  5 23  1  0  0  0  0
  5 24  1  0  0  0  0
  6  7  1  0  0  0  0
  6 25  1  0  0  0  0
  6 26  1  0  0  0  0
  7  8  1  0  0  0  0
  7 18  1  0  0  0  0
  7 27  1  0  0  0  0
  8  9  1  0  0  0  0
  8 28  1  0  0  0  0
  8 29  1  0  0  0  0
  9 10  1  0  0  0  0
  9 30  1  0  0  0  0
  9 44  1  0  0  0  0
 10 11  1  0  0  0  0
 10 12  1  0  0  0  0
 10 31  1  0  0  0  0
 11 32  1  0  0  0  0
 11 33  1  0  0  0  0
 11 34  1  0  0  0  0
 12 13  1  0  0  0  0
 12 35  1  0  0  0  0
 12 36  1  0  0  0  0
 13 17  1  0  0  0  0
 13 14  1  0  0  0  0
 14 15  2  0  0  0  0
 14 37  1  0  0  0  0
 15 16  1  0  0  0  0
 15 38  1  0  0  0  0
 16 17  2  0  0  0  0
 16 39  1  0  0  0  0
 18 19  1  0  0  0  0
 18 40  1  0  0  0  0
 18 41  1  0  0  0  0
 19 42  1  0  0  0  0
 19 43  1  0  0  0  0
M  CHG  1   9   1
M  END
> <s_m_source_file>
AV-unprocessed.smi

> <i_m_source_file_index>
3043

> <i_lp_mmshare_version>
43012

> <i_f3d_flags>
0

> <s_epik_input>
W0NIM11DKD1PKU4xW0NIMl1bQ0gyXVtDSF0oW0NIMl1bQ0gyXTEpW0NIMl1bTkhdW0NASF0oW0NIM10pW0NIMl1uMltjSF1bY0hdW2NIXW4y

> <s_epik_cmdline>
J2VwaWtfcHl0aG9uJywgJy1waCcsICc3LjAnLCAnLXRuJywgJzgnLCAnLW1hJywgJzIwMCcsICctbWV0YWxfYmluZGluZycsICctaW1hZScsICc8aW5maWxlLm1hZT4nLCAnLW9tYWUnLCAnPG91dGZpbGUubWFlPic=

> <r_lp_tautomer_probability>
1

> <r_epik_Ionization_Penalty>
0.00300549

> <r_epik_Ionization_Penalty_Charging>
0.00299781

> <r_epik_Ionization_Penalty_Neutral>
7.6831e-06

> <r_epik_State_Penalty>
0.00210473

> <r_epik_Charging_Adjusted_Penalty>
0.00510254

> <i_epik_Tot_Q>
1

> <i_epik_Tot_abs_Q>
1

> <r_epik_Metal_State_Penalty>
-0

> <b_epik_Metal_Only>
0

> <s_lp_Force_Field>
OPLS_2005

> <r_lp_Energy>
29.3743

> <b_lp_Chiralities_Consistent>
1

> <s_lp_Variant>
AV-unprocessed.smi:3043-1

> <Gold.Version>
5.8.1

> <Gold.Id.Protein>
6NUR|6NUR_protein|mol2

> <Gold.PLP.Fitness>
43.9473

> <Gold.PLP.PLP>
-33.3249

> <Gold.PLP.part.hbond>
-1.0000

> <Gold.PLP.part.metal>
0.0000

> <Gold.PLP.part.buried>
-3.1506

> <Gold.PLP.part.nonpolar>
-31.0920

> <Gold.PLP.part.repulsive>
1.3973

> <Gold.PLP.ligand.clash>
0.0000

> <Gold.PLP.ligand.torsion>
0.7108

> <Gold.PLP.Chemscore.Hbond>
2.0000

> <Gold.PLP.Chemscore.CHOScore>
2.0000

> <Gold.PLP.Chemscore.Metal>
0.0000

> <Gold.Chemscore.Hbonds>
donor molecule, donor type, donor heavy atom, donor atom, acceptor molecule, acceptor atom, score
      L1  H     9    30       P1  7948  2.00
      L1  C    14    37       P1 10747  1.00
      L1  C    16    39       P1 10186  1.00

> <Gold.PLP.Chemscore.Internal.Correction>
0.0439

> <Gold.Rescore>
     Score         DG    S(hbond)    S(metal)    S(lipo)     H(rot)  DE(clash)    DE(int)     intcor
     12.38     -14.59       1.00        0.00      87.42       1.74       0.14       2.06       ----

> <Gold.Chemscore.Fitness>
12.3837

> <Gold.Chemscore.DG>
-14.5854

> <Gold.Chemscore.ZeroCoef>
-5.4800

> <Gold.Chemscore.Hbond>
0.9991

> <Gold.Chemscore.Metal>
0.0000

> <Gold.Chemscore.Lipo>
87.4227

> <Gold.Chemscore.Internal_Hbond>
0.0000

> <Gold.Chemscore.DEClash>
0.1372

> <Gold.Chemscore.DEInternal>
2.0646

> <Gold.Chemscore.Rot>
1.7422

> <Gold.Chemscore.Internal.Correction>
   9.000000E+99

> <Gold.Chemscore.Hbonds>
donor molecule, donor type, donor heavy atom, donor atom, acceptor molecule, acceptor atom, score
      L1  H     9    30       P1  7948  1.00

> <Gold.Chemscore.Hbond.Weighted>
-3.3369

> <Gold.Chemscore.Metal.Weighted>
-0.0000

> <Gold.Chemscore.Lipo.Weighted>
-10.2285

> <Gold.Chemscore.Internal_Hbond.Weighted>
0.0000

> <Gold.Chemscore.DEClash.Weighted>
0.1372

> <Gold.Chemscore.DEInternal.Weighted>
2.0646

> <Gold.Chemscore.Rot.Weighted>
4.4600

> <Gold.Chemscore.Internal.Correction.Weighted>
   9.000000E+99

> <Gold.Protein.RotatedTorsions>
[ 6907 6896 6895 6894 ] final  -46.58 input  -60.11 | X-H torsion
[ 7974 7965 7964 7962 ] final -172.37 input  175.53 | X-H torsion
[ 8008 7997 7996 7995 ] final   85.62 input   59.86 | X-H torsion
[ 10167 10162 10161 10158 ] final   87.13 input  -65.29 | X-H torsion
[ 10718 10713 10712 10709 ] final  -27.06 input   66.30 | X-H torsion
[ 10763 10752 10751 10750 ] final   67.33 input  -60.55 | X-H torsion
[ 11005 11000 10999 10996 ] final -176.24 input  -57.11 | X-H torsion

> <Gold.Protein.ActiveResidues>
 VAL166  LYS551  ARG553  GLY616  TRP617  ASP618  TYR619  PRO620  LYS621  CYS622 
 ASP623  PHE694  ASN695  SER759  ASP760  ASP761  ALA762  ILE779  LEU786  VAL792 
 PHE793  MET794  SER795  GLU796  ALA797  LYS798  CYS799  TRP800  GLU811  SER814 

> <Gold.Protein.RotatedAtoms>
  150.9098  134.8514  159.7417 H   0  0  0  0  0  0  0  0  0  0  0  0  # atno 6907 bound_to 6896
  152.4938  134.4376  159.9543 H   0  0  0  0  0  0  0  0  0  0  0  0  # atno 6908 bound_to 6896
  151.4420  133.3601  159.2818 H   0  0  0  0  0  0  0  0  0  0  0  0  # atno 6909 bound_to 6896
  144.7147  140.1782  143.6361 H   0  0  0  0  0  0  0  0  0  0  0  0  # atno 7974 bound_to 7965
  155.9523  140.3400  155.6418 H   0  0  0  0  0  0  0  0  0  0  0  0  # atno 8008 bound_to 7997
  155.6904  140.0748  157.2468 H   0  0  0  0  0  0  0  0  0  0  0  0  # atno 8009 bound_to 7997
  154.4124  140.1658  156.2068 H   0  0  0  0  0  0  0  0  0  0  0  0  # atno 8010 bound_to 7997
  139.8804  144.6443  150.8849 H   0  0  0  0  0  0  0  0  0  0  0  0  # atno 10167 bound_to 10162
  156.4430  130.4468  149.7040 H   0  0  0  0  0  0  0  0  0  0  0  0  # atno 10718 bound_to 10713
  153.0181  135.5288  154.6962 H   0  0  0  0  0  0  0  0  0  0  0  0  # atno 10763 bound_to 10752
  154.6083  135.2875  155.0462 H   0  0  0  0  0  0  0  0  0  0  0  0  # atno 10764 bound_to 10752
  154.1493  135.6565  153.5012 H   0  0  0  0  0  0  0  0  0  0  0  0  # atno 10765 bound_to 10752
  140.4543  134.6314  157.4815 H   0  0  0  0  0  0  0  0  0  0  0  0  # atno 11005 bound_to 11000
  145.8880  139.2360  143.1566 LP  0  0  0  0  0  0  0  0  0  0  0  0  # atno 17320 bound_to 7965
  145.9931  140.8586  143.0056 LP  0  0  0  0  0  0  0  0  0  0  0  0  # atno 17321 bound_to 7965
  140.7745  143.3590  151.1865 LP  0  0  0  0  0  0  0  0  0  0  0  0  # atno 17342 bound_to 10162
  139.7201  143.9237  152.2982 LP  0  0  0  0  0  0  0  0  0  0  0  0  # atno 17343 bound_to 10162
  156.3897  130.7620  151.2620 LP  0  0  0  0  0  0  0  0  0  0  0  0  # atno 17370 bound_to 10713
  157.7505  131.0271  150.3993 LP  0  0  0  0  0  0  0  0  0  0  0  0  # atno 17371 bound_to 10713
  139.9986  134.6872  155.9568 LP  0  0  0  0  0  0  0  0  0  0  0  0  # atno 17394 bound_to 11000
  141.1650  133.6537  156.4448 LP  0  0  0  0  0  0  0  0  0  0  0  0  # atno 17395 bound_to 11000

$$$$
