AV-unprocessed.smi:1840|AV-procd|sdf|7492|dock8
  -GOLD-   22720 9193D 1   1.00000     0.00000
 Structure written by MMmdl.
 43 44  0  0  0  0  0  0  0  0  1 V2000
  144.1988  135.3996  153.0246 C   0  0  0  0  0  0  0  0  0  0  0  0
  145.0828  136.2583  152.1106 C   0  0  2  0  0  0  0  0  0  0  0  0
  145.1118  135.7049  150.6690 C   0  0  0  0  0  0  0  0  0  0  0  0
  145.1791  134.2533  150.6284 N   0  0  0  0  0  0  0  0  0  0  0  0
  144.2541  133.3665  150.1189 C   0  0  0  0  0  0  0  0  0  0  0  0
  144.7674  132.1106  150.2742 C   0  0  0  0  0  0  0  0  0  0  0  0
  146.0262  132.3340  150.8989 C   0  0  0  0  0  0  0  0  0  0  0  0
  146.2678  133.6167  151.1147 N   0  0  0  0  0  0  0  0  0  0  0  0
  146.4346  136.3162  152.6654 N   0  0  0  0  0  0  0  0  0  0  0  0
  146.7340  136.5516  153.9512 C   0  0  0  0  0  0  0  0  0  0  0  0
  145.9007  136.6303  154.8542 O   0  0  0  0  0  0  0  0  0  0  0  0
  148.0479  136.7452  154.1242 N   0  0  0  0  0  0  0  0  0  0  0  0
  148.6855  137.1523  155.3766 C   0  0  2  0  0  0  0  0  0  0  0  0
  148.5696  138.6796  155.5882 C   0  0  0  0  0  0  0  0  0  0  0  0
  149.4216  139.4692  154.5805 C   0  0  0  0  0  0  0  0  0  0  0  0
  150.8900  139.0207  154.6281 C   0  0  0  0  0  0  0  0  0  0  0  0
  151.0218  137.5045  154.4086 C   0  0  0  0  0  0  0  0  0  0  0  0
  150.1681  136.7054  155.4165 C   0  0  2  0  0  0  0  0  0  0  0  0
  150.3398  135.1885  155.2265 C   0  0  0  0  0  0  0  0  0  0  0  0
  143.1749  135.3590  152.6524 H   0  0  0  0  0  0  0  0  0  0  0  0
  144.1646  135.8086  154.0350 H   0  0  0  0  0  0  0  0  0  0  0  0
  144.5696  134.3761  153.0906 H   0  0  0  0  0  0  0  0  0  0  0  0
  144.6471  137.2588  152.0884 H   0  0  0  0  0  0  0  0  0  0  0  0
  144.2331  136.0376  150.1133 H   0  0  0  0  0  0  0  0  0  0  0  0
  145.9803  136.0943  150.1368 H   0  0  0  0  0  0  0  0  0  0  0  0
  143.3234  133.7005  149.6842 H   0  0  0  0  0  0  0  0  0  0  0  0
  144.3146  131.1749  149.9817 H   0  0  0  0  0  0  0  0  0  0  0  0
  146.7668  131.6073  151.1991 H   0  0  0  0  0  0  0  0  0  0  0  0
  147.1963  136.2677  152.0047 H   0  0  0  0  0  0  0  0  0  0  0  0
  148.6494  136.6632  153.3176 H   0  0  0  0  0  0  0  0  0  0  0  0
  148.1619  136.6532  156.1943 H   0  0  0  0  0  0  0  0  0  0  0  0
  147.5294  139.0019  155.5263 H   0  0  0  0  0  0  0  0  0  0  0  0
  148.8968  138.9249  156.5994 H   0  0  0  0  0  0  0  0  0  0  0  0
  149.0260  139.3311  153.5734 H   0  0  0  0  0  0  0  0  0  0  0  0
  149.3522  140.5364  154.7929 H   0  0  0  0  0  0  0  0  0  0  0  0
  151.4668  139.5572  153.8741 H   0  0  0  0  0  0  0  0  0  0  0  0
  151.3209  139.2874  155.5941 H   0  0  0  0  0  0  0  0  0  0  0  0
  150.7238  137.2577  153.3889 H   0  0  0  0  0  0  0  0  0  0  0  0
  152.0695  137.2159  154.4989 H   0  0  0  0  0  0  0  0  0  0  0  0
  150.5451  136.9395  156.4135 H   0  0  0  0  0  0  0  0  0  0  0  0
  150.0370  134.8681  154.2293 H   0  0  0  0  0  0  0  0  0  0  0  0
  149.7435  134.6331  155.9510 H   0  0  0  0  0  0  0  0  0  0  0  0
  151.3806  134.8934  155.3636 H   0  0  0  0  0  0  0  0  0  0  0  0
  1  2  1  0  0  0  0
  1 20  1  0  0  0  0
  1 21  1  0  0  0  0
  1 22  1  0  0  0  0
  2  3  1  0  0  0  0
  2  9  1  0  0  0  0
  2 23  1  0  0  0  0
  3  4  1  0  0  0  0
  3 24  1  0  0  0  0
  3 25  1  0  0  0  0
  4  8  1  0  0  0  0
  4  5  1  0  0  0  0
  5  6  2  0  0  0  0
  5 26  1  0  0  0  0
  6  7  1  0  0  0  0
  6 27  1  0  0  0  0
  7  8  2  0  0  0  0
  7 28  1  0  0  0  0
  9 10  1  0  0  0  0
  9 29  1  0  0  0  0
 10 11  2  0  0  0  0
 10 12  1  0  0  0  0
 12 13  1  0  0  0  0
 12 30  1  0  0  0  0
 13 18  1  0  0  0  0
 13 14  1  0  0  0  0
 13 31  1  0  0  0  0
 14 15  1  0  0  0  0
 14 32  1  0  0  0  0
 14 33  1  0  0  0  0
 15 16  1  0  0  0  0
 15 34  1  0  0  0  0
 15 35  1  0  0  0  0
 16 17  1  0  0  0  0
 16 36  1  0  0  0  0
 16 37  1  0  0  0  0
 17 18  1  0  0  0  0
 17 38  1  0  0  0  0
 17 39  1  0  0  0  0
 18 19  1  0  0  0  0
 18 40  1  0  0  0  0
 19 41  1  0  0  0  0
 19 42  1  0  0  0  0
 19 43  1  0  0  0  0
M  END
> <s_m_source_file>
AV-unprocessed.smi

> <i_m_source_file_index>
1840

> <i_lp_mmshare_version>
43012

> <i_f3d_flags>
0

> <s_epik_input>
bjFbY0hdW2NIXVtjSF1uMVtDSDJdW0NAQEhdKFtDSDNdKVtOSF1DKD1PKVtOSF1bQ0BASF0yW0NIMl1bQ0gyXVtDSDJdW0NIMl1bQ0BIXTJbQ0gzXQ==

> <s_epik_cmdline>
J2VwaWtfcHl0aG9uJywgJy1waCcsICc3LjAnLCAnLXRuJywgJzgnLCAnLW1hJywgJzIwMCcsICctbWV0YWxfYmluZGluZycsICctaW1hZScsICc8aW5maWxlLm1hZT4nLCAnLW9tYWUnLCAnPG91dGZpbGUubWFlPic=

> <r_lp_tautomer_probability>
1

> <r_epik_Ionization_Penalty>
7.38659e-05

> <r_epik_Ionization_Penalty_Charging>
0

> <r_epik_Ionization_Penalty_Neutral>
7.38659e-05

> <r_epik_State_Penalty>
-0

> <r_epik_Charging_Adjusted_Penalty>
0

> <i_epik_Tot_Q>
0

> <i_epik_Tot_abs_Q>
0

> <r_epik_Metal_State_Penalty>
-0

> <b_epik_Metal_Only>
0

> <s_lp_Force_Field>
OPLS_2005

> <r_lp_Energy>
6.60397

> <b_lp_Chiralities_Consistent>
1

> <s_lp_Variant>
AV-unprocessed.smi:1840-5

> <Gold.Version>
5.8.1

> <Gold.Id.Protein>
6NUR|6NUR_protein|mol2

> <Gold.PLP.Fitness>
41.6004

> <Gold.PLP.PLP>
-31.1974

> <Gold.PLP.part.hbond>
-1.8460

> <Gold.PLP.part.metal>
0.0000

> <Gold.PLP.part.buried>
-3.3767

> <Gold.PLP.part.nonpolar>
-26.1398

> <Gold.PLP.part.repulsive>
0.2430

> <Gold.PLP.ligand.clash>
0.0000

> <Gold.PLP.ligand.torsion>
0.6745

> <Gold.PLP.Chemscore.Hbond>
1.9120

> <Gold.PLP.Chemscore.CHOScore>
2.0000

> <Gold.PLP.Chemscore.Metal>
0.0000

> <Gold.Chemscore.Hbonds>
donor molecule, donor type, donor heavy atom, donor atom, acceptor molecule, acceptor atom, score
      L1  H     9    29       P1  7948  0.91
      L1  H    12    30       P1  7948  1.00
      L1  C     5    26       P1 10186  1.00
      L1  C     7    28       P1 10747  1.00

> <Gold.PLP.Chemscore.Internal.Correction>
0.0159

> <Gold.Rescore>
     Score         DG    S(hbond)    S(metal)    S(lipo)     H(rot)  DE(clash)    DE(int)     intcor
     14.72     -16.71       1.92        0.00      75.22       1.56       0.03       1.96       ----

> <Gold.Chemscore.Fitness>
14.7220

> <Gold.Chemscore.DG>
-16.7075

> <Gold.Chemscore.ZeroCoef>
-5.4800

> <Gold.Chemscore.Hbond>
1.9206

> <Gold.Chemscore.Metal>
0.0000

> <Gold.Chemscore.Lipo>
75.2157

> <Gold.Chemscore.Internal_Hbond>
0.0000

> <Gold.Chemscore.DEClash>
0.0270

> <Gold.Chemscore.DEInternal>
1.9584

> <Gold.Chemscore.Rot>
1.5576

> <Gold.Chemscore.Internal.Correction>
   9.000000E+99

> <Gold.Chemscore.Hbonds>
donor molecule, donor type, donor heavy atom, donor atom, acceptor molecule, acceptor atom, score
      L1  H     9    29       P1  7948  0.88
      L1  H    12    30       P1  7948  0.92

> <Gold.Chemscore.Hbond.Weighted>
-6.4148

> <Gold.Chemscore.Metal.Weighted>
-0.0000

> <Gold.Chemscore.Lipo.Weighted>
-8.8002

> <Gold.Chemscore.Internal_Hbond.Weighted>
0.0000

> <Gold.Chemscore.DEClash.Weighted>
0.0270

> <Gold.Chemscore.DEInternal.Weighted>
1.9584

> <Gold.Chemscore.Rot.Weighted>
3.9875

> <Gold.Chemscore.Internal.Correction.Weighted>
   9.000000E+99

> <Gold.Protein.RotatedTorsions>
[ 6907 6896 6895 6894 ] final -103.13 input  -60.11 | X-H torsion
[ 7974 7965 7964 7962 ] final  -18.37 input  175.53 | X-H torsion
[ 8008 7997 7996 7995 ] final  -26.26 input   59.86 | X-H torsion
[ 10167 10162 10161 10158 ] final  177.87 input  -65.29 | X-H torsion
[ 10718 10713 10712 10709 ] final   42.41 input   66.30 | X-H torsion
[ 10763 10752 10751 10750 ] final    1.98 input  -60.55 | X-H torsion
[ 11005 11000 10999 10996 ] final   18.01 input  -57.11 | X-H torsion

> <Gold.Protein.ActiveResidues>
 VAL166  LYS551  ARG553  GLY616  TRP617  ASP618  TYR619  PRO620  LYS621  CYS622 
 ASP623  PHE694  ASN695  SER759  ASP760  ASP761  ALA762  ILE779  LEU786  VAL792 
 PHE793  MET794  SER795  GLU796  ALA797  LYS798  CYS799  TRP800  GLU811  SER814 

> <Gold.Protein.RotatedAtoms>
  150.7226  134.0476  159.3786 H   0  0  0  0  0  0  0  0  0  0  0  0  # atno 6907 bound_to 6896
  151.8451  135.0574  160.0462 H   0  0  0  0  0  0  0  0  0  0  0  0  # atno 6908 bound_to 6896
  152.2833  133.5455  159.5547 H   0  0  0  0  0  0  0  0  0  0  0  0  # atno 6909 bound_to 6896
  146.1895  140.3912  142.8463 H   0  0  0  0  0  0  0  0  0  0  0  0  # atno 7974 bound_to 7965
  154.4434  140.1904  156.0748 H   0  0  0  0  0  0  0  0  0  0  0  0  # atno 8008 bound_to 7997
  156.0484  140.3311  155.7296 H   0  0  0  0  0  0  0  0  0  0  0  0  # atno 8009 bound_to 7997
  155.5595  140.0602  157.2823 H   0  0  0  0  0  0  0  0  0  0  0  0  # atno 8010 bound_to 7997
  139.5271  144.2747  152.0598 H   0  0  0  0  0  0  0  0  0  0  0  0  # atno 10167 bound_to 10162
  157.4046  130.7879  149.7377 H   0  0  0  0  0  0  0  0  0  0  0  0  # atno 10718 bound_to 10713
  153.3013  135.6956  153.7200 H   0  0  0  0  0  0  0  0  0  0  0  0  # atno 10763 bound_to 10752
  153.6113  135.3444  155.2980 H   0  0  0  0  0  0  0  0  0  0  0  0  # atno 10764 bound_to 10752
  154.8551  135.4364  154.2125 H   0  0  0  0  0  0  0  0  0  0  0  0  # atno 10765 bound_to 10752
  140.4295  134.1434  155.7679 H   0  0  0  0  0  0  0  0  0  0  0  0  # atno 11005 bound_to 11000
  144.8460  140.6929  143.6199 LP  0  0  0  0  0  0  0  0  0  0  0  0  # atno 17320 bound_to 7965
  145.3836  139.1631  143.4267 LP  0  0  0  0  0  0  0  0  0  0  0  0  # atno 17321 bound_to 7965
  140.2205  144.4471  150.6344 LP  0  0  0  0  0  0  0  0  0  0  0  0  # atno 17342 bound_to 10162
  140.6422  143.2206  151.6266 LP  0  0  0  0  0  0  0  0  0  0  0  0  # atno 17343 bound_to 10162
  155.9833  130.4002  150.3372 LP  0  0  0  0  0  0  0  0  0  0  0  0  # atno 17370 bound_to 10713
  157.1504  131.0319  151.2888 LP  0  0  0  0  0  0  0  0  0  0  0  0  # atno 17371 bound_to 10713
  141.1751  133.8530  157.1446 LP  0  0  0  0  0  0  0  0  0  0  0  0  # atno 17394 bound_to 11000
  140.0144  134.9974  157.0462 LP  0  0  0  0  0  0  0  0  0  0  0  0  # atno 17395 bound_to 11000

$$$$
