AV-unprocessed.smi:58|AV-procd|sdf|584|dock2
  -GOLD-   2262016483D 1   1.00000     0.00000
 Structure written by MMmdl.
 32 33  0  0  0  0  0  0  0  0  1 V2000
  151.7748  144.3744  158.8766 C   0  0  0  0  0  0  0  0  0  0  0  0
  151.5980  143.0546  158.3104 N   0  0  0  0  0  0  0  0  0  0  0  0
  151.9254  141.8324  158.8559 C   0  0  0  0  0  0  0  0  0  0  0  0
  151.5782  140.8734  157.9472 C   0  0  0  0  0  0  0  0  0  0  0  0
  151.7512  139.4831  158.1098 N   0  0  0  0  0  0  0  0  0  0  0  0
  151.0176  141.6192  156.8645 C   0  0  0  0  0  0  0  0  0  0  0  0
  150.5412  140.9384  155.6130 C   0  0  0  0  0  0  0  0  0  0  0  0
  151.2856  140.1435  155.0385 O   0  0  0  0  0  0  0  0  0  0  0  0
  149.2820  141.2070  155.1955 N   0  0  0  0  0  0  0  0  0  0  0  0
  148.3651  142.1646  155.8200 C   0  0  0  0  0  0  0  0  0  0  0  0
  147.0278  142.0173  155.0951 C   0  0  0  0  0  0  0  0  0  0  0  0
  147.3970  141.4395  153.7358 C   0  0  0  0  0  0  0  0  0  0  0  0
  148.6702  140.6226  153.9943 C   0  0  2  0  0  0  0  0  0  0  0  0
  148.4192  139.1006  154.1240 C   0  0  0  0  0  0  0  0  0  0  0  0
  147.9690  138.5269  152.9133 O   0  0  0  0  0  0  0  0  0  0  0  0
  151.0536  142.9270  157.0835 N   0  0  0  0  0  0  0  0  0  0  0  0
  152.1745  144.2970  159.8880 H   0  0  0  0  0  0  0  0  0  0  0  0
  150.8163  144.8932  158.9132 H   0  0  0  0  0  0  0  0  0  0  0  0
  152.4702  144.9479  158.2631 H   0  0  0  0  0  0  0  0  0  0  0  0
  152.3782  141.7479  159.8329 H   0  0  0  0  0  0  0  0  0  0  0  0
  152.1611  139.0917  158.9462 H   0  0  0  0  0  0  0  0  0  0  0  0
  151.4255  138.8200  157.4211 H   0  0  0  0  0  0  0  0  0  0  0  0
  148.2524  141.9871  156.8906 H   0  0  0  0  0  0  0  0  0  0  0  0
  148.7529  143.1745  155.6800 H   0  0  0  0  0  0  0  0  0  0  0  0
  146.3949  141.3117  155.6343 H   0  0  0  0  0  0  0  0  0  0  0  0
  146.4830  142.9588  155.0199 H   0  0  0  0  0  0  0  0  0  0  0  0
  146.5898  140.8555  153.2924 H   0  0  0  0  0  0  0  0  0  0  0  0
  147.6245  142.2564  153.0496 H   0  0  0  0  0  0  0  0  0  0  0  0
  149.3488  140.7744  153.1529 H   0  0  0  0  0  0  0  0  0  0  0  0
  149.3453  138.6011  154.4098 H   0  0  0  0  0  0  0  0  0  0  0  0
  147.6974  138.8788  154.9095 H   0  0  0  0  0  0  0  0  0  0  0  0
  148.4827  138.8816  152.2038 H   0  0  0  0  0  0  0  0  0  0  0  0
  1  2  1  0  0  0  0
  1 17  1  0  0  0  0
  1 18  1  0  0  0  0
  1 19  1  0  0  0  0
  2 16  1  0  0  0  0
  2  3  1  0  0  0  0
  3  4  2  0  0  0  0
  3 20  1  0  0  0  0
  4  5  1  0  0  0  0
  4  6  1  0  0  0  0
  5 21  1  0  0  0  0
  5 22  1  0  0  0  0
  6  7  1  0  0  0  0
  6 16  2  0  0  0  0
  7  8  2  0  0  0  0
  7  9  1  0  0  0  0
  9 13  1  0  0  0  0
  9 10  1  0  0  0  0
 10 11  1  0  0  0  0
 10 23  1  0  0  0  0
 10 24  1  0  0  0  0
 11 12  1  0  0  0  0
 11 25  1  0  0  0  0
 11 26  1  0  0  0  0
 12 13  1  0  0  0  0
 12 27  1  0  0  0  0
 12 28  1  0  0  0  0
 13 14  1  0  0  0  0
 13 29  1  0  0  0  0
 14 15  1  0  0  0  0
 14 30  1  0  0  0  0
 14 31  1  0  0  0  0
 15 32  1  0  0  0  0
M  END
> <s_m_source_file>
AV-unprocessed.smi

> <i_m_source_file_index>
58

> <i_lp_mmshare_version>
43012

> <i_f3d_flags>
0

> <s_epik_input>
W0NIM11uMVtjSF1jKFtOSDJdKWMobjEpQyg9TylOMltDSDJdW0NIMl1bQ0gyXVtDQEhdMltDSDJdW09IXQ==

> <s_epik_cmdline>
J2VwaWtfcHl0aG9uJywgJy1waCcsICc3LjAnLCAnLXRuJywgJzgnLCAnLW1hJywgJzIwMCcsICctbWV0YWxfYmluZGluZycsICctaW1hZScsICc8aW5maWxlLm1hZT4nLCAnLW9tYWUnLCAnPG91dGZpbGUubWFlPic=

> <r_lp_tautomer_probability>
1

> <r_epik_Ionization_Penalty>
5.64206e-05

> <r_epik_Ionization_Penalty_Charging>
0

> <r_epik_Ionization_Penalty_Neutral>
5.64206e-05

> <r_epik_State_Penalty>
-0

> <r_epik_Charging_Adjusted_Penalty>
0

> <i_epik_Tot_Q>
0

> <i_epik_Tot_abs_Q>
0

> <r_epik_Metal_State_Penalty>
-0

> <b_epik_Metal_Only>
0

> <s_lp_Force_Field>
OPLS_2005

> <r_lp_Energy>
44.4621

> <b_lp_Chiralities_Consistent>
1

> <s_lp_Variant>
AV-unprocessed.smi:58-2

> <Gold.Version>
5.8.1

> <Gold.Id.Protein>
6NUR|6NUR_protein|mol2

> <Gold.PLP.Fitness>
35.0971

> <Gold.PLP.PLP>
-30.6221

> <Gold.PLP.part.hbond>
-3.0000

> <Gold.PLP.part.metal>
0.0000

> <Gold.PLP.part.buried>
-0.6557

> <Gold.PLP.part.nonpolar>
-27.4695

> <Gold.PLP.part.repulsive>
0.3526

> <Gold.PLP.ligand.clash>
0.0000

> <Gold.PLP.ligand.torsion>
0.9891

> <Gold.PLP.Chemscore.Hbond>
2.0000

> <Gold.PLP.Chemscore.CHOScore>
0.0000

> <Gold.PLP.Chemscore.Metal>
0.0000

> <Gold.Chemscore.Hbonds>
donor molecule, donor type, donor heavy atom, donor atom, acceptor molecule, acceptor atom, score
      L1  H    15    32       P1  7957  1.00
      P1  H  7989  7998       L1     8  1.00

> <Gold.PLP.Chemscore.Internal.Correction>
0.4532

> <Gold.Rescore>
     Score         DG    S(hbond)    S(metal)    S(lipo)     H(rot)  DE(clash)    DE(int)     intcor
     12.88     -15.33       1.93        0.00      61.81       1.49       1.28       1.18       ----

> <Gold.Chemscore.Fitness>
12.8814

> <Gold.Chemscore.DG>
-15.3348

> <Gold.Chemscore.ZeroCoef>
-5.4800

> <Gold.Chemscore.Hbond>
1.9278

> <Gold.Chemscore.Metal>
0.0000

> <Gold.Chemscore.Lipo>
61.8146

> <Gold.Chemscore.Internal_Hbond>
0.0000

> <Gold.Chemscore.DEClash>
1.2778

> <Gold.Chemscore.DEInternal>
1.1756

> <Gold.Chemscore.Rot>
1.4907

> <Gold.Chemscore.Internal.Correction>
   9.000000E+99

> <Gold.Chemscore.Hbonds>
donor molecule, donor type, donor heavy atom, donor atom, acceptor molecule, acceptor atom, score
      L1  H    15    32       P1  7957  0.97
      P1  H  7989  7998       L1     8  0.49

> <Gold.Chemscore.Hbond.Weighted>
-6.4388

> <Gold.Chemscore.Metal.Weighted>
-0.0000

> <Gold.Chemscore.Lipo.Weighted>
-7.2323

> <Gold.Chemscore.Internal_Hbond.Weighted>
0.0000

> <Gold.Chemscore.DEClash.Weighted>
1.2778

> <Gold.Chemscore.DEInternal.Weighted>
1.1756

> <Gold.Chemscore.Rot.Weighted>
3.8163

> <Gold.Chemscore.Internal.Correction.Weighted>
   9.000000E+99

> <Gold.Protein.RotatedTorsions>
[ 6907 6896 6895 6894 ] final   27.16 input  -60.11 | X-H torsion
[ 7974 7965 7964 7962 ] final   40.87 input  175.53 | X-H torsion
[ 8008 7997 7996 7995 ] final   51.26 input   59.86 | X-H torsion
[ 10167 10162 10161 10158 ] final   49.75 input  -65.29 | X-H torsion
[ 10718 10713 10712 10709 ] final   -8.78 input   66.30 | X-H torsion
[ 10763 10752 10751 10750 ] final  -44.24 input  -60.55 | X-H torsion
[ 11005 11000 10999 10996 ] final -107.72 input  -57.11 | X-H torsion

> <Gold.Protein.ActiveResidues>
 VAL166  LYS551  ARG553  GLY616  TRP617  ASP618  TYR619  PRO620  LYS621  CYS622 
 ASP623  PHE694  ASN695  SER759  ASP760  ASP761  ALA762  ILE779  LEU786  VAL792 
 PHE793  MET794  SER795  GLU796  ALA797  LYS798  CYS799  TRP800  GLU811  SER814 

> <Gold.Protein.RotatedAtoms>
  151.9982  134.9943  160.0563 H   0  0  0  0  0  0  0  0  0  0  0  0  # atno 6907 bound_to 6896
  152.1544  133.4537  159.4838 H   0  0  0  0  0  0  0  0  0  0  0  0  # atno 6908 bound_to 6896
  150.6879  134.2067  159.4386 H   0  0  0  0  0  0  0  0  0  0  0  0  # atno 6909 bound_to 6896
  146.0870  139.5482  142.9500 H   0  0  0  0  0  0  0  0  0  0  0  0  # atno 7974 bound_to 7965
  155.4324  140.3451  155.4281 H   0  0  0  0  0  0  0  0  0  0  0  0  # atno 8008 bound_to 7997
  156.1328  140.1519  156.9070 H   0  0  0  0  0  0  0  0  0  0  0  0  # atno 8009 bound_to 7997
  154.4908  140.0841  156.7571 H   0  0  0  0  0  0  0  0  0  0  0  0  # atno 8010 bound_to 7997
  140.2796  144.3172  150.6268 H   0  0  0  0  0  0  0  0  0  0  0  0  # atno 10167 bound_to 10162
  156.6976  130.5084  149.5926 H   0  0  0  0  0  0  0  0  0  0  0  0  # atno 10718 bound_to 10713
  154.0088  135.6684  153.4764 H   0  0  0  0  0  0  0  0  0  0  0  0  # atno 10763 bound_to 10752
  153.0630  135.5017  154.8132 H   0  0  0  0  0  0  0  0  0  0  0  0  # atno 10764 bound_to 10752
  154.7008  135.3078  154.9307 H   0  0  0  0  0  0  0  0  0  0  0  0  # atno 10765 bound_to 10752
  141.0939  133.9005  157.2009 H   0  0  0  0  0  0  0  0  0  0  0  0  # atno 11005 bound_to 11000
  145.6111  141.0339  143.1966 LP  0  0  0  0  0  0  0  0  0  0  0  0  # atno 17320 bound_to 7965
  144.7333  139.7661  143.7339 LP  0  0  0  0  0  0  0  0  0  0  0  0  # atno 17321 bound_to 7965
  140.5823  143.2172  151.7406 LP  0  0  0  0  0  0  0  0  0  0  0  0  # atno 17342 bound_to 10162
  139.4966  144.4062  152.0129 LP  0  0  0  0  0  0  0  0  0  0  0  0  # atno 17343 bound_to 10162
  156.1752  130.6463  151.0885 LP  0  0  0  0  0  0  0  0  0  0  0  0  # atno 17370 bound_to 10713
  157.6985  131.0785  150.6894 LP  0  0  0  0  0  0  0  0  0  0  0  0  # atno 17371 bound_to 10713
  139.9771  135.0110  156.9659 LP  0  0  0  0  0  0  0  0  0  0  0  0  # atno 17394 bound_to 11000
  140.5186  134.0930  155.7286 LP  0  0  0  0  0  0  0  0  0  0  0  0  # atno 17395 bound_to 11000

$$$$
