AV-unprocessed.smi:38|AV-procd|sdf|345|dock8
  -GOLD-   2262016183D 1   1.00000     0.00000
 Structure written by MMmdl.
 27 28  0  0  0  0  0  0  0  0  2 V2000
  152.6269  136.4343  156.4535 O   0  0  0  0  0  0  0  0  0  0  0  0
  151.9041  137.2933  155.9504 C   0  0  0  0  0  0  0  0  0  0  0  0
  152.1514  138.6301  156.0718 N   0  5  0  0  0  0  0  0  0  0  0  0
  151.3464  139.5827  155.5156 C   0  0  0  0  0  0  0  0  0  0  0  0
  151.5756  140.7894  155.5992 O   0  0  0  0  0  0  0  0  0  0  0  0
  150.1920  139.1697  154.7970 N   0  0  0  0  0  0  0  0  0  0  0  0
  149.2975  140.2081  154.1645 C   0  0  1  0  0  0  0  0  0  0  0  0
  148.1309  139.5559  153.4303 C   0  0  0  0  0  0  0  0  0  0  0  0
  147.0220  140.5900  153.5980 C   0  0  1  0  0  0  0  0  0  0  0  0
  145.8331  139.9585  154.0367 O   0  0  0  0  0  0  0  0  0  0  0  0
  147.5899  141.6302  154.5932 C   0  0  1  0  0  0  0  0  0  0  0  0
  146.6359  142.0979  155.7083 C   0  0  0  0  0  0  0  0  0  0  0  0
  147.3741  142.6003  156.8018 O   0  0  0  0  0  0  0  0  0  0  0  0
  148.7250  140.9888  155.1599 O   0  0  0  0  0  0  0  0  0  0  0  0
  149.9264  137.8201  154.6398 C   0  0  0  0  0  0  0  0  0  0  0  0
  150.7287  136.8826  155.1841 C   0  0  0  0  0  0  0  0  0  0  0  0
  150.4471  135.5792  155.0137 F   0  0  0  0  0  0  0  0  0  0  0  0
  149.9210  140.8427  153.5315 H   0  0  0  0  0  0  0  0  0  0  0  0
  146.8110  141.0764  152.6451 H   0  0  0  0  0  0  0  0  0  0  0  0
  147.9385  142.4902  154.0175 H   0  0  0  0  0  0  0  0  0  0  0  0
  148.3924  139.3542  152.3910 H   0  0  0  0  0  0  0  0  0  0  0  0
  147.8762  138.6144  153.9210 H   0  0  0  0  0  0  0  0  0  0  0  0
  145.2094  139.9655  153.3269 H   0  0  0  0  0  0  0  0  0  0  0  0
  146.0048  142.9126  155.3531 H   0  0  0  0  0  0  0  0  0  0  0  0
  145.9784  141.2903  156.0319 H   0  0  0  0  0  0  0  0  0  0  0  0
  148.0933  143.1140  156.4678 H   0  0  0  0  0  0  0  0  0  0  0  0
  149.0673  137.5030  154.0673 H   0  0  0  0  0  0  0  0  0  0  0  0
  1  2  2  0  0  0  0
  2 16  1  0  0  0  0
  2  3  1  0  0  0  0
  3  4  1  0  0  0  0
  4  5  2  0  0  0  0
  4  6  1  0  0  0  0
  6  7  1  0  0  0  0
  6 15  1  0  0  0  0
  7 18  1  0  0  0  0
  7 14  1  0  0  0  0
  7  8  1  0  0  0  0
  8  9  1  0  0  0  0
  8 21  1  0  0  0  0
  8 22  1  0  0  0  0
  9 19  1  0  0  0  0
  9 10  1  0  0  0  0
  9 11  1  0  0  0  0
 10 23  1  0  0  0  0
 11 20  1  0  0  0  0
 11 12  1  0  0  0  0
 11 14  1  0  0  0  0
 12 13  1  0  0  0  0
 12 24  1  0  0  0  0
 12 25  1  0  0  0  0
 13 26  1  0  0  0  0
 15 16  2  0  0  0  0
 15 27  1  0  0  0  0
 16 17  1  0  0  0  0
M  CHG  1   3  -1
M  END
> <s_m_source_file>
AV-unprocessed.smi

> <i_m_source_file_index>
38

> <i_lp_mmshare_version>
43012

> <i_f3d_flags>
0

> <s_epik_input>
Tz1jMVtuSF1jKD1PKW4oW2NIXWMxRilbQ0BIXTJbQ0gyXVtDQEhdKFtPSF0pW0NASF0oTzIpW0NIMl1bT0hd

> <s_epik_cmdline>
J2VwaWtfcHl0aG9uJywgJy1waCcsICc3LjAnLCAnLXRuJywgJzgnLCAnLW1hJywgJzIwMCcsICctbWV0YWxfYmluZGluZycsICctaW1hZScsICc8aW5maWxlLm1hZT4nLCAnLW9tYWUnLCAnPG91dGZpbGUubWFlPic=

> <r_epik_Ionization_Penalty>
1.68146

> <r_epik_Ionization_Penalty_Charging>
3.4211e-08

> <r_epik_Ionization_Penalty_Neutral>
1.68146

> <r_epik_State_Penalty>
1.78593

> <r_epik_Charging_Adjusted_Penalty>
1.78593

> <i_epik_Tot_Q>
-1

> <i_epik_Tot_abs_Q>
1

> <r_epik_Metal_State_Penalty>
0.0113696

> <b_epik_Metal_Only>
0

> <s_epik_Chemistry_Notes>
This compound contains an acetal/aminal-like group ( X-CH(R)-Y where X, Y are N, S, or O) that may be acid/base labile, releasing an aldehyde.

> <s_lp_Force_Field>
OPLS_2005

> <r_lp_Energy>
42.0277

> <b_lp_Chiralities_Consistent>
1

> <s_lp_Variant>
AV-unprocessed.smi:38-11

> <Gold.Version>
5.8.1

> <Gold.Id.Protein>
6NUR|6NUR_protein|mol2

> <Gold.PLP.Fitness>
36.1397

> <Gold.PLP.PLP>
-23.8083

> <Gold.PLP.part.hbond>
-4.0000

> <Gold.PLP.part.metal>
0.0000

> <Gold.PLP.part.buried>
2.9671

> <Gold.PLP.part.nonpolar>
-22.0407

> <Gold.PLP.part.repulsive>
0.1168

> <Gold.PLP.ligand.clash>
0.0000

> <Gold.PLP.ligand.torsion>
0.2337

> <Gold.PLP.Chemscore.Hbond>
3.2825

> <Gold.PLP.Chemscore.CHOScore>
0.9766

> <Gold.PLP.Chemscore.Metal>
0.0000

> <Gold.Chemscore.Hbonds>
donor molecule, donor type, donor heavy atom, donor atom, acceptor molecule, acceptor atom, score
      L1  H    10    23       P1 10175  1.00
      L1  H    13    26       P1  8028  1.00
      P1  H  7989  7998       L1     5  0.28
      P1  H 10752 10765       L1     1  1.00
      L1  C    15    27       P1  7948  0.98

> <Gold.PLP.Chemscore.Internal.Correction>
0.0215

> <Gold.Rescore>
     Score         DG    S(hbond)    S(metal)    S(lipo)     H(rot)  DE(clash)    DE(int)     intcor
      6.82      -9.50       2.22        0.00      34.06       2.88       1.22       1.45       ----

> <Gold.Chemscore.Fitness>
6.8198

> <Gold.Chemscore.DG>
-9.4958

> <Gold.Chemscore.ZeroCoef>
-5.4800

> <Gold.Chemscore.Hbond>
2.2178

> <Gold.Chemscore.Metal>
0.0000

> <Gold.Chemscore.Lipo>
34.0590

> <Gold.Chemscore.Internal_Hbond>
0.0000

> <Gold.Chemscore.DEClash>
1.2244

> <Gold.Chemscore.DEInternal>
1.4516

> <Gold.Chemscore.Rot>
2.8815

> <Gold.Chemscore.Internal.Correction>
   9.000000E+99

> <Gold.Chemscore.Hbonds>
donor molecule, donor type, donor heavy atom, donor atom, acceptor molecule, acceptor atom, score
      L1  H    10    23       P1 10175  0.98
      L1  H    13    26       P1  8028  0.33
      P1  H  7989  7998       L1     5  0.01
      P1  H 10752 10765       L1     1  0.81

> <Gold.Chemscore.Hbond.Weighted>
-7.4074

> <Gold.Chemscore.Metal.Weighted>
-0.0000

> <Gold.Chemscore.Lipo.Weighted>
-3.9849

> <Gold.Chemscore.Internal_Hbond.Weighted>
0.0000

> <Gold.Chemscore.DEClash.Weighted>
1.2244

> <Gold.Chemscore.DEInternal.Weighted>
1.4516

> <Gold.Chemscore.Rot.Weighted>
7.3765

> <Gold.Chemscore.Internal.Correction.Weighted>
   9.000000E+99

> <Gold.Protein.RotatedTorsions>
[ 6907 6896 6895 6894 ] final   85.95 input  -60.11 | X-H torsion
[ 7974 7965 7964 7962 ] final  130.97 input  175.53 | X-H torsion
[ 8008 7997 7996 7995 ] final  -56.51 input   59.86 | X-H torsion
[ 10167 10162 10161 10158 ] final  -57.99 input  -65.29 | X-H torsion
[ 10718 10713 10712 10709 ] final  113.91 input   66.30 | X-H torsion
[ 10763 10752 10751 10750 ] final -132.43 input  -60.55 | X-H torsion
[ 11005 11000 10999 10996 ] final  -84.82 input  -57.11 | X-H torsion

> <Gold.Protein.ActiveResidues>
 VAL166  LYS551  ARG553  GLY616  TRP617  ASP618  TYR619  PRO620  LYS621  CYS622 
 ASP623  PHE694  ASN695  SER759  ASP760  ASP761  ALA762  ILE779  LEU786  VAL792 
 PHE793  MET794  SER795  GLU796  ALA797  LYS798  CYS799  TRP800  GLU811  SER814 

> <Gold.Protein.RotatedAtoms>
  152.5385  134.2506  159.8897 H   0  0  0  0  0  0  0  0  0  0  0  0  # atno 6907 bound_to 6896
  151.2470  133.4363  159.2617 H   0  0  0  0  0  0  0  0  0  0  0  0  # atno 6908 bound_to 6896
  151.0574  134.9728  159.8299 H   0  0  0  0  0  0  0  0  0  0  0  0  # atno 6909 bound_to 6896
  145.0122  139.4209  143.5239 H   0  0  0  0  0  0  0  0  0  0  0  0  # atno 7974 bound_to 7965
  154.4233  140.1128  156.5649 H   0  0  0  0  0  0  0  0  0  0  0  0  # atno 8008 bound_to 7997
  155.6272  140.3495  155.4652 H   0  0  0  0  0  0  0  0  0  0  0  0  # atno 8009 bound_to 7997
  155.9977  140.1192  157.0567 H   0  0  0  0  0  0  0  0  0  0  0  0  # atno 8010 bound_to 7997
  140.6225  143.2425  151.5446 H   0  0  0  0  0  0  0  0  0  0  0  0  # atno 10167 bound_to 10162
  157.6311  131.0991  150.7109 H   0  0  0  0  0  0  0  0  0  0  0  0  # atno 10718 bound_to 10713
  154.8743  135.3798  154.4409 H   0  0  0  0  0  0  0  0  0  0  0  0  # atno 10763 bound_to 10752
  153.5094  135.7030  153.5794 H   0  0  0  0  0  0  0  0  0  0  0  0  # atno 10764 bound_to 10752
  153.4090  135.3929  155.2004 H   0  0  0  0  0  0  0  0  0  0  0  0  # atno 10765 bound_to 10752
  141.1647  133.7366  156.8923 H   0  0  0  0  0  0  0  0  0  0  0  0  # atno 11005 bound_to 11000
  146.3472  139.9573  142.8721 LP  0  0  0  0  0  0  0  0  0  0  0  0  # atno 17320 bound_to 7965
  145.2008  140.9853  143.4157 LP  0  0  0  0  0  0  0  0  0  0  0  0  # atno 17321 bound_to 7965
  139.5451  144.2544  152.1426 LP  0  0  0  0  0  0  0  0  0  0  0  0  # atno 17342 bound_to 10162
  140.1767  144.4884  150.6550 LP  0  0  0  0  0  0  0  0  0  0  0  0  # atno 17343 bound_to 10162
  156.7448  130.4750  149.5469 LP  0  0  0  0  0  0  0  0  0  0  0  0  # atno 17370 bound_to 10713
  156.1516  130.6314  151.0603 LP  0  0  0  0  0  0  0  0  0  0  0  0  # atno 17371 bound_to 10713
  140.1640  134.9146  157.2750 LP  0  0  0  0  0  0  0  0  0  0  0  0  # atno 17394 bound_to 11000
  140.2579  134.3606  155.7417 LP  0  0  0  0  0  0  0  0  0  0  0  0  # atno 17395 bound_to 11000

$$$$
