AV-unprocessed.smi:2211|AV-procd|sdf|8950|dock2
  -GOLD-   2272012163D 1   1.00000     0.00000
 Structure written by MMmdl.
 25 26  0  0  0  0  0  0  0  0  1 V2000
  151.9540  141.3369  157.6166 O   0  0  0  0  0  0  0  0  0  0  0  0
  151.1003  141.9501  156.9741 C   0  0  0  0  0  0  0  0  0  0  0  0
  150.0901  141.2033  156.0923 C   0  0  0  0  0  0  0  0  0  0  0  0
  150.5611  139.8860  155.6616 N   0  0  0  0  0  0  0  0  0  0  0  0
  150.5187  139.5898  154.3348 N   0  0  0  0  0  0  0  0  0  0  0  0
  150.9682  138.4126  154.1022 C   0  0  0  0  0  0  0  0  0  0  0  0
  151.5106  137.4917  155.5111 S   0  0  0  0  0  0  0  0  0  0  0  0
  151.0579  138.9004  156.5100 C   0  0  0  0  0  0  0  0  0  0  0  0
  151.1860  138.9355  157.7325 O   0  0  0  0  0  0  0  0  0  0  0  0
  150.9996  143.2878  156.9773 N   0  0  0  0  0  0  0  0  0  0  0  0
  151.8639  144.1885  157.7287 C   0  0  0  0  0  0  0  0  0  0  0  0
  151.5684  144.2674  159.2142 C   0  0  0  0  0  0  0  0  0  0  0  0
  150.4385  145.1206  159.7441 C   0  0  0  0  0  0  0  0  0  0  0  0
  151.8702  145.5314  159.9851 C   0  0  0  0  0  0  0  0  0  0  0  0
  149.1523  141.0832  156.6373 H   0  0  0  0  0  0  0  0  0  0  0  0
  149.8633  141.8236  155.2236 H   0  0  0  0  0  0  0  0  0  0  0  0
  151.0451  137.9343  153.1259 H   0  0  0  0  0  0  0  0  0  0  0  0
  150.2733  143.7120  156.4184 H   0  0  0  0  0  0  0  0  0  0  0  0
  152.8884  143.8370  157.6060 H   0  0  0  0  0  0  0  0  0  0  0  0
  151.8311  145.1885  157.2926 H   0  0  0  0  0  0  0  0  0  0  0  0
  151.7639  143.3398  159.7489 H   0  0  0  0  0  0  0  0  0  0  0  0
  149.8626  145.7032  159.0277 H   0  0  0  0  0  0  0  0  0  0  0  0
  149.8750  144.7349  160.5910 H   0  0  0  0  0  0  0  0  0  0  0  0
  152.2613  145.4226  160.9947 H   0  0  0  0  0  0  0  0  0  0  0  0
  152.2464  146.3877  159.4290 H   0  0  0  0  0  0  0  0  0  0  0  0
  1  2  2  0  0  0  0
  2  3  1  0  0  0  0
  2 10  1  0  0  0  0
  3  4  1  0  0  0  0
  3 15  1  0  0  0  0
  3 16  1  0  0  0  0
  4  8  1  0  0  0  0
  4  5  1  0  0  0  0
  5  6  2  0  0  0  0
  6  7  1  0  0  0  0
  6 17  1  0  0  0  0
  7  8  1  0  0  0  0
  8  9  2  0  0  0  0
 10 11  1  0  0  0  0
 10 18  1  0  0  0  0
 11 12  1  0  0  0  0
 11 19  1  0  0  0  0
 11 20  1  0  0  0  0
 12 14  1  0  0  0  0
 12 13  1  0  0  0  0
 12 21  1  0  0  0  0
 13 14  1  0  0  0  0
 13 22  1  0  0  0  0
 13 23  1  0  0  0  0
 14 24  1  0  0  0  0
 14 25  1  0  0  0  0
M  END
> <s_m_source_file>
AV-unprocessed.smi

> <i_m_source_file_index>
2211

> <i_lp_mmshare_version>
43012

> <i_f3d_flags>
0

> <s_epik_input>
W0NIMl0xW0NIMl1bQ0hdMVtDSDJdW05IXUMoPU8pW0NIMl1uMm5bY0hdc2MyPU8=

> <s_epik_cmdline>
J2VwaWtfcHl0aG9uJywgJy1waCcsICc3LjAnLCAnLXRuJywgJzgnLCAnLW1hJywgJzIwMCcsICctbWV0YWxfYmluZGluZycsICctaW1hZScsICc8aW5maWxlLm1hZT4nLCAnLW9tYWUnLCAnPG91dGZpbGUubWFlPic=

> <r_lp_tautomer_probability>
1

> <r_epik_Ionization_Penalty>
1.04444e-07

> <r_epik_Ionization_Penalty_Charging>
1.36178e-08

> <r_epik_Ionization_Penalty_Neutral>
9.08257e-08

> <r_epik_State_Penalty>
-0

> <r_epik_Charging_Adjusted_Penalty>
1.36178e-08

> <i_epik_Tot_Q>
0

> <i_epik_Tot_abs_Q>
0

> <r_epik_Metal_State_Penalty>
-0

> <b_epik_Metal_Only>
0

> <s_lp_Force_Field>
OPLS_2005

> <r_lp_Energy>
12.8792

> <b_lp_Chiralities_Consistent>
1

> <s_lp_Variant>
AV-unprocessed.smi:2211-1

> <Gold.Version>
5.8.1

> <Gold.Id.Protein>
6NUR|6NUR_protein|mol2

> <Gold.PLP.Fitness>
38.8112

> <Gold.PLP.PLP>
-30.8002

> <Gold.PLP.part.hbond>
-2.0000

> <Gold.PLP.part.metal>
0.0000

> <Gold.PLP.part.buried>
-5.2966

> <Gold.PLP.part.nonpolar>
-24.2603

> <Gold.PLP.part.repulsive>
0.1659

> <Gold.PLP.ligand.clash>
0.0000

> <Gold.PLP.ligand.torsion>
0.7915

> <Gold.PLP.Chemscore.Hbond>
2.0000

> <Gold.PLP.Chemscore.CHOScore>
1.0157

> <Gold.PLP.Chemscore.Metal>
0.0000

> <Gold.Chemscore.Hbonds>
donor molecule, donor type, donor heavy atom, donor atom, acceptor molecule, acceptor atom, score
      L1  H    10    18       P1  8028  1.00
      P1  H  7989  7998       L1     5  1.00
      L1  C     6    17       P1  7948  0.01
      L1  C     6    17       P1  7949  0.98

> <Gold.PLP.Chemscore.Internal.Correction>
0.5468

> <Gold.Rescore>
     Score         DG    S(hbond)    S(metal)    S(lipo)     H(rot)  DE(clash)    DE(int)     intcor
     13.96     -14.85       1.95        0.00      66.73       1.94       0.02       0.87       ----

> <Gold.Chemscore.Fitness>
13.9589

> <Gold.Chemscore.DG>
-14.8476

> <Gold.Chemscore.ZeroCoef>
-5.4800

> <Gold.Chemscore.Hbond>
1.9530

> <Gold.Chemscore.Metal>
0.0000

> <Gold.Chemscore.Lipo>
66.7258

> <Gold.Chemscore.Internal_Hbond>
0.0000

> <Gold.Chemscore.DEClash>
0.0202

> <Gold.Chemscore.DEInternal>
0.8685

> <Gold.Chemscore.Rot>
1.9384

> <Gold.Chemscore.Internal.Correction>
   9.000000E+99

> <Gold.Chemscore.Hbonds>
donor molecule, donor type, donor heavy atom, donor atom, acceptor molecule, acceptor atom, score
      L1  H    10    18       P1  8028  1.00
      P1  H  7989  7998       L1     5  0.39

> <Gold.Chemscore.Hbond.Weighted>
-6.5230

> <Gold.Chemscore.Metal.Weighted>
-0.0000

> <Gold.Chemscore.Lipo.Weighted>
-7.8069

> <Gold.Chemscore.Internal_Hbond.Weighted>
0.0000

> <Gold.Chemscore.DEClash.Weighted>
0.0202

> <Gold.Chemscore.DEInternal.Weighted>
0.8685

> <Gold.Chemscore.Rot.Weighted>
4.9622

> <Gold.Chemscore.Internal.Correction.Weighted>
   9.000000E+99

> <Gold.Protein.RotatedTorsions>
[ 6907 6896 6895 6894 ] final  -92.36 input  -60.11 | X-H torsion
[ 7974 7965 7964 7962 ] final  137.81 input  175.53 | X-H torsion
[ 8008 7997 7996 7995 ] final -158.71 input   59.86 | X-H torsion
[ 10167 10162 10161 10158 ] final  -20.42 input  -65.29 | X-H torsion
[ 10718 10713 10712 10709 ] final  -54.67 input   66.30 | X-H torsion
[ 10763 10752 10751 10750 ] final  142.07 input  -60.55 | X-H torsion
[ 11005 11000 10999 10996 ] final   96.44 input  -57.11 | X-H torsion

> <Gold.Protein.ActiveResidues>
 VAL166  LYS551  ARG553  GLY616  TRP617  ASP618  TYR619  PRO620  LYS621  CYS622 
 ASP623  PHE694  ASN695  SER759  ASP760  ASP761  ALA762  ILE779  LEU786  VAL792 
 PHE793  MET794  SER795  GLU796  ALA797  LYS798  CYS799  TRP800  GLU811  SER814 

> <Gold.Protein.RotatedAtoms>
  150.6905  134.2134  159.4367 H   0  0  0  0  0  0  0  0  0  0  0  0  # atno 6907 bound_to 6896
  152.0094  134.9882  160.0577 H   0  0  0  0  0  0  0  0  0  0  0  0  # atno 6908 bound_to 6896
  152.1503  133.4483  159.4847 H   0  0  0  0  0  0  0  0  0  0  0  0  # atno 6909 bound_to 6896
  144.9432  139.4906  143.5562 H   0  0  0  0  0  0  0  0  0  0  0  0  # atno 7974 bound_to 7965
  155.7516  140.0827  157.2198 H   0  0  0  0  0  0  0  0  0  0  0  0  # atno 8008 bound_to 7997
  154.4011  140.1559  156.2786 H   0  0  0  0  0  0  0  0  0  0  0  0  # atno 8009 bound_to 7997
  155.8925  140.3414  155.5969 H   0  0  0  0  0  0  0  0  0  0  0  0  # atno 8010 bound_to 7997
  140.7276  143.4724  151.0229 H   0  0  0  0  0  0  0  0  0  0  0  0  # atno 10167 bound_to 10162
  156.1431  130.4154  150.0069 H   0  0  0  0  0  0  0  0  0  0  0  0  # atno 10718 bound_to 10713
  153.9497  135.2971  155.3439 H   0  0  0  0  0  0  0  0  0  0  0  0  # atno 10763 bound_to 10752
  154.7433  135.5015  153.9163 H   0  0  0  0  0  0  0  0  0  0  0  0  # atno 10764 bound_to 10752
  153.1000  135.6732  153.9798 H   0  0  0  0  0  0  0  0  0  0  0  0  # atno 10765 bound_to 10752
  139.8781  134.8951  156.4160 H   0  0  0  0  0  0  0  0  0  0  0  0  # atno 11005 bound_to 11000
  146.3294  139.8466  142.8880 LP  0  0  0  0  0  0  0  0  0  0  0  0  # atno 17320 bound_to 7965
  145.2958  141.0180  143.3637 LP  0  0  0  0  0  0  0  0  0  0  0  0  # atno 17321 bound_to 7965
  139.8417  143.7555  152.3180 LP  0  0  0  0  0  0  0  0  0  0  0  0  # atno 17342 bound_to 10162
  139.7706  144.7477  151.0229 LP  0  0  0  0  0  0  0  0  0  0  0  0  # atno 17343 bound_to 10162
  156.7949  130.9269  151.3646 LP  0  0  0  0  0  0  0  0  0  0  0  0  # atno 17370 bound_to 10713
  157.6593  130.8952  149.9796 LP  0  0  0  0  0  0  0  0  0  0  0  0  # atno 17371 bound_to 10713
  140.9167  133.7673  155.9857 LP  0  0  0  0  0  0  0  0  0  0  0  0  # atno 17394 bound_to 11000
  140.8485  134.2982  157.5285 LP  0  0  0  0  0  0  0  0  0  0  0  0  # atno 17395 bound_to 11000

$$$$
