AV-unprocessed.smi:54|AV-procd|sdf|550|dock7
  -GOLD-   2262016443D 1   1.00000     0.00000
 Structure written by MMmdl.
 43 45  0  0  0  0  0  0  0  0  2 V2000
  152.9707  144.0747  159.1805 C   0  0  0  0  0  0  0  0  0  0  0  0
  152.0831  143.0494  159.9057 C   0  0  0  0  0  0  0  0  0  0  0  0
  152.8675  142.3096  161.0017 C   0  0  0  0  0  0  0  0  0  0  0  0
  151.4738  142.0554  158.9068 C   0  0  0  0  0  0  0  0  0  0  0  0
  150.2689  142.1232  158.6514 O   0  0  0  0  0  0  0  0  0  0  0  0
  152.3391  141.1598  158.3801 N   0  0  0  0  0  0  0  0  0  0  0  0
  152.0953  140.1321  157.4614 C   0  0  0  0  0  0  0  0  0  0  0  0
  151.1908  140.2837  156.5195 N   0  0  0  0  0  0  0  0  0  0  0  0
  151.0839  139.1712  155.7089 C   0  0  0  0  0  0  0  0  0  0  0  0
  151.7890  138.0028  155.7895 C   0  0  0  0  0  0  0  0  0  0  0  0
  151.3995  137.1069  154.8011 N   0  0  0  0  0  0  0  0  0  0  0  0
  150.4555  137.7936  154.1579 C   0  0  0  0  0  0  0  0  0  0  0  0
  150.2058  139.0287  154.6418 N   0  0  0  0  0  0  0  0  0  0  0  0
  149.2218  140.0488  154.1492 C   0  0  1  0  0  0  0  0  0  0  0  0
  148.7417  139.6428  152.9021 O   0  0  0  0  0  0  0  0  0  0  0  0
  147.4468  139.0716  153.0499 C   0  0  2  0  0  0  0  0  0  0  0  0
  146.6914  139.0396  151.7099 C   0  0  0  0  0  0  0  0  0  0  0  0
  145.8644  137.8973  151.6463 O   0  0  0  0  0  0  0  0  0  0  0  0
  146.8270  139.9569  154.1381 C   0  0  2  0  0  0  0  0  0  0  0  0
  146.3721  141.1813  153.5914 O   0  0  0  0  0  0  0  0  0  0  0  0
  147.9965  140.1991  155.0851 C   0  0  1  0  0  0  0  0  0  0  0  0
  147.9548  139.2596  156.1455 O   0  0  0  0  0  0  0  0  0  0  0  0
  152.7968  137.9050  156.8722 C   0  0  0  0  0  0  0  0  0  0  0  0
  153.4580  136.8745  156.9839 O   0  0  0  0  0  0  0  0  0  0  0  0
  152.9050  139.0058  157.6768 N   0  5  0  0  0  0  0  0  0  0  0  0
  149.8085  140.9625  154.0467 H   0  0  0  0  0  0  0  0  0  0  0  0
  147.5442  138.0600  153.4484 H   0  0  0  0  0  0  0  0  0  0  0  0
  145.9814  139.4702  154.6263 H   0  0  0  0  0  0  0  0  0  0  0  0
  147.9824  141.2022  155.5137 H   0  0  0  0  0  0  0  0  0  0  0  0
  152.4207  144.5866  158.3897 H   0  0  0  0  0  0  0  0  0  0  0  0
  153.8429  143.6020  158.7275 H   0  0  0  0  0  0  0  0  0  0  0  0
  153.3307  144.8360  159.8730 H   0  0  0  0  0  0  0  0  0  0  0  0
  151.2700  143.5947  160.3881 H   0  0  0  0  0  0  0  0  0  0  0  0
  152.2407  141.5776  161.5125 H   0  0  0  0  0  0  0  0  0  0  0  0
  153.2339  143.0071  161.7552 H   0  0  0  0  0  0  0  0  0  0  0  0
  153.7307  141.7827  160.5930 H   0  0  0  0  0  0  0  0  0  0  0  0
  153.2889  141.2372  158.7127 H   0  0  0  0  0  0  0  0  0  0  0  0
  149.9329  137.3811  153.3077 H   0  0  0  0  0  0  0  0  0  0  0  0
  146.0465  139.9146  151.6221 H   0  0  0  0  0  0  0  0  0  0  0  0
  147.3789  139.0547  150.8637 H   0  0  0  0  0  0  0  0  0  0  0  0
  145.1487  138.0771  151.0561 H   0  0  0  0  0  0  0  0  0  0  0  0
  145.4439  141.1056  153.4299 H   0  0  0  0  0  0  0  0  0  0  0  0
  147.1629  138.7495  156.0608 H   0  0  0  0  0  0  0  0  0  0  0  0
  1  2  1  0  0  0  0
  1 30  1  0  0  0  0
  1 31  1  0  0  0  0
  1 32  1  0  0  0  0
  2  3  1  0  0  0  0
  2  4  1  0  0  0  0
  2 33  1  0  0  0  0
  3 34  1  0  0  0  0
  3 35  1  0  0  0  0
  3 36  1  0  0  0  0
  4  5  2  0  0  0  0
  4  6  1  0  0  0  0
  6 37  1  0  0  0  0
  6  7  1  0  0  0  0
  7 25  1  0  0  0  0
  7  8  2  0  0  0  0
  8  9  1  0  0  0  0
  9 13  1  0  0  0  0
  9 10  2  0  0  0  0
 10 11  1  0  0  0  0
 10 23  1  0  0  0  0
 11 12  2  0  0  0  0
 12 13  1  0  0  0  0
 12 38  1  0  0  0  0
 13 14  1  0  0  0  0
 14 26  1  0  0  0  0
 14 21  1  0  0  0  0
 14 15  1  0  0  0  0
 15 16  1  0  0  0  0
 16 27  1  0  0  0  0
 16 17  1  0  0  0  0
 16 19  1  0  0  0  0
 17 18  1  0  0  0  0
 17 39  1  0  0  0  0
 17 40  1  0  0  0  0
 18 41  1  0  0  0  0
 19 28  1  0  0  0  0
 19 20  1  0  0  0  0
 19 21  1  0  0  0  0
 20 42  1  0  0  0  0
 21 29  1  0  0  0  0
 21 22  1  0  0  0  0
 22 43  1  0  0  0  0
 23 24  2  0  0  0  0
 23 25  1  0  0  0  0
M  CHG  1  25  -1
M  END
> <s_m_source_file>
AV-unprocessed.smi

> <i_m_source_file_index>
54

> <i_lp_mmshare_version>
43012

> <i_f3d_flags>
0

> <s_epik_input>
W0NIM11bQ0hdKFtDSDNdKUMoPU8pW05IXWMobjEpW25IXWMoPU8pYyhjMTIpbltjSF1uMltDQEBIXTNPW0NASF0oW0NIMl1bT0hdKVtDQEBIXShbT0hdKVtDQEhdM1tPSF0=

> <s_epik_cmdline>
J2VwaWtfcHl0aG9uJywgJy1waCcsICc3LjAnLCAnLXRuJywgJzgnLCAnLW1hJywgJzIwMCcsICctbWV0YWxfYmluZGluZycsICctaW1hZScsICc8aW5maWxlLm1hZT4nLCAnLW9tYWUnLCAnPG91dGZpbGUubWFlPic=

> <r_lp_tautomer_probability>
0.85571

> <r_epik_Ionization_Penalty>
1.75936

> <r_epik_Ionization_Penalty_Charging>
4.55893e-11

> <r_epik_Ionization_Penalty_Neutral>
1.75936

> <r_epik_State_Penalty>
1.72072

> <r_epik_Charging_Adjusted_Penalty>
1.72072

> <i_epik_Tot_Q>
-1

> <i_epik_Tot_abs_Q>
1

> <r_epik_Metal_State_Penalty>
0.400338

> <b_epik_Metal_Only>
1

> <s_epik_Chemistry_Notes>
This compound contains an acetal/aminal-like group ( X-CH(R)-Y where X, Y are N, S, or O) that may be acid/base labile, releasing an aldehyde.

> <s_lp_Force_Field>
OPLS_2005

> <r_lp_Energy>
59.3573

> <b_lp_Chiralities_Consistent>
1

> <s_lp_Variant>
AV-unprocessed.smi:54-22

> <Gold.Version>
5.8.1

> <Gold.Id.Protein>
6NUR|6NUR_protein|mol2

> <Gold.PLP.Fitness>
50.4084

> <Gold.PLP.PLP>
-34.8750

> <Gold.PLP.part.hbond>
-5.3610

> <Gold.PLP.part.metal>
0.0000

> <Gold.PLP.part.buried>
-1.8985

> <Gold.PLP.part.nonpolar>
-34.1448

> <Gold.PLP.part.repulsive>
6.9230

> <Gold.PLP.ligand.clash>
0.0000

> <Gold.PLP.ligand.torsion>
1.1957

> <Gold.PLP.Chemscore.Hbond>
4.9591

> <Gold.PLP.Chemscore.CHOScore>
0.9874

> <Gold.PLP.Chemscore.Metal>
0.0000

> <Gold.Chemscore.Hbonds>
donor molecule, donor type, donor heavy atom, donor atom, acceptor molecule, acceptor atom, score
      L1  H    18    41       P1 10171  1.00
      L1  H    20    42       P1 10175  0.86
      P1  H  7997  8010       L1    25  1.00
      P1  H 10752 10763       L1    11  0.59
      P1  H 10752 10764       L1    24  0.13
      L1  C    12    38       P1  7948  1.00

> <Gold.PLP.Chemscore.Internal.Correction>
0.0853

> <Gold.Rescore>
     Score         DG    S(hbond)    S(metal)    S(lipo)     H(rot)  DE(clash)    DE(int)     intcor
      8.29     -13.14       2.99        0.00      67.94       4.02       2.60       2.25       ----

> <Gold.Chemscore.Fitness>
8.2859

> <Gold.Chemscore.DG>
-13.1360

> <Gold.Chemscore.ZeroCoef>
-5.4800

> <Gold.Chemscore.Hbond>
2.9930

> <Gold.Chemscore.Metal>
0.0000

> <Gold.Chemscore.Lipo>
67.9380

> <Gold.Chemscore.Internal_Hbond>
0.0000

> <Gold.Chemscore.DEClash>
2.6005

> <Gold.Chemscore.DEInternal>
2.2497

> <Gold.Chemscore.Rot>
4.0192

> <Gold.Chemscore.Internal.Correction>
   9.000000E+99

> <Gold.Chemscore.Hbonds>
donor molecule, donor type, donor heavy atom, donor atom, acceptor molecule, acceptor atom, score
      L1  H    18    41       P1 10171  1.00
      L1  H    20    42       P1 10175  0.37
      P1  H  7997  8010       L1    25  0.01
      P1  H 10752 10763       L1    11  0.50
      P1  H 10752 10764       L1    24  0.13

> <Gold.Chemscore.Hbond.Weighted>
-9.9966

> <Gold.Chemscore.Metal.Weighted>
-0.0000

> <Gold.Chemscore.Lipo.Weighted>
-7.9487

> <Gold.Chemscore.Internal_Hbond.Weighted>
0.0000

> <Gold.Chemscore.DEClash.Weighted>
2.6005

> <Gold.Chemscore.DEInternal.Weighted>
2.2497

> <Gold.Chemscore.Rot.Weighted>
10.2893

> <Gold.Chemscore.Internal.Correction.Weighted>
   9.000000E+99

> <Gold.Protein.RotatedTorsions>
[ 6907 6896 6895 6894 ] final -150.66 input  -60.11 | X-H torsion
[ 7974 7965 7964 7962 ] final   -0.06 input  175.53 | X-H torsion
[ 8008 7997 7996 7995 ] final   36.22 input   59.86 | X-H torsion
[ 10167 10162 10161 10158 ] final  -83.95 input  -65.29 | X-H torsion
[ 10718 10713 10712 10709 ] final  175.71 input   66.30 | X-H torsion
[ 10763 10752 10751 10750 ] final   36.09 input  -60.55 | X-H torsion
[ 11005 11000 10999 10996 ] final   36.42 input  -57.11 | X-H torsion

> <Gold.Protein.ActiveResidues>
 VAL166  LYS551  ARG553  GLY616  TRP617  ASP618  TYR619  PRO620  LYS621  CYS622 
 ASP623  PHE694  ASN695  SER759  ASP760  ASP761  ALA762  ILE779  LEU786  VAL792 
 PHE793  MET794  SER795  GLU796  ALA797  LYS798  CYS799  TRP800  GLU811  SER814 

> <Gold.Protein.RotatedAtoms>
  151.2018  133.4607  159.2596 H   0  0  0  0  0  0  0  0  0  0  0  0  # atno 6907 bound_to 6896
  151.1062  135.0001  159.8482 H   0  0  0  0  0  0  0  0  0  0  0  0  # atno 6908 bound_to 6896
  152.5447  134.1940  159.8738 H   0  0  0  0  0  0  0  0  0  0  0  0  # atno 6909 bound_to 6896
  146.2430  140.1213  142.8340 H   0  0  0  0  0  0  0  0  0  0  0  0  # atno 7974 bound_to 7965
  155.1838  140.3302  155.4370 H   0  0  0  0  0  0  0  0  0  0  0  0  # atno 8008 bound_to 7997
  156.2467  140.1922  156.6885 H   0  0  0  0  0  0  0  0  0  0  0  0  # atno 8009 bound_to 7997
  154.6253  140.0590  156.9651 H   0  0  0  0  0  0  0  0  0  0  0  0  # atno 8010 bound_to 7997
  140.4178  143.2596  151.8931 H   0  0  0  0  0  0  0  0  0  0  0  0  # atno 10167 bound_to 10162
  156.9308  130.9970  151.2987 H   0  0  0  0  0  0  0  0  0  0  0  0  # atno 10718 bound_to 10713
  153.0091  135.6315  154.1930 H   0  0  0  0  0  0  0  0  0  0  0  0  # atno 10763 bound_to 10752
  154.1673  135.2820  155.3093 H   0  0  0  0  0  0  0  0  0  0  0  0  # atno 10764 bound_to 10752
  154.5936  135.5610  153.7363 H   0  0  0  0  0  0  0  0  0  0  0  0  # atno 10765 bound_to 10752
  140.2328  134.3507  155.7957 H   0  0  0  0  0  0  0  0  0  0  0  0  # atno 11005 bound_to 11000
  145.0404  140.8941  143.5056 LP  0  0  0  0  0  0  0  0  0  0  0  0  # atno 17320 bound_to 7965
  145.1293  139.2642  143.5548 LP  0  0  0  0  0  0  0  0  0  0  0  0  # atno 17321 bound_to 7965
  139.4782  144.5469  151.8444 LP  0  0  0  0  0  0  0  0  0  0  0  0  # atno 17342 bound_to 10162
  140.4567  144.1780  150.5902 LP  0  0  0  0  0  0  0  0  0  0  0  0  # atno 17343 bound_to 10162
  157.5848  130.8402  149.8574 LP  0  0  0  0  0  0  0  0  0  0  0  0  # atno 17370 bound_to 10713
  156.0448  130.3730  150.1345 LP  0  0  0  0  0  0  0  0  0  0  0  0  # atno 17371 bound_to 10713
  141.2216  133.7255  156.8759 LP  0  0  0  0  0  0  0  0  0  0  0  0  # atno 17394 bound_to 11000
  140.1733  134.9084  157.2860 LP  0  0  0  0  0  0  0  0  0  0  0  0  # atno 17395 bound_to 11000

$$$$
