AV-unprocessed.smi:38|AV-procd|sdf|338|dock5
  -GOLD-   2262016173D 1   1.00000     0.00000
 Structure written by MMmdl.
 28 29  0  0  0  0  0  0  0  0  1 V2000
  141.0996  134.6998  153.9773 O   0  0  0  0  0  0  0  0  0  0  0  0
  142.1743  135.2609  153.7728 C   0  0  0  0  0  0  0  0  0  0  0  0
  143.3716  134.5469  153.8785 N   0  0  0  0  0  0  0  0  0  0  0  0
  144.6495  135.0693  153.6692 C   0  0  0  0  0  0  0  0  0  0  0  0
  145.6360  134.3475  153.8079 O   0  0  0  0  0  0  0  0  0  0  0  0
  144.7369  136.4329  153.3100 N   0  0  0  0  0  0  0  0  0  0  0  0
  146.0918  137.0558  153.0639 C   0  0  2  0  0  0  0  0  0  0  0  0
  146.9698  136.9666  154.3164 C   0  0  0  0  0  0  0  0  0  0  0  0
  147.6688  138.3115  154.3142 C   0  0  1  0  0  0  0  0  0  0  0  0
  148.8508  138.2574  153.5377 O   0  0  0  0  0  0  0  0  0  0  0  0
  146.6033  139.2270  153.6941 C   0  0  1  0  0  0  0  0  0  0  0  0
  147.0981  140.5276  153.0379 C   0  0  0  0  0  0  0  0  0  0  0  0
  148.4017  140.8362  153.4833 O   0  0  0  0  0  0  0  0  0  0  0  0
  145.9189  138.4071  152.7497 O   0  0  0  0  0  0  0  0  0  0  0  0
  143.5740  137.1845  153.2074 C   0  0  0  0  0  0  0  0  0  0  0  0
  142.3407  136.6670  153.4172 C   0  0  0  0  0  0  0  0  0  0  0  0
  141.2606  137.4583  153.3016 F   0  0  0  0  0  0  0  0  0  0  0  0
  143.3064  133.5716  154.1318 H   0  0  0  0  0  0  0  0  0  0  0  0
  146.5351  136.5737  152.1913 H   0  0  0  0  0  0  0  0  0  0  0  0
  147.9366  138.6297  155.3224 H   0  0  0  0  0  0  0  0  0  0  0  0
  145.8804  139.4799  154.4710 H   0  0  0  0  0  0  0  0  0  0  0  0
  146.3391  136.8785  155.2024 H   0  0  0  0  0  0  0  0  0  0  0  0
  147.6389  136.1062  154.2751 H   0  0  0  0  0  0  0  0  0  0  0  0
  148.8035  137.5001  152.9738 H   0  0  0  0  0  0  0  0  0  0  0  0
  147.0854  140.4596  151.9500 H   0  0  0  0  0  0  0  0  0  0  0  0
  146.4402  141.3531  153.3107 H   0  0  0  0  0  0  0  0  0  0  0  0
  149.0227  140.4422  152.8898 H   0  0  0  0  0  0  0  0  0  0  0  0
  143.6415  138.2316  152.9542 H   0  0  0  0  0  0  0  0  0  0  0  0
  1  2  2  0  0  0  0
  2 16  1  0  0  0  0
  2  3  1  0  0  0  0
  3 18  1  0  0  0  0
  3  4  1  0  0  0  0
  4  5  2  0  0  0  0
  4  6  1  0  0  0  0
  6  7  1  0  0  0  0
  6 15  1  0  0  0  0
  7 19  1  0  0  0  0
  7 14  1  0  0  0  0
  7  8  1  0  0  0  0
  8  9  1  0  0  0  0
  8 22  1  0  0  0  0
  8 23  1  0  0  0  0
  9 20  1  0  0  0  0
  9 10  1  0  0  0  0
  9 11  1  0  0  0  0
 10 24  1  0  0  0  0
 11 21  1  0  0  0  0
 11 12  1  0  0  0  0
 11 14  1  0  0  0  0
 12 13  1  0  0  0  0
 12 25  1  0  0  0  0
 12 26  1  0  0  0  0
 13 27  1  0  0  0  0
 15 16  2  0  0  0  0
 15 28  1  0  0  0  0
 16 17  1  0  0  0  0
M  END
> <s_m_source_file>
AV-unprocessed.smi

> <i_m_source_file_index>
38

> <i_lp_mmshare_version>
43012

> <i_f3d_flags>
0

> <s_epik_input>
Tz1jMVtuSF1jKD1PKW4oW2NIXWMxRilbQ0BIXTJbQ0gyXVtDQEhdKFtPSF0pW0NASF0oTzIpW0NIMl1bT0hd

> <s_epik_cmdline>
J2VwaWtfcHl0aG9uJywgJy1waCcsICc3LjAnLCAnLXRuJywgJzgnLCAnLW1hJywgJzIwMCcsICctbWV0YWxfYmluZGluZycsICctaW1hZScsICc8aW5maWxlLm1hZT4nLCAnLW9tYWUnLCAnPG91dGZpbGUubWFlPic=

> <r_lp_tautomer_probability>
0.999537

> <r_epik_Ionization_Penalty>
0.0357432

> <r_epik_Ionization_Penalty_Charging>
0.0357431

> <r_epik_Ionization_Penalty_Neutral>
1.19946e-07

> <r_epik_State_Penalty>
0.0298169

> <r_epik_Charging_Adjusted_Penalty>
0.06556

> <i_epik_Tot_Q>
0

> <i_epik_Tot_abs_Q>
0

> <r_epik_Metal_State_Penalty>
2.348

> <b_epik_Metal_Only>
0

> <s_epik_Chemistry_Notes>
This compound contains an acetal/aminal-like group ( X-CH(R)-Y where X, Y are N, S, or O) that may be acid/base labile, releasing an aldehyde.

> <s_lp_Force_Field>
OPLS_2005

> <r_lp_Energy>
29.3981

> <b_lp_Chiralities_Consistent>
1

> <s_lp_Variant>
AV-unprocessed.smi:38-4

> <Gold.Version>
5.8.1

> <Gold.Id.Protein>
6NUR|6NUR_protein|mol2

> <Gold.PLP.Fitness>
34.9697

> <Gold.PLP.PLP>
-21.1536

> <Gold.PLP.part.hbond>
-5.4586

> <Gold.PLP.part.metal>
0.0000

> <Gold.PLP.part.buried>
-4.8086

> <Gold.PLP.part.nonpolar>
-12.3465

> <Gold.PLP.part.repulsive>
1.0283

> <Gold.PLP.ligand.clash>
0.0000

> <Gold.PLP.ligand.torsion>
0.5931

> <Gold.PLP.Chemscore.Hbond>
4.0000

> <Gold.PLP.Chemscore.CHOScore>
1.0000

> <Gold.PLP.Chemscore.Metal>
0.0000

> <Gold.Chemscore.Hbonds>
donor molecule, donor type, donor heavy atom, donor atom, acceptor molecule, acceptor atom, score
      L1  H     3    18       P1 10957  1.00
      L1  H    10    24       P1  7948  1.00
      L1  H    13    27       P1  7957  1.00
      P1  H 11000 11005       L1     1  1.00
      L1  C    15    28       P1 10175  1.00

> <Gold.PLP.Chemscore.Internal.Correction>
0.0023

> <Gold.Rescore>
     Score         DG    S(hbond)    S(metal)    S(lipo)     H(rot)  DE(clash)    DE(int)     intcor
     12.34     -14.09       3.94        0.00      24.86       2.91       0.09       1.65       ----

> <Gold.Chemscore.Fitness>
12.3436

> <Gold.Chemscore.DG>
-14.0877

> <Gold.Chemscore.ZeroCoef>
-5.4800

> <Gold.Chemscore.Hbond>
3.9400

> <Gold.Chemscore.Metal>
0.0000

> <Gold.Chemscore.Lipo>
24.8573

> <Gold.Chemscore.Internal_Hbond>
0.0000

> <Gold.Chemscore.DEClash>
0.0925

> <Gold.Chemscore.DEInternal>
1.6516

> <Gold.Chemscore.Rot>
2.9141

> <Gold.Chemscore.Internal.Correction>
   9.000000E+99

> <Gold.Chemscore.Hbonds>
donor molecule, donor type, donor heavy atom, donor atom, acceptor molecule, acceptor atom, score
      L1  H     3    18       P1 10957  0.93
      L1  H    10    24       P1  7948  1.00
      L1  H    13    27       P1  7957  0.95
      P1  H 11000 11005       L1     1  0.97

> <Gold.Chemscore.Hbond.Weighted>
-13.1595

> <Gold.Chemscore.Metal.Weighted>
-0.0000

> <Gold.Chemscore.Lipo.Weighted>
-2.9083

> <Gold.Chemscore.Internal_Hbond.Weighted>
0.0000

> <Gold.Chemscore.DEClash.Weighted>
0.0925

> <Gold.Chemscore.DEInternal.Weighted>
1.6516

> <Gold.Chemscore.Rot.Weighted>
7.4601

> <Gold.Chemscore.Internal.Correction.Weighted>
   9.000000E+99

> <Gold.Protein.RotatedTorsions>
[ 6907 6896 6895 6894 ] final   44.21 input  -60.11 | X-H torsion
[ 7974 7965 7964 7962 ] final  -96.79 input  175.53 | X-H torsion
[ 8008 7997 7996 7995 ] final -125.30 input   59.86 | X-H torsion
[ 10167 10162 10161 10158 ] final   70.06 input  -65.29 | X-H torsion
[ 10718 10713 10712 10709 ] final  -14.91 input   66.30 | X-H torsion
[ 10763 10752 10751 10750 ] final   30.36 input  -60.55 | X-H torsion
[ 11005 11000 10999 10996 ] final    7.79 input  -57.11 | X-H torsion

> <Gold.Protein.ActiveResidues>
 VAL166  LYS551  ARG553  GLY616  TRP617  ASP618  TYR619  PRO620  LYS621  CYS622 
 ASP623  PHE694  ASN695  SER759  ASP760  ASP761  ALA762  ILE779  LEU786  VAL792 
 PHE793  MET794  SER795  GLU796  ALA797  LYS798  CYS799  TRP800  GLU811  SER814 

> <Gold.Protein.RotatedAtoms>
  152.2297  134.8334  160.0475 H   0  0  0  0  0  0  0  0  0  0  0  0  # atno 6907 bound_to 6896
  151.9087  133.3551  159.3864 H   0  0  0  0  0  0  0  0  0  0  0  0  # atno 6908 bound_to 6896
  150.7022  134.4679  159.5456 H   0  0  0  0  0  0  0  0  0  0  0  0  # atno 6909 bound_to 6896
  145.3422  140.9462  143.2601 H   0  0  0  0  0  0  0  0  0  0  0  0  # atno 7974 bound_to 7965
  155.2111  140.0419  157.2933 H   0  0  0  0  0  0  0  0  0  0  0  0  # atno 8008 bound_to 7997
  154.6011  140.2452  155.7762 H   0  0  0  0  0  0  0  0  0  0  0  0  # atno 8009 bound_to 7997
  156.2322  140.2934  156.0226 H   0  0  0  0  0  0  0  0  0  0  0  0  # atno 8010 bound_to 7997
  140.0610  144.5232  150.7294 H   0  0  0  0  0  0  0  0  0  0  0  0  # atno 10167 bound_to 10162
  156.6092  130.4845  149.6208 H   0  0  0  0  0  0  0  0  0  0  0  0  # atno 10718 bound_to 10713
  153.0376  135.6466  154.1032 H   0  0  0  0  0  0  0  0  0  0  0  0  # atno 10763 bound_to 10752
  154.0744  135.2878  155.3304 H   0  0  0  0  0  0  0  0  0  0  0  0  # atno 10764 bound_to 10752
  154.6572  135.5404  153.8038 H   0  0  0  0  0  0  0  0  0  0  0  0  # atno 10765 bound_to 10752
  140.5442  134.0345  155.7914 H   0  0  0  0  0  0  0  0  0  0  0  0  # atno 11005 bound_to 11000
  144.8781  139.4942  143.6736 LP  0  0  0  0  0  0  0  0  0  0  0  0  # atno 17320 bound_to 7965
  146.3003  139.7404  142.9096 LP  0  0  0  0  0  0  0  0  0  0  0  0  # atno 17321 bound_to 7965
  140.7171  143.2555  151.4397 LP  0  0  0  0  0  0  0  0  0  0  0  0  # atno 17342 bound_to 10162
  139.5893  144.1533  152.2069 LP  0  0  0  0  0  0  0  0  0  0  0  0  # atno 17343 bound_to 10162
  156.2404  130.6848  151.1550 LP  0  0  0  0  0  0  0  0  0  0  0  0  # atno 17370 bound_to 10713
  157.7259  131.0650  150.5934 LP  0  0  0  0  0  0  0  0  0  0  0  0  # atno 17371 bound_to 10713
  141.1209  133.9462  157.2731 LP  0  0  0  0  0  0  0  0  0  0  0  0  # atno 17394 bound_to 11000
  139.9488  135.0179  156.8933 LP  0  0  0  0  0  0  0  0  0  0  0  0  # atno 17395 bound_to 11000

$$$$
