AV-unprocessed.smi:3058|AV-procd|sdf|11671|dock7
  -GOLD-   2272017 73D 1   1.00000     0.00000
 Structure written by MMmdl.
 38 40  0  0  0  0  0  0  0  0  1 V2000
  149.0075  141.7548  158.6138 O   0  0  0  0  0  0  0  0  0  0  0  0
  150.0359  142.2025  158.1046 C   0  0  0  0  0  0  0  0  0  0  0  0
  150.8364  141.4719  157.3135 N   0  0  0  0  0  0  0  0  0  0  0  0
  150.6088  140.0800  156.9446 C   0  0  0  0  0  0  0  0  0  0  0  0
  150.7336  139.8704  155.4270 C   0  0  0  0  0  0  0  0  0  0  0  0
  149.4275  140.1359  154.7046 C   0  0  0  0  0  0  0  0  0  0  0  0
  148.6734  139.0764  154.1592 C   0  0  0  0  0  0  0  0  0  0  0  0
  147.4649  139.3739  153.5000 C   0  0  0  0  0  0  0  0  0  0  0  0
  147.0612  140.7215  153.4152 C   0  0  0  0  0  0  0  0  0  0  0  0
  147.7747  141.7436  153.9347 N   0  0  0  0  0  0  0  0  0  0  0  0
  148.9325  141.4500  154.5647 C   0  0  0  0  0  0  0  0  0  0  0  0
  150.4921  143.6472  158.3761 C   0  0  2  0  0  0  0  0  0  0  0  0
  151.6487  144.1419  157.4722 C   0  0  0  0  0  0  0  0  0  0  0  0
  152.6832  144.6628  158.4879 C   0  0  2  0  0  0  0  0  0  0  0  0
  153.3513  143.4712  159.1988 C   0  0  0  0  0  0  0  0  0  0  0  0
  152.2443  142.9794  160.1491 C   0  0  0  0  0  0  0  0  0  0  0  0
  151.0582  143.9048  159.7979 C   0  0  1  0  0  0  0  0  0  0  0  0
  151.7887  145.2278  159.5857 C   0  0  0  0  0  0  0  0  0  0  0  0
  151.6658  141.9124  156.9424 H   0  0  0  0  0  0  0  0  0  0  0  0
  151.3038  139.4311  157.4807 H   0  0  0  0  0  0  0  0  0  0  0  0
  149.6073  139.8045  157.2763 H   0  0  0  0  0  0  0  0  0  0  0  0
  151.5018  140.5291  155.0202 H   0  0  0  0  0  0  0  0  0  0  0  0
  151.0567  138.8513  155.2099 H   0  0  0  0  0  0  0  0  0  0  0  0
  149.0125  138.0543  154.2448 H   0  0  0  0  0  0  0  0  0  0  0  0
  146.8612  138.5884  153.0703 H   0  0  0  0  0  0  0  0  0  0  0  0
  146.1398  140.9851  152.9172 H   0  0  0  0  0  0  0  0  0  0  0  0
  149.4788  142.2888  154.9709 H   0  0  0  0  0  0  0  0  0  0  0  0
  149.6357  144.3070  158.2220 H   0  0  0  0  0  0  0  0  0  0  0  0
  152.0712  143.3758  156.8206 H   0  0  0  0  0  0  0  0  0  0  0  0
  151.3026  144.9534  156.8307 H   0  0  0  0  0  0  0  0  0  0  0  0
  153.3941  145.3711  158.0615 H   0  0  0  0  0  0  0  0  0  0  0  0
  153.6697  142.6993  158.4974 H   0  0  0  0  0  0  0  0  0  0  0  0
  154.2270  143.7928  159.7639 H   0  0  0  0  0  0  0  0  0  0  0  0
  152.0274  141.9178  160.0386 H   0  0  0  0  0  0  0  0  0  0  0  0
  152.5464  143.1340  161.1858 H   0  0  0  0  0  0  0  0  0  0  0  0
  150.2894  143.9395  160.5705 H   0  0  0  0  0  0  0  0  0  0  0  0
  152.3419  145.5657  160.4639 H   0  0  0  0  0  0  0  0  0  0  0  0
  151.1385  146.0345  159.2424 H   0  0  0  0  0  0  0  0  0  0  0  0
  1  2  2  0  0  0  0
  2  3  1  0  0  0  0
  2 12  1  0  0  0  0
  3  4  1  0  0  0  0
  3 19  1  0  0  0  0
  4  5  1  0  0  0  0
  4 20  1  0  0  0  0
  4 21  1  0  0  0  0
  5  6  1  0  0  0  0
  5 22  1  0  0  0  0
  5 23  1  0  0  0  0
  6 11  1  0  0  0  0
  6  7  2  0  0  0  0
  7  8  1  0  0  0  0
  7 24  1  0  0  0  0
  8  9  2  0  0  0  0
  8 25  1  0  0  0  0
  9 10  1  0  0  0  0
  9 26  1  0  0  0  0
 10 11  2  0  0  0  0
 11 27  1  0  0  0  0
 12 17  1  0  0  0  0
 12 13  1  0  0  0  0
 12 28  1  0  0  0  0
 13 14  1  0  0  0  0
 13 29  1  0  0  0  0
 13 30  1  0  0  0  0
 14 18  1  0  0  0  0
 14 15  1  0  0  0  0
 14 31  1  0  0  0  0
 15 16  1  0  0  0  0
 15 32  1  0  0  0  0
 15 33  1  0  0  0  0
 16 17  1  0  0  0  0
 16 34  1  0  0  0  0
 16 35  1  0  0  0  0
 17 18  1  0  0  0  0
 17 36  1  0  0  0  0
 18 37  1  0  0  0  0
 18 38  1  0  0  0  0
M  END
> <s_m_source_file>
AV-unprocessed.smi

> <i_m_source_file_index>
3058

> <i_lp_mmshare_version>
43012

> <i_f3d_flags>
0

> <s_epik_input>
W0NIMl0xW0NIMl1bQ0BIXShbQ0gyXTIpW0NAQEhdKFtDSDJdW0NAQEhdMTIpQyg9TylbTkhdW0NIMl1bQ0gyXWMzW2NIXVtjSF1bY0hdbltjSF0z

> <s_epik_cmdline>
J2VwaWtfcHl0aG9uJywgJy1waCcsICc3LjAnLCAnLXRuJywgJzgnLCAnLW1hJywgJzIwMCcsICctbWV0YWxfYmluZGluZycsICctaW1hZScsICc8aW5maWxlLm1hZT4nLCAnLW9tYWUnLCAnPG91dGZpbGUubWFlPic=

> <r_epik_Ionization_Penalty>
0.0135821

> <r_epik_Ionization_Penalty_Charging>
0

> <r_epik_Ionization_Penalty_Neutral>
0.0135821

> <r_epik_State_Penalty>
0.0105782

> <r_epik_Charging_Adjusted_Penalty>
0.0105782

> <i_epik_Tot_Q>
0

> <i_epik_Tot_abs_Q>
0

> <r_epik_Metal_State_Penalty>
0.0103407

> <b_epik_Metal_Only>
0

> <s_lp_Force_Field>
OPLS_2005

> <r_lp_Energy>
46.6846

> <b_lp_Chiralities_Consistent>
1

> <s_lp_Variant>
AV-unprocessed.smi:3058-3

> <Gold.Version>
5.8.1

> <Gold.Id.Protein>
6NUR|6NUR_protein|mol2

> <Gold.PLP.Fitness>
48.1333

> <Gold.PLP.PLP>
-43.2954

> <Gold.PLP.part.hbond>
-0.8848

> <Gold.PLP.part.metal>
0.0000

> <Gold.PLP.part.buried>
-3.7887

> <Gold.PLP.part.nonpolar>
-39.9223

> <Gold.PLP.part.repulsive>
0.2761

> <Gold.PLP.ligand.clash>
0.0000

> <Gold.PLP.ligand.torsion>
0.5931

> <Gold.PLP.Chemscore.Hbond>
0.0000

> <Gold.PLP.Chemscore.CHOScore>
2.0000

> <Gold.PLP.Chemscore.Metal>
0.0000

> <Gold.Chemscore.Hbonds>
donor molecule, donor type, donor heavy atom, donor atom, acceptor molecule, acceptor atom, score
      L1  C     9    26       P1 10175  0.99
      L1  C    11    27       P1  8028  0.86

> <Gold.PLP.Chemscore.Internal.Correction>
0.0241

> <Gold.Rescore>
     Score         DG    S(hbond)    S(metal)    S(lipo)     H(rot)  DE(clash)    DE(int)     intcor
     16.67     -17.52       0.00        0.00     132.82       1.37       0.24       0.61       ----

> <Gold.Chemscore.Fitness>
16.6742

> <Gold.Chemscore.DG>
-17.5247

> <Gold.Chemscore.ZeroCoef>
-5.4800

> <Gold.Chemscore.Hbond>
0.0000

> <Gold.Chemscore.Metal>
0.0000

> <Gold.Chemscore.Lipo>
132.8195

> <Gold.Chemscore.Internal_Hbond>
0.0000

> <Gold.Chemscore.DEClash>
0.2393

> <Gold.Chemscore.DEInternal>
0.6112

> <Gold.Chemscore.Rot>
1.3653

> <Gold.Chemscore.Internal.Correction>
   9.000000E+99

> <Gold.Chemscore.Hbond.Weighted>
-0.0000

> <Gold.Chemscore.Metal.Weighted>
-0.0000

> <Gold.Chemscore.Lipo.Weighted>
-15.5399

> <Gold.Chemscore.Internal_Hbond.Weighted>
0.0000

> <Gold.Chemscore.DEClash.Weighted>
0.2393

> <Gold.Chemscore.DEInternal.Weighted>
0.6112

> <Gold.Chemscore.Rot.Weighted>
3.4951

> <Gold.Chemscore.Internal.Correction.Weighted>
   9.000000E+99

> <Gold.Protein.RotatedTorsions>
[ 6907 6896 6895 6894 ] final -116.56 input  -60.11 | X-H torsion
[ 7974 7965 7964 7962 ] final  -79.88 input  175.53 | X-H torsion
[ 8008 7997 7996 7995 ] final   43.97 input   59.86 | X-H torsion
[ 10167 10162 10161 10158 ] final   89.65 input  -65.29 | X-H torsion
[ 10718 10713 10712 10709 ] final -131.94 input   66.30 | X-H torsion
[ 10763 10752 10751 10750 ] final -175.73 input  -60.55 | X-H torsion
[ 11005 11000 10999 10996 ] final  -75.20 input  -57.11 | X-H torsion

> <Gold.Protein.ActiveResidues>
 VAL166  LYS551  ARG553  GLY616  TRP617  ASP618  TYR619  PRO620  LYS621  CYS622 
 ASP623  PHE694  ASN695  SER759  ASP760  ASP761  ALA762  ILE779  LEU786  VAL792 
 PHE793  MET794  SER795  GLU796  ALA797  LYS798  CYS799  TRP800  GLU811  SER814 

> <Gold.Protein.RotatedAtoms>
  150.8066  133.8500  159.3202 H   0  0  0  0  0  0  0  0  0  0  0  0  # atno 6907 bound_to 6896
  151.6297  135.1022  160.0128 H   0  0  0  0  0  0  0  0  0  0  0  0  # atno 6908 bound_to 6896
  152.4156  133.6993  159.6471 H   0  0  0  0  0  0  0  0  0  0  0  0  # atno 6909 bound_to 6896
  145.5674  140.9472  143.1414 H   0  0  0  0  0  0  0  0  0  0  0  0  # atno 7974 bound_to 7965
  155.3115  140.3391  155.4244 H   0  0  0  0  0  0  0  0  0  0  0  0  # atno 8008 bound_to 7997
  156.1953  140.1712  156.8048 H   0  0  0  0  0  0  0  0  0  0  0  0  # atno 8009 bound_to 7997
  154.5491  140.0709  156.8622 H   0  0  0  0  0  0  0  0  0  0  0  0  # atno 8010 bound_to 7997
  139.8551  144.6573  150.9124 H   0  0  0  0  0  0  0  0  0  0  0  0  # atno 10167 bound_to 10162
  156.2295  130.7029  151.0843 H   0  0  0  0  0  0  0  0  0  0  0  0  # atno 10718 bound_to 10713
  154.5809  135.2836  155.0733 H   0  0  0  0  0  0  0  0  0  0  0  0  # atno 10763 bound_to 10752
  154.2070  135.6414  153.5107 H   0  0  0  0  0  0  0  0  0  0  0  0  # atno 10764 bound_to 10752
  153.0088  135.5482  154.6463 H   0  0  0  0  0  0  0  0  0  0  0  0  # atno 10765 bound_to 10752
  141.1643  133.6938  156.7481 H   0  0  0  0  0  0  0  0  0  0  0  0  # atno 11005 bound_to 11000
  144.7454  139.7334  143.7294 LP  0  0  0  0  0  0  0  0  0  0  0  0  # atno 17320 bound_to 7965
  146.1809  139.5000  142.9867 LP  0  0  0  0  0  0  0  0  0  0  0  0  # atno 17321 bound_to 7965
  140.7782  143.3793  151.1506 LP  0  0  0  0  0  0  0  0  0  0  0  0  # atno 17342 bound_to 10162
  139.7427  143.8899  152.3055 LP  0  0  0  0  0  0  0  0  0  0  0  0  # atno 17343 bound_to 10162
  157.7126  131.0726  150.6444 LP  0  0  0  0  0  0  0  0  0  0  0  0  # atno 17370 bound_to 10713
  156.6511  130.4485  149.5719 LP  0  0  0  0  0  0  0  0  0  0  0  0  # atno 17371 bound_to 10713
  140.2624  134.8456  157.3771 LP  0  0  0  0  0  0  0  0  0  0  0  0  # atno 17394 bound_to 11000
  140.1598  134.4743  155.7902 LP  0  0  0  0  0  0  0  0  0  0  0  0  # atno 17395 bound_to 11000

$$$$
