AV-unprocessed.smi:1619|AV-procd|sdf|6490|dock3
  -GOLD-   22720 7153D 1   1.00000     0.00000
 Structure written by MMmdl.
 45 47  0  0  0  0  0  0  0  0  3 V2000
  152.3099  143.2021  160.6432 C   0  0  0  0  0  0  0  0  0  0  0  0
  152.0191  142.4369  159.3631 C   0  0  0  0  0  0  0  0  0  0  0  0
  151.0723  142.9700  158.4596 C   0  0  0  0  0  0  0  0  0  0  0  0
  150.8251  142.2459  157.2995 C   0  0  0  0  0  0  0  0  0  0  0  0
  149.9593  142.4948  156.2324 N   0  3  0  0  0  0  0  0  0  0  0  0
  150.0608  141.4888  155.3204 C   0  0  0  0  0  0  0  0  0  0  0  0
  150.9873  140.6062  155.7849 N   0  0  0  0  0  0  0  0  0  0  0  0
  151.4678  139.3472  155.2014 C   0  0  0  0  0  0  0  0  0  0  0  0
  150.3353  138.3644  154.8385 C   0  0  1  0  0  0  0  0  0  0  0  0
  149.9905  138.5947  153.4878 O   0  0  0  0  0  0  0  0  0  0  0  0
  150.7259  136.8798  155.0058 C   0  0  0  0  0  0  0  0  0  0  0  0
  149.6727  135.9595  154.5144 N   0  3  0  0  0  0  0  0  0  0  0  0
  150.0329  134.5302  154.5950 C   0  0  0  0  0  0  0  0  0  0  0  0
  148.7003  133.7893  154.5824 C   0  0  0  0  0  0  0  0  0  0  0  0
  147.7931  134.7069  155.3965 C   0  0  0  0  0  0  0  0  0  0  0  0
  148.3398  136.1188  155.1452 C   0  0  0  0  0  0  0  0  0  0  0  0
  151.4844  141.0328  157.0210 C   0  0  0  0  0  0  0  0  0  0  0  0
  152.4193  140.4925  157.9006 C   0  0  0  0  0  0  0  0  0  0  0  0
  152.6840  141.2139  159.0870 C   0  0  0  0  0  0  0  0  0  0  0  0
  153.6971  140.6490  160.0682 C   0  0  0  0  0  0  0  0  0  0  0  0
  151.6949  144.0992  160.7201 H   0  0  0  0  0  0  0  0  0  0  0  0
  153.3549  143.5108  160.6754 H   0  0  0  0  0  0  0  0  0  0  0  0
  152.1039  142.5825  161.5162 H   0  0  0  0  0  0  0  0  0  0  0  0
  150.5604  143.8992  158.6649 H   0  0  0  0  0  0  0  0  0  0  0  0
  149.5064  141.4069  154.3964 H   0  0  0  0  0  0  0  0  0  0  0  0
  152.0757  139.5852  154.3273 H   0  0  0  0  0  0  0  0  0  0  0  0
  152.1398  138.8928  155.9312 H   0  0  0  0  0  0  0  0  0  0  0  0
  149.4621  138.5886  155.4509 H   0  0  0  0  0  0  0  0  0  0  0  0
  149.6998  137.7803  153.1049 H   0  0  0  0  0  0  0  0  0  0  0  0
  151.6496  136.6862  154.4584 H   0  0  0  0  0  0  0  0  0  0  0  0
  150.9303  136.6470  156.0516 H   0  0  0  0  0  0  0  0  0  0  0  0
  150.6877  134.2326  153.7755 H   0  0  0  0  0  0  0  0  0  0  0  0
  150.5534  134.3327  155.5340 H   0  0  0  0  0  0  0  0  0  0  0  0
  148.3284  133.7103  153.5598 H   0  0  0  0  0  0  0  0  0  0  0  0
  148.7695  132.7825  154.9958 H   0  0  0  0  0  0  0  0  0  0  0  0
  146.7430  134.6079  155.1200 H   0  0  0  0  0  0  0  0  0  0  0  0
  147.8810  134.4624  156.4562 H   0  0  0  0  0  0  0  0  0  0  0  0
  148.3925  136.6775  156.0810 H   0  0  0  0  0  0  0  0  0  0  0  0
  147.6948  136.6744  154.4639 H   0  0  0  0  0  0  0  0  0  0  0  0
  152.9218  139.5593  157.6932 H   0  0  0  0  0  0  0  0  0  0  0  0
  154.1473  139.7293  159.6933 H   0  0  0  0  0  0  0  0  0  0  0  0
  153.2190  140.4214  161.0213 H   0  0  0  0  0  0  0  0  0  0  0  0
  154.5008  141.3641  160.2455 H   0  0  0  0  0  0  0  0  0  0  0  0
  149.5446  136.1568  153.5317 H   0  0  0  0  0  0  0  0  0  0  0  0
  149.3377  143.2877  156.1355 H   0  0  0  0  0  0  0  0  0  0  0  0
  1  2  1  0  0  0  0
  1 21  1  0  0  0  0
  1 22  1  0  0  0  0
  1 23  1  0  0  0  0
  2 19  1  0  0  0  0
  2  3  2  0  0  0  0
  3  4  1  0  0  0  0
  3 24  1  0  0  0  0
  4 17  2  0  0  0  0
  4  5  1  0  0  0  0
  5  6  2  0  0  0  0
  5 45  1  0  0  0  0
  6  7  1  0  0  0  0
  6 25  1  0  0  0  0
  7  8  1  0  0  0  0
  7 17  1  0  0  0  0
  8  9  1  0  0  0  0
  8 26  1  0  0  0  0
  8 27  1  0  0  0  0
  9 10  1  0  0  0  0
  9 11  1  0  0  0  0
  9 28  1  0  0  0  0
 10 29  1  0  0  0  0
 11 12  1  0  0  0  0
 11 30  1  0  0  0  0
 11 31  1  0  0  0  0
 12 16  1  0  0  0  0
 12 13  1  0  0  0  0
 12 44  1  0  0  0  0
 13 14  1  0  0  0  0
 13 32  1  0  0  0  0
 13 33  1  0  0  0  0
 14 15  1  0  0  0  0
 14 34  1  0  0  0  0
 14 35  1  0  0  0  0
 15 16  1  0  0  0  0
 15 36  1  0  0  0  0
 15 37  1  0  0  0  0
 16 38  1  0  0  0  0
 16 39  1  0  0  0  0
 17 18  1  0  0  0  0
 18 19  2  0  0  0  0
 18 40  1  0  0  0  0
 19 20  1  0  0  0  0
 20 41  1  0  0  0  0
 20 42  1  0  0  0  0
 20 43  1  0  0  0  0
M  CHG  1   5   1
M  CHG  1  12   1
M  END
> <s_m_source_file>
AV-unprocessed.smi

> <i_m_source_file_index>
1619

> <i_lp_mmshare_version>
43012

> <i_f3d_flags>
0

> <s_epik_input>
W0NIM11jKFtjSF0xKWMoW0NIM10pW2NIXWMoYzEyKW4oW2NIXW4yKVtDSDJdW0NASF0oW09IXSlbQ0gyXU4zW0NIMl1bQ0gyXVtDSDJdW0NIMl0z

> <s_epik_cmdline>
J2VwaWtfcHl0aG9uJywgJy1waCcsICc3LjAnLCAnLXRuJywgJzgnLCAnLW1hJywgJzIwMCcsICctbWV0YWxfYmluZGluZycsICctaW1hZScsICc8aW5maWxlLm1hZT4nLCAnLW9tYWUnLCAnPG91dGZpbGUubWFlPic=

> <r_epik_Ionization_Penalty>
1.18067

> <r_epik_Ionization_Penalty_Charging>
1.18067

> <r_epik_Ionization_Penalty_Neutral>
1.08888e-06

> <r_epik_State_Penalty>
1.26407

> <r_epik_Charging_Adjusted_Penalty>
2.44473

> <i_epik_Tot_Q>
2

> <i_epik_Tot_abs_Q>
2

> <r_epik_Metal_State_Penalty>
5.27628

> <b_epik_Metal_Only>
0

> <s_lp_Force_Field>
OPLS_2005

> <r_lp_Energy>
43.2678

> <b_lp_Chiralities_Consistent>
1

> <s_lp_Variant>
AV-unprocessed.smi:1619-4

> <Gold.Version>
5.8.1

> <Gold.Id.Protein>
6NUR|6NUR_protein|mol2

> <Gold.PLP.Fitness>
54.7810

> <Gold.PLP.PLP>
-40.7816

> <Gold.PLP.part.hbond>
-4.0000

> <Gold.PLP.part.metal>
0.0000

> <Gold.PLP.part.buried>
-3.2206

> <Gold.PLP.part.nonpolar>
-32.3781

> <Gold.PLP.part.repulsive>
0.1463

> <Gold.PLP.ligand.clash>
0.0000

> <Gold.PLP.ligand.torsion>
0.4940

> <Gold.PLP.Chemscore.Hbond>
4.9913

> <Gold.PLP.Chemscore.CHOScore>
0.0000

> <Gold.PLP.Chemscore.Metal>
0.0000

> <Gold.Chemscore.Hbonds>
donor molecule, donor type, donor heavy atom, donor atom, acceptor molecule, acceptor atom, score
      L1  H     5    45       P1  8028  2.00
      L1  H    10    29       P1  7948  0.88
      L1  H    12    44       P1  7948  2.00

> <Gold.PLP.Chemscore.Internal.Correction>
0.0136

> <Gold.Rescore>
     Score         DG    S(hbond)    S(metal)    S(lipo)     H(rot)  DE(clash)    DE(int)     intcor
     21.13     -21.60       2.82        0.00     102.81       2.08       0.02       0.45       ----

> <Gold.Chemscore.Fitness>
21.1347

> <Gold.Chemscore.DG>
-21.5994

> <Gold.Chemscore.ZeroCoef>
-5.4800

> <Gold.Chemscore.Hbond>
2.8197

> <Gold.Chemscore.Metal>
0.0000

> <Gold.Chemscore.Lipo>
102.8135

> <Gold.Chemscore.Internal_Hbond>
0.0000

> <Gold.Chemscore.DEClash>
0.0193

> <Gold.Chemscore.DEInternal>
0.4454

> <Gold.Chemscore.Rot>
2.0811

> <Gold.Chemscore.Internal.Correction>
   9.000000E+99

> <Gold.Chemscore.Hbonds>
donor molecule, donor type, donor heavy atom, donor atom, acceptor molecule, acceptor atom, score
      L1  H     5    45       P1  8028  0.96
      L1  H    10    29       P1  7948  0.60
      L1  H    12    44       P1  7948  0.45

> <Gold.Chemscore.Hbond.Weighted>
-9.4177

> <Gold.Chemscore.Metal.Weighted>
-0.0000

> <Gold.Chemscore.Lipo.Weighted>
-12.0292

> <Gold.Chemscore.Internal_Hbond.Weighted>
0.0000

> <Gold.Chemscore.DEClash.Weighted>
0.0193

> <Gold.Chemscore.DEInternal.Weighted>
0.4454

> <Gold.Chemscore.Rot.Weighted>
5.3275

> <Gold.Chemscore.Internal.Correction.Weighted>
   9.000000E+99

> <Gold.Protein.RotatedTorsions>
[ 6907 6896 6895 6894 ] final -168.34 input  -60.11 | X-H torsion
[ 7974 7965 7964 7962 ] final -178.05 input  175.53 | X-H torsion
[ 8008 7997 7996 7995 ] final  -23.68 input   59.86 | X-H torsion
[ 10167 10162 10161 10158 ] final -105.10 input  -65.29 | X-H torsion
[ 10718 10713 10712 10709 ] final  -91.74 input   66.30 | X-H torsion
[ 10763 10752 10751 10750 ] final   10.49 input  -60.55 | X-H torsion
[ 11005 11000 10999 10996 ] final  -57.07 input  -57.11 | X-H torsion

> <Gold.Protein.ActiveResidues>
 VAL166  LYS551  ARG553  GLY616  TRP617  ASP618  TYR619  PRO620  LYS621  CYS622 
 ASP623  PHE694  ASN695  SER759  ASP760  ASP761  ALA762  ILE779  LEU786  VAL792 
 PHE793  MET794  SER795  GLU796  ALA797  LYS798  CYS799  TRP800  GLU811  SER814 

> <Gold.Protein.RotatedAtoms>
  151.4741  133.3562  159.2827 H   0  0  0  0  0  0  0  0  0  0  0  0  # atno 6907 bound_to 6896
  150.8941  134.8350  159.7325 H   0  0  0  0  0  0  0  0  0  0  0  0  # atno 6908 bound_to 6896
  152.4841  134.4654  159.9670 H   0  0  0  0  0  0  0  0  0  0  0  0  # atno 6909 bound_to 6896
  144.7129  140.0927  143.6420 H   0  0  0  0  0  0  0  0  0  0  0  0  # atno 7974 bound_to 7965
  154.4571  140.1974  156.0348 H   0  0  0  0  0  0  0  0  0  0  0  0  # atno 8008 bound_to 7997
  156.0768  140.3277  155.7615 H   0  0  0  0  0  0  0  0  0  0  0  0  # atno 8009 bound_to 7997
  155.5176  140.0567  157.2903 H   0  0  0  0  0  0  0  0  0  0  0  0  # atno 8010 bound_to 7997
  140.2022  143.3810  152.1120 H   0  0  0  0  0  0  0  0  0  0  0  0  # atno 10167 bound_to 10162
  155.9996  130.4959  150.5519 H   0  0  0  0  0  0  0  0  0  0  0  0  # atno 10718 bound_to 10713
  153.2027  135.6858  153.8211 H   0  0  0  0  0  0  0  0  0  0  0  0  # atno 10763 bound_to 10752
  153.7472  135.3229  155.3316 H   0  0  0  0  0  0  0  0  0  0  0  0  # atno 10764 bound_to 10752
  154.8180  135.4672  154.0800 H   0  0  0  0  0  0  0  0  0  0  0  0  # atno 10765 bound_to 10752
  141.1148  133.6610  156.4714 H   0  0  0  0  0  0  0  0  0  0  0  0  # atno 11005 bound_to 11000
  145.9606  139.2798  143.1158 LP  0  0  0  0  0  0  0  0  0  0  0  0  # atno 17320 bound_to 7965
  145.9225  140.9105  143.0398 LP  0  0  0  0  0  0  0  0  0  0  0  0  # atno 17321 bound_to 7965
  139.5213  144.7044  151.5399 LP  0  0  0  0  0  0  0  0  0  0  0  0  # atno 17342 bound_to 10162
  140.6383  143.8941  150.6667 LP  0  0  0  0  0  0  0  0  0  0  0  0  # atno 17343 bound_to 10162
  157.3441  131.0722  151.1765 LP  0  0  0  0  0  0  0  0  0  0  0  0  # atno 17370 bound_to 10713
  157.2603  130.6656  149.5971 LP  0  0  0  0  0  0  0  0  0  0  0  0  # atno 17371 bound_to 10713
  140.4675  134.6784  157.5114 LP  0  0  0  0  0  0  0  0  0  0  0  0  # atno 17394 bound_to 11000
  140.0064  134.6758  155.9449 LP  0  0  0  0  0  0  0  0  0  0  0  0  # atno 17395 bound_to 11000

$$$$
