AV-unprocessed.smi:1452|AV-procd|sdf|5904|dock7
  -GOLD-   22720 5593D 1   1.00000     0.00000
 Structure written by MMmdl.
 40 42  0  0  0  0  0  0  0  0  2 V2000
  145.0560  137.7789  153.0478 O   0  0  0  0  0  0  0  0  0  0  0  0
  146.1175  137.2378  152.7439 C   0  0  0  0  0  0  0  0  0  0  0  0
  147.2989  137.8662  152.9207 N   0  0  0  0  0  0  0  0  0  0  0  0
  147.6040  139.1596  153.4379 C   0  0  0  0  0  0  0  0  0  0  0  0
  148.8457  139.2463  154.1071 C   0  0  0  0  0  0  0  0  0  0  0  0
  149.2616  140.4794  154.6457 C   0  0  0  0  0  0  0  0  0  0  0  0
  148.4255  141.5999  154.4974 C   0  0  0  0  0  0  0  0  0  0  0  0
  147.2083  141.4321  153.8134 C   0  0  0  0  0  0  0  0  0  0  0  0
  146.8077  140.2507  153.2971 N   0  0  0  0  0  0  0  0  0  0  0  0
  146.1802  136.0008  152.2237 N   0  0  0  0  0  0  0  0  0  0  0  0
  145.0460  135.1100  151.9921 C   0  0  1  0  0  0  0  0  0  0  0  0
  144.6595  135.0107  150.5033 C   0  0  0  0  0  0  0  0  0  0  0  0
  144.3806  133.5222  150.2711 C   0  0  0  0  0  0  0  0  0  0  0  0
  145.3141  132.8655  151.1934 N   0  3  2  0  0  0  0  0  0  0  0  0
  145.1670  131.4158  151.4332 C   0  0  0  0  0  0  0  0  0  0  0  0
  146.3638  130.9374  152.2829 C   0  0  0  0  0  0  0  0  0  0  0  0
  146.5457  131.7810  153.5651 C   0  0  0  0  0  0  0  0  0  0  0  0
  146.5625  133.2940  153.2584 C   0  0  0  0  0  0  0  0  0  0  0  0
  145.3099  133.6528  152.4382 C   0  0  1  0  0  0  0  0  0  0  0  0
  148.0967  137.3670  152.5548 H   0  0  0  0  0  0  0  0  0  0  0  0
  149.4788  138.3766  154.2102 H   0  0  0  0  0  0  0  0  0  0  0  0
  150.2064  140.5628  155.1622 H   0  0  0  0  0  0  0  0  0  0  0  0
  148.7102  142.5626  154.8957 H   0  0  0  0  0  0  0  0  0  0  0  0
  146.5384  142.2680  153.6754 H   0  0  0  0  0  0  0  0  0  0  0  0
  147.0969  135.6383  152.0014 H   0  0  0  0  0  0  0  0  0  0  0  0
  144.1785  135.4845  152.5390 H   0  0  0  0  0  0  0  0  0  0  0  0
  143.8051  135.6385  150.2484 H   0  0  0  0  0  0  0  0  0  0  0  0
  145.4942  135.3217  149.8728 H   0  0  0  0  0  0  0  0  0  0  0  0
  143.3541  133.2758  150.5473 H   0  0  0  0  0  0  0  0  0  0  0  0
  144.5453  133.2179  149.2371 H   0  0  0  0  0  0  0  0  0  0  0  0
  144.2224  131.2116  151.9395 H   0  0  0  0  0  0  0  0  0  0  0  0
  145.1460  130.8849  150.4808 H   0  0  0  0  0  0  0  0  0  0  0  0
  146.2421  129.8851  152.5416 H   0  0  0  0  0  0  0  0  0  0  0  0
  147.2740  131.0014  151.6851 H   0  0  0  0  0  0  0  0  0  0  0  0
  145.7297  131.5632  154.2553 H   0  0  0  0  0  0  0  0  0  0  0  0
  147.4646  131.4925  154.0764 H   0  0  0  0  0  0  0  0  0  0  0  0
  146.5850  133.8595  154.1903 H   0  0  0  0  0  0  0  0  0  0  0  0
  147.4672  133.5526  152.7061 H   0  0  0  0  0  0  0  0  0  0  0  0
  144.4345  133.3475  153.0157 H   0  0  0  0  0  0  0  0  0  0  0  0
  146.2287  132.9958  150.7855 H   0  0  0  0  0  0  0  0  0  0  0  0
  1  2  2  0  0  0  0
  2  3  1  0  0  0  0
  2 10  1  0  0  0  0
  3  4  1  0  0  0  0
  3 20  1  0  0  0  0
  4  9  1  0  0  0  0
  4  5  2  0  0  0  0
  5  6  1  0  0  0  0
  5 21  1  0  0  0  0
  6  7  2  0  0  0  0
  6 22  1  0  0  0  0
  7  8  1  0  0  0  0
  7 23  1  0  0  0  0
  8  9  2  0  0  0  0
  8 24  1  0  0  0  0
 10 11  1  0  0  0  0
 10 25  1  0  0  0  0
 11 19  1  0  0  0  0
 11 12  1  0  0  0  0
 11 26  1  0  0  0  0
 12 13  1  0  0  0  0
 12 27  1  0  0  0  0
 12 28  1  0  0  0  0
 13 14  1  0  0  0  0
 13 29  1  0  0  0  0
 13 30  1  0  0  0  0
 14 19  1  0  0  0  0
 14 15  1  0  0  0  0
 14 40  1  0  0  0  0
 15 16  1  0  0  0  0
 15 31  1  0  0  0  0
 15 32  1  0  0  0  0
 16 17  1  0  0  0  0
 16 33  1  0  0  0  0
 16 34  1  0  0  0  0
 17 18  1  0  0  0  0
 17 35  1  0  0  0  0
 17 36  1  0  0  0  0
 18 19  1  0  0  0  0
 18 37  1  0  0  0  0
 18 38  1  0  0  0  0
 19 39  1  0  0  0  0
M  CHG  1  14   1
M  END
> <s_m_source_file>
AV-unprocessed.smi

> <i_m_source_file_index>
1452

> <i_lp_mmshare_version>
43012

> <i_f3d_flags>
0

> <s_epik_input>
W0NIMl0xW0NIMl1bQ0gyXVtDSDJdW0NASF0oTjEyKVtDQEBIXShbQ0gyXVtDSDJdMilbTkhdQyg9TylbTkhdYzNbY0hdW2NIXVtjSF1bY0hdbjM=

> <s_epik_cmdline>
J2VwaWtfcHl0aG9uJywgJy1waCcsICc3LjAnLCAnLXRuJywgJzgnLCAnLW1hJywgJzIwMCcsICctbWV0YWxfYmluZGluZycsICctaW1hZScsICc8aW5maWxlLm1hZT4nLCAnLW9tYWUnLCAnPG91dGZpbGUubWFlPic=

> <r_epik_Ionization_Penalty>
0.00100813

> <r_epik_Ionization_Penalty_Charging>
0.000974069

> <r_epik_Ionization_Penalty_Neutral>
3.40643e-05

> <r_epik_State_Penalty>
0.000633842

> <r_epik_Charging_Adjusted_Penalty>
0.00160791

> <i_epik_Tot_Q>
1

> <i_epik_Tot_abs_Q>
1

> <r_epik_Metal_State_Penalty>
-0

> <b_epik_Metal_Only>
0

> <s_lp_Force_Field>
OPLS_2005

> <r_lp_Energy>
45.5748

> <b_lp_Chiralities_Consistent>
1

> <s_lp_Variant>
AV-unprocessed.smi:1452-2

> <Gold.Version>
5.8.1

> <Gold.Id.Protein>
6NUR|6NUR_protein|mol2

> <Gold.PLP.Fitness>
35.5098

> <Gold.PLP.PLP>
-30.8161

> <Gold.PLP.part.hbond>
-2.0000

> <Gold.PLP.part.metal>
0.0000

> <Gold.PLP.part.buried>
-3.3134

> <Gold.PLP.part.nonpolar>
-25.8927

> <Gold.PLP.part.repulsive>
0.9307

> <Gold.PLP.ligand.clash>
0.0000

> <Gold.PLP.ligand.torsion>
0.4014

> <Gold.PLP.Chemscore.Hbond>
1.8320

> <Gold.PLP.Chemscore.CHOScore>
0.0000

> <Gold.PLP.Chemscore.Metal>
0.0000

> <Gold.Chemscore.Hbonds>
donor molecule, donor type, donor heavy atom, donor atom, acceptor molecule, acceptor atom, score
      L1  H     3    20       P1  7948  1.00
      L1  H    10    25       P1  7948  0.83

> <Gold.PLP.Chemscore.Internal.Correction>
0.0005

> <Gold.Rescore>
     Score         DG    S(hbond)    S(metal)    S(lipo)     H(rot)  DE(clash)    DE(int)     intcor
     16.50     -17.84       1.87        0.00      74.19       1.00       0.15       1.18       ----

> <Gold.Chemscore.Fitness>
16.5009

> <Gold.Chemscore.DG>
-17.8367

> <Gold.Chemscore.ZeroCoef>
-5.4800

> <Gold.Chemscore.Hbond>
1.8671

> <Gold.Chemscore.Metal>
0.0000

> <Gold.Chemscore.Lipo>
74.1927

> <Gold.Chemscore.Internal_Hbond>
0.0000

> <Gold.Chemscore.DEClash>
0.1512

> <Gold.Chemscore.DEInternal>
1.1845

> <Gold.Chemscore.Rot>
1.0000

> <Gold.Chemscore.Internal.Correction>
   9.000000E+99

> <Gold.Chemscore.Hbonds>
donor molecule, donor type, donor heavy atom, donor atom, acceptor molecule, acceptor atom, score
      L1  H     3    20       P1  7948  0.96
      L1  H    10    25       P1  7948  0.81

> <Gold.Chemscore.Hbond.Weighted>
-6.2361

> <Gold.Chemscore.Metal.Weighted>
-0.0000

> <Gold.Chemscore.Lipo.Weighted>
-8.6805

> <Gold.Chemscore.Internal_Hbond.Weighted>
0.0000

> <Gold.Chemscore.DEClash.Weighted>
0.1512

> <Gold.Chemscore.DEInternal.Weighted>
1.1845

> <Gold.Chemscore.Rot.Weighted>
2.5600

> <Gold.Chemscore.Internal.Correction.Weighted>
   9.000000E+99

> <Gold.Protein.RotatedTorsions>
[ 6907 6896 6895 6894 ] final   64.09 input  -60.11 | X-H torsion
[ 7974 7965 7964 7962 ] final   -3.59 input  175.53 | X-H torsion
[ 8008 7997 7996 7995 ] final  150.87 input   59.86 | X-H torsion
[ 10167 10162 10161 10158 ] final  -53.15 input  -65.29 | X-H torsion
[ 10718 10713 10712 10709 ] final  137.39 input   66.30 | X-H torsion
[ 10763 10752 10751 10750 ] final -121.75 input  -60.55 | X-H torsion
[ 11005 11000 10999 10996 ] final  -87.45 input  -57.11 | X-H torsion

> <Gold.Protein.ActiveResidues>
 VAL166  LYS551  ARG553  GLY616  TRP617  ASP618  TYR619  PRO620  LYS621  CYS622 
 ASP623  PHE694  ASN695  SER759  ASP760  ASP761  ALA762  ILE779  LEU786  VAL792 
 PHE793  MET794  SER795  GLU796  ALA797  LYS798  CYS799  TRP800  GLU811  SER814 

> <Gold.Protein.RotatedAtoms>
  152.4305  134.5787  159.9941 H   0  0  0  0  0  0  0  0  0  0  0  0  # atno 6907 bound_to 6896
  151.5912  133.3360  159.3036 H   0  0  0  0  0  0  0  0  0  0  0  0  # atno 6908 bound_to 6896
  150.8197  134.7434  159.6826 H   0  0  0  0  0  0  0  0  0  0  0  0  # atno 6909 bound_to 6896
  146.2387  140.1743  142.8332 H   0  0  0  0  0  0  0  0  0  0  0  0  # atno 7974 bound_to 7965
  156.2698  140.2063  156.6086 H   0  0  0  0  0  0  0  0  0  0  0  0  # atno 8008 bound_to 7997
  154.6849  140.0536  157.0328 H   0  0  0  0  0  0  0  0  0  0  0  0  # atno 8009 bound_to 7997
  155.0947  140.3200  155.4566 H   0  0  0  0  0  0  0  0  0  0  0  0  # atno 8010 bound_to 7997
  140.6500  143.2559  151.4751 H   0  0  0  0  0  0  0  0  0  0  0  0  # atno 10167 bound_to 10162
  157.4366  131.1053  151.0190 H   0  0  0  0  0  0  0  0  0  0  0  0  # atno 10718 bound_to 10713
  154.8675  135.4157  154.2670 H   0  0  0  0  0  0  0  0  0  0  0  0  # atno 10763 bound_to 10752
  153.3587  135.7002  153.6735 H   0  0  0  0  0  0  0  0  0  0  0  0  # atno 10764 bound_to 10752
  153.5644  135.3603  155.2785 H   0  0  0  0  0  0  0  0  0  0  0  0  # atno 10765 bound_to 10752
  141.1616  133.7512  156.9308 H   0  0  0  0  0  0  0  0  0  0  0  0  # atno 11005 bound_to 11000
  144.9986  140.8611  143.5296 LP  0  0  0  0  0  0  0  0  0  0  0  0  # atno 17320 bound_to 7965
  145.1759  139.2378  143.5317 LP  0  0  0  0  0  0  0  0  0  0  0  0  # atno 17321 bound_to 7965
  139.5714  144.1920  152.1841 LP  0  0  0  0  0  0  0  0  0  0  0  0  # atno 17342 bound_to 10162
  140.1218  144.5367  150.6858 LP  0  0  0  0  0  0  0  0  0  0  0  0  # atno 17343 bound_to 10162
  157.1068  130.6005  149.5472 LP  0  0  0  0  0  0  0  0  0  0  0  0  # atno 17370 bound_to 10713
  155.9933  130.4993  150.7374 LP  0  0  0  0  0  0  0  0  0  0  0  0  # atno 17371 bound_to 10713
  140.1387  134.9308  157.2437 LP  0  0  0  0  0  0  0  0  0  0  0  0  # atno 17394 bound_to 11000
  140.2863  134.3292  155.7328 LP  0  0  0  0  0  0  0  0  0  0  0  0  # atno 17395 bound_to 11000

$$$$
