AV-unprocessed.smi:3250|AV-procd|sdf|12432|dock6
  -GOLD-   2272018323D 1   1.00000     0.00000
 Structure written by MMmdl.
 40 41  0  0  0  0  0  0  0  0  3 V2000
  147.0345  142.2456  153.9405 C   0  0  0  0  0  0  0  0  0  0  0  0
  147.0076  140.7143  154.0420 C   0  0  0  0  0  0  0  0  0  0  0  0
  148.3563  140.1104  153.8729 N   0  3  2  0  0  0  0  0  0  0  0  0
  148.4959  138.7366  154.4200 C   0  0  0  0  0  0  0  0  0  0  0  0
  148.6557  138.7527  155.9522 C   0  0  0  0  0  0  0  0  0  0  0  0
  149.7459  139.5926  156.3125 O   0  0  0  0  0  0  0  0  0  0  0  0
  149.5531  140.9427  155.9029 C   0  0  1  0  0  0  0  0  0  0  0  0
  150.7408  141.7749  156.4164 C   0  0  0  0  0  0  0  0  0  0  0  0
  150.3166  143.0133  157.0567 N   0  0  0  0  0  0  0  0  0  0  0  0
  150.8079  143.4745  158.2656 C   0  0  0  0  0  0  0  0  0  0  0  0
  150.3285  144.6382  158.7284 N   0  3  0  0  0  0  0  0  0  0  0  0
  150.7857  145.1353  159.9043 C   0  0  0  0  0  0  0  0  0  0  0  0
  151.7619  144.4384  160.6391 C   0  0  0  0  0  0  0  0  0  0  0  0
  152.2212  143.2268  160.0980 C   0  0  0  0  0  0  0  0  0  0  0  0
  153.1836  142.5004  160.7686 O   0  0  0  0  0  0  0  0  0  0  0  0
  153.5698  141.2375  160.2363 C   0  0  0  0  0  0  0  0  0  0  0  0
  151.7363  142.7637  158.9219 N   0  0  0  0  0  0  0  0  0  0  0  0
  149.4577  140.9754  154.3633 C   0  0  0  0  0  0  0  0  0  0  0  0
  146.0518  142.6609  154.1647 H   0  0  0  0  0  0  0  0  0  0  0  0
  147.3069  142.5855  152.9418 H   0  0  0  0  0  0  0  0  0  0  0  0
  147.7429  142.6761  154.6488 H   0  0  0  0  0  0  0  0  0  0  0  0
  146.6250  140.4570  155.0305 H   0  0  0  0  0  0  0  0  0  0  0  0
  146.3001  140.2996  153.3241 H   0  0  0  0  0  0  0  0  0  0  0  0
  147.6582  138.1049  154.1274 H   0  0  0  0  0  0  0  0  0  0  0  0
  149.3840  138.2853  153.9755 H   0  0  0  0  0  0  0  0  0  0  0  0
  147.7429  139.0876  156.4464 H   0  0  0  0  0  0  0  0  0  0  0  0
  148.8555  137.7446  156.3157 H   0  0  0  0  0  0  0  0  0  0  0  0
  148.6264  141.3267  156.3314 H   0  0  0  0  0  0  0  0  0  0  0  0
  151.3263  141.1934  157.1289 H   0  0  0  0  0  0  0  0  0  0  0  0
  151.4127  142.0191  155.5927 H   0  0  0  0  0  0  0  0  0  0  0  0
  149.6793  143.6135  156.5532 H   0  0  0  0  0  0  0  0  0  0  0  0
  150.3565  146.0759  160.2171 H   0  0  0  0  0  0  0  0  0  0  0  0
  152.1413  144.8181  161.5766 H   0  0  0  0  0  0  0  0  0  0  0  0
  154.3377  140.7975  160.8724 H   0  0  0  0  0  0  0  0  0  0  0  0
  153.9877  141.3365  159.2332 H   0  0  0  0  0  0  0  0  0  0  0  0
  152.7284  140.5437  160.2061 H   0  0  0  0  0  0  0  0  0  0  0  0
  150.3931  140.6166  153.9312 H   0  0  0  0  0  0  0  0  0  0  0  0
  149.3278  141.9968  154.0030 H   0  0  0  0  0  0  0  0  0  0  0  0
  148.4867  140.0371  152.8736 H   0  0  0  0  0  0  0  0  0  0  0  0
  149.6215  145.1580  158.2076 H   0  0  0  0  0  0  0  0  0  0  0  0
  1  2  1  0  0  0  0
  1 19  1  0  0  0  0
  1 20  1  0  0  0  0
  1 21  1  0  0  0  0
  2  3  1  0  0  0  0
  2 22  1  0  0  0  0
  2 23  1  0  0  0  0
  3 18  1  0  0  0  0
  3  4  1  0  0  0  0
  3 39  1  0  0  0  0
  4  5  1  0  0  0  0
  4 24  1  0  0  0  0
  4 25  1  0  0  0  0
  5  6  1  0  0  0  0
  5 26  1  0  0  0  0
  5 27  1  0  0  0  0
  6  7  1  0  0  0  0
  7  8  1  0  0  0  0
  7 18  1  0  0  0  0
  7 28  1  0  0  0  0
  8  9  1  0  0  0  0
  8 29  1  0  0  0  0
  8 30  1  0  0  0  0
  9 10  1  0  0  0  0
  9 31  1  0  0  0  0
 10 17  1  0  0  0  0
 10 11  2  0  0  0  0
 11 12  1  0  0  0  0
 11 40  1  0  0  0  0
 12 13  2  0  0  0  0
 12 32  1  0  0  0  0
 13 14  1  0  0  0  0
 13 33  1  0  0  0  0
 14 15  1  0  0  0  0
 14 17  2  0  0  0  0
 15 16  1  0  0  0  0
 16 34  1  0  0  0  0
 16 35  1  0  0  0  0
 16 36  1  0  0  0  0
 18 37  1  0  0  0  0
 18 38  1  0  0  0  0
M  CHG  1   3   1
M  CHG  1  11   1
M  END
> <s_m_source_file>
AV-unprocessed.smi

> <i_m_source_file_index>
3250

> <i_lp_mmshare_version>
43012

> <i_f3d_flags>
0

> <s_epik_input>
W0NIM11bQ0gyXU4xW0NIMl1bQ0gyXU9bQ0BIXShbQ0gyXTEpW0NIMl1bTkhdYzJuW2NIXVtjSF1jKG4yKU9bQ0gzXQ==

> <s_epik_cmdline>
J2VwaWtfcHl0aG9uJywgJy1waCcsICc3LjAnLCAnLXRuJywgJzgnLCAnLW1hJywgJzIwMCcsICctbWV0YWxfYmluZGluZycsICctaW1hZScsICc8aW5maWxlLm1hZT4nLCAnLW9tYWUnLCAnPG91dGZpbGUubWFlPic=

> <r_lp_tautomer_probability>
0.999985

> <r_epik_Ionization_Penalty>
2.24691

> <r_epik_Ionization_Penalty_Charging>
2.24686

> <r_epik_Ionization_Penalty_Neutral>
4.52111e-05

> <r_epik_State_Penalty>
2.24709

> <r_epik_Charging_Adjusted_Penalty>
4.49395

> <i_epik_Tot_Q>
2

> <i_epik_Tot_abs_Q>
2

> <r_epik_Metal_State_Penalty>
2.26327

> <b_epik_Metal_Only>
0

> <s_lp_Force_Field>
OPLS_2005

> <r_lp_Energy>
19.5656

> <b_lp_Chiralities_Consistent>
1

> <s_lp_Variant>
AV-unprocessed.smi:3250-8

> <Gold.Version>
5.8.1

> <Gold.Id.Protein>
6NUR|6NUR_protein|mol2

> <Gold.PLP.Fitness>
48.2921

> <Gold.PLP.PLP>
-35.3572

> <Gold.PLP.part.hbond>
-3.1908

> <Gold.PLP.part.metal>
0.0000

> <Gold.PLP.part.buried>
-4.9677

> <Gold.PLP.part.nonpolar>
-28.4622

> <Gold.PLP.part.repulsive>
0.3007

> <Gold.PLP.ligand.clash>
0.0000

> <Gold.PLP.ligand.torsion>
1.0431

> <Gold.PLP.Chemscore.Hbond>
5.0000

> <Gold.PLP.Chemscore.CHOScore>
0.0000

> <Gold.PLP.Chemscore.Metal>
0.0000

> <Gold.Chemscore.Hbonds>
donor molecule, donor type, donor heavy atom, donor atom, acceptor molecule, acceptor atom, score
      L1  H     3    39       P1  7957  0.98
      L1  H     9    31       P1  8028  2.00
      L1  H    11    40       P1  8029  1.66

> <Gold.PLP.Chemscore.Internal.Correction>
0.0211

> <Gold.Rescore>
     Score         DG    S(hbond)    S(metal)    S(lipo)     H(rot)  DE(clash)    DE(int)     intcor
     16.51     -18.80       2.72        0.00      74.68       1.75       1.36       0.93       ----

> <Gold.Chemscore.Fitness>
16.5062

> <Gold.Chemscore.DG>
-18.7985

> <Gold.Chemscore.ZeroCoef>
-5.4800

> <Gold.Chemscore.Hbond>
2.7153

> <Gold.Chemscore.Metal>
0.0000

> <Gold.Chemscore.Lipo>
74.6764

> <Gold.Chemscore.Internal_Hbond>
0.0000

> <Gold.Chemscore.DEClash>
1.3649

> <Gold.Chemscore.DEInternal>
0.9273

> <Gold.Chemscore.Rot>
1.7530

> <Gold.Chemscore.Internal.Correction>
   9.000000E+99

> <Gold.Chemscore.Hbonds>
donor molecule, donor type, donor heavy atom, donor atom, acceptor molecule, acceptor atom, score
      L1  H     3    39       P1  7957  0.89
      L1  H     9    31       P1  8028  0.99
      L1  H    11    40       P1  8029  0.28

> <Gold.Chemscore.Hbond.Weighted>
-9.0690

> <Gold.Chemscore.Metal.Weighted>
-0.0000

> <Gold.Chemscore.Lipo.Weighted>
-8.7371

> <Gold.Chemscore.Internal_Hbond.Weighted>
0.0000

> <Gold.Chemscore.DEClash.Weighted>
1.3649

> <Gold.Chemscore.DEInternal.Weighted>
0.9273

> <Gold.Chemscore.Rot.Weighted>
4.4876

> <Gold.Chemscore.Internal.Correction.Weighted>
   9.000000E+99

> <Gold.Protein.RotatedTorsions>
[ 6907 6896 6895 6894 ] final -145.16 input  -60.11 | X-H torsion
[ 7974 7965 7964 7962 ] final   47.92 input  175.53 | X-H torsion
[ 8008 7997 7996 7995 ] final -125.64 input   59.86 | X-H torsion
[ 10167 10162 10161 10158 ] final -176.48 input  -65.29 | X-H torsion
[ 10718 10713 10712 10709 ] final  -44.86 input   66.30 | X-H torsion
[ 10763 10752 10751 10750 ] final  -44.48 input  -60.55 | X-H torsion
[ 11005 11000 10999 10996 ] final   90.03 input  -57.11 | X-H torsion

> <Gold.Protein.ActiveResidues>
 VAL166  LYS551  ARG553  GLY616  TRP617  ASP618  TYR619  PRO620  LYS621  CYS622 
 ASP623  PHE694  ASN695  SER759  ASP760  ASP761  ALA762  ILE779  LEU786  VAL792 
 PHE793  MET794  SER795  GLU796  ALA797  LYS798  CYS799  TRP800  GLU811  SER814 

> <Gold.Protein.RotatedAtoms>
  151.1240  133.5084  159.2600 H   0  0  0  0  0  0  0  0  0  0  0  0  # atno 6907 bound_to 6896
  151.1831  135.0369  159.8810 H   0  0  0  0  0  0  0  0  0  0  0  0  # atno 6908 bound_to 6896
  152.5457  134.1089  159.8403 H   0  0  0  0  0  0  0  0  0  0  0  0  # atno 6909 bound_to 6896
  146.0252  139.4698  142.9872 H   0  0  0  0  0  0  0  0  0  0  0  0  # atno 7974 bound_to 7965
  155.2166  140.0420  157.2942 H   0  0  0  0  0  0  0  0  0  0  0  0  # atno 8008 bound_to 7997
  154.5977  140.2443  155.7806 H   0  0  0  0  0  0  0  0  0  0  0  0  # atno 8009 bound_to 7997
  156.2301  140.2941  156.0175 H   0  0  0  0  0  0  0  0  0  0  0  0  # atno 8010 bound_to 7997
  139.5528  144.2067  152.1106 H   0  0  0  0  0  0  0  0  0  0  0  0  # atno 10167 bound_to 10162
  156.2342  130.4175  149.8838 H   0  0  0  0  0  0  0  0  0  0  0  0  # atno 10718 bound_to 10713
  154.0127  135.6679  153.4766 H   0  0  0  0  0  0  0  0  0  0  0  0  # atno 10763 bound_to 10752
  153.0614  135.5026  154.8097 H   0  0  0  0  0  0  0  0  0  0  0  0  # atno 10764 bound_to 10752
  154.6985  135.3074  154.9339 H   0  0  0  0  0  0  0  0  0  0  0  0  # atno 10765 bound_to 10752
  139.8864  134.8588  156.3226 H   0  0  0  0  0  0  0  0  0  0  0  0  # atno 11005 bound_to 11000
  145.7129  141.0100  143.1444 LP  0  0  0  0  0  0  0  0  0  0  0  0  # atno 17320 bound_to 7965
  144.7006  139.8778  143.7445 LP  0  0  0  0  0  0  0  0  0  0  0  0  # atno 17321 bound_to 7965
  140.1565  144.5066  150.6657 LP  0  0  0  0  0  0  0  0  0  0  0  0  # atno 17342 bound_to 10162
  140.6794  143.2319  151.5423 LP  0  0  0  0  0  0  0  0  0  0  0  0  # atno 17343 bound_to 10162
  156.6441  130.8717  151.3519 LP  0  0  0  0  0  0  0  0  0  0  0  0  # atno 17370 bound_to 10713
  157.7147  130.9482  150.1212 LP  0  0  0  0  0  0  0  0  0  0  0  0  # atno 17371 bound_to 10713
  140.9776  133.7287  156.0625 LP  0  0  0  0  0  0  0  0  0  0  0  0  # atno 17394 bound_to 11000
  140.7790  134.3746  157.5491 LP  0  0  0  0  0  0  0  0  0  0  0  0  # atno 17395 bound_to 11000

$$$$
