AV-unprocessed.smi:2154|AV-procd|sdf|8770|dock4
  -GOLD-   2272011553D 1   1.00000     0.00000
 Structure written by MMmdl.
 32 33  0  0  0  0  0  0  0  0  1 V2000
  152.5614  142.8701  161.2366 C   0  0  0  0  0  0  0  0  0  0  0  0
  152.6793  143.8489  160.0883 C   0  0  2  0  0  0  0  0  0  0  0  0
  151.9706  145.1828  160.1388 C   0  0  0  0  0  0  0  0  0  0  0  0
  151.5024  144.1160  159.1767 C   0  0  1  0  0  0  0  0  0  0  0  0
  151.7094  144.2678  157.6815 C   0  0  0  0  0  0  0  0  0  0  0  0
  150.8791  143.4025  156.8536 N   0  0  0  0  0  0  0  0  0  0  0  0
  151.0040  142.0696  156.7665 C   0  0  0  0  0  0  0  0  0  0  0  0
  151.8455  141.4297  157.3994 O   0  0  0  0  0  0  0  0  0  0  0  0
  150.0102  141.3595  155.8354 C   0  0  0  0  0  0  0  0  0  0  0  0
  150.2818  139.9221  155.6856 N   0  0  0  0  0  0  0  0  0  0  0  0
  150.4059  139.3610  154.4223 C   0  0  0  0  0  0  0  0  0  0  0  0
  150.6432  138.0448  154.2108 C   0  0  0  0  0  0  0  0  0  0  0  0
  150.7829  137.1289  155.3380 C   0  0  0  0  0  0  0  0  0  0  0  0
  150.9997  135.9225  155.2489 O   0  0  0  0  0  0  0  0  0  0  0  0
  150.6492  137.7304  156.5924 N   0  0  0  0  0  0  0  0  0  0  0  0
  150.4031  139.0860  156.8172 C   0  0  0  0  0  0  0  0  0  0  0  0
  150.2983  139.5129  157.9664 O   0  0  0  0  0  0  0  0  0  0  0  0
  150.7346  137.1348  157.4032 H   0  0  0  0  0  0  0  0  0  0  0  0
  151.5645  142.9069  161.6772 H   0  0  0  0  0  0  0  0  0  0  0  0
  153.2919  143.1102  162.0092 H   0  0  0  0  0  0  0  0  0  0  0  0
  152.7484  141.8559  160.8834 H   0  0  0  0  0  0  0  0  0  0  0  0
  153.6612  143.8515  159.6184 H   0  0  0  0  0  0  0  0  0  0  0  0
  151.3384  145.3912  160.9998 H   0  0  0  0  0  0  0  0  0  0  0  0
  152.4941  146.0437  159.7280 H   0  0  0  0  0  0  0  0  0  0  0  0
  150.5799  143.6023  159.4414 H   0  0  0  0  0  0  0  0  0  0  0  0
  151.5114  145.3012  157.3953 H   0  0  0  0  0  0  0  0  0  0  0  0
  152.7614  144.0866  157.4553 H   0  0  0  0  0  0  0  0  0  0  0  0
  150.1585  143.8494  156.3052 H   0  0  0  0  0  0  0  0  0  0  0  0
  149.0053  141.5139  156.2312 H   0  0  0  0  0  0  0  0  0  0  0  0
  150.0118  141.8461  154.8578 H   0  0  0  0  0  0  0  0  0  0  0  0
  150.3051  140.0009  153.5571 H   0  0  0  0  0  0  0  0  0  0  0  0
  150.7290  137.6670  153.2022 H   0  0  0  0  0  0  0  0  0  0  0  0
  1  2  1  0  0  0  0
  1 19  1  0  0  0  0
  1 20  1  0  0  0  0
  1 21  1  0  0  0  0
  2  4  1  0  0  0  0
  2  3  1  0  0  0  0
  2 22  1  0  0  0  0
  3  4  1  0  0  0  0
  3 23  1  0  0  0  0
  3 24  1  0  0  0  0
  4  5  1  0  0  0  0
  4 25  1  0  0  0  0
  5  6  1  0  0  0  0
  5 26  1  0  0  0  0
  5 27  1  0  0  0  0
  6  7  1  0  0  0  0
  6 28  1  0  0  0  0
  7  8  2  0  0  0  0
  7  9  1  0  0  0  0
  9 10  1  0  0  0  0
  9 29  1  0  0  0  0
  9 30  1  0  0  0  0
 10 16  1  0  0  0  0
 10 11  1  0  0  0  0
 11 12  2  0  0  0  0
 11 31  1  0  0  0  0
 12 13  1  0  0  0  0
 12 32  1  0  0  0  0
 13 14  2  0  0  0  0
 13 15  1  0  0  0  0
 15 18  1  0  0  0  0
 15 16  1  0  0  0  0
 16 17  2  0  0  0  0
M  END
> <s_m_source_file>
AV-unprocessed.smi

> <i_m_source_file_index>
2154

> <i_lp_mmshare_version>
43012

> <i_f3d_flags>
0

> <s_epik_input>
W0NIM11bQ0BASF0xW0NIMl1bQ0BIXTFbQ0gyXVtOSF1DKD1PKVtDSDJdbjJbY0hdW2NIXWMoPU8pW25IXWMyPU8=

> <s_epik_cmdline>
J2VwaWtfcHl0aG9uJywgJy1waCcsICc3LjAnLCAnLXRuJywgJzgnLCAnLW1hJywgJzIwMCcsICctbWV0YWxfYmluZGluZycsICctaW1hZScsICc8aW5maWxlLm1hZT4nLCAnLW9tYWUnLCAnPG91dGZpbGUubWFlPic=

> <r_lp_tautomer_probability>
0.999537

> <r_epik_Ionization_Penalty>
0.00305319

> <r_epik_Ionization_Penalty_Charging>
0.00305317

> <r_epik_Ionization_Penalty_Neutral>
2.06703e-08

> <r_epik_State_Penalty>
0.00214626

> <r_epik_Charging_Adjusted_Penalty>
0.00519944

> <i_epik_Tot_Q>
0

> <i_epik_Tot_abs_Q>
0

> <r_epik_Metal_State_Penalty>
0.361976

> <b_epik_Metal_Only>
0

> <s_lp_Force_Field>
OPLS_2005

> <r_lp_Energy>
14.8424

> <b_lp_Chiralities_Consistent>
1

> <s_lp_Variant>
AV-unprocessed.smi:2154-1

> <Gold.Version>
5.8.1

> <Gold.Id.Protein>
6NUR|6NUR_protein|mol2

> <Gold.PLP.Fitness>
45.4068

> <Gold.PLP.PLP>
-36.9916

> <Gold.PLP.part.hbond>
-2.0000

> <Gold.PLP.part.metal>
0.0000

> <Gold.PLP.part.buried>
-2.9452

> <Gold.PLP.part.nonpolar>
-32.2166

> <Gold.PLP.part.repulsive>
0.1825

> <Gold.PLP.ligand.clash>
0.0000

> <Gold.PLP.ligand.torsion>
0.5640

> <Gold.PLP.Chemscore.Hbond>
2.0000

> <Gold.PLP.Chemscore.CHOScore>
1.0000

> <Gold.PLP.Chemscore.Metal>
0.0000

> <Gold.Chemscore.Hbonds>
donor molecule, donor type, donor heavy atom, donor atom, acceptor molecule, acceptor atom, score
      L1  H     6    28       P1  8028  1.00
      P1  H 10752 10765       L1    14  0.93
      L1  C    11    31       P1  7957  1.00

> <Gold.PLP.Chemscore.Internal.Correction>
0.5432

> <Gold.Rescore>
     Score         DG    S(hbond)    S(metal)    S(lipo)     H(rot)  DE(clash)    DE(int)     intcor
     15.69     -16.43       1.92        0.00      82.66       2.01       0.14       0.60       ----

> <Gold.Chemscore.Fitness>
15.6931

> <Gold.Chemscore.DG>
-16.4286

> <Gold.Chemscore.ZeroCoef>
-5.4800

> <Gold.Chemscore.Hbond>
1.9203

> <Gold.Chemscore.Metal>
0.0000

> <Gold.Chemscore.Lipo>
82.6600

> <Gold.Chemscore.Internal_Hbond>
0.0000

> <Gold.Chemscore.DEClash>
0.1382

> <Gold.Chemscore.DEInternal>
0.5972

> <Gold.Chemscore.Rot>
2.0065

> <Gold.Chemscore.Internal.Correction>
   9.000000E+99

> <Gold.Chemscore.Hbonds>
donor molecule, donor type, donor heavy atom, donor atom, acceptor molecule, acceptor atom, score
      L1  H     6    28       P1  8028  1.00
      P1  H 10752 10765       L1    14  0.69

> <Gold.Chemscore.Hbond.Weighted>
-6.4140

> <Gold.Chemscore.Metal.Weighted>
-0.0000

> <Gold.Chemscore.Lipo.Weighted>
-9.6712

> <Gold.Chemscore.Internal_Hbond.Weighted>
0.0000

> <Gold.Chemscore.DEClash.Weighted>
0.1382

> <Gold.Chemscore.DEInternal.Weighted>
0.5972

> <Gold.Chemscore.Rot.Weighted>
5.1366

> <Gold.Chemscore.Internal.Correction.Weighted>
   9.000000E+99

> <Gold.Protein.RotatedTorsions>
[ 6907 6896 6895 6894 ] final   45.20 input  -60.11 | X-H torsion
[ 7974 7965 7964 7962 ] final   96.28 input  175.53 | X-H torsion
[ 8008 7997 7996 7995 ] final   -2.43 input   59.86 | X-H torsion
[ 10167 10162 10161 10158 ] final  -73.25 input  -65.29 | X-H torsion
[ 10718 10713 10712 10709 ] final   21.09 input   66.30 | X-H torsion
[ 10763 10752 10751 10750 ] final -173.13 input  -60.55 | X-H torsion
[ 11005 11000 10999 10996 ] final  -69.36 input  -57.11 | X-H torsion

> <Gold.Protein.ActiveResidues>
 VAL166  LYS551  ARG553  GLY616  TRP617  ASP618  TYR619  PRO620  LYS621  CYS622 
 ASP623  PHE694  ASN695  SER759  ASP760  ASP761  ALA762  ILE779  LEU786  VAL792 
 PHE793  MET794  SER795  GLU796  ALA797  LYS798  CYS799  TRP800  GLU811  SER814 

> <Gold.Protein.RotatedAtoms>
  152.2417  134.8222  160.0459 H   0  0  0  0  0  0  0  0  0  0  0  0  # atno 6907 bound_to 6896
  151.8934  133.3516  159.3814 H   0  0  0  0  0  0  0  0  0  0  0  0  # atno 6908 bound_to 6896
  150.7056  134.4827  159.5522 H   0  0  0  0  0  0  0  0  0  0  0  0  # atno 6909 bound_to 6896
  145.4409  139.2301  143.3092 H   0  0  0  0  0  0  0  0  0  0  0  0  # atno 7974 bound_to 7965
  154.6358  140.2534  155.7380 H   0  0  0  0  0  0  0  0  0  0  0  0  # atno 8008 bound_to 7997
  156.2503  140.2897  156.0650 H   0  0  0  0  0  0  0  0  0  0  0  0  # atno 8009 bound_to 7997
  155.1673  140.0385  157.2846 H   0  0  0  0  0  0  0  0  0  0  0  0  # atno 8010 bound_to 7997
  140.5126  143.2343  151.7568 H   0  0  0  0  0  0  0  0  0  0  0  0  # atno 10167 bound_to 10162
  157.1337  130.6602  149.5959 H   0  0  0  0  0  0  0  0  0  0  0  0  # atno 10718 bound_to 10713
  154.6114  135.2865  155.0428 H   0  0  0  0  0  0  0  0  0  0  0  0  # atno 10763 bound_to 10752
  154.1657  135.6481  153.5000 H   0  0  0  0  0  0  0  0  0  0  0  0  # atno 10764 bound_to 10752
  153.0196  135.5389  154.6869 H   0  0  0  0  0  0  0  0  0  0  0  0  # atno 10765 bound_to 10752
  141.1552  133.6762  156.6588 H   0  0  0  0  0  0  0  0  0  0  0  0  # atno 11005 bound_to 11000
  146.2557  140.5157  142.8875 LP  0  0  0  0  0  0  0  0  0  0  0  0  # atno 17320 bound_to 7965
  144.8122  140.6406  143.6408 LP  0  0  0  0  0  0  0  0  0  0  0  0  # atno 17321 bound_to 7965
  139.4900  144.4369  151.9808 LP  0  0  0  0  0  0  0  0  0  0  0  0  # atno 17342 bound_to 10162
  140.3462  144.3144  150.5957 LP  0  0  0  0  0  0  0  0  0  0  0  0  # atno 17343 bound_to 10162
  155.9803  130.4802  150.6762 LP  0  0  0  0  0  0  0  0  0  0  0  0  # atno 17370 bound_to 10713
  157.4370  131.0856  151.0982 LP  0  0  0  0  0  0  0  0  0  0  0  0  # atno 17371 bound_to 10713
  140.3263  134.7965  157.4292 LP  0  0  0  0  0  0  0  0  0  0  0  0  # atno 17394 bound_to 11000
  140.1054  134.5417  155.8314 LP  0  0  0  0  0  0  0  0  0  0  0  0  # atno 17395 bound_to 11000

$$$$
