AV-unprocessed.smi:363|AV-procd|sdf|2423|dock4
  -GOLD-   2262022363D 1   1.00000     0.00000
 Structure written by MMmdl.
 39 40  0  0  0  0  0  0  0  0  1 V2000
  145.0390  144.3549  157.5180 C   0  0  0  0  0  0  0  0  0  0  0  0
  146.1175  143.3444  157.1470 C   0  0  0  0  0  0  0  0  0  0  0  0
  146.3288  143.0631  155.7461 C   0  0  0  0  0  0  0  0  0  0  0  0
  147.2291  142.1498  155.3488 C   0  0  0  0  0  0  0  0  0  0  0  0
  147.4301  141.8503  153.8669 C   0  0  0  0  0  0  0  0  0  0  0  0
  148.0164  141.4495  156.3041 N   0  0  0  0  0  0  0  0  0  0  0  0
  149.0043  140.4459  155.8424 C   0  0  0  0  0  0  0  0  0  0  0  0
  150.4057  141.0635  155.6226 C   0  0  2  0  0  0  0  0  0  0  0  0
  151.1544  140.2222  154.7679 O   0  0  0  0  0  0  0  0  0  0  0  0
  151.1274  141.2690  156.9461 C   0  0  0  0  0  0  0  0  0  0  0  0
  151.4745  142.5708  157.3673 C   0  0  0  0  0  0  0  0  0  0  0  0
  152.1388  142.7671  158.5937 C   0  0  0  0  0  0  0  0  0  0  0  0
  152.4585  141.6631  159.4074 C   0  0  0  0  0  0  0  0  0  0  0  0
  153.2734  141.9044  160.9091 Cl  0  0  0  0  0  0  0  0  0  0  0  0
  152.1120  140.3623  158.9941 C   0  0  0  0  0  0  0  0  0  0  0  0
  151.4478  140.1657  157.7678 C   0  0  0  0  0  0  0  0  0  0  0  0
  147.9041  141.6815  157.6516 C   0  0  0  0  0  0  0  0  0  0  0  0
  148.6497  141.1026  158.4483 O   0  0  0  0  0  0  0  0  0  0  0  0
  146.8658  142.6677  158.0594 C   0  0  0  0  0  0  0  0  0  0  0  0
  146.7078  142.8990  159.5086 C   0  0  0  0  0  0  0  0  0  0  0  0
  146.9114  144.1615  159.9092 N   0  0  0  0  0  0  0  0  0  0  0  0
  146.4875  142.0197  160.3401 O   0  0  0  0  0  0  0  0  0  0  0  0
  144.4325  144.6191  156.6515 H   0  0  0  0  0  0  0  0  0  0  0  0
  145.4889  145.2716  157.9001 H   0  0  0  0  0  0  0  0  0  0  0  0
  144.3655  143.9521  158.2752 H   0  0  0  0  0  0  0  0  0  0  0  0
  145.7436  143.5901  155.0063 H   0  0  0  0  0  0  0  0  0  0  0  0
  146.6161  142.2707  153.2755 H   0  0  0  0  0  0  0  0  0  0  0  0
  147.4483  140.7826  153.6557 H   0  0  0  0  0  0  0  0  0  0  0  0
  148.3577  142.2986  153.5097 H   0  0  0  0  0  0  0  0  0  0  0  0
  149.0684  139.6428  156.5750 H   0  0  0  0  0  0  0  0  0  0  0  0
  148.6816  139.9111  154.9472 H   0  0  0  0  0  0  0  0  0  0  0  0
  150.3154  142.0297  155.1253 H   0  0  0  0  0  0  0  0  0  0  0  0
  150.5591  139.6297  154.3347 H   0  0  0  0  0  0  0  0  0  0  0  0
  151.2330  143.4254  156.7522 H   0  0  0  0  0  0  0  0  0  0  0  0
  152.4026  143.7660  158.9089 H   0  0  0  0  0  0  0  0  0  0  0  0
  152.3544  139.5135  159.6166 H   0  0  0  0  0  0  0  0  0  0  0  0
  151.1839  139.1645  157.4599 H   0  0  0  0  0  0  0  0  0  0  0  0
  146.8384  144.3984  160.8881 H   0  0  0  0  0  0  0  0  0  0  0  0
  147.1536  144.8693  159.2310 H   0  0  0  0  0  0  0  0  0  0  0  0
  1  2  1  0  0  0  0
  1 23  1  0  0  0  0
  1 24  1  0  0  0  0
  1 25  1  0  0  0  0
  2 19  2  0  0  0  0
  2  3  1  0  0  0  0
  3  4  2  0  0  0  0
  3 26  1  0  0  0  0
  4  5  1  0  0  0  0
  4  6  1  0  0  0  0
  5 27  1  0  0  0  0
  5 28  1  0  0  0  0
  5 29  1  0  0  0  0
  6  7  1  0  0  0  0
  6 17  1  0  0  0  0
  7  8  1  0  0  0  0
  7 30  1  0  0  0  0
  7 31  1  0  0  0  0
  8  9  1  0  0  0  0
  8 10  1  0  0  0  0
  8 32  1  0  0  0  0
  9 33  1  0  0  0  0
 10 16  1  0  0  0  0
 10 11  2  0  0  0  0
 11 12  1  0  0  0  0
 11 34  1  0  0  0  0
 12 13  2  0  0  0  0
 12 35  1  0  0  0  0
 13 14  1  0  0  0  0
 13 15  1  0  0  0  0
 15 16  2  0  0  0  0
 15 36  1  0  0  0  0
 16 37  1  0  0  0  0
 17 18  2  0  0  0  0
 17 19  1  0  0  0  0
 19 20  1  0  0  0  0
 20 21  1  0  0  0  0
 20 22  2  0  0  0  0
 21 38  1  0  0  0  0
 21 39  1  0  0  0  0
M  END
> <s_m_source_file>
AV-unprocessed.smi

> <i_m_source_file_index>
363

> <i_lp_mmshare_version>
43012

> <i_f3d_flags>
0

> <s_epik_input>
W0NIM11jMVtjSF1jKFtDSDNdKW4oYyg9TyljMUMoPU8pW05IMl0pW0NIMl1bQ0BIXShbT0hdKWMyW2NIXVtjSF1jKENsKVtjSF1bY0hdMg==

> <s_epik_cmdline>
J2VwaWtfcHl0aG9uJywgJy1waCcsICc3LjAnLCAnLXRuJywgJzgnLCAnLW1hJywgJzIwMCcsICctbWV0YWxfYmluZGluZycsICctaW1hZScsICc8aW5maWxlLm1hZT4nLCAnLW9tYWUnLCAnPG91dGZpbGUubWFlPic=

> <r_lp_tautomer_probability>
1

> <r_epik_Ionization_Penalty>
3.91973e-07

> <r_epik_Ionization_Penalty_Charging>
1.35363e-07

> <r_epik_Ionization_Penalty_Neutral>
2.5661e-07

> <r_epik_State_Penalty>
-0

> <r_epik_Charging_Adjusted_Penalty>
1.35363e-07

> <i_epik_Tot_Q>
0

> <i_epik_Tot_abs_Q>
0

> <r_epik_Metal_State_Penalty>
-0

> <b_epik_Metal_Only>
0

> <s_lp_Force_Field>
OPLS_2005

> <r_lp_Energy>
39.7948

> <b_lp_Chiralities_Consistent>
1

> <s_lp_Variant>
AV-unprocessed.smi:363-1

> <Gold.Version>
5.8.1

> <Gold.Id.Protein>
6NUR|6NUR_protein|mol2

> <Gold.PLP.Fitness>
46.6891

> <Gold.PLP.PLP>
-40.5351

> <Gold.PLP.part.hbond>
-3.5531

> <Gold.PLP.part.metal>
0.0000

> <Gold.PLP.part.buried>
-7.0440

> <Gold.PLP.part.nonpolar>
-29.8396

> <Gold.PLP.part.repulsive>
0.0774

> <Gold.PLP.ligand.clash>
0.0000

> <Gold.PLP.ligand.torsion>
1.5993

> <Gold.PLP.Chemscore.Hbond>
3.0000

> <Gold.PLP.Chemscore.CHOScore>
0.0000

> <Gold.PLP.Chemscore.Metal>
0.0000

> <Gold.Chemscore.Hbonds>
donor molecule, donor type, donor heavy atom, donor atom, acceptor molecule, acceptor atom, score
      L1  H    21    39       P1  8029  0.23
      P1  H  6933  6944       L1    22  0.12
      P1  H  6934  6946       L1    22  0.39
      P1  H  7989  7998       L1     9  0.69

> <Gold.PLP.Chemscore.Internal.Correction>
0.3528

> <Gold.Rescore>
     Score         DG    S(hbond)    S(metal)    S(lipo)     H(rot)  DE(clash)    DE(int)     intcor
     17.47     -20.48       2.95        0.00      86.73       1.95       0.01       2.99       ----

> <Gold.Chemscore.Fitness>
17.4667

> <Gold.Chemscore.DG>
-20.4756

> <Gold.Chemscore.ZeroCoef>
-5.4800

> <Gold.Chemscore.Hbond>
2.9458

> <Gold.Chemscore.Metal>
0.0000

> <Gold.Chemscore.Lipo>
86.7302

> <Gold.Chemscore.Internal_Hbond>
0.0000

> <Gold.Chemscore.DEClash>
0.0149

> <Gold.Chemscore.DEInternal>
2.9940

> <Gold.Chemscore.Rot>
1.9495

> <Gold.Chemscore.Internal.Correction>
   9.000000E+99

> <Gold.Chemscore.Hbonds>
donor molecule, donor type, donor heavy atom, donor atom, acceptor molecule, acceptor atom, score
      L1  H    21    39       P1  8029  0.23
      P1  H  6933  6944       L1    22  0.02
      P1  H  6934  6946       L1    22  0.39
      P1  H  7989  7998       L1     9  0.08

> <Gold.Chemscore.Hbond.Weighted>
-9.8390

> <Gold.Chemscore.Metal.Weighted>
-0.0000

> <Gold.Chemscore.Lipo.Weighted>
-10.1474

> <Gold.Chemscore.Internal_Hbond.Weighted>
0.0000

> <Gold.Chemscore.DEClash.Weighted>
0.0149

> <Gold.Chemscore.DEInternal.Weighted>
2.9940

> <Gold.Chemscore.Rot.Weighted>
4.9908

> <Gold.Chemscore.Internal.Correction.Weighted>
   9.000000E+99

> <Gold.Protein.RotatedTorsions>
[ 6907 6896 6895 6894 ] final   -4.18 input  -60.11 | X-H torsion
[ 7974 7965 7964 7962 ] final   60.76 input  175.53 | X-H torsion
[ 8008 7997 7996 7995 ] final  -79.93 input   59.86 | X-H torsion
[ 10167 10162 10161 10158 ] final  -84.21 input  -65.29 | X-H torsion
[ 10718 10713 10712 10709 ] final  168.86 input   66.30 | X-H torsion
[ 10763 10752 10751 10750 ] final -137.72 input  -60.55 | X-H torsion
[ 11005 11000 10999 10996 ] final  -98.98 input  -57.11 | X-H torsion

> <Gold.Protein.ActiveResidues>
 VAL166  LYS551  ARG553  GLY616  TRP617  ASP618  TYR619  PRO620  LYS621  CYS622 
 ASP623  PHE694  ASN695  SER759  ASP760  ASP761  ALA762  ILE779  LEU786  VAL792 
 PHE793  MET794  SER795  GLU796  ALA797  LYS798  CYS799  TRP800  GLU811  SER814 

> <Gold.Protein.RotatedAtoms>
  151.5018  135.1062  159.9830 H   0  0  0  0  0  0  0  0  0  0  0  0  # atno 6907 bound_to 6896
  152.4698  133.8001  159.6958 H   0  0  0  0  0  0  0  0  0  0  0  0  # atno 6908 bound_to 6896
  150.8701  133.7454  159.2990 H   0  0  0  0  0  0  0  0  0  0  0  0  # atno 6909 bound_to 6896
  145.8923  139.3520  143.0642 H   0  0  0  0  0  0  0  0  0  0  0  0  # atno 7974 bound_to 7965
  154.5833  140.0671  156.9135 H   0  0  0  0  0  0  0  0  0  0  0  0  # atno 8008 bound_to 7997
  155.2424  140.3345  155.4272 H   0  0  0  0  0  0  0  0  0  0  0  0  # atno 8009 bound_to 7997
  156.2205  140.1796  156.7473 H   0  0  0  0  0  0  0  0  0  0  0  0  # atno 8010 bound_to 7997
  140.4154  143.2605  151.8961 H   0  0  0  0  0  0  0  0  0  0  0  0  # atno 10167 bound_to 10162
  157.0310  131.0259  151.2745 H   0  0  0  0  0  0  0  0  0  0  0  0  # atno 10718 bound_to 10713
  154.8655  135.3634  154.5268 H   0  0  0  0  0  0  0  0  0  0  0  0  # atno 10763 bound_to 10752
  153.5895  135.7016  153.5434 H   0  0  0  0  0  0  0  0  0  0  0  0  # atno 10764 bound_to 10752
  153.3385  135.4104  155.1515 H   0  0  0  0  0  0  0  0  0  0  0  0  # atno 10765 bound_to 10752
  141.1325  133.8287  157.0911 H   0  0  0  0  0  0  0  0  0  0  0  0  # atno 11005 bound_to 11000
  145.8892  140.9314  143.0561 LP  0  0  0  0  0  0  0  0  0  0  0  0  # atno 17320 bound_to 7965
  144.6731  140.0884  143.7466 LP  0  0  0  0  0  0  0  0  0  0  0  0  # atno 17321 bound_to 7965
  139.4782  144.5493  151.8410 LP  0  0  0  0  0  0  0  0  0  0  0  0  # atno 17342 bound_to 10162
  140.4592  144.1746  150.5904 LP  0  0  0  0  0  0  0  0  0  0  0  0  # atno 17343 bound_to 10162
  157.5178  130.7979  149.7775 LP  0  0  0  0  0  0  0  0  0  0  0  0  # atno 17370 bound_to 10713
  156.0070  130.3851  150.2397 LP  0  0  0  0  0  0  0  0  0  0  0  0  # atno 17371 bound_to 10713
  140.0391  134.9863  157.0928 LP  0  0  0  0  0  0  0  0  0  0  0  0  # atno 17394 bound_to 11000
  140.4163  134.1928  155.7163 LP  0  0  0  0  0  0  0  0  0  0  0  0  # atno 17395 bound_to 11000

$$$$
