AV-unprocessed.smi:243|AV-procd|sdf|1861|dock6
  -GOLD-   2262020493D 1   1.00000     0.00000
 Structure written by MMmdl.
 58 61  0  0  0  0  0  0  0  0  2 V2000
  143.7014  132.3567  151.1623 C   0  0  0  0  0  0  0  0  0  0  0  0
  144.1225  132.8134  149.7582 C   0  0  0  0  0  0  0  0  0  0  0  0
  145.1180  133.9178  149.7938 N   0  3  1  0  0  0  0  0  0  0  0  0
  144.5495  135.2128  150.2462 C   0  0  0  0  0  0  0  0  0  0  0  0
  144.3131  135.2291  151.7649 C   0  0  0  0  0  0  0  0  0  0  0  0
  145.6142  134.9225  152.5309 C   0  0  1  0  0  0  0  0  0  0  0  0
  145.3855  134.9623  153.9827 N   0  0  0  0  0  0  0  0  0  0  0  0
  144.5978  133.9290  154.6491 C   0  0  0  0  0  0  0  0  0  0  0  0
  145.8691  135.9946  154.7270 C   0  0  0  0  0  0  0  0  0  0  0  0
  145.8721  135.8770  156.0817 N   0  0  0  0  0  0  0  0  0  0  0  0
  146.3294  136.8678  156.8517 C   0  0  0  0  0  0  0  0  0  0  0  0
  146.8266  138.0478  156.4821 N   0  0  0  0  0  0  0  0  0  0  0  0
  146.8298  138.1796  155.1253 C   0  0  0  0  0  0  0  0  0  0  0  0
  146.3762  137.2126  154.1814 C   0  0  0  0  0  0  0  0  0  0  0  0
  146.5623  137.7005  152.8921 N   0  0  0  0  0  0  0  0  0  0  0  0
  147.0866  138.8822  153.0643 C   0  0  0  0  0  0  0  0  0  0  0  0
  147.2707  139.2565  154.3753 N   0  0  0  0  0  0  0  0  0  0  0  0
  147.8378  140.5091  154.8533 C   0  0  0  0  0  0  0  0  0  0  0  0
  149.3388  140.7006  154.5151 C   0  0  2  0  0  0  0  0  0  0  0  0
  149.4627  141.1998  153.1965 O   0  0  0  0  0  0  0  0  0  0  0  0
  150.1800  139.4296  154.6485 C   0  0  0  0  0  0  0  0  0  0  0  0
  150.7882  139.5693  156.0358 C   0  0  0  0  0  0  0  0  0  0  0  0
  151.1000  140.9499  156.0894 O   0  0  0  0  0  0  0  0  0  0  0  0
  150.0202  141.6687  155.5044 C   0  0  0  0  0  0  0  0  0  0  0  0
  146.2270  133.5838  152.0455 C   0  0  2  0  0  0  0  0  0  0  0  0
  147.5824  133.2869  152.7097 C   0  0  0  0  0  0  0  0  0  0  0  0
  146.3853  133.5990  150.5068 C   0  0  0  0  0  0  0  0  0  0  0  0
  143.0534  131.4821  151.1013 H   0  0  0  0  0  0  0  0  0  0  0  0
  143.1493  133.1290  151.6972 H   0  0  0  0  0  0  0  0  0  0  0  0
  144.5683  132.0823  151.7640 H   0  0  0  0  0  0  0  0  0  0  0  0
  144.5663  131.9544  149.2532 H   0  0  0  0  0  0  0  0  0  0  0  0
  143.2483  133.0918  149.1700 H   0  0  0  0  0  0  0  0  0  0  0  0
  145.2463  136.0085  149.9787 H   0  0  0  0  0  0  0  0  0  0  0  0
  143.6241  135.4293  149.7111 H   0  0  0  0  0  0  0  0  0  0  0  0
  143.9325  136.2071  152.0620 H   0  0  0  0  0  0  0  0  0  0  0  0
  143.5363  134.5083  152.0217 H   0  0  0  0  0  0  0  0  0  0  0  0
  146.3107  135.7135  152.2517 H   0  0  0  0  0  0  0  0  0  0  0  0
  144.9954  133.7135  155.6416 H   0  0  0  0  0  0  0  0  0  0  0  0
  144.6016  132.9964  154.0868 H   0  0  0  0  0  0  0  0  0  0  0  0
  143.5610  134.2496  154.7511 H   0  0  0  0  0  0  0  0  0  0  0  0
  146.2907  136.6900  157.9164 H   0  0  0  0  0  0  0  0  0  0  0  0
  147.3529  139.5190  152.2330 H   0  0  0  0  0  0  0  0  0  0  0  0
  147.2526  141.3279  154.4321 H   0  0  0  0  0  0  0  0  0  0  0  0
  147.6886  140.5558  155.9329 H   0  0  0  0  0  0  0  0  0  0  0  0
  149.3139  140.4890  152.5920 H   0  0  0  0  0  0  0  0  0  0  0  0
  149.6255  138.5012  154.5238 H   0  0  0  0  0  0  0  0  0  0  0  0
  150.9883  139.4238  153.9153 H   0  0  0  0  0  0  0  0  0  0  0  0
  150.0629  139.3201  156.8123 H   0  0  0  0  0  0  0  0  0  0  0  0
  151.6744  138.9495  156.1742 H   0  0  0  0  0  0  0  0  0  0  0  0
  150.3913  142.5781  155.0298 H   0  0  0  0  0  0  0  0  0  0  0  0
  149.3360  141.9731  156.2976 H   0  0  0  0  0  0  0  0  0  0  0  0
  145.5568  132.7658  152.3070 H   0  0  0  0  0  0  0  0  0  0  0  0
  148.3044  134.0789  152.5091 H   0  0  0  0  0  0  0  0  0  0  0  0
  148.0039  132.3518  152.3405 H   0  0  0  0  0  0  0  0  0  0  0  0
  147.4854  133.1921  153.7915 H   0  0  0  0  0  0  0  0  0  0  0  0
  146.7925  132.6515  150.1554 H   0  0  0  0  0  0  0  0  0  0  0  0
  147.1208  134.3557  150.2299 H   0  0  0  0  0  0  0  0  0  0  0  0
  145.3726  134.0642  148.8273 H   0  0  0  0  0  0  0  0  0  0  0  0
  1  2  1  0  0  0  0
  1 28  1  0  0  0  0
  1 29  1  0  0  0  0
  1 30  1  0  0  0  0
  2  3  1  0  0  0  0
  2 31  1  0  0  0  0
  2 32  1  0  0  0  0
  3 27  1  0  0  0  0
  3  4  1  0  0  0  0
  3 58  1  0  0  0  0
  4  5  1  0  0  0  0
  4 33  1  0  0  0  0
  4 34  1  0  0  0  0
  5  6  1  0  0  0  0
  5 35  1  0  0  0  0
  5 36  1  0  0  0  0
  6  7  1  0  0  0  0
  6 25  1  0  0  0  0
  6 37  1  0  0  0  0
  7  8  1  0  0  0  0
  7  9  1  0  0  0  0
  8 38  1  0  0  0  0
  8 39  1  0  0  0  0
  8 40  1  0  0  0  0
  9 14  1  0  0  0  0
  9 10  2  0  0  0  0
 10 11  1  0  0  0  0
 11 12  2  0  0  0  0
 11 41  1  0  0  0  0
 12 13  1  0  0  0  0
 13 17  1  0  0  0  0
 13 14  2  0  0  0  0
 14 15  1  0  0  0  0
 15 16  2  0  0  0  0
 16 17  1  0  0  0  0
 16 42  1  0  0  0  0
 17 18  1  0  0  0  0
 18 19  1  0  0  0  0
 18 43  1  0  0  0  0
 18 44  1  0  0  0  0
 19 24  1  0  0  0  0
 19 20  1  0  0  0  0
 19 21  1  0  0  0  0
 20 45  1  0  0  0  0
 21 22  1  0  0  0  0
 21 46  1  0  0  0  0
 21 47  1  0  0  0  0
 22 23  1  0  0  0  0
 22 48  1  0  0  0  0
 22 49  1  0  0  0  0
 23 24  1  0  0  0  0
 24 50  1  0  0  0  0
 24 51  1  0  0  0  0
 25 26  1  0  0  0  0
 25 27  1  0  0  0  0
 25 52  1  0  0  0  0
 26 53  1  0  0  0  0
 26 54  1  0  0  0  0
 26 55  1  0  0  0  0
 27 56  1  0  0  0  0
 27 57  1  0  0  0  0
M  CHG  1   3   1
M  END
> <s_m_source_file>
AV-unprocessed.smi

> <i_m_source_file_index>
243

> <i_lp_mmshare_version>
43012

> <i_f3d_flags>
0

> <s_epik_input>
W0NIM11bQ0gyXU4xW0NIMl1bQ0gyXVtDQEhdKFtDQEBIXShbQ0gzXSlbQ0gyXTEpTihbQ0gzXSljKG5bY0hdbjIpYyhjMjMpbltjSF1uM1tDSDJdW0NAQF00KFtPSF0pW0NIMl1bQ0gyXU9bQ0gyXTQ=

> <s_epik_cmdline>
J2VwaWtfcHl0aG9uJywgJy1waCcsICc3LjAnLCAnLXRuJywgJzgnLCAnLW1hJywgJzIwMCcsICctbWV0YWxfYmluZGluZycsICctaW1hZScsICc8aW5maWxlLm1hZT4nLCAnLW9tYWUnLCAnPG91dGZpbGUubWFlPic=

> <r_lp_tautomer_probability>
1

> <r_epik_Ionization_Penalty>
0.00253099

> <r_epik_Ionization_Penalty_Charging>
0.00137877

> <r_epik_Ionization_Penalty_Neutral>
0.00115221

> <r_epik_State_Penalty>
-0

> <r_epik_Charging_Adjusted_Penalty>
0.00137877

> <i_epik_Tot_Q>
1

> <i_epik_Tot_abs_Q>
1

> <r_epik_Metal_State_Penalty>
-0

> <b_epik_Metal_Only>
0

> <s_lp_Force_Field>
OPLS_2005

> <r_lp_Energy>
46.8505

> <b_lp_Chiralities_Consistent>
1

> <s_lp_Variant>
AV-unprocessed.smi:243-14

> <Gold.Version>
5.8.1

> <Gold.Id.Protein>
6NUR|6NUR_protein|mol2

> <Gold.PLP.Fitness>
42.0943

> <Gold.PLP.PLP>
-33.7415

> <Gold.PLP.part.hbond>
-3.2581

> <Gold.PLP.part.metal>
0.0000

> <Gold.PLP.part.buried>
-0.9218

> <Gold.PLP.part.nonpolar>
-29.6045

> <Gold.PLP.part.repulsive>
1.2108

> <Gold.PLP.ligand.clash>
1.9313

> <Gold.PLP.ligand.torsion>
0.6872

> <Gold.PLP.Chemscore.Hbond>
2.8431

> <Gold.PLP.Chemscore.CHOScore>
1.0000

> <Gold.PLP.Chemscore.Metal>
0.0000

> <Gold.Chemscore.Hbonds>
donor molecule, donor type, donor heavy atom, donor atom, acceptor molecule, acceptor atom, score
      L1  H     3    58       P1  7921  1.00
      L1  H    20    45       P1  7957  0.82
      P1  H  7989  7998       L1    20  0.01
      P1  H  8011  8017       L1    20  0.99
      L1  C    16    42       P1  7957  1.00

> <Gold.PLP.Chemscore.Internal.Correction>
0.1290

> <Gold.Rescore>
     Score         DG    S(hbond)    S(metal)    S(lipo)     H(rot)  DE(clash)    DE(int)     intcor
     13.40     -17.57       2.33        0.00      85.80       2.24       1.01       3.15       ----

> <Gold.Chemscore.Fitness>
13.4020

> <Gold.Chemscore.DG>
-17.5666

> <Gold.Chemscore.ZeroCoef>
-5.4800

> <Gold.Chemscore.Hbond>
2.3283

> <Gold.Chemscore.Metal>
0.0000

> <Gold.Chemscore.Lipo>
85.8048

> <Gold.Chemscore.Internal_Hbond>
0.0000

> <Gold.Chemscore.DEClash>
1.0127

> <Gold.Chemscore.DEInternal>
3.1518

> <Gold.Chemscore.Rot>
2.2379

> <Gold.Chemscore.Internal.Correction>
   9.000000E+99

> <Gold.Chemscore.Hbonds>
donor molecule, donor type, donor heavy atom, donor atom, acceptor molecule, acceptor atom, score
      L1  H     3    58       P1  7921  0.87
      L1  H    20    45       P1  7957  0.75
      P1  H  8011  8017       L1    20  0.46

> <Gold.Chemscore.Hbond.Weighted>
-7.7765

> <Gold.Chemscore.Metal.Weighted>
-0.0000

> <Gold.Chemscore.Lipo.Weighted>
-10.0392

> <Gold.Chemscore.Internal_Hbond.Weighted>
0.0000

> <Gold.Chemscore.DEClash.Weighted>
1.0127

> <Gold.Chemscore.DEInternal.Weighted>
3.1518

> <Gold.Chemscore.Rot.Weighted>
5.7291

> <Gold.Chemscore.Internal.Correction.Weighted>
   9.000000E+99

> <Gold.Protein.RotatedTorsions>
[ 6907 6896 6895 6894 ] final -114.65 input  -60.11 | X-H torsion
[ 7974 7965 7964 7962 ] final  107.68 input  175.53 | X-H torsion
[ 8008 7997 7996 7995 ] final  -43.21 input   59.86 | X-H torsion
[ 10167 10162 10161 10158 ] final  123.33 input  -65.29 | X-H torsion
[ 10718 10713 10712 10709 ] final -142.63 input   66.30 | X-H torsion
[ 10763 10752 10751 10750 ] final  -81.35 input  -60.55 | X-H torsion
[ 11005 11000 10999 10996 ] final -137.16 input  -57.11 | X-H torsion

> <Gold.Protein.ActiveResidues>
 VAL166  LYS551  ARG553  GLY616  TRP617  ASP618  TYR619  PRO620  LYS621  CYS622 
 ASP623  PHE694  ASN695  SER759  ASP760  ASP761  ALA762  ILE779  LEU786  VAL792 
 PHE793  MET794  SER795  GLU796  ALA797  LYS798  CYS799  TRP800  GLU811  SER814 

> <Gold.Protein.RotatedAtoms>
  150.7918  133.8770  159.3274 H   0  0  0  0  0  0  0  0  0  0  0  0  # atno 6907 bound_to 6896
  151.6606  135.0988  160.0188 H   0  0  0  0  0  0  0  0  0  0  0  0  # atno 6908 bound_to 6896
  152.3994  133.6755  159.6338 H   0  0  0  0  0  0  0  0  0  0  0  0  # atno 6909 bound_to 6896
  145.2905  139.2602  143.3867 H   0  0  0  0  0  0  0  0  0  0  0  0  # atno 7974 bound_to 7965
  154.3997  140.1453  156.3481 H   0  0  0  0  0  0  0  0  0  0  0  0  # atno 8008 bound_to 7997
  155.8294  140.3466  155.5542 H   0  0  0  0  0  0  0  0  0  0  0  0  # atno 8009 bound_to 7997
  155.8204  140.0897  157.1843 H   0  0  0  0  0  0  0  0  0  0  0  0  # atno 8010 bound_to 7997
  139.5806  144.6984  151.3539 H   0  0  0  0  0  0  0  0  0  0  0  0  # atno 10167 bound_to 10162
  156.3483  130.7674  151.1822 H   0  0  0  0  0  0  0  0  0  0  0  0  # atno 10718 bound_to 10713
  154.5625  135.5629  153.7020 H   0  0  0  0  0  0  0  0  0  0  0  0  # atno 10763 bound_to 10752
  153.0022  135.6277  154.2225 H   0  0  0  0  0  0  0  0  0  0  0  0  # atno 10764 bound_to 10752
  154.2163  135.2871  155.2920 H   0  0  0  0  0  0  0  0  0  0  0  0  # atno 10765 bound_to 10752
  140.8737  134.2018  157.4635 H   0  0  0  0  0  0  0  0  0  0  0  0  # atno 11005 bound_to 11000
  146.3186  140.3394  142.8647 LP  0  0  0  0  0  0  0  0  0  0  0  0  # atno 17320 bound_to 7965
  144.9177  140.7832  143.5768 LP  0  0  0  0  0  0  0  0  0  0  0  0  # atno 17321 bound_to 7965
  140.7084  143.7453  150.7523 LP  0  0  0  0  0  0  0  0  0  0  0  0  # atno 17342 bound_to 10162
  140.0985  143.4810  152.2439 LP  0  0  0  0  0  0  0  0  0  0  0  0  # atno 17343 bound_to 10162
  157.7457  131.0435  150.4746 LP  0  0  0  0  0  0  0  0  0  0  0  0  # atno 17370 bound_to 10713
  156.4937  130.4101  149.6392 LP  0  0  0  0  0  0  0  0  0  0  0  0  # atno 17371 bound_to 10713
  139.8714  134.9786  156.5004 LP  0  0  0  0  0  0  0  0  0  0  0  0  # atno 17394 bound_to 11000
  140.8543  133.8108  155.9200 LP  0  0  0  0  0  0  0  0  0  0  0  0  # atno 17395 bound_to 11000

$$$$
