AV-unprocessed.smi:2322|AV-procd|sdf|9287|dock1
  -GOLD-   2272012513D 1   1.00000     0.00000
 Structure written by MMmdl.
 38 40  0  0  0  0  0  0  0  0  1 V2000
  150.8992  138.2093  154.3825 C   0  0  0  0  0  0  0  0  0  0  0  0
  150.0297  139.3693  154.3422 N   0  0  0  0  0  0  0  0  0  0  0  0
  150.4188  140.5469  154.8844 N   0  0  0  0  0  0  0  0  0  0  0  0
  149.3714  141.3371  154.6517 C   0  0  0  0  0  0  0  0  0  0  0  0
  148.3211  140.7605  153.9966 N   0  0  0  0  0  0  0  0  0  0  0  0
  148.8025  139.5303  153.8362 C   0  0  0  0  0  0  0  0  0  0  0  0
  148.1527  138.4303  153.2014 N   0  0  0  0  0  0  0  0  0  0  0  0
  146.8437  138.1464  153.0348 C   0  0  0  0  0  0  0  0  0  0  0  0
  145.9719  138.9001  153.4644 O   0  0  0  0  0  0  0  0  0  0  0  0
  146.5628  137.0085  152.3791 N   0  0  0  0  0  0  0  0  0  0  0  0
  145.2257  136.5111  152.0735 C   0  0  2  0  0  0  0  0  0  0  0  0
  144.2850  136.6882  153.2767 C   0  0  0  0  0  0  0  0  0  0  0  0
  142.9303  136.0138  153.0071 C   0  0  0  0  0  0  0  0  0  0  0  0
  143.1228  134.6397  152.6871 O   0  0  0  0  0  0  0  0  0  0  0  0
  143.8873  134.4414  151.5014 C   0  0  2  0  0  0  0  0  0  0  0  0
  143.9279  132.9546  151.2094 C   0  0  0  0  0  0  0  0  0  0  0  0
  145.2351  132.2684  150.8871 C   0  0  0  0  0  0  0  0  0  0  0  0
  144.1916  132.4462  149.8111 C   0  0  0  0  0  0  0  0  0  0  0  0
  145.2987  135.0234  151.7015 C   0  0  0  0  0  0  0  0  0  0  0  0
  150.4967  137.4752  155.0808 H   0  0  0  0  0  0  0  0  0  0  0  0
  151.9018  138.4935  154.7045 H   0  0  0  0  0  0  0  0  0  0  0  0
  150.9634  137.7613  153.3907 H   0  0  0  0  0  0  0  0  0  0  0  0
  149.3643  142.3701  154.9666 H   0  0  0  0  0  0  0  0  0  0  0  0
  148.7820  137.7466  152.8064 H   0  0  0  0  0  0  0  0  0  0  0  0
  147.3408  136.4468  152.0629 H   0  0  0  0  0  0  0  0  0  0  0  0
  144.8214  137.0585  151.2197 H   0  0  0  0  0  0  0  0  0  0  0  0
  144.7344  136.2464  154.1673 H   0  0  0  0  0  0  0  0  0  0  0  0
  144.1373  137.7466  153.4933 H   0  0  0  0  0  0  0  0  0  0  0  0
  142.2958  136.0835  153.8908 H   0  0  0  0  0  0  0  0  0  0  0  0
  142.4008  136.5157  152.1960 H   0  0  0  0  0  0  0  0  0  0  0  0
  143.3952  134.9458  150.6674 H   0  0  0  0  0  0  0  0  0  0  0  0
  143.2248  132.3727  151.8028 H   0  0  0  0  0  0  0  0  0  0  0  0
  146.1298  132.8851  150.8262 H   0  0  0  0  0  0  0  0  0  0  0  0
  145.3856  131.2660  151.2825 H   0  0  0  0  0  0  0  0  0  0  0  0
  143.6454  131.5625  149.4878 H   0  0  0  0  0  0  0  0  0  0  0  0
  144.3925  133.1805  149.0334 H   0  0  0  0  0  0  0  0  0  0  0  0
  145.8901  134.8934  150.7942 H   0  0  0  0  0  0  0  0  0  0  0  0
  145.8111  134.4700  152.4901 H   0  0  0  0  0  0  0  0  0  0  0  0
  1  2  1  0  0  0  0
  1 20  1  0  0  0  0
  1 21  1  0  0  0  0
  1 22  1  0  0  0  0
  2  6  1  0  0  0  0
  2  3  1  0  0  0  0
  3  4  2  0  0  0  0
  4  5  1  0  0  0  0
  4 23  1  0  0  0  0
  5  6  2  0  0  0  0
  6  7  1  0  0  0  0
  7  8  1  0  0  0  0
  7 24  1  0  0  0  0
  8  9  2  0  0  0  0
  8 10  1  0  0  0  0
 10 11  1  0  0  0  0
 10 25  1  0  0  0  0
 11 19  1  0  0  0  0
 11 12  1  0  0  0  0
 11 26  1  0  0  0  0
 12 13  1  0  0  0  0
 12 27  1  0  0  0  0
 12 28  1  0  0  0  0
 13 14  1  0  0  0  0
 13 29  1  0  0  0  0
 13 30  1  0  0  0  0
 14 15  1  0  0  0  0
 15 16  1  0  0  0  0
 15 19  1  0  0  0  0
 15 31  1  0  0  0  0
 16 18  1  0  0  0  0
 16 17  1  0  0  0  0
 16 32  1  0  0  0  0
 17 18  1  0  0  0  0
 17 33  1  0  0  0  0
 17 34  1  0  0  0  0
 18 35  1  0  0  0  0
 18 36  1  0  0  0  0
 19 37  1  0  0  0  0
 19 38  1  0  0  0  0
M  END
> <s_m_source_file>
AV-unprocessed.smi

> <i_m_source_file_index>
2322

> <i_lp_mmshare_version>
43012

> <i_f3d_flags>
0

> <s_epik_input>
W0NIM11uMW5bY0hdbmMxW05IXUMoPU8pW05IXVtDQEBIXTJbQ0gyXVtDSDJdT1tDQEhdKFtDSDJdMilbQ0hdM1tDSDJdW0NIMl0z

> <s_epik_cmdline>
J2VwaWtfcHl0aG9uJywgJy1waCcsICc3LjAnLCAnLXRuJywgJzgnLCAnLW1hJywgJzIwMCcsICctbWV0YWxfYmluZGluZycsICctaW1hZScsICc8aW5maWxlLm1hZT4nLCAnLW9tYWUnLCAnPG91dGZpbGUubWFlPic=

> <r_lp_tautomer_probability>
1

> <r_epik_Ionization_Penalty>
2.16399e-05

> <r_epik_Ionization_Penalty_Charging>
0

> <r_epik_Ionization_Penalty_Neutral>
2.16399e-05

> <r_epik_State_Penalty>
-0

> <r_epik_Charging_Adjusted_Penalty>
0

> <i_epik_Tot_Q>
0

> <i_epik_Tot_abs_Q>
0

> <r_epik_Metal_State_Penalty>
-0

> <b_epik_Metal_Only>
0

> <s_lp_Force_Field>
OPLS_2005

> <r_lp_Energy>
20.3547

> <b_lp_Chiralities_Consistent>
1

> <s_lp_Variant>
AV-unprocessed.smi:2322-3

> <Gold.Version>
5.8.1

> <Gold.Id.Protein>
6NUR|6NUR_protein|mol2

> <Gold.PLP.Fitness>
43.1258

> <Gold.PLP.PLP>
-33.5407

> <Gold.PLP.part.hbond>
-4.0000

> <Gold.PLP.part.metal>
0.0000

> <Gold.PLP.part.buried>
-4.0534

> <Gold.PLP.part.nonpolar>
-28.4512

> <Gold.PLP.part.repulsive>
1.9938

> <Gold.PLP.ligand.clash>
0.0000

> <Gold.PLP.ligand.torsion>
1.2964

> <Gold.PLP.Chemscore.Hbond>
2.7000

> <Gold.PLP.Chemscore.CHOScore>
1.0000

> <Gold.PLP.Chemscore.Metal>
0.0000

> <Gold.Chemscore.Hbonds>
donor molecule, donor type, donor heavy atom, donor atom, acceptor molecule, acceptor atom, score
      L1  H     7    24       P1  7948  0.96
      L1  H    10    25       P1  7948  1.00
      P1  H  7989  7998       L1     3  0.63
      L1  C     4    23       P1  8028  1.00

> <Gold.PLP.Chemscore.Internal.Correction>
1.0778

> <Gold.Rescore>
     Score         DG    S(hbond)    S(metal)    S(lipo)     H(rot)  DE(clash)    DE(int)     intcor
     12.42     -15.10       1.93        0.00      55.75       1.31       0.09       2.59       ----

> <Gold.Chemscore.Fitness>
12.4181

> <Gold.Chemscore.DG>
-15.0986

> <Gold.Chemscore.ZeroCoef>
-5.4800

> <Gold.Chemscore.Hbond>
1.9287

> <Gold.Chemscore.Metal>
0.0000

> <Gold.Chemscore.Lipo>
55.7521

> <Gold.Chemscore.Internal_Hbond>
0.0000

> <Gold.Chemscore.DEClash>
0.0905

> <Gold.Chemscore.DEInternal>
2.5900

> <Gold.Chemscore.Rot>
1.3072

> <Gold.Chemscore.Internal.Correction>
   9.000000E+99

> <Gold.Chemscore.Hbonds>
donor molecule, donor type, donor heavy atom, donor atom, acceptor molecule, acceptor atom, score
      L1  H     7    24       P1  7948  0.92
      L1  H    10    25       P1  7948  0.95
      P1  H  7989  7998       L1     3  0.03

> <Gold.Chemscore.Hbond.Weighted>
-6.4420

> <Gold.Chemscore.Metal.Weighted>
-0.0000

> <Gold.Chemscore.Lipo.Weighted>
-6.5230

> <Gold.Chemscore.Internal_Hbond.Weighted>
0.0000

> <Gold.Chemscore.DEClash.Weighted>
0.0905

> <Gold.Chemscore.DEInternal.Weighted>
2.5900

> <Gold.Chemscore.Rot.Weighted>
3.3464

> <Gold.Chemscore.Internal.Correction.Weighted>
   9.000000E+99

> <Gold.Protein.RotatedTorsions>
[ 6907 6896 6895 6894 ] final  -58.80 input  -60.11 | X-H torsion
[ 7974 7965 7964 7962 ] final   33.18 input  175.53 | X-H torsion
[ 8008 7997 7996 7995 ] final  -66.66 input   59.86 | X-H torsion
[ 10167 10162 10161 10158 ] final -126.30 input  -65.29 | X-H torsion
[ 10718 10713 10712 10709 ] final   85.43 input   66.30 | X-H torsion
[ 10763 10752 10751 10750 ] final  162.76 input  -60.55 | X-H torsion
[ 11005 11000 10999 10996 ] final -104.75 input  -57.11 | X-H torsion

> <Gold.Protein.ActiveResidues>
 VAL166  LYS551  ARG553  GLY616  TRP617  ASP618  TYR619  PRO620  LYS621  CYS622 
 ASP623  PHE694  ASN695  SER759  ASP760  ASP761  ALA762  ILE779  LEU786  VAL792 
 PHE793  MET794  SER795  GLU796  ALA797  LYS798  CYS799  TRP800  GLU811  SER814 

> <Gold.Protein.RotatedAtoms>
  150.7979  134.7051  159.6571 H   0  0  0  0  0  0  0  0  0  0  0  0  # atno 6907 bound_to 6896
  152.4093  134.6149  160.0045 H   0  0  0  0  0  0  0  0  0  0  0  0  # atno 6908 bound_to 6896
  151.6397  133.3290  159.3163 H   0  0  0  0  0  0  0  0  0  0  0  0  # atno 6909 bound_to 6896
  146.1438  139.6430  142.9145 H   0  0  0  0  0  0  0  0  0  0  0  0  # atno 7974 bound_to 7965
  154.4749  140.0908  156.7236 H   0  0  0  0  0  0  0  0  0  0  0  0  # atno 8008 bound_to 7997
  155.4624  140.3461  155.4296 H   0  0  0  0  0  0  0  0  0  0  0  0  # atno 8009 bound_to 7997
  156.1099  140.1445  156.9341 H   0  0  0  0  0  0  0  0  0  0  0  0  # atno 8010 bound_to 7997
  139.9729  143.5825  152.2406 H   0  0  0  0  0  0  0  0  0  0  0  0  # atno 10167 bound_to 10162
  157.6914  131.0174  150.2821 H   0  0  0  0  0  0  0  0  0  0  0  0  # atno 10718 bound_to 10713
  154.2834  135.2762  155.2687 H   0  0  0  0  0  0  0  0  0  0  0  0  # atno 10763 bound_to 10752
  154.5198  135.5759  153.6675 H   0  0  0  0  0  0  0  0  0  0  0  0  # atno 10764 bound_to 10752
  152.9925  135.6201  154.2994 H   0  0  0  0  0  0  0  0  0  0  0  0  # atno 10765 bound_to 10752
  141.1086  133.8749  157.1649 H   0  0  0  0  0  0  0  0  0  0  0  0  # atno 11005 bound_to 11000
  145.4986  141.0438  143.2553 LP  0  0  0  0  0  0  0  0  0  0  0  0  # atno 17320 bound_to 7965
  144.7822  139.6501  143.7149 LP  0  0  0  0  0  0  0  0  0  0  0  0  # atno 17321 bound_to 7965
  139.6467  144.7658  151.2229 LP  0  0  0  0  0  0  0  0  0  0  0  0  # atno 17342 bound_to 10162
  140.7515  143.6227  150.8498 LP  0  0  0  0  0  0  0  0  0  0  0  0  # atno 17343 bound_to 10162
  156.3366  130.3808  149.7445 LP  0  0  0  0  0  0  0  0  0  0  0  0  # atno 17370 bound_to 10713
  156.4967  130.8110  151.3116 LP  0  0  0  0  0  0  0  0  0  0  0  0  # atno 17371 bound_to 10713
  139.9968  135.0043  157.0100 LP  0  0  0  0  0  0  0  0  0  0  0  0  # atno 17394 bound_to 11000
  140.4836  134.1264  155.7221 LP  0  0  0  0  0  0  0  0  0  0  0  0  # atno 17395 bound_to 11000

$$$$
