AV-unprocessed.smi:1593|AV-procd|sdf|6413|dock1
  -GOLD-   22720 7 43D 1   1.00000     0.00000
 Structure written by MMmdl.
 36 37  0  0  0  0  0  0  0  0  3 V2000
  152.0768  145.0401  158.5954 C   0  0  0  0  0  0  0  0  0  0  0  0
  151.2129  143.8457  158.3767 C   0  0  0  0  0  0  0  0  0  0  0  0
  151.2133  142.8570  157.4336 C   0  0  0  0  0  0  0  0  0  0  0  0
  150.1193  142.0395  157.8245 C   0  0  0  0  0  0  0  0  0  0  0  0
  149.7872  140.8733  157.0856 N   0  0  0  0  0  0  0  0  0  0  0  0
  150.3798  140.3762  155.9844 C   0  0  0  0  0  0  0  0  0  0  0  0
  151.3835  140.9252  155.5141 O   0  0  0  0  0  0  0  0  0  0  0  0
  149.7479  139.2640  155.5180 N   0  5  0  0  0  0  0  0  0  0  0  0
  150.1319  138.5370  154.3101 C   0  0  0  0  0  0  0  0  0  0  0  0
  150.7337  137.1717  154.6943 C   0  0  0  0  0  0  0  0  0  0  0  0
  149.7457  136.0690  154.5531 N   0  3  0  0  0  0  0  0  0  0  0  0
  150.3093  134.7383  154.8866 C   0  0  0  0  0  0  0  0  0  0  0  0
  149.2655  133.6369  154.6349 C   0  0  0  0  0  0  0  0  0  0  0  0
  148.0930  133.9043  155.3944 O   0  0  0  0  0  0  0  0  0  0  0  0
  147.4935  135.1420  155.0315 C   0  0  0  0  0  0  0  0  0  0  0  0
  148.4795  136.2905  155.3007 C   0  0  0  0  0  0  0  0  0  0  0  0
  149.5064  142.4910  158.9088 N   0  0  0  0  0  0  0  0  0  0  0  0
  150.2038  143.6503  159.2679 O   0  0  0  0  0  0  0  0  0  0  0  0
  152.8557  145.1025  157.8352 H   0  0  0  0  0  0  0  0  0  0  0  0
  152.5599  144.9934  159.5714 H   0  0  0  0  0  0  0  0  0  0  0  0
  151.4876  145.9561  158.5520 H   0  0  0  0  0  0  0  0  0  0  0  0
  151.8892  142.7385  156.6000 H   0  0  0  0  0  0  0  0  0  0  0  0
  148.9886  140.3569  157.4228 H   0  0  0  0  0  0  0  0  0  0  0  0
  149.2842  138.3698  153.6442 H   0  0  0  0  0  0  0  0  0  0  0  0
  150.8644  139.0937  153.7245 H   0  0  0  0  0  0  0  0  0  0  0  0
  151.5863  136.9841  154.0392 H   0  0  0  0  0  0  0  0  0  0  0  0
  151.1325  137.1896  155.7101 H   0  0  0  0  0  0  0  0  0  0  0  0
  151.1940  134.5463  154.2783 H   0  0  0  0  0  0  0  0  0  0  0  0
  150.6263  134.7256  155.9307 H   0  0  0  0  0  0  0  0  0  0  0  0
  149.0190  133.5698  153.5739 H   0  0  0  0  0  0  0  0  0  0  0  0
  149.6643  132.6666  154.9310 H   0  0  0  0  0  0  0  0  0  0  0  0
  147.1942  135.1226  153.9822 H   0  0  0  0  0  0  0  0  0  0  0  0
  146.5859  135.2807  155.6192 H   0  0  0  0  0  0  0  0  0  0  0  0
  148.6912  136.3561  156.3690 H   0  0  0  0  0  0  0  0  0  0  0  0
  148.0239  137.2370  155.0080 H   0  0  0  0  0  0  0  0  0  0  0  0
  149.5089  136.0358  153.5717 H   0  0  0  0  0  0  0  0  0  0  0  0
  1  2  1  0  0  0  0
  1 19  1  0  0  0  0
  1 20  1  0  0  0  0
  1 21  1  0  0  0  0
  2 18  1  0  0  0  0
  2  3  2  0  0  0  0
  3  4  1  0  0  0  0
  3 22  1  0  0  0  0
  4  5  1  0  0  0  0
  4 17  2  0  0  0  0
  5  6  1  0  0  0  0
  5 23  1  0  0  0  0
  6  7  2  0  0  0  0
  6  8  1  0  0  0  0
  8  9  1  0  0  0  0
  9 10  1  0  0  0  0
  9 24  1  0  0  0  0
  9 25  1  0  0  0  0
 10 11  1  0  0  0  0
 10 26  1  0  0  0  0
 10 27  1  0  0  0  0
 11 16  1  0  0  0  0
 11 12  1  0  0  0  0
 11 36  1  0  0  0  0
 12 13  1  0  0  0  0
 12 28  1  0  0  0  0
 12 29  1  0  0  0  0
 13 14  1  0  0  0  0
 13 30  1  0  0  0  0
 13 31  1  0  0  0  0
 14 15  1  0  0  0  0
 15 16  1  0  0  0  0
 15 32  1  0  0  0  0
 15 33  1  0  0  0  0
 16 34  1  0  0  0  0
 16 35  1  0  0  0  0
 17 18  1  0  0  0  0
M  CHG  1   8  -1
M  CHG  1  11   1
M  END
> <s_m_source_file>
AV-unprocessed.smi

> <i_m_source_file_index>
1593

> <i_lp_mmshare_version>
43012

> <i_f3d_flags>
0

> <s_epik_input>
W0NIM11jMVtjSF1jKG5vMSlbTkhdQyg9TylbTkhdW0NIMl1bQ0gyXU4yW0NIMl1bQ0gyXU9bQ0gyXVtDSDJdMg==

> <s_epik_cmdline>
J2VwaWtfcHl0aG9uJywgJy1waCcsICc3LjAnLCAnLXRuJywgJzgnLCAnLW1hJywgJzIwMCcsICctbWV0YWxfYmluZGluZycsICctaW1hZScsICc8aW5maWxlLm1hZT4nLCAnLW9tYWUnLCAnPG91dGZpbGUubWFlPic=

> <r_epik_Ionization_Penalty>
6.79272

> <r_epik_Ionization_Penalty_Charging>
6.79272

> <r_epik_Ionization_Penalty_Neutral>
5.6208e-06

> <r_epik_State_Penalty>
7.45901

> <r_epik_Charging_Adjusted_Penalty>
14.2517

> <i_epik_Tot_Q>
0

> <i_epik_Tot_abs_Q>
2

> <r_epik_Metal_State_Penalty>
3.38639

> <b_epik_Metal_Only>
1

> <s_lp_Force_Field>
OPLS_2005

> <r_lp_Energy>
12.9182

> <b_lp_Chiralities_Consistent>
1

> <s_lp_Variant>
AV-unprocessed.smi:1593-5

> <Gold.Version>
5.8.1

> <Gold.Id.Protein>
6NUR|6NUR_protein|mol2

> <Gold.PLP.Fitness>
34.7307

> <Gold.PLP.PLP>
-28.2255

> <Gold.PLP.part.hbond>
-2.9867

> <Gold.PLP.part.metal>
0.0000

> <Gold.PLP.part.buried>
-2.9299

> <Gold.PLP.part.nonpolar>
-22.8475

> <Gold.PLP.part.repulsive>
0.3897

> <Gold.PLP.ligand.clash>
0.7715

> <Gold.PLP.ligand.torsion>
0.3329

> <Gold.PLP.Chemscore.Hbond>
2.5863

> <Gold.PLP.Chemscore.CHOScore>
0.0000

> <Gold.PLP.Chemscore.Metal>
0.0000

> <Gold.Chemscore.Hbonds>
donor molecule, donor type, donor heavy atom, donor atom, acceptor molecule, acceptor atom, score
      L1  H    11    36       P1  7948  2.00
      P1  H  7989  7998       L1     7  0.66

> <Gold.PLP.Chemscore.Internal.Correction>
0.1836

> <Gold.Rescore>
     Score         DG    S(hbond)    S(metal)    S(lipo)     H(rot)  DE(clash)    DE(int)     intcor
     12.72     -14.57       1.78        0.00      62.43       1.62       0.07       1.78       ----

> <Gold.Chemscore.Fitness>
12.7212

> <Gold.Chemscore.DG>
-14.5670

> <Gold.Chemscore.ZeroCoef>
-5.4800

> <Gold.Chemscore.Hbond>
1.7775

> <Gold.Chemscore.Metal>
0.0000

> <Gold.Chemscore.Lipo>
62.4304

> <Gold.Chemscore.Internal_Hbond>
0.0000

> <Gold.Chemscore.DEClash>
0.0683

> <Gold.Chemscore.DEInternal>
1.7776

> <Gold.Chemscore.Rot>
1.6228

> <Gold.Chemscore.Internal.Correction>
   9.000000E+99

> <Gold.Chemscore.Hbonds>
donor molecule, donor type, donor heavy atom, donor atom, acceptor molecule, acceptor atom, score
      L1  H    11    36       P1  7948  0.45
      P1  H  7989  7998       L1     7  0.59

> <Gold.Chemscore.Hbond.Weighted>
-5.9369

> <Gold.Chemscore.Metal.Weighted>
-0.0000

> <Gold.Chemscore.Lipo.Weighted>
-7.3044

> <Gold.Chemscore.Internal_Hbond.Weighted>
0.0000

> <Gold.Chemscore.DEClash.Weighted>
0.0683

> <Gold.Chemscore.DEInternal.Weighted>
1.7776

> <Gold.Chemscore.Rot.Weighted>
4.1542

> <Gold.Chemscore.Internal.Correction.Weighted>
   9.000000E+99

> <Gold.Protein.RotatedTorsions>
[ 6907 6896 6895 6894 ] final  107.10 input  -60.11 | X-H torsion
[ 7974 7965 7964 7962 ] final  152.32 input  175.53 | X-H torsion
[ 8008 7997 7996 7995 ] final -150.59 input   59.86 | X-H torsion
[ 10167 10162 10161 10158 ] final  -33.14 input  -65.29 | X-H torsion
[ 10718 10713 10712 10709 ] final  -52.84 input   66.30 | X-H torsion
[ 10763 10752 10751 10750 ] final    7.63 input  -60.55 | X-H torsion
[ 11005 11000 10999 10996 ] final  118.95 input  -57.11 | X-H torsion

> <Gold.Protein.ActiveResidues>
 VAL166  LYS551  ARG553  GLY616  TRP617  ASP618  TYR619  PRO620  LYS621  CYS622 
 ASP623  PHE694  ASN695  SER759  ASP760  ASP761  ALA762  ILE779  LEU786  VAL792 
 PHE793  MET794  SER795  GLU796  ALA797  LYS798  CYS799  TRP800  GLU811  SER814 

> <Gold.Protein.RotatedAtoms>
  152.5167  133.9283  159.7567 H   0  0  0  0  0  0  0  0  0  0  0  0  # atno 6907 bound_to 6896
  150.9639  133.6407  159.2756 H   0  0  0  0  0  0  0  0  0  0  0  0  # atno 6908 bound_to 6896
  151.3642  135.0915  159.9497 H   0  0  0  0  0  0  0  0  0  0  0  0  # atno 6909 bound_to 6896
  144.8231  139.6652  143.6092 H   0  0  0  0  0  0  0  0  0  0  0  0  # atno 7974 bound_to 7965
  155.6259  140.0686  157.2664 H   0  0  0  0  0  0  0  0  0  0  0  0  # atno 8008 bound_to 7997
  154.4218  140.1776  156.1469 H   0  0  0  0  0  0  0  0  0  0  0  0  # atno 8009 bound_to 7997
  155.9972  140.3339  155.6813 H   0  0  0  0  0  0  0  0  0  0  0  0  # atno 8010 bound_to 7997
  140.7209  143.3642  151.1903 H   0  0  0  0  0  0  0  0  0  0  0  0  # atno 10167 bound_to 10162
  156.1586  130.4150  149.9828 H   0  0  0  0  0  0  0  0  0  0  0  0  # atno 10718 bound_to 10713
  153.2342  135.6896  153.7856 H   0  0  0  0  0  0  0  0  0  0  0  0  # atno 10763 bound_to 10752
  153.7009  135.3297  155.3225 H   0  0  0  0  0  0  0  0  0  0  0  0  # atno 10764 bound_to 10752
  154.8327  135.4567  154.1239 H   0  0  0  0  0  0  0  0  0  0  0  0  # atno 10765 bound_to 10752
  139.9128  134.9624  156.7582 H   0  0  0  0  0  0  0  0  0  0  0  0  # atno 11005 bound_to 11000
  146.2536  139.6254  142.9410 LP  0  0  0  0  0  0  0  0  0  0  0  0  # atno 17320 bound_to 7965
  145.5061  141.0436  143.2514 LP  0  0  0  0  0  0  0  0  0  0  0  0  # atno 17321 bound_to 7965
  139.7200  143.9238  152.2982 LP  0  0  0  0  0  0  0  0  0  0  0  0  # atno 17342 bound_to 10162
  139.8992  144.6921  150.8684 LP  0  0  0  0  0  0  0  0  0  0  0  0  # atno 17343 bound_to 10162
  156.7664  130.9170  151.3643 LP  0  0  0  0  0  0  0  0  0  0  0  0  # atno 17370 bound_to 10713
  157.6715  130.9055  150.0051 LP  0  0  0  0  0  0  0  0  0  0  0  0  # atno 17371 bound_to 10713
  140.6719  133.9552  155.7861 LP  0  0  0  0  0  0  0  0  0  0  0  0  # atno 17394 bound_to 11000
  141.0571  134.0400  157.3707 LP  0  0  0  0  0  0  0  0  0  0  0  0  # atno 17395 bound_to 11000

$$$$
