AV-unprocessed.smi:1977|AV-procd|sdf|7991|dock7
  -GOLD-   2272010173D 1   1.00000     0.00000
 Structure written by MMmdl.
 45 46  0  0  0  0  0  0  0  0  1 V2000
  144.1500  133.4337  150.5723 C   0  0  0  0  0  0  0  0  0  0  0  0
  145.4292  134.1422  151.0507 C   0  0  0  0  0  0  0  0  0  0  0  0
  146.6731  133.3185  150.6870 C   0  0  0  0  0  0  0  0  0  0  0  0
  145.4012  134.4486  152.5634 C   0  0  0  0  0  0  0  0  0  0  0  0
  146.4768  135.3443  152.9760 N   0  0  0  0  0  0  0  0  0  0  0  0
  146.4691  136.0951  154.0862 C   0  0  0  0  0  0  0  0  0  0  0  0
  145.5433  136.1175  154.8972 O   0  0  0  0  0  0  0  0  0  0  0  0
  147.5896  136.8223  154.2003 N   0  0  0  0  0  0  0  0  0  0  0  0
  147.9008  137.7415  155.2924 C   0  0  0  0  0  0  0  0  0  0  0  0
  148.0063  139.2087  154.8684 C   0  0  0  0  0  0  0  0  0  0  0  0
  146.9017  139.8584  154.2696 C   0  0  0  0  0  0  0  0  0  0  0  0
  147.0020  141.2158  153.9170 C   0  0  0  0  0  0  0  0  0  0  0  0
  148.2086  141.8849  154.1834 C   0  0  0  0  0  0  0  0  0  0  0  0
  149.2696  141.2868  154.7608 N   0  0  0  0  0  0  0  0  0  0  0  0
  149.1795  139.9782  155.1033 C   0  0  0  0  0  0  0  0  0  0  0  0
  150.3179  139.3910  155.6841 N   0  0  0  0  0  0  0  0  0  0  0  0
  150.7866  139.9755  156.9367 C   0  0  0  0  0  0  0  0  0  0  0  0
  151.9148  139.1118  157.5262 C   0  0  0  0  0  0  0  0  0  0  0  0
  152.9612  138.9761  156.5682 O   0  0  0  0  0  0  0  0  0  0  0  0
  152.5140  138.3431  155.3721 C   0  0  0  0  0  0  0  0  0  0  0  0
  151.3978  139.1834  154.7276 C   0  0  0  0  0  0  0  0  0  0  0  0
  144.0068  132.4847  151.0899 H   0  0  0  0  0  0  0  0  0  0  0  0
  144.1948  133.2247  149.5032 H   0  0  0  0  0  0  0  0  0  0  0  0
  143.2638  134.0449  150.7443 H   0  0  0  0  0  0  0  0  0  0  0  0
  145.5026  135.0889  150.5138 H   0  0  0  0  0  0  0  0  0  0  0  0
  146.6679  132.3500  151.1880 H   0  0  0  0  0  0  0  0  0  0  0  0
  147.5871  133.8381  150.9762 H   0  0  0  0  0  0  0  0  0  0  0  0
  146.7249  133.1377  149.6129 H   0  0  0  0  0  0  0  0  0  0  0  0
  144.4532  134.9173  152.8295 H   0  0  0  0  0  0  0  0  0  0  0  0
  145.4560  133.5234  153.1400 H   0  0  0  0  0  0  0  0  0  0  0  0
  147.2836  135.3946  152.3712 H   0  0  0  0  0  0  0  0  0  0  0  0
  148.2869  136.7315  153.4759 H   0  0  0  0  0  0  0  0  0  0  0  0
  147.1585  137.6690  156.0886 H   0  0  0  0  0  0  0  0  0  0  0  0
  148.8344  137.3895  155.7275 H   0  0  0  0  0  0  0  0  0  0  0  0
  145.9767  139.3336  154.0845 H   0  0  0  0  0  0  0  0  0  0  0  0
  146.1716  141.7321  153.4584 H   0  0  0  0  0  0  0  0  0  0  0  0
  148.3249  142.9279  153.9287 H   0  0  0  0  0  0  0  0  0  0  0  0
  151.1560  140.9868  156.7600 H   0  0  0  0  0  0  0  0  0  0  0  0
  149.9593  140.0493  157.6434 H   0  0  0  0  0  0  0  0  0  0  0  0
  152.3150  139.5785  158.4262 H   0  0  0  0  0  0  0  0  0  0  0  0
  151.5421  138.1277  157.8148 H   0  0  0  0  0  0  0  0  0  0  0  0
  153.3548  138.2443  154.6856 H   0  0  0  0  0  0  0  0  0  0  0  0
  152.1613  137.3344  155.5929 H   0  0  0  0  0  0  0  0  0  0  0  0
  151.0255  138.6861  153.8316 H   0  0  0  0  0  0  0  0  0  0  0  0
  151.7919  140.1514  154.4143 H   0  0  0  0  0  0  0  0  0  0  0  0
  1  2  1  0  0  0  0
  1 22  1  0  0  0  0
  1 23  1  0  0  0  0
  1 24  1  0  0  0  0
  2  3  1  0  0  0  0
  2  4  1  0  0  0  0
  2 25  1  0  0  0  0
  3 26  1  0  0  0  0
  3 27  1  0  0  0  0
  3 28  1  0  0  0  0
  4  5  1  0  0  0  0
  4 29  1  0  0  0  0
  4 30  1  0  0  0  0
  5  6  1  0  0  0  0
  5 31  1  0  0  0  0
  6  7  2  0  0  0  0
  6  8  1  0  0  0  0
  8  9  1  0  0  0  0
  8 32  1  0  0  0  0
  9 10  1  0  0  0  0
  9 33  1  0  0  0  0
  9 34  1  0  0  0  0
 10 15  1  0  0  0  0
 10 11  2  0  0  0  0
 11 12  1  0  0  0  0
 11 35  1  0  0  0  0
 12 13  2  0  0  0  0
 12 36  1  0  0  0  0
 13 14  1  0  0  0  0
 13 37  1  0  0  0  0
 14 15  2  0  0  0  0
 15 16  1  0  0  0  0
 16 21  1  0  0  0  0
 16 17  1  0  0  0  0
 17 18  1  0  0  0  0
 17 38  1  0  0  0  0
 17 39  1  0  0  0  0
 18 19  1  0  0  0  0
 18 40  1  0  0  0  0
 18 41  1  0  0  0  0
 19 20  1  0  0  0  0
 20 21  1  0  0  0  0
 20 42  1  0  0  0  0
 20 43  1  0  0  0  0
 21 44  1  0  0  0  0
 21 45  1  0  0  0  0
M  END
> <s_m_source_file>
AV-unprocessed.smi

> <i_m_source_file_index>
1977

> <i_lp_mmshare_version>
43012

> <i_f3d_flags>
0

> <s_epik_input>
W0NIM11bQ0hdKFtDSDNdKVtDSDJdW05IXUMoPU8pW05IXVtDSDJdYzFbY0hdW2NIXVtjSF1uYzFOMltDSDJdW0NIMl1PW0NIMl1bQ0gyXTI=

> <s_epik_cmdline>
J2VwaWtfcHl0aG9uJywgJy1waCcsICc3LjAnLCAnLXRuJywgJzgnLCAnLW1hJywgJzIwMCcsICctbWV0YWxfYmluZGluZycsICctaW1hZScsICc8aW5maWxlLm1hZT4nLCAnLW9tYWUnLCAnPG91dGZpbGUubWFlPic=

> <r_lp_tautomer_probability>
1

> <r_epik_Ionization_Penalty>
0.00617532

> <r_epik_Ionization_Penalty_Charging>
0

> <r_epik_Ionization_Penalty_Neutral>
0.00617532

> <r_epik_State_Penalty>
0.00451205

> <r_epik_Charging_Adjusted_Penalty>
0.00451205

> <i_epik_Tot_Q>
0

> <i_epik_Tot_abs_Q>
0

> <r_epik_Metal_State_Penalty>
-0

> <b_epik_Metal_Only>
0

> <s_lp_Force_Field>
OPLS_2005

> <r_lp_Energy>
18.8779

> <b_lp_Chiralities_Consistent>
1

> <s_lp_Variant>
AV-unprocessed.smi:1977-1

> <Gold.Version>
5.8.1

> <Gold.Id.Protein>
6NUR|6NUR_protein|mol2

> <Gold.PLP.Fitness>
40.0669

> <Gold.PLP.PLP>
-28.9938

> <Gold.PLP.part.hbond>
-3.0000

> <Gold.PLP.part.metal>
0.0000

> <Gold.PLP.part.buried>
-3.4389

> <Gold.PLP.part.nonpolar>
-22.8418

> <Gold.PLP.part.repulsive>
0.1790

> <Gold.PLP.ligand.clash>
0.0000

> <Gold.PLP.ligand.torsion>
0.3593

> <Gold.PLP.Chemscore.Hbond>
3.0000

> <Gold.PLP.Chemscore.CHOScore>
0.8693

> <Gold.PLP.Chemscore.Metal>
0.0000

> <Gold.Chemscore.Hbonds>
donor molecule, donor type, donor heavy atom, donor atom, acceptor molecule, acceptor atom, score
      L1  H     5    31       P1  7948  1.00
      L1  H     8    32       P1  7948  1.00
      P1  H  7997  8009       L1    19  1.00
      L1  C    13    37       P1  8028  0.88

> <Gold.PLP.Chemscore.Internal.Correction>
0.1837

> <Gold.Rescore>
     Score         DG    S(hbond)    S(metal)    S(lipo)     H(rot)  DE(clash)    DE(int)     intcor
     18.60     -19.09       2.91        0.00      71.93       1.77       0.17       0.32       ----

> <Gold.Chemscore.Fitness>
18.5976

> <Gold.Chemscore.DG>
-19.0858

> <Gold.Chemscore.ZeroCoef>
-5.4800

> <Gold.Chemscore.Hbond>
2.9076

> <Gold.Chemscore.Metal>
0.0000

> <Gold.Chemscore.Lipo>
71.9285

> <Gold.Chemscore.Internal_Hbond>
0.0000

> <Gold.Chemscore.DEClash>
0.1702

> <Gold.Chemscore.DEInternal>
0.3180

> <Gold.Chemscore.Rot>
1.7662

> <Gold.Chemscore.Internal.Correction>
   9.000000E+99

> <Gold.Chemscore.Hbonds>
donor molecule, donor type, donor heavy atom, donor atom, acceptor molecule, acceptor atom, score
      L1  H     5    31       P1  7948  0.96
      L1  H     8    32       P1  7948  0.99
      P1  H  7997  8009       L1    19  0.93

> <Gold.Chemscore.Hbond.Weighted>
-9.7115

> <Gold.Chemscore.Metal.Weighted>
-0.0000

> <Gold.Chemscore.Lipo.Weighted>
-8.4156

> <Gold.Chemscore.Internal_Hbond.Weighted>
0.0000

> <Gold.Chemscore.DEClash.Weighted>
0.1702

> <Gold.Chemscore.DEInternal.Weighted>
0.3180

> <Gold.Chemscore.Rot.Weighted>
4.5214

> <Gold.Chemscore.Internal.Correction.Weighted>
   9.000000E+99

> <Gold.Protein.RotatedTorsions>
[ 6907 6896 6895 6894 ] final  107.43 input  -60.11 | X-H torsion
[ 7974 7965 7964 7962 ] final   -3.95 input  175.53 | X-H torsion
[ 8008 7997 7996 7995 ] final  172.11 input   59.86 | X-H torsion
[ 10167 10162 10161 10158 ] final   -3.72 input  -65.29 | X-H torsion
[ 10718 10713 10712 10709 ] final   79.51 input   66.30 | X-H torsion
[ 10763 10752 10751 10750 ] final   21.49 input  -60.55 | X-H torsion
[ 11005 11000 10999 10996 ] final -117.16 input  -57.11 | X-H torsion

> <Gold.Protein.ActiveResidues>
 VAL166  LYS551  ARG553  GLY616  TRP617  ASP618  TYR619  PRO620  LYS621  CYS622 
 ASP623  PHE694  ASN695  SER759  ASP760  ASP761  ALA762  ILE779  LEU786  VAL792 
 PHE793  MET794  SER795  GLU796  ALA797  LYS798  CYS799  TRP800  GLU811  SER814 

> <Gold.Protein.RotatedAtoms>
  152.5154  133.9235  159.7545 H   0  0  0  0  0  0  0  0  0  0  0  0  # atno 6907 bound_to 6896
  150.9602  133.6445  159.2763 H   0  0  0  0  0  0  0  0  0  0  0  0  # atno 6908 bound_to 6896
  151.3693  135.0925  159.9513 H   0  0  0  0  0  0  0  0  0  0  0  0  # atno 6909 bound_to 6896
  146.2381  140.1798  142.8332 H   0  0  0  0  0  0  0  0  0  0  0  0  # atno 7974 bound_to 7965
  156.1206  140.1494  156.9210 H   0  0  0  0  0  0  0  0  0  0  0  0  # atno 8008 bound_to 7997
  154.4833  140.0873  156.7470 H   0  0  0  0  0  0  0  0  0  0  0  0  # atno 8009 bound_to 7997
  155.4435  140.3432  155.4295 H   0  0  0  0  0  0  0  0  0  0  0  0  # atno 8010 bound_to 7997
  140.6901  143.6507  150.8353 H   0  0  0  0  0  0  0  0  0  0  0  0  # atno 10167 bound_to 10162
  157.6779  130.9917  150.1944 H   0  0  0  0  0  0  0  0  0  0  0  0  # atno 10718 bound_to 10713
  153.0991  135.6667  153.9707 H   0  0  0  0  0  0  0  0  0  0  0  0  # atno 10763 bound_to 10752
  153.9283  135.3007  155.3447 H   0  0  0  0  0  0  0  0  0  0  0  0  # atno 10764 bound_to 10752
  154.7411  135.5079  153.9198 H   0  0  0  0  0  0  0  0  0  0  0  0  # atno 10765 bound_to 10752
  141.0373  133.9890  157.3050 H   0  0  0  0  0  0  0  0  0  0  0  0  # atno 11005 bound_to 11000
  144.9944  140.8576  143.5320 LP  0  0  0  0  0  0  0  0  0  0  0  0  # atno 17320 bound_to 7965
  145.1808  139.2353  143.5293 LP  0  0  0  0  0  0  0  0  0  0  0  0  # atno 17321 bound_to 7965
  140.0219  143.5534  152.2797 LP  0  0  0  0  0  0  0  0  0  0  0  0  # atno 17342 bound_to 10162
  139.6295  144.7642  151.2567 LP  0  0  0  0  0  0  0  0  0  0  0  0  # atno 17343 bound_to 10162
  156.2648  130.3715  149.8093 LP  0  0  0  0  0  0  0  0  0  0  0  0  # atno 17370 bound_to 10713
  156.5827  130.8472  151.3387 LP  0  0  0  0  0  0  0  0  0  0  0  0  # atno 17371 bound_to 10713
  139.9250  135.0201  156.8201 LP  0  0  0  0  0  0  0  0  0  0  0  0  # atno 17394 bound_to 11000
  140.6298  133.9916  155.7657 LP  0  0  0  0  0  0  0  0  0  0  0  0  # atno 17395 bound_to 11000

$$$$
