AV-unprocessed.smi:797|AV-procd|sdf|3767|dock4
  -GOLD-   22720 1203D 1   1.00000     0.00000
 Structure written by MMmdl.
 35 36  0  0  0  0  0  0  0  0  1 V2000
  146.0937  138.0071  152.2745 C   0  0  0  0  0  0  0  0  0  0  0  0
  146.9933  138.8339  153.1445 C   0  0  0  0  0  0  0  0  0  0  0  0
  147.0991  140.2498  153.2145 C   0  0  0  0  0  0  0  0  0  0  0  0
  148.0672  140.4544  154.1562 C   0  0  0  0  0  0  0  0  0  0  0  0
  148.6898  141.6874  154.7203 C   0  0  0  0  0  0  0  0  0  0  0  0
  150.0356  141.2264  155.8927 S   0  0  0  0  0  0  0  0  0  0  0  0
  149.4327  140.6611  157.1092 O   0  0  0  0  0  0  0  0  0  0  0  0
  151.0709  140.4807  155.1599 O   0  0  0  0  0  0  0  0  0  0  0  0
  150.6916  142.7681  156.3165 N   0  0  0  0  0  0  0  0  0  0  0  0
  151.0324  143.0456  157.7141 C   0  0  0  0  0  0  0  0  0  0  0  0
  151.7692  144.3948  157.8306 C   0  0  0  0  0  0  0  0  0  0  0  0
  152.2173  144.6657  159.2759 C   0  0  0  0  0  0  0  0  0  0  0  0
  153.0778  143.5147  159.8198 C   0  0  0  0  0  0  0  0  0  0  0  0
  152.3395  142.1711  159.7113 C   0  0  0  0  0  0  0  0  0  0  0  0
  151.8955  141.8957  158.2656 C   0  0  0  0  0  0  0  0  0  0  0  0
  148.5174  139.2651  154.6323 O   0  0  0  0  0  0  0  0  0  0  0  0
  147.8263  138.2374  153.9812 N   0  0  0  0  0  0  0  0  0  0  0  0
  145.3962  138.6354  151.7202 H   0  0  0  0  0  0  0  0  0  0  0  0
  145.5074  137.3055  152.8683 H   0  0  0  0  0  0  0  0  0  0  0  0
  146.6702  137.4320  151.5496 H   0  0  0  0  0  0  0  0  0  0  0  0
  146.5569  140.9982  152.6560 H   0  0  0  0  0  0  0  0  0  0  0  0
  149.1034  142.3198  153.9351 H   0  0  0  0  0  0  0  0  0  0  0  0
  147.9487  142.2705  155.2672 H   0  0  0  0  0  0  0  0  0  0  0  0
  150.1344  143.5239  155.9192 H   0  0  0  0  0  0  0  0  0  0  0  0
  150.1109  143.0892  158.2960 H   0  0  0  0  0  0  0  0  0  0  0  0
  152.6412  144.3982  157.1750 H   0  0  0  0  0  0  0  0  0  0  0  0
  151.1257  145.2079  157.4935 H   0  0  0  0  0  0  0  0  0  0  0  0
  152.7756  145.6011  159.3226 H   0  0  0  0  0  0  0  0  0  0  0  0
  151.3401  144.7974  159.9107 H   0  0  0  0  0  0  0  0  0  0  0  0
  154.0143  143.4632  159.2631 H   0  0  0  0  0  0  0  0  0  0  0  0
  153.3456  143.7096  160.8588 H   0  0  0  0  0  0  0  0  0  0  0  0
  152.9824  141.3638  160.0627 H   0  0  0  0  0  0  0  0  0  0  0  0
  151.4670  142.1794  160.3660 H   0  0  0  0  0  0  0  0  0  0  0  0
  151.3389  140.9583  158.2250 H   0  0  0  0  0  0  0  0  0  0  0  0
  152.7771  141.7591  157.6378 H   0  0  0  0  0  0  0  0  0  0  0  0
  1  2  1  0  0  0  0
  1 18  1  0  0  0  0
  1 19  1  0  0  0  0
  1 20  1  0  0  0  0
  2 17  2  0  0  0  0
  2  3  1  0  0  0  0
  3  4  2  0  0  0  0
  3 21  1  0  0  0  0
  4  5  1  0  0  0  0
  4 16  1  0  0  0  0
  5  6  1  0  0  0  0
  5 22  1  0  0  0  0
  5 23  1  0  0  0  0
  6  7  2  0  0  0  0
  6  8  2  0  0  0  0
  6  9  1  0  0  0  0
  9 10  1  0  0  0  0
  9 24  1  0  0  0  0
 10 15  1  0  0  0  0
 10 11  1  0  0  0  0
 10 25  1  0  0  0  0
 11 12  1  0  0  0  0
 11 26  1  0  0  0  0
 11 27  1  0  0  0  0
 12 13  1  0  0  0  0
 12 28  1  0  0  0  0
 12 29  1  0  0  0  0
 13 14  1  0  0  0  0
 13 30  1  0  0  0  0
 13 31  1  0  0  0  0
 14 15  1  0  0  0  0
 14 32  1  0  0  0  0
 14 33  1  0  0  0  0
 15 34  1  0  0  0  0
 15 35  1  0  0  0  0
 16 17  1  0  0  0  0
M  END
> <s_m_source_file>
AV-unprocessed.smi

> <i_m_source_file_index>
797

> <i_lp_mmshare_version>
43012

> <i_f3d_flags>
0

> <s_epik_input>
W0NIM11jMVtjSF1jKG9uMSlbQ0gyXVMoPU8pKD1PKVtOSF1bQ0hdMltDSDJdW0NIMl1bQ0gyXVtDSDJdW0NIMl0y

> <s_epik_cmdline>
J2VwaWtfcHl0aG9uJywgJy1waCcsICc3LjAnLCAnLXRuJywgJzgnLCAnLW1hJywgJzIwMCcsICctbWV0YWxfYmluZGluZycsICctaW1hZScsICc8aW5maWxlLm1hZT4nLCAnLW9tYWUnLCAnPG91dGZpbGUubWFlPic=

> <r_lp_tautomer_probability>
1

> <r_epik_Ionization_Penalty>
5.6723e-05

> <r_epik_Ionization_Penalty_Charging>
0

> <r_epik_Ionization_Penalty_Neutral>
5.6723e-05

> <r_epik_State_Penalty>
-0

> <r_epik_Charging_Adjusted_Penalty>
0

> <i_epik_Tot_Q>
0

> <i_epik_Tot_abs_Q>
0

> <r_epik_Metal_State_Penalty>
0.0496356

> <b_epik_Metal_Only>
0

> <s_lp_Force_Field>
OPLS_2005

> <r_lp_Energy>
1.90415

> <b_lp_Chiralities_Consistent>
1

> <s_lp_Variant>
AV-unprocessed.smi:797-1

> <Gold.Version>
5.8.1

> <Gold.Id.Protein>
6NUR|6NUR_protein|mol2

> <Gold.PLP.Fitness>
43.0868

> <Gold.PLP.PLP>
-37.9473

> <Gold.PLP.part.hbond>
-2.0000

> <Gold.PLP.part.metal>
0.0000

> <Gold.PLP.part.buried>
-2.2555

> <Gold.PLP.part.nonpolar>
-34.7008

> <Gold.PLP.part.repulsive>
1.0077

> <Gold.PLP.ligand.clash>
0.0000

> <Gold.PLP.ligand.torsion>
0.4686

> <Gold.PLP.Chemscore.Hbond>
1.9760

> <Gold.PLP.Chemscore.CHOScore>
0.0000

> <Gold.PLP.Chemscore.Metal>
0.0000

> <Gold.Chemscore.Hbonds>
donor molecule, donor type, donor heavy atom, donor atom, acceptor molecule, acceptor atom, score
      L1  H     9    24       P1  8028  1.00
      P1  H  7989  7998       L1     8  0.99

> <Gold.PLP.Chemscore.Internal.Correction>
0.1487

> <Gold.Rescore>
     Score         DG    S(hbond)    S(metal)    S(lipo)     H(rot)  DE(clash)    DE(int)     intcor
     17.88     -19.93       1.96        0.00     102.51       1.60       0.05       2.00       ----

> <Gold.Chemscore.Fitness>
17.8838

> <Gold.Chemscore.DG>
-19.9300

> <Gold.Chemscore.ZeroCoef>
-5.4800

> <Gold.Chemscore.Hbond>
1.9582

> <Gold.Chemscore.Metal>
0.0000

> <Gold.Chemscore.Lipo>
102.5121

> <Gold.Chemscore.Internal_Hbond>
0.0000

> <Gold.Chemscore.DEClash>
0.0471

> <Gold.Chemscore.DEInternal>
1.9992

> <Gold.Chemscore.Rot>
1.5954

> <Gold.Chemscore.Internal.Correction>
   9.000000E+99

> <Gold.Chemscore.Hbonds>
donor molecule, donor type, donor heavy atom, donor atom, acceptor molecule, acceptor atom, score
      L1  H     9    24       P1  8028  1.00
      P1  H  7989  7998       L1     8  0.94

> <Gold.Chemscore.Hbond.Weighted>
-6.5403

> <Gold.Chemscore.Metal.Weighted>
-0.0000

> <Gold.Chemscore.Lipo.Weighted>
-11.9939

> <Gold.Chemscore.Internal_Hbond.Weighted>
0.0000

> <Gold.Chemscore.DEClash.Weighted>
0.0471

> <Gold.Chemscore.DEInternal.Weighted>
1.9992

> <Gold.Chemscore.Rot.Weighted>
4.0843

> <Gold.Chemscore.Internal.Correction.Weighted>
   9.000000E+99

> <Gold.Protein.RotatedTorsions>
[ 6907 6896 6895 6894 ] final -173.11 input  -60.11 | X-H torsion
[ 7974 7965 7964 7962 ] final   55.60 input  175.53 | X-H torsion
[ 8008 7997 7996 7995 ] final   69.34 input   59.86 | X-H torsion
[ 10167 10162 10161 10158 ] final -111.48 input  -65.29 | X-H torsion
[ 10718 10713 10712 10709 ] final   34.72 input   66.30 | X-H torsion
[ 10763 10752 10751 10750 ] final -153.33 input  -60.55 | X-H torsion
[ 11005 11000 10999 10996 ] final  -86.49 input  -57.11 | X-H torsion

> <Gold.Protein.ActiveResidues>
 VAL166  LYS551  ARG553  GLY616  TRP617  ASP618  TYR619  PRO620  LYS621  CYS622 
 ASP623  PHE694  ASN695  SER759  ASP760  ASP761  ALA762  ILE779  LEU786  VAL792 
 PHE793  MET794  SER795  GLU796  ALA797  LYS798  CYS799  TRP800  GLU811  SER814 

> <Gold.Protein.RotatedAtoms>
  151.5509  133.3417  159.2952 H   0  0  0  0  0  0  0  0  0  0  0  0  # atno 6907 bound_to 6896
  150.8479  134.7797  159.6996 H   0  0  0  0  0  0  0  0  0  0  0  0  # atno 6908 bound_to 6896
  152.4532  134.5355  159.9875 H   0  0  0  0  0  0  0  0  0  0  0  0  # atno 6909 bound_to 6896
  145.9487  139.3953  143.0319 H   0  0  0  0  0  0  0  0  0  0  0  0  # atno 7974 bound_to 7965
  155.7222  140.3493  155.5021 H   0  0  0  0  0  0  0  0  0  0  0  0  # atno 8008 bound_to 7997
  155.9259  140.1075  157.1192 H   0  0  0  0  0  0  0  0  0  0  0  0  # atno 8009 bound_to 7997
  154.4077  140.1240  156.4727 H   0  0  0  0  0  0  0  0  0  0  0  0  # atno 8010 bound_to 7997
  140.1332  143.4343  152.1613 H   0  0  0  0  0  0  0  0  0  0  0  0  # atno 10167 bound_to 10162
  157.3138  130.7413  149.6741 H   0  0  0  0  0  0  0  0  0  0  0  0  # atno 10718 bound_to 10713
  154.7935  135.3215  154.7722 H   0  0  0  0  0  0  0  0  0  0  0  0  # atno 10763 bound_to 10752
  153.8405  135.6871  153.4808 H   0  0  0  0  0  0  0  0  0  0  0  0  # atno 10764 bound_to 10752
  153.1615  135.4659  154.9720 H   0  0  0  0  0  0  0  0  0  0  0  0  # atno 10765 bound_to 10752
  141.1629  133.7457  156.9169 H   0  0  0  0  0  0  0  0  0  0  0  0  # atno 11005 bound_to 11000
  145.8201  140.9683  143.0903 LP  0  0  0  0  0  0  0  0  0  0  0  0  # atno 17320 bound_to 7965
  144.6792  140.0030  143.7484 LP  0  0  0  0  0  0  0  0  0  0  0  0  # atno 17321 bound_to 7965
  139.5509  144.7337  151.4438 LP  0  0  0  0  0  0  0  0  0  0  0  0  # atno 17342 bound_to 10162
  140.6805  143.8093  150.7115 LP  0  0  0  0  0  0  0  0  0  0  0  0  # atno 17343 bound_to 10162
  155.9680  130.4243  150.4604 LP  0  0  0  0  0  0  0  0  0  0  0  0  # atno 17370 bound_to 10713
  157.2607  131.0566  151.2322 LP  0  0  0  0  0  0  0  0  0  0  0  0  # atno 17371 bound_to 10713
  140.1478  134.9250  157.2553 LP  0  0  0  0  0  0  0  0  0  0  0  0  # atno 17394 bound_to 11000
  140.2759  134.3406  155.7358 LP  0  0  0  0  0  0  0  0  0  0  0  0  # atno 17395 bound_to 11000

$$$$
