AV-unprocessed.smi:1107|AV-procd|sdf|4785|dock2
  -GOLD-   22720 3333D 1   1.00000     0.00000
 Structure written by MMmdl.
 48 49  0  0  0  0  0  0  0  0  3 V2000
  152.8938  141.8546  158.0061 C   0  0  0  0  0  0  0  0  0  0  0  0
  152.5000  140.7937  157.0005 C   0  0  0  0  0  0  0  0  0  0  0  0
  151.5855  141.0545  156.1460 N   0  0  0  0  0  0  0  0  0  0  0  0
  151.2060  140.0719  155.2160 C   0  0  0  0  0  0  0  0  0  0  0  0
  150.0826  140.4552  154.2690 C   0  0  0  0  0  0  0  0  0  0  0  0
  151.8115  138.8498  155.1964 C   0  0  0  0  0  0  0  0  0  0  0  0
  151.4007  137.7132  154.2589 C   0  0  0  0  0  0  0  0  0  0  0  0
  150.8468  136.4722  154.9628 C   0  0  0  0  0  0  0  0  0  0  0  0
  151.4851  135.9412  155.8704 O   0  0  0  0  0  0  0  0  0  0  0  0
  149.6359  136.0533  154.5615 N   0  0  0  0  0  0  0  0  0  0  0  0
  148.8061  135.0470  155.2163 C   0  0  2  0  0  0  0  0  0  0  0  0
  149.2846  133.6474  154.8082 C   0  0  0  0  0  0  0  0  0  0  0  0
  147.3201  135.2716  154.8544 C   0  0  0  0  0  0  0  0  0  0  0  0
  147.0495  135.2396  153.3915 N   0  3  0  0  0  0  0  0  0  0  0  0
  146.7172  133.8713  152.9143 C   0  0  0  0  0  0  0  0  0  0  0  0
  146.5355  133.8295  151.3872 C   0  0  0  0  0  0  0  0  0  0  0  0
  145.4904  134.8507  150.9228 C   0  0  0  0  0  0  0  0  0  0  0  0
  145.8585  136.2462  151.4407 C   0  0  0  0  0  0  0  0  0  0  0  0
  146.0297  136.2360  152.9679 C   0  0  0  0  0  0  0  0  0  0  0  0
  152.8659  138.5924  156.1921 C   0  0  0  0  0  0  0  0  0  0  0  0
  153.4357  137.5026  156.2211 O   0  0  0  0  0  0  0  0  0  0  0  0
  153.1588  139.5873  157.0757 N   0  5  0  0  0  0  0  0  0  0  0  0
  152.6690  142.8524  157.6271 H   0  0  0  0  0  0  0  0  0  0  0  0
  153.9621  141.8072  158.2211 H   0  0  0  0  0  0  0  0  0  0  0  0
  152.3465  141.7085  158.9376 H   0  0  0  0  0  0  0  0  0  0  0  0
  149.2594  139.7438  154.3367 H   0  0  0  0  0  0  0  0  0  0  0  0
  150.4431  140.4731  153.2403 H   0  0  0  0  0  0  0  0  0  0  0  0
  149.6885  141.4448  154.5031 H   0  0  0  0  0  0  0  0  0  0  0  0
  150.6477  138.0600  153.5522 H   0  0  0  0  0  0  0  0  0  0  0  0
  152.2541  137.4266  153.6424 H   0  0  0  0  0  0  0  0  0  0  0  0
  149.2119  136.5498  153.7905 H   0  0  0  0  0  0  0  0  0  0  0  0
  148.9196  135.1165  156.2986 H   0  0  0  0  0  0  0  0  0  0  0  0
  148.6896  132.8730  155.2933 H   0  0  0  0  0  0  0  0  0  0  0  0
  150.3250  133.4899  155.0945 H   0  0  0  0  0  0  0  0  0  0  0  0
  149.2098  133.4985  153.7305 H   0  0  0  0  0  0  0  0  0  0  0  0
  146.7374  134.4812  155.3305 H   0  0  0  0  0  0  0  0  0  0  0  0
  146.9587  136.2105  155.2764 H   0  0  0  0  0  0  0  0  0  0  0  0
  147.5149  133.1823  153.1947 H   0  0  0  0  0  0  0  0  0  0  0  0
  145.8084  133.5254  153.4091 H   0  0  0  0  0  0  0  0  0  0  0  0
  147.4865  134.0344  150.8972 H   0  0  0  0  0  0  0  0  0  0  0  0
  146.2417  132.8270  151.0749 H   0  0  0  0  0  0  0  0  0  0  0  0
  145.4272  134.8564  149.8344 H   0  0  0  0  0  0  0  0  0  0  0  0
  144.5046  134.5665  151.2932 H   0  0  0  0  0  0  0  0  0  0  0  0
  146.7830  136.5827  150.9701 H   0  0  0  0  0  0  0  0  0  0  0  0
  145.0886  136.9640  151.1567 H   0  0  0  0  0  0  0  0  0  0  0  0
  145.0769  136.0106  153.4494 H   0  0  0  0  0  0  0  0  0  0  0  0
  146.3185  137.2346  153.2932 H   0  0  0  0  0  0  0  0  0  0  0  0
  147.9141  135.4926  152.9332 H   0  0  0  0  0  0  0  0  0  0  0  0
  1  2  1  0  0  0  0
  1 23  1  0  0  0  0
  1 24  1  0  0  0  0
  1 25  1  0  0  0  0
  2 22  1  0  0  0  0
  2  3  2  0  0  0  0
  3  4  1  0  0  0  0
  4  5  1  0  0  0  0
  4  6  2  0  0  0  0
  5 26  1  0  0  0  0
  5 27  1  0  0  0  0
  5 28  1  0  0  0  0
  6  7  1  0  0  0  0
  6 20  1  0  0  0  0
  7  8  1  0  0  0  0
  7 29  1  0  0  0  0
  7 30  1  0  0  0  0
  8  9  2  0  0  0  0
  8 10  1  0  0  0  0
 10 11  1  0  0  0  0
 10 31  1  0  0  0  0
 11 12  1  0  0  0  0
 11 13  1  0  0  0  0
 11 32  1  0  0  0  0
 12 33  1  0  0  0  0
 12 34  1  0  0  0  0
 12 35  1  0  0  0  0
 13 14  1  0  0  0  0
 13 36  1  0  0  0  0
 13 37  1  0  0  0  0
 14 19  1  0  0  0  0
 14 15  1  0  0  0  0
 14 48  1  0  0  0  0
 15 16  1  0  0  0  0
 15 38  1  0  0  0  0
 15 39  1  0  0  0  0
 16 17  1  0  0  0  0
 16 40  1  0  0  0  0
 16 41  1  0  0  0  0
 17 18  1  0  0  0  0
 17 42  1  0  0  0  0
 17 43  1  0  0  0  0
 18 19  1  0  0  0  0
 18 44  1  0  0  0  0
 18 45  1  0  0  0  0
 19 46  1  0  0  0  0
 19 47  1  0  0  0  0
 20 21  2  0  0  0  0
 20 22  1  0  0  0  0
M  CHG  1  14   1
M  CHG  1  22  -1
M  END
> <s_m_source_file>
AV-unprocessed.smi

> <i_m_source_file_index>
1107

> <i_lp_mmshare_version>
43012

> <i_f3d_flags>
0

> <s_epik_input>
W0NIM11jMW5jKFtDSDNdKWMoYyg9TylbbkhdMSlbQ0gyXUMoPU8pW05IXVtDQEhdKFtDSDNdKVtDSDJdTjJbQ0gyXVtDSDJdW0NIMl1bQ0gyXVtDSDJdMg==

> <s_epik_cmdline>
J2VwaWtfcHl0aG9uJywgJy1waCcsICc3LjAnLCAnLXRuJywgJzgnLCAnLW1hJywgJzIwMCcsICctbWV0YWxfYmluZGluZycsICctaW1hZScsICc8aW5maWxlLm1hZT4nLCAnLW9tYWUnLCAnPG91dGZpbGUubWFlPic=

> <r_lp_tautomer_probability>
0.839158

> <r_epik_Ionization_Penalty>
6.34615

> <r_epik_Ionization_Penalty_Charging>
0.00266072

> <r_epik_Ionization_Penalty_Neutral>
6.34348

> <r_epik_State_Penalty>
4.30851

> <r_epik_Charging_Adjusted_Penalty>
4.31117

> <i_epik_Tot_Q>
0

> <i_epik_Tot_abs_Q>
2

> <r_epik_Metal_State_Penalty>
0.75957

> <b_epik_Metal_Only>
1

> <s_lp_Force_Field>
OPLS_2005

> <r_lp_Energy>
18.3813

> <b_lp_Chiralities_Consistent>
1

> <s_lp_Variant>
AV-unprocessed.smi:1107-5

> <Gold.Version>
5.8.1

> <Gold.Id.Protein>
6NUR|6NUR_protein|mol2

> <Gold.PLP.Fitness>
54.1645

> <Gold.PLP.PLP>
-38.7453

> <Gold.PLP.part.hbond>
-4.7623

> <Gold.PLP.part.metal>
0.0000

> <Gold.PLP.part.buried>
-4.0246

> <Gold.PLP.part.nonpolar>
-30.7706

> <Gold.PLP.part.repulsive>
0.1477

> <Gold.PLP.ligand.clash>
0.0000

> <Gold.PLP.ligand.torsion>
0.8352

> <Gold.PLP.Chemscore.Hbond>
5.6720

> <Gold.PLP.Chemscore.CHOScore>
0.0000

> <Gold.PLP.Chemscore.Metal>
0.0000

> <Gold.Chemscore.Hbonds>
donor molecule, donor type, donor heavy atom, donor atom, acceptor molecule, acceptor atom, score
      L1  H    10    31       P1  7948  0.70
      L1  H    14    48       P1  7948  2.00
      P1  H  7997  8010       L1    22  1.36
      P1  H 10752 10765       L1     9  1.00

> <Gold.PLP.Chemscore.Internal.Correction>
0.0736

> <Gold.Rescore>
     Score         DG    S(hbond)    S(metal)    S(lipo)     H(rot)  DE(clash)    DE(int)     intcor
     18.08     -19.57       3.29        0.00      68.46       1.92       0.01       1.48       ----

> <Gold.Chemscore.Fitness>
18.0817

> <Gold.Chemscore.DG>
-19.5692

> <Gold.Chemscore.ZeroCoef>
-5.4800

> <Gold.Chemscore.Hbond>
3.2945

> <Gold.Chemscore.Metal>
0.0000

> <Gold.Chemscore.Lipo>
68.4557

> <Gold.Chemscore.Internal_Hbond>
0.0000

> <Gold.Chemscore.DEClash>
0.0053

> <Gold.Chemscore.DEInternal>
1.4823

> <Gold.Chemscore.Rot>
1.9233

> <Gold.Chemscore.Internal.Correction>
   9.000000E+99

> <Gold.Chemscore.Hbonds>
donor molecule, donor type, donor heavy atom, donor atom, acceptor molecule, acceptor atom, score
      L1  H    10    31       P1  7948  0.67
      L1  H    14    48       P1  7948  0.99
      P1  H  7997  8010       L1    22  0.11
      P1  H 10752 10765       L1     9  0.30

> <Gold.Chemscore.Hbond.Weighted>
-11.0037

> <Gold.Chemscore.Metal.Weighted>
-0.0000

> <Gold.Chemscore.Lipo.Weighted>
-8.0093

> <Gold.Chemscore.Internal_Hbond.Weighted>
0.0000

> <Gold.Chemscore.DEClash.Weighted>
0.0053

> <Gold.Chemscore.DEInternal.Weighted>
1.4823

> <Gold.Chemscore.Rot.Weighted>
4.9237

> <Gold.Chemscore.Internal.Correction.Weighted>
   9.000000E+99

> <Gold.Protein.RotatedTorsions>
[ 6907 6896 6895 6894 ] final  -89.20 input  -60.11 | X-H torsion
[ 7974 7965 7964 7962 ] final   66.73 input  175.53 | X-H torsion
[ 8008 7997 7996 7995 ] final   44.31 input   59.86 | X-H torsion
[ 10167 10162 10161 10158 ] final  -50.00 input  -65.29 | X-H torsion
[ 10718 10713 10712 10709 ] final   95.93 input   66.30 | X-H torsion
[ 10763 10752 10751 10750 ] final -156.71 input  -60.55 | X-H torsion
[ 11005 11000 10999 10996 ] final   -4.11 input  -57.11 | X-H torsion

> <Gold.Protein.ActiveResidues>
 VAL166  LYS551  ARG553  GLY616  TRP617  ASP618  TYR619  PRO620  LYS621  CYS622 
 ASP623  PHE694  ASN695  SER759  ASP760  ASP761  ALA762  ILE779  LEU786  VAL792 
 PHE793  MET794  SER795  GLU796  ALA797  LYS798  CYS799  TRP800  GLU811  SER814 

> <Gold.Protein.RotatedAtoms>
  150.6872  134.2624  159.4554 H   0  0  0  0  0  0  0  0  0  0  0  0  # atno 6907 bound_to 6896
  152.0553  134.9625  160.0584 H   0  0  0  0  0  0  0  0  0  0  0  0  # atno 6908 bound_to 6896
  152.1074  133.4247  159.4652 H   0  0  0  0  0  0  0  0  0  0  0  0  # atno 6909 bound_to 6896
  145.8231  139.3096  143.1031 H   0  0  0  0  0  0  0  0  0  0  0  0  # atno 7974 bound_to 7965
  155.3173  140.3394  155.4242 H   0  0  0  0  0  0  0  0  0  0  0  0  # atno 8008 bound_to 7997
  156.1926  140.1703  156.8099 H   0  0  0  0  0  0  0  0  0  0  0  0  # atno 8009 bound_to 7997
  154.5461  140.0715  156.8574 H   0  0  0  0  0  0  0  0  0  0  0  0  # atno 8010 bound_to 7997
  140.6659  143.2675  151.4296 H   0  0  0  0  0  0  0  0  0  0  0  0  # atno 10167 bound_to 10162
  157.6933  131.0562  150.4414 H   0  0  0  0  0  0  0  0  0  0  0  0  # atno 10718 bound_to 10713
  154.7692  135.3140  154.8224 H   0  0  0  0  0  0  0  0  0  0  0  0  # atno 10763 bound_to 10752
  153.8964  135.6820  153.4762 H   0  0  0  0  0  0  0  0  0  0  0  0  # atno 10764 bound_to 10752
  153.1303  135.4783  154.9272 H   0  0  0  0  0  0  0  0  0  0  0  0  # atno 10765 bound_to 10752
  140.6767  133.9189  155.8529 H   0  0  0  0  0  0  0  0  0  0  0  0  # atno 11005 bound_to 11000
  145.9653  140.8803  143.0190 LP  0  0  0  0  0  0  0  0  0  0  0  0  # atno 17320 bound_to 7965
  144.6746  140.1870  143.7400 LP  0  0  0  0  0  0  0  0  0  0  0  0  # atno 17321 bound_to 7965
  139.5907  144.1505  152.2085 LP  0  0  0  0  0  0  0  0  0  0  0  0  # atno 17342 bound_to 10162
  140.0859  144.5662  150.7089 LP  0  0  0  0  0  0  0  0  0  0  0  0  # atno 17343 bound_to 10162
  156.4772  130.4066  149.6483 LP  0  0  0  0  0  0  0  0  0  0  0  0  # atno 17370 bound_to 10713
  156.3541  130.7447  151.2411 LP  0  0  0  0  0  0  0  0  0  0  0  0  # atno 17371 bound_to 10713
  141.0349  134.0703  157.3970 LP  0  0  0  0  0  0  0  0  0  0  0  0  # atno 17394 bound_to 11000
  139.8964  135.0146  156.7051 LP  0  0  0  0  0  0  0  0  0  0  0  0  # atno 17395 bound_to 11000

$$$$
