AV-unprocessed.smi:1971|AV-procd|sdf|7969|dock7
  -GOLD-   2272010143D 1   1.00000     0.00000
 Structure written by MMmdl.
 43 44  0  0  0  0  0  0  0  0  3 V2000
  148.1989  136.2160  156.7549 C   0  0  0  0  0  0  0  0  0  0  0  0
  148.5382  135.8835  155.2948 C   0  0  0  0  0  0  0  0  0  0  0  0
  149.2315  136.9981  154.6029 N   0  3  0  0  0  0  0  0  0  0  0  0
  150.5289  137.3378  155.2381 C   0  0  0  0  0  0  0  0  0  0  0  0
  151.2307  138.4874  154.4791 C   0  0  0  0  0  0  0  0  0  0  0  0
  150.3979  139.6980  154.4120 N   0  0  0  0  0  0  0  0  0  0  0  0
  150.1905  140.3733  155.7130 C   0  0  1  0  0  0  0  0  0  0  0  0
  151.5035  141.0473  156.1774 C   0  0  0  0  0  0  0  0  0  0  0  0
  149.0412  141.4175  155.6564 C   0  0  0  0  0  0  0  0  0  0  0  0
  149.1605  142.4352  156.6964 N   0  0  0  0  0  0  0  0  0  0  0  0
  148.7622  142.2999  157.9699 C   0  0  0  0  0  0  0  0  0  0  0  0
  148.2299  141.2498  158.3395 O   0  0  0  0  0  0  0  0  0  0  0  0
  149.0086  143.3862  158.7355 N   0  5  0  0  0  0  0  0  0  0  0  0
  150.2302  143.9441  158.7387 C   0  0  0  0  0  0  0  0  0  0  0  0
  151.2188  143.5396  157.9330 N   0  0  0  0  0  0  0  0  0  0  0  0
  152.4004  144.2648  158.0968 C   0  0  0  0  0  0  0  0  0  0  0  0
  152.3073  145.2489  159.0449 C   0  0  0  0  0  0  0  0  0  0  0  0
  150.7229  145.2948  159.7639 S   0  0  0  0  0  0  0  0  0  0  0  0
  149.1784  139.3071  153.6912 C   0  0  0  0  0  0  0  0  0  0  0  0
  148.3946  138.2145  154.4471 C   0  0  0  0  0  0  0  0  0  0  0  0
  147.6039  135.4190  157.2014 H   0  0  0  0  0  0  0  0  0  0  0  0
  147.6205  137.1377  156.8255 H   0  0  0  0  0  0  0  0  0  0  0  0
  149.0935  136.3304  157.3666 H   0  0  0  0  0  0  0  0  0  0  0  0
  149.1390  134.9747  155.2365 H   0  0  0  0  0  0  0  0  0  0  0  0
  147.6035  135.6703  154.7741 H   0  0  0  0  0  0  0  0  0  0  0  0
  150.3812  137.5863  156.2894 H   0  0  0  0  0  0  0  0  0  0  0  0
  151.1737  136.4586  155.2200 H   0  0  0  0  0  0  0  0  0  0  0  0
  152.2026  138.6970  154.9213 H   0  0  0  0  0  0  0  0  0  0  0  0
  151.4511  138.1623  153.4612 H   0  0  0  0  0  0  0  0  0  0  0  0
  149.9166  139.6316  156.4610 H   0  0  0  0  0  0  0  0  0  0  0  0
  151.3614  141.6228  157.0919 H   0  0  0  0  0  0  0  0  0  0  0  0
  151.8872  141.7316  155.4199 H   0  0  0  0  0  0  0  0  0  0  0  0
  152.2839  140.3246  156.4091 H   0  0  0  0  0  0  0  0  0  0  0  0
  149.0299  141.9153  154.6864 H   0  0  0  0  0  0  0  0  0  0  0  0
  148.0607  140.9607  155.7839 H   0  0  0  0  0  0  0  0  0  0  0  0
  149.5887  143.3110  156.4338 H   0  0  0  0  0  0  0  0  0  0  0  0
  153.2602  144.0129  157.4943 H   0  0  0  0  0  0  0  0  0  0  0  0
  153.0679  145.9463  159.3616 H   0  0  0  0  0  0  0  0  0  0  0  0
  148.5458  140.1670  153.4800 H   0  0  0  0  0  0  0  0  0  0  0  0
  149.4613  138.9292  152.7077 H   0  0  0  0  0  0  0  0  0  0  0  0
  147.4982  137.9752  153.8767 H   0  0  0  0  0  0  0  0  0  0  0  0
  148.0562  138.5719  155.4207 H   0  0  0  0  0  0  0  0  0  0  0  0
  149.4511  136.6736  153.6721 H   0  0  0  0  0  0  0  0  0  0  0  0
  1  2  1  0  0  0  0
  1 21  1  0  0  0  0
  1 22  1  0  0  0  0
  1 23  1  0  0  0  0
  2  3  1  0  0  0  0
  2 24  1  0  0  0  0
  2 25  1  0  0  0  0
  3 20  1  0  0  0  0
  3  4  1  0  0  0  0
  3 43  1  0  0  0  0
  4  5  1  0  0  0  0
  4 26  1  0  0  0  0
  4 27  1  0  0  0  0
  5  6  1  0  0  0  0
  5 28  1  0  0  0  0
  5 29  1  0  0  0  0
  6  7  1  0  0  0  0
  6 19  1  0  0  0  0
  7  8  1  0  0  0  0
  7  9  1  0  0  0  0
  7 30  1  0  0  0  0
  8 31  1  0  0  0  0
  8 32  1  0  0  0  0
  8 33  1  0  0  0  0
  9 10  1  0  0  0  0
  9 34  1  0  0  0  0
  9 35  1  0  0  0  0
 10 11  1  0  0  0  0
 10 36  1  0  0  0  0
 11 12  2  0  0  0  0
 11 13  1  0  0  0  0
 13 14  1  0  0  0  0
 14 18  1  0  0  0  0
 14 15  2  0  0  0  0
 15 16  1  0  0  0  0
 16 17  2  0  0  0  0
 16 37  1  0  0  0  0
 17 18  1  0  0  0  0
 17 38  1  0  0  0  0
 19 20  1  0  0  0  0
 19 39  1  0  0  0  0
 19 40  1  0  0  0  0
 20 41  1  0  0  0  0
 20 42  1  0  0  0  0
M  CHG  1   3   1
M  CHG  1  13  -1
M  END
> <s_m_source_file>
AV-unprocessed.smi

> <i_m_source_file_index>
1971

> <i_lp_mmshare_version>
43012

> <i_f3d_flags>
0

> <s_epik_input>
W0NIM11bQ0gyXU4xW0NIMl1bQ0gyXU4oW0NIMl1bQ0gyXTEpW0NASF0oW0NIM10pW0NIMl1bTkhdQyg9TylbTkhdYzJuW2NIXVtjSF1zMg==

> <s_epik_cmdline>
J2VwaWtfcHl0aG9uJywgJy1waCcsICc3LjAnLCAnLXRuJywgJzgnLCAnLW1hJywgJzIwMCcsICctbWV0YWxfYmluZGluZycsICctaW1hZScsICc8aW5maWxlLm1hZT4nLCAnLW9tYWUnLCAnPG91dGZpbGUubWFlPic=

> <r_lp_tautomer_probability>
0.999

> <r_epik_Ionization_Penalty>
7.06996

> <r_epik_Ionization_Penalty_Charging>
5.92347

> <r_epik_Ionization_Penalty_Neutral>
1.14649

> <r_epik_State_Penalty>
6.04391

> <r_epik_Charging_Adjusted_Penalty>
11.9674

> <i_epik_Tot_Q>
0

> <i_epik_Tot_abs_Q>
2

> <r_epik_Metal_State_Penalty>
2.01291

> <b_epik_Metal_Only>
1

> <s_lp_Force_Field>
OPLS_2005

> <r_lp_Energy>
11.7698

> <b_lp_Chiralities_Consistent>
1

> <s_lp_Variant>
AV-unprocessed.smi:1971-8

> <Gold.Version>
5.8.1

> <Gold.Id.Protein>
6NUR|6NUR_protein|mol2

> <Gold.PLP.Fitness>
41.1885

> <Gold.PLP.PLP>
-32.6018

> <Gold.PLP.part.hbond>
-4.0000

> <Gold.PLP.part.metal>
0.0000

> <Gold.PLP.part.buried>
-3.1888

> <Gold.PLP.part.nonpolar>
-26.2854

> <Gold.PLP.part.repulsive>
0.4570

> <Gold.PLP.ligand.clash>
0.0000

> <Gold.PLP.ligand.torsion>
1.0833

> <Gold.PLP.Chemscore.Hbond>
3.5520

> <Gold.PLP.Chemscore.CHOScore>
0.0000

> <Gold.PLP.Chemscore.Metal>
0.0000

> <Gold.Chemscore.Hbonds>
donor molecule, donor type, donor heavy atom, donor atom, acceptor molecule, acceptor atom, score
      L1  H     3    43       P1  7948  2.00
      L1  H    10    36       P1  8028  0.61
      P1  H  7989  7998       L1     6  0.95

> <Gold.PLP.Chemscore.Internal.Correction>
0.0973

> <Gold.Rescore>
     Score         DG    S(hbond)    S(metal)    S(lipo)     H(rot)  DE(clash)    DE(int)     intcor
     12.08     -17.16       1.90        0.00      83.90       1.75       1.41       3.68       ----

> <Gold.Chemscore.Fitness>
12.0771

> <Gold.Chemscore.DG>
-17.1628

> <Gold.Chemscore.ZeroCoef>
-5.4800

> <Gold.Chemscore.Hbond>
1.9004

> <Gold.Chemscore.Metal>
0.0000

> <Gold.Chemscore.Lipo>
83.9049

> <Gold.Chemscore.Internal_Hbond>
0.0000

> <Gold.Chemscore.DEClash>
1.4056

> <Gold.Chemscore.DEInternal>
3.6802

> <Gold.Chemscore.Rot>
1.7505

> <Gold.Chemscore.Internal.Correction>
   9.000000E+99

> <Gold.Chemscore.Hbonds>
donor molecule, donor type, donor heavy atom, donor atom, acceptor molecule, acceptor atom, score
      L1  H     3    43       P1  7948  0.83
      L1  H    10    36       P1  8028  0.60
      P1  H  7989  7998       L1     6  0.09

> <Gold.Chemscore.Hbond.Weighted>
-6.3473

> <Gold.Chemscore.Metal.Weighted>
-0.0000

> <Gold.Chemscore.Lipo.Weighted>
-9.8169

> <Gold.Chemscore.Internal_Hbond.Weighted>
0.0000

> <Gold.Chemscore.DEClash.Weighted>
1.4056

> <Gold.Chemscore.DEInternal.Weighted>
3.6802

> <Gold.Chemscore.Rot.Weighted>
4.4813

> <Gold.Chemscore.Internal.Correction.Weighted>
   9.000000E+99

> <Gold.Protein.RotatedTorsions>
[ 6907 6896 6895 6894 ] final -133.18 input  -60.11 | X-H torsion
[ 7974 7965 7964 7962 ] final -144.18 input  175.53 | X-H torsion
[ 8008 7997 7996 7995 ] final   51.02 input   59.86 | X-H torsion
[ 10167 10162 10161 10158 ] final   -0.18 input  -65.29 | X-H torsion
[ 10718 10713 10712 10709 ] final  -37.75 input   66.30 | X-H torsion
[ 10763 10752 10751 10750 ] final -112.77 input  -60.55 | X-H torsion
[ 11005 11000 10999 10996 ] final    3.29 input  -57.11 | X-H torsion

> <Gold.Protein.ActiveResidues>
 VAL166  LYS551  ARG553  GLY616  TRP617  ASP618  TYR619  PRO620  LYS621  CYS622 
 ASP623  PHE694  ASN695  SER759  ASP760  ASP761  ALA762  ILE779  LEU786  VAL792 
 PHE793  MET794  SER795  GLU796  ALA797  LYS798  CYS799  TRP800  GLU811  SER814 

> <Gold.Protein.RotatedAtoms>
  150.9711  133.6343  159.2737 H   0  0  0  0  0  0  0  0  0  0  0  0  # atno 6907 bound_to 6896
  151.3632  135.0907  159.9451 H   0  0  0  0  0  0  0  0  0  0  0  0  # atno 6908 bound_to 6896
  152.5183  133.9280  159.7621 H   0  0  0  0  0  0  0  0  0  0  0  0  # atno 6909 bound_to 6896
  144.8316  140.5742  143.5511 H   0  0  0  0  0  0  0  0  0  0  0  0  # atno 7974 bound_to 7965
  155.4283  140.3449  155.4277 H   0  0  0  0  0  0  0  0  0  0  0  0  # atno 8008 bound_to 7997
  156.1351  140.1525  156.9037 H   0  0  0  0  0  0  0  0  0  0  0  0  # atno 8009 bound_to 7997
  154.4926  140.0837  156.7607 H   0  0  0  0  0  0  0  0  0  0  0  0  # atno 8010 bound_to 7997
  140.6756  143.6926  150.8016 H   0  0  0  0  0  0  0  0  0  0  0  0  # atno 10167 bound_to 10162
  156.3117  130.4253  149.8044 H   0  0  0  0  0  0  0  0  0  0  0  0  # atno 10718 bound_to 10713
  154.8365  135.4479  154.1245 H   0  0  0  0  0  0  0  0  0  0  0  0  # atno 10763 bound_to 10752
  153.2472  135.6923  153.7725 H   0  0  0  0  0  0  0  0  0  0  0  0  # atno 10764 bound_to 10752
  153.7050  135.3365  155.3209 H   0  0  0  0  0  0  0  0  0  0  0  0  # atno 10765 bound_to 10752
  140.5948  133.9890  155.8105 H   0  0  0  0  0  0  0  0  0  0  0  0  # atno 11005 bound_to 11000
  145.4884  139.1490  143.3723 LP  0  0  0  0  0  0  0  0  0  0  0  0  # atno 17320 bound_to 7965
  146.2618  140.5021  142.8850 LP  0  0  0  0  0  0  0  0  0  0  0  0  # atno 17321 bound_to 7965
  140.0618  143.5147  152.2624 LP  0  0  0  0  0  0  0  0  0  0  0  0  # atno 17342 bound_to 10162
  139.6046  144.7592  151.3091 LP  0  0  0  0  0  0  0  0  0  0  0  0  # atno 17343 bound_to 10162
  156.5385  130.8289  151.3261 LP  0  0  0  0  0  0  0  0  0  0  0  0  # atno 17370 bound_to 10713
  157.7392  130.9828  150.2301 LP  0  0  0  0  0  0  0  0  0  0  0  0  # atno 17371 bound_to 10713
  141.0911  133.9915  157.3235 LP  0  0  0  0  0  0  0  0  0  0  0  0  # atno 17394 bound_to 11000
  139.9258  135.0201  156.8229 LP  0  0  0  0  0  0  0  0  0  0  0  0  # atno 17395 bound_to 11000

$$$$
