AV-unprocessed.smi:194|AV-procd|sdf|1523|dock9
  -GOLD-   2262019363D 1   1.00000     0.00000
 Structure written by MMmdl.
 53 55  0  0  0  0  0  0  0  0  1 V2000
  152.8081  141.1682  160.9943 C   0  0  0  0  0  0  0  0  0  0  0  0
  152.1671  141.1269  159.5869 C   0  0  1  0  0  0  0  0  0  0  0  0
  152.4893  142.4244  158.8071 C   0  0  0  0  0  0  0  0  0  0  0  0
  151.5603  143.8665  159.5261 S   0  0  2  0  0  0  0  0  0  0  0  0
  152.3833  145.1758  158.5041 C   0  0  0  0  0  0  0  0  0  0  0  0
  152.0551  144.0588  160.9608 O   0  0  0  0  0  0  0  0  0  0  0  0
  152.5077  139.9132  158.8265 N   0  0  0  0  0  0  0  0  0  0  0  0
  153.8806  139.4254  158.9204 C   0  0  0  0  0  0  0  0  0  0  0  0
  152.0938  139.8891  157.5398 C   0  0  0  0  0  0  0  0  0  0  0  0
  152.8468  139.1888  156.6567 N   0  0  0  0  0  0  0  0  0  0  0  0
  152.4813  139.1257  155.3728 C   0  0  0  0  0  0  0  0  0  0  0  0
  151.4243  139.6823  154.7768 N   0  0  0  0  0  0  0  0  0  0  0  0
  150.6734  140.3997  155.6615 C   0  0  0  0  0  0  0  0  0  0  0  0
  150.9328  140.5526  157.0523 C   0  0  0  0  0  0  0  0  0  0  0  0
  149.9493  141.3411  157.6358 N   0  0  0  0  0  0  0  0  0  0  0  0
  149.1477  141.6294  156.6475 C   0  0  0  0  0  0  0  0  0  0  0  0
  149.5159  141.1213  155.4214 N   0  0  0  0  0  0  0  0  0  0  0  0
  148.8005  141.2816  154.1635 C   0  0  0  0  0  0  0  0  0  0  0  0
  147.3402  140.7358  154.1353 C   0  0  0  0  0  0  0  0  0  0  0  0
  146.7484  140.8039  152.6955 C   0  0  0  0  0  0  0  0  0  0  0  0
  147.2490  139.8094  151.8250 O   0  0  0  0  0  0  0  0  0  0  0  0
  147.2662  139.3026  154.7215 C   0  0  0  0  0  0  0  0  0  0  0  0
  145.8233  138.8534  155.0073 C   0  0  0  0  0  0  0  0  0  0  0  0
  145.2099  139.7613  155.9129 O   0  0  0  0  0  0  0  0  0  0  0  0
  145.1043  141.0783  155.3883 C   0  0  0  0  0  0  0  0  0  0  0  0
  146.5037  141.6430  155.0739 C   0  0  0  0  0  0  0  0  0  0  0  0
  152.5914  142.1125  161.4942 H   0  0  0  0  0  0  0  0  0  0  0  0
  153.8917  141.0576  160.9492 H   0  0  0  0  0  0  0  0  0  0  0  0
  152.4249  140.3783  161.6404 H   0  0  0  0  0  0  0  0  0  0  0  0
  151.0862  141.1187  159.7286 H   0  0  0  0  0  0  0  0  0  0  0  0
  153.5572  142.6413  158.8087 H   0  0  0  0  0  0  0  0  0  0  0  0
  152.2001  142.3076  157.7623 H   0  0  0  0  0  0  0  0  0  0  0  0
  152.2226  144.9886  157.4424 H   0  0  0  0  0  0  0  0  0  0  0  0
  153.4560  145.1914  158.6975 H   0  0  0  0  0  0  0  0  0  0  0  0
  151.9730  146.1554  158.7485 H   0  0  0  0  0  0  0  0  0  0  0  0
  154.0895  138.6561  158.1749 H   0  0  0  0  0  0  0  0  0  0  0  0
  154.0634  138.9821  159.8988 H   0  0  0  0  0  0  0  0  0  0  0  0
  154.5910  140.2401  158.7760 H   0  0  0  0  0  0  0  0  0  0  0  0
  153.1282  138.5458  154.7312 H   0  0  0  0  0  0  0  0  0  0  0  0
  148.2640  142.2356  156.7836 H   0  0  0  0  0  0  0  0  0  0  0  0
  148.8065  142.3459  153.9240 H   0  0  0  0  0  0  0  0  0  0  0  0
  149.3901  140.8028  153.3805 H   0  0  0  0  0  0  0  0  0  0  0  0
  145.6665  140.6859  152.7023 H   0  0  0  0  0  0  0  0  0  0  0  0
  146.9417  141.7816  152.2531 H   0  0  0  0  0  0  0  0  0  0  0  0
  148.1932  139.8274  151.8588 H   0  0  0  0  0  0  0  0  0  0  0  0
  147.7521  138.5803  154.0655 H   0  0  0  0  0  0  0  0  0  0  0  0
  147.8187  139.2706  155.6611 H   0  0  0  0  0  0  0  0  0  0  0  0
  145.2383  138.7761  154.0902 H   0  0  0  0  0  0  0  0  0  0  0  0
  145.8273  137.8620  155.4603 H   0  0  0  0  0  0  0  0  0  0  0  0
  144.4572  141.0821  154.5113 H   0  0  0  0  0  0  0  0  0  0  0  0
  144.6137  141.7065  156.1320 H   0  0  0  0  0  0  0  0  0  0  0  0
  147.0280  141.7671  156.0225 H   0  0  0  0  0  0  0  0  0  0  0  0
  146.4110  142.6439  154.6508 H   0  0  0  0  0  0  0  0  0  0  0  0
  1  2  1  0  0  0  0
  1 27  1  0  0  0  0
  1 28  1  0  0  0  0
  1 29  1  0  0  0  0
  2  3  1  0  0  0  0
  2  7  1  0  0  0  0
  2 30  1  0  0  0  0
  3  4  1  0  0  0  0
  3 31  1  0  0  0  0
  3 32  1  0  0  0  0
  4  5  1  0  0  0  0
  4  6  2  0  0  0  0
  5 33  1  0  0  0  0
  5 34  1  0  0  0  0
  5 35  1  0  0  0  0
  7  8  1  0  0  0  0
  7  9  1  0  0  0  0
  8 36  1  0  0  0  0
  8 37  1  0  0  0  0
  8 38  1  0  0  0  0
  9 14  1  0  0  0  0
  9 10  2  0  0  0  0
 10 11  1  0  0  0  0
 11 12  2  0  0  0  0
 11 39  1  0  0  0  0
 12 13  1  0  0  0  0
 13 17  1  0  0  0  0
 13 14  2  0  0  0  0
 14 15  1  0  0  0  0
 15 16  2  0  0  0  0
 16 17  1  0  0  0  0
 16 40  1  0  0  0  0
 17 18  1  0  0  0  0
 18 19  1  0  0  0  0
 18 41  1  0  0  0  0
 18 42  1  0  0  0  0
 19 26  1  0  0  0  0
 19 20  1  0  0  0  0
 19 22  1  0  0  0  0
 20 21  1  0  0  0  0
 20 43  1  0  0  0  0
 20 44  1  0  0  0  0
 21 45  1  0  0  0  0
 22 23  1  0  0  0  0
 22 46  1  0  0  0  0
 22 47  1  0  0  0  0
 23 24  1  0  0  0  0
 23 48  1  0  0  0  0
 23 49  1  0  0  0  0
 24 25  1  0  0  0  0
 25 26  1  0  0  0  0
 25 50  1  0  0  0  0
 25 51  1  0  0  0  0
 26 52  1  0  0  0  0
 26 53  1  0  0  0  0
M  END
> <s_m_source_file>
AV-unprocessed.smi

> <i_m_source_file_index>
194

> <i_lp_mmshare_version>
43012

> <i_f3d_flags>
0

> <s_epik_input>
W0NIM11bU0BAXSg9TylbQ0gyXVtDQEBIXShbQ0gzXSlOKFtDSDNdKWMobltjSF1uMSljKGMxMiluW2NIXW4yW0NIMl1DMyhbQ0gyXVtPSF0pW0NIMl1bQ0gyXU9bQ0gyXVtDSDJdMw==

> <s_epik_cmdline>
J2VwaWtfcHl0aG9uJywgJy1waCcsICc3LjAnLCAnLXRuJywgJzgnLCAnLW1hJywgJzIwMCcsICctbWV0YWxfYmluZGluZycsICctaW1hZScsICc8aW5maWxlLm1hZT4nLCAnLW9tYWUnLCAnPG91dGZpbGUubWFlPic=

> <r_lp_tautomer_probability>
1

> <r_epik_Ionization_Penalty>
0.00101625

> <r_epik_Ionization_Penalty_Charging>
0

> <r_epik_Ionization_Penalty_Neutral>
0.00101625

> <r_epik_State_Penalty>
0.000568005

> <r_epik_Charging_Adjusted_Penalty>
0.000568005

> <i_epik_Tot_Q>
0

> <i_epik_Tot_abs_Q>
0

> <r_epik_Metal_State_Penalty>
-0

> <b_epik_Metal_Only>
0

> <s_lp_Force_Field>
OPLS_2005

> <r_lp_Energy>
31.3732

> <b_lp_Chiralities_Consistent>
1

> <s_lp_Variant>
AV-unprocessed.smi:194-4

> <Gold.Version>
5.8.1

> <Gold.Id.Protein>
6NUR|6NUR_protein|mol2

> <Gold.PLP.Fitness>
47.6536

> <Gold.PLP.PLP>
-39.4444

> <Gold.PLP.part.hbond>
-2.7918

> <Gold.PLP.part.metal>
0.0000

> <Gold.PLP.part.buried>
-3.5364

> <Gold.PLP.part.nonpolar>
-32.9448

> <Gold.PLP.part.repulsive>
0.2779

> <Gold.PLP.ligand.clash>
0.0095

> <Gold.PLP.ligand.torsion>
1.1690

> <Gold.PLP.Chemscore.Hbond>
2.9920

> <Gold.PLP.Chemscore.CHOScore>
0.2986

> <Gold.PLP.Chemscore.Metal>
0.0000

> <Gold.Chemscore.Hbonds>
donor molecule, donor type, donor heavy atom, donor atom, acceptor molecule, acceptor atom, score
      L1  H    21    45       P1  7957  0.98
      P1  H  7989  7998       L1    12  1.00
      P1  H  7997  8008       L1    10  0.95
      L1  C    16    40       P1  8028  0.19

> <Gold.PLP.Chemscore.Internal.Correction>
0.6849

> <Gold.Rescore>
     Score         DG    S(hbond)    S(metal)    S(lipo)     H(rot)  DE(clash)    DE(int)     intcor
      6.86     -13.60       2.13        0.00      81.13       3.31       2.60       4.14       ----

> <Gold.Chemscore.Fitness>
6.8576

> <Gold.Chemscore.DG>
-13.6025

> <Gold.Chemscore.ZeroCoef>
-5.4800

> <Gold.Chemscore.Hbond>
2.1268

> <Gold.Chemscore.Metal>
0.0000

> <Gold.Chemscore.Lipo>
81.1282

> <Gold.Chemscore.Internal_Hbond>
0.0000

> <Gold.Chemscore.DEClash>
2.6042

> <Gold.Chemscore.DEInternal>
4.1406

> <Gold.Chemscore.Rot>
3.3098

> <Gold.Chemscore.Internal.Correction>
   9.000000E+99

> <Gold.Chemscore.Hbonds>
donor molecule, donor type, donor heavy atom, donor atom, acceptor molecule, acceptor atom, score
      L1  H    21    45       P1  7957  0.90
      P1  H  7989  7998       L1    12  0.29
      P1  H  7997  8008       L1    10  0.12

> <Gold.Chemscore.Hbond.Weighted>
-7.1034

> <Gold.Chemscore.Metal.Weighted>
-0.0000

> <Gold.Chemscore.Lipo.Weighted>
-9.4920

> <Gold.Chemscore.Internal_Hbond.Weighted>
0.0000

> <Gold.Chemscore.DEClash.Weighted>
2.6042

> <Gold.Chemscore.DEInternal.Weighted>
4.1406

> <Gold.Chemscore.Rot.Weighted>
8.4730

> <Gold.Chemscore.Internal.Correction.Weighted>
   9.000000E+99

> <Gold.Protein.RotatedTorsions>
[ 6907 6896 6895 6894 ] final  -33.63 input  -60.11 | X-H torsion
[ 7974 7965 7964 7962 ] final -116.61 input  175.53 | X-H torsion
[ 8008 7997 7996 7995 ] final  -49.52 input   59.86 | X-H torsion
[ 10167 10162 10161 10158 ] final  -30.52 input  -65.29 | X-H torsion
[ 10718 10713 10712 10709 ] final -120.43 input   66.30 | X-H torsion
[ 10763 10752 10751 10750 ] final -175.00 input  -60.55 | X-H torsion
[ 11005 11000 10999 10996 ] final  -61.26 input  -57.11 | X-H torsion

> <Gold.Protein.ActiveResidues>
 VAL166  LYS551  ARG553  GLY616  TRP617  ASP618  TYR619  PRO620  LYS621  CYS622 
 ASP623  PHE694  ASN695  SER759  ASP760  ASP761  ALA762  ILE779  LEU786  VAL792 
 PHE793  MET794  SER795  GLU796  ALA797  LYS798  CYS799  TRP800  GLU811  SER814 

> <Gold.Protein.RotatedAtoms>
  151.0631  134.9749  159.8270 H   0  0  0  0  0  0  0  0  0  0  0  0  # atno 6907 bound_to 6896
  152.5398  134.2393  159.8865 H   0  0  0  0  0  0  0  0  0  0  0  0  # atno 6908 bound_to 6896
  151.2414  133.4354  159.2641 H   0  0  0  0  0  0  0  0  0  0  0  0  # atno 6909 bound_to 6896
  145.0947  140.8513  143.3961 H   0  0  0  0  0  0  0  0  0  0  0  0  # atno 7974 bound_to 7965
  154.4045  140.1295  156.4515 H   0  0  0  0  0  0  0  0  0  0  0  0  # atno 8008 bound_to 7997
  155.7361  140.3490  155.5062 H   0  0  0  0  0  0  0  0  0  0  0  0  # atno 8009 bound_to 7997
  155.9082  140.1031  157.1289 H   0  0  0  0  0  0  0  0  0  0  0  0  # atno 8010 bound_to 7997
  140.7248  143.3842  151.1546 H   0  0  0  0  0  0  0  0  0  0  0  0  # atno 10167 bound_to 10162
  156.1258  130.6358  150.9539 H   0  0  0  0  0  0  0  0  0  0  0  0  # atno 10718 bound_to 10713
  154.5896  135.2844  155.0649 H   0  0  0  0  0  0  0  0  0  0  0  0  # atno 10763 bound_to 10752
  154.1955  135.6433  153.5076 H   0  0  0  0  0  0  0  0  0  0  0  0  # atno 10764 bound_to 10752
  153.0116  135.5456  154.6577 H   0  0  0  0  0  0  0  0  0  0  0  0  # atno 10765 bound_to 10752
  141.1318  133.6628  156.5348 H   0  0  0  0  0  0  0  0  0  0  0  0  # atno 11005 bound_to 11000
  145.1025  139.2813  143.5679 LP  0  0  0  0  0  0  0  0  0  0  0  0  # atno 17320 bound_to 7965
  146.3531  140.0596  142.8630 LP  0  0  0  0  0  0  0  0  0  0  0  0  # atno 17321 bound_to 7965
  139.7436  143.8886  152.3057 LP  0  0  0  0  0  0  0  0  0  0  0  0  # atno 17342 bound_to 10162
  139.8716  144.7065  150.8981 LP  0  0  0  0  0  0  0  0  0  0  0  0  # atno 17343 bound_to 10162
  157.6439  131.0906  150.8194 LP  0  0  0  0  0  0  0  0  0  0  0  0  # atno 17370 bound_to 10713
  156.8284  130.5007  149.5334 LP  0  0  0  0  0  0  0  0  0  0  0  0  # atno 17371 bound_to 10713
  140.4186  134.7207  157.4877 LP  0  0  0  0  0  0  0  0  0  0  0  0  # atno 17394 bound_to 11000
  140.0376  134.6315  155.9023 LP  0  0  0  0  0  0  0  0  0  0  0  0  # atno 17395 bound_to 11000

$$$$
