AV-unprocessed.smi:72|AV-procd|sdf|685|dock1
  -GOLD-   2262016593D 1   1.00000     0.00000
 Structure written by MMmdl.
 29 30  0  0  0  0  0  0  0  0  1 V2000
  149.7900  134.9694  157.8389 N   0  0  0  0  0  0  0  0  0  0  0  0
  150.0178  136.1496  157.3856 C   0  0  0  0  0  0  0  0  0  0  0  0
  149.5751  137.3444  157.9715 N   0  0  0  0  0  0  0  0  0  0  0  0
  149.8631  138.4675  157.3889 C   0  0  0  0  0  0  0  0  0  0  0  0
  150.6071  138.5269  156.1362 N   0  0  0  0  0  0  0  0  0  0  0  0
  150.9660  139.8377  155.4533 C   0  0  2  0  0  0  0  0  0  0  0  0
  151.5580  140.7160  156.3636 O   0  0  0  0  0  0  0  0  0  0  0  0
  150.5672  141.5791  156.9077 C   0  0  1  0  0  0  0  0  0  0  0  0
  151.2322  142.8255  157.5099 C   0  0  0  0  0  0  0  0  0  0  0  0
  150.2464  143.7656  157.8799 O   0  0  0  0  0  0  0  0  0  0  0  0
  149.6982  141.8745  155.6844 C   0  0  2  0  0  0  0  0  0  0  0  0
  148.3846  142.2104  156.0841 O   0  0  0  0  0  0  0  0  0  0  0  0
  149.7065  140.5546  154.9155 C   0  0  1  0  0  0  0  0  0  0  0  0
  149.8002  140.7981  153.5271 O   0  0  0  0  0  0  0  0  0  0  0  0
  151.1098  137.3293  155.5678 C   0  0  0  0  0  0  0  0  0  0  0  0
  151.8015  137.3235  154.5494 O   0  0  0  0  0  0  0  0  0  0  0  0
  150.7792  136.1896  156.2116 N   0  0  0  0  0  0  0  0  0  0  0  0
  151.6908  139.5590  154.6860 H   0  0  0  0  0  0  0  0  0  0  0  0
  149.9792  141.0473  157.6584 H   0  0  0  0  0  0  0  0  0  0  0  0
  150.1387  142.6792  155.0930 H   0  0  0  0  0  0  0  0  0  0  0  0
  148.8143  139.9646  155.1319 H   0  0  0  0  0  0  0  0  0  0  0  0
  150.2193  134.2792  157.2392 H   0  0  0  0  0  0  0  0  0  0  0  0
  149.5651  139.4284  157.8083 H   0  0  0  0  0  0  0  0  0  0  0  0
  151.8557  142.5697  158.3671 H   0  0  0  0  0  0  0  0  0  0  0  0
  151.8763  143.3014  156.7700 H   0  0  0  0  0  0  0  0  0  0  0  0
  149.8582  144.1187  157.0940 H   0  0  0  0  0  0  0  0  0  0  0  0
  148.2395  143.1242  155.8906 H   0  0  0  0  0  0  0  0  0  0  0  0
  149.3457  140.1048  153.0726 H   0  0  0  0  0  0  0  0  0  0  0  0
  151.1093  135.3184  155.8228 H   0  0  0  0  0  0  0  0  0  0  0  0
  1  2  2  0  0  0  0
  1 22  1  0  0  0  0
  2 17  1  0  0  0  0
  2  3  1  0  0  0  0
  3  4  2  0  0  0  0
  4  5  1  0  0  0  0
  4 23  1  0  0  0  0
  5  6  1  0  0  0  0
  5 15  1  0  0  0  0
  6 18  1  0  0  0  0
  6 13  1  0  0  0  0
  6  7  1  0  0  0  0
  7  8  1  0  0  0  0
  8 19  1  0  0  0  0
  8  9  1  0  0  0  0
  8 11  1  0  0  0  0
  9 10  1  0  0  0  0
  9 24  1  0  0  0  0
  9 25  1  0  0  0  0
 10 26  1  0  0  0  0
 11 20  1  0  0  0  0
 11 12  1  0  0  0  0
 11 13  1  0  0  0  0
 12 27  1  0  0  0  0
 13 21  1  0  0  0  0
 13 14  1  0  0  0  0
 14 28  1  0  0  0  0
 15 16  2  0  0  0  0
 15 17  1  0  0  0  0
 17 29  1  0  0  0  0
M  END
> <s_m_source_file>
AV-unprocessed.smi

> <i_m_source_file_index>
72

> <i_lp_mmshare_version>
43012

> <i_f3d_flags>
0

> <s_epik_input>
W05IMl1jMW5bY0hdbihjKD1PKW4xKVtDQEBIXTJPW0NASF0oW0NIMl1bT0hdKVtDQEBIXShbT0hdKVtDQEhdMltPSF0=

> <s_epik_cmdline>
J2VwaWtfcHl0aG9uJywgJy1waCcsICc3LjAnLCAnLXRuJywgJzgnLCAnLW1hJywgJzIwMCcsICctbWV0YWxfYmluZGluZycsICctaW1hZScsICc8aW5maWxlLm1hZT4nLCAnLW9tYWUnLCAnPG91dGZpbGUubWFlPic=

> <r_lp_tautomer_probability>
7.17554e-07

> <r_epik_Ionization_Penalty>
0.0066451

> <r_epik_Ionization_Penalty_Charging>
0.00663793

> <r_epik_Ionization_Penalty_Neutral>
7.17052e-06

> <r_epik_State_Penalty>
0.419231

> <r_epik_Charging_Adjusted_Penalty>
0.425868

> <i_epik_Tot_Q>
0

> <i_epik_Tot_abs_Q>
0

> <r_epik_Metal_State_Penalty>
1.44144

> <b_epik_Metal_Only>
0

> <s_epik_Chemistry_Notes>
This compound contains an acetal/aminal-like group ( X-CH(R)-Y where X, Y are N, S, or O) that may be acid/base labile, releasing an aldehyde.

> <s_lp_Force_Field>
OPLS_2005

> <r_lp_Energy>
35.407

> <b_lp_Chiralities_Consistent>
1

> <s_lp_Variant>
AV-unprocessed.smi:72-23

> <Gold.Version>
5.8.1

> <Gold.Id.Protein>
6NUR|6NUR_protein|mol2

> <Gold.PLP.Fitness>
39.4327

> <Gold.PLP.PLP>
-23.1802

> <Gold.PLP.part.hbond>
-6.8285

> <Gold.PLP.part.metal>
0.0000

> <Gold.PLP.part.buried>
-1.0956

> <Gold.PLP.part.nonpolar>
-14.4481

> <Gold.PLP.part.repulsive>
0.2490

> <Gold.PLP.ligand.clash>
0.0000

> <Gold.PLP.ligand.torsion>
0.1143

> <Gold.PLP.Chemscore.Hbond>
5.4808

> <Gold.PLP.Chemscore.CHOScore>
0.0000

> <Gold.PLP.Chemscore.Metal>
0.0000

> <Gold.Chemscore.Hbonds>
donor molecule, donor type, donor heavy atom, donor atom, acceptor molecule, acceptor atom, score
      L1  H    10    26       P1  8028  1.00
      L1  H    12    27       P1  8028  1.00
      L1  H    14    28       P1  7957  0.32
      P1  H  6896  6907       L1     1  0.85
      P1  H  7989  7998       L1    14  0.31
      P1  H  8011  8017       L1    14  1.00
      P1  H 10752 10765       L1    16  1.00

> <Gold.PLP.Chemscore.Internal.Correction>
0.0388

> <Gold.Rescore>
     Score         DG    S(hbond)    S(metal)    S(lipo)     H(rot)  DE(clash)    DE(int)     intcor
     11.82     -12.25       4.03        0.00      31.68       4.06       0.33       0.10       ----

> <Gold.Chemscore.Fitness>
11.8196

> <Gold.Chemscore.DG>
-12.2465

> <Gold.Chemscore.ZeroCoef>
-5.4800

> <Gold.Chemscore.Hbond>
4.0280

> <Gold.Chemscore.Metal>
0.0000

> <Gold.Chemscore.Lipo>
31.6804

> <Gold.Chemscore.Internal_Hbond>
0.0000

> <Gold.Chemscore.DEClash>
0.3297

> <Gold.Chemscore.DEInternal>
0.0971

> <Gold.Chemscore.Rot>
4.0600

> <Gold.Chemscore.Internal.Correction>
   9.000000E+99

> <Gold.Chemscore.Hbonds>
donor molecule, donor type, donor heavy atom, donor atom, acceptor molecule, acceptor atom, score
      L1  H    10    26       P1  8028  0.74
      L1  H    12    27       P1  8028  0.81
      L1  H    14    28       P1  7957  0.32
      P1  H  6896  6907       L1     1  0.19
      P1  H  7989  7998       L1    14  0.05
      P1  H  8011  8017       L1    14  0.61
      P1  H 10752 10765       L1    16  0.76

> <Gold.Chemscore.Hbond.Weighted>
-13.4535

> <Gold.Chemscore.Metal.Weighted>
-0.0000

> <Gold.Chemscore.Lipo.Weighted>
-3.7066

> <Gold.Chemscore.Internal_Hbond.Weighted>
0.0000

> <Gold.Chemscore.DEClash.Weighted>
0.3297

> <Gold.Chemscore.DEInternal.Weighted>
0.0971

> <Gold.Chemscore.Rot.Weighted>
10.3936

> <Gold.Chemscore.Internal.Correction.Weighted>
   9.000000E+99

> <Gold.Protein.RotatedTorsions>
[ 6907 6896 6895 6894 ] final  -68.80 input  -60.11 | X-H torsion
[ 7974 7965 7964 7962 ] final  -26.82 input  175.53 | X-H torsion
[ 8008 7997 7996 7995 ] final   12.52 input   59.86 | X-H torsion
[ 10167 10162 10161 10158 ] final  -48.32 input  -65.29 | X-H torsion
[ 10718 10713 10712 10709 ] final -148.93 input   66.30 | X-H torsion
[ 10763 10752 10751 10750 ] final  166.36 input  -60.55 | X-H torsion
[ 11005 11000 10999 10996 ] final  -95.00 input  -57.11 | X-H torsion

> <Gold.Protein.ActiveResidues>
 VAL166  LYS551  ARG553  GLY616  TRP617  ASP618  TYR619  PRO620  LYS621  CYS622 
 ASP623  PHE694  ASN695  SER759  ASP760  ASP761  ALA762  ILE779  LEU786  VAL792 
 PHE793  MET794  SER795  GLU796  ALA797  LYS798  CYS799  TRP800  GLU811  SER814 

> <Gold.Protein.RotatedAtoms>
  150.7337  134.5687  159.5878 H   0  0  0  0  0  0  0  0  0  0  0  0  # atno 6907 bound_to 6896
  152.3132  134.7469  160.0340 H   0  0  0  0  0  0  0  0  0  0  0  0  # atno 6908 bound_to 6896
  151.8010  133.3334  159.3563 H   0  0  0  0  0  0  0  0  0  0  0  0  # atno 6909 bound_to 6896
  146.1399  140.5070  142.8656 H   0  0  0  0  0  0  0  0  0  0  0  0  # atno 7974 bound_to 7965
  154.8217  140.2885  155.5782 H   0  0  0  0  0  0  0  0  0  0  0  0  # atno 8008 bound_to 7997
  156.2998  140.2549  156.3056 H   0  0  0  0  0  0  0  0  0  0  0  0  # atno 8009 bound_to 7997
  154.9331  140.0383  157.2048 H   0  0  0  0  0  0  0  0  0  0  0  0  # atno 8010 bound_to 7997
  140.6736  143.2745  151.4054 H   0  0  0  0  0  0  0  0  0  0  0  0  # atno 10167 bound_to 10162
  156.4266  130.8055  151.2280 H   0  0  0  0  0  0  0  0  0  0  0  0  # atno 10718 bound_to 10713
  154.3378  135.2754  155.2438 H   0  0  0  0  0  0  0  0  0  0  0  0  # atno 10763 bound_to 10752
  154.4722  135.5880  153.6333 H   0  0  0  0  0  0  0  0  0  0  0  0  # atno 10764 bound_to 10752
  152.9860  135.6091  154.3576 H   0  0  0  0  0  0  0  0  0  0  0  0  # atno 10765 bound_to 10752
  141.1454  133.7995  157.0375 H   0  0  0  0  0  0  0  0  0  0  0  0  # atno 11005 bound_to 11000
  144.7781  140.5783  143.6624 LP  0  0  0  0  0  0  0  0  0  0  0  0  # atno 17320 bound_to 7965
  145.5070  139.1481  143.3626 LP  0  0  0  0  0  0  0  0  0  0  0  0  # atno 17321 bound_to 7965
  139.6017  144.1282  152.2205 LP  0  0  0  0  0  0  0  0  0  0  0  0  # atno 17342 bound_to 10162
  140.0669  144.5811  150.7221 LP  0  0  0  0  0  0  0  0  0  0  0  0  # atno 17343 bound_to 10162
  157.7508  131.0211  150.3738 LP  0  0  0  0  0  0  0  0  0  0  0  0  # atno 17370 bound_to 10713
  156.4066  130.3926  149.6921 LP  0  0  0  0  0  0  0  0  0  0  0  0  # atno 17371 bound_to 10713
  140.0714  134.9700  157.1473 LP  0  0  0  0  0  0  0  0  0  0  0  0  # atno 17394 bound_to 11000
  140.3706  134.2395  155.7178 LP  0  0  0  0  0  0  0  0  0  0  0  0  # atno 17395 bound_to 11000

$$$$
