AV-unprocessed.smi:1154|AV-procd|sdf|4900|dock1
  -GOLD-   22720 3473D 1   1.00000     0.00000
 Structure written by MMmdl.
 42 43  0  0  0  0  0  0  0  0  2 V2000
  148.7098  134.0414  153.8435 C   0  0  0  0  0  0  0  0  0  0  0  0
  147.2011  133.7474  153.9176 C   0  0  2  0  0  0  0  0  0  0  0  0
  146.7213  132.7875  152.8132 C   0  0  0  0  0  0  0  0  0  0  0  0
  146.6573  133.4833  151.4414 C   0  0  1  0  0  0  0  0  0  0  0  0
  146.1144  132.5381  150.3600 C   0  0  0  0  0  0  0  0  0  0  0  0
  145.8189  134.7729  151.5344 C   0  0  0  0  0  0  0  0  0  0  0  0
  146.3438  135.6874  152.5812 N   0  3  1  0  0  0  0  0  0  0  0  0
  145.6550  137.0029  152.5763 C   0  0  0  0  0  0  0  0  0  0  0  0
  146.3666  138.0377  153.4631 C   0  0  0  0  0  0  0  0  0  0  0  0
  147.7974  138.0439  153.1934 N   0  0  0  0  0  0  0  0  0  0  0  0
  148.6800  138.8435  153.8121 C   0  0  0  0  0  0  0  0  0  0  0  0
  148.3550  139.6772  154.6566 O   0  0  0  0  0  0  0  0  0  0  0  0
  150.1513  138.6900  153.4168 C   0  0  0  0  0  0  0  0  0  0  0  0
  151.0402  138.9951  154.5236 N   0  0  0  0  0  0  0  0  0  0  0  0
  151.1800  138.4195  155.7195 C   0  0  0  0  0  0  0  0  0  0  0  0
  152.1069  139.0227  156.4474 N   0  0  0  0  0  0  0  0  0  0  0  0
  152.5554  140.0323  155.6121 N   0  0  0  0  0  0  0  0  0  0  0  0
  151.9271  140.0202  154.4687 N   0  0  0  0  0  0  0  0  0  0  0  0
  146.3552  135.0362  153.9188 C   0  0  0  0  0  0  0  0  0  0  0  0
  148.9789  134.5737  152.9313 H   0  0  0  0  0  0  0  0  0  0  0  0
  149.2906  133.1189  153.8728 H   0  0  0  0  0  0  0  0  0  0  0  0
  149.0296  134.6542  154.6867 H   0  0  0  0  0  0  0  0  0  0  0  0
  147.0348  133.2481  154.8732 H   0  0  0  0  0  0  0  0  0  0  0  0
  147.3705  131.9121  152.7664 H   0  0  0  0  0  0  0  0  0  0  0  0
  145.7292  132.4155  153.0735 H   0  0  0  0  0  0  0  0  0  0  0  0
  147.6708  133.7591  151.1478 H   0  0  0  0  0  0  0  0  0  0  0  0
  145.0954  132.2206  150.5840 H   0  0  0  0  0  0  0  0  0  0  0  0
  146.7309  131.6427  150.2762 H   0  0  0  0  0  0  0  0  0  0  0  0
  146.1044  133.0225  149.3833 H   0  0  0  0  0  0  0  0  0  0  0  0
  145.8364  135.2782  150.5677 H   0  0  0  0  0  0  0  0  0  0  0  0
  144.7754  134.5358  151.7492 H   0  0  0  0  0  0  0  0  0  0  0  0
  145.6338  137.3938  151.5578 H   0  0  0  0  0  0  0  0  0  0  0  0
  144.6143  136.8776  152.8797 H   0  0  0  0  0  0  0  0  0  0  0  0
  145.9811  139.0422  153.2882 H   0  0  0  0  0  0  0  0  0  0  0  0
  146.1935  137.8036  154.5150 H   0  0  0  0  0  0  0  0  0  0  0  0
  148.1427  137.3900  152.5056 H   0  0  0  0  0  0  0  0  0  0  0  0
  150.3361  137.6680  153.0838 H   0  0  0  0  0  0  0  0  0  0  0  0
  150.3887  139.3503  152.5811 H   0  0  0  0  0  0  0  0  0  0  0  0
  150.6025  137.5713  156.0567 H   0  0  0  0  0  0  0  0  0  0  0  0
  145.3292  134.8027  154.2083 H   0  0  0  0  0  0  0  0  0  0  0  0
  146.7412  135.7166  154.6769 H   0  0  0  0  0  0  0  0  0  0  0  0
  147.3062  135.8700  152.3342 H   0  0  0  0  0  0  0  0  0  0  0  0
  1  2  1  0  0  0  0
  1 20  1  0  0  0  0
  1 21  1  0  0  0  0
  1 22  1  0  0  0  0
  2 19  1  0  0  0  0
  2  3  1  0  0  0  0
  2 23  1  0  0  0  0
  3  4  1  0  0  0  0
  3 24  1  0  0  0  0
  3 25  1  0  0  0  0
  4  5  1  0  0  0  0
  4  6  1  0  0  0  0
  4 26  1  0  0  0  0
  5 27  1  0  0  0  0
  5 28  1  0  0  0  0
  5 29  1  0  0  0  0
  6  7  1  0  0  0  0
  6 30  1  0  0  0  0
  6 31  1  0  0  0  0
  7  8  1  0  0  0  0
  7 19  1  0  0  0  0
  7 42  1  0  0  0  0
  8  9  1  0  0  0  0
  8 32  1  0  0  0  0
  8 33  1  0  0  0  0
  9 10  1  0  0  0  0
  9 34  1  0  0  0  0
  9 35  1  0  0  0  0
 10 11  1  0  0  0  0
 10 36  1  0  0  0  0
 11 12  2  0  0  0  0
 11 13  1  0  0  0  0
 13 14  1  0  0  0  0
 13 37  1  0  0  0  0
 13 38  1  0  0  0  0
 14 18  1  0  0  0  0
 14 15  1  0  0  0  0
 15 16  2  0  0  0  0
 15 39  1  0  0  0  0
 16 17  1  0  0  0  0
 17 18  2  0  0  0  0
 19 40  1  0  0  0  0
 19 41  1  0  0  0  0
M  CHG  1   7   1
M  END
> <s_m_source_file>
AV-unprocessed.smi

> <i_m_source_file_index>
1154

> <i_lp_mmshare_version>
43012

> <i_f3d_flags>
0

> <s_epik_input>
W0NIM11bQ0BASF0xW0NIMl1bQ0BASF0oW0NIM10pW0NIMl1OKFtDSDJdMSlbQ0gyXVtDSDJdW05IXUMoPU8pW0NIMl1uMltjSF1ubm4y

> <s_epik_cmdline>
J2VwaWtfcHl0aG9uJywgJy1waCcsICc3LjAnLCAnLXRuJywgJzgnLCAnLW1hJywgJzIwMCcsICctbWV0YWxfYmluZGluZycsICctaW1hZScsICc8aW5maWxlLm1hZT4nLCAnLW9tYWUnLCAnPG91dGZpbGUubWFlPic=

> <r_lp_tautomer_probability>
1

> <r_epik_Ionization_Penalty>
0.00217773

> <r_epik_Ionization_Penalty_Charging>
0.00217329

> <r_epik_Ionization_Penalty_Neutral>
4.43997e-06

> <r_epik_State_Penalty>
0.00149294

> <r_epik_Charging_Adjusted_Penalty>
0.00366623

> <i_epik_Tot_Q>
1

> <i_epik_Tot_abs_Q>
1

> <r_epik_Metal_State_Penalty>
-0

> <b_epik_Metal_Only>
0

> <s_lp_Force_Field>
OPLS_2005

> <r_lp_Energy>
22.5946

> <b_lp_Chiralities_Consistent>
1

> <s_lp_Variant>
AV-unprocessed.smi:1154-1

> <Gold.Version>
5.8.1

> <Gold.Id.Protein>
6NUR|6NUR_protein|mol2

> <Gold.PLP.Fitness>
40.5521

> <Gold.PLP.PLP>
-26.9050

> <Gold.PLP.part.hbond>
-4.0000

> <Gold.PLP.part.metal>
0.0000

> <Gold.PLP.part.buried>
-2.7982

> <Gold.PLP.part.nonpolar>
-20.0192

> <Gold.PLP.part.repulsive>
0.1333

> <Gold.PLP.ligand.clash>
0.0000

> <Gold.PLP.ligand.torsion>
0.4509

> <Gold.PLP.Chemscore.Hbond>
4.8320

> <Gold.PLP.Chemscore.CHOScore>
0.0000

> <Gold.PLP.Chemscore.Metal>
0.0000

> <Gold.Chemscore.Hbonds>
donor molecule, donor type, donor heavy atom, donor atom, acceptor molecule, acceptor atom, score
      L1  H     7    42       P1  7948  2.00
      L1  H    10    36       P1  7948  1.00
      P1  H  7989  7998       L1    18  0.39
      P1  H  7997  8009       L1    17  0.33

> <Gold.PLP.Chemscore.Internal.Correction>
0.0529

> <Gold.Rescore>
     Score         DG    S(hbond)    S(metal)    S(lipo)     H(rot)  DE(clash)    DE(int)     intcor
     15.10     -16.45       3.45        0.00      53.53       2.67       0.91       0.44       ----

> <Gold.Chemscore.Fitness>
15.0993

> <Gold.Chemscore.DG>
-16.4509

> <Gold.Chemscore.ZeroCoef>
-5.4800

> <Gold.Chemscore.Hbond>
3.4540

> <Gold.Chemscore.Metal>
0.0000

> <Gold.Chemscore.Lipo>
53.5307

> <Gold.Chemscore.Internal_Hbond>
0.0000

> <Gold.Chemscore.DEClash>
0.9120

> <Gold.Chemscore.DEInternal>
0.4396

> <Gold.Chemscore.Rot>
2.6674

> <Gold.Chemscore.Internal.Correction>
   9.000000E+99

> <Gold.Chemscore.Hbonds>
donor molecule, donor type, donor heavy atom, donor atom, acceptor molecule, acceptor atom, score
      L1  H     7    42       P1  7948  1.00
      L1  H    10    36       P1  7948  0.94
      P1  H  7989  7998       L1    18  0.33
      P1  H  7997  8009       L1    17  0.02

> <Gold.Chemscore.Hbond.Weighted>
-11.5364

> <Gold.Chemscore.Metal.Weighted>
-0.0000

> <Gold.Chemscore.Lipo.Weighted>
-6.2631

> <Gold.Chemscore.Internal_Hbond.Weighted>
0.0000

> <Gold.Chemscore.DEClash.Weighted>
0.9120

> <Gold.Chemscore.DEInternal.Weighted>
0.4396

> <Gold.Chemscore.Rot.Weighted>
6.8286

> <Gold.Chemscore.Internal.Correction.Weighted>
   9.000000E+99

> <Gold.Protein.RotatedTorsions>
[ 6907 6896 6895 6894 ] final   91.33 input  -60.11 | X-H torsion
[ 7974 7965 7964 7962 ] final  130.30 input  175.53 | X-H torsion
[ 8008 7997 7996 7995 ] final  179.71 input   59.86 | X-H torsion
[ 10167 10162 10161 10158 ] final -131.04 input  -65.29 | X-H torsion
[ 10718 10713 10712 10709 ] final -173.22 input   66.30 | X-H torsion
[ 10763 10752 10751 10750 ] final -115.18 input  -60.55 | X-H torsion
[ 11005 11000 10999 10996 ] final   14.06 input  -57.11 | X-H torsion

> <Gold.Protein.ActiveResidues>
 VAL166  LYS551  ARG553  GLY616  TRP617  ASP618  TYR619  PRO620  LYS621  CYS622 
 ASP623  PHE694  ASN695  SER759  ASP760  ASP761  ALA762  ILE779  LEU786  VAL792 
 PHE793  MET794  SER795  GLU796  ALA797  LYS798  CYS799  TRP800  GLU811  SER814 

> <Gold.Protein.RotatedAtoms>
  152.5449  134.1674  159.8582 H   0  0  0  0  0  0  0  0  0  0  0  0  # atno 6907 bound_to 6896
  151.1687  133.4791  159.2601 H   0  0  0  0  0  0  0  0  0  0  0  0  # atno 6908 bound_to 6896
  151.1298  135.0135  159.8632 H   0  0  0  0  0  0  0  0  0  0  0  0  # atno 6909 bound_to 6896
  145.0194  139.4146  143.5205 H   0  0  0  0  0  0  0  0  0  0  0  0  # atno 7974 bound_to 7965
  156.0402  140.1302  157.0163 H   0  0  0  0  0  0  0  0  0  0  0  0  # atno 8008 bound_to 7997
  154.4388  140.1031  156.6297 H   0  0  0  0  0  0  0  0  0  0  0  0  # atno 8009 bound_to 7997
  155.5677  140.3466  155.4509 H   0  0  0  0  0  0  0  0  0  0  0  0  # atno 8010 bound_to 7997
  139.9230  143.6360  152.2549 H   0  0  0  0  0  0  0  0  0  0  0  0  # atno 10167 bound_to 10162
  156.7671  130.9435  151.3119 H   0  0  0  0  0  0  0  0  0  0  0  0  # atno 10718 bound_to 10713
  154.8471  135.4391  154.1622 H   0  0  0  0  0  0  0  0  0  0  0  0  # atno 10763 bound_to 10752
  153.2756  135.6949  153.7442 H   0  0  0  0  0  0  0  0  0  0  0  0  # atno 10764 bound_to 10752
  153.6666  135.3426  155.3117 H   0  0  0  0  0  0  0  0  0  0  0  0  # atno 10765 bound_to 10752
  140.4738  134.1004  155.7737 H   0  0  0  0  0  0  0  0  0  0  0  0  # atno 11005 bound_to 11000
  146.3483  139.9683  142.8709 LP  0  0  0  0  0  0  0  0  0  0  0  0  # atno 17320 bound_to 7965
  145.1916  140.9814  143.4208 LP  0  0  0  0  0  0  0  0  0  0  0  0  # atno 17321 bound_to 7965
  139.6845  144.7653  151.1548 LP  0  0  0  0  0  0  0  0  0  0  0  0  # atno 17342 bound_to 10162
  140.7657  143.5676  150.9030 LP  0  0  0  0  0  0  0  0  0  0  0  0  # atno 17343 bound_to 10162
  157.6708  130.9049  150.0036 LP  0  0  0  0  0  0  0  0  0  0  0  0  # atno 17370 bound_to 10713
  156.1302  130.3643  149.9745 LP  0  0  0  0  0  0  0  0  0  0  0  0  # atno 17371 bound_to 10713
  141.1564  133.8874  157.1965 LP  0  0  0  0  0  0  0  0  0  0  0  0  # atno 17394 bound_to 11000
  139.9869  135.0079  156.9883 LP  0  0  0  0  0  0  0  0  0  0  0  0  # atno 17395 bound_to 11000

$$$$
