AV-unprocessed.smi:3226|AV-procd|sdf|12313|dock7
  -GOLD-   2272018163D 1   1.00000     0.00000
 Structure written by MMmdl.
 41 43  0  0  0  0  0  0  0  0  2 V2000
  150.7069  135.4586  155.0399 C   0  0  0  0  0  0  0  0  0  0  0  0
  150.1016  136.8650  155.1124 C   0  0  0  0  0  0  0  0  0  0  0  0
  151.1447  137.9361  155.1994 C   0  0  0  0  0  0  0  0  0  0  0  0
  152.4579  137.6808  155.2408 N   0  0  0  0  0  0  0  0  0  0  0  0
  153.0769  138.9135  155.2869 N   0  0  0  0  0  0  0  0  0  0  0  0
  152.0762  139.7917  155.2586 C   0  0  0  0  0  0  0  0  0  0  0  0
  150.8477  139.2531  155.2083 N   0  0  0  0  0  0  0  0  0  0  0  0
  149.5651  139.9357  155.1694 C   0  0  0  0  0  0  0  0  0  0  0  0
  149.7190  141.4653  155.1675 C   0  0  0  0  0  0  0  0  0  0  0  0
  149.8025  142.0053  156.5393 N   0  3  0  0  0  0  0  0  0  0  0  0
  151.1667  142.0154  157.1020 C   0  0  0  0  0  0  0  0  0  0  0  0
  151.1788  142.6185  158.5188 C   0  0  2  0  0  0  0  0  0  0  0  0
  150.7126  144.1074  158.5567 C   0  0  0  0  0  0  0  0  0  0  0  0
  151.8819  144.8266  159.2683 C   0  0  1  0  0  0  0  0  0  0  0  0
  151.9622  144.3070  160.6882 C   0  0  0  0  0  0  0  0  0  0  0  0
  152.3923  143.0454  160.6250 C   0  0  0  0  0  0  0  0  0  0  0  0
  152.5897  142.7098  159.1611 C   0  0  2  0  0  0  0  0  0  0  0  0
  153.0607  144.0756  158.6437 C   0  0  0  0  0  0  0  0  0  0  0  0
  149.9251  134.7011  154.9840 H   0  0  0  0  0  0  0  0  0  0  0  0
  151.3142  135.2461  155.9203 H   0  0  0  0  0  0  0  0  0  0  0  0
  151.3422  135.3474  154.1608 H   0  0  0  0  0  0  0  0  0  0  0  0
  149.4608  137.0422  154.2492 H   0  0  0  0  0  0  0  0  0  0  0  0
  149.4561  136.9384  155.9883 H   0  0  0  0  0  0  0  0  0  0  0  0
  152.2447  140.8584  155.2789 H   0  0  0  0  0  0  0  0  0  0  0  0
  149.0186  139.6053  154.2850 H   0  0  0  0  0  0  0  0  0  0  0  0
  148.9765  139.6185  156.0305 H   0  0  0  0  0  0  0  0  0  0  0  0
  150.6266  141.7380  154.6275 H   0  0  0  0  0  0  0  0  0  0  0  0
  148.8846  141.9310  154.6417 H   0  0  0  0  0  0  0  0  0  0  0  0
  149.4531  142.9530  156.5338 H   0  0  0  0  0  0  0  0  0  0  0  0
  151.5679  141.0016  157.1051 H   0  0  0  0  0  0  0  0  0  0  0  0
  151.8069  142.6084  156.4476 H   0  0  0  0  0  0  0  0  0  0  0  0
  150.5236  142.0168  159.1520 H   0  0  0  0  0  0  0  0  0  0  0  0
  150.5746  144.5086  157.5515 H   0  0  0  0  0  0  0  0  0  0  0  0
  149.7704  144.2304  159.0926 H   0  0  0  0  0  0  0  0  0  0  0  0
  151.9135  145.9124  159.1734 H   0  0  0  0  0  0  0  0  0  0  0  0
  151.6861  144.8696  161.5678 H   0  0  0  0  0  0  0  0  0  0  0  0
  152.5405  142.3555  161.4426 H   0  0  0  0  0  0  0  0  0  0  0  0
  153.2696  141.8774  158.9775 H   0  0  0  0  0  0  0  0  0  0  0  0
  153.1091  144.1554  157.5566 H   0  0  0  0  0  0  0  0  0  0  0  0
  154.0248  144.3780  159.0579 H   0  0  0  0  0  0  0  0  0  0  0  0
  149.2133  141.4470  157.1404 H   0  0  0  0  0  0  0  0  0  0  0  0
  1  2  1  0  0  0  0
  1 19  1  0  0  0  0
  1 20  1  0  0  0  0
  1 21  1  0  0  0  0
  2  3  1  0  0  0  0
  2 22  1  0  0  0  0
  2 23  1  0  0  0  0
  3  7  1  0  0  0  0
  3  4  2  0  0  0  0
  4  5  1  0  0  0  0
  5  6  2  0  0  0  0
  6  7  1  0  0  0  0
  6 24  1  0  0  0  0
  7  8  1  0  0  0  0
  8  9  1  0  0  0  0
  8 25  1  0  0  0  0
  8 26  1  0  0  0  0
  9 10  1  0  0  0  0
  9 27  1  0  0  0  0
  9 28  1  0  0  0  0
 10 11  1  0  0  0  0
 10 29  1  0  0  0  0
 10 41  1  0  0  0  0
 11 12  1  0  0  0  0
 11 30  1  0  0  0  0
 11 31  1  0  0  0  0
 12 17  1  0  0  0  0
 12 13  1  0  0  0  0
 12 32  1  0  0  0  0
 13 14  1  0  0  0  0
 13 33  1  0  0  0  0
 13 34  1  0  0  0  0
 14 18  1  0  0  0  0
 14 15  1  0  0  0  0
 14 35  1  0  0  0  0
 15 16  2  0  0  0  0
 15 36  1  0  0  0  0
 16 17  1  0  0  0  0
 16 37  1  0  0  0  0
 17 18  1  0  0  0  0
 17 38  1  0  0  0  0
 18 39  1  0  0  0  0
 18 40  1  0  0  0  0
M  CHG  1  10   1
M  END
> <s_m_source_file>
AV-unprocessed.smi

> <i_m_source_file_index>
3226

> <i_lp_mmshare_version>
43012

> <i_f3d_flags>
0

> <s_epik_input>
W0NIM11bQ0gyXWMxbm5bY0hdbjFbQ0gyXVtDSDJdW05IXVtDSDJdW0NASF0oW0NIMl1bQ0BASF0yMylbQ0BASF0oW0NIMl0zKVtDSF09W0NIXTI=

> <s_epik_cmdline>
J2VwaWtfcHl0aG9uJywgJy1waCcsICc3LjAnLCAnLXRuJywgJzgnLCAnLW1hJywgJzIwMCcsICctbWV0YWxfYmluZGluZycsICctaW1hZScsICc8aW5maWxlLm1hZT4nLCAnLW9tYWUnLCAnPG91dGZpbGUubWFlPic=

> <r_lp_tautomer_probability>
1

> <r_epik_Ionization_Penalty>
0.00175008

> <r_epik_Ionization_Penalty_Charging>
0.00173932

> <r_epik_Ionization_Penalty_Neutral>
1.07546e-05

> <r_epik_State_Penalty>
-0

> <r_epik_Charging_Adjusted_Penalty>
0.00173932

> <i_epik_Tot_Q>
1

> <i_epik_Tot_abs_Q>
1

> <r_epik_Metal_State_Penalty>
-0

> <b_epik_Metal_Only>
0

> <s_lp_Force_Field>
OPLS_2005

> <r_lp_Energy>
64.8147

> <b_lp_Chiralities_Consistent>
1

> <s_lp_Variant>
AV-unprocessed.smi:3226-1

> <Gold.Version>
5.8.1

> <Gold.Id.Protein>
6NUR|6NUR_protein|mol2

> <Gold.PLP.Fitness>
53.4361

> <Gold.PLP.PLP>
-44.3713

> <Gold.PLP.part.hbond>
-3.0000

> <Gold.PLP.part.metal>
0.0000

> <Gold.PLP.part.buried>
-3.6483

> <Gold.PLP.part.nonpolar>
-38.2313

> <Gold.PLP.part.repulsive>
0.0907

> <Gold.PLP.ligand.clash>
0.0000

> <Gold.PLP.ligand.torsion>
0.3227

> <Gold.PLP.Chemscore.Hbond>
3.2260

> <Gold.PLP.Chemscore.CHOScore>
0.0000

> <Gold.PLP.Chemscore.Metal>
0.0000

> <Gold.Chemscore.Hbonds>
donor molecule, donor type, donor heavy atom, donor atom, acceptor molecule, acceptor atom, score
      L1  H    10    29       P1  8028  1.89
      P1  H  7997  8008       L1     5  0.85
      P1  H 10752 10765       L1     4  0.34

> <Gold.PLP.Chemscore.Internal.Correction>
0.0321

> <Gold.Rescore>
     Score         DG    S(hbond)    S(metal)    S(lipo)     H(rot)  DE(clash)    DE(int)     intcor
     17.74     -18.17       1.42        0.00     112.89       2.06       0.06       0.37       ----

> <Gold.Chemscore.Fitness>
17.7370

> <Gold.Chemscore.DG>
-18.1670

> <Gold.Chemscore.ZeroCoef>
-5.4800

> <Gold.Chemscore.Hbond>
1.4246

> <Gold.Chemscore.Metal>
0.0000

> <Gold.Chemscore.Lipo>
112.8920

> <Gold.Chemscore.Internal_Hbond>
0.0000

> <Gold.Chemscore.DEClash>
0.0591

> <Gold.Chemscore.DEInternal>
0.3708

> <Gold.Chemscore.Rot>
2.0623

> <Gold.Chemscore.Internal.Correction>
   9.000000E+99

> <Gold.Chemscore.Hbonds>
donor molecule, donor type, donor heavy atom, donor atom, acceptor molecule, acceptor atom, score
      L1  H    10    29       P1  8028  0.88
      P1  H  7997  8008       L1     5  0.14
      P1  H 10752 10765       L1     4  0.29

> <Gold.Chemscore.Hbond.Weighted>
-4.7582

> <Gold.Chemscore.Metal.Weighted>
-0.0000

> <Gold.Chemscore.Lipo.Weighted>
-13.2084

> <Gold.Chemscore.Internal_Hbond.Weighted>
0.0000

> <Gold.Chemscore.DEClash.Weighted>
0.0591

> <Gold.Chemscore.DEInternal.Weighted>
0.3708

> <Gold.Chemscore.Rot.Weighted>
5.2796

> <Gold.Chemscore.Internal.Correction.Weighted>
   9.000000E+99

> <Gold.Protein.RotatedTorsions>
[ 6907 6896 6895 6894 ] final -162.91 input  -60.11 | X-H torsion
[ 7974 7965 7964 7962 ] final -116.59 input  175.53 | X-H torsion
[ 8008 7997 7996 7995 ] final   -8.68 input   59.86 | X-H torsion
[ 10167 10162 10161 10158 ] final -124.51 input  -65.29 | X-H torsion
[ 10718 10713 10712 10709 ] final   94.70 input   66.30 | X-H torsion
[ 10763 10752 10751 10750 ] final -177.96 input  -60.55 | X-H torsion
[ 11005 11000 10999 10996 ] final   94.27 input  -57.11 | X-H torsion

> <Gold.Protein.ActiveResidues>
 VAL166  LYS551  ARG553  GLY616  TRP617  ASP618  TYR619  PRO620  LYS621  CYS622 
 ASP623  PHE694  ASN695  SER759  ASP760  ASP761  ALA762  ILE779  LEU786  VAL792 
 PHE793  MET794  SER795  GLU796  ALA797  LYS798  CYS799  TRP800  GLU811  SER814 

> <Gold.Protein.RotatedAtoms>
  151.3877  133.3799  159.2716 H   0  0  0  0  0  0  0  0  0  0  0  0  # atno 6907 bound_to 6896
  150.9529  134.8928  159.7694 H   0  0  0  0  0  0  0  0  0  0  0  0  # atno 6908 bound_to 6896
  152.5119  134.3833  159.9411 H   0  0  0  0  0  0  0  0  0  0  0  0  # atno 6909 bound_to 6896
  145.0950  140.8514  143.3960 H   0  0  0  0  0  0  0  0  0  0  0  0  # atno 7974 bound_to 7965
  154.5718  140.2375  155.8181 H   0  0  0  0  0  0  0  0  0  0  0  0  # atno 8008 bound_to 7997
  156.2112  140.3025  155.9695 H   0  0  0  0  0  0  0  0  0  0  0  0  # atno 8009 bound_to 7997
  155.2699  140.0418  157.2996 H   0  0  0  0  0  0  0  0  0  0  0  0  # atno 8010 bound_to 7997
  139.9920  143.5630  152.2338 H   0  0  0  0  0  0  0  0  0  0  0  0  # atno 10167 bound_to 10162
  157.6945  131.0521  150.4226 H   0  0  0  0  0  0  0  0  0  0  0  0  # atno 10718 bound_to 10713
  154.5537  135.2815  155.0985 H   0  0  0  0  0  0  0  0  0  0  0  0  # atno 10763 bound_to 10752
  154.2421  135.6355  153.5214 H   0  0  0  0  0  0  0  0  0  0  0  0  # atno 10764 bound_to 10752
  153.0010  135.5562  154.6110 H   0  0  0  0  0  0  0  0  0  0  0  0  # atno 10765 bound_to 10752
  139.8800  134.8836  156.3840 H   0  0  0  0  0  0  0  0  0  0  0  0  # atno 11005 bound_to 11000
  145.1022  139.2815  143.5680 LP  0  0  0  0  0  0  0  0  0  0  0  0  # atno 17320 bound_to 7965
  146.3531  140.0592  142.8630 LP  0  0  0  0  0  0  0  0  0  0  0  0  # atno 17321 bound_to 7965
  139.6333  144.7647  151.2491 LP  0  0  0  0  0  0  0  0  0  0  0  0  # atno 17342 bound_to 10162
  140.7451  143.6442  150.8307 LP  0  0  0  0  0  0  0  0  0  0  0  0  # atno 17343 bound_to 10162
  156.4600  130.4030  149.6582 LP  0  0  0  0  0  0  0  0  0  0  0  0  # atno 17370 bound_to 10713
  156.3701  130.7526  151.2508 LP  0  0  0  0  0  0  0  0  0  0  0  0  # atno 17371 bound_to 10713
  140.9379  133.7534  156.0108 LP  0  0  0  0  0  0  0  0  0  0  0  0  # atno 17394 bound_to 11000
  140.8254  134.3240  157.5367 LP  0  0  0  0  0  0  0  0  0  0  0  0  # atno 17395 bound_to 11000

$$$$
