AV-unprocessed.smi:2728|AV-procd|sdf|10525|dock6
  -GOLD-   2272014573D 1   1.00000     0.00000
 Structure written by MMmdl.
 34 35  0  0  0  0  0  0  0  0  1 V2000
  152.8704  139.9082  158.0456 O   0  0  0  0  0  0  0  0  0  0  0  0
  151.9986  140.7301  157.7609 C   0  0  0  0  0  0  0  0  0  0  0  0
  151.3058  140.7043  156.6129 N   0  0  0  0  0  0  0  0  0  0  0  0
  151.4735  139.7128  155.5567 C   0  0  0  0  0  0  0  0  0  0  0  0
  150.1874  138.8984  155.3373 C   0  0  0  0  0  0  0  0  0  0  0  0
  149.0727  139.7247  154.7265 C   0  0  0  0  0  0  0  0  0  0  0  0
  147.8709  139.2853  154.3558 C   0  0  0  0  0  0  0  0  0  0  0  0
  146.9977  140.3789  153.8048 C   0  0  0  0  0  0  0  0  0  0  0  0
  147.8838  141.6419  153.8853 C   0  0  0  0  0  0  0  0  0  0  0  0
  149.2330  141.2063  154.5003 C   0  0  0  0  0  0  0  0  0  0  0  0
  151.6140  141.7580  158.5383 N   0  0  0  0  0  0  0  0  0  0  0  0
  152.0909  142.1093  159.8295 C   0  0  0  0  0  0  0  0  0  0  0  0
  153.0502  141.2252  160.3739 C   0  0  0  0  0  0  0  0  0  0  0  0
  153.5892  141.4868  161.6489 C   0  0  0  0  0  0  0  0  0  0  0  0
  153.1528  142.6272  162.3460 C   0  0  0  0  0  0  0  0  0  0  0  0
  153.6428  142.9202  163.5739 F   0  0  0  0  0  0  0  0  0  0  0  0
  152.1939  143.4558  161.7345 C   0  0  0  0  0  0  0  0  0  0  0  0
  151.6768  143.2063  160.5125 N   0  0  0  0  0  0  0  0  0  0  0  0
  150.6086  141.4180  156.4596 H   0  0  0  0  0  0  0  0  0  0  0  0
  151.7861  140.2030  154.6332 H   0  0  0  0  0  0  0  0  0  0  0  0
  152.2877  139.0477  155.8460 H   0  0  0  0  0  0  0  0  0  0  0  0
  150.3960  138.0512  154.6823 H   0  0  0  0  0  0  0  0  0  0  0  0
  149.8319  138.4842  156.2815 H   0  0  0  0  0  0  0  0  0  0  0  0
  147.5290  138.2637  154.4338 H   0  0  0  0  0  0  0  0  0  0  0  0
  146.7088  140.1513  152.7784 H   0  0  0  0  0  0  0  0  0  0  0  0
  146.0950  140.4792  154.4079 H   0  0  0  0  0  0  0  0  0  0  0  0
  148.0347  142.0676  152.8928 H   0  0  0  0  0  0  0  0  0  0  0  0
  147.4091  142.4094  154.4974 H   0  0  0  0  0  0  0  0  0  0  0  0
  149.4264  141.7128  155.4463 H   0  0  0  0  0  0  0  0  0  0  0  0
  150.0631  141.4071  153.8225 H   0  0  0  0  0  0  0  0  0  0  0  0
  150.8883  142.3530  158.1673 H   0  0  0  0  0  0  0  0  0  0  0  0
  153.3746  140.3543  159.8230 H   0  0  0  0  0  0  0  0  0  0  0  0
  154.3240  140.8244  162.0821 H   0  0  0  0  0  0  0  0  0  0  0  0
  151.8331  144.3409  162.2371 H   0  0  0  0  0  0  0  0  0  0  0  0
  1  2  2  0  0  0  0
  2  3  1  0  0  0  0
  2 11  1  0  0  0  0
  3  4  1  0  0  0  0
  3 19  1  0  0  0  0
  4  5  1  0  0  0  0
  4 20  1  0  0  0  0
  4 21  1  0  0  0  0
  5  6  1  0  0  0  0
  5 22  1  0  0  0  0
  5 23  1  0  0  0  0
  6 10  1  0  0  0  0
  6  7  2  0  0  0  0
  7  8  1  0  0  0  0
  7 24  1  0  0  0  0
  8  9  1  0  0  0  0
  8 25  1  0  0  0  0
  8 26  1  0  0  0  0
  9 10  1  0  0  0  0
  9 27  1  0  0  0  0
  9 28  1  0  0  0  0
 10 29  1  0  0  0  0
 10 30  1  0  0  0  0
 11 12  1  0  0  0  0
 11 31  1  0  0  0  0
 12 18  1  0  0  0  0
 12 13  2  0  0  0  0
 13 14  1  0  0  0  0
 13 32  1  0  0  0  0
 14 15  2  0  0  0  0
 14 33  1  0  0  0  0
 15 16  1  0  0  0  0
 15 17  1  0  0  0  0
 17 18  2  0  0  0  0
 17 34  1  0  0  0  0
M  END
> <s_m_source_file>
AV-unprocessed.smi

> <i_m_source_file_index>
2728

> <i_lp_mmshare_version>
43012

> <i_f3d_flags>
0

> <s_epik_input>
bjFbY0hdYyhGKVtjSF1bY0hdYzFbTkhdQyg9TylbTkhdW0NIMl1bQ0gyXUMyPVtDSF1bQ0gyXVtDSDJdW0NIMl0y

> <s_epik_cmdline>
J2VwaWtfcHl0aG9uJywgJy1waCcsICc3LjAnLCAnLXRuJywgJzgnLCAnLW1hJywgJzIwMCcsICctbWV0YWxfYmluZGluZycsICctaW1hZScsICc8aW5maWxlLm1hZT4nLCAnLW9tYWUnLCAnPG91dGZpbGUubWFlPic=

> <r_lp_tautomer_probability>
1

> <r_epik_Ionization_Penalty>
3.75783e-05

> <r_epik_Ionization_Penalty_Charging>
0

> <r_epik_Ionization_Penalty_Neutral>
3.75783e-05

> <r_epik_State_Penalty>
-0

> <r_epik_Charging_Adjusted_Penalty>
0

> <i_epik_Tot_Q>
0

> <i_epik_Tot_abs_Q>
0

> <r_epik_Metal_State_Penalty>
-0

> <b_epik_Metal_Only>
0

> <s_lp_Force_Field>
OPLS_2005

> <r_lp_Energy>
20.4042

> <b_lp_Chiralities_Consistent>
1

> <s_lp_Variant>
AV-unprocessed.smi:2728-1

> <Gold.Version>
5.8.1

> <Gold.Id.Protein>
6NUR|6NUR_protein|mol2

> <Gold.PLP.Fitness>
42.8112

> <Gold.PLP.PLP>
-42.7367

> <Gold.PLP.part.hbond>
-1.1749

> <Gold.PLP.part.metal>
0.0000

> <Gold.PLP.part.buried>
-3.0844

> <Gold.PLP.part.nonpolar>
-36.3539

> <Gold.PLP.part.repulsive>
0.2583

> <Gold.PLP.ligand.clash>
2.4755

> <Gold.PLP.ligand.torsion>
0.0470

> <Gold.PLP.Chemscore.Hbond>
0.8800

> <Gold.PLP.Chemscore.CHOScore>
0.0000

> <Gold.PLP.Chemscore.Metal>
0.0000

> <Gold.Chemscore.Hbonds>
donor molecule, donor type, donor heavy atom, donor atom, acceptor molecule, acceptor atom, score
      P1  H  7997  8010       L1     1  0.73

> <Gold.PLP.Chemscore.Internal.Correction>
0.0039

> <Gold.Rescore>
     Score         DG    S(hbond)    S(metal)    S(lipo)     H(rot)  DE(clash)    DE(int)     intcor
     13.10     -15.25       0.95        0.00      88.71       1.48       0.54       1.61       ----

> <Gold.Chemscore.Fitness>
13.0982

> <Gold.Chemscore.DG>
-15.2466

> <Gold.Chemscore.ZeroCoef>
-5.4800

> <Gold.Chemscore.Hbond>
0.9522

> <Gold.Chemscore.Metal>
0.0000

> <Gold.Chemscore.Lipo>
88.7125

> <Gold.Chemscore.Internal_Hbond>
0.0000

> <Gold.Chemscore.DEClash>
0.5411

> <Gold.Chemscore.DEInternal>
1.6073

> <Gold.Chemscore.Rot>
1.4818

> <Gold.Chemscore.Internal.Correction>
   9.000000E+99

> <Gold.Chemscore.Hbonds>
donor molecule, donor type, donor heavy atom, donor atom, acceptor molecule, acceptor atom, score
      P1  H  7997  8010       L1     1  0.42

> <Gold.Chemscore.Hbond.Weighted>
-3.1805

> <Gold.Chemscore.Metal.Weighted>
-0.0000

> <Gold.Chemscore.Lipo.Weighted>
-10.3794

> <Gold.Chemscore.Internal_Hbond.Weighted>
0.0000

> <Gold.Chemscore.DEClash.Weighted>
0.5411

> <Gold.Chemscore.DEInternal.Weighted>
1.6073

> <Gold.Chemscore.Rot.Weighted>
3.7933

> <Gold.Chemscore.Internal.Correction.Weighted>
   9.000000E+99

> <Gold.Protein.RotatedTorsions>
[ 6907 6896 6895 6894 ] final  -72.62 input  -60.11 | X-H torsion
[ 7974 7965 7964 7962 ] final   96.42 input  175.53 | X-H torsion
[ 8008 7997 7996 7995 ] final   63.47 input   59.86 | X-H torsion
[ 10167 10162 10161 10158 ] final  129.34 input  -65.29 | X-H torsion
[ 10718 10713 10712 10709 ] final    3.10 input   66.30 | X-H torsion
[ 10763 10752 10751 10750 ] final   10.05 input  -60.55 | X-H torsion
[ 11005 11000 10999 10996 ] final  154.91 input  -57.11 | X-H torsion

> <Gold.Protein.ActiveResidues>
 VAL166  LYS551  ARG553  GLY616  TRP617  ASP618  TYR619  PRO620  LYS621  CYS622 
 ASP623  PHE694  ASN695  SER759  ASP760  ASP761  ALA762  ILE779  LEU786  VAL792 
 PHE793  MET794  SER795  GLU796  ALA797  LYS798  CYS799  TRP800  GLU811  SER814 

> <Gold.Protein.RotatedAtoms>
  150.7162  134.5136  159.5619 H   0  0  0  0  0  0  0  0  0  0  0  0  # atno 6907 bound_to 6896
  152.2707  134.7933  160.0423 H   0  0  0  0  0  0  0  0  0  0  0  0  # atno 6908 bound_to 6896
  151.8613  133.3422  159.3741 H   0  0  0  0  0  0  0  0  0  0  0  0  # atno 6909 bound_to 6896
  145.4391  139.2303  143.3102 H   0  0  0  0  0  0  0  0  0  0  0  0  # atno 7974 bound_to 7965
  155.6307  140.3496  155.4682 H   0  0  0  0  0  0  0  0  0  0  0  0  # atno 8008 bound_to 7997
  156.0005  140.1212  157.0575 H   0  0  0  0  0  0  0  0  0  0  0  0  # atno 8009 bound_to 7997
  154.4247  140.1101  156.5676 H   0  0  0  0  0  0  0  0  0  0  0  0  # atno 8010 bound_to 7997
  139.5482  144.6791  151.4405 H   0  0  0  0  0  0  0  0  0  0  0  0  # atno 10167 bound_to 10162
  156.8728  130.5626  149.5656 H   0  0  0  0  0  0  0  0  0  0  0  0  # atno 10718 bound_to 10713
  153.2074  135.6864  153.8156 H   0  0  0  0  0  0  0  0  0  0  0  0  # atno 10763 bound_to 10752
  153.7401  135.3239  155.3303 H   0  0  0  0  0  0  0  0  0  0  0  0  # atno 10764 bound_to 10752
  154.8204  135.4656  154.0866 H   0  0  0  0  0  0  0  0  0  0  0  0  # atno 10765 bound_to 10752
  140.1533  134.8660  157.2482 H   0  0  0  0  0  0  0  0  0  0  0  0  # atno 11005 bound_to 11000
  146.2566  140.5137  142.8871 LP  0  0  0  0  0  0  0  0  0  0  0  0  # atno 17320 bound_to 7965
  144.8133  140.6424  143.6401 LP  0  0  0  0  0  0  0  0  0  0  0  0  # atno 17321 bound_to 7965
  140.6737  143.8237  150.7031 LP  0  0  0  0  0  0  0  0  0  0  0  0  # atno 17342 bound_to 10162
  140.1669  143.4228  152.2028 LP  0  0  0  0  0  0  0  0  0  0  0  0  # atno 17343 bound_to 10162
  156.0717  130.5748  150.9396 LP  0  0  0  0  0  0  0  0  0  0  0  0  # atno 17370 bound_to 10713
  157.6185  131.0931  150.8665 LP  0  0  0  0  0  0  0  0  0  0  0  0  # atno 17371 bound_to 10713
  140.2578  134.3607  155.7418 LP  0  0  0  0  0  0  0  0  0  0  0  0  # atno 17394 bound_to 11000
  141.2201  133.7352  156.9034 LP  0  0  0  0  0  0  0  0  0  0  0  0  # atno 17395 bound_to 11000

$$$$
