AV-unprocessed.smi:1751|AV-procd|sdf|7057|dock5
  -GOLD-   22720 8273D 1   1.00000     0.00000
 Structure written by MMmdl.
 35 36  0  0  0  0  0  0  0  0  1 V2000
  153.1212  139.4449  158.6625 C   0  0  0  0  0  0  0  0  0  0  0  0
  152.9849  139.5978  157.2539 O   0  0  0  0  0  0  0  0  0  0  0  0
  152.2235  138.6758  156.5655 C   0  0  0  0  0  0  0  0  0  0  0  0
  151.9843  138.8894  155.1940 C   0  0  0  0  0  0  0  0  0  0  0  0
  151.2020  137.9554  154.4893 C   0  0  0  0  0  0  0  0  0  0  0  0
  150.6774  136.8392  155.1715 C   0  0  0  0  0  0  0  0  0  0  0  0
  149.8985  135.9157  154.4210 N   0  0  0  0  0  0  0  0  0  0  0  0
  149.4594  134.6936  154.7690 C   0  0  0  0  0  0  0  0  0  0  0  0
  149.6677  134.1380  155.8466 O   0  0  0  0  0  0  0  0  0  0  0  0
  148.7435  134.1419  153.7791 N   0  0  0  0  0  0  0  0  0  0  0  0
  148.1262  132.8197  153.8142 C   0  0  0  0  0  0  0  0  0  0  0  0
  146.8508  132.7651  152.9568 C   0  0  1  0  0  0  0  0  0  0  0  0
  147.0006  133.3073  151.5360 C   0  0  0  0  0  0  0  0  0  0  0  0
  145.8505  132.6247  150.8322 C   0  0  0  0  0  0  0  0  0  0  0  0
  145.8446  131.2467  151.4907 C   0  0  0  0  0  0  0  0  0  0  0  0
  146.4315  131.4158  152.7798 O   0  0  0  0  0  0  0  0  0  0  0  0
  150.9855  136.7068  156.5482 C   0  0  0  0  0  0  0  0  0  0  0  0
  151.7350  137.5996  157.2300 N   0  0  0  0  0  0  0  0  0  0  0  0
  153.7376  140.2536  159.0549 H   0  0  0  0  0  0  0  0  0  0  0  0
  153.6099  138.5031  158.9160 H   0  0  0  0  0  0  0  0  0  0  0  0
  152.1541  139.4934  159.1647 H   0  0  0  0  0  0  0  0  0  0  0  0
  152.3923  139.7545  154.6924 H   0  0  0  0  0  0  0  0  0  0  0  0
  151.0058  138.0997  153.4367 H   0  0  0  0  0  0  0  0  0  0  0  0
  149.6000  136.2454  153.5149 H   0  0  0  0  0  0  0  0  0  0  0  0
  148.6205  134.6739  152.9302 H   0  0  0  0  0  0  0  0  0  0  0  0
  148.8304  132.0456  153.5038 H   0  0  0  0  0  0  0  0  0  0  0  0
  147.8739  132.6014  154.8520 H   0  0  0  0  0  0  0  0  0  0  0  0
  146.0404  133.2953  153.4602 H   0  0  0  0  0  0  0  0  0  0  0  0
  146.9478  134.3952  151.4858 H   0  0  0  0  0  0  0  0  0  0  0  0
  147.9482  132.9874  151.1000 H   0  0  0  0  0  0  0  0  0  0  0  0
  144.9184  133.1481  151.0493 H   0  0  0  0  0  0  0  0  0  0  0  0
  145.9736  132.5805  149.7499 H   0  0  0  0  0  0  0  0  0  0  0  0
  144.8385  130.8328  151.5649 H   0  0  0  0  0  0  0  0  0  0  0  0
  146.4570  130.5464  150.9216 H   0  0  0  0  0  0  0  0  0  0  0  0
  150.6501  135.8688  157.1376 H   0  0  0  0  0  0  0  0  0  0  0  0
  1  2  1  0  0  0  0
  1 19  1  0  0  0  0
  1 20  1  0  0  0  0
  1 21  1  0  0  0  0
  2  3  1  0  0  0  0
  3 18  1  0  0  0  0
  3  4  2  0  0  0  0
  4  5  1  0  0  0  0
  4 22  1  0  0  0  0
  5  6  2  0  0  0  0
  5 23  1  0  0  0  0
  6  7  1  0  0  0  0
  6 17  1  0  0  0  0
  7  8  1  0  0  0  0
  7 24  1  0  0  0  0
  8  9  2  0  0  0  0
  8 10  1  0  0  0  0
 10 11  1  0  0  0  0
 10 25  1  0  0  0  0
 11 12  1  0  0  0  0
 11 26  1  0  0  0  0
 11 27  1  0  0  0  0
 12 16  1  0  0  0  0
 12 13  1  0  0  0  0
 12 28  1  0  0  0  0
 13 14  1  0  0  0  0
 13 29  1  0  0  0  0
 13 30  1  0  0  0  0
 14 15  1  0  0  0  0
 14 31  1  0  0  0  0
 14 32  1  0  0  0  0
 15 16  1  0  0  0  0
 15 33  1  0  0  0  0
 15 34  1  0  0  0  0
 17 18  2  0  0  0  0
 17 35  1  0  0  0  0
M  END
> <s_m_source_file>
AV-unprocessed.smi

> <i_m_source_file_index>
1751

> <i_lp_mmshare_version>
43012

> <i_f3d_flags>
0

> <s_epik_input>
W0NIM11PYzFbY0hdW2NIXWMoW2NIXW4xKVtOSF1DKD1PKVtOSF1bQ0gyXVtDQEBIXTJbQ0gyXVtDSDJdW0NIMl1PMg==

> <s_epik_cmdline>
J2VwaWtfcHl0aG9uJywgJy1waCcsICc3LjAnLCAnLXRuJywgJzgnLCAnLW1hJywgJzIwMCcsICctbWV0YWxfYmluZGluZycsICctaW1hZScsICc8aW5maWxlLm1hZT4nLCAnLW9tYWUnLCAnPG91dGZpbGUubWFlPic=

> <r_lp_tautomer_probability>
1

> <r_epik_Ionization_Penalty>
9.01694e-05

> <r_epik_Ionization_Penalty_Charging>
0

> <r_epik_Ionization_Penalty_Neutral>
9.01694e-05

> <r_epik_State_Penalty>
-0

> <r_epik_Charging_Adjusted_Penalty>
0

> <i_epik_Tot_Q>
0

> <i_epik_Tot_abs_Q>
0

> <r_epik_Metal_State_Penalty>
-0

> <b_epik_Metal_Only>
0

> <s_lp_Force_Field>
OPLS_2005

> <r_lp_Energy>
20.1941

> <b_lp_Chiralities_Consistent>
1

> <s_lp_Variant>
AV-unprocessed.smi:1751-2

> <Gold.Version>
5.8.1

> <Gold.Id.Protein>
6NUR|6NUR_protein|mol2

> <Gold.PLP.Fitness>
36.9808

> <Gold.PLP.PLP>
-28.7396

> <Gold.PLP.part.hbond>
-3.5888

> <Gold.PLP.part.metal>
0.0000

> <Gold.PLP.part.buried>
-2.7169

> <Gold.PLP.part.nonpolar>
-22.4674

> <Gold.PLP.part.repulsive>
0.2307

> <Gold.PLP.ligand.clash>
0.0000

> <Gold.PLP.ligand.torsion>
0.3074

> <Gold.PLP.Chemscore.Hbond>
2.9500

> <Gold.PLP.Chemscore.CHOScore>
0.0000

> <Gold.PLP.Chemscore.Metal>
0.0000

> <Gold.Chemscore.Hbonds>
donor molecule, donor type, donor heavy atom, donor atom, acceptor molecule, acceptor atom, score
      L1  H     7    24       P1  7948  1.00
      L1  H    10    25       P1  7948  0.95
      P1  H  7997  8010       L1     2  1.00

> <Gold.PLP.Chemscore.Internal.Correction>
0.0060

> <Gold.Rescore>
     Score         DG    S(hbond)    S(metal)    S(lipo)     H(rot)  DE(clash)    DE(int)     intcor
     15.94     -17.25       2.51        0.00      61.61       1.50       0.01       1.31       ----

> <Gold.Chemscore.Fitness>
15.9403

> <Gold.Chemscore.DG>
-17.2533

> <Gold.Chemscore.ZeroCoef>
-5.4800

> <Gold.Chemscore.Hbond>
2.5143

> <Gold.Chemscore.Metal>
0.0000

> <Gold.Chemscore.Lipo>
61.6081

> <Gold.Chemscore.Internal_Hbond>
0.0000

> <Gold.Chemscore.DEClash>
0.0069

> <Gold.Chemscore.DEInternal>
1.3062

> <Gold.Chemscore.Rot>
1.4971

> <Gold.Chemscore.Internal.Correction>
   9.000000E+99

> <Gold.Chemscore.Hbonds>
donor molecule, donor type, donor heavy atom, donor atom, acceptor molecule, acceptor atom, score
      L1  H     7    24       P1  7948  0.45
      L1  H    10    25       P1  7948  0.21
      P1  H  7997  8010       L1     2  0.74

> <Gold.Chemscore.Hbond.Weighted>
-8.3978

> <Gold.Chemscore.Metal.Weighted>
-0.0000

> <Gold.Chemscore.Lipo.Weighted>
-7.2081

> <Gold.Chemscore.Internal_Hbond.Weighted>
0.0000

> <Gold.Chemscore.DEClash.Weighted>
0.0069

> <Gold.Chemscore.DEInternal.Weighted>
1.3062

> <Gold.Chemscore.Rot.Weighted>
3.8326

> <Gold.Chemscore.Internal.Correction.Weighted>
   9.000000E+99

> <Gold.Protein.RotatedTorsions>
[ 6907 6896 6895 6894 ] final  -28.43 input  -60.11 | X-H torsion
[ 7974 7965 7964 7962 ] final -117.04 input  175.53 | X-H torsion
[ 8008 7997 7996 7995 ] final   64.30 input   59.86 | X-H torsion
[ 10167 10162 10161 10158 ] final -118.04 input  -65.29 | X-H torsion
[ 10718 10713 10712 10709 ] final    5.23 input   66.30 | X-H torsion
[ 10763 10752 10751 10750 ] final  -31.01 input  -60.55 | X-H torsion
[ 11005 11000 10999 10996 ] final  -53.03 input  -57.11 | X-H torsion

> <Gold.Protein.ActiveResidues>
 VAL166  LYS551  ARG553  GLY616  TRP617  ASP618  TYR619  PRO620  LYS621  CYS622 
 ASP623  PHE694  ASN695  SER759  ASP760  ASP761  ALA762  ILE779  LEU786  VAL792 
 PHE793  MET794  SER795  GLU796  ALA797  LYS798  CYS799  TRP800  GLU811  SER814 

> <Gold.Protein.RotatedAtoms>
  151.1330  135.0140  159.8590 H   0  0  0  0  0  0  0  0  0  0  0  0  # atno 6907 bound_to 6896
  152.5451  134.1588  159.8559 H   0  0  0  0  0  0  0  0  0  0  0  0  # atno 6908 bound_to 6896
  151.1656  133.4772  159.2627 H   0  0  0  0  0  0  0  0  0  0  0  0  # atno 6909 bound_to 6896
  145.0898  140.8482  143.3989 H   0  0  0  0  0  0  0  0  0  0  0  0  # atno 7974 bound_to 7965
  155.6439  140.3497  155.4724 H   0  0  0  0  0  0  0  0  0  0  0  0  # atno 8008 bound_to 7997
  155.9903  140.1192  157.0667 H   0  0  0  0  0  0  0  0  0  0  0  0  # atno 8009 bound_to 7997
  154.4217  140.1120  156.5543 H   0  0  0  0  0  0  0  0  0  0  0  0  # atno 8010 bound_to 7997
  140.0618  143.4960  152.2027 H   0  0  0  0  0  0  0  0  0  0  0  0  # atno 10167 bound_to 10162
  156.9043  130.5733  149.5647 H   0  0  0  0  0  0  0  0  0  0  0  0  # atno 10718 bound_to 10713
  153.7903  135.6898  153.4872 H   0  0  0  0  0  0  0  0  0  0  0  0  # atno 10763 bound_to 10752
  153.1754  135.4527  154.9956 H   0  0  0  0  0  0  0  0  0  0  0  0  # atno 10764 bound_to 10752
  154.8047  135.3352  154.7400 H   0  0  0  0  0  0  0  0  0  0  0  0  # atno 10765 bound_to 10752
  141.0955  133.6625  156.4112 H   0  0  0  0  0  0  0  0  0  0  0  0  # atno 11005 bound_to 11000
  145.1079  139.2777  143.5652 LP  0  0  0  0  0  0  0  0  0  0  0  0  # atno 17320 bound_to 7965
  146.3531  140.0666  142.8626 LP  0  0  0  0  0  0  0  0  0  0  0  0  # atno 17321 bound_to 7965
  139.5889  144.7542  151.3450 LP  0  0  0  0  0  0  0  0  0  0  0  0  # atno 17342 bound_to 10162
  140.7168  143.7244  150.7671 LP  0  0  0  0  0  0  0  0  0  0  0  0  # atno 17343 bound_to 10162
  156.0567  130.5627  150.9106 LP  0  0  0  0  0  0  0  0  0  0  0  0  # atno 17370 bound_to 10713
  157.6007  131.0941  150.8965 LP  0  0  0  0  0  0  0  0  0  0  0  0  # atno 17371 bound_to 10713
  140.5150  134.6359  157.5298 LP  0  0  0  0  0  0  0  0  0  0  0  0  # atno 17394 bound_to 11000
  139.9791  134.7167  155.9893 LP  0  0  0  0  0  0  0  0  0  0  0  0  # atno 17395 bound_to 11000

$$$$
