AV-unprocessed.smi:1596|AV-procd|sdf|6417|dock6
  -GOLD-   22720 7 53D 1   1.00000     0.00000
 Structure written by MMmdl.
 49 50  0  0  0  0  0  0  0  0  2 V2000
  153.0327  142.8938  161.9333 C   0  0  0  0  0  0  0  0  0  0  0  0
  153.5477  141.9736  160.8164 C   0  0  0  0  0  0  0  0  0  0  0  0
  152.9796  142.2856  159.5023 N   0  0  0  0  0  0  0  0  0  0  0  0
  152.8776  143.6820  159.0777 C   0  0  0  0  0  0  0  0  0  0  0  0
  151.4520  144.2452  159.1779 C   0  0  0  0  0  0  0  0  0  0  0  0
  152.3732  141.2611  158.7343 C   0  0  0  0  0  0  0  0  0  0  0  0
  151.1942  141.4471  157.9691 C   0  0  0  0  0  0  0  0  0  0  0  0
  150.6550  140.3735  157.2309 C   0  0  0  0  0  0  0  0  0  0  0  0
  151.2963  139.1181  157.2460 C   0  0  0  0  0  0  0  0  0  0  0  0
  150.7093  138.0605  156.4996 N   0  0  0  0  0  0  0  0  0  0  0  0
  151.3003  136.9580  156.0074 C   0  0  0  0  0  0  0  0  0  0  0  0
  152.5010  136.6994  156.0888 O   0  0  0  0  0  0  0  0  0  0  0  0
  150.4128  136.1652  155.3899 N   0  0  0  0  0  0  0  0  0  0  0  0
  150.7265  134.8977  154.7362 C   0  0  2  0  0  0  0  0  0  0  0  0
  149.4418  134.2941  154.1398 C   0  0  0  0  0  0  0  0  0  0  0  0
  149.7107  132.9313  153.4777 C   0  0  0  0  0  0  0  0  0  0  0  0
  150.3944  131.9405  154.4387 C   0  0  2  0  0  0  0  0  0  0  0  0
  149.4872  131.5388  155.4462 O   0  0  0  0  0  0  0  0  0  0  0  0
  151.6561  132.5510  155.0773 C   0  0  0  0  0  0  0  0  0  0  0  0
  151.3777  133.9155  155.7315 C   0  0  0  0  0  0  0  0  0  0  0  0
  152.4642  138.9760  158.0311 C   0  0  0  0  0  0  0  0  0  0  0  0
  152.9437  140.0310  158.7242 N   0  3  0  0  0  0  0  0  0  0  0  0
  153.4581  142.6025  162.8936 H   0  0  0  0  0  0  0  0  0  0  0  0
  151.9477  142.8450  162.0268 H   0  0  0  0  0  0  0  0  0  0  0  0
  153.3080  143.9329  161.7592 H   0  0  0  0  0  0  0  0  0  0  0  0
  154.6332  142.0582  160.7610 H   0  0  0  0  0  0  0  0  0  0  0  0
  153.3543  140.9310  161.0704 H   0  0  0  0  0  0  0  0  0  0  0  0
  153.5376  144.2859  159.7009 H   0  0  0  0  0  0  0  0  0  0  0  0
  153.2636  143.7951  158.0649 H   0  0  0  0  0  0  0  0  0  0  0  0
  151.4218  145.2732  158.8170 H   0  0  0  0  0  0  0  0  0  0  0  0
  151.0946  144.2534  160.2065 H   0  0  0  0  0  0  0  0  0  0  0  0
  150.7450  143.6674  158.5824 H   0  0  0  0  0  0  0  0  0  0  0  0
  150.6825  142.3966  157.9356 H   0  0  0  0  0  0  0  0  0  0  0  0
  149.7543  140.5198  156.6525 H   0  0  0  0  0  0  0  0  0  0  0  0
  149.7302  138.1738  156.2808 H   0  0  0  0  0  0  0  0  0  0  0  0
  149.4467  136.4571  155.3677 H   0  0  0  0  0  0  0  0  0  0  0  0
  151.4242  135.0866  153.9178 H   0  0  0  0  0  0  0  0  0  0  0  0
  148.6904  134.1755  154.9220 H   0  0  0  0  0  0  0  0  0  0  0  0
  149.0142  134.9774  153.4053 H   0  0  0  0  0  0  0  0  0  0  0  0
  148.7799  132.5083  153.0981 H   0  0  0  0  0  0  0  0  0  0  0  0
  150.3519  133.0821  152.6084 H   0  0  0  0  0  0  0  0  0  0  0  0
  150.6728  131.0428  153.8857 H   0  0  0  0  0  0  0  0  0  0  0  0
  149.2871  132.2884  155.9860 H   0  0  0  0  0  0  0  0  0  0  0  0
  152.0811  131.8637  155.8097 H   0  0  0  0  0  0  0  0  0  0  0  0
  152.4165  132.6800  154.3059 H   0  0  0  0  0  0  0  0  0  0  0  0
  152.3116  134.3289  156.1137 H   0  0  0  0  0  0  0  0  0  0  0  0
  150.7269  133.7793  156.5964 H   0  0  0  0  0  0  0  0  0  0  0  0
  153.0302  138.0641  158.1472 H   0  0  0  0  0  0  0  0  0  0  0  0
  153.7887  139.8908  159.2784 H   0  0  0  0  0  0  0  0  0  0  0  0
  1  2  1  0  0  0  0
  1 23  1  0  0  0  0
  1 24  1  0  0  0  0
  1 25  1  0  0  0  0
  2  3  1  0  0  0  0
  2 26  1  0  0  0  0
  2 27  1  0  0  0  0
  3  4  1  0  0  0  0
  3  6  1  0  0  0  0
  4  5  1  0  0  0  0
  4 28  1  0  0  0  0
  4 29  1  0  0  0  0
  5 30  1  0  0  0  0
  5 31  1  0  0  0  0
  5 32  1  0  0  0  0
  6 22  1  0  0  0  0
  6  7  2  0  0  0  0
  7  8  1  0  0  0  0
  7 33  1  0  0  0  0
  8  9  2  0  0  0  0
  8 34  1  0  0  0  0
  9 10  1  0  0  0  0
  9 21  1  0  0  0  0
 10 11  1  0  0  0  0
 10 35  1  0  0  0  0
 11 12  2  0  0  0  0
 11 13  1  0  0  0  0
 13 14  1  0  0  0  0
 13 36  1  0  0  0  0
 14 20  1  0  0  0  0
 14 15  1  0  0  0  0
 14 37  1  0  0  0  0
 15 16  1  0  0  0  0
 15 38  1  0  0  0  0
 15 39  1  0  0  0  0
 16 17  1  0  0  0  0
 16 40  1  0  0  0  0
 16 41  1  0  0  0  0
 17 18  1  0  0  0  0
 17 19  1  0  0  0  0
 17 42  1  0  0  0  0
 18 43  1  0  0  0  0
 19 20  1  0  0  0  0
 19 44  1  0  0  0  0
 19 45  1  0  0  0  0
 20 46  1  0  0  0  0
 20 47  1  0  0  0  0
 21 22  2  0  0  0  0
 21 48  1  0  0  0  0
 22 49  1  0  0  0  0
M  CHG  1  22   1
M  END
> <s_m_source_file>
AV-unprocessed.smi

> <i_m_source_file_index>
1596

> <i_lp_mmshare_version>
43012

> <i_f3d_flags>
0

> <s_epik_input>
W0NIM11bQ0gyXU4oW0NIMl1bQ0gzXSljMVtjSF1bY0hdYyhbY0hdbjEpW05IXUMoPU8pW05IXVtDQEBIXTJbQ0gyXVtDSDJdW0NAQEhdKFtPSF0pW0NIMl1bQ0gyXTI=

> <s_epik_cmdline>
J2VwaWtfcHl0aG9uJywgJy1waCcsICc3LjAnLCAnLXRuJywgJzgnLCAnLW1hJywgJzIwMCcsICctbWV0YWxfYmluZGluZycsICctaW1hZScsICc8aW5maWxlLm1hZT4nLCAnLW9tYWUnLCAnPG91dGZpbGUubWFlPic=

> <r_lp_tautomer_probability>
0.999994

> <r_epik_Ionization_Penalty>
0.224167

> <r_epik_Ionization_Penalty_Charging>
0.224146

> <r_epik_Ionization_Penalty_Neutral>
2.1696e-05

> <r_epik_State_Penalty>
0.0144855

> <r_epik_Charging_Adjusted_Penalty>
0.238631

> <i_epik_Tot_Q>
1

> <i_epik_Tot_abs_Q>
1

> <r_epik_Metal_State_Penalty>
0.0446449

> <b_epik_Metal_Only>
0

> <s_lp_Force_Field>
OPLS_2005

> <r_lp_Energy>
23.6459

> <b_lp_Chiralities_Consistent>
1

> <s_lp_Variant>
AV-unprocessed.smi:1596-2

> <Gold.Version>
5.8.1

> <Gold.Id.Protein>
6NUR|6NUR_protein|mol2

> <Gold.PLP.Fitness>
44.9150

> <Gold.PLP.PLP>
-43.6015

> <Gold.PLP.part.hbond>
-1.0000

> <Gold.PLP.part.metal>
0.0000

> <Gold.PLP.part.buried>
-5.0476

> <Gold.PLP.part.nonpolar>
-37.6403

> <Gold.PLP.part.repulsive>
0.1607

> <Gold.PLP.ligand.clash>
0.0000

> <Gold.PLP.ligand.torsion>
0.8990

> <Gold.PLP.Chemscore.Hbond>
1.0000

> <Gold.PLP.Chemscore.CHOScore>
0.0000

> <Gold.PLP.Chemscore.Metal>
0.0000

> <Gold.Chemscore.Hbonds>
donor molecule, donor type, donor heavy atom, donor atom, acceptor molecule, acceptor atom, score
      P1  H 10752 10764       L1    12  0.93

> <Gold.PLP.Chemscore.Internal.Correction>
0.1115

> <Gold.Rescore>
     Score         DG    S(hbond)    S(metal)    S(lipo)     H(rot)  DE(clash)    DE(int)     intcor
     13.87     -15.79       0.99        0.00      99.88       1.83       0.01       1.90       ----

> <Gold.Chemscore.Fitness>
13.8740

> <Gold.Chemscore.DG>
-15.7893

> <Gold.Chemscore.ZeroCoef>
-5.4800

> <Gold.Chemscore.Hbond>
0.9919

> <Gold.Chemscore.Metal>
0.0000

> <Gold.Chemscore.Lipo>
99.8768

> <Gold.Chemscore.Internal_Hbond>
0.0000

> <Gold.Chemscore.DEClash>
0.0149

> <Gold.Chemscore.DEInternal>
1.9004

> <Gold.Chemscore.Rot>
1.8317

> <Gold.Chemscore.Internal.Correction>
   9.000000E+99

> <Gold.Chemscore.Hbonds>
donor molecule, donor type, donor heavy atom, donor atom, acceptor molecule, acceptor atom, score
      P1  H 10752 10764       L1    12  0.81

> <Gold.Chemscore.Hbond.Weighted>
-3.3129

> <Gold.Chemscore.Metal.Weighted>
-0.0000

> <Gold.Chemscore.Lipo.Weighted>
-11.6856

> <Gold.Chemscore.Internal_Hbond.Weighted>
0.0000

> <Gold.Chemscore.DEClash.Weighted>
0.0149

> <Gold.Chemscore.DEInternal.Weighted>
1.9004

> <Gold.Chemscore.Rot.Weighted>
4.6892

> <Gold.Chemscore.Internal.Correction.Weighted>
   9.000000E+99

> <Gold.Protein.RotatedTorsions>
[ 6907 6896 6895 6894 ] final   -6.80 input  -60.11 | X-H torsion
[ 7974 7965 7964 7962 ] final -178.81 input  175.53 | X-H torsion
[ 8008 7997 7996 7995 ] final   -9.75 input   59.86 | X-H torsion
[ 10167 10162 10161 10158 ] final  164.44 input  -65.29 | X-H torsion
[ 10718 10713 10712 10709 ] final -126.30 input   66.30 | X-H torsion
[ 10763 10752 10751 10750 ] final  -38.75 input  -60.55 | X-H torsion
[ 11005 11000 10999 10996 ] final -122.51 input  -57.11 | X-H torsion

> <Gold.Protein.ActiveResidues>
 VAL166  LYS551  ARG553  GLY616  TRP617  ASP618  TYR619  PRO620  LYS621  CYS622 
 ASP623  PHE694  ASN695  SER759  ASP760  ASP761  ALA762  ILE779  LEU786  VAL792 
 PHE793  MET794  SER795  GLU796  ALA797  LYS798  CYS799  TRP800  GLU811  SER814 

> <Gold.Protein.RotatedAtoms>
  151.4598  135.1037  159.9721 H   0  0  0  0  0  0  0  0  0  0  0  0  # atno 6907 bound_to 6896
  152.4857  133.8363  159.7140 H   0  0  0  0  0  0  0  0  0  0  0  0  # atno 6908 bound_to 6896
  150.8965  133.7114  159.2917 H   0  0  0  0  0  0  0  0  0  0  0  0  # atno 6909 bound_to 6896
  144.7133  140.0812  143.6425 H   0  0  0  0  0  0  0  0  0  0  0  0  # atno 7974 bound_to 7965
  154.5617  140.2347  155.8325 H   0  0  0  0  0  0  0  0  0  0  0  0  # atno 8008 bound_to 7997
  156.2035  140.3046  155.9536 H   0  0  0  0  0  0  0  0  0  0  0  0  # atno 8009 bound_to 7997
  155.2876  140.0425  157.3011 H   0  0  0  0  0  0  0  0  0  0  0  0  # atno 8010 bound_to 7997
  139.4889  144.4235  151.9158 H   0  0  0  0  0  0  0  0  0  0  0  0  # atno 10167 bound_to 10162
  156.1753  130.6695  151.0233 H   0  0  0  0  0  0  0  0  0  0  0  0  # atno 10718 bound_to 10713
  153.9180  135.6785  153.4748 H   0  0  0  0  0  0  0  0  0  0  0  0  # atno 10763 bound_to 10752
  153.1043  135.4813  154.8921 H   0  0  0  0  0  0  0  0  0  0  0  0  # atno 10764 bound_to 10752
  154.7492  135.3180  154.8544 H   0  0  0  0  0  0  0  0  0  0  0  0  # atno 10765 bound_to 10752
  140.9989  134.0431  157.3562 H   0  0  0  0  0  0  0  0  0  0  0  0  # atno 11005 bound_to 11000
  145.9700  139.2863  143.1104 LP  0  0  0  0  0  0  0  0  0  0  0  0  # atno 17320 bound_to 7965
  145.9126  140.9169  143.0446 LP  0  0  0  0  0  0  0  0  0  0  0  0  # atno 17321 bound_to 7965
  140.3680  144.2891  150.5924 LP  0  0  0  0  0  0  0  0  0  0  0  0  # atno 17342 bound_to 10162
  140.5344  143.2236  151.8186 LP  0  0  0  0  0  0  0  0  0  0  0  0  # atno 17343 bound_to 10162
  157.6831  131.0832  150.7316 LP  0  0  0  0  0  0  0  0  0  0  0  0  # atno 17370 bound_to 10713
  156.7374  130.4728  149.5485 LP  0  0  0  0  0  0  0  0  0  0  0  0  # atno 17371 bound_to 10713
  139.9029  135.0170  156.7352 LP  0  0  0  0  0  0  0  0  0  0  0  0  # atno 17394 bound_to 11000
  140.6920  133.9381  155.7972 LP  0  0  0  0  0  0  0  0  0  0  0  0  # atno 17395 bound_to 11000

$$$$
