AV-unprocessed.smi:945|AV-procd|sdf|4233|dock10
  -GOLD-   22720 2143D 1   1.00000     0.00000
 Structure written by MMmdl.
 31 32  0  0  0  0  0  0  0  0  1 V2000
  152.8027  142.4116  162.0742 C   0  0  0  0  0  0  0  0  0  0  0  0
  152.4318  143.8187  161.5934 C   0  0  0  0  0  0  0  0  0  0  0  0
  151.9803  143.8365  160.1714 C   0  0  0  0  0  0  0  0  0  0  0  0
  151.8279  142.7332  159.4342 N   0  0  0  0  0  0  0  0  0  0  0  0
  151.4317  143.0121  158.1224 C   0  0  0  0  0  0  0  0  0  0  0  0
  151.2180  141.8909  157.1516 C   0  0  0  0  0  0  0  0  0  0  0  0
  149.9520  141.0806  157.4761 C   0  0  0  0  0  0  0  0  0  0  0  0
  149.0920  140.9281  156.3082 N   0  0  0  0  0  0  0  0  0  0  0  0
  149.5107  140.5873  155.0799 C   0  0  0  0  0  0  0  0  0  0  0  0
  150.6939  140.3771  154.8085 O   0  0  0  0  0  0  0  0  0  0  0  0
  148.4122  140.4834  154.0728 C   0  0  0  0  0  0  0  0  0  0  0  0
  147.6327  141.7430  153.7543 C   0  0  0  0  0  0  0  0  0  0  0  0
  146.9878  140.6460  154.5633 C   0  0  0  0  0  0  0  0  0  0  0  0
  151.2947  144.3548  157.8726 C   0  0  0  0  0  0  0  0  0  0  0  0
  151.6643  145.3183  159.2761 S   0  0  0  0  0  0  0  0  0  0  0  0
  153.1274  142.4294  163.1146 H   0  0  0  0  0  0  0  0  0  0  0  0
  153.6140  141.9928  161.4780 H   0  0  0  0  0  0  0  0  0  0  0  0
  151.9505  141.7349  162.0028 H   0  0  0  0  0  0  0  0  0  0  0  0
  151.6399  144.2300  162.2204 H   0  0  0  0  0  0  0  0  0  0  0  0
  153.2892  144.4843  161.6962 H   0  0  0  0  0  0  0  0  0  0  0  0
  151.1468  142.2873  156.1378 H   0  0  0  0  0  0  0  0  0  0  0  0
  152.0871  141.2322  157.1537 H   0  0  0  0  0  0  0  0  0  0  0  0
  150.2183  140.1003  157.8755 H   0  0  0  0  0  0  0  0  0  0  0  0
  149.3767  141.5854  158.2527 H   0  0  0  0  0  0  0  0  0  0  0  0
  148.1038  141.0837  156.4466 H   0  0  0  0  0  0  0  0  0  0  0  0
  148.5698  139.7864  153.2511 H   0  0  0  0  0  0  0  0  0  0  0  0
  147.8929  142.6622  154.2766 H   0  0  0  0  0  0  0  0  0  0  0  0
  147.3086  141.8762  152.7242 H   0  0  0  0  0  0  0  0  0  0  0  0
  146.2277  140.0351  154.0809 H   0  0  0  0  0  0  0  0  0  0  0  0
  146.8195  140.8383  155.6214 H   0  0  0  0  0  0  0  0  0  0  0  0
  151.0071  144.8339  156.9483 H   0  0  0  0  0  0  0  0  0  0  0  0
  1  2  1  0  0  0  0
  1 16  1  0  0  0  0
  1 17  1  0  0  0  0
  1 18  1  0  0  0  0
  2  3  1  0  0  0  0
  2 19  1  0  0  0  0
  2 20  1  0  0  0  0
  3 15  1  0  0  0  0
  3  4  2  0  0  0  0
  4  5  1  0  0  0  0
  5  6  1  0  0  0  0
  5 14  2  0  0  0  0
  6  7  1  0  0  0  0
  6 21  1  0  0  0  0
  6 22  1  0  0  0  0
  7  8  1  0  0  0  0
  7 23  1  0  0  0  0
  7 24  1  0  0  0  0
  8  9  1  0  0  0  0
  8 25  1  0  0  0  0
  9 10  2  0  0  0  0
  9 11  1  0  0  0  0
 11 13  1  0  0  0  0
 11 12  1  0  0  0  0
 11 26  1  0  0  0  0
 12 13  1  0  0  0  0
 12 27  1  0  0  0  0
 12 28  1  0  0  0  0
 13 29  1  0  0  0  0
 13 30  1  0  0  0  0
 14 15  1  0  0  0  0
 14 31  1  0  0  0  0
M  END
> <s_m_source_file>
AV-unprocessed.smi

> <i_m_source_file_index>
945

> <i_lp_mmshare_version>
43012

> <i_f3d_flags>
0

> <s_epik_input>
W0NIM11bQ0gyXWMxbmMoW2NIXXMxKVtDSDJdW0NIMl1bTkhdQyg9TylbQ0hdMltDSDJdW0NIMl0y

> <s_epik_cmdline>
J2VwaWtfcHl0aG9uJywgJy1waCcsICc3LjAnLCAnLXRuJywgJzgnLCAnLW1hJywgJzIwMCcsICctbWV0YWxfYmluZGluZycsICctaW1hZScsICc8aW5maWxlLm1hZT4nLCAnLW9tYWUnLCAnPG91dGZpbGUubWFlPic=

> <r_epik_Ionization_Penalty>
0.00109668

> <r_epik_Ionization_Penalty_Charging>
0

> <r_epik_Ionization_Penalty_Neutral>
0.00109668

> <r_epik_State_Penalty>
0.000719322

> <r_epik_Charging_Adjusted_Penalty>
0.000719322

> <i_epik_Tot_Q>
0

> <i_epik_Tot_abs_Q>
0

> <r_epik_Metal_State_Penalty>
-0

> <b_epik_Metal_Only>
0

> <s_lp_Force_Field>
OPLS_2005

> <r_lp_Energy>
-3.93776

> <b_lp_Chiralities_Consistent>
1

> <s_lp_Variant>
AV-unprocessed.smi:945-1

> <Gold.Version>
5.8.1

> <Gold.Id.Protein>
6NUR|6NUR_protein|mol2

> <Gold.PLP.Fitness>
42.4525

> <Gold.PLP.PLP>
-37.7080

> <Gold.PLP.part.hbond>
-1.0000

> <Gold.PLP.part.metal>
0.0000

> <Gold.PLP.part.buried>
-6.3223

> <Gold.PLP.part.nonpolar>
-30.9672

> <Gold.PLP.part.repulsive>
0.1006

> <Gold.PLP.ligand.clash>
0.0708

> <Gold.PLP.ligand.torsion>
0.6277

> <Gold.PLP.Chemscore.Hbond>
1.0000

> <Gold.PLP.Chemscore.CHOScore>
0.9939

> <Gold.PLP.Chemscore.Metal>
0.0000

> <Gold.Chemscore.Hbonds>
donor molecule, donor type, donor heavy atom, donor atom, acceptor molecule, acceptor atom, score
      P1  H  7989  7998       L1    10  1.00
      L1  C    14    31       P1  8028  1.00

> <Gold.PLP.Chemscore.Internal.Correction>
0.0888

> <Gold.Rescore>
     Score         DG    S(hbond)    S(metal)    S(lipo)     H(rot)  DE(clash)    DE(int)     intcor
     15.20     -16.87       0.99        0.00     103.55       1.58       0.00       1.67       ----

> <Gold.Chemscore.Fitness>
15.2004

> <Gold.Chemscore.DG>
-16.8705

> <Gold.Chemscore.ZeroCoef>
-5.4800

> <Gold.Chemscore.Hbond>
0.9909

> <Gold.Chemscore.Metal>
0.0000

> <Gold.Chemscore.Lipo>
103.5499

> <Gold.Chemscore.Internal_Hbond>
0.0000

> <Gold.Chemscore.DEClash>
0.0021

> <Gold.Chemscore.DEInternal>
1.6680

> <Gold.Chemscore.Rot>
1.5760

> <Gold.Chemscore.Internal.Correction>
   9.000000E+99

> <Gold.Chemscore.Hbonds>
donor molecule, donor type, donor heavy atom, donor atom, acceptor molecule, acceptor atom, score
      P1  H  7989  7998       L1    10  0.98

> <Gold.Chemscore.Hbond.Weighted>
-3.3097

> <Gold.Chemscore.Metal.Weighted>
-0.0000

> <Gold.Chemscore.Lipo.Weighted>
-12.1153

> <Gold.Chemscore.Internal_Hbond.Weighted>
0.0000

> <Gold.Chemscore.DEClash.Weighted>
0.0021

> <Gold.Chemscore.DEInternal.Weighted>
1.6680

> <Gold.Chemscore.Rot.Weighted>
4.0346

> <Gold.Chemscore.Internal.Correction.Weighted>
   9.000000E+99

> <Gold.Protein.RotatedTorsions>
[ 6907 6896 6895 6894 ] final  136.57 input  -60.11 | X-H torsion
[ 7974 7965 7964 7962 ] final  107.57 input  175.53 | X-H torsion
[ 8008 7997 7996 7995 ] final  -29.40 input   59.86 | X-H torsion
[ 10167 10162 10161 10158 ] final  -70.76 input  -65.29 | X-H torsion
[ 10718 10713 10712 10709 ] final   74.17 input   66.30 | X-H torsion
[ 10763 10752 10751 10750 ] final   42.72 input  -60.55 | X-H torsion
[ 11005 11000 10999 10996 ] final   36.77 input  -57.11 | X-H torsion

> <Gold.Protein.ActiveResidues>
 VAL166  LYS551  ARG553  GLY616  TRP617  ASP618  TYR619  PRO620  LYS621  CYS622 
 ASP623  PHE694  ASN695  SER759  ASP760  ASP761  ALA762  ILE779  LEU786  VAL792 
 PHE793  MET794  SER795  GLU796  ALA797  LYS798  CYS799  TRP800  GLU811  SER814 

> <Gold.Protein.RotatedAtoms>
  152.2878  133.5532  159.5538 H   0  0  0  0  0  0  0  0  0  0  0  0  # atno 6907 bound_to 6896
  150.7222  134.0471  159.3794 H   0  0  0  0  0  0  0  0  0  0  0  0  # atno 6908 bound_to 6896
  151.8379  135.0600  160.0495 H   0  0  0  0  0  0  0  0  0  0  0  0  # atno 6909 bound_to 6896
  145.2919  139.2597  143.3860 H   0  0  0  0  0  0  0  0  0  0  0  0  # atno 7974 bound_to 7965
  154.4291  140.1819  156.1242 H   0  0  0  0  0  0  0  0  0  0  0  0  # atno 8008 bound_to 7997
  156.0119  140.3349  155.6924 H   0  0  0  0  0  0  0  0  0  0  0  0  # atno 8009 bound_to 7997
  155.6099  140.0649  157.2700 H   0  0  0  0  0  0  0  0  0  0  0  0  # atno 8010 bound_to 7997
  140.5327  143.2320  151.7234 H   0  0  0  0  0  0  0  0  0  0  0  0  # atno 10167 bound_to 10162
  157.6580  130.9665  150.1173 H   0  0  0  0  0  0  0  0  0  0  0  0  # atno 10718 bound_to 10713
  152.9876  135.6123  154.2996 H   0  0  0  0  0  0  0  0  0  0  0  0  # atno 10763 bound_to 10752
  154.2717  135.2779  155.2737 H   0  0  0  0  0  0  0  0  0  0  0  0  # atno 10764 bound_to 10752
  154.5116  135.5839  153.6666 H   0  0  0  0  0  0  0  0  0  0  0  0  # atno 10765 bound_to 10752
  140.2292  134.3547  155.7971 H   0  0  0  0  0  0  0  0  0  0  0  0  # atno 11005 bound_to 11000
  146.3182  140.3412  142.8648 LP  0  0  0  0  0  0  0  0  0  0  0  0  # atno 17320 bound_to 7965
  144.9166  140.7819  143.5774 LP  0  0  0  0  0  0  0  0  0  0  0  0  # atno 17321 bound_to 7965
  139.4960  144.4090  152.0101 LP  0  0  0  0  0  0  0  0  0  0  0  0  # atno 17342 bound_to 10162
  140.3193  144.3446  150.6013 LP  0  0  0  0  0  0  0  0  0  0  0  0  # atno 17343 bound_to 10162
  156.2054  130.3663  149.8736 LP  0  0  0  0  0  0  0  0  0  0  0  0  # atno 17370 bound_to 10713
  156.6629  130.8789  151.3550 LP  0  0  0  0  0  0  0  0  0  0  0  0  # atno 17371 bound_to 10713
  141.2219  133.7236  156.8704 LP  0  0  0  0  0  0  0  0  0  0  0  0  # atno 17394 bound_to 11000
  140.1768  134.9061  157.2900 LP  0  0  0  0  0  0  0  0  0  0  0  0  # atno 17395 bound_to 11000

$$$$
