AV-unprocessed.smi:914|AV-procd|sdf|4151|dock3
  -GOLD-   22720 2 53D 1   1.00000     0.00000
 Structure written by MMmdl.
 33 34  0  0  0  0  0  0  0  0  1 V2000
  146.7376  139.7260  152.2640 O   0  0  0  0  0  0  0  0  0  0  0  0
  147.6477  139.9939  153.0460 C   0  0  0  0  0  0  0  0  0  0  0  0
  148.7578  139.1487  153.1378 N   0  0  0  0  0  0  0  0  0  0  0  0
  149.8536  139.3358  153.9811 C   0  0  0  0  0  0  0  0  0  0  0  0
  150.7689  138.5125  153.9904 O   0  0  0  0  0  0  0  0  0  0  0  0
  149.8374  140.4888  154.7989 N   0  0  0  0  0  0  0  0  0  0  0  0
  150.9336  140.6860  155.7161 C   0  0  0  0  0  0  0  0  0  0  0  0
  150.4613  141.1428  157.1053 C   0  0  0  0  0  0  0  0  0  0  0  0
  151.2258  142.2730  157.4883 O   0  0  0  0  0  0  0  0  0  0  0  0
  152.1585  141.9968  158.5179 C   0  0  0  0  0  0  0  0  0  0  0  0
  152.5075  143.3168  159.2151 C   0  0  1  0  0  0  0  0  0  0  0  0
  151.3992  144.3665  159.1478 C   0  0  0  0  0  0  0  0  0  0  0  0
  151.7375  145.2361  160.3364 C   0  0  0  0  0  0  0  0  0  0  0  0
  152.2053  144.2024  161.3580 C   0  0  0  0  0  0  0  0  0  0  0  0
  152.7295  143.1089  160.6069 O   0  0  0  0  0  0  0  0  0  0  0  0
  148.7523  141.3501  154.7478 C   0  0  0  0  0  0  0  0  0  0  0  0
  147.6883  141.1567  153.9319 C   0  0  0  0  0  0  0  0  0  0  0  0
  146.3680  142.2704  153.9342 Cl  0  0  0  0  0  0  0  0  0  0  0  0
  148.7645  138.3299  152.5470 H   0  0  0  0  0  0  0  0  0  0  0  0
  151.5095  139.7593  155.7541 H   0  0  0  0  0  0  0  0  0  0  0  0
  151.5868  141.4317  155.2602 H   0  0  0  0  0  0  0  0  0  0  0  0
  149.3975  141.3848  157.0878 H   0  0  0  0  0  0  0  0  0  0  0  0
  150.6021  140.3418  157.8321 H   0  0  0  0  0  0  0  0  0  0  0  0
  151.7393  141.2899  159.2356 H   0  0  0  0  0  0  0  0  0  0  0  0
  153.0562  141.5448  158.0939 H   0  0  0  0  0  0  0  0  0  0  0  0
  153.4242  143.7310  158.7922 H   0  0  0  0  0  0  0  0  0  0  0  0
  151.3873  144.9132  158.2041 H   0  0  0  0  0  0  0  0  0  0  0  0
  150.4206  143.9051  159.2884 H   0  0  0  0  0  0  0  0  0  0  0  0
  152.5555  145.9122  160.0833 H   0  0  0  0  0  0  0  0  0  0  0  0
  150.8954  145.8330  160.6872 H   0  0  0  0  0  0  0  0  0  0  0  0
  152.9501  144.6074  162.0432 H   0  0  0  0  0  0  0  0  0  0  0  0
  151.3628  143.8424  161.9495 H   0  0  0  0  0  0  0  0  0  0  0  0
  148.7475  142.2154  155.3958 H   0  0  0  0  0  0  0  0  0  0  0  0
  1  2  2  0  0  0  0
  2 17  1  0  0  0  0
  2  3  1  0  0  0  0
  3 19  1  0  0  0  0
  3  4  1  0  0  0  0
  4  5  2  0  0  0  0
  4  6  1  0  0  0  0
  6  7  1  0  0  0  0
  6 16  1  0  0  0  0
  7  8  1  0  0  0  0
  7 20  1  0  0  0  0
  7 21  1  0  0  0  0
  8  9  1  0  0  0  0
  8 22  1  0  0  0  0
  8 23  1  0  0  0  0
  9 10  1  0  0  0  0
 10 11  1  0  0  0  0
 10 24  1  0  0  0  0
 10 25  1  0  0  0  0
 11 15  1  0  0  0  0
 11 12  1  0  0  0  0
 11 26  1  0  0  0  0
 12 13  1  0  0  0  0
 12 27  1  0  0  0  0
 12 28  1  0  0  0  0
 13 14  1  0  0  0  0
 13 29  1  0  0  0  0
 13 30  1  0  0  0  0
 14 15  1  0  0  0  0
 14 31  1  0  0  0  0
 14 32  1  0  0  0  0
 16 17  2  0  0  0  0
 16 33  1  0  0  0  0
 17 18  1  0  0  0  0
M  END
> <s_m_source_file>
AV-unprocessed.smi

> <i_m_source_file_index>
914

> <i_lp_mmshare_version>
43012

> <i_f3d_flags>
0

> <s_epik_input>
Tz1jMVtuSF1jKD1PKW4oW2NIXWMxQ2wpW0NIMl1bQ0gyXU9bQ0gyXVtDQEBIXTJbQ0gyXVtDSDJdW0NIMl1PMg==

> <s_epik_cmdline>
J2VwaWtfcHl0aG9uJywgJy1waCcsICc3LjAnLCAnLXRuJywgJzgnLCAnLW1hJywgJzIwMCcsICctbWV0YWxfYmluZGluZycsICctaW1hZScsICc8aW5maWxlLm1hZT4nLCAnLW9tYWUnLCAnPG91dGZpbGUubWFlPic=

> <r_lp_tautomer_probability>
0.999537

> <r_epik_Ionization_Penalty>
0.030751

> <r_epik_Ionization_Penalty_Charging>
0.030751

> <r_epik_Ionization_Penalty_Neutral>
1.46719e-11

> <r_epik_State_Penalty>
0.0253757

> <r_epik_Charging_Adjusted_Penalty>
0.0561266

> <i_epik_Tot_Q>
0

> <i_epik_Tot_abs_Q>
0

> <r_epik_Metal_State_Penalty>
2.25222

> <b_epik_Metal_Only>
0

> <s_lp_Force_Field>
OPLS_2005

> <r_lp_Energy>
21.1237

> <b_lp_Chiralities_Consistent>
1

> <s_lp_Variant>
AV-unprocessed.smi:914-2

> <Gold.Version>
5.8.1

> <Gold.Id.Protein>
6NUR|6NUR_protein|mol2

> <Gold.PLP.Fitness>
44.0682

> <Gold.PLP.PLP>
-41.2883

> <Gold.PLP.part.hbond>
-1.9675

> <Gold.PLP.part.metal>
0.0000

> <Gold.PLP.part.buried>
-4.0691

> <Gold.PLP.part.nonpolar>
-35.9873

> <Gold.PLP.part.repulsive>
1.4126

> <Gold.PLP.ligand.clash>
0.0000

> <Gold.PLP.ligand.torsion>
1.4866

> <Gold.PLP.Chemscore.Hbond>
0.9750

> <Gold.PLP.Chemscore.CHOScore>
0.9314

> <Gold.PLP.Chemscore.Metal>
0.0000

> <Gold.Chemscore.Hbonds>
donor molecule, donor type, donor heavy atom, donor atom, acceptor molecule, acceptor atom, score
      L1  H     3    19       P1  7948  0.62
      L1  C    16    33       P1  8028  1.00

> <Gold.PLP.Chemscore.Internal.Correction>
0.0339

> <Gold.Rescore>
     Score         DG    S(hbond)    S(metal)    S(lipo)     H(rot)  DE(clash)    DE(int)     intcor
     12.07     -13.71       0.99        0.00      88.73       2.14       0.37       1.27       ----

> <Gold.Chemscore.Fitness>
12.0680

> <Gold.Chemscore.DG>
-13.7099

> <Gold.Chemscore.ZeroCoef>
-5.4800

> <Gold.Chemscore.Hbond>
0.9944

> <Gold.Chemscore.Metal>
0.0000

> <Gold.Chemscore.Lipo>
88.7313

> <Gold.Chemscore.Internal_Hbond>
0.0000

> <Gold.Chemscore.DEClash>
0.3673

> <Gold.Chemscore.DEInternal>
1.2746

> <Gold.Chemscore.Rot>
2.1379

> <Gold.Chemscore.Internal.Correction>
   9.000000E+99

> <Gold.Chemscore.Hbonds>
donor molecule, donor type, donor heavy atom, donor atom, acceptor molecule, acceptor atom, score
      L1  H     3    19       P1  7948  0.62

> <Gold.Chemscore.Hbond.Weighted>
-3.3213

> <Gold.Chemscore.Metal.Weighted>
-0.0000

> <Gold.Chemscore.Lipo.Weighted>
-10.3816

> <Gold.Chemscore.Internal_Hbond.Weighted>
0.0000

> <Gold.Chemscore.DEClash.Weighted>
0.3673

> <Gold.Chemscore.DEInternal.Weighted>
1.2746

> <Gold.Chemscore.Rot.Weighted>
5.4730

> <Gold.Chemscore.Internal.Correction.Weighted>
   9.000000E+99

> <Gold.Protein.RotatedTorsions>
[ 6907 6896 6895 6894 ] final -163.72 input  -60.11 | X-H torsion
[ 7974 7965 7964 7962 ] final  111.43 input  175.53 | X-H torsion
[ 8008 7997 7996 7995 ] final   29.52 input   59.86 | X-H torsion
[ 10167 10162 10161 10158 ] final -140.52 input  -65.29 | X-H torsion
[ 10718 10713 10712 10709 ] final  -40.62 input   66.30 | X-H torsion
[ 10763 10752 10751 10750 ] final   54.57 input  -60.55 | X-H torsion
[ 11005 11000 10999 10996 ] final   23.67 input  -57.11 | X-H torsion

> <Gold.Protein.ActiveResidues>
 VAL166  LYS551  ARG553  GLY616  TRP617  ASP618  TYR619  PRO620  LYS621  CYS622 
 ASP623  PHE694  ASN695  SER759  ASP760  ASP761  ALA762  ILE779  LEU786  VAL792 
 PHE793  MET794  SER795  GLU796  ALA797  LYS798  CYS799  TRP800  GLU811  SER814 

> <Gold.Protein.RotatedAtoms>
  151.4005  133.3759  159.2731 H   0  0  0  0  0  0  0  0  0  0  0  0  # atno 6907 bound_to 6896
  150.9437  134.8845  159.7639 H   0  0  0  0  0  0  0  0  0  0  0  0  # atno 6908 bound_to 6896
  152.5082  134.3957  159.9451 H   0  0  0  0  0  0  0  0  0  0  0  0  # atno 6909 bound_to 6896
  145.2423  139.2773  143.4111 H   0  0  0  0  0  0  0  0  0  0  0  0  # atno 7974 bound_to 7965
  155.0757  140.3205  155.4616 H   0  0  0  0  0  0  0  0  0  0  0  0  # atno 8008 bound_to 7997
  156.2779  140.2104  156.5830 H   0  0  0  0  0  0  0  0  0  0  0  0  # atno 8009 bound_to 7997
  154.7019  140.0506  157.0453 H   0  0  0  0  0  0  0  0  0  0  0  0  # atno 8010 bound_to 7997
  139.8273  143.7493  152.2666 H   0  0  0  0  0  0  0  0  0  0  0  0  # atno 10167 bound_to 10162
  156.2793  130.4215  149.8354 H   0  0  0  0  0  0  0  0  0  0  0  0  # atno 10718 bound_to 10713
  152.9806  135.5740  154.4925 H   0  0  0  0  0  0  0  0  0  0  0  0  # atno 10763 bound_to 10752
  154.4457  135.2777  155.1818 H   0  0  0  0  0  0  0  0  0  0  0  0  # atno 10764 bound_to 10752
  154.3467  135.6218  153.5676 H   0  0  0  0  0  0  0  0  0  0  0  0  # atno 10765 bound_to 10752
  140.3670  134.2063  155.7669 H   0  0  0  0  0  0  0  0  0  0  0  0  # atno 11005 bound_to 11000
  146.3325  140.2790  142.8609 LP  0  0  0  0  0  0  0  0  0  0  0  0  # atno 17320 bound_to 7965
  144.9577  140.8244  143.5532 LP  0  0  0  0  0  0  0  0  0  0  0  0  # atno 17321 bound_to 7965
  139.7690  144.7482  151.0252 LP  0  0  0  0  0  0  0  0  0  0  0  0  # atno 17342 bound_to 10162
  140.7809  143.4666  151.0204 LP  0  0  0  0  0  0  0  0  0  0  0  0  # atno 17343 bound_to 10162
  156.5807  130.8464  151.3382 LP  0  0  0  0  0  0  0  0  0  0  0  0  # atno 17370 bound_to 10713
  157.7309  130.9692  150.1855 LP  0  0  0  0  0  0  0  0  0  0  0  0  # atno 17371 bound_to 10713
  141.1966  133.8078  157.0663 LP  0  0  0  0  0  0  0  0  0  0  0  0  # atno 17394 bound_to 11000
  140.0581  134.9769  157.1256 LP  0  0  0  0  0  0  0  0  0  0  0  0  # atno 17395 bound_to 11000

$$$$
