AV-unprocessed.smi:47|AV-procd|sdf|440|dock2
  -GOLD-   2262016313D 1   1.00000     0.00000
 Structure written by MMmdl.
 32 34  0  0  0  0  0  0  0  0  2 V2000
  145.2499  140.2004  154.3929 O   0  0  0  0  0  0  0  0  0  0  0  0
  146.4570  140.6390  153.8069 C   0  0  2  0  0  0  0  0  0  0  0  0
  147.3780  139.4705  153.4368 C   0  0  0  0  0  0  0  0  0  0  0  0
  148.7588  139.9810  153.5568 N   0  3  0  0  0  0  0  0  0  0  0  0
  148.7043  141.3207  154.1793 C   0  0  2  0  0  0  0  0  0  0  0  0
  149.8240  141.3449  155.1768 C   0  0  0  0  0  0  0  0  0  0  0  0
  150.8084  140.4470  155.2674 N   0  0  0  0  0  0  0  0  0  0  0  0
  151.5881  140.8663  156.3285 N   0  0  0  0  0  0  0  0  0  0  0  0
  151.0174  141.9826  156.8038 C   0  0  0  0  0  0  0  0  0  0  0  0
  151.5319  142.7494  157.9408 C   0  0  0  0  0  0  0  0  0  0  0  0
  151.4342  144.1604  157.9570 C   0  0  0  0  0  0  0  0  0  0  0  0
  151.9255  144.8981  159.0515 C   0  0  0  0  0  0  0  0  0  0  0  0
  152.5174  144.2337  160.1418 C   0  0  0  0  0  0  0  0  0  0  0  0
  152.6178  142.8301  160.1363 C   0  0  0  0  0  0  0  0  0  0  0  0
  152.1279  142.0912  159.0419 C   0  0  0  0  0  0  0  0  0  0  0  0
  149.9144  142.3068  156.1052 N   0  0  0  0  0  0  0  0  0  0  0  0
  147.3025  141.4577  154.7776 C   0  0  0  0  0  0  0  0  0  0  0  0
  146.2372  141.2332  152.9187 H   0  0  0  0  0  0  0  0  0  0  0  0
  148.8649  142.0720  153.4046 H   0  0  0  0  0  0  0  0  0  0  0  0
  149.2966  143.0914  156.2545 H   0  0  0  0  0  0  0  0  0  0  0  0
  144.6098  140.0677  153.7098 H   0  0  0  0  0  0  0  0  0  0  0  0
  147.2651  138.6494  154.1467 H   0  0  0  0  0  0  0  0  0  0  0  0
  147.1772  139.0814  152.4385 H   0  0  0  0  0  0  0  0  0  0  0  0
  149.2870  139.3577  154.1517 H   0  0  0  0  0  0  0  0  0  0  0  0
  150.9844  144.6920  157.1315 H   0  0  0  0  0  0  0  0  0  0  0  0
  151.8483  145.9755  159.0547 H   0  0  0  0  0  0  0  0  0  0  0  0
  152.8937  144.8000  160.9812 H   0  0  0  0  0  0  0  0  0  0  0  0
  153.0707  142.3186  160.9729 H   0  0  0  0  0  0  0  0  0  0  0  0
  152.2135  141.0147  159.0596 H   0  0  0  0  0  0  0  0  0  0  0  0
  146.9772  142.4935  154.8796 H   0  0  0  0  0  0  0  0  0  0  0  0
  147.2699  140.9960  155.7666 H   0  0  0  0  0  0  0  0  0  0  0  0
  149.1988  140.0415  152.6499 H   0  0  0  0  0  0  0  0  0  0  0  0
  1  2  1  0  0  0  0
  1 21  1  0  0  0  0
  2 18  1  0  0  0  0
  2 17  1  0  0  0  0
  2  3  1  0  0  0  0
  3  4  1  0  0  0  0
  3 22  1  0  0  0  0
  3 23  1  0  0  0  0
  4  5  1  0  0  0  0
  4 24  1  0  0  0  0
  4 32  1  0  0  0  0
  5 19  1  0  0  0  0
  5 17  1  0  0  0  0
  5  6  1  0  0  0  0
  6  7  2  0  0  0  0
  6 16  1  0  0  0  0
  7  8  1  0  0  0  0
  8  9  2  0  0  0  0
  9 16  1  0  0  0  0
  9 10  1  0  0  0  0
 10 15  1  0  0  0  0
 10 11  2  0  0  0  0
 11 12  1  0  0  0  0
 11 25  1  0  0  0  0
 12 13  2  0  0  0  0
 12 26  1  0  0  0  0
 13 14  1  0  0  0  0
 13 27  1  0  0  0  0
 14 15  2  0  0  0  0
 14 28  1  0  0  0  0
 15 29  1  0  0  0  0
 16 20  1  0  0  0  0
 17 30  1  0  0  0  0
 17 31  1  0  0  0  0
M  CHG  1   4   1
M  END
> <s_m_source_file>
AV-unprocessed.smi

> <i_m_source_file_index>
47

> <i_lp_mmshare_version>
43012

> <i_f3d_flags>
0

> <s_epik_input>
W09IXVtDQEhdMVtDSDJdW05IXVtDQEBIXShbQ0gyXTEpYzJuW25IXWMobjIpLWMzW2NIXVtjSF1bY0hdW2NIXVtjSF0z

> <s_epik_cmdline>
J2VwaWtfcHl0aG9uJywgJy1waCcsICc3LjAnLCAnLXRuJywgJzgnLCAnLW1hJywgJzIwMCcsICctbWV0YWxfYmluZGluZycsICctaW1hZScsICc8aW5maWxlLm1hZT4nLCAnLW9tYWUnLCAnPG91dGZpbGUubWFlPic=

> <r_lp_tautomer_probability>
0.0517155

> <r_epik_Ionization_Penalty>
2.45729

> <r_epik_Ionization_Penalty_Charging>
0.0688988

> <r_epik_Ionization_Penalty_Neutral>
2.3884

> <r_epik_State_Penalty>
2.69236

> <r_epik_Charging_Adjusted_Penalty>
2.76126

> <i_epik_Tot_Q>
1

> <i_epik_Tot_abs_Q>
1

> <r_epik_Metal_State_Penalty>
3.18974

> <b_epik_Metal_Only>
0

> <s_lp_Force_Field>
OPLS_2005

> <r_lp_Energy>
28.8935

> <b_lp_Chiralities_Consistent>
1

> <s_lp_Variant>
AV-unprocessed.smi:47-18

> <Gold.Version>
5.8.1

> <Gold.Id.Protein>
6NUR|6NUR_protein|mol2

> <Gold.PLP.Fitness>
48.1379

> <Gold.PLP.PLP>
-38.5699

> <Gold.PLP.part.hbond>
-3.8544

> <Gold.PLP.part.metal>
0.0000

> <Gold.PLP.part.buried>
-3.0265

> <Gold.PLP.part.nonpolar>
-31.6876

> <Gold.PLP.part.repulsive>
0.2983

> <Gold.PLP.ligand.clash>
0.0000

> <Gold.PLP.ligand.torsion>
0.7423

> <Gold.PLP.Chemscore.Hbond>
3.6800

> <Gold.PLP.Chemscore.CHOScore>
0.0000

> <Gold.PLP.Chemscore.Metal>
0.0000

> <Gold.Chemscore.Hbonds>
donor molecule, donor type, donor heavy atom, donor atom, acceptor molecule, acceptor atom, score
      L1  H     1    21       P1 10175  1.00
      L1  H     4    32       P1  7957  1.00
      L1  H    16    20       P1  8028  0.88
      P1  H  7989  7998       L1     7  0.80

> <Gold.PLP.Chemscore.Internal.Correction>
0.0125

> <Gold.Rescore>
     Score         DG    S(hbond)    S(metal)    S(lipo)     H(rot)  DE(clash)    DE(int)     intcor
     21.95     -22.51       2.90        0.00      95.49       1.50       0.03       0.53       ----

> <Gold.Chemscore.Fitness>
21.9532

> <Gold.Chemscore.DG>
-22.5051

> <Gold.Chemscore.ZeroCoef>
-5.4800

> <Gold.Chemscore.Hbond>
2.8994

> <Gold.Chemscore.Metal>
0.0000

> <Gold.Chemscore.Lipo>
95.4893

> <Gold.Chemscore.Internal_Hbond>
0.0000

> <Gold.Chemscore.DEClash>
0.0266

> <Gold.Chemscore.DEInternal>
0.5254

> <Gold.Chemscore.Rot>
1.4966

> <Gold.Chemscore.Internal.Correction>
   9.000000E+99

> <Gold.Chemscore.Hbonds>
donor molecule, donor type, donor heavy atom, donor atom, acceptor molecule, acceptor atom, score
      L1  H     1    21       P1 10175  0.97
      L1  H     4    32       P1  7957  0.94
      L1  H    16    20       P1  8028  0.87
      P1  H  7989  7998       L1     7  0.09

> <Gold.Chemscore.Hbond.Weighted>
-9.6841

> <Gold.Chemscore.Metal.Weighted>
-0.0000

> <Gold.Chemscore.Lipo.Weighted>
-11.1723

> <Gold.Chemscore.Internal_Hbond.Weighted>
0.0000

> <Gold.Chemscore.DEClash.Weighted>
0.0266

> <Gold.Chemscore.DEInternal.Weighted>
0.5254

> <Gold.Chemscore.Rot.Weighted>
3.8312

> <Gold.Chemscore.Internal.Correction.Weighted>
   9.000000E+99

> <Gold.Protein.RotatedTorsions>
[ 6907 6896 6895 6894 ] final   68.59 input  -60.11 | X-H torsion
[ 7974 7965 7964 7962 ] final -120.18 input  175.53 | X-H torsion
[ 8008 7997 7996 7995 ] final -126.98 input   59.86 | X-H torsion
[ 10167 10162 10161 10158 ] final   34.42 input  -65.29 | X-H torsion
[ 10718 10713 10712 10709 ] final -171.56 input   66.30 | X-H torsion
[ 10763 10752 10751 10750 ] final   74.57 input  -60.55 | X-H torsion
[ 11005 11000 10999 10996 ] final  141.64 input  -57.11 | X-H torsion

> <Gold.Protein.ActiveResidues>
 VAL166  LYS551  ARG553  GLY616  TRP617  ASP618  TYR619  PRO620  LYS621  CYS622 
 ASP623  PHE694  ASN695  SER759  ASP760  ASP761  ALA762  ILE779  LEU786  VAL792 
 PHE793  MET794  SER795  GLU796  ALA797  LYS798  CYS799  TRP800  GLU811  SER814 

> <Gold.Protein.RotatedAtoms>
  152.4630  134.5140  159.9762 H   0  0  0  0  0  0  0  0  0  0  0  0  # atno 6907 bound_to 6896
  151.5184  133.3465  159.2905 H   0  0  0  0  0  0  0  0  0  0  0  0  # atno 6908 bound_to 6896
  150.8602  134.7980  159.7139 H   0  0  0  0  0  0  0  0  0  0  0  0  # atno 6909 bound_to 6896
  145.0543  140.8242  143.4191 H   0  0  0  0  0  0  0  0  0  0  0  0  # atno 7974 bound_to 7965
  155.2386  140.0428  157.2972 H   0  0  0  0  0  0  0  0  0  0  0  0  # atno 8008 bound_to 7997
  154.5843  140.2409  155.7980 H   0  0  0  0  0  0  0  0  0  0  0  0  # atno 8009 bound_to 7997
  156.2215  140.2968  155.9972 H   0  0  0  0  0  0  0  0  0  0  0  0  # atno 8010 bound_to 7997
  140.4317  144.1315  150.6160 H   0  0  0  0  0  0  0  0  0  0  0  0  # atno 10167 bound_to 10162
  156.7427  130.9348  151.3111 H   0  0  0  0  0  0  0  0  0  0  0  0  # atno 10718 bound_to 10713
  153.0595  135.5021  154.8061 H   0  0  0  0  0  0  0  0  0  0  0  0  # atno 10763 bound_to 10752
  154.6861  135.2976  154.9548 H   0  0  0  0  0  0  0  0  0  0  0  0  # atno 10764 bound_to 10752
  154.0318  135.6728  153.4834 H   0  0  0  0  0  0  0  0  0  0  0  0  # atno 10765 bound_to 10752
  140.0416  134.9302  157.0854 H   0  0  0  0  0  0  0  0  0  0  0  0  # atno 11005 bound_to 11000
  145.1488  139.2527  143.5451 LP  0  0  0  0  0  0  0  0  0  0  0  0  # atno 17320 bound_to 7965
  146.3520  140.1185  142.8601 LP  0  0  0  0  0  0  0  0  0  0  0  0  # atno 17321 bound_to 7965
  140.4420  143.2522  151.9461 LP  0  0  0  0  0  0  0  0  0  0  0  0  # atno 17342 bound_to 10162
  139.4785  144.5645  151.8186 LP  0  0  0  0  0  0  0  0  0  0  0  0  # atno 17343 bound_to 10162
  157.6811  130.9141  150.0270 LP  0  0  0  0  0  0  0  0  0  0  0  0  # atno 17370 bound_to 10713
  156.1454  130.3642  149.9519 LP  0  0  0  0  0  0  0  0  0  0  0  0  # atno 17371 bound_to 10713
  140.4059  134.2032  155.7163 LP  0  0  0  0  0  0  0  0  0  0  0  0  # atno 17394 bound_to 11000
  141.1886  133.8256  157.0989 LP  0  0  0  0  0  0  0  0  0  0  0  0  # atno 17395 bound_to 11000

$$$$
