AV-unprocessed.smi:3087|AV-procd|sdf|11766|dock1
  -GOLD-   2272017143D 1   1.00000     0.00000
 Structure written by MMmdl.
 31 32  0  0  0  0  0  0  0  0  2 V2000
  153.8205  140.7095  160.6649 C   0  0  0  0  0  0  0  0  0  0  0  0
  153.0393  141.7810  159.9638 C   0  0  0  0  0  0  0  0  0  0  0  0
  153.1521  143.1916  160.1046 C   0  0  0  0  0  0  0  0  0  0  0  0
  152.2097  143.6925  159.2512 C   0  0  0  0  0  0  0  0  0  0  0  0
  151.8296  145.1094  158.9704 C   0  0  0  0  0  0  0  0  0  0  0  0
  151.6051  142.6100  158.6342 N   0  0  0  0  0  0  0  0  0  0  0  0
  150.5066  142.6004  157.6734 C   0  0  2  0  0  0  0  0  0  0  0  0
  149.3014  141.8161  158.2262 C   0  0  0  0  0  0  0  0  0  0  0  0
  148.1528  141.8101  157.2058 C   0  0  0  0  0  0  0  0  0  0  0  0
  148.6288  141.2767  155.8440 C   0  0  0  0  0  0  0  0  0  0  0  0
  149.7884  142.0531  155.3532 N   0  3  0  0  0  0  0  0  0  0  0  0
  150.9289  142.0410  156.2952 C   0  0  0  0  0  0  0  0  0  0  0  0
  152.1052  141.4401  159.0927 N   0  0  0  0  0  0  0  0  0  0  0  0
  154.5044  141.1364  161.3988 H   0  0  0  0  0  0  0  0  0  0  0  0
  154.4128  140.1296  159.9567 H   0  0  0  0  0  0  0  0  0  0  0  0
  153.1592  140.0200  161.1906 H   0  0  0  0  0  0  0  0  0  0  0  0
  153.8182  143.7519  160.7441 H   0  0  0  0  0  0  0  0  0  0  0  0
  152.3255  145.7897  159.6630 H   0  0  0  0  0  0  0  0  0  0  0  0
  150.7539  145.2535  159.0752 H   0  0  0  0  0  0  0  0  0  0  0  0
  152.1157  145.3946  157.9580 H   0  0  0  0  0  0  0  0  0  0  0  0
  150.1970  143.6349  157.5208 H   0  0  0  0  0  0  0  0  0  0  0  0
  149.5947  140.7898  158.4516 H   0  0  0  0  0  0  0  0  0  0  0  0
  148.9622  142.2560  159.1648 H   0  0  0  0  0  0  0  0  0  0  0  0
  147.3271  141.2027  157.5779 H   0  0  0  0  0  0  0  0  0  0  0  0
  147.7630  142.8222  157.0873 H   0  0  0  0  0  0  0  0  0  0  0  0
  148.9089  140.2256  155.9253 H   0  0  0  0  0  0  0  0  0  0  0  0
  147.8236  141.3367  155.1116 H   0  0  0  0  0  0  0  0  0  0  0  0
  150.0903  141.6691  154.4690 H   0  0  0  0  0  0  0  0  0  0  0  0
  151.7403  142.6364  155.8757 H   0  0  0  0  0  0  0  0  0  0  0  0
  151.2943  141.0164  156.3793 H   0  0  0  0  0  0  0  0  0  0  0  0
  149.4983  143.0100  155.2111 H   0  0  0  0  0  0  0  0  0  0  0  0
  1  2  1  0  0  0  0
  1 14  1  0  0  0  0
  1 15  1  0  0  0  0
  1 16  1  0  0  0  0
  2 13  2  0  0  0  0
  2  3  1  0  0  0  0
  3  4  2  0  0  0  0
  3 17  1  0  0  0  0
  4  5  1  0  0  0  0
  4  6  1  0  0  0  0
  5 18  1  0  0  0  0
  5 19  1  0  0  0  0
  5 20  1  0  0  0  0
  6  7  1  0  0  0  0
  6 13  1  0  0  0  0
  7 12  1  0  0  0  0
  7  8  1  0  0  0  0
  7 21  1  0  0  0  0
  8  9  1  0  0  0  0
  8 22  1  0  0  0  0
  8 23  1  0  0  0  0
  9 10  1  0  0  0  0
  9 24  1  0  0  0  0
  9 25  1  0  0  0  0
 10 11  1  0  0  0  0
 10 26  1  0  0  0  0
 10 27  1  0  0  0  0
 11 12  1  0  0  0  0
 11 28  1  0  0  0  0
 11 31  1  0  0  0  0
 12 29  1  0  0  0  0
 12 30  1  0  0  0  0
M  CHG  1  11   1
M  END
> <s_m_source_file>
AV-unprocessed.smi

> <i_m_source_file_index>
3087

> <i_lp_mmshare_version>
43012

> <i_f3d_flags>
0

> <s_epik_input>
W0NIM11jMVtjSF1jKFtDSDNdKW4objEpW0NAQEhdMltDSDJdW0NIMl1bQ0gyXVtOSF1bQ0gyXTI=

> <s_epik_cmdline>
J2VwaWtfcHl0aG9uJywgJy1waCcsICc3LjAnLCAnLXRuJywgJzgnLCAnLW1hJywgJzIwMCcsICctbWV0YWxfYmluZGluZycsICctaW1hZScsICc8aW5maWxlLm1hZT4nLCAnLW9tYWUnLCAnPG91dGZpbGUubWFlPic=

> <r_lp_tautomer_probability>
1

> <r_epik_Ionization_Penalty>
0.000855662

> <r_epik_Ionization_Penalty_Charging>
0.000651447

> <r_epik_Ionization_Penalty_Neutral>
0.000204215

> <r_epik_State_Penalty>
-0

> <r_epik_Charging_Adjusted_Penalty>
0.000651447

> <i_epik_Tot_Q>
1

> <i_epik_Tot_abs_Q>
1

> <r_epik_Metal_State_Penalty>
-0

> <b_epik_Metal_Only>
0

> <s_lp_Force_Field>
OPLS_2005

> <r_lp_Energy>
14.514

> <b_lp_Chiralities_Consistent>
1

> <s_lp_Variant>
AV-unprocessed.smi:3087-1

> <Gold.Version>
5.8.1

> <Gold.Id.Protein>
6NUR|6NUR_protein|mol2

> <Gold.PLP.Fitness>
37.0752

> <Gold.PLP.PLP>
-31.1226

> <Gold.PLP.part.hbond>
-1.0000

> <Gold.PLP.part.metal>
0.0000

> <Gold.PLP.part.buried>
-4.2612

> <Gold.PLP.part.nonpolar>
-25.8472

> <Gold.PLP.part.repulsive>
0.1921

> <Gold.PLP.ligand.clash>
0.0000

> <Gold.PLP.ligand.torsion>
0.0422

> <Gold.PLP.Chemscore.Hbond>
2.0000

> <Gold.PLP.Chemscore.CHOScore>
0.0000

> <Gold.PLP.Chemscore.Metal>
0.0000

> <Gold.Chemscore.Hbonds>
donor molecule, donor type, donor heavy atom, donor atom, acceptor molecule, acceptor atom, score
      L1  H    11    31       P1  8028  2.00

> <Gold.PLP.Chemscore.Internal.Correction>
0.0370

> <Gold.Rescore>
     Score         DG    S(hbond)    S(metal)    S(lipo)     H(rot)  DE(clash)    DE(int)     intcor
     15.50     -15.55       1.00        0.00      79.48       1.00       0.02       0.04       ----

> <Gold.Chemscore.Fitness>
15.4970

> <Gold.Chemscore.DG>
-15.5530

> <Gold.Chemscore.ZeroCoef>
-5.4800

> <Gold.Chemscore.Hbond>
0.9983

> <Gold.Chemscore.Metal>
0.0000

> <Gold.Chemscore.Lipo>
79.4756

> <Gold.Chemscore.Internal_Hbond>
0.0000

> <Gold.Chemscore.DEClash>
0.0201

> <Gold.Chemscore.DEInternal>
0.0360

> <Gold.Chemscore.Rot>
1.0000

> <Gold.Chemscore.Internal.Correction>
   9.000000E+99

> <Gold.Chemscore.Hbonds>
donor molecule, donor type, donor heavy atom, donor atom, acceptor molecule, acceptor atom, score
      L1  H    11    31       P1  8028  0.99

> <Gold.Chemscore.Hbond.Weighted>
-3.3344

> <Gold.Chemscore.Metal.Weighted>
-0.0000

> <Gold.Chemscore.Lipo.Weighted>
-9.2986

> <Gold.Chemscore.Internal_Hbond.Weighted>
0.0000

> <Gold.Chemscore.DEClash.Weighted>
0.0201

> <Gold.Chemscore.DEInternal.Weighted>
0.0360

> <Gold.Chemscore.Rot.Weighted>
2.5600

> <Gold.Chemscore.Internal.Correction.Weighted>
   9.000000E+99

> <Gold.Protein.RotatedTorsions>
[ 6907 6896 6895 6894 ] final   19.57 input  -60.11 | X-H torsion
[ 7974 7965 7964 7962 ] final  158.67 input  175.53 | X-H torsion
[ 8008 7997 7996 7995 ] final  149.27 input   59.86 | X-H torsion
[ 10167 10162 10161 10158 ] final -142.84 input  -65.29 | X-H torsion
[ 10718 10713 10712 10709 ] final  -44.32 input   66.30 | X-H torsion
[ 10763 10752 10751 10750 ] final  -17.92 input  -60.55 | X-H torsion
[ 11005 11000 10999 10996 ] final -121.35 input  -57.11 | X-H torsion

> <Gold.Protein.ActiveResidues>
 VAL166  LYS551  ARG553  GLY616  TRP617  ASP618  TYR619  PRO620  LYS621  CYS622 
 ASP623  PHE694  ASN695  SER759  ASP760  ASP761  ALA762  ILE779  LEU786  VAL792 
 PHE793  MET794  SER795  GLU796  ALA797  LYS798  CYS799  TRP800  GLU811  SER814 

> <Gold.Protein.RotatedAtoms>
  151.8829  135.0446  160.0490 H   0  0  0  0  0  0  0  0  0  0  0  0  # atno 6907 bound_to 6896
  152.2498  133.5201  159.5327 H   0  0  0  0  0  0  0  0  0  0  0  0  # atno 6908 bound_to 6896
  150.7080  134.0892  159.3968 H   0  0  0  0  0  0  0  0  0  0  0  0  # atno 6909 bound_to 6896
  144.7832  139.7511  143.6251 H   0  0  0  0  0  0  0  0  0  0  0  0  # atno 7974 bound_to 7965
  156.2761  140.2106  156.5831 H   0  0  0  0  0  0  0  0  0  0  0  0  # atno 8008 bound_to 7997
  154.7042  140.0518  157.0511 H   0  0  0  0  0  0  0  0  0  0  0  0  # atno 8009 bound_to 7997
  155.0693  140.3175  155.4638 H   0  0  0  0  0  0  0  0  0  0  0  0  # atno 8010 bound_to 7997
  139.8050  143.7781  152.2660 H   0  0  0  0  0  0  0  0  0  0  0  0  # atno 10167 bound_to 10162
  156.2398  130.4179  149.8774 H   0  0  0  0  0  0  0  0  0  0  0  0  # atno 10718 bound_to 10713
  153.5814  135.7005  153.5462 H   0  0  0  0  0  0  0  0  0  0  0  0  # atno 10763 bound_to 10752
  153.3258  135.4061  155.1454 H   0  0  0  0  0  0  0  0  0  0  0  0  # atno 10764 bound_to 10752
  154.8617  135.3706  154.5341 H   0  0  0  0  0  0  0  0  0  0  0  0  # atno 10765 bound_to 10752
  141.0077  134.0311  157.3455 H   0  0  0  0  0  0  0  0  0  0  0  0  # atno 11005 bound_to 11000
  146.2052  139.5371  142.9717 LP  0  0  0  0  0  0  0  0  0  0  0  0  # atno 17320 bound_to 7965
  145.5992  141.0358  143.2028 LP  0  0  0  0  0  0  0  0  0  0  0  0  # atno 17321 bound_to 7965
  139.7912  144.7409  150.9952 LP  0  0  0  0  0  0  0  0  0  0  0  0  # atno 17342 bound_to 10162
  140.7819  143.4440  151.0510 LP  0  0  0  0  0  0  0  0  0  0  0  0  # atno 17343 bound_to 10162
  156.6359  130.8685  151.3504 LP  0  0  0  0  0  0  0  0  0  0  0  0  # atno 17370 bound_to 10713
  157.7170  130.9510  150.1294 LP  0  0  0  0  0  0  0  0  0  0  0  0  # atno 17371 bound_to 10713
  139.9072  135.0182  156.7538 LP  0  0  0  0  0  0  0  0  0  0  0  0  # atno 17394 bound_to 11000
  140.6786  133.9495  155.7897 LP  0  0  0  0  0  0  0  0  0  0  0  0  # atno 17395 bound_to 11000

$$$$
