AV-unprocessed.smi:1836|AV-procd|sdf|7477|dock10
  -GOLD-   22720 9173D 1   1.00000     0.00000
 Structure written by MMmdl.
 33 34  0  0  0  0  0  0  0  0  1 V2000
  147.8557  140.8933  153.4409 C   0  0  0  0  0  0  0  0  0  0  0  0
  148.2715  139.6029  154.1611 C   0  0  2  0  0  0  0  0  0  0  0  0
  149.8017  139.5482  154.3653 C   0  0  0  0  0  0  0  0  0  0  0  0
  150.2325  140.3319  155.5221 N   0  0  0  0  0  0  0  0  0  0  0  0
  149.3121  141.2414  156.1837 C   0  0  0  0  0  0  0  0  0  0  0  0
  150.0497  141.7020  157.4485 C   0  0  0  0  0  0  0  0  0  0  0  0
  151.5170  141.3132  157.2380 C   0  0  0  0  0  0  0  0  0  0  0  0
  151.4636  140.3723  156.0466 C   0  0  0  0  0  0  0  0  0  0  0  0
  152.4440  139.7454  155.6479 O   0  0  0  0  0  0  0  0  0  0  0  0
  147.8182  138.4690  153.3578 N   0  0  0  0  0  0  0  0  0  0  0  0
  146.5476  138.0567  153.2367 C   0  0  0  0  0  0  0  0  0  0  0  0
  145.5970  138.6084  153.7912 O   0  0  0  0  0  0  0  0  0  0  0  0
  146.4638  136.9734  152.4481 N   0  0  0  0  0  0  0  0  0  0  0  0
  145.3087  136.2200  152.1228 C   0  0  0  0  0  0  0  0  0  0  0  0
  144.2018  136.4226  152.8472 N   0  0  0  0  0  0  0  0  0  0  0  0
  143.1480  135.6227  152.4225 N   0  0  0  0  0  0  0  0  0  0  0  0
  143.5011  134.8495  151.3911 C   0  0  0  0  0  0  0  0  0  0  0  0
  145.1560  135.0221  150.8339 S   0  0  0  0  0  0  0  0  0  0  0  0
  148.1436  141.7738  154.0162 H   0  0  0  0  0  0  0  0  0  0  0  0
  146.7750  140.9347  153.3002 H   0  0  0  0  0  0  0  0  0  0  0  0
  148.3232  140.9702  152.4585 H   0  0  0  0  0  0  0  0  0  0  0  0
  147.7786  139.6069  155.1350 H   0  0  0  0  0  0  0  0  0  0  0  0
  150.1481  138.5161  154.4457 H   0  0  0  0  0  0  0  0  0  0  0  0
  150.3021  139.9606  153.4879 H   0  0  0  0  0  0  0  0  0  0  0  0
  149.1024  142.0845  155.5238 H   0  0  0  0  0  0  0  0  0  0  0  0
  148.3680  140.7500  156.4220 H   0  0  0  0  0  0  0  0  0  0  0  0
  149.9294  142.7723  157.6190 H   0  0  0  0  0  0  0  0  0  0  0  0
  149.6523  141.1839  158.3223 H   0  0  0  0  0  0  0  0  0  0  0  0
  152.1284  142.1812  156.9895 H   0  0  0  0  0  0  0  0  0  0  0  0
  151.9422  140.8221  158.1139 H   0  0  0  0  0  0  0  0  0  0  0  0
  148.5319  137.9486  152.8688 H   0  0  0  0  0  0  0  0  0  0  0  0
  147.3267  136.6395  152.0450 H   0  0  0  0  0  0  0  0  0  0  0  0
  142.7805  134.1735  150.9549 H   0  0  0  0  0  0  0  0  0  0  0  0
  1  2  1  0  0  0  0
  1 19  1  0  0  0  0
  1 20  1  0  0  0  0
  1 21  1  0  0  0  0
  2  3  1  0  0  0  0
  2 10  1  0  0  0  0
  2 22  1  0  0  0  0
  3  4  1  0  0  0  0
  3 23  1  0  0  0  0
  3 24  1  0  0  0  0
  4  8  1  0  0  0  0
  4  5  1  0  0  0  0
  5  6  1  0  0  0  0
  5 25  1  0  0  0  0
  5 26  1  0  0  0  0
  6  7  1  0  0  0  0
  6 27  1  0  0  0  0
  6 28  1  0  0  0  0
  7  8  1  0  0  0  0
  7 29  1  0  0  0  0
  7 30  1  0  0  0  0
  8  9  2  0  0  0  0
 10 11  1  0  0  0  0
 10 31  1  0  0  0  0
 11 12  2  0  0  0  0
 11 13  1  0  0  0  0
 13 14  1  0  0  0  0
 13 32  1  0  0  0  0
 14 18  1  0  0  0  0
 14 15  2  0  0  0  0
 15 16  1  0  0  0  0
 16 17  2  0  0  0  0
 17 18  1  0  0  0  0
 17 33  1  0  0  0  0
M  END
> <s_m_source_file>
AV-unprocessed.smi

> <i_m_source_file_index>
1836

> <i_lp_mmshare_version>
43012

> <i_f3d_flags>
0

> <s_epik_input>
Tz1DMVtDSDJdW0NIMl1bQ0gyXU4xW0NIMl1bQ0BASF0oW0NIM10pW05IXUMoPU8pW05IXWMybm5bY0hdczI=

> <s_epik_cmdline>
J2VwaWtfcHl0aG9uJywgJy1waCcsICc3LjAnLCAnLXRuJywgJzgnLCAnLW1hJywgJzIwMCcsICctbWV0YWxfYmluZGluZycsICctaW1hZScsICc8aW5maWxlLm1hZT4nLCAnLW9tYWUnLCAnPG91dGZpbGUubWFlPic=

> <r_lp_tautomer_probability>
1

> <r_epik_Ionization_Penalty>
0.00192022

> <r_epik_Ionization_Penalty_Charging>
0

> <r_epik_Ionization_Penalty_Neutral>
0.00192022

> <r_epik_State_Penalty>
-0

> <r_epik_Charging_Adjusted_Penalty>
0

> <i_epik_Tot_Q>
0

> <i_epik_Tot_abs_Q>
0

> <r_epik_Metal_State_Penalty>
0.336618

> <b_epik_Metal_Only>
0

> <s_lp_Force_Field>
OPLS_2005

> <r_lp_Energy>
16.7835

> <b_lp_Chiralities_Consistent>
1

> <s_lp_Variant>
AV-unprocessed.smi:1836-1

> <Gold.Version>
5.8.1

> <Gold.Id.Protein>
6NUR|6NUR_protein|mol2

> <Gold.PLP.Fitness>
38.0956

> <Gold.PLP.PLP>
-27.4556

> <Gold.PLP.part.hbond>
-4.2263

> <Gold.PLP.part.metal>
0.0000

> <Gold.PLP.part.buried>
-2.0784

> <Gold.PLP.part.nonpolar>
-21.7043

> <Gold.PLP.part.repulsive>
0.4856

> <Gold.PLP.ligand.clash>
0.0000

> <Gold.PLP.ligand.torsion>
0.5082

> <Gold.PLP.Chemscore.Hbond>
2.9066

> <Gold.PLP.Chemscore.CHOScore>
0.9737

> <Gold.PLP.Chemscore.Metal>
0.0000

> <Gold.Chemscore.Hbonds>
donor molecule, donor type, donor heavy atom, donor atom, acceptor molecule, acceptor atom, score
      L1  H    10    31       P1  7948  0.93
      L1  H    13    32       P1  7948  1.00
      P1  H  7997  8009       L1     9  1.00
      L1  C    17    33       P1 10186  1.00

> <Gold.PLP.Chemscore.Internal.Correction>
0.0154

> <Gold.Rescore>
     Score         DG    S(hbond)    S(metal)    S(lipo)     H(rot)  DE(clash)    DE(int)     intcor
     13.98     -15.97       2.82        0.00      47.48       1.76       0.20       1.79       ----

> <Gold.Chemscore.Fitness>
13.9813

> <Gold.Chemscore.DG>
-15.9728

> <Gold.Chemscore.ZeroCoef>
-5.4800

> <Gold.Chemscore.Hbond>
2.8250

> <Gold.Chemscore.Metal>
0.0000

> <Gold.Chemscore.Lipo>
47.4838

> <Gold.Chemscore.Internal_Hbond>
0.0000

> <Gold.Chemscore.DEClash>
0.2009

> <Gold.Chemscore.DEInternal>
1.7906

> <Gold.Chemscore.Rot>
1.7571

> <Gold.Chemscore.Internal.Correction>
   9.000000E+99

> <Gold.Chemscore.Hbonds>
donor molecule, donor type, donor heavy atom, donor atom, acceptor molecule, acceptor atom, score
      L1  H    10    31       P1  7948  0.85
      L1  H    13    32       P1  7948  1.00
      P1  H  7997  8009       L1     9  0.94

> <Gold.Chemscore.Hbond.Weighted>
-9.4354

> <Gold.Chemscore.Metal.Weighted>
-0.0000

> <Gold.Chemscore.Lipo.Weighted>
-5.5556

> <Gold.Chemscore.Internal_Hbond.Weighted>
0.0000

> <Gold.Chemscore.DEClash.Weighted>
0.2009

> <Gold.Chemscore.DEInternal.Weighted>
1.7906

> <Gold.Chemscore.Rot.Weighted>
4.4983

> <Gold.Chemscore.Internal.Correction.Weighted>
   9.000000E+99

> <Gold.Protein.RotatedTorsions>
[ 6907 6896 6895 6894 ] final -140.37 input  -60.11 | X-H torsion
[ 7974 7965 7964 7962 ] final  152.90 input  175.53 | X-H torsion
[ 8008 7997 7996 7995 ] final -148.41 input   59.86 | X-H torsion
[ 10167 10162 10161 10158 ] final  -54.26 input  -65.29 | X-H torsion
[ 10718 10713 10712 10709 ] final -146.82 input   66.30 | X-H torsion
[ 10763 10752 10751 10750 ] final  -15.24 input  -60.55 | X-H torsion
[ 11005 11000 10999 10996 ] final   29.11 input  -57.11 | X-H torsion

> <Gold.Protein.ActiveResidues>
 VAL166  LYS551  ARG553  GLY616  TRP617  ASP618  TYR619  PRO620  LYS621  CYS622 
 ASP623  PHE694  ASN695  SER759  ASP760  ASP761  ALA762  ILE779  LEU786  VAL792 
 PHE793  MET794  SER795  GLU796  ALA797  LYS798  CYS799  TRP800  GLU811  SER814 

> <Gold.Protein.RotatedAtoms>
  151.0599  133.5553  159.2634 H   0  0  0  0  0  0  0  0  0  0  0  0  # atno 6907 bound_to 6896
  151.2532  135.0628  159.9080 H   0  0  0  0  0  0  0  0  0  0  0  0  # atno 6908 bound_to 6896
  152.5396  134.0356  159.8098 H   0  0  0  0  0  0  0  0  0  0  0  0  # atno 6909 bound_to 6896
  144.8191  139.6729  143.6108 H   0  0  0  0  0  0  0  0  0  0  0  0  # atno 7974 bound_to 7965
  155.5911  140.0653  157.2758 H   0  0  0  0  0  0  0  0  0  0  0  0  # atno 8008 bound_to 7997
  154.4305  140.1835  156.1123 H   0  0  0  0  0  0  0  0  0  0  0  0  # atno 8009 bound_to 7997
  156.0232  140.3314  155.7064 H   0  0  0  0  0  0  0  0  0  0  0  0  # atno 8010 bound_to 7997
  140.6440  143.2524  151.4910 H   0  0  0  0  0  0  0  0  0  0  0  0  # atno 10167 bound_to 10162
  156.3997  130.7928  151.2137 H   0  0  0  0  0  0  0  0  0  0  0  0  # atno 10718 bound_to 10713
  153.5404  135.7013  153.5639 H   0  0  0  0  0  0  0  0  0  0  0  0  # atno 10763 bound_to 10752
  153.3608  135.3970  155.1716 H   0  0  0  0  0  0  0  0  0  0  0  0  # atno 10764 bound_to 10752
  154.8674  135.3788  154.4907 H   0  0  0  0  0  0  0  0  0  0  0  0  # atno 10765 bound_to 10752
  140.3084  134.2678  155.7739 H   0  0  0  0  0  0  0  0  0  0  0  0  # atno 11005 bound_to 11000
  146.2495  139.6170  142.9436 LP  0  0  0  0  0  0  0  0  0  0  0  0  # atno 17320 bound_to 7965
  145.5147  141.0434  143.2468 LP  0  0  0  0  0  0  0  0  0  0  0  0  # atno 17321 bound_to 7965
  139.5650  144.2064  152.1751 LP  0  0  0  0  0  0  0  0  0  0  0  0  # atno 17342 bound_to 10162
  140.1343  144.5260  150.6783 LP  0  0  0  0  0  0  0  0  0  0  0  0  # atno 17343 bound_to 10162
  157.7503  131.0290  150.4075 LP  0  0  0  0  0  0  0  0  0  0  0  0  # atno 17370 bound_to 10713
  156.4352  130.3980  149.6733 LP  0  0  0  0  0  0  0  0  0  0  0  0  # atno 17371 bound_to 10713
  141.2113  133.7692  156.9871 LP  0  0  0  0  0  0  0  0  0  0  0  0  # atno 17394 bound_to 11000
  140.1047  134.9514  157.1976 LP  0  0  0  0  0  0  0  0  0  0  0  0  # atno 17395 bound_to 11000

$$$$
