AV-unprocessed.smi:1819|AV-procd|sdf|7382|dock2
  -GOLD-   22720 9 53D 1   1.00000     0.00000
 Structure written by MMmdl.
 29 29  0  0  0  0  0  0  0  0  1 V2000
  151.0827  139.8079  154.6560 O   0  0  0  0  0  0  0  0  0  0  0  0
  149.9267  140.0602  154.9987 C   0  0  0  0  0  0  0  0  0  0  0  0
  148.7492  139.7889  154.0512 C   0  0  0  0  0  0  0  0  0  0  0  0
  147.5926  140.6587  154.3102 N   0  0  0  0  0  0  0  0  0  0  0  0
  147.6972  142.0324  154.1432 C   0  0  0  0  0  0  0  0  0  0  0  0
  146.6701  142.8895  154.3535 C   0  0  0  0  0  0  0  0  0  0  0  0
  145.3667  142.3905  154.7786 C   0  0  0  0  0  0  0  0  0  0  0  0
  144.3773  143.0862  154.9965 O   0  0  0  0  0  0  0  0  0  0  0  0
  145.3007  141.0032  154.9331 N   0  0  0  0  0  0  0  0  0  0  0  0
  146.3546  140.1141  154.7160 C   0  0  0  0  0  0  0  0  0  0  0  0
  146.1874  138.9057  154.8774 O   0  0  0  0  0  0  0  0  0  0  0  0
  149.6176  140.5982  156.1869 N   0  0  0  0  0  0  0  0  0  0  0  0
  150.5916  140.9310  157.2168 C   0  0  0  0  0  0  0  0  0  0  0  0
  150.9668  142.4151  157.1452 C   0  0  0  0  0  0  0  0  0  0  0  0
  150.3369  143.3276  158.5805 S   0  0  0  0  0  0  0  0  0  0  0  0
  151.8866  143.9944  159.2448 C   0  0  0  0  0  0  0  0  0  0  0  0
  152.5679  144.6017  158.2747 F   0  0  0  0  0  0  0  0  0  0  0  0
  151.6330  144.8799  160.2073 F   0  0  0  0  0  0  0  0  0  0  0  0
  152.6362  143.0118  159.7421 F   0  0  0  0  0  0  0  0  0  0  0  0
  144.4167  140.6112  155.2237 H   0  0  0  0  0  0  0  0  0  0  0  0
  149.0740  139.8962  153.0141 H   0  0  0  0  0  0  0  0  0  0  0  0
  148.4654  138.7406  154.1562 H   0  0  0  0  0  0  0  0  0  0  0  0
  148.6433  142.4465  153.8247 H   0  0  0  0  0  0  0  0  0  0  0  0
  146.8134  143.9501  154.2053 H   0  0  0  0  0  0  0  0  0  0  0  0
  148.6461  140.7817  156.3925 H   0  0  0  0  0  0  0  0  0  0  0  0
  150.1763  140.6980  158.1987 H   0  0  0  0  0  0  0  0  0  0  0  0
  151.4809  140.3125  157.0860 H   0  0  0  0  0  0  0  0  0  0  0  0
  152.0505  142.5286  157.1046 H   0  0  0  0  0  0  0  0  0  0  0  0
  150.5603  142.8630  156.2380 H   0  0  0  0  0  0  0  0  0  0  0  0
  1  2  2  0  0  0  0
  2  3  1  0  0  0  0
  2 12  1  0  0  0  0
  3  4  1  0  0  0  0
  3 21  1  0  0  0  0
  3 22  1  0  0  0  0
  4 10  1  0  0  0  0
  4  5  1  0  0  0  0
  5  6  2  0  0  0  0
  5 23  1  0  0  0  0
  6  7  1  0  0  0  0
  6 24  1  0  0  0  0
  7  8  2  0  0  0  0
  7  9  1  0  0  0  0
  9 20  1  0  0  0  0
  9 10  1  0  0  0  0
 10 11  2  0  0  0  0
 12 13  1  0  0  0  0
 12 25  1  0  0  0  0
 13 14  1  0  0  0  0
 13 26  1  0  0  0  0
 13 27  1  0  0  0  0
 14 15  1  0  0  0  0
 14 28  1  0  0  0  0
 14 29  1  0  0  0  0
 15 16  1  0  0  0  0
 16 17  1  0  0  0  0
 16 18  1  0  0  0  0
 16 19  1  0  0  0  0
M  END
> <s_m_source_file>
AV-unprocessed.smi

> <i_m_source_file_index>
1819

> <i_lp_mmshare_version>
43012

> <i_f3d_flags>
0

> <s_epik_input>
RkMoRikoRilTW0NIMl1bQ0gyXVtOSF1DKD1PKVtDSDJdbjFbY0hdW2NIXWMoPU8pW25IXWMxPU8=

> <s_epik_cmdline>
J2VwaWtfcHl0aG9uJywgJy1waCcsICc3LjAnLCAnLXRuJywgJzgnLCAnLW1hJywgJzIwMCcsICctbWV0YWxfYmluZGluZycsICctaW1hZScsICc8aW5maWxlLm1hZT4nLCAnLW9tYWUnLCAnPG91dGZpbGUubWFlPic=

> <r_lp_tautomer_probability>
0.999537

> <r_epik_Ionization_Penalty>
0.00347617

> <r_epik_Ionization_Penalty_Charging>
0.00347613

> <r_epik_Ionization_Penalty_Neutral>
4.33222e-08

> <r_epik_State_Penalty>
0.00246522

> <r_epik_Charging_Adjusted_Penalty>
0.00594136

> <i_epik_Tot_Q>
0

> <i_epik_Tot_abs_Q>
0

> <r_epik_Metal_State_Penalty>
0.367629

> <b_epik_Metal_Only>
0

> <s_lp_Force_Field>
OPLS_2005

> <r_lp_Energy>
-0.213216

> <b_lp_Chiralities_Consistent>
1

> <s_lp_Variant>
AV-unprocessed.smi:1819-1

> <Gold.Version>
5.8.1

> <Gold.Id.Protein>
6NUR|6NUR_protein|mol2

> <Gold.PLP.Fitness>
42.4698

> <Gold.PLP.PLP>
-42.0390

> <Gold.PLP.part.hbond>
-2.0000

> <Gold.PLP.part.metal>
0.0000

> <Gold.PLP.part.buried>
-4.5808

> <Gold.PLP.part.nonpolar>
-36.7083

> <Gold.PLP.part.repulsive>
0.3455

> <Gold.PLP.ligand.clash>
0.0000

> <Gold.PLP.ligand.torsion>
1.3235

> <Gold.PLP.Chemscore.Hbond>
1.0000

> <Gold.PLP.Chemscore.CHOScore>
0.0000

> <Gold.PLP.Chemscore.Metal>
0.0000

> <Gold.Chemscore.Hbonds>
donor molecule, donor type, donor heavy atom, donor atom, acceptor molecule, acceptor atom, score
      P1  H  7989  7998       L1     1  1.00
      L1  C     5    23       P1  8028  0.03

> <Gold.PLP.Chemscore.Internal.Correction>
0.0778

> <Gold.Rescore>
     Score         DG    S(hbond)    S(metal)    S(lipo)     H(rot)  DE(clash)    DE(int)     intcor
      6.27      -7.55       1.00        0.00      53.32       2.93       0.01       1.27       ----

> <Gold.Chemscore.Fitness>
6.2723

> <Gold.Chemscore.DG>
-7.5463

> <Gold.Chemscore.ZeroCoef>
-5.4800

> <Gold.Chemscore.Hbond>
0.9989

> <Gold.Chemscore.Metal>
0.0000

> <Gold.Chemscore.Lipo>
53.3225

> <Gold.Chemscore.Internal_Hbond>
0.0000

> <Gold.Chemscore.DEClash>
0.0070

> <Gold.Chemscore.DEInternal>
1.2670

> <Gold.Chemscore.Rot>
2.9332

> <Gold.Chemscore.Internal.Correction>
   9.000000E+99

> <Gold.Chemscore.Hbonds>
donor molecule, donor type, donor heavy atom, donor atom, acceptor molecule, acceptor atom, score
      P1  H  7989  7998       L1     1  0.82

> <Gold.Chemscore.Hbond.Weighted>
-3.3365

> <Gold.Chemscore.Metal.Weighted>
-0.0000

> <Gold.Chemscore.Lipo.Weighted>
-6.2387

> <Gold.Chemscore.Internal_Hbond.Weighted>
0.0000

> <Gold.Chemscore.DEClash.Weighted>
0.0070

> <Gold.Chemscore.DEInternal.Weighted>
1.2670

> <Gold.Chemscore.Rot.Weighted>
7.5089

> <Gold.Chemscore.Internal.Correction.Weighted>
   9.000000E+99

> <Gold.Protein.RotatedTorsions>
[ 6907 6896 6895 6894 ] final  -15.78 input  -60.11 | X-H torsion
[ 7974 7965 7964 7962 ] final   23.63 input  175.53 | X-H torsion
[ 8008 7997 7996 7995 ] final  144.19 input   59.86 | X-H torsion
[ 10167 10162 10161 10158 ] final  -79.97 input  -65.29 | X-H torsion
[ 10718 10713 10712 10709 ] final -123.79 input   66.30 | X-H torsion
[ 10763 10752 10751 10750 ] final   56.39 input  -60.55 | X-H torsion
[ 11005 11000 10999 10996 ] final  -10.93 input  -57.11 | X-H torsion

> <Gold.Protein.ActiveResidues>
 VAL166  LYS551  ARG553  GLY616  TRP617  ASP618  TYR619  PRO620  LYS621  CYS622 
 ASP623  PHE694  ASN695  SER759  ASP760  ASP761  ALA762  ILE779  LEU786  VAL792 
 PHE793  MET794  SER795  GLU796  ALA797  LYS798  CYS799  TRP800  GLU811  SER814 

> <Gold.Protein.RotatedAtoms>
  151.3187  135.0813  159.9297 H   0  0  0  0  0  0  0  0  0  0  0  0  # atno 6907 bound_to 6896
  152.5261  133.9661  159.7750 H   0  0  0  0  0  0  0  0  0  0  0  0  # atno 6908 bound_to 6896
  150.9978  133.6034  159.2729 H   0  0  0  0  0  0  0  0  0  0  0  0  # atno 6909 bound_to 6896
  146.1975  139.7718  142.8786 H   0  0  0  0  0  0  0  0  0  0  0  0  # atno 7974 bound_to 7965
  156.2914  140.2242  156.5013 H   0  0  0  0  0  0  0  0  0  0  0  0  # atno 8008 bound_to 7997
  154.7687  140.0468  157.1055 H   0  0  0  0  0  0  0  0  0  0  0  0  # atno 8009 bound_to 7997
  154.9901  140.3089  155.4913 H   0  0  0  0  0  0  0  0  0  0  0  0  # atno 8010 bound_to 7997
  140.4545  143.2472  151.8440 H   0  0  0  0  0  0  0  0  0  0  0  0  # atno 10167 bound_to 10162
  156.1532  130.6549  150.9944 H   0  0  0  0  0  0  0  0  0  0  0  0  # atno 10718 bound_to 10713
  152.9831  135.5678  154.5221 H   0  0  0  0  0  0  0  0  0  0  0  0  # atno 10763 bound_to 10752
  154.4707  135.2785  155.1647 H   0  0  0  0  0  0  0  0  0  0  0  0  # atno 10764 bound_to 10752
  154.3196  135.6271  153.5555 H   0  0  0  0  0  0  0  0  0  0  0  0  # atno 10765 bound_to 10752
  140.7499  133.8601  155.9036 H   0  0  0  0  0  0  0  0  0  0  0  0  # atno 11005 bound_to 11000
  145.3594  141.0323  143.3293 LP  0  0  0  0  0  0  0  0  0  0  0  0  # atno 17320 bound_to 7965
  144.8612  139.5175  143.6811 LP  0  0  0  0  0  0  0  0  0  0  0  0  # atno 17321 bound_to 7965
  139.4800  144.5081  151.8970 LP  0  0  0  0  0  0  0  0  0  0  0  0  # atno 17342 bound_to 10162
  140.4167  144.2297  150.5887 LP  0  0  0  0  0  0  0  0  0  0  0  0  # atno 17343 bound_to 10162
  157.6674  131.0869  150.7695 LP  0  0  0  0  0  0  0  0  0  0  0  0  # atno 17370 bound_to 10713
  156.7762  130.4844  149.5409 LP  0  0  0  0  0  0  0  0  0  0  0  0  # atno 17371 bound_to 10713
  140.9760  134.1468  157.4536 LP  0  0  0  0  0  0  0  0  0  0  0  0  # atno 17394 bound_to 11000
  139.8789  134.9995  156.5956 LP  0  0  0  0  0  0  0  0  0  0  0  0  # atno 17395 bound_to 11000

$$$$
