AV-unprocessed.smi:793|AV-procd|sdf|3753|dock10
  -GOLD-   22720 1183D 1   1.00000     0.00000
 Structure written by MMmdl.
 39 40  0  0  0  0  0  0  0  0  1 V2000
  151.9115  137.9646  154.5221 C   0  0  0  0  0  0  0  0  0  0  0  0
  151.5934  138.6344  155.8648 C   0  0  0  0  0  0  0  0  0  0  0  0
  151.7131  140.1689  155.8079 C   0  0  1  0  0  0  0  0  0  0  0  0
  150.6697  140.6568  154.9657 O   0  0  0  0  0  0  0  0  0  0  0  0
  149.3795  140.7791  155.5613 C   0  0  0  0  0  0  0  0  0  0  0  0
  148.6587  139.4265  155.5357 C   0  0  0  0  0  0  0  0  0  0  0  0
  148.0568  139.2992  154.1297 C   0  0  0  0  0  0  0  0  0  0  0  0
  148.0711  140.7089  153.5208 C   0  0  0  0  0  0  0  0  0  0  0  0
  148.5218  141.6483  154.6424 C   0  0  0  0  0  0  0  0  0  0  0  0
  151.6047  140.7943  157.2088 C   0  0  0  0  0  0  0  0  0  0  0  0
  151.3400  140.0759  158.1723 O   0  0  0  0  0  0  0  0  0  0  0  0
  151.8073  142.1254  157.2632 N   0  0  0  0  0  0  0  0  0  0  0  0
  151.7568  142.9947  158.3651 C   0  0  0  0  0  0  0  0  0  0  0  0
  151.0510  144.1527  158.4349 C   0  0  0  0  0  0  0  0  0  0  0  0
  151.0342  144.9813  159.5480 N   0  0  0  0  0  0  0  0  0  0  0  0
  151.7751  144.6226  160.6624 C   0  0  0  0  0  0  0  0  0  0  0  0
  152.5212  143.5023  160.7229 C   0  0  0  0  0  0  0  0  0  0  0  0
  152.5645  142.5970  159.5526 C   0  0  0  0  0  0  0  0  0  0  0  0
  153.2396  141.5679  159.5723 O   0  0  0  0  0  0  0  0  0  0  0  0
  151.8302  136.8804  154.6011 H   0  0  0  0  0  0  0  0  0  0  0  0
  152.9247  138.1994  154.1951 H   0  0  0  0  0  0  0  0  0  0  0  0
  151.2230  138.2936  153.7431 H   0  0  0  0  0  0  0  0  0  0  0  0
  150.5884  138.3487  156.1788 H   0  0  0  0  0  0  0  0  0  0  0  0
  152.2747  138.2397  156.6200 H   0  0  0  0  0  0  0  0  0  0  0  0
  152.6809  140.4209  155.3693 H   0  0  0  0  0  0  0  0  0  0  0  0
  149.4281  141.2048  156.5651 H   0  0  0  0  0  0  0  0  0  0  0  0
  149.3086  138.5882  155.7868 H   0  0  0  0  0  0  0  0  0  0  0  0
  147.8517  139.4387  156.2694 H   0  0  0  0  0  0  0  0  0  0  0  0
  148.6529  138.6220  153.5170 H   0  0  0  0  0  0  0  0  0  0  0  0
  147.0461  138.8923  154.1757 H   0  0  0  0  0  0  0  0  0  0  0  0
  148.7916  140.7439  152.7027 H   0  0  0  0  0  0  0  0  0  0  0  0
  147.1011  140.9956  153.1141 H   0  0  0  0  0  0  0  0  0  0  0  0
  147.6481  142.0025  155.1910 H   0  0  0  0  0  0  0  0  0  0  0  0
  149.0542  142.5245  154.2707 H   0  0  0  0  0  0  0  0  0  0  0  0
  152.0355  142.5750  156.3881 H   0  0  0  0  0  0  0  0  0  0  0  0
  150.4421  144.5399  157.6344 H   0  0  0  0  0  0  0  0  0  0  0  0
  151.7043  145.3205  161.4839 H   0  0  0  0  0  0  0  0  0  0  0  0
  153.0887  143.2491  161.6063 H   0  0  0  0  0  0  0  0  0  0  0  0
  150.4896  145.8324  159.5447 H   0  0  0  0  0  0  0  0  0  0  0  0
  1  2  1  0  0  0  0
  1 20  1  0  0  0  0
  1 21  1  0  0  0  0
  1 22  1  0  0  0  0
  2  3  1  0  0  0  0
  2 23  1  0  0  0  0
  2 24  1  0  0  0  0
  3  4  1  0  0  0  0
  3 10  1  0  0  0  0
  3 25  1  0  0  0  0
  4  5  1  0  0  0  0
  5  9  1  0  0  0  0
  5  6  1  0  0  0  0
  5 26  1  0  0  0  0
  6  7  1  0  0  0  0
  6 27  1  0  0  0  0
  6 28  1  0  0  0  0
  7  8  1  0  0  0  0
  7 29  1  0  0  0  0
  7 30  1  0  0  0  0
  8  9  1  0  0  0  0
  8 31  1  0  0  0  0
  8 32  1  0  0  0  0
  9 33  1  0  0  0  0
  9 34  1  0  0  0  0
 10 11  2  0  0  0  0
 10 12  1  0  0  0  0
 12 35  1  0  0  0  0
 12 13  1  0  0  0  0
 13 18  1  0  0  0  0
 13 14  2  0  0  0  0
 14 36  1  0  0  0  0
 14 15  1  0  0  0  0
 15 39  1  0  0  0  0
 15 16  1  0  0  0  0
 16 37  1  0  0  0  0
 16 17  2  0  0  0  0
 17 18  1  0  0  0  0
 17 38  1  0  0  0  0
 18 19  2  0  0  0  0
M  END
> <s_m_source_file>
AV-unprocessed.smi

> <i_m_source_file_index>
793

> <i_lp_mmshare_version>
43012

> <i_f3d_flags>
0

> <s_epik_input>
W0NIMl0xW0NIMl1bQ0gyXVtDSDJdW0NIXTFPW0NAQEhdKFtDSDJdW0NIM10pQyg9TylbTkhdYzJbY0hdbltjSF1bY0hdYzJbT0hd

> <s_epik_cmdline>
J2VwaWtfcHl0aG9uJywgJy1waCcsICc3LjAnLCAnLXRuJywgJzgnLCAnLW1hJywgJzIwMCcsICctbWV0YWxfYmluZGluZycsICctaW1hZScsICc8aW5maWxlLm1hZT4nLCAnLW9tYWUnLCAnPG91dGZpbGUubWFlPic=

> <r_lp_tautomer_probability>
1

> <r_epik_Ionization_Penalty>
0.000234492

> <r_epik_Ionization_Penalty_Charging>
0.000234447

> <r_epik_Ionization_Penalty_Neutral>
4.48517e-08

> <r_epik_State_Penalty>
-0

> <r_epik_Charging_Adjusted_Penalty>
0.000234447

> <i_epik_Tot_Q>
0

> <i_epik_Tot_abs_Q>
0

> <r_epik_Metal_State_Penalty>
0.110344

> <b_epik_Metal_Only>
0

> <s_lp_Force_Field>
OPLS_2005

> <r_lp_Energy>
26.0672

> <b_lp_Chiralities_Consistent>
1

> <s_lp_Variant>
AV-unprocessed.smi:793-2

> <Gold.Version>
5.8.1

> <Gold.Id.Protein>
6NUR|6NUR_protein|mol2

> <Gold.PLP.Fitness>
38.0438

> <Gold.PLP.PLP>
-34.2391

> <Gold.PLP.part.hbond>
-1.0000

> <Gold.PLP.part.metal>
0.0000

> <Gold.PLP.part.buried>
-0.5573

> <Gold.PLP.part.nonpolar>
-33.2224

> <Gold.PLP.part.repulsive>
0.3421

> <Gold.PLP.ligand.clash>
0.0000

> <Gold.PLP.ligand.torsion>
0.9147

> <Gold.PLP.Chemscore.Hbond>
0.8208

> <Gold.PLP.Chemscore.CHOScore>
1.0191

> <Gold.PLP.Chemscore.Metal>
0.0000

> <Gold.Chemscore.Hbonds>
donor molecule, donor type, donor heavy atom, donor atom, acceptor molecule, acceptor atom, score
      P1  H  7989  7998       L1     4  0.84
      L1  C    14    36       P1  8028  1.00
      L1  C    14    36       P1  8029  0.01

> <Gold.PLP.Chemscore.Internal.Correction>
0.1146

> <Gold.Rescore>
     Score         DG    S(hbond)    S(metal)    S(lipo)     H(rot)  DE(clash)    DE(int)     intcor
     11.14     -14.47       0.77        0.00      89.98       1.61       1.23       2.10       ----

> <Gold.Chemscore.Fitness>
11.1416

> <Gold.Chemscore.DG>
-14.4684

> <Gold.Chemscore.ZeroCoef>
-5.4800

> <Gold.Chemscore.Hbond>
0.7700

> <Gold.Chemscore.Metal>
0.0000

> <Gold.Chemscore.Lipo>
89.9840

> <Gold.Chemscore.Internal_Hbond>
0.0000

> <Gold.Chemscore.DEClash>
1.2287

> <Gold.Chemscore.DEInternal>
2.0982

> <Gold.Chemscore.Rot>
1.6061

> <Gold.Chemscore.Internal.Correction>
   9.000000E+99

> <Gold.Chemscore.Hbonds>
donor molecule, donor type, donor heavy atom, donor atom, acceptor molecule, acceptor atom, score
      P1  H  7989  7998       L1     4  0.16

> <Gold.Chemscore.Hbond.Weighted>
-2.5719

> <Gold.Chemscore.Metal.Weighted>
-0.0000

> <Gold.Chemscore.Lipo.Weighted>
-10.5281

> <Gold.Chemscore.Internal_Hbond.Weighted>
0.0000

> <Gold.Chemscore.DEClash.Weighted>
1.2287

> <Gold.Chemscore.DEInternal.Weighted>
2.0982

> <Gold.Chemscore.Rot.Weighted>
4.1116

> <Gold.Chemscore.Internal.Correction.Weighted>
   9.000000E+99

> <Gold.Protein.RotatedTorsions>
[ 6907 6896 6895 6894 ] final   23.11 input  -60.11 | X-H torsion
[ 7974 7965 7964 7962 ] final  -62.09 input  175.53 | X-H torsion
[ 8008 7997 7996 7995 ] final  148.45 input   59.86 | X-H torsion
[ 10167 10162 10161 10158 ] final   18.12 input  -65.29 | X-H torsion
[ 10718 10713 10712 10709 ] final  129.01 input   66.30 | X-H torsion
[ 10763 10752 10751 10750 ] final  115.85 input  -60.55 | X-H torsion
[ 11005 11000 10999 10996 ] final -173.26 input  -57.11 | X-H torsion

> <Gold.Protein.ActiveResidues>
 VAL166  LYS551  ARG553  GLY616  TRP617  ASP618  TYR619  PRO620  LYS621  CYS622 
 ASP623  PHE694  ASN695  SER759  ASP760  ASP761  ALA762  ILE779  LEU786  VAL792 
 PHE793  MET794  SER795  GLU796  ALA797  LYS798  CYS799  TRP800  GLU811  SER814 

> <Gold.Protein.RotatedAtoms>
  151.9374  135.0229  160.0533 H   0  0  0  0  0  0  0  0  0  0  0  0  # atno 6907 bound_to 6896
  152.2066  133.4875  159.5095 H   0  0  0  0  0  0  0  0  0  0  0  0  # atno 6908 bound_to 6896
  150.6966  134.1438  159.4157 H   0  0  0  0  0  0  0  0  0  0  0  0  # atno 6909 bound_to 6896
  145.7956  140.8685  143.0258 H   0  0  0  0  0  0  0  0  0  0  0  0  # atno 7974 bound_to 7965
  156.2791  140.2128  156.5699 H   0  0  0  0  0  0  0  0  0  0  0  0  # atno 8008 bound_to 7997
  154.7144  140.0509  157.0603 H   0  0  0  0  0  0  0  0  0  0  0  0  # atno 8009 bound_to 7997
  155.0563  140.3161  155.4678 H   0  0  0  0  0  0  0  0  0  0  0  0  # atno 8010 bound_to 7997
  140.5677  143.9220  150.6689 H   0  0  0  0  0  0  0  0  0  0  0  0  # atno 10167 bound_to 10162
  157.5193  131.1098  150.9177 H   0  0  0  0  0  0  0  0  0  0  0  0  # atno 10718 bound_to 10713
  153.5284  135.3583  155.2664 H   0  0  0  0  0  0  0  0  0  0  0  0  # atno 10763 bound_to 10752
  154.8729  135.4062  154.3179 H   0  0  0  0  0  0  0  0  0  0  0  0  # atno 10764 bound_to 10752
  153.3863  135.7070  153.6595 H   0  0  0  0  0  0  0  0  0  0  0  0  # atno 10765 bound_to 10752
  140.4877  134.6014  157.4943 H   0  0  0  0  0  0  0  0  0  0  0  0  # atno 11005 bound_to 11000
  144.6775  140.0185  143.7484 LP  0  0  0  0  0  0  0  0  0  0  0  0  # atno 17320 bound_to 7965
  145.9932  139.3031  143.0972 LP  0  0  0  0  0  0  0  0  0  0  0  0  # atno 17321 bound_to 7965
  140.2687  143.3471  152.1257 LP  0  0  0  0  0  0  0  0  0  0  0  0  # atno 17342 bound_to 10162
  139.5101  144.6879  151.5839 LP  0  0  0  0  0  0  0  0  0  0  0  0  # atno 17343 bound_to 10162
  156.9792  130.5520  149.5295 LP  0  0  0  0  0  0  0  0  0  0  0  0  # atno 17370 bound_to 10713
  156.0342  130.5431  150.8612 LP  0  0  0  0  0  0  0  0  0  0  0  0  # atno 17371 bound_to 10713
  139.9788  134.7172  155.9899 LP  0  0  0  0  0  0  0  0  0  0  0  0  # atno 17394 bound_to 11000
  141.1499  133.6550  156.3983 LP  0  0  0  0  0  0  0  0  0  0  0  0  # atno 17395 bound_to 11000

$$$$
