AV-unprocessed.smi:1584|AV-procd|sdf|6367|dock1
  -GOLD-   22720 6593D 1   1.00000     0.00000
 Structure written by MMmdl.
 39 40  0  0  0  0  0  0  0  0  1 V2000
  145.9302  129.2998  152.3034 C   0  0  0  0  0  0  0  0  0  0  0  0
  145.9748  130.8363  152.3381 C   0  0  2  0  0  0  0  0  0  0  0  0
  145.4527  131.4904  151.0398 C   0  0  0  0  0  0  0  0  0  0  0  0
  145.3162  132.9314  151.1536 N   0  0  0  0  0  0  0  0  0  0  0  0
  144.1963  133.7029  150.9263 C   0  0  0  0  0  0  0  0  0  0  0  0
  144.5439  135.0026  151.1590 C   0  0  0  0  0  0  0  0  0  0  0  0
  145.9150  134.9239  151.5316 C   0  0  0  0  0  0  0  0  0  0  0  0
  146.3741  133.6828  151.5294 N   0  0  0  0  0  0  0  0  0  0  0  0
  147.3439  131.2683  152.6048 N   0  0  0  0  0  0  0  0  0  0  0  0
  147.8967  131.3940  153.8217 C   0  0  0  0  0  0  0  0  0  0  0  0
  147.2896  131.1471  154.8643 O   0  0  0  0  0  0  0  0  0  0  0  0
  149.3621  131.8616  153.8644 C   0  0  1  0  0  0  0  0  0  0  0  0
  149.5357  133.3219  153.4236 C   0  0  0  0  0  0  0  0  0  0  0  0
  149.0400  134.3070  154.4908 C   0  0  0  0  0  0  0  0  0  0  0  0
  149.5429  134.0026  155.8360 N   0  0  0  0  0  0  0  0  0  0  0  0
  149.4996  135.1214  156.7795 C   0  0  0  0  0  0  0  0  0  0  0  0
  149.9700  132.7818  156.2403 C   0  0  0  0  0  0  0  0  0  0  0  0
  150.3473  132.5670  157.3925 O   0  0  0  0  0  0  0  0  0  0  0  0
  150.0157  131.6086  155.2424 C   0  0  0  0  0  0  0  0  0  0  0  0
  144.9093  128.9317  152.1999 H   0  0  0  0  0  0  0  0  0  0  0  0
  146.3340  128.8746  153.2230 H   0  0  0  0  0  0  0  0  0  0  0  0
  146.5122  128.9054  151.4699 H   0  0  0  0  0  0  0  0  0  0  0  0
  145.3437  131.1599  153.1681 H   0  0  0  0  0  0  0  0  0  0  0  0
  146.1314  131.2857  150.2110 H   0  0  0  0  0  0  0  0  0  0  0  0
  144.4875  131.0634  150.7617 H   0  0  0  0  0  0  0  0  0  0  0  0
  143.2569  133.2665  150.6197 H   0  0  0  0  0  0  0  0  0  0  0  0
  143.9147  135.8764  151.0765 H   0  0  0  0  0  0  0  0  0  0  0  0
  146.5852  135.7264  151.8023 H   0  0  0  0  0  0  0  0  0  0  0  0
  147.9147  131.4886  151.8014 H   0  0  0  0  0  0  0  0  0  0  0  0
  149.9030  131.2473  153.1424 H   0  0  0  0  0  0  0  0  0  0  0  0
  150.5927  133.5089  153.2294 H   0  0  0  0  0  0  0  0  0  0  0  0
  149.0199  133.5043  152.4798 H   0  0  0  0  0  0  0  0  0  0  0  0
  149.3389  135.3150  154.1997 H   0  0  0  0  0  0  0  0  0  0  0  0
  147.9499  134.3094  154.5255 H   0  0  0  0  0  0  0  0  0  0  0  0
  148.9427  134.8516  157.6782 H   0  0  0  0  0  0  0  0  0  0  0  0
  149.0162  136.0017  156.3542 H   0  0  0  0  0  0  0  0  0  0  0  0
  150.5094  135.4081  157.0761 H   0  0  0  0  0  0  0  0  0  0  0  0
  149.5875  130.7254  155.7196 H   0  0  0  0  0  0  0  0  0  0  0  0
  151.0693  131.3732  155.0875 H   0  0  0  0  0  0  0  0  0  0  0  0
  1  2  1  0  0  0  0
  1 20  1  0  0  0  0
  1 21  1  0  0  0  0
  1 22  1  0  0  0  0
  2  3  1  0  0  0  0
  2  9  1  0  0  0  0
  2 23  1  0  0  0  0
  3  4  1  0  0  0  0
  3 24  1  0  0  0  0
  3 25  1  0  0  0  0
  4  8  1  0  0  0  0
  4  5  1  0  0  0  0
  5  6  2  0  0  0  0
  5 26  1  0  0  0  0
  6  7  1  0  0  0  0
  6 27  1  0  0  0  0
  7  8  2  0  0  0  0
  7 28  1  0  0  0  0
  9 10  1  0  0  0  0
  9 29  1  0  0  0  0
 10 11  2  0  0  0  0
 10 12  1  0  0  0  0
 12 19  1  0  0  0  0
 12 13  1  0  0  0  0
 12 30  1  0  0  0  0
 13 14  1  0  0  0  0
 13 31  1  0  0  0  0
 13 32  1  0  0  0  0
 14 15  1  0  0  0  0
 14 33  1  0  0  0  0
 14 34  1  0  0  0  0
 15 16  1  0  0  0  0
 15 17  1  0  0  0  0
 16 35  1  0  0  0  0
 16 36  1  0  0  0  0
 16 37  1  0  0  0  0
 17 18  2  0  0  0  0
 17 19  1  0  0  0  0
 19 38  1  0  0  0  0
 19 39  1  0  0  0  0
M  END
> <s_m_source_file>
AV-unprocessed.smi

> <i_m_source_file_index>
1584

> <i_lp_mmshare_version>
43012

> <i_f3d_flags>
0

> <s_epik_input>
bjFbY0hdW2NIXVtjSF1uMVtDSDJdW0NAQEhdKFtDSDNdKVtOSF1DKD1PKVtDQEBIXTJbQ0gyXVtDSDJdTihbQ0gzXSlDKD1PKVtDSDJdMg==

> <s_epik_cmdline>
J2VwaWtfcHl0aG9uJywgJy1waCcsICc3LjAnLCAnLXRuJywgJzgnLCAnLW1hJywgJzIwMCcsICctbWV0YWxfYmluZGluZycsICctaW1hZScsICc8aW5maWxlLm1hZT4nLCAnLW9tYWUnLCAnPG91dGZpbGUubWFlPic=

> <r_lp_tautomer_probability>
1

> <r_epik_Ionization_Penalty>
0.000299422

> <r_epik_Ionization_Penalty_Charging>
0

> <r_epik_Ionization_Penalty_Neutral>
0.000299422

> <r_epik_State_Penalty>
-0

> <r_epik_Charging_Adjusted_Penalty>
0

> <i_epik_Tot_Q>
0

> <i_epik_Tot_abs_Q>
0

> <r_epik_Metal_State_Penalty>
-0

> <b_epik_Metal_Only>
0

> <s_lp_Force_Field>
OPLS_2005

> <r_lp_Energy>
12.5002

> <b_lp_Chiralities_Consistent>
1

> <s_lp_Variant>
AV-unprocessed.smi:1584-3

> <Gold.Version>
5.8.1

> <Gold.Id.Protein>
6NUR|6NUR_protein|mol2

> <Gold.PLP.Fitness>
40.8787

> <Gold.PLP.PLP>
-32.4048

> <Gold.PLP.part.hbond>
-1.6338

> <Gold.PLP.part.metal>
0.0000

> <Gold.PLP.part.buried>
-4.9165

> <Gold.PLP.part.nonpolar>
-26.0387

> <Gold.PLP.part.repulsive>
0.2400

> <Gold.PLP.ligand.clash>
0.0000

> <Gold.PLP.ligand.torsion>
0.6757

> <Gold.PLP.Chemscore.Hbond>
1.7313

> <Gold.PLP.Chemscore.CHOScore>
1.5199

> <Gold.PLP.Chemscore.Metal>
0.0000

> <Gold.Chemscore.Hbonds>
donor molecule, donor type, donor heavy atom, donor atom, acceptor molecule, acceptor atom, score
      L1  H     9    29       P1 10747  0.98
      P1  H  6896  6909       L1    18  0.67
      L1  C     5    26       P1 10186  0.47
      L1  C     7    28       P1  7948  1.00

> <Gold.PLP.Chemscore.Internal.Correction>
0.0718

> <Gold.Rescore>
     Score         DG    S(hbond)    S(metal)    S(lipo)     H(rot)  DE(clash)    DE(int)     intcor
     15.36     -16.16       1.94        0.00      72.58       1.67       0.02       0.78       ----

> <Gold.Chemscore.Fitness>
15.3567

> <Gold.Chemscore.DG>
-16.1568

> <Gold.Chemscore.ZeroCoef>
-5.4800

> <Gold.Chemscore.Hbond>
1.9367

> <Gold.Chemscore.Metal>
0.0000

> <Gold.Chemscore.Lipo>
72.5829

> <Gold.Chemscore.Internal_Hbond>
0.0000

> <Gold.Chemscore.DEClash>
0.0199

> <Gold.Chemscore.DEInternal>
0.7802

> <Gold.Chemscore.Rot>
1.6734

> <Gold.Chemscore.Internal.Correction>
   9.000000E+99

> <Gold.Chemscore.Hbonds>
donor molecule, donor type, donor heavy atom, donor atom, acceptor molecule, acceptor atom, score
      L1  H     9    29       P1 10747  0.91
      P1  H  6896  6909       L1    18  0.67

> <Gold.Chemscore.Hbond.Weighted>
-6.4686

> <Gold.Chemscore.Metal.Weighted>
-0.0000

> <Gold.Chemscore.Lipo.Weighted>
-8.4922

> <Gold.Chemscore.Internal_Hbond.Weighted>
0.0000

> <Gold.Chemscore.DEClash.Weighted>
0.0199

> <Gold.Chemscore.DEInternal.Weighted>
0.7802

> <Gold.Chemscore.Rot.Weighted>
4.2840

> <Gold.Chemscore.Internal.Correction.Weighted>
   9.000000E+99

> <Gold.Protein.RotatedTorsions>
[ 6907 6896 6895 6894 ] final  -21.17 input  -60.11 | X-H torsion
[ 7974 7965 7964 7962 ] final   13.52 input  175.53 | X-H torsion
[ 8008 7997 7996 7995 ] final  -29.50 input   59.86 | X-H torsion
[ 10167 10162 10161 10158 ] final  135.73 input  -65.29 | X-H torsion
[ 10718 10713 10712 10709 ] final  150.38 input   66.30 | X-H torsion
[ 10763 10752 10751 10750 ] final  -54.48 input  -60.55 | X-H torsion
[ 11005 11000 10999 10996 ] final   24.56 input  -57.11 | X-H torsion

> <Gold.Protein.ActiveResidues>
 VAL166  LYS551  ARG553  GLY616  TRP617  ASP618  TYR619  PRO620  LYS621  CYS622 
 ASP623  PHE694  ASN695  SER759  ASP760  ASP761  ALA762  ILE779  LEU786  VAL792 
 PHE793  MET794  SER795  GLU796  ALA797  LYS798  CYS799  TRP800  GLU811  SER814 

> <Gold.Protein.RotatedAtoms>
  151.2372  135.0576  159.9010 H   0  0  0  0  0  0  0  0  0  0  0  0  # atno 6907 bound_to 6896
  152.5397  134.0473  159.8104 H   0  0  0  0  0  0  0  0  0  0  0  0  # atno 6908 bound_to 6896
  151.0661  133.5455  159.2662 H   0  0  0  0  0  0  0  0  0  0  0  0  # atno 6909 bound_to 6896
  146.2327  139.9177  142.8515 H   0  0  0  0  0  0  0  0  0  0  0  0  # atno 7974 bound_to 7965
  154.4287  140.1816  156.1258 H   0  0  0  0  0  0  0  0  0  0  0  0  # atno 8008 bound_to 7997
  156.0107  140.3351  155.6912 H   0  0  0  0  0  0  0  0  0  0  0  0  # atno 8009 bound_to 7997
  155.6115  140.0650  157.2695 H   0  0  0  0  0  0  0  0  0  0  0  0  # atno 8010 bound_to 7997
  139.5206  144.6502  151.5325 H   0  0  0  0  0  0  0  0  0  0  0  0  # atno 10167 bound_to 10162
  157.2841  131.0841  151.1510 H   0  0  0  0  0  0  0  0  0  0  0  0  # atno 10718 bound_to 10713
  154.1754  135.6452  153.5020 H   0  0  0  0  0  0  0  0  0  0  0  0  # atno 10763 bound_to 10752
  153.0073  135.5393  154.6569 H   0  0  0  0  0  0  0  0  0  0  0  0  # atno 10764 bound_to 10752
  154.5919  135.2935  155.0599 H   0  0  0  0  0  0  0  0  0  0  0  0  # atno 10765 bound_to 10752
  140.3574  134.2163  155.7675 H   0  0  0  0  0  0  0  0  0  0  0  0  # atno 11005 bound_to 11000
  145.2168  140.9918  143.4069 LP  0  0  0  0  0  0  0  0  0  0  0  0  # atno 17320 bound_to 7965
  144.9644  139.3945  143.6340 LP  0  0  0  0  0  0  0  0  0  0  0  0  # atno 17321 bound_to 7965
  140.6303  143.9088  150.6600 LP  0  0  0  0  0  0  0  0  0  0  0  0  # atno 17342 bound_to 10162
  140.2390  143.3678  152.1502 LP  0  0  0  0  0  0  0  0  0  0  0  0  # atno 17343 bound_to 10162
  157.2932  130.6806  149.6125 LP  0  0  0  0  0  0  0  0  0  0  0  0  # atno 17370 bound_to 10713
  155.9665  130.4414  150.5340 LP  0  0  0  0  0  0  0  0  0  0  0  0  # atno 17371 bound_to 10713
  141.1994  133.8012  157.0537 LP  0  0  0  0  0  0  0  0  0  0  0  0  # atno 17394 bound_to 11000
  140.0654  134.9732  157.1377 LP  0  0  0  0  0  0  0  0  0  0  0  0  # atno 17395 bound_to 11000

$$$$
