AV-unprocessed.smi:1076|AV-procd|sdf|4697|dock8
  -GOLD-   22720 3213D 1   1.00000     0.00000
 Structure written by MMmdl.
 45 46  0  0  0  0  0  0  0  0  2 V2000
  153.6423  142.6295  163.5891 C   0  0  0  0  0  0  0  0  0  0  0  0
  153.3006  142.8099  162.1388 C   0  0  0  0  0  0  0  0  0  0  0  0
  153.6425  141.9596  161.0498 C   0  0  0  0  0  0  0  0  0  0  0  0
  153.2027  142.4123  159.8872 N   0  0  0  0  0  0  0  0  0  0  0  0
  152.5600  143.5600  160.1926 N   0  0  0  0  0  0  0  0  0  0  0  0
  151.9688  144.3603  159.1325 C   0  0  0  0  0  0  0  0  0  0  0  0
  151.6939  143.5214  157.8693 C   0  0  2  0  0  0  0  0  0  0  0  0
  151.2219  144.3955  156.6984 C   0  0  0  0  0  0  0  0  0  0  0  0
  150.6999  142.4698  158.1753 N   0  3  0  0  0  0  0  0  0  0  0  0
  150.3120  141.5976  157.0453 C   0  0  0  0  0  0  0  0  0  0  0  0
  151.5186  140.7794  156.5425 C   0  0  0  0  0  0  0  0  0  0  0  0
  151.2149  139.9219  155.2960 C   0  0  0  0  0  0  0  0  0  0  0  0
  150.4264  140.3563  154.4545 O   0  0  0  0  0  0  0  0  0  0  0  0
  151.8379  138.7297  155.1442 N   0  0  0  0  0  0  0  0  0  0  0  0
  152.6404  138.1068  156.2000 C   0  0  0  0  0  0  0  0  0  0  0  0
  151.9157  136.8267  156.6553 C   0  0  0  0  0  0  0  0  0  0  0  0
  151.7278  135.9564  155.5410 O   0  0  0  0  0  0  0  0  0  0  0  0
  150.9862  136.5518  154.4781 C   0  0  0  0  0  0  0  0  0  0  0  0
  151.7077  137.8240  153.9999 C   0  0  0  0  0  0  0  0  0  0  0  0
  152.6010  143.8223  161.5454 C   0  0  0  0  0  0  0  0  0  0  0  0
  153.8850  141.5924  163.8218 H   0  0  0  0  0  0  0  0  0  0  0  0
  152.8159  142.9185  164.2384 H   0  0  0  0  0  0  0  0  0  0  0  0
  154.5038  143.2330  163.8751 H   0  0  0  0  0  0  0  0  0  0  0  0
  154.2012  141.0355  161.0697 H   0  0  0  0  0  0  0  0  0  0  0  0
  151.0488  144.8169  159.5017 H   0  0  0  0  0  0  0  0  0  0  0  0
  152.6534  145.1773  158.9021 H   0  0  0  0  0  0  0  0  0  0  0  0
  152.6330  143.0420  157.5885 H   0  0  0  0  0  0  0  0  0  0  0  0
  151.9556  145.1685  156.4676 H   0  0  0  0  0  0  0  0  0  0  0  0
  150.2783  144.8919  156.9282 H   0  0  0  0  0  0  0  0  0  0  0  0
  151.0765  143.8041  155.7940 H   0  0  0  0  0  0  0  0  0  0  0  0
  151.1372  141.8685  158.8604 H   0  0  0  0  0  0  0  0  0  0  0  0
  149.5118  140.9332  157.3719 H   0  0  0  0  0  0  0  0  0  0  0  0
  149.9065  142.1892  156.2230 H   0  0  0  0  0  0  0  0  0  0  0  0
  152.3308  141.4726  156.3216 H   0  0  0  0  0  0  0  0  0  0  0  0
  151.8672  140.1185  157.3368 H   0  0  0  0  0  0  0  0  0  0  0  0
  153.6307  137.8637  155.8120 H   0  0  0  0  0  0  0  0  0  0  0  0
  152.8028  138.7612  157.0574 H   0  0  0  0  0  0  0  0  0  0  0  0
  152.5021  136.3089  157.4144 H   0  0  0  0  0  0  0  0  0  0  0  0
  150.9506  137.0661  157.1045 H   0  0  0  0  0  0  0  0  0  0  0  0
  150.9016  135.8346  153.6616 H   0  0  0  0  0  0  0  0  0  0  0  0
  149.9726  136.7807  154.8113 H   0  0  0  0  0  0  0  0  0  0  0  0
  151.1864  138.2606  153.1494 H   0  0  0  0  0  0  0  0  0  0  0  0
  152.7023  137.5691  153.6308 H   0  0  0  0  0  0  0  0  0  0  0  0
  152.1438  144.7047  161.9684 H   0  0  0  0  0  0  0  0  0  0  0  0
  149.8791  142.8806  158.5964 H   0  0  0  0  0  0  0  0  0  0  0  0
  1  2  1  0  0  0  0
  1 21  1  0  0  0  0
  1 22  1  0  0  0  0
  1 23  1  0  0  0  0
  2 20  2  0  0  0  0
  2  3  1  0  0  0  0
  3  4  2  0  0  0  0
  3 24  1  0  0  0  0
  4  5  1  0  0  0  0
  5  6  1  0  0  0  0
  5 20  1  0  0  0  0
  6  7  1  0  0  0  0
  6 25  1  0  0  0  0
  6 26  1  0  0  0  0
  7  8  1  0  0  0  0
  7  9  1  0  0  0  0
  7 27  1  0  0  0  0
  8 28  1  0  0  0  0
  8 29  1  0  0  0  0
  8 30  1  0  0  0  0
  9 10  1  0  0  0  0
  9 31  1  0  0  0  0
  9 45  1  0  0  0  0
 10 11  1  0  0  0  0
 10 32  1  0  0  0  0
 10 33  1  0  0  0  0
 11 12  1  0  0  0  0
 11 34  1  0  0  0  0
 11 35  1  0  0  0  0
 12 13  2  0  0  0  0
 12 14  1  0  0  0  0
 14 19  1  0  0  0  0
 14 15  1  0  0  0  0
 15 16  1  0  0  0  0
 15 36  1  0  0  0  0
 15 37  1  0  0  0  0
 16 17  1  0  0  0  0
 16 38  1  0  0  0  0
 16 39  1  0  0  0  0
 17 18  1  0  0  0  0
 18 19  1  0  0  0  0
 18 40  1  0  0  0  0
 18 41  1  0  0  0  0
 19 42  1  0  0  0  0
 19 43  1  0  0  0  0
 20 44  1  0  0  0  0
M  CHG  1   9   1
M  END
> <s_m_source_file>
AV-unprocessed.smi

> <i_m_source_file_index>
1076

> <i_lp_mmshare_version>
43012

> <i_f3d_flags>
0

> <s_epik_input>
W0NIM11jMVtjSF1ubihbY0hdMSlbQ0gyXVtDQEhdKFtDSDNdKVtOSF1bQ0gyXVtDSDJdQyg9TylOMltDSDJdW0NIMl1PW0NIMl1bQ0gyXTI=

> <s_epik_cmdline>
J2VwaWtfcHl0aG9uJywgJy1waCcsICc3LjAnLCAnLXRuJywgJzgnLCAnLW1hJywgJzIwMCcsICctbWV0YWxfYmluZGluZycsICctaW1hZScsICc8aW5maWxlLm1hZT4nLCAnLW9tYWUnLCAnPG91dGZpbGUubWFlPic=

> <r_lp_tautomer_probability>
1

> <r_epik_Ionization_Penalty>
0.00797518

> <r_epik_Ionization_Penalty_Charging>
0.0079672

> <r_epik_Ionization_Penalty_Neutral>
7.97619e-06

> <r_epik_State_Penalty>
0.00597998

> <r_epik_Charging_Adjusted_Penalty>
0.0139472

> <i_epik_Tot_Q>
1

> <i_epik_Tot_abs_Q>
1

> <r_epik_Metal_State_Penalty>
0.00598062

> <b_epik_Metal_Only>
0

> <s_lp_Force_Field>
OPLS_2005

> <r_lp_Energy>
21.8291

> <b_lp_Chiralities_Consistent>
1

> <s_lp_Variant>
AV-unprocessed.smi:1076-1

> <Gold.Version>
5.8.1

> <Gold.Id.Protein>
6NUR|6NUR_protein|mol2

> <Gold.PLP.Fitness>
48.8161

> <Gold.PLP.PLP>
-44.2047

> <Gold.PLP.part.hbond>
-2.0000

> <Gold.PLP.part.metal>
0.0000

> <Gold.PLP.part.buried>
-1.7817

> <Gold.PLP.part.nonpolar>
-41.5986

> <Gold.PLP.part.repulsive>
0.1991

> <Gold.PLP.ligand.clash>
0.0000

> <Gold.PLP.ligand.torsion>
0.7058

> <Gold.PLP.Chemscore.Hbond>
1.9500

> <Gold.PLP.Chemscore.CHOScore>
0.0000

> <Gold.PLP.Chemscore.Metal>
0.0000

> <Gold.Chemscore.Hbonds>
donor molecule, donor type, donor heavy atom, donor atom, acceptor molecule, acceptor atom, score
      P1  H  7989  7998       L1    13  0.65
      P1  H 10752 10763       L1    17  0.99

> <Gold.PLP.Chemscore.Internal.Correction>
0.1730

> <Gold.Rescore>
     Score         DG    S(hbond)    S(metal)    S(lipo)     H(rot)  DE(clash)    DE(int)     intcor
     15.81     -17.98       1.08        0.00     119.30       1.98       1.46       0.71       ----

> <Gold.Chemscore.Fitness>
15.8118

> <Gold.Chemscore.DG>
-17.9838

> <Gold.Chemscore.ZeroCoef>
-5.4800

> <Gold.Chemscore.Hbond>
1.0849

> <Gold.Chemscore.Metal>
0.0000

> <Gold.Chemscore.Lipo>
119.3033

> <Gold.Chemscore.Internal_Hbond>
0.0000

> <Gold.Chemscore.DEClash>
1.4576

> <Gold.Chemscore.DEInternal>
0.7144

> <Gold.Chemscore.Rot>
1.9837

> <Gold.Chemscore.Internal.Correction>
   9.000000E+99

> <Gold.Chemscore.Hbonds>
donor molecule, donor type, donor heavy atom, donor atom, acceptor molecule, acceptor atom, score
      P1  H  7989  7998       L1    13  0.05
      P1  H 10752 10763       L1    17  0.48

> <Gold.Chemscore.Hbond.Weighted>
-3.6235

> <Gold.Chemscore.Metal.Weighted>
-0.0000

> <Gold.Chemscore.Lipo.Weighted>
-13.9585

> <Gold.Chemscore.Internal_Hbond.Weighted>
0.0000

> <Gold.Chemscore.DEClash.Weighted>
1.4576

> <Gold.Chemscore.DEInternal.Weighted>
0.7144

> <Gold.Chemscore.Rot.Weighted>
5.0782

> <Gold.Chemscore.Internal.Correction.Weighted>
   9.000000E+99

> <Gold.Protein.RotatedTorsions>
[ 6907 6896 6895 6894 ] final -129.34 input  -60.11 | X-H torsion
[ 7974 7965 7964 7962 ] final  115.93 input  175.53 | X-H torsion
[ 8008 7997 7996 7995 ] final -122.02 input   59.86 | X-H torsion
[ 10167 10162 10161 10158 ] final  169.31 input  -65.29 | X-H torsion
[ 10718 10713 10712 10709 ] final  178.09 input   66.30 | X-H torsion
[ 10763 10752 10751 10750 ] final   95.16 input  -60.55 | X-H torsion
[ 11005 11000 10999 10996 ] final  -41.78 input  -57.11 | X-H torsion

> <Gold.Protein.ActiveResidues>
 VAL166  LYS551  ARG553  GLY616  TRP617  ASP618  TYR619  PRO620  LYS621  CYS622 
 ASP623  PHE694  ASN695  SER759  ASP760  ASP761  ALA762  ILE779  LEU786  VAL792 
 PHE793  MET794  SER795  GLU796  ALA797  LYS798  CYS799  TRP800  GLU811  SER814 

> <Gold.Protein.RotatedAtoms>
  150.9276  133.6805  159.2817 H   0  0  0  0  0  0  0  0  0  0  0  0  # atno 6907 bound_to 6896
  151.4238  135.1000  159.9631 H   0  0  0  0  0  0  0  0  0  0  0  0  # atno 6908 bound_to 6896
  152.5010  133.8722  159.7359 H   0  0  0  0  0  0  0  0  0  0  0  0  # atno 6909 bound_to 6896
  145.1859  139.3025  143.4393 H   0  0  0  0  0  0  0  0  0  0  0  0  # atno 7974 bound_to 7965
  155.1575  140.0405  157.2835 H   0  0  0  0  0  0  0  0  0  0  0  0  # atno 8008 bound_to 7997
  154.6360  140.2535  155.7351 H   0  0  0  0  0  0  0  0  0  0  0  0  # atno 8009 bound_to 7997
  156.2509  140.2865  156.0733 H   0  0  0  0  0  0  0  0  0  0  0  0  # atno 8010 bound_to 7997
  139.4989  144.3720  151.9715 H   0  0  0  0  0  0  0  0  0  0  0  0  # atno 10167 bound_to 10162
  156.8957  130.9862  151.3043 H   0  0  0  0  0  0  0  0  0  0  0  0  # atno 10718 bound_to 10713
  153.2499  135.4264  155.0787 H   0  0  0  0  0  0  0  0  0  0  0  0  # atno 10763 bound_to 10752
  154.8377  135.3423  154.6527 H   0  0  0  0  0  0  0  0  0  0  0  0  # atno 10764 bound_to 10752
  153.6949  135.7031  153.5136 H   0  0  0  0  0  0  0  0  0  0  0  0  # atno 10765 bound_to 10752
  141.0270  133.6837  156.2504 H   0  0  0  0  0  0  0  0  0  0  0  0  # atno 11005 bound_to 11000
  146.3445  140.2055  142.8589 LP  0  0  0  0  0  0  0  0  0  0  0  0  # atno 17320 bound_to 7965
  145.0090  140.8697  143.5236 LP  0  0  0  0  0  0  0  0  0  0  0  0  # atno 17321 bound_to 7965
  140.3156  144.3487  150.6022 LP  0  0  0  0  0  0  0  0  0  0  0  0  # atno 17342 bound_to 10162
  140.5764  143.2176  151.7508 LP  0  0  0  0  0  0  0  0  0  0  0  0  # atno 17343 bound_to 10162
  157.6057  130.8545  149.8871 LP  0  0  0  0  0  0  0  0  0  0  0  0  # atno 17370 bound_to 10713
  156.0607  130.3700  150.0989 LP  0  0  0  0  0  0  0  0  0  0  0  0  # atno 17371 bound_to 10713
  140.6474  134.5102  157.5575 LP  0  0  0  0  0  0  0  0  0  0  0  0  # atno 17394 bound_to 11000
  139.9182  134.8202  156.1296 LP  0  0  0  0  0  0  0  0  0  0  0  0  # atno 17395 bound_to 11000

$$$$
