AV-unprocessed.smi:1251|AV-procd|sdf|5260|dock8
  -GOLD-   22720 4373D 1   1.00000     0.00000
 Structure written by MMmdl.
 38 39  0  0  0  0  0  0  0  0  2 V2000
  151.5031  145.1021  160.5264 C   0  0  0  0  0  0  0  0  0  0  0  0
  151.3335  144.0595  161.6368 C   0  0  0  0  0  0  0  0  0  0  0  0
  152.5232  143.0933  161.7243 C   0  0  0  0  0  0  0  0  0  0  0  0
  152.6173  142.1904  160.5399 C   0  0  0  0  0  0  0  0  0  0  0  0
  151.8583  142.3423  159.4517 N   0  0  0  0  0  0  0  0  0  0  0  0
  152.1099  141.3665  158.4985 N   0  0  0  0  0  0  0  0  0  0  0  0
  153.0356  140.4782  158.8867 C   0  0  0  0  0  0  0  0  0  0  0  0
  153.4233  139.4570  158.1046 N   0  5  0  0  0  0  0  0  0  0  0  0
  152.4989  138.6420  157.5472 C   0  0  0  0  0  0  0  0  0  0  0  0
  152.0105  137.6329  158.0604 O   0  0  0  0  0  0  0  0  0  0  0  0
  152.1203  139.0214  156.3181 N   0  0  0  0  0  0  0  0  0  0  0  0
  151.1381  138.3519  155.4671 C   0  0  2  0  0  0  0  0  0  0  0  0
  151.6462  138.3199  154.0165 C   0  0  0  0  0  0  0  0  0  0  0  0
  149.7768  139.0639  155.5851 C   0  0  2  0  0  0  0  0  0  0  0  0
  148.6526  138.4294  154.7632 C   0  0  0  0  0  0  0  0  0  0  0  0
  147.7026  139.5926  154.5957 C   0  0  0  0  0  0  0  0  0  0  0  0
  148.6679  140.7588  154.4063 C   0  0  0  0  0  0  0  0  0  0  0  0
  149.8623  140.4018  155.0981 O   0  0  0  0  0  0  0  0  0  0  0  0
  153.6925  140.8032  160.4909 S   0  0  0  0  0  0  0  0  0  0  0  0
  150.6449  145.7734  160.4899 H   0  0  0  0  0  0  0  0  0  0  0  0
  151.5949  144.6253  159.5502 H   0  0  0  0  0  0  0  0  0  0  0  0
  152.3941  145.7092  160.6892 H   0  0  0  0  0  0  0  0  0  0  0  0
  151.2052  144.5692  162.5924 H   0  0  0  0  0  0  0  0  0  0  0  0
  150.4165  143.4953  161.4623 H   0  0  0  0  0  0  0  0  0  0  0  0
  153.4555  143.6528  161.8130 H   0  0  0  0  0  0  0  0  0  0  0  0
  152.4420  142.4793  162.6219 H   0  0  0  0  0  0  0  0  0  0  0  0
  152.5499  139.8541  155.9432 H   0  0  0  0  0  0  0  0  0  0  0  0
  151.0064  137.3240  155.8097 H   0  0  0  0  0  0  0  0  0  0  0  0
  150.9443  137.7994  153.3645 H   0  0  0  0  0  0  0  0  0  0  0  0
  152.6032  137.8022  153.9455 H   0  0  0  0  0  0  0  0  0  0  0  0
  151.7827  139.3275  153.6223 H   0  0  0  0  0  0  0  0  0  0  0  0
  149.4663  139.1115  156.6305 H   0  0  0  0  0  0  0  0  0  0  0  0
  149.0230  138.1069  153.7889 H   0  0  0  0  0  0  0  0  0  0  0  0
  148.1945  137.5714  155.2564 H   0  0  0  0  0  0  0  0  0  0  0  0
  147.0134  139.4687  153.7603 H   0  0  0  0  0  0  0  0  0  0  0  0
  147.1176  139.7310  155.5059 H   0  0  0  0  0  0  0  0  0  0  0  0
  148.9070  140.8881  153.3501 H   0  0  0  0  0  0  0  0  0  0  0  0
  148.2591  141.6985  154.7783 H   0  0  0  0  0  0  0  0  0  0  0  0
  1  2  1  0  0  0  0
  1 20  1  0  0  0  0
  1 21  1  0  0  0  0
  1 22  1  0  0  0  0
  2  3  1  0  0  0  0
  2 23  1  0  0  0  0
  2 24  1  0  0  0  0
  3  4  1  0  0  0  0
  3 25  1  0  0  0  0
  3 26  1  0  0  0  0
  4 19  1  0  0  0  0
  4  5  2  0  0  0  0
  5  6  1  0  0  0  0
  6  7  2  0  0  0  0
  7  8  1  0  0  0  0
  7 19  1  0  0  0  0
  8  9  1  0  0  0  0
  9 10  2  0  0  0  0
  9 11  1  0  0  0  0
 11 12  1  0  0  0  0
 11 27  1  0  0  0  0
 12 13  1  0  0  0  0
 12 14  1  0  0  0  0
 12 28  1  0  0  0  0
 13 29  1  0  0  0  0
 13 30  1  0  0  0  0
 13 31  1  0  0  0  0
 14 18  1  0  0  0  0
 14 15  1  0  0  0  0
 14 32  1  0  0  0  0
 15 16  1  0  0  0  0
 15 33  1  0  0  0  0
 15 34  1  0  0  0  0
 16 17  1  0  0  0  0
 16 35  1  0  0  0  0
 16 36  1  0  0  0  0
 17 18  1  0  0  0  0
 17 37  1  0  0  0  0
 17 38  1  0  0  0  0
M  CHG  1   8  -1
M  END
> <s_m_source_file>
AV-unprocessed.smi

> <i_m_source_file_index>
1251

> <i_lp_mmshare_version>
43012

> <i_f3d_flags>
0

> <s_epik_input>
W0NIM11bQ0gyXVtDSDJdYzFubmMoczEpW05IXUMoPU8pW05IXVtDQEhdKFtDSDNdKVtDQEBIXTJbQ0gyXVtDSDJdW0NIMl1PMg==

> <s_epik_cmdline>
J2VwaWtfcHl0aG9uJywgJy1waCcsICc3LjAnLCAnLXRuJywgJzgnLCAnLW1hJywgJzIwMCcsICctbWV0YWxfYmluZGluZycsICctaW1hZScsICc8aW5maWxlLm1hZT4nLCAnLW9tYWUnLCAnPG91dGZpbGUubWFlPic=

> <r_lp_tautomer_probability>
1

> <r_epik_Ionization_Penalty>
4.22551

> <r_epik_Ionization_Penalty_Charging>
4.21437

> <r_epik_Ionization_Penalty_Neutral>
0.0111434

> <r_epik_State_Penalty>
4.21389

> <r_epik_Charging_Adjusted_Penalty>
8.42826

> <i_epik_Tot_Q>
-1

> <i_epik_Tot_abs_Q>
1

> <r_epik_Metal_State_Penalty>
0.69377

> <b_epik_Metal_Only>
1

> <s_lp_Force_Field>
OPLS_2005

> <r_lp_Energy>
11.2841

> <b_lp_Chiralities_Consistent>
1

> <s_lp_Variant>
AV-unprocessed.smi:1251-5

> <Gold.Version>
5.8.1

> <Gold.Id.Protein>
6NUR|6NUR_protein|mol2

> <Gold.PLP.Fitness>
39.0301

> <Gold.PLP.PLP>
-33.9173

> <Gold.PLP.part.hbond>
-2.0000

> <Gold.PLP.part.metal>
0.0000

> <Gold.PLP.part.buried>
-3.0548

> <Gold.PLP.part.nonpolar>
-28.4589

> <Gold.PLP.part.repulsive>
0.2239

> <Gold.PLP.ligand.clash>
0.0000

> <Gold.PLP.ligand.torsion>
1.5916

> <Gold.PLP.Chemscore.Hbond>
2.7440

> <Gold.PLP.Chemscore.CHOScore>
0.0000

> <Gold.PLP.Chemscore.Metal>
0.0000

> <Gold.Chemscore.Hbonds>
donor molecule, donor type, donor heavy atom, donor atom, acceptor molecule, acceptor atom, score
      P1  H  7989  7998       L1    18  0.02
      P1  H  7997  8008       L1     8  2.00

> <Gold.PLP.Chemscore.Internal.Correction>
0.0640

> <Gold.Rescore>
     Score         DG    S(hbond)    S(metal)    S(lipo)     H(rot)  DE(clash)    DE(int)     intcor
     10.83     -14.45       0.64        0.00      92.35       1.55       0.59       3.03       ----

> <Gold.Chemscore.Fitness>
10.8295

> <Gold.Chemscore.DG>
-14.4531

> <Gold.Chemscore.ZeroCoef>
-5.4800

> <Gold.Chemscore.Hbond>
0.6370

> <Gold.Chemscore.Metal>
0.0000

> <Gold.Chemscore.Lipo>
92.3541

> <Gold.Chemscore.Internal_Hbond>
0.0000

> <Gold.Chemscore.DEClash>
0.5943

> <Gold.Chemscore.DEInternal>
3.0293

> <Gold.Chemscore.Rot>
1.5469

> <Gold.Chemscore.Internal.Correction>
   9.000000E+99

> <Gold.Chemscore.Hbonds>
donor molecule, donor type, donor heavy atom, donor atom, acceptor molecule, acceptor atom, score
      P1  H  7989  7998       L1    18  0.03
      P1  H  7997  8008       L1     8  0.52

> <Gold.Chemscore.Hbond.Weighted>
-2.1277

> <Gold.Chemscore.Metal.Weighted>
-0.0000

> <Gold.Chemscore.Lipo.Weighted>
-10.8054

> <Gold.Chemscore.Internal_Hbond.Weighted>
0.0000

> <Gold.Chemscore.DEClash.Weighted>
0.5943

> <Gold.Chemscore.DEInternal.Weighted>
3.0293

> <Gold.Chemscore.Rot.Weighted>
3.9600

> <Gold.Chemscore.Internal.Correction.Weighted>
   9.000000E+99

> <Gold.Protein.RotatedTorsions>
[ 6907 6896 6895 6894 ] final  -25.66 input  -60.11 | X-H torsion
[ 7974 7965 7964 7962 ] final  163.95 input  175.53 | X-H torsion
[ 8008 7997 7996 7995 ] final  -74.37 input   59.86 | X-H torsion
[ 10167 10162 10161 10158 ] final  111.07 input  -65.29 | X-H torsion
[ 10718 10713 10712 10709 ] final   31.78 input   66.30 | X-H torsion
[ 10763 10752 10751 10750 ] final  114.10 input  -60.55 | X-H torsion
[ 11005 11000 10999 10996 ] final   50.70 input  -57.11 | X-H torsion

> <Gold.Protein.ActiveResidues>
 VAL166  LYS551  ARG553  GLY616  TRP617  ASP618  TYR619  PRO620  LYS621  CYS622 
 ASP623  PHE694  ASN695  SER759  ASP760  ASP761  ALA762  ILE779  LEU786  VAL792 
 PHE793  MET794  SER795  GLU796  ALA797  LYS798  CYS799  TRP800  GLU811  SER814 

> <Gold.Protein.RotatedAtoms>
  151.1720  135.0322  159.8755 H   0  0  0  0  0  0  0  0  0  0  0  0  # atno 6907 bound_to 6896
  152.5448  134.1160  159.8389 H   0  0  0  0  0  0  0  0  0  0  0  0  # atno 6908 bound_to 6896
  151.1267  133.5019  159.2633 H   0  0  0  0  0  0  0  0  0  0  0  0  # atno 6909 bound_to 6896
  144.7566  139.8257  143.6347 H   0  0  0  0  0  0  0  0  0  0  0  0  # atno 7974 bound_to 7965
  154.5325  140.0762  156.8370 H   0  0  0  0  0  0  0  0  0  0  0  0  # atno 8008 bound_to 7997
  155.3346  140.3404  155.4221 H   0  0  0  0  0  0  0  0  0  0  0  0  # atno 8009 bound_to 7997
  156.1795  140.1647  156.8287 H   0  0  0  0  0  0  0  0  0  0  0  0  # atno 8010 bound_to 7997
  139.6640  144.7128  151.1812 H   0  0  0  0  0  0  0  0  0  0  0  0  # atno 10167 bound_to 10162
  157.2769  130.7235  149.6535 H   0  0  0  0  0  0  0  0  0  0  0  0  # atno 10718 bound_to 10713
  153.5022  135.3635  155.2546 H   0  0  0  0  0  0  0  0  0  0  0  0  # atno 10763 bound_to 10752
  154.8747  135.4003  154.3465 H   0  0  0  0  0  0  0  0  0  0  0  0  # atno 10764 bound_to 10752
  153.4103  135.7077  153.6430 H   0  0  0  0  0  0  0  0  0  0  0  0  # atno 10765 bound_to 10752
  140.0995  134.5101  155.8776 H   0  0  0  0  0  0  0  0  0  0  0  0  # atno 11005 bound_to 11000
  146.1584  139.4689  143.0004 LP  0  0  0  0  0  0  0  0  0  0  0  0  # atno 17320 bound_to 7965
  145.6757  141.0204  143.1633 LP  0  0  0  0  0  0  0  0  0  0  0  0  # atno 17321 bound_to 7965
  140.7591  143.5949  150.8758 LP  0  0  0  0  0  0  0  0  0  0  0  0  # atno 17342 bound_to 10162
  139.9609  143.6165  152.3002 LP  0  0  0  0  0  0  0  0  0  0  0  0  # atno 17343 bound_to 10162
  155.9664  130.4350  150.5074 LP  0  0  0  0  0  0  0  0  0  0  0  0  # atno 17370 bound_to 10713
  157.3009  131.0645  151.2068 LP  0  0  0  0  0  0  0  0  0  0  0  0  # atno 17371 bound_to 10713
  141.2101  133.6691  156.6489 LP  0  0  0  0  0  0  0  0  0  0  0  0  # atno 17394 bound_to 11000
  140.3240  134.7984  157.4275 LP  0  0  0  0  0  0  0  0  0  0  0  0  # atno 17395 bound_to 11000

$$$$
