AV-unprocessed.smi:2822|AV-procd|sdf|10868|dock8
  -GOLD-   2272015313D 1   1.00000     0.00000
 Structure written by MMmdl.
 40 42  0  0  0  0  0  0  0  0  2 V2000
  147.7829  132.6594  152.4627 Cl  0  0  0  0  0  0  0  0  0  0  0  0
  146.3417  132.7447  151.5104 C   0  0  0  0  0  0  0  0  0  0  0  0
  145.6654  131.5590  151.1579 C   0  0  0  0  0  0  0  0  0  0  0  0
  144.5374  131.5383  150.4175 N   0  0  0  0  0  0  0  0  0  0  0  0
  144.0394  132.7199  149.9984 C   0  0  0  0  0  0  0  0  0  0  0  0
  144.6356  133.9624  150.2937 C   0  0  0  0  0  0  0  0  0  0  0  0
  145.8184  133.9823  151.0700 C   0  0  0  0  0  0  0  0  0  0  0  0
  146.4773  135.1724  151.4144 N   0  0  0  0  0  0  0  0  0  0  0  0
  145.9890  136.4621  150.9509 C   0  0  0  0  0  0  0  0  0  0  0  0
  145.7788  137.4355  152.1191 C   0  0  2  0  0  0  0  0  0  0  0  0
  146.6033  138.7241  151.9448 C   0  0  0  0  0  0  0  0  0  0  0  0
  146.4340  139.6135  153.1174 N   0  3  2  0  0  0  0  0  0  0  0  0
  147.1807  140.8891  152.9742 C   0  0  0  0  0  0  0  0  0  0  0  0
  146.9077  141.8263  154.1619 C   0  0  0  0  0  0  0  0  0  0  0  0
  147.2428  141.1364  155.4906 C   0  0  0  0  0  0  0  0  0  0  0  0
  146.4811  139.8086  155.6004 C   0  0  0  0  0  0  0  0  0  0  0  0
  146.7581  138.9026  154.3841 C   0  0  1  0  0  0  0  0  0  0  0  0
  145.9571  137.5888  154.4703 C   0  0  0  0  0  0  0  0  0  0  0  0
  146.2040  136.7946  153.3171 O   0  0  0  0  0  0  0  0  0  0  0  0
  146.0414  130.5988  151.4794 H   0  0  0  0  0  0  0  0  0  0  0  0
  143.1358  132.6749  149.4086 H   0  0  0  0  0  0  0  0  0  0  0  0
  144.1779  134.8672  149.9239 H   0  0  0  0  0  0  0  0  0  0  0  0
  147.4099  135.1187  151.7993 H   0  0  0  0  0  0  0  0  0  0  0  0
  146.6879  136.8846  150.2279 H   0  0  0  0  0  0  0  0  0  0  0  0
  145.0407  136.3065  150.4352 H   0  0  0  0  0  0  0  0  0  0  0  0
  144.7188  137.6888  152.1889 H   0  0  0  0  0  0  0  0  0  0  0  0
  147.6600  138.4814  151.8196 H   0  0  0  0  0  0  0  0  0  0  0  0
  146.2862  139.2487  151.0424 H   0  0  0  0  0  0  0  0  0  0  0  0
  148.2491  140.6812  152.8999 H   0  0  0  0  0  0  0  0  0  0  0  0
  146.8878  141.3820  152.0463 H   0  0  0  0  0  0  0  0  0  0  0  0
  147.4935  142.7402  154.0588 H   0  0  0  0  0  0  0  0  0  0  0  0
  145.8594  142.1280  154.1589 H   0  0  0  0  0  0  0  0  0  0  0  0
  148.3164  140.9526  155.5510 H   0  0  0  0  0  0  0  0  0  0  0  0
  146.9894  141.7868  156.3284 H   0  0  0  0  0  0  0  0  0  0  0  0
  146.7656  139.2974  156.5209 H   0  0  0  0  0  0  0  0  0  0  0  0
  145.4113  140.0093  155.6766 H   0  0  0  0  0  0  0  0  0  0  0  0
  147.8210  138.6545  154.3691 H   0  0  0  0  0  0  0  0  0  0  0  0
  146.2568  137.0228  155.3527 H   0  0  0  0  0  0  0  0  0  0  0  0
  144.8875  137.7836  154.5668 H   0  0  0  0  0  0  0  0  0  0  0  0
  145.4539  139.8537  153.1618 H   0  0  0  0  0  0  0  0  0  0  0  0
  1  2  1  0  0  0  0
  2  7  1  0  0  0  0
  2  3  2  0  0  0  0
  3  4  1  0  0  0  0
  3 20  1  0  0  0  0
  4  5  2  0  0  0  0
  5  6  1  0  0  0  0
  5 21  1  0  0  0  0
  6  7  2  0  0  0  0
  6 22  1  0  0  0  0
  7  8  1  0  0  0  0
  8  9  1  0  0  0  0
  8 23  1  0  0  0  0
  9 10  1  0  0  0  0
  9 24  1  0  0  0  0
  9 25  1  0  0  0  0
 10 19  1  0  0  0  0
 10 11  1  0  0  0  0
 10 26  1  0  0  0  0
 11 12  1  0  0  0  0
 11 27  1  0  0  0  0
 11 28  1  0  0  0  0
 12 17  1  0  0  0  0
 12 13  1  0  0  0  0
 12 40  1  0  0  0  0
 13 14  1  0  0  0  0
 13 29  1  0  0  0  0
 13 30  1  0  0  0  0
 14 15  1  0  0  0  0
 14 31  1  0  0  0  0
 14 32  1  0  0  0  0
 15 16  1  0  0  0  0
 15 33  1  0  0  0  0
 15 34  1  0  0  0  0
 16 17  1  0  0  0  0
 16 35  1  0  0  0  0
 16 36  1  0  0  0  0
 17 18  1  0  0  0  0
 17 37  1  0  0  0  0
 18 19  1  0  0  0  0
 18 38  1  0  0  0  0
 18 39  1  0  0  0  0
M  CHG  1  12   1
M  END
> <s_m_source_file>
AV-unprocessed.smi

> <i_m_source_file_index>
2822

> <i_lp_mmshare_version>
43012

> <i_f3d_flags>
0

> <s_epik_input>
Q2xjMVtjSF1uW2NIXVtjSF1jMVtOSF1bQ0gyXVtDQEhdKFtDSDJdMilPW0NIMl1bQ0BASF0oTjIzKVtDSDJdW0NIMl1bQ0gyXVtDSDJdMw==

> <s_epik_cmdline>
J2VwaWtfcHl0aG9uJywgJy1waCcsICc3LjAnLCAnLXRuJywgJzgnLCAnLW1hJywgJzIwMCcsICctbWV0YWxfYmluZGluZycsICctaW1hZScsICc8aW5maWxlLm1hZT4nLCAnLW9tYWUnLCAnPG91dGZpbGUubWFlPic=

> <r_lp_tautomer_probability>
0.999999

> <r_epik_Ionization_Penalty>
0.88937

> <r_epik_Ionization_Penalty_Charging>
0.0803403

> <r_epik_Ionization_Penalty_Neutral>
0.80903

> <r_epik_State_Penalty>
0.931884

> <r_epik_Charging_Adjusted_Penalty>
1.01222

> <i_epik_Tot_Q>
1

> <i_epik_Tot_abs_Q>
1

> <r_epik_Metal_State_Penalty>
0.0782275

> <b_epik_Metal_Only>
0

> <s_lp_Force_Field>
OPLS_2005

> <r_lp_Energy>
28.742

> <b_lp_Chiralities_Consistent>
1

> <s_lp_Variant>
AV-unprocessed.smi:2822-9

> <Gold.Version>
5.8.1

> <Gold.Id.Protein>
6NUR|6NUR_protein|mol2

> <Gold.PLP.Fitness>
42.3083

> <Gold.PLP.PLP>
-32.7410

> <Gold.PLP.part.hbond>
-2.0698

> <Gold.PLP.part.metal>
0.0000

> <Gold.PLP.part.buried>
-3.2630

> <Gold.PLP.part.nonpolar>
-27.8469

> <Gold.PLP.part.repulsive>
0.3510

> <Gold.PLP.ligand.clash>
0.0000

> <Gold.PLP.ligand.torsion>
0.7663

> <Gold.PLP.Chemscore.Hbond>
2.7520

> <Gold.PLP.Chemscore.CHOScore>
0.9479

> <Gold.PLP.Chemscore.Metal>
0.0000

> <Gold.Chemscore.Hbonds>
donor molecule, donor type, donor heavy atom, donor atom, acceptor molecule, acceptor atom, score
      L1  H     8    23       P1  7948  0.74
      L1  H    12    40       P1 10175  2.00
      L1  C     5    21       P1 10186  0.42

> <Gold.PLP.Chemscore.Internal.Correction>
0.0003

> <Gold.Rescore>
     Score         DG    S(hbond)    S(metal)    S(lipo)     H(rot)  DE(clash)    DE(int)     intcor
     18.03     -19.41       1.90        0.00      90.57       1.17       0.60       0.79       ----

> <Gold.Chemscore.Fitness>
18.0264

> <Gold.Chemscore.DG>
-19.4148

> <Gold.Chemscore.ZeroCoef>
-5.4800

> <Gold.Chemscore.Hbond>
1.8958

> <Gold.Chemscore.Metal>
0.0000

> <Gold.Chemscore.Lipo>
90.5657

> <Gold.Chemscore.Internal_Hbond>
0.0000

> <Gold.Chemscore.DEClash>
0.5958

> <Gold.Chemscore.DEInternal>
0.7925

> <Gold.Chemscore.Rot>
1.1693

> <Gold.Chemscore.Internal.Correction>
   9.000000E+99

> <Gold.Chemscore.Hbonds>
donor molecule, donor type, donor heavy atom, donor atom, acceptor molecule, acceptor atom, score
      L1  H     8    23       P1  7948  0.67
      L1  H    12    40       P1 10175  0.95

> <Gold.Chemscore.Hbond.Weighted>
-6.3320

> <Gold.Chemscore.Metal.Weighted>
-0.0000

> <Gold.Chemscore.Lipo.Weighted>
-10.5962

> <Gold.Chemscore.Internal_Hbond.Weighted>
0.0000

> <Gold.Chemscore.DEClash.Weighted>
0.5958

> <Gold.Chemscore.DEInternal.Weighted>
0.7925

> <Gold.Chemscore.Rot.Weighted>
2.9934

> <Gold.Chemscore.Internal.Correction.Weighted>
   9.000000E+99

> <Gold.Protein.RotatedTorsions>
[ 6907 6896 6895 6894 ] final  -30.80 input  -60.11 | X-H torsion
[ 7974 7965 7964 7962 ] final  133.67 input  175.53 | X-H torsion
[ 8008 7997 7996 7995 ] final   16.96 input   59.86 | X-H torsion
[ 10167 10162 10161 10158 ] final  -94.39 input  -65.29 | X-H torsion
[ 10718 10713 10712 10709 ] final   55.53 input   66.30 | X-H torsion
[ 10763 10752 10751 10750 ] final  -73.98 input  -60.55 | X-H torsion
[ 11005 11000 10999 10996 ] final -112.21 input  -57.11 | X-H torsion

> <Gold.Protein.ActiveResidues>
 VAL166  LYS551  ARG553  GLY616  TRP617  ASP618  TYR619  PRO620  LYS621  CYS622 
 ASP623  PHE694  ASN695  SER759  ASP760  ASP761  ALA762  ILE779  LEU786  VAL792 
 PHE793  MET794  SER795  GLU796  ALA797  LYS798  CYS799  TRP800  GLU811  SER814 

> <Gold.Protein.RotatedAtoms>
  151.1007  134.9970  159.8447 H   0  0  0  0  0  0  0  0  0  0  0  0  # atno 6907 bound_to 6896
  152.5436  134.1953  159.8700 H   0  0  0  0  0  0  0  0  0  0  0  0  # atno 6908 bound_to 6896
  151.1996  133.4574  159.2629 H   0  0  0  0  0  0  0  0  0  0  0  0  # atno 6909 bound_to 6896
  144.9841  139.4474  143.5372 H   0  0  0  0  0  0  0  0  0  0  0  0  # atno 7974 bound_to 7965
  154.8846  140.2978  155.5406 H   0  0  0  0  0  0  0  0  0  0  0  0  # atno 8008 bound_to 7997
  156.3021  140.2436  156.3787 H   0  0  0  0  0  0  0  0  0  0  0  0  # atno 8009 bound_to 7997
  154.8682  140.0402  157.1697 H   0  0  0  0  0  0  0  0  0  0  0  0  # atno 8010 bound_to 7997
  140.3149  143.3083  152.0109 H   0  0  0  0  0  0  0  0  0  0  0  0  # atno 10167 bound_to 10162
  157.5353  130.8659  149.8744 H   0  0  0  0  0  0  0  0  0  0  0  0  # atno 10718 bound_to 10713
  154.4669  135.5879  153.6294 H   0  0  0  0  0  0  0  0  0  0  0  0  # atno 10763 bound_to 10752
  152.9830  135.6057  154.3416 H   0  0  0  0  0  0  0  0  0  0  0  0  # atno 10764 bound_to 10752
  154.3293  135.2842  155.2459 H   0  0  0  0  0  0  0  0  0  0  0  0  # atno 10765 bound_to 10752
  141.0688  133.9414  157.2525 H   0  0  0  0  0  0  0  0  0  0  0  0  # atno 11005 bound_to 11000
  146.3415  139.9132  142.8777 LP  0  0  0  0  0  0  0  0  0  0  0  0  # atno 17320 bound_to 7965
  145.2379  140.9998  143.3953 LP  0  0  0  0  0  0  0  0  0  0  0  0  # atno 17321 bound_to 7965
  139.4886  144.6356  151.6982 LP  0  0  0  0  0  0  0  0  0  0  0  0  # atno 17342 bound_to 10162
  140.5535  144.0386  150.6137 LP  0  0  0  0  0  0  0  0  0  0  0  0  # atno 17343 bound_to 10162
  156.0454  130.3729  150.1331 LP  0  0  0  0  0  0  0  0  0  0  0  0  # atno 17370 bound_to 10713
  156.9514  130.9776  151.3497 LP  0  0  0  0  0  0  0  0  0  0  0  0  # atno 17371 bound_to 10713
  139.9503  135.0176  156.8974 LP  0  0  0  0  0  0  0  0  0  0  0  0  # atno 17394 bound_to 11000
  140.5716  134.0437  155.7432 LP  0  0  0  0  0  0  0  0  0  0  0  0  # atno 17395 bound_to 11000

$$$$
