AV-unprocessed.smi:1203|AV-procd|sdf|5033|dock1
  -GOLD-   22720 4 53D 1   1.00000     0.00000
 Structure written by MMmdl.
 39 40  0  0  0  0  0  0  0  0  1 V2000
  153.6036  136.2239  157.8299 C   0  0  0  0  0  0  0  0  0  0  0  0
  152.4579  137.5670  158.3436 S   0  0  0  0  0  0  0  0  0  0  0  0
  151.5152  137.0156  159.3286 O   0  0  0  0  0  0  0  0  0  0  0  0
  153.2382  138.7705  158.6698 O   0  0  0  0  0  0  0  0  0  0  0  0
  151.5694  137.8884  156.8934 N   0  0  0  0  0  0  0  0  0  0  0  0
  150.9778  136.7543  156.1663 C   0  0  0  0  0  0  0  0  0  0  0  0
  150.9391  137.1719  154.6974 C   0  0  0  0  0  0  0  0  0  0  0  0
  152.1138  138.1332  154.5839 C   0  0  0  0  0  0  0  0  0  0  0  0
  152.1176  138.8656  155.9372 C   0  0  1  0  0  0  0  0  0  0  0  0
  151.3355  140.1892  155.9356 C   0  0  0  0  0  0  0  0  0  0  0  0
  150.8081  140.6185  154.9086 O   0  0  0  0  0  0  0  0  0  0  0  0
  151.2640  140.8279  157.1117 N   0  0  0  0  0  0  0  0  0  0  0  0
  150.5698  142.0905  157.3312 C   0  0  0  0  0  0  0  0  0  0  0  0
  151.5428  143.2006  157.7625 C   0  0  0  0  0  0  0  0  0  0  0  0
  151.9101  143.1412  159.2353 C   0  0  0  0  0  0  0  0  0  0  0  0
  152.3676  141.9407  159.8164 C   0  0  0  0  0  0  0  0  0  0  0  0
  152.6853  141.9286  161.1881 C   0  0  0  0  0  0  0  0  0  0  0  0
  152.5333  143.1220  161.9220 C   0  0  0  0  0  0  0  0  0  0  0  0
  152.1005  144.2785  161.3755 N   0  0  0  0  0  0  0  0  0  0  0  0
  151.7983  144.2816  160.0595 C   0  0  0  0  0  0  0  0  0  0  0  0
  154.2009  135.9118  158.6861 H   0  0  0  0  0  0  0  0  0  0  0  0
  154.2644  136.5851  157.0425 H   0  0  0  0  0  0  0  0  0  0  0  0
  153.0274  135.3755  157.4612 H   0  0  0  0  0  0  0  0  0  0  0  0
  151.6098  135.8737  156.2861 H   0  0  0  0  0  0  0  0  0  0  0  0
  149.9880  136.5174  156.5571 H   0  0  0  0  0  0  0  0  0  0  0  0
  151.0172  136.3252  154.0152 H   0  0  0  0  0  0  0  0  0  0  0  0
  150.0061  137.6940  154.4817 H   0  0  0  0  0  0  0  0  0  0  0  0
  153.0412  137.5697  154.4724 H   0  0  0  0  0  0  0  0  0  0  0  0
  152.0336  138.7913  153.7177 H   0  0  0  0  0  0  0  0  0  0  0  0
  153.1512  139.0958  156.2011 H   0  0  0  0  0  0  0  0  0  0  0  0
  151.7215  140.4099  157.9096 H   0  0  0  0  0  0  0  0  0  0  0  0
  150.0675  142.3759  156.4058 H   0  0  0  0  0  0  0  0  0  0  0  0
  149.7947  141.9655  158.0888 H   0  0  0  0  0  0  0  0  0  0  0  0
  152.4564  143.1395  157.1703 H   0  0  0  0  0  0  0  0  0  0  0  0
  151.1037  144.1748  157.5431 H   0  0  0  0  0  0  0  0  0  0  0  0
  152.4695  141.0437  159.2232 H   0  0  0  0  0  0  0  0  0  0  0  0
  153.0360  141.0265  161.6670 H   0  0  0  0  0  0  0  0  0  0  0  0
  152.7667  143.1484  162.9761 H   0  0  0  0  0  0  0  0  0  0  0  0
  151.4519  145.2214  159.6550 H   0  0  0  0  0  0  0  0  0  0  0  0
  1  2  1  0  0  0  0
  1 21  1  0  0  0  0
  1 22  1  0  0  0  0
  1 23  1  0  0  0  0
  2  3  2  0  0  0  0
  2  4  2  0  0  0  0
  2  5  1  0  0  0  0
  5  9  1  0  0  0  0
  5  6  1  0  0  0  0
  6  7  1  0  0  0  0
  6 24  1  0  0  0  0
  6 25  1  0  0  0  0
  7  8  1  0  0  0  0
  7 26  1  0  0  0  0
  7 27  1  0  0  0  0
  8  9  1  0  0  0  0
  8 28  1  0  0  0  0
  8 29  1  0  0  0  0
  9 10  1  0  0  0  0
  9 30  1  0  0  0  0
 10 11  2  0  0  0  0
 10 12  1  0  0  0  0
 12 13  1  0  0  0  0
 12 31  1  0  0  0  0
 13 14  1  0  0  0  0
 13 32  1  0  0  0  0
 13 33  1  0  0  0  0
 14 15  1  0  0  0  0
 14 34  1  0  0  0  0
 14 35  1  0  0  0  0
 15 20  1  0  0  0  0
 15 16  2  0  0  0  0
 16 17  1  0  0  0  0
 16 36  1  0  0  0  0
 17 18  2  0  0  0  0
 17 37  1  0  0  0  0
 18 19  1  0  0  0  0
 18 38  1  0  0  0  0
 19 20  2  0  0  0  0
 20 39  1  0  0  0  0
M  END
> <s_m_source_file>
AV-unprocessed.smi

> <i_m_source_file_index>
1203

> <i_lp_mmshare_version>
43012

> <i_f3d_flags>
0

> <s_epik_input>
W0NIM11TKD1PKSg9TylOMVtDSDJdW0NIMl1bQ0gyXVtDQEhdMUMoPU8pW05IXVtDSDJdW0NIMl1jMltjSF1bY0hdW2NIXW5bY0hdMg==

> <s_epik_cmdline>
J2VwaWtfcHl0aG9uJywgJy1waCcsICc3LjAnLCAnLXRuJywgJzgnLCAnLW1hJywgJzIwMCcsICctbWV0YWxfYmluZGluZycsICctaW1hZScsICc8aW5maWxlLm1hZT4nLCAnLW9tYWUnLCAnPG91dGZpbGUubWFlPic=

> <r_epik_Ionization_Penalty>
0.0126915

> <r_epik_Ionization_Penalty_Charging>
0

> <r_epik_Ionization_Penalty_Neutral>
0.0126915

> <r_epik_State_Penalty>
0.0098379

> <r_epik_Charging_Adjusted_Penalty>
0.0098379

> <i_epik_Tot_Q>
0

> <i_epik_Tot_abs_Q>
0

> <r_epik_Metal_State_Penalty>
0.00962905

> <b_epik_Metal_Only>
0

> <s_lp_Force_Field>
OPLS_2005

> <r_lp_Energy>
6.50252

> <b_lp_Chiralities_Consistent>
1

> <s_lp_Variant>
AV-unprocessed.smi:1203-1

> <Gold.Version>
5.8.1

> <Gold.Id.Protein>
6NUR|6NUR_protein|mol2

> <Gold.PLP.Fitness>
47.3256

> <Gold.PLP.PLP>
-40.7505

> <Gold.PLP.part.hbond>
-2.9663

> <Gold.PLP.part.metal>
0.0000

> <Gold.PLP.part.buried>
-6.2072

> <Gold.PLP.part.nonpolar>
-32.8753

> <Gold.PLP.part.repulsive>
0.3203

> <Gold.PLP.ligand.clash>
0.0000

> <Gold.PLP.ligand.torsion>
0.8638

> <Gold.PLP.Chemscore.Hbond>
2.5822

> <Gold.PLP.Chemscore.CHOScore>
0.0000

> <Gold.PLP.Chemscore.Metal>
0.0000

> <Gold.Chemscore.Hbonds>
donor molecule, donor type, donor heavy atom, donor atom, acceptor molecule, acceptor atom, score
      P1  H  6896  6907       L1     3  1.00
      P1  H  7989  7998       L1    11  0.96

> <Gold.PLP.Chemscore.Internal.Correction>
0.5562

> <Gold.Rescore>
     Score         DG    S(hbond)    S(metal)    S(lipo)     H(rot)  DE(clash)    DE(int)     intcor
     20.47     -21.46       2.64        0.00     102.70       1.90       0.01       0.98       ----

> <Gold.Chemscore.Fitness>
20.4674

> <Gold.Chemscore.DG>
-21.4603

> <Gold.Chemscore.ZeroCoef>
-5.4800

> <Gold.Chemscore.Hbond>
2.6423

> <Gold.Chemscore.Metal>
0.0000

> <Gold.Chemscore.Lipo>
102.7032

> <Gold.Chemscore.Internal_Hbond>
0.0000

> <Gold.Chemscore.DEClash>
0.0120

> <Gold.Chemscore.DEInternal>
0.9810

> <Gold.Chemscore.Rot>
1.8990

> <Gold.Chemscore.Internal.Correction>
   9.000000E+99

> <Gold.Chemscore.Hbonds>
donor molecule, donor type, donor heavy atom, donor atom, acceptor molecule, acceptor atom, score
      P1  H  6896  6907       L1     3  0.97
      P1  H  7989  7998       L1    11  0.91
      P1  H  7997  8009       L1     4  0.04

> <Gold.Chemscore.Hbond.Weighted>
-8.8254

> <Gold.Chemscore.Metal.Weighted>
-0.0000

> <Gold.Chemscore.Lipo.Weighted>
-12.0163

> <Gold.Chemscore.Internal_Hbond.Weighted>
0.0000

> <Gold.Chemscore.DEClash.Weighted>
0.0120

> <Gold.Chemscore.DEInternal.Weighted>
0.9810

> <Gold.Chemscore.Rot.Weighted>
4.8613

> <Gold.Chemscore.Internal.Correction.Weighted>
   9.000000E+99

> <Gold.Protein.RotatedTorsions>
[ 6907 6896 6895 6894 ] final  -15.21 input  -60.11 | X-H torsion
[ 7974 7965 7964 7962 ] final -119.00 input  175.53 | X-H torsion
[ 8008 7997 7996 7995 ] final  150.98 input   59.86 | X-H torsion
[ 10167 10162 10161 10158 ] final -114.74 input  -65.29 | X-H torsion
[ 10718 10713 10712 10709 ] final  153.74 input   66.30 | X-H torsion
[ 10763 10752 10751 10750 ] final -164.09 input  -60.55 | X-H torsion
[ 11005 11000 10999 10996 ] final  100.53 input  -57.11 | X-H torsion

> <Gold.Protein.ActiveResidues>
 VAL166  LYS551  ARG553  GLY616  TRP617  ASP618  TYR619  PRO620  LYS621  CYS622 
 ASP623  PHE694  ASN695  SER759  ASP760  ASP761  ALA762  ILE779  LEU786  VAL792 
 PHE793  MET794  SER795  GLU796  ALA797  LYS798  CYS799  TRP800  GLU811  SER814 

> <Gold.Protein.RotatedAtoms>
  151.3275  135.0834  159.9326 H   0  0  0  0  0  0  0  0  0  0  0  0  # atno 6907 bound_to 6896
  152.5242  133.9576  159.7712 H   0  0  0  0  0  0  0  0  0  0  0  0  # atno 6908 bound_to 6896
  150.9908  133.6098  159.2738 H   0  0  0  0  0  0  0  0  0  0  0  0  # atno 6909 bound_to 6896
  145.0675  140.8335  143.4115 H   0  0  0  0  0  0  0  0  0  0  0  0  # atno 7974 bound_to 7965
  156.2693  140.2060  156.6104 H   0  0  0  0  0  0  0  0  0  0  0  0  # atno 8008 bound_to 7997
  154.6836  140.0537  157.0315 H   0  0  0  0  0  0  0  0  0  0  0  0  # atno 8009 bound_to 7997
  155.0965  140.3202  155.4562 H   0  0  0  0  0  0  0  0  0  0  0  0  # atno 8010 bound_to 7997
  140.0977  143.4642  152.1831 H   0  0  0  0  0  0  0  0  0  0  0  0  # atno 10167 bound_to 10162
  157.2408  131.0759  151.1793 H   0  0  0  0  0  0  0  0  0  0  0  0  # atno 10718 bound_to 10713
  154.7062  135.2997  154.9267 H   0  0  0  0  0  0  0  0  0  0  0  0  # atno 10763 bound_to 10752
  154.0184  135.6686  153.4774 H   0  0  0  0  0  0  0  0  0  0  0  0  # atno 10764 bound_to 10752
  153.0719  135.5056  154.8233 H   0  0  0  0  0  0  0  0  0  0  0  0  # atno 10765 bound_to 10752
  139.8771  134.9144  156.4770 H   0  0  0  0  0  0  0  0  0  0  0  0  # atno 11005 bound_to 11000
  145.1333  139.2618  143.5528 LP  0  0  0  0  0  0  0  0  0  0  0  0  # atno 17320 bound_to 7965
  146.3527  140.0990  142.8609 LP  0  0  0  0  0  0  0  0  0  0  0  0  # atno 17321 bound_to 7965
  139.5689  144.7451  151.3945 LP  0  0  0  0  0  0  0  0  0  0  0  0  # atno 17342 bound_to 10162
  140.6995  143.7667  150.7380 LP  0  0  0  0  0  0  0  0  0  0  0  0  # atno 17343 bound_to 10162
  157.3380  130.7019  149.6364 LP  0  0  0  0  0  0  0  0  0  0  0  0  # atno 17370 bound_to 10713
  155.9670  130.4288  150.4804 LP  0  0  0  0  0  0  0  0  0  0  0  0  # atno 17371 bound_to 10713
  140.8754  133.7957  155.9409 LP  0  0  0  0  0  0  0  0  0  0  0  0  # atno 17394 bound_to 11000
  140.8909  134.2496  157.5095 LP  0  0  0  0  0  0  0  0  0  0  0  0  # atno 17395 bound_to 11000

$$$$
