AV-unprocessed.smi:101|AV-procd|sdf|913|dock5
  -GOLD-   2262017413D 1   1.00000     0.00000
 Structure written by MMmdl.
 44 46  0  0  0  0  0  0  0  0  1 V2000
  140.7979  138.0109  153.0328 C   0  0  0  0  0  0  0  0  0  0  0  0
  141.8796  136.9577  153.2117 C   0  0  0  0  0  0  0  0  0  0  0  0
  143.1750  137.1800  152.8716 C   0  0  0  0  0  0  0  0  0  0  0  0
  144.1883  136.2368  153.0191 N   0  0  0  0  0  0  0  0  0  0  0  0
  145.6390  136.5242  152.6608 C   0  0  2  0  0  0  0  0  0  0  0  0
  146.1485  137.4800  153.5410 O   0  0  0  0  0  0  0  0  0  0  0  0
  146.0023  138.7698  152.9602 C   0  0  1  0  0  0  0  0  0  0  0  0
  146.8088  139.8184  153.7355 C   0  0  0  0  0  0  0  0  0  0  0  0
  148.0361  139.2157  154.1088 O   0  0  0  0  0  0  0  0  0  0  0  0
  149.1671  139.9396  154.1620 C   0  0  0  0  0  0  0  0  0  0  0  0
  149.2481  141.1100  153.7846 O   0  0  0  0  0  0  0  0  0  0  0  0
  150.3132  139.1701  154.7271 C   0  0  0  0  0  0  0  0  0  0  0  0
  150.1961  137.7705  154.8925 C   0  0  0  0  0  0  0  0  0  0  0  0
  151.2622  137.0198  155.4255 C   0  0  0  0  0  0  0  0  0  0  0  0
  152.4582  137.6600  155.7999 C   0  0  0  0  0  0  0  0  0  0  0  0
  152.5872  139.0520  155.6408 C   0  0  0  0  0  0  0  0  0  0  0  0
  151.5226  139.8040  155.1077 C   0  0  0  0  0  0  0  0  0  0  0  0
  146.4166  138.5057  151.5130 C   0  0  1  0  0  0  0  0  0  0  0  0
  147.8310  138.4783  151.4035 O   0  0  0  0  0  0  0  0  0  0  0  0
  145.7628  137.1465  151.2468 C   0  0  1  0  0  0  0  0  0  0  0  0
  146.5025  136.3479  150.3421 O   0  0  0  0  0  0  0  0  0  0  0  0
  143.8811  134.9938  153.6119 C   0  0  0  0  0  0  0  0  0  0  0  0
  144.7321  134.1326  153.8314 O   0  0  0  0  0  0  0  0  0  0  0  0
  142.5503  134.7617  153.9529 N   0  0  0  0  0  0  0  0  0  0  0  0
  141.4984  135.6644  153.7841 C   0  0  0  0  0  0  0  0  0  0  0  0
  140.3599  135.3402  154.1176 O   0  0  0  0  0  0  0  0  0  0  0  0
  142.3279  133.8667  154.3634 H   0  0  0  0  0  0  0  0  0  0  0  0
  141.1949  138.9349  152.6115 H   0  0  0  0  0  0  0  0  0  0  0  0
  140.3393  138.2525  153.9921 H   0  0  0  0  0  0  0  0  0  0  0  0
  140.0185  137.6469  152.3625 H   0  0  0  0  0  0  0  0  0  0  0  0
  143.4075  138.1545  152.4698 H   0  0  0  0  0  0  0  0  0  0  0  0
  146.1614  135.5749  152.7938 H   0  0  0  0  0  0  0  0  0  0  0  0
  144.9477  139.0532  152.9664 H   0  0  0  0  0  0  0  0  0  0  0  0
  146.9790  140.7083  153.1278 H   0  0  0  0  0  0  0  0  0  0  0  0
  146.2705  140.1213  154.6346 H   0  0  0  0  0  0  0  0  0  0  0  0
  149.2872  137.2572  154.6128 H   0  0  0  0  0  0  0  0  0  0  0  0
  151.1616  135.9515  155.5475 H   0  0  0  0  0  0  0  0  0  0  0  0
  153.2752  137.0839  156.2087 H   0  0  0  0  0  0  0  0  0  0  0  0
  153.5043  139.5449  155.9281 H   0  0  0  0  0  0  0  0  0  0  0  0
  151.6556  140.8706  154.9996 H   0  0  0  0  0  0  0  0  0  0  0  0
  146.0376  139.2730  150.8371 H   0  0  0  0  0  0  0  0  0  0  0  0
  148.1578  137.7367  151.8892 H   0  0  0  0  0  0  0  0  0  0  0  0
  144.7666  137.3130  150.8343 H   0  0  0  0  0  0  0  0  0  0  0  0
  147.3626  136.2036  150.7068 H   0  0  0  0  0  0  0  0  0  0  0  0
  1  2  1  0  0  0  0
  1 28  1  0  0  0  0
  1 29  1  0  0  0  0
  1 30  1  0  0  0  0
  2 25  1  0  0  0  0
  2  3  2  0  0  0  0
  3  4  1  0  0  0  0
  3 31  1  0  0  0  0
  4  5  1  0  0  0  0
  4 22  1  0  0  0  0
  5 20  1  0  0  0  0
  5  6  1  0  0  0  0
  5 32  1  0  0  0  0
  6  7  1  0  0  0  0
  7  8  1  0  0  0  0
  7 18  1  0  0  0  0
  7 33  1  0  0  0  0
  8  9  1  0  0  0  0
  8 34  1  0  0  0  0
  8 35  1  0  0  0  0
  9 10  1  0  0  0  0
 10 11  2  0  0  0  0
 10 12  1  0  0  0  0
 12 17  1  0  0  0  0
 12 13  2  0  0  0  0
 13 14  1  0  0  0  0
 13 36  1  0  0  0  0
 14 15  2  0  0  0  0
 14 37  1  0  0  0  0
 15 16  1  0  0  0  0
 15 38  1  0  0  0  0
 16 17  2  0  0  0  0
 16 39  1  0  0  0  0
 17 40  1  0  0  0  0
 18 19  1  0  0  0  0
 18 20  1  0  0  0  0
 18 41  1  0  0  0  0
 19 42  1  0  0  0  0
 20 21  1  0  0  0  0
 20 43  1  0  0  0  0
 21 44  1  0  0  0  0
 22 23  2  0  0  0  0
 22 24  1  0  0  0  0
 24 27  1  0  0  0  0
 24 25  1  0  0  0  0
 25 26  2  0  0  0  0
M  END
> <s_m_source_file>
AV-unprocessed.smi

> <i_m_source_file_index>
101

> <i_lp_mmshare_version>
43012

> <i_f3d_flags>
0

> <s_epik_input>
Tz1jMVtuSF1jKD1PKW4oW2NIXWMxW0NIM10pW0NAQEhdMk9bQ0BIXShbQ0BASF0oW09IXSlbQ0BIXTJbT0hdKVtDSDJdT0MoPU8pYzNbY0hdW2NIXVtjSF1bY0hdW2NIXTM=

> <s_epik_cmdline>
J2VwaWtfcHl0aG9uJywgJy1waCcsICc3LjAnLCAnLXRuJywgJzgnLCAnLW1hJywgJzIwMCcsICctbWV0YWxfYmluZGluZycsICctaW1hZScsICc8aW5maWxlLm1hZT4nLCAnLW9tYWUnLCAnPG91dGZpbGUubWFlPic=

> <r_lp_tautomer_probability>
0.999537

> <r_epik_Ionization_Penalty>
0.00263537

> <r_epik_Ionization_Penalty_Charging>
0.00263428

> <r_epik_Ionization_Penalty_Neutral>
1.09111e-06

> <r_epik_State_Penalty>
0.00183335

> <r_epik_Charging_Adjusted_Penalty>
0.00446763

> <i_epik_Tot_Q>
0

> <i_epik_Tot_abs_Q>
0

> <r_epik_Metal_State_Penalty>
1.00528

> <b_epik_Metal_Only>
0

> <s_epik_Chemistry_Notes>
This compound has an ester and may undergo hydrolysis at high or low pH. This compound contains an acetal/aminal-like group ( X-CH(R)-Y where X, Y are N, S, or O) that may be acid/base labile, releasing an aldehyde.

> <s_lp_Force_Field>
OPLS_2005

> <r_lp_Energy>
35.8118

> <b_lp_Chiralities_Consistent>
1

> <s_lp_Variant>
AV-unprocessed.smi:101-1

> <Gold.Version>
5.8.1

> <Gold.Id.Protein>
6NUR|6NUR_protein|mol2

> <Gold.PLP.Fitness>
51.9423

> <Gold.PLP.PLP>
-33.0192

> <Gold.PLP.part.hbond>
-9.4165

> <Gold.PLP.part.metal>
0.0000

> <Gold.PLP.part.buried>
12.4366

> <Gold.PLP.part.nonpolar>
-37.7407

> <Gold.PLP.part.repulsive>
2.5358

> <Gold.PLP.ligand.clash>
0.0000

> <Gold.PLP.ligand.torsion>
0.7445

> <Gold.PLP.Chemscore.Hbond>
5.2935

> <Gold.PLP.Chemscore.CHOScore>
1.4782

> <Gold.PLP.Chemscore.Metal>
0.0000

> <Gold.Chemscore.Hbonds>
donor molecule, donor type, donor heavy atom, donor atom, acceptor molecule, acceptor atom, score
      L1  H    19    42       P1  7948  0.93
      L1  H    21    44       P1  7948  1.00
      L1  H    24    27       P1 10957  0.68
      P1  H  7954  7966       L1    19  0.73
      P1  H  7989  7998       L1    11  0.02
      P1  H  8011  8017       L1    11  0.93
      P1  H 11000 11005       L1    26  1.00
      L1  C     3    31       P1 10171  0.47
      L1  C     3    31       P1 10175  1.00

> <Gold.PLP.Chemscore.Internal.Correction>
0.0971

> <Gold.Rescore>
     Score         DG    S(hbond)    S(metal)    S(lipo)     H(rot)  DE(clash)    DE(int)     intcor
     13.92     -19.52       4.05        0.00      76.98       3.32       3.53       2.07       ----

> <Gold.Chemscore.Fitness>
13.9163

> <Gold.Chemscore.DG>
-19.5235

> <Gold.Chemscore.ZeroCoef>
-5.4800

> <Gold.Chemscore.Hbond>
4.0505

> <Gold.Chemscore.Metal>
0.0000

> <Gold.Chemscore.Lipo>
76.9817

> <Gold.Chemscore.Internal_Hbond>
0.0000

> <Gold.Chemscore.DEClash>
3.5324

> <Gold.Chemscore.DEInternal>
2.0747

> <Gold.Chemscore.Rot>
3.3172

> <Gold.Chemscore.Internal.Correction>
   9.000000E+99

> <Gold.Chemscore.Hbonds>
donor molecule, donor type, donor heavy atom, donor atom, acceptor molecule, acceptor atom, score
      L1  H    19    42       P1  7948  0.89
      L1  H    21    44       P1  7948  0.74
      L1  H    24    27       P1 10957  0.68
      P1  H  7954  7966       L1    19  0.06
      P1  H  8011  8017       L1    11  0.85
      P1  H 11000 11005       L1    26  0.88

> <Gold.Chemscore.Hbond.Weighted>
-13.5286

> <Gold.Chemscore.Metal.Weighted>
-0.0000

> <Gold.Chemscore.Lipo.Weighted>
-9.0069

> <Gold.Chemscore.Internal_Hbond.Weighted>
0.0000

> <Gold.Chemscore.DEClash.Weighted>
3.5324

> <Gold.Chemscore.DEInternal.Weighted>
2.0747

> <Gold.Chemscore.Rot.Weighted>
8.4920

> <Gold.Chemscore.Internal.Correction.Weighted>
   9.000000E+99

> <Gold.Protein.RotatedTorsions>
[ 6907 6896 6895 6894 ] final  -44.99 input  -60.11 | X-H torsion
[ 7974 7965 7964 7962 ] final -113.61 input  175.53 | X-H torsion
[ 8008 7997 7996 7995 ] final -125.97 input   59.86 | X-H torsion
[ 10167 10162 10161 10158 ] final -123.02 input  -65.29 | X-H torsion
[ 10718 10713 10712 10709 ] final    9.92 input   66.30 | X-H torsion
[ 10763 10752 10751 10750 ] final   27.45 input  -60.55 | X-H torsion
[ 11005 11000 10999 10996 ] final   33.29 input  -57.11 | X-H torsion

> <Gold.Protein.ActiveResidues>
 VAL166  LYS551  ARG553  GLY616  TRP617  ASP618  TYR619  PRO620  LYS621  CYS622 
 ASP623  PHE694  ASN695  SER759  ASP760  ASP761  ALA762  ILE779  LEU786  VAL792 
 PHE793  MET794  SER795  GLU796  ALA797  LYS798  CYS799  TRP800  GLU811  SER814 

> <Gold.Protein.RotatedAtoms>
  150.9268  134.8684  159.7524 H   0  0  0  0  0  0  0  0  0  0  0  0  # atno 6907 bound_to 6896
  152.5019  134.4137  159.9467 H   0  0  0  0  0  0  0  0  0  0  0  0  # atno 6908 bound_to 6896
  151.4167  133.3671  159.2786 H   0  0  0  0  0  0  0  0  0  0  0  0  # atno 6909 bound_to 6896
  145.1299  140.8718  143.3764 H   0  0  0  0  0  0  0  0  0  0  0  0  # atno 7974 bound_to 7965
  155.2220  140.0422  157.2950 H   0  0  0  0  0  0  0  0  0  0  0  0  # atno 8008 bound_to 7997
  154.5943  140.2435  155.7849 H   0  0  0  0  0  0  0  0  0  0  0  0  # atno 8009 bound_to 7997
  156.2280  140.2948  156.0124 H   0  0  0  0  0  0  0  0  0  0  0  0  # atno 8010 bound_to 7997
  140.0080  143.5471  152.2275 H   0  0  0  0  0  0  0  0  0  0  0  0  # atno 10167 bound_to 10162
  156.9733  130.5977  149.5670 H   0  0  0  0  0  0  0  0  0  0  0  0  # atno 10718 bound_to 10713
  153.0555  135.6537  154.0588 H   0  0  0  0  0  0  0  0  0  0  0  0  # atno 10763 bound_to 10752
  154.0267  135.2915  155.3375 H   0  0  0  0  0  0  0  0  0  0  0  0  # atno 10764 bound_to 10752
  154.6868  135.5298  153.8404 H   0  0  0  0  0  0  0  0  0  0  0  0  # atno 10765 bound_to 10752
  140.2647  134.3152  155.7846 H   0  0  0  0  0  0  0  0  0  0  0  0  # atno 11005 bound_to 11000
  145.0647  139.3078  143.5862 LP  0  0  0  0  0  0  0  0  0  0  0  0  # atno 17320 bound_to 7965
  146.3514  140.0101  142.8668 LP  0  0  0  0  0  0  0  0  0  0  0  0  # atno 17321 bound_to 7965
  139.6225  144.7631  151.2710 LP  0  0  0  0  0  0  0  0  0  0  0  0  # atno 17342 bound_to 10162
  140.7393  143.6623  150.8153 LP  0  0  0  0  0  0  0  0  0  0  0  0  # atno 17343 bound_to 10162
  156.0274  130.5367  150.8442 LP  0  0  0  0  0  0  0  0  0  0  0  0  # atno 17370 bound_to 10713
  157.5577  131.0945  150.9604 LP  0  0  0  0  0  0  0  0  0  0  0  0  # atno 17371 bound_to 10713
  141.2186  133.7430  156.9241 LP  0  0  0  0  0  0  0  0  0  0  0  0  # atno 17394 bound_to 11000
  140.1431  134.9280  157.2493 LP  0  0  0  0  0  0  0  0  0  0  0  0  # atno 17395 bound_to 11000

$$$$
