AV-unprocessed.smi:104|AV-procd|sdf|1002|dock1
  -GOLD-   2262017593D 1   1.00000     0.00000
 Structure written by MMmdl.
 47 49  0  0  0  0  0  0  0  0  1 V2000
  142.3153  133.0305  160.7771 C   0  0  0  0  0  0  0  0  0  0  0  0
  142.7662  133.7960  159.5404 C   0  0  0  0  0  0  0  0  0  0  0  0
  142.4311  133.4469  158.4085 O   0  0  0  0  0  0  0  0  0  0  0  0
  143.5374  134.8479  159.8457 O   0  0  0  0  0  0  0  0  0  0  0  0
  144.0211  135.6909  158.8126 C   0  0  0  0  0  0  0  0  0  0  0  0
  145.1414  134.9892  158.0325 C   0  0  1  0  0  0  0  0  0  0  0  0
  144.7151  134.6514  156.7231 O   0  0  0  0  0  0  0  0  0  0  0  0
  145.8365  134.4582  155.9195 C   0  0  1  0  0  0  0  0  0  0  0  0
  145.5268  135.0228  154.5656 N   0  0  0  0  0  0  0  0  0  0  0  0
  145.0403  136.2665  154.2324 C   0  0  0  0  0  0  0  0  0  0  0  0
  144.6290  137.5866  155.5420 Br  0  0  0  0  0  0  0  0  0  0  0  0
  144.8501  136.5122  152.9662 N   0  0  0  0  0  0  0  0  0  0  0  0
  145.2364  135.3222  152.3622 C   0  0  0  0  0  0  0  0  0  0  0  0
  145.2865  134.8695  151.0195 C   0  0  0  0  0  0  0  0  0  0  0  0
  144.9225  135.6297  149.9775 N   0  0  0  0  0  0  0  0  0  0  0  0
  145.7188  133.6100  150.7767 N   0  0  0  0  0  0  0  0  0  0  0  0
  146.0850  132.8301  151.7988 C   0  0  0  0  0  0  0  0  0  0  0  0
  146.0953  133.1135  153.1038 N   0  0  0  0  0  0  0  0  0  0  0  0
  145.6611  134.3847  153.3481 C   0  0  0  0  0  0  0  0  0  0  0  0
  147.0411  135.1506  156.5993 C   0  0  1  0  0  0  0  0  0  0  0  0
  147.6656  136.1123  155.7537 O   0  0  0  0  0  0  0  0  0  0  0  0
  148.7621  136.7694  156.1616 C   0  0  0  0  0  0  0  0  0  0  0  0
  149.3386  137.6610  155.0707 C   0  0  0  0  0  0  0  0  0  0  0  0
  149.2801  136.6963  157.2759 O   0  0  0  0  0  0  0  0  0  0  0  0
  146.4129  135.8129  157.8188 C   0  0  2  0  0  0  0  0  0  0  0  0
  147.2960  135.7056  158.9274 O   0  0  0  0  0  0  0  0  0  0  0  0
  147.2548  136.6143  159.9163 C   0  0  0  0  0  0  0  0  0  0  0  0
  148.1251  136.2194  161.1015 C   0  0  0  0  0  0  0  0  0  0  0  0
  146.6028  137.6587  159.9168 O   0  0  0  0  0  0  0  0  0  0  0  0
  143.1790  132.7018  161.3552 H   0  0  0  0  0  0  0  0  0  0  0  0
  141.7336  132.1530  160.4946 H   0  0  0  0  0  0  0  0  0  0  0  0
  141.6958  133.6668  161.4089 H   0  0  0  0  0  0  0  0  0  0  0  0
  143.2048  135.9388  158.1326 H   0  0  0  0  0  0  0  0  0  0  0  0
  144.3859  136.6264  159.2383 H   0  0  0  0  0  0  0  0  0  0  0  0
  145.3958  134.0540  158.5349 H   0  0  0  0  0  0  0  0  0  0  0  0
  146.0004  133.3930  155.7615 H   0  0  0  0  0  0  0  0  0  0  0  0
  144.5939  136.5721  150.1326 H   0  0  0  0  0  0  0  0  0  0  0  0
  144.9788  135.2603  149.0394 H   0  0  0  0  0  0  0  0  0  0  0  0
  146.4146  131.8365  151.5337 H   0  0  0  0  0  0  0  0  0  0  0  0
  147.7368  134.3637  156.8954 H   0  0  0  0  0  0  0  0  0  0  0  0
  149.7413  137.0537  154.2600 H   0  0  0  0  0  0  0  0  0  0  0  0
  150.1400  138.2842  155.4680 H   0  0  0  0  0  0  0  0  0  0  0  0
  148.5640  138.3120  154.6646 H   0  0  0  0  0  0  0  0  0  0  0  0
  146.1677  136.8478  157.5749 H   0  0  0  0  0  0  0  0  0  0  0  0
  147.7185  135.3346  161.5910 H   0  0  0  0  0  0  0  0  0  0  0  0
  148.1695  137.0286  161.8306 H   0  0  0  0  0  0  0  0  0  0  0  0
  149.1396  135.9973  160.7697 H   0  0  0  0  0  0  0  0  0  0  0  0
  1  2  1  0  0  0  0
  1 30  1  0  0  0  0
  1 31  1  0  0  0  0
  1 32  1  0  0  0  0
  2  3  2  0  0  0  0
  2  4  1  0  0  0  0
  4  5  1  0  0  0  0
  5  6  1  0  0  0  0
  5 33  1  0  0  0  0
  5 34  1  0  0  0  0
  6 25  1  0  0  0  0
  6  7  1  0  0  0  0
  6 35  1  0  0  0  0
  7  8  1  0  0  0  0
  8  9  1  0  0  0  0
  8 20  1  0  0  0  0
  8 36  1  0  0  0  0
  9 19  1  0  0  0  0
  9 10  1  0  0  0  0
 10 11  1  0  0  0  0
 10 12  2  0  0  0  0
 12 13  1  0  0  0  0
 13 19  2  0  0  0  0
 13 14  1  0  0  0  0
 14 15  1  0  0  0  0
 14 16  2  0  0  0  0
 15 37  1  0  0  0  0
 15 38  1  0  0  0  0
 16 17  1  0  0  0  0
 17 18  2  0  0  0  0
 17 39  1  0  0  0  0
 18 19  1  0  0  0  0
 20 21  1  0  0  0  0
 20 25  1  0  0  0  0
 20 40  1  0  0  0  0
 21 22  1  0  0  0  0
 22 23  1  0  0  0  0
 22 24  2  0  0  0  0
 23 41  1  0  0  0  0
 23 42  1  0  0  0  0
 23 43  1  0  0  0  0
 25 26  1  0  0  0  0
 25 44  1  0  0  0  0
 26 27  1  0  0  0  0
 27 28  1  0  0  0  0
 27 29  2  0  0  0  0
 28 45  1  0  0  0  0
 28 46  1  0  0  0  0
 28 47  1  0  0  0  0
M  END
> <s_m_source_file>
AV-unprocessed.smi

> <i_m_source_file_index>
104

> <i_lp_mmshare_version>
43012

> <i_f3d_flags>
0

> <s_epik_input>
W0NIM11DKD1PKU9bQ0gyXVtDQEBIXTFPW0NASF0oW0NAQEhdKE9DKD1PKVtDSDNdKVtDQEhdMU9DKD1PKVtDSDNdKW4oYyhCciluMiljKGMyMyluW2NIXW5jM1tOSDJd

> <s_epik_cmdline>
J2VwaWtfcHl0aG9uJywgJy1waCcsICc3LjAnLCAnLXRuJywgJzgnLCAnLW1hJywgJzIwMCcsICctbWV0YWxfYmluZGluZycsICctaW1hZScsICc8aW5maWxlLm1hZT4nLCAnLW9tYWUnLCAnPG91dGZpbGUubWFlPic=

> <r_lp_tautomer_probability>
1

> <r_epik_Ionization_Penalty>
7.36622e-05

> <r_epik_Ionization_Penalty_Charging>
0

> <r_epik_Ionization_Penalty_Neutral>
7.36622e-05

> <r_epik_State_Penalty>
-0

> <r_epik_Charging_Adjusted_Penalty>
0

> <i_epik_Tot_Q>
0

> <i_epik_Tot_abs_Q>
0

> <r_epik_Metal_State_Penalty>
-0

> <b_epik_Metal_Only>
0

> <s_epik_Chemistry_Notes>
This compound has an ester and may undergo hydrolysis at high or low pH. This compound contains an acetal/aminal-like group ( X-CH(R)-Y where X, Y are N, S, or O) that may be acid/base labile, releasing an aldehyde.

> <s_lp_Force_Field>
OPLS_2005

> <r_lp_Energy>
14.3188

> <b_lp_Chiralities_Consistent>
1

> <s_lp_Variant>
AV-unprocessed.smi:104-10

> <Gold.Version>
5.8.1

> <Gold.Id.Protein>
6NUR|6NUR_protein|mol2

> <Gold.PLP.Fitness>
32.7383

> <Gold.PLP.PLP>
-20.3714

> <Gold.PLP.part.hbond>
-4.0000

> <Gold.PLP.part.metal>
0.0000

> <Gold.PLP.part.buried>
-4.6066

> <Gold.PLP.part.nonpolar>
-12.2092

> <Gold.PLP.part.repulsive>
1.5790

> <Gold.PLP.ligand.clash>
0.0000

> <Gold.PLP.ligand.torsion>
1.3580

> <Gold.PLP.Chemscore.Hbond>
3.9913

> <Gold.PLP.Chemscore.CHOScore>
0.9993

> <Gold.PLP.Chemscore.Metal>
0.0000

> <Gold.Chemscore.Hbonds>
donor molecule, donor type, donor heavy atom, donor atom, acceptor molecule, acceptor atom, score
      L1  H    15    37       P1 10171  0.71
      L1  H    15    38       P1  7921  0.90
      P1  H  6934  6947       L1    29  1.00
      P1  H 11000 11005       L1     3  1.00

> <Gold.PLP.Chemscore.Internal.Correction>
0.1112

> <Gold.Rescore>
     Score         DG    S(hbond)    S(metal)    S(lipo)     H(rot)  DE(clash)    DE(int)     intcor
      6.43     -10.17       3.95        0.00      21.53       4.31       0.30       3.45       ----

> <Gold.Chemscore.Fitness>
6.4269

> <Gold.Chemscore.DG>
-10.1704

> <Gold.Chemscore.ZeroCoef>
-5.4800

> <Gold.Chemscore.Hbond>
3.9512

> <Gold.Chemscore.Metal>
0.0000

> <Gold.Chemscore.Lipo>
21.5318

> <Gold.Chemscore.Internal_Hbond>
0.0000

> <Gold.Chemscore.DEClash>
0.2984

> <Gold.Chemscore.DEInternal>
3.4452

> <Gold.Chemscore.Rot>
4.3070

> <Gold.Chemscore.Internal.Correction>
   9.000000E+99

> <Gold.Chemscore.Hbonds>
donor molecule, donor type, donor heavy atom, donor atom, acceptor molecule, acceptor atom, score
      L1  H    15    37       P1 10171  0.71
      L1  H    15    38       P1  7921  0.88
      P1  H  6934  6947       L1    29  0.94
      P1  H 11000 11005       L1     3  1.00

> <Gold.Chemscore.Hbond.Weighted>
-13.1971

> <Gold.Chemscore.Metal.Weighted>
-0.0000

> <Gold.Chemscore.Lipo.Weighted>
-2.5192

> <Gold.Chemscore.Internal_Hbond.Weighted>
0.0000

> <Gold.Chemscore.DEClash.Weighted>
0.2984

> <Gold.Chemscore.DEInternal.Weighted>
3.4452

> <Gold.Chemscore.Rot.Weighted>
11.0259

> <Gold.Chemscore.Internal.Correction.Weighted>
   9.000000E+99

> <Gold.Protein.RotatedTorsions>
[ 6907 6896 6895 6894 ] final  157.19 input  -60.11 | X-H torsion
[ 7974 7965 7964 7962 ] final  139.97 input  175.53 | X-H torsion
[ 8008 7997 7996 7995 ] final  -56.03 input   59.86 | X-H torsion
[ 10167 10162 10161 10158 ] final -134.40 input  -65.29 | X-H torsion
[ 10718 10713 10712 10709 ] final   26.16 input   66.30 | X-H torsion
[ 10763 10752 10751 10750 ] final -176.54 input  -60.55 | X-H torsion
[ 11005 11000 10999 10996 ] final -114.33 input  -57.11 | X-H torsion

> <Gold.Protein.ActiveResidues>
 VAL166  LYS551  ARG553  GLY616  TRP617  ASP618  TYR619  PRO620  LYS621  CYS622 
 ASP623  PHE694  ASN695  SER759  ASP760  ASP761  ALA762  ILE779  LEU786  VAL792 
 PHE793  MET794  SER795  GLU796  ALA797  LYS798  CYS799  TRP800  GLU811  SER814 

> <Gold.Protein.RotatedAtoms>
  152.0187  133.3890  159.4248 H   0  0  0  0  0  0  0  0  0  0  0  0  # atno 6907 bound_to 6896
  150.6892  134.3650  159.4976 H   0  0  0  0  0  0  0  0  0  0  0  0  # atno 6908 bound_to 6896
  152.1421  134.9054  160.0604 H   0  0  0  0  0  0  0  0  0  0  0  0  # atno 6909 bound_to 6896
  144.9230  139.5144  143.5654 H   0  0  0  0  0  0  0  0  0  0  0  0  # atno 7974 bound_to 7965
  154.4216  140.1139  156.5572 H   0  0  0  0  0  0  0  0  0  0  0  0  # atno 8008 bound_to 7997
  155.6348  140.3496  155.4676 H   0  0  0  0  0  0  0  0  0  0  0  0  # atno 8009 bound_to 7997
  155.9918  140.1181  157.0620 H   0  0  0  0  0  0  0  0  0  0  0  0  # atno 8010 bound_to 7997
  139.8884  143.6752  152.2616 H   0  0  0  0  0  0  0  0  0  0  0  0  # atno 10167 bound_to 10162
  157.2030  130.6899  149.6196 H   0  0  0  0  0  0  0  0  0  0  0  0  # atno 10718 bound_to 10713
  154.5711  135.2828  155.0826 H   0  0  0  0  0  0  0  0  0  0  0  0  # atno 10763 bound_to 10752
  154.2198  135.6393  153.5145 H   0  0  0  0  0  0  0  0  0  0  0  0  # atno 10764 bound_to 10752
  153.0058  135.5512  154.6335 H   0  0  0  0  0  0  0  0  0  0  0  0  # atno 10765 bound_to 10752
  141.0558  133.9614  157.2756 H   0  0  0  0  0  0  0  0  0  0  0  0  # atno 11005 bound_to 11000
  146.3213  139.8123  142.8943 LP  0  0  0  0  0  0  0  0  0  0  0  0  # atno 17320 bound_to 7965
  145.3265  141.0256  143.3470 LP  0  0  0  0  0  0  0  0  0  0  0  0  # atno 17321 bound_to 7965
  139.7132  144.7616  151.1078 LP  0  0  0  0  0  0  0  0  0  0  0  0  # atno 17342 bound_to 10162
  140.7731  143.5304  150.9430 LP  0  0  0  0  0  0  0  0  0  0  0  0  # atno 17343 bound_to 10162
  155.9698  130.4576  150.5969 LP  0  0  0  0  0  0  0  0  0  0  0  0  # atno 17370 bound_to 10713
  157.3748  131.0771  151.1527 LP  0  0  0  0  0  0  0  0  0  0  0  0  # atno 17371 bound_to 10713
  139.9389  135.0193  156.8645 LP  0  0  0  0  0  0  0  0  0  0  0  0  # atno 17394 bound_to 11000
  140.5966  134.0211  155.7520 LP  0  0  0  0  0  0  0  0  0  0  0  0  # atno 17395 bound_to 11000

$$$$
