AV-unprocessed.smi:3113|AV-procd|sdf|11852|dock10
  -GOLD-   2272017233D 1   1.00000     0.00000
 Structure written by MMmdl.
 35 36  0  0  0  0  0  0  0  0  2 V2000
  152.7475  142.4355  161.8508 C   0  0  0  0  0  0  0  0  0  0  0  0
  152.2053  143.7510  161.8242 C   0  0  0  0  0  0  0  0  0  0  0  0
  152.1929  144.2729  160.6080 N   0  0  0  0  0  0  0  0  0  0  0  0
  152.7199  143.3102  159.8209 N   0  0  0  0  0  0  0  0  0  0  0  0
  152.8653  143.5452  158.3972 C   0  0  0  0  0  0  0  0  0  0  0  0
  151.6505  144.2806  157.8122 C   0  0  0  0  0  0  0  0  0  0  0  0
  150.6059  143.3274  157.3916 N   0  3  0  0  0  0  0  0  0  0  0  0
  151.0896  142.2683  156.4839 C   0  0  0  0  0  0  0  0  0  0  0  0
  149.9337  141.3748  156.0113 C   0  0  2  0  0  0  0  0  0  0  0  0
  149.3741  140.5066  157.1552 C   0  0  0  0  0  0  0  0  0  0  0  0
  148.2934  139.5534  156.6320 C   0  0  0  0  0  0  0  0  0  0  0  0
  148.8422  138.7514  155.4476 C   0  0  0  0  0  0  0  0  0  0  0  0
  149.4316  139.6984  154.3907 C   0  0  0  0  0  0  0  0  0  0  0  0
  150.4324  140.5224  154.9817 O   0  0  0  0  0  0  0  0  0  0  0  0
  153.0685  142.1901  160.5465 C   0  0  0  0  0  0  0  0  0  0  0  0
  152.8810  141.7765  162.6960 H   0  0  0  0  0  0  0  0  0  0  0  0
  151.8243  144.3381  162.6468 H   0  0  0  0  0  0  0  0  0  0  0  0
  153.7773  144.1209  158.2334 H   0  0  0  0  0  0  0  0  0  0  0  0
  153.0031  142.5839  157.9000 H   0  0  0  0  0  0  0  0  0  0  0  0
  151.2345  144.9627  158.5551 H   0  0  0  0  0  0  0  0  0  0  0  0
  151.9515  144.8823  156.9535 H   0  0  0  0  0  0  0  0  0  0  0  0
  150.2148  142.8917  158.2146 H   0  0  0  0  0  0  0  0  0  0  0  0
  151.5939  142.7170  155.6268 H   0  0  0  0  0  0  0  0  0  0  0  0
  151.8298  141.6687  157.0156 H   0  0  0  0  0  0  0  0  0  0  0  0
  149.1357  142.0030  155.6102 H   0  0  0  0  0  0  0  0  0  0  0  0
  150.1809  139.9282  157.6079 H   0  0  0  0  0  0  0  0  0  0  0  0
  148.9617  141.1379  157.9432 H   0  0  0  0  0  0  0  0  0  0  0  0
  147.9600  138.8826  157.4244 H   0  0  0  0  0  0  0  0  0  0  0  0
  147.4199  140.1250  156.3156 H   0  0  0  0  0  0  0  0  0  0  0  0
  149.6164  138.0663  155.7952 H   0  0  0  0  0  0  0  0  0  0  0  0
  148.0548  138.1379  155.0087 H   0  0  0  0  0  0  0  0  0  0  0  0
  149.8823  139.1226  153.5821 H   0  0  0  0  0  0  0  0  0  0  0  0
  148.6520  140.3175  153.9441 H   0  0  0  0  0  0  0  0  0  0  0  0
  153.5100  141.3209  160.0812 H   0  0  0  0  0  0  0  0  0  0  0  0
  149.8752  143.8407  156.9191 H   0  0  0  0  0  0  0  0  0  0  0  0
  1 15  2  0  0  0  0
  1  2  1  0  0  0  0
  1 16  1  0  0  0  0
  2  3  2  0  0  0  0
  2 17  1  0  0  0  0
  3  4  1  0  0  0  0
  4  5  1  0  0  0  0
  4 15  1  0  0  0  0
  5  6  1  0  0  0  0
  5 18  1  0  0  0  0
  5 19  1  0  0  0  0
  6  7  1  0  0  0  0
  6 20  1  0  0  0  0
  6 21  1  0  0  0  0
  7  8  1  0  0  0  0
  7 22  1  0  0  0  0
  7 35  1  0  0  0  0
  8  9  1  0  0  0  0
  8 23  1  0  0  0  0
  8 24  1  0  0  0  0
  9 14  1  0  0  0  0
  9 10  1  0  0  0  0
  9 25  1  0  0  0  0
 10 11  1  0  0  0  0
 10 26  1  0  0  0  0
 10 27  1  0  0  0  0
 11 12  1  0  0  0  0
 11 28  1  0  0  0  0
 11 29  1  0  0  0  0
 12 13  1  0  0  0  0
 12 30  1  0  0  0  0
 12 31  1  0  0  0  0
 13 14  1  0  0  0  0
 13 32  1  0  0  0  0
 13 33  1  0  0  0  0
 15 34  1  0  0  0  0
M  CHG  1   7   1
M  END
> <s_m_source_file>
AV-unprocessed.smi

> <i_m_source_file_index>
3113

> <i_lp_mmshare_version>
43012

> <i_f3d_flags>
0

> <s_epik_input>
W2NIXTFbY0hdW2NIXW5uMVtDSDJdW0NIMl1bTkhdW0NIMl1bQ0BASF0yW0NIMl1bQ0gyXVtDSDJdW0NIMl1PMg==

> <s_epik_cmdline>
J2VwaWtfcHl0aG9uJywgJy1waCcsICc3LjAnLCAnLXRuJywgJzgnLCAnLW1hJywgJzIwMCcsICctbWV0YWxfYmluZGluZycsICctaW1hZScsICc8aW5maWxlLm1hZT4nLCAnLW9tYWUnLCAnPG91dGZpbGUubWFlPic=

> <r_lp_tautomer_probability>
1

> <r_epik_Ionization_Penalty>
0.00849054

> <r_epik_Ionization_Penalty_Charging>
0.00848754

> <r_epik_Ionization_Penalty_Neutral>
3.00382e-06

> <r_epik_State_Penalty>
0.00639836

> <r_epik_Charging_Adjusted_Penalty>
0.0148859

> <i_epik_Tot_Q>
1

> <i_epik_Tot_abs_Q>
1

> <r_epik_Metal_State_Penalty>
0.00641155

> <b_epik_Metal_Only>
0

> <s_lp_Force_Field>
OPLS_2005

> <r_lp_Energy>
10.9258

> <b_lp_Chiralities_Consistent>
1

> <s_lp_Variant>
AV-unprocessed.smi:3113-1

> <Gold.Version>
5.8.1

> <Gold.Id.Protein>
6NUR|6NUR_protein|mol2

> <Gold.PLP.Fitness>
43.9477

> <Gold.PLP.PLP>
-36.1218

> <Gold.PLP.part.hbond>
-2.0000

> <Gold.PLP.part.metal>
0.0000

> <Gold.PLP.part.buried>
-5.0480

> <Gold.PLP.part.nonpolar>
-29.2480

> <Gold.PLP.part.repulsive>
0.1827

> <Gold.PLP.ligand.clash>
0.0000

> <Gold.PLP.ligand.torsion>
0.5080

> <Gold.PLP.Chemscore.Hbond>
2.9440

> <Gold.PLP.Chemscore.CHOScore>
0.0000

> <Gold.PLP.Chemscore.Metal>
0.0000

> <Gold.Chemscore.Hbonds>
donor molecule, donor type, donor heavy atom, donor atom, acceptor molecule, acceptor atom, score
      L1  H     7    35       P1  8028  2.00
      P1  H  7989  7998       L1    14  0.99

> <Gold.PLP.Chemscore.Internal.Correction>
0.0099

> <Gold.Rescore>
     Score         DG    S(hbond)    S(metal)    S(lipo)     H(rot)  DE(clash)    DE(int)     intcor
     14.91     -15.89       1.23        0.00      91.03       1.70       0.59       0.39       ----

> <Gold.Chemscore.Fitness>
14.9116

> <Gold.Chemscore.DG>
-15.8915

> <Gold.Chemscore.ZeroCoef>
-5.4800

> <Gold.Chemscore.Hbond>
1.2304

> <Gold.Chemscore.Metal>
0.0000

> <Gold.Chemscore.Lipo>
91.0272

> <Gold.Chemscore.Internal_Hbond>
0.0000

> <Gold.Chemscore.DEClash>
0.5899

> <Gold.Chemscore.DEInternal>
0.3900

> <Gold.Chemscore.Rot>
1.6985

> <Gold.Chemscore.Internal.Correction>
   9.000000E+99

> <Gold.Chemscore.Hbonds>
donor molecule, donor type, donor heavy atom, donor atom, acceptor molecule, acceptor atom, score
      L1  H     7    35       P1  8028  0.97
      P1  H  7989  7998       L1    14  0.37

> <Gold.Chemscore.Hbond.Weighted>
-4.1095

> <Gold.Chemscore.Metal.Weighted>
-0.0000

> <Gold.Chemscore.Lipo.Weighted>
-10.6502

> <Gold.Chemscore.Internal_Hbond.Weighted>
0.0000

> <Gold.Chemscore.DEClash.Weighted>
0.5899

> <Gold.Chemscore.DEInternal.Weighted>
0.3900

> <Gold.Chemscore.Rot.Weighted>
4.3482

> <Gold.Chemscore.Internal.Correction.Weighted>
   9.000000E+99

> <Gold.Protein.RotatedTorsions>
[ 6907 6896 6895 6894 ] final -149.75 input  -60.11 | X-H torsion
[ 7974 7965 7964 7962 ] final  114.24 input  175.53 | X-H torsion
[ 8008 7997 7996 7995 ] final  -15.28 input   59.86 | X-H torsion
[ 10167 10162 10161 10158 ] final -169.65 input  -65.29 | X-H torsion
[ 10718 10713 10712 10709 ] final  -14.97 input   66.30 | X-H torsion
[ 10763 10752 10751 10750 ] final -135.89 input  -60.55 | X-H torsion
[ 11005 11000 10999 10996 ] final  -75.37 input  -57.11 | X-H torsion

> <Gold.Protein.ActiveResidues>
 VAL166  LYS551  ARG553  GLY616  TRP617  ASP618  TYR619  PRO620  LYS621  CYS622 
 ASP623  PHE694  ASN695  SER759  ASP760  ASP761  ALA762  ILE779  LEU786  VAL792 
 PHE793  MET794  SER795  GLU796  ALA797  LYS798  CYS799  TRP800  GLU811  SER814 

> <Gold.Protein.RotatedAtoms>
  151.1886  133.4681  159.2594 H   0  0  0  0  0  0  0  0  0  0  0  0  # atno 6907 bound_to 6896
  151.1186  135.0066  159.8538 H   0  0  0  0  0  0  0  0  0  0  0  0  # atno 6908 bound_to 6896
  152.5455  134.1800  159.8684 H   0  0  0  0  0  0  0  0  0  0  0  0  # atno 6909 bound_to 6896
  145.2069  139.2925  143.4289 H   0  0  0  0  0  0  0  0  0  0  0  0  # atno 7974 bound_to 7965
  154.5142  140.2200  155.9097 H   0  0  0  0  0  0  0  0  0  0  0  0  # atno 8008 bound_to 7997
  156.1588  140.3146  155.8738 H   0  0  0  0  0  0  0  0  0  0  0  0  # atno 8009 bound_to 7997
  155.3792  140.0471  157.3034 H   0  0  0  0  0  0  0  0  0  0  0  0  # atno 8010 bound_to 7997
  139.5910  144.1214  152.1634 H   0  0  0  0  0  0  0  0  0  0  0  0  # atno 10167 bound_to 10162
  156.6084  130.4843  149.6211 H   0  0  0  0  0  0  0  0  0  0  0  0  # atno 10718 bound_to 10713
  154.8694  135.3689  154.4971 H   0  0  0  0  0  0  0  0  0  0  0  0  # atno 10763 bound_to 10752
  153.5614  135.7023  153.5550 H   0  0  0  0  0  0  0  0  0  0  0  0  # atno 10764 bound_to 10752
  153.3624  135.4043  155.1692 H   0  0  0  0  0  0  0  0  0  0  0  0  # atno 10765 bound_to 10752
  141.1645  133.6944  156.7507 H   0  0  0  0  0  0  0  0  0  0  0  0  # atno 11005 bound_to 11000
  146.3406  140.2332  142.8594 LP  0  0  0  0  0  0  0  0  0  0  0  0  # atno 17320 bound_to 7965
  144.9893  140.8532  143.5349 LP  0  0  0  0  0  0  0  0  0  0  0  0  # atno 17321 bound_to 7965
  140.0788  144.5718  150.7137 LP  0  0  0  0  0  0  0  0  0  0  0  0  # atno 17342 bound_to 10162
  140.7173  143.2556  151.4394 LP  0  0  0  0  0  0  0  0  0  0  0  0  # atno 17343 bound_to 10162
  156.2411  130.6851  151.1556 LP  0  0  0  0  0  0  0  0  0  0  0  0  # atno 17370 bound_to 10713
  157.7261  131.0648  150.5924 LP  0  0  0  0  0  0  0  0  0  0  0  0  # atno 17371 bound_to 10713
  140.2606  134.8469  157.3755 LP  0  0  0  0  0  0  0  0  0  0  0  0  # atno 17394 bound_to 11000
  140.1615  134.4723  155.7892 LP  0  0  0  0  0  0  0  0  0  0  0  0  # atno 17395 bound_to 11000

$$$$
