AV-unprocessed.smi:54|AV-procd|sdf|536|dock7
  -GOLD-   2262016423D 1   1.00000     0.00000
 Structure written by MMmdl.
 44 46  0  0  0  0  0  0  0  0  1 V2000
  151.1848  137.4174  154.8624 C   0  0  0  0  0  0  0  0  0  0  0  0
  149.8216  136.9080  155.3568 C   0  0  0  0  0  0  0  0  0  0  0  0
  149.5481  137.3574  156.8015 C   0  0  0  0  0  0  0  0  0  0  0  0
  149.7436  135.3817  155.2380 C   0  0  0  0  0  0  0  0  0  0  0  0
  150.4556  134.6374  155.9131 O   0  0  0  0  0  0  0  0  0  0  0  0
  148.7809  134.8817  154.2726 N   0  0  0  0  0  0  0  0  0  0  0  0
  148.5172  133.5900  153.9664 C   0  0  0  0  0  0  0  0  0  0  0  0
  147.4522  133.2096  153.2748 N   0  0  0  0  0  0  0  0  0  0  0  0
  147.3634  131.8617  153.0656 C   0  0  0  0  0  0  0  0  0  0  0  0
  148.2551  130.9006  153.4935 C   0  0  0  0  0  0  0  0  0  0  0  0
  147.8270  129.6388  153.0946 N   0  0  0  0  0  0  0  0  0  0  0  0
  146.7149  129.8694  152.4535 C   0  0  0  0  0  0  0  0  0  0  0  0
  146.3646  131.1974  152.3900 N   0  0  0  0  0  0  0  0  0  0  0  0
  145.1736  131.8338  151.7522 C   0  0  1  0  0  0  0  0  0  0  0  0
  145.1360  133.1763  152.1038 O   0  0  0  0  0  0  0  0  0  0  0  0
  144.3794  133.8896  151.1304 C   0  0  1  0  0  0  0  0  0  0  0  0
  145.0375  135.2624  150.9257 C   0  0  0  0  0  0  0  0  0  0  0  0
  144.6947  135.7865  149.6602 O   0  0  0  0  0  0  0  0  0  0  0  0
  144.3673  133.0050  149.8637 C   0  0  2  0  0  0  0  0  0  0  0  0
  143.0433  132.5793  149.6049 O   0  0  0  0  0  0  0  0  0  0  0  0
  145.2343  131.8042  150.2235 C   0  0  1  0  0  0  0  0  0  0  0  0
  146.5497  131.9592  149.7202 O   0  0  0  0  0  0  0  0  0  0  0  0
  149.4166  131.2970  154.2362 C   0  0  0  0  0  0  0  0  0  0  0  0
  150.3107  130.5860  154.6896 O   0  0  0  0  0  0  0  0  0  0  0  0
  149.4710  132.6837  154.4303 N   0  0  0  0  0  0  0  0  0  0  0  0
  144.3051  131.3136  152.1596 H   0  0  0  0  0  0  0  0  0  0  0  0
  143.3715  134.0198  151.5294 H   0  0  0  0  0  0  0  0  0  0  0  0
  144.7362  133.5260  148.9788 H   0  0  0  0  0  0  0  0  0  0  0  0
  144.8349  130.8582  149.8543 H   0  0  0  0  0  0  0  0  0  0  0  0
  151.3777  137.1003  153.8367 H   0  0  0  0  0  0  0  0  0  0  0  0
  152.0014  137.0480  155.4843 H   0  0  0  0  0  0  0  0  0  0  0  0
  151.2230  138.5069  154.8796 H   0  0  0  0  0  0  0  0  0  0  0  0
  149.0479  137.3386  154.7194 H   0  0  0  0  0  0  0  0  0  0  0  0
  148.5835  136.9910  157.1551 H   0  0  0  0  0  0  0  0  0  0  0  0
  149.5309  138.4452  156.8739 H   0  0  0  0  0  0  0  0  0  0  0  0
  150.3143  136.9938  157.4877 H   0  0  0  0  0  0  0  0  0  0  0  0
  148.2693  135.5821  153.7570 H   0  0  0  0  0  0  0  0  0  0  0  0
  146.1233  129.0789  152.0155 H   0  0  0  0  0  0  0  0  0  0  0  0
  144.6938  135.9615  151.6885 H   0  0  0  0  0  0  0  0  0  0  0  0
  146.1219  135.1929  151.0161 H   0  0  0  0  0  0  0  0  0  0  0  0
  145.3294  135.4853  149.0281 H   0  0  0  0  0  0  0  0  0  0  0  0
  142.5335  133.3306  149.3420 H   0  0  0  0  0  0  0  0  0  0  0  0
  147.1319  131.4252  150.2382 H   0  0  0  0  0  0  0  0  0  0  0  0
  150.2626  133.0350  154.9483 H   0  0  0  0  0  0  0  0  0  0  0  0
  1  2  1  0  0  0  0
  1 30  1  0  0  0  0
  1 31  1  0  0  0  0
  1 32  1  0  0  0  0
  2  3  1  0  0  0  0
  2  4  1  0  0  0  0
  2 33  1  0  0  0  0
  3 34  1  0  0  0  0
  3 35  1  0  0  0  0
  3 36  1  0  0  0  0
  4  5  2  0  0  0  0
  4  6  1  0  0  0  0
  6 37  1  0  0  0  0
  6  7  1  0  0  0  0
  7 25  1  0  0  0  0
  7  8  2  0  0  0  0
  8  9  1  0  0  0  0
  9 13  1  0  0  0  0
  9 10  2  0  0  0  0
 10 11  1  0  0  0  0
 10 23  1  0  0  0  0
 11 12  2  0  0  0  0
 12 13  1  0  0  0  0
 12 38  1  0  0  0  0
 13 14  1  0  0  0  0
 14 26  1  0  0  0  0
 14 21  1  0  0  0  0
 14 15  1  0  0  0  0
 15 16  1  0  0  0  0
 16 27  1  0  0  0  0
 16 17  1  0  0  0  0
 16 19  1  0  0  0  0
 17 18  1  0  0  0  0
 17 39  1  0  0  0  0
 17 40  1  0  0  0  0
 18 41  1  0  0  0  0
 19 28  1  0  0  0  0
 19 20  1  0  0  0  0
 19 21  1  0  0  0  0
 20 42  1  0  0  0  0
 21 29  1  0  0  0  0
 21 22  1  0  0  0  0
 22 43  1  0  0  0  0
 23 24  2  0  0  0  0
 23 25  1  0  0  0  0
 25 44  1  0  0  0  0
M  END
> <s_m_source_file>
AV-unprocessed.smi

> <i_m_source_file_index>
54

> <i_lp_mmshare_version>
43012

> <i_f3d_flags>
0

> <s_epik_input>
W0NIM11bQ0hdKFtDSDNdKUMoPU8pW05IXWMobjEpW25IXWMoPU8pYyhjMTIpbltjSF1uMltDQEBIXTNPW0NASF0oW0NIMl1bT0hdKVtDQEBIXShbT0hdKVtDQEhdM1tPSF0=

> <s_epik_cmdline>
J2VwaWtfcHl0aG9uJywgJy1waCcsICc3LjAnLCAnLXRuJywgJzgnLCAnLW1hJywgJzIwMCcsICctbWV0YWxfYmluZGluZycsICctaW1hZScsICc8aW5maWxlLm1hZT4nLCAnLW9tYWUnLCAnPG91dGZpbGUubWFlPic=

> <r_lp_tautomer_probability>
0.85571

> <r_epik_Ionization_Penalty>
0.0316551

> <r_epik_Ionization_Penalty_Charging>
0.0316043

> <r_epik_Ionization_Penalty_Neutral>
5.07097e-05

> <r_epik_State_Penalty>
3.15494e-07

> <r_epik_Charging_Adjusted_Penalty>
0.0316047

> <i_epik_Tot_Q>
0

> <i_epik_Tot_abs_Q>
0

> <r_epik_Metal_State_Penalty>
0.421206

> <b_epik_Metal_Only>
0

> <s_epik_Chemistry_Notes>
This compound contains an acetal/aminal-like group ( X-CH(R)-Y where X, Y are N, S, or O) that may be acid/base labile, releasing an aldehyde.

> <s_lp_Force_Field>
OPLS_2005

> <r_lp_Energy>
42.5501

> <b_lp_Chiralities_Consistent>
1

> <s_lp_Variant>
AV-unprocessed.smi:54-8

> <Gold.Version>
5.8.1

> <Gold.Id.Protein>
6NUR|6NUR_protein|mol2

> <Gold.PLP.Fitness>
51.7022

> <Gold.PLP.PLP>
-43.0158

> <Gold.PLP.part.hbond>
-5.7778

> <Gold.PLP.part.metal>
0.0000

> <Gold.PLP.part.buried>
-8.0859

> <Gold.PLP.part.nonpolar>
-28.7090

> <Gold.PLP.part.repulsive>
0.4249

> <Gold.PLP.ligand.clash>
0.0000

> <Gold.PLP.ligand.torsion>
0.4949

> <Gold.PLP.Chemscore.Hbond>
3.2160

> <Gold.PLP.Chemscore.CHOScore>
0.0000

> <Gold.PLP.Chemscore.Metal>
0.0000

> <Gold.Chemscore.Hbonds>
donor molecule, donor type, donor heavy atom, donor atom, acceptor molecule, acceptor atom, score
      L1  H     6    37       P1  7948  0.31
      L1  H    18    41       P1  7921  1.00
      L1  H    20    42       P1 10186  1.00
      L1  H    22    43       P1 10747  0.78

> <Gold.PLP.Chemscore.Internal.Correction>
0.0281

> <Gold.Rescore>
     Score         DG    S(hbond)    S(metal)    S(lipo)     H(rot)  DE(clash)    DE(int)     intcor
     10.35     -12.67       3.53        0.00      49.40       4.05       0.05       2.27       ----

> <Gold.Chemscore.Fitness>
10.3507

> <Gold.Chemscore.DG>
-12.6705

> <Gold.Chemscore.ZeroCoef>
-5.4800

> <Gold.Chemscore.Hbond>
3.5262

> <Gold.Chemscore.Metal>
0.0000

> <Gold.Chemscore.Lipo>
49.3953

> <Gold.Chemscore.Internal_Hbond>
0.0000

> <Gold.Chemscore.DEClash>
0.0496

> <Gold.Chemscore.DEInternal>
2.2702

> <Gold.Chemscore.Rot>
4.0493

> <Gold.Chemscore.Internal.Correction>
   9.000000E+99

> <Gold.Chemscore.Hbonds>
donor molecule, donor type, donor heavy atom, donor atom, acceptor molecule, acceptor atom, score
      L1  H     6    37       P1  7948  0.31
      L1  H    18    41       P1  7921  1.00
      L1  H    20    42       P1 10186  0.94
      L1  H    22    43       P1 10747  0.77

> <Gold.Chemscore.Hbond.Weighted>
-11.7775

> <Gold.Chemscore.Metal.Weighted>
-0.0000

> <Gold.Chemscore.Lipo.Weighted>
-5.7792

> <Gold.Chemscore.Internal_Hbond.Weighted>
0.0000

> <Gold.Chemscore.DEClash.Weighted>
0.0496

> <Gold.Chemscore.DEInternal.Weighted>
2.2702

> <Gold.Chemscore.Rot.Weighted>
10.3662

> <Gold.Chemscore.Internal.Correction.Weighted>
   9.000000E+99

> <Gold.Protein.RotatedTorsions>
[ 6907 6896 6895 6894 ] final  135.92 input  -60.11 | X-H torsion
[ 7974 7965 7964 7962 ] final   51.77 input  175.53 | X-H torsion
[ 8008 7997 7996 7995 ] final   -8.94 input   59.86 | X-H torsion
[ 10167 10162 10161 10158 ] final    1.15 input  -65.29 | X-H torsion
[ 10718 10713 10712 10709 ] final  -30.50 input   66.30 | X-H torsion
[ 10763 10752 10751 10750 ] final  -96.34 input  -60.55 | X-H torsion
[ 11005 11000 10999 10996 ] final  -67.35 input  -57.11 | X-H torsion

> <Gold.Protein.ActiveResidues>
 VAL166  LYS551  ARG553  GLY616  TRP617  ASP618  TYR619  PRO620  LYS621  CYS622 
 ASP623  PHE694  ASN695  SER759  ASP760  ASP761  ALA762  ILE779  LEU786  VAL792 
 PHE793  MET794  SER795  GLU796  ALA797  LYS798  CYS799  TRP800  GLU811  SER814 

> <Gold.Protein.RotatedAtoms>
  152.2951  133.5599  159.5581 H   0  0  0  0  0  0  0  0  0  0  0  0  # atno 6907 bound_to 6896
  150.7252  134.0373  159.3762 H   0  0  0  0  0  0  0  0  0  0  0  0  # atno 6908 bound_to 6896
  151.8277  135.0632  160.0484 H   0  0  0  0  0  0  0  0  0  0  0  0  # atno 6909 bound_to 6896
  145.9880  139.4310  143.0091 H   0  0  0  0  0  0  0  0  0  0  0  0  # atno 7974 bound_to 7965
  154.5694  140.2368  155.8215 H   0  0  0  0  0  0  0  0  0  0  0  0  # atno 8008 bound_to 7997
  156.2094  140.3030  155.9657 H   0  0  0  0  0  0  0  0  0  0  0  0  # atno 8009 bound_to 7997
  155.2741  140.0419  157.3000 H   0  0  0  0  0  0  0  0  0  0  0  0  # atno 8010 bound_to 7997
  140.6696  143.7085  150.7896 H   0  0  0  0  0  0  0  0  0  0  0  0  # atno 10167 bound_to 10162
  156.3990  130.4387  149.7337 H   0  0  0  0  0  0  0  0  0  0  0  0  # atno 10718 bound_to 10713
  154.7230  135.5087  153.8842 H   0  0  0  0  0  0  0  0  0  0  0  0  # atno 10763 bound_to 10752
  153.0879  135.6651  153.9920 H   0  0  0  0  0  0  0  0  0  0  0  0  # atno 10764 bound_to 10752
  153.9739  135.3035  155.3405 H   0  0  0  0  0  0  0  0  0  0  0  0  # atno 10765 bound_to 10752
  141.1506  133.6717  156.6279 H   0  0  0  0  0  0  0  0  0  0  0  0  # atno 11005 bound_to 11000
  145.7672  140.9911  143.1169 LP  0  0  0  0  0  0  0  0  0  0  0  0  # atno 17320 bound_to 7965
  144.6880  139.9402  143.7475 LP  0  0  0  0  0  0  0  0  0  0  0  0  # atno 17321 bound_to 7965
  140.0768  143.5007  152.2551 LP  0  0  0  0  0  0  0  0  0  0  0  0  # atno 17342 bound_to 10162
  139.5959  144.7566  151.3288 LP  0  0  0  0  0  0  0  0  0  0  0  0  # atno 17343 bound_to 10162
  156.4360  130.7838  151.2859 LP  0  0  0  0  0  0  0  0  0  0  0  0  # atno 17370 bound_to 10713
  157.7503  131.0139  150.3444 LP  0  0  0  0  0  0  0  0  0  0  0  0  # atno 17371 bound_to 10713
  140.3489  134.7785  157.4453 LP  0  0  0  0  0  0  0  0  0  0  0  0  # atno 17394 bound_to 11000
  140.0876  134.5645  155.8476 LP  0  0  0  0  0  0  0  0  0  0  0  0  # atno 17395 bound_to 11000

$$$$
