AV-unprocessed.smi:2137|AV-procd|sdf|8707|dock3
  -GOLD-   2272011463D 1   1.00000     0.00000
 Structure written by MMmdl.
 50 51  0  0  0  0  0  0  0  0  2 V2000
  150.0905  144.2227  159.6223 C   0  0  0  0  0  0  0  0  0  0  0  0
  151.6234  144.2882  159.5058 C   0  0  1  0  0  0  0  0  0  0  0  0
  152.3266  144.3142  160.8754 C   0  0  0  0  0  0  0  0  0  0  0  0
  152.2929  142.9332  161.5453 C   0  0  0  0  0  0  0  0  0  0  0  0
  152.8483  141.8504  160.6066 C   0  0  0  0  0  0  0  0  0  0  0  0
  152.1142  141.8341  159.3153 N   0  3  2  0  0  0  0  0  0  0  0  0
  152.5208  140.6987  158.4492 C   0  0  0  0  0  0  0  0  0  0  0  0
  151.3353  139.7900  158.0831 C   0  0  0  0  0  0  0  0  0  0  0  0
  151.7417  138.6529  157.1309 C   0  0  0  0  0  0  0  0  0  0  0  0
  150.6097  137.7896  156.8157 N   0  0  0  0  0  0  0  0  0  0  0  0
  150.7051  136.5485  156.3153 C   0  0  0  0  0  0  0  0  0  0  0  0
  151.7815  135.9920  156.0935 O   0  0  0  0  0  0  0  0  0  0  0  0
  149.3789  135.8278  156.0374 C   0  0  0  0  0  0  0  0  0  0  0  0
  149.5649  134.4685  155.5128 N   0  0  0  0  0  0  0  0  0  0  0  0
  149.0274  134.1282  154.2845 C   0  0  0  0  0  0  0  0  0  0  0  0
  149.1396  132.8982  153.7373 C   0  0  0  0  0  0  0  0  0  0  0  0
  149.8564  131.8344  154.4297 C   0  0  0  0  0  0  0  0  0  0  0  0
  149.9649  130.6922  153.9818 O   0  0  0  0  0  0  0  0  0  0  0  0
  150.4116  132.2129  155.6748 N   0  0  0  0  0  0  0  0  0  0  0  0
  151.1204  131.1981  156.4271 C   0  0  0  0  0  0  0  0  0  0  0  0
  150.2748  133.4965  156.2514 C   0  0  0  0  0  0  0  0  0  0  0  0
  150.7421  133.7726  157.3592 O   0  0  0  0  0  0  0  0  0  0  0  0
  152.1894  143.1526  158.6283 C   0  0  0  0  0  0  0  0  0  0  0  0
  149.7555  143.2955  160.0871 H   0  0  0  0  0  0  0  0  0  0  0  0
  149.6220  144.2847  158.6397 H   0  0  0  0  0  0  0  0  0  0  0  0
  149.7073  145.0507  160.2193 H   0  0  0  0  0  0  0  0  0  0  0  0
  151.8522  145.2310  159.0072 H   0  0  0  0  0  0  0  0  0  0  0  0
  153.3655  144.6173  160.7392 H   0  0  0  0  0  0  0  0  0  0  0  0
  151.8736  145.0632  161.5261 H   0  0  0  0  0  0  0  0  0  0  0  0
  152.8722  142.9561  162.4688 H   0  0  0  0  0  0  0  0  0  0  0  0
  151.2713  142.6829  161.8329 H   0  0  0  0  0  0  0  0  0  0  0  0
  153.9104  142.0190  160.4207 H   0  0  0  0  0  0  0  0  0  0  0  0
  152.7615  140.8792  161.0959 H   0  0  0  0  0  0  0  0  0  0  0  0
  153.0164  141.0735  157.5524 H   0  0  0  0  0  0  0  0  0  0  0  0
  153.2577  140.0901  158.9754 H   0  0  0  0  0  0  0  0  0  0  0  0
  150.9095  139.3650  158.9931 H   0  0  0  0  0  0  0  0  0  0  0  0
  150.5434  140.3764  157.6185 H   0  0  0  0  0  0  0  0  0  0  0  0
  152.1695  139.0566  156.2117 H   0  0  0  0  0  0  0  0  0  0  0  0
  152.5167  138.0395  157.5913 H   0  0  0  0  0  0  0  0  0  0  0  0
  149.6866  138.1669  156.9761 H   0  0  0  0  0  0  0  0  0  0  0  0
  148.8089  135.7964  156.9668 H   0  0  0  0  0  0  0  0  0  0  0  0
  148.7756  136.4130  155.3407 H   0  0  0  0  0  0  0  0  0  0  0  0
  148.4826  134.8811  153.7335 H   0  0  0  0  0  0  0  0  0  0  0  0
  148.6898  132.6975  152.7758 H   0  0  0  0  0  0  0  0  0  0  0  0
  151.8575  131.6656  157.0811 H   0  0  0  0  0  0  0  0  0  0  0  0
  151.6534  130.5453  155.7342 H   0  0  0  0  0  0  0  0  0  0  0  0
  150.3720  130.6482  156.9992 H   0  0  0  0  0  0  0  0  0  0  0  0
  151.6488  143.1273  157.6829 H   0  0  0  0  0  0  0  0  0  0  0  0
  153.2309  143.3639  158.3804 H   0  0  0  0  0  0  0  0  0  0  0  0
  151.1434  141.6799  159.5480 H   0  0  0  0  0  0  0  0  0  0  0  0
  1  2  1  0  0  0  0
  1 24  1  0  0  0  0
  1 25  1  0  0  0  0
  1 26  1  0  0  0  0
  2 23  1  0  0  0  0
  2  3  1  0  0  0  0
  2 27  1  0  0  0  0
  3  4  1  0  0  0  0
  3 28  1  0  0  0  0
  3 29  1  0  0  0  0
  4  5  1  0  0  0  0
  4 30  1  0  0  0  0
  4 31  1  0  0  0  0
  5  6  1  0  0  0  0
  5 32  1  0  0  0  0
  5 33  1  0  0  0  0
  6  7  1  0  0  0  0
  6 23  1  0  0  0  0
  6 50  1  0  0  0  0
  7  8  1  0  0  0  0
  7 34  1  0  0  0  0
  7 35  1  0  0  0  0
  8  9  1  0  0  0  0
  8 36  1  0  0  0  0
  8 37  1  0  0  0  0
  9 10  1  0  0  0  0
  9 38  1  0  0  0  0
  9 39  1  0  0  0  0
 10 11  1  0  0  0  0
 10 40  1  0  0  0  0
 11 12  2  0  0  0  0
 11 13  1  0  0  0  0
 13 14  1  0  0  0  0
 13 41  1  0  0  0  0
 13 42  1  0  0  0  0
 14 21  1  0  0  0  0
 14 15  1  0  0  0  0
 15 16  2  0  0  0  0
 15 43  1  0  0  0  0
 16 17  1  0  0  0  0
 16 44  1  0  0  0  0
 17 18  2  0  0  0  0
 17 19  1  0  0  0  0
 19 20  1  0  0  0  0
 19 21  1  0  0  0  0
 20 45  1  0  0  0  0
 20 46  1  0  0  0  0
 20 47  1  0  0  0  0
 21 22  2  0  0  0  0
 23 48  1  0  0  0  0
 23 49  1  0  0  0  0
M  CHG  1   6   1
M  END
> <s_m_source_file>
AV-unprocessed.smi

> <i_m_source_file_index>
2137

> <i_lp_mmshare_version>
43012

> <i_f3d_flags>
0

> <s_epik_input>
W0NIM11bQ0BASF0xW0NIMl1bQ0gyXVtDSDJdTihbQ0gyXTEpW0NIMl1bQ0gyXVtDSDJdW05IXUMoPU8pW0NIMl1uMltjSF1bY0hdYyg9TyluKFtDSDNdKWMyPU8=

> <s_epik_cmdline>
J2VwaWtfcHl0aG9uJywgJy1waCcsICc3LjAnLCAnLXRuJywgJzgnLCAnLW1hJywgJzIwMCcsICctbWV0YWxfYmluZGluZycsICctaW1hZScsICc8aW5maWxlLm1hZT4nLCAnLW9tYWUnLCAnPG91dGZpbGUubWFlPic=

> <r_lp_tautomer_probability>
1

> <r_epik_Ionization_Penalty>
0.000384839

> <r_epik_Ionization_Penalty_Charging>
0.000384812

> <r_epik_Ionization_Penalty_Neutral>
2.6907e-08

> <r_epik_State_Penalty>
0.000235226

> <r_epik_Charging_Adjusted_Penalty>
0.000620038

> <i_epik_Tot_Q>
1

> <i_epik_Tot_abs_Q>
1

> <r_epik_Metal_State_Penalty>
-0

> <b_epik_Metal_Only>
0

> <s_lp_Force_Field>
OPLS_2005

> <r_lp_Energy>
27.4749

> <b_lp_Chiralities_Consistent>
1

> <s_lp_Variant>
AV-unprocessed.smi:2137-2

> <Gold.Version>
5.8.1

> <Gold.Id.Protein>
6NUR|6NUR_protein|mol2

> <Gold.PLP.Fitness>
48.6793

> <Gold.PLP.PLP>
-42.3453

> <Gold.PLP.part.hbond>
-2.0000

> <Gold.PLP.part.metal>
0.0000

> <Gold.PLP.part.buried>
-5.2999

> <Gold.PLP.part.nonpolar>
-34.7552

> <Gold.PLP.part.repulsive>
0.2051

> <Gold.PLP.ligand.clash>
0.0000

> <Gold.PLP.ligand.torsion>
0.8576

> <Gold.PLP.Chemscore.Hbond>
1.6560

> <Gold.PLP.Chemscore.CHOScore>
1.0000

> <Gold.PLP.Chemscore.Metal>
0.0000

> <Gold.Chemscore.Hbonds>
donor molecule, donor type, donor heavy atom, donor atom, acceptor molecule, acceptor atom, score
      P1  H  6896  6908       L1    22  0.69
      P1  H 10752 10765       L1    12  1.00
      L1  C    15    43       P1  7948  1.00

> <Gold.PLP.Chemscore.Internal.Correction>
0.0812

> <Gold.Rescore>
     Score         DG    S(hbond)    S(metal)    S(lipo)     H(rot)  DE(clash)    DE(int)     intcor
     17.07     -18.10       1.93        0.00     102.43       2.27       0.06       0.97       ----

> <Gold.Chemscore.Fitness>
17.0679

> <Gold.Chemscore.DG>
-18.0998

> <Gold.Chemscore.ZeroCoef>
-5.4800

> <Gold.Chemscore.Hbond>
1.9337

> <Gold.Chemscore.Metal>
0.0000

> <Gold.Chemscore.Lipo>
102.4338

> <Gold.Chemscore.Internal_Hbond>
0.0000

> <Gold.Chemscore.DEClash>
0.0625

> <Gold.Chemscore.DEInternal>
0.9694

> <Gold.Chemscore.Rot>
2.2748

> <Gold.Chemscore.Internal.Correction>
   9.000000E+99

> <Gold.Chemscore.Hbonds>
donor molecule, donor type, donor heavy atom, donor atom, acceptor molecule, acceptor atom, score
      P1  H  6896  6908       L1    22  0.70
      P1  H 10752 10765       L1    12  1.00

> <Gold.Chemscore.Hbond.Weighted>
-6.4584

> <Gold.Chemscore.Metal.Weighted>
-0.0000

> <Gold.Chemscore.Lipo.Weighted>
-11.9848

> <Gold.Chemscore.Internal_Hbond.Weighted>
0.0000

> <Gold.Chemscore.DEClash.Weighted>
0.0625

> <Gold.Chemscore.DEInternal.Weighted>
0.9694

> <Gold.Chemscore.Rot.Weighted>
5.8234

> <Gold.Chemscore.Internal.Correction.Weighted>
   9.000000E+99

> <Gold.Protein.RotatedTorsions>
[ 6907 6896 6895 6894 ] final  100.72 input  -60.11 | X-H torsion
[ 7974 7965 7964 7962 ] final  141.59 input  175.53 | X-H torsion
[ 8008 7997 7996 7995 ] final  -69.81 input   59.86 | X-H torsion
[ 10167 10162 10161 10158 ] final   41.58 input  -65.29 | X-H torsion
[ 10718 10713 10712 10709 ] final   62.16 input   66.30 | X-H torsion
[ 10763 10752 10751 10750 ] final -150.87 input  -60.55 | X-H torsion
[ 11005 11000 10999 10996 ] final   15.99 input  -57.11 | X-H torsion

> <Gold.Protein.ActiveResidues>
 VAL166  LYS551  ARG553  GLY616  TRP617  ASP618  TYR619  PRO620  LYS621  CYS622 
 ASP623  PHE694  ASN695  SER759  ASP760  ASP761  ALA762  ILE779  LEU786  VAL792 
 PHE793  MET794  SER795  GLU796  ALA797  LYS798  CYS799  TRP800  GLU811  SER814 

> <Gold.Protein.RotatedAtoms>
  152.5366  134.0233  159.7991 H   0  0  0  0  0  0  0  0  0  0  0  0  # atno 6907 bound_to 6896
  151.0416  133.5693  159.2658 H   0  0  0  0  0  0  0  0  0  0  0  0  # atno 6908 bound_to 6896
  151.2661  135.0677  159.9170 H   0  0  0  0  0  0  0  0  0  0  0  0  # atno 6909 bound_to 6896
  144.9083  139.5328  143.5721 H   0  0  0  0  0  0  0  0  0  0  0  0  # atno 7974 bound_to 7965
  154.4965  140.0846  156.7708 H   0  0  0  0  0  0  0  0  0  0  0  0  # atno 8008 bound_to 7997
  155.4103  140.3441  155.4245 H   0  0  0  0  0  0  0  0  0  0  0  0  # atno 8009 bound_to 7997
  156.1401  140.1527  156.8921 H   0  0  0  0  0  0  0  0  0  0  0  0  # atno 8010 bound_to 7997
  140.3629  144.2204  150.6137 H   0  0  0  0  0  0  0  0  0  0  0  0  # atno 10167 bound_to 10162
  157.5880  130.9035  149.9552 H   0  0  0  0  0  0  0  0  0  0  0  0  # atno 10718 bound_to 10713
  154.8093  135.3274  154.7348 H   0  0  0  0  0  0  0  0  0  0  0  0  # atno 10763 bound_to 10752
  153.8000  135.6904  153.4861 H   0  0  0  0  0  0  0  0  0  0  0  0  # atno 10764 bound_to 10752
  153.1860  135.4569  155.0035 H   0  0  0  0  0  0  0  0  0  0  0  0  # atno 10765 bound_to 10752
  140.4521  134.1213  155.7704 H   0  0  0  0  0  0  0  0  0  0  0  0  # atno 11005 bound_to 11000
  146.3145  139.7869  142.8994 LP  0  0  0  0  0  0  0  0  0  0  0  0  # atno 17320 bound_to 7965
  145.3498  141.0305  143.3345 LP  0  0  0  0  0  0  0  0  0  0  0  0  # atno 17321 bound_to 7965
  140.5109  143.2291  151.8537 LP  0  0  0  0  0  0  0  0  0  0  0  0  # atno 17342 bound_to 10162
  139.4812  144.4951  151.9134 LP  0  0  0  0  0  0  0  0  0  0  0  0  # atno 17343 bound_to 10162
  156.0932  130.3661  150.0356 LP  0  0  0  0  0  0  0  0  0  0  0  0  # atno 17370 bound_to 10713
  156.8484  130.9450  151.3627 LP  0  0  0  0  0  0  0  0  0  0  0  0  # atno 17371 bound_to 10713
  141.1659  133.8703  157.1715 LP  0  0  0  0  0  0  0  0  0  0  0  0  # atno 17394 bound_to 11000
  140.0000  135.0032  157.0168 LP  0  0  0  0  0  0  0  0  0  0  0  0  # atno 17395 bound_to 11000

$$$$
