AV-unprocessed.smi:317|AV-procd|sdf|2327|dock6
  -GOLD-   2262022233D 1   1.00000     0.00000
 Structure written by MMmdl.
 39 40  0  0  0  0  0  0  0  0  1 V2000
  144.6864  134.9409  153.1902 C   0  0  0  0  0  0  0  0  0  0  0  0
  145.4400  135.2056  151.8787 C   0  0  1  0  0  0  0  0  0  0  0  0
  144.4847  135.6971  150.7700 C   0  0  0  0  0  0  0  0  0  0  0  0
  145.2154  136.2145  149.6787 O   0  0  0  0  0  0  0  0  0  0  0  0
  146.4698  136.2077  152.1400 N   0  0  0  0  0  0  0  0  0  0  0  0
  146.2615  137.4048  152.7058 C   0  0  0  0  0  0  0  0  0  0  0  0
  145.1563  137.8073  153.0687 O   0  0  0  0  0  0  0  0  0  0  0  0
  147.4132  138.0834  152.8379 N   0  0  0  0  0  0  0  0  0  0  0  0
  147.6114  139.3650  153.4240 C   0  0  0  0  0  0  0  0  0  0  0  0
  146.6580  140.4010  153.2712 C   0  0  0  0  0  0  0  0  0  0  0  0
  146.9295  141.6727  153.8044 C   0  0  0  0  0  0  0  0  0  0  0  0
  148.1559  141.8698  154.4603 C   0  0  0  0  0  0  0  0  0  0  0  0
  149.0792  140.8979  154.6031 N   0  0  0  0  0  0  0  0  0  0  0  0
  148.8258  139.6614  154.1072 C   0  0  0  0  0  0  0  0  0  0  0  0
  149.8226  138.6778  154.3031 N   0  0  0  0  0  0  0  0  0  0  0  0
  151.1748  139.0631  154.6934 C   0  0  0  0  0  0  0  0  0  0  0  0
  151.8284  137.7724  155.1785 C   0  0  0  0  0  0  0  0  0  0  0  0
  150.6645  137.0504  155.8503 C   0  0  0  0  0  0  0  0  0  0  0  0
  149.4493  137.4552  155.0090 C   0  0  0  0  0  0  0  0  0  0  0  0
  143.9243  134.1725  153.0569 H   0  0  0  0  0  0  0  0  0  0  0  0
  144.1908  135.8417  153.5542 H   0  0  0  0  0  0  0  0  0  0  0  0
  145.3652  134.5945  153.9702 H   0  0  0  0  0  0  0  0  0  0  0  0
  145.9013  134.2611  151.5821 H   0  0  0  0  0  0  0  0  0  0  0  0
  143.8893  134.8690  150.3843 H   0  0  0  0  0  0  0  0  0  0  0  0
  143.7807  136.4433  151.1404 H   0  0  0  0  0  0  0  0  0  0  0  0
  145.3003  135.5378  149.0248 H   0  0  0  0  0  0  0  0  0  0  0  0
  147.4138  135.9660  151.8771 H   0  0  0  0  0  0  0  0  0  0  0  0
  148.2557  137.5861  152.5890 H   0  0  0  0  0  0  0  0  0  0  0  0
  145.7348  140.2472  152.7334 H   0  0  0  0  0  0  0  0  0  0  0  0
  146.2202  142.4803  153.7003 H   0  0  0  0  0  0  0  0  0  0  0  0
  148.4060  142.8344  154.8761 H   0  0  0  0  0  0  0  0  0  0  0  0
  151.7194  139.5045  153.8583 H   0  0  0  0  0  0  0  0  0  0  0  0
  151.1520  139.7865  155.5096 H   0  0  0  0  0  0  0  0  0  0  0  0
  152.1868  137.1915  154.3275 H   0  0  0  0  0  0  0  0  0  0  0  0
  152.6690  137.9478  155.8502 H   0  0  0  0  0  0  0  0  0  0  0  0
  150.8040  135.9701  155.8994 H   0  0  0  0  0  0  0  0  0  0  0  0
  150.5447  137.4205  156.8695 H   0  0  0  0  0  0  0  0  0  0  0  0
  148.5637  137.5937  155.6313 H   0  0  0  0  0  0  0  0  0  0  0  0
  149.2299  136.6778  154.2767 H   0  0  0  0  0  0  0  0  0  0  0  0
  1  2  1  0  0  0  0
  1 20  1  0  0  0  0
  1 21  1  0  0  0  0
  1 22  1  0  0  0  0
  2  3  1  0  0  0  0
  2  5  1  0  0  0  0
  2 23  1  0  0  0  0
  3  4  1  0  0  0  0
  3 24  1  0  0  0  0
  3 25  1  0  0  0  0
  4 26  1  0  0  0  0
  5  6  1  0  0  0  0
  5 27  1  0  0  0  0
  6  7  2  0  0  0  0
  6  8  1  0  0  0  0
  8  9  1  0  0  0  0
  8 28  1  0  0  0  0
  9 14  1  0  0  0  0
  9 10  2  0  0  0  0
 10 11  1  0  0  0  0
 10 29  1  0  0  0  0
 11 12  2  0  0  0  0
 11 30  1  0  0  0  0
 12 13  1  0  0  0  0
 12 31  1  0  0  0  0
 13 14  2  0  0  0  0
 14 15  1  0  0  0  0
 15 19  1  0  0  0  0
 15 16  1  0  0  0  0
 16 17  1  0  0  0  0
 16 32  1  0  0  0  0
 16 33  1  0  0  0  0
 17 18  1  0  0  0  0
 17 34  1  0  0  0  0
 17 35  1  0  0  0  0
 18 19  1  0  0  0  0
 18 36  1  0  0  0  0
 18 37  1  0  0  0  0
 19 38  1  0  0  0  0
 19 39  1  0  0  0  0
M  END
> <s_m_source_file>
AV-unprocessed.smi

> <i_m_source_file_index>
317

> <i_lp_mmshare_version>
43012

> <i_f3d_flags>
0

> <s_epik_input>
W09IXVtDSDJdW0NAQEhdKFtDSDNdKVtOSF1DKD1PKVtOSF1jMVtjSF1bY0hdW2NIXW5jMU4yW0NIMl1bQ0gyXVtDSDJdW0NIMl0y

> <s_epik_cmdline>
J2VwaWtfcHl0aG9uJywgJy1waCcsICc3LjAnLCAnLXRuJywgJzgnLCAnLW1hJywgJzIwMCcsICctbWV0YWxfYmluZGluZycsICctaW1hZScsICc8aW5maWxlLm1hZT4nLCAnLW9tYWUnLCAnPG91dGZpbGUubWFlPic=

> <r_lp_tautomer_probability>
1

> <r_epik_Ionization_Penalty>
0.098371

> <r_epik_Ionization_Penalty_Charging>
0

> <r_epik_Ionization_Penalty_Neutral>
0.098371

> <r_epik_State_Penalty>
0.0879016

> <r_epik_Charging_Adjusted_Penalty>
0.0879016

> <i_epik_Tot_Q>
0

> <i_epik_Tot_abs_Q>
0

> <r_epik_Metal_State_Penalty>
0.0753294

> <b_epik_Metal_Only>
0

> <s_lp_Force_Field>
OPLS_2005

> <r_lp_Energy>
32.3253

> <b_lp_Chiralities_Consistent>
1

> <s_lp_Variant>
AV-unprocessed.smi:317-2

> <Gold.Version>
5.8.1

> <Gold.Id.Protein>
6NUR|6NUR_protein|mol2

> <Gold.PLP.Fitness>
38.9647

> <Gold.PLP.PLP>
-27.8978

> <Gold.PLP.part.hbond>
-3.8210

> <Gold.PLP.part.metal>
0.0000

> <Gold.PLP.part.buried>
0.5055

> <Gold.PLP.part.nonpolar>
-24.8617

> <Gold.PLP.part.repulsive>
0.8415

> <Gold.PLP.ligand.clash>
0.0000

> <Gold.PLP.ligand.torsion>
0.5928

> <Gold.PLP.Chemscore.Hbond>
2.9760

> <Gold.PLP.Chemscore.CHOScore>
1.0000

> <Gold.PLP.Chemscore.Metal>
0.0000

> <Gold.Chemscore.Hbonds>
donor molecule, donor type, donor heavy atom, donor atom, acceptor molecule, acceptor atom, score
      L1  H     4    26       P1  7921  1.00
      L1  H     5    27       P1  7948  1.00
      L1  H     8    28       P1  7948  0.98
      L1  C    12    31       P1  8028  1.00

> <Gold.PLP.Chemscore.Internal.Correction>
0.3244

> <Gold.Rescore>
     Score         DG    S(hbond)    S(metal)    S(lipo)     H(rot)  DE(clash)    DE(int)     intcor
     12.98     -17.37       2.84        0.00      65.92       2.08       1.54       2.85       ----

> <Gold.Chemscore.Fitness>
12.9793

> <Gold.Chemscore.DG>
-17.3713

> <Gold.Chemscore.ZeroCoef>
-5.4800

> <Gold.Chemscore.Hbond>
2.8434

> <Gold.Chemscore.Metal>
0.0000

> <Gold.Chemscore.Lipo>
65.9159

> <Gold.Chemscore.Internal_Hbond>
0.0000

> <Gold.Chemscore.DEClash>
1.5404

> <Gold.Chemscore.DEInternal>
2.8517

> <Gold.Chemscore.Rot>
2.0773

> <Gold.Chemscore.Internal.Correction>
   9.000000E+99

> <Gold.Chemscore.Hbonds>
donor molecule, donor type, donor heavy atom, donor atom, acceptor molecule, acceptor atom, score
      L1  H     4    26       P1  7921  0.94
      L1  H     5    27       P1  7948  0.91
      L1  H     8    28       P1  7948  0.93

> <Gold.Chemscore.Hbond.Weighted>
-9.4969

> <Gold.Chemscore.Metal.Weighted>
-0.0000

> <Gold.Chemscore.Lipo.Weighted>
-7.7122

> <Gold.Chemscore.Internal_Hbond.Weighted>
0.0000

> <Gold.Chemscore.DEClash.Weighted>
1.5404

> <Gold.Chemscore.DEInternal.Weighted>
2.8517

> <Gold.Chemscore.Rot.Weighted>
5.3178

> <Gold.Chemscore.Internal.Correction.Weighted>
   9.000000E+99

> <Gold.Protein.RotatedTorsions>
[ 6907 6896 6895 6894 ] final -166.85 input  -60.11 | X-H torsion
[ 7974 7965 7964 7962 ] final  101.35 input  175.53 | X-H torsion
[ 8008 7997 7996 7995 ] final  -49.04 input   59.86 | X-H torsion
[ 10167 10162 10161 10158 ] final    9.22 input  -65.29 | X-H torsion
[ 10718 10713 10712 10709 ] final  168.87 input   66.30 | X-H torsion
[ 10763 10752 10751 10750 ] final   97.39 input  -60.55 | X-H torsion
[ 11005 11000 10999 10996 ] final   42.81 input  -57.11 | X-H torsion

> <Gold.Protein.ActiveResidues>
 VAL166  LYS551  ARG553  GLY616  TRP617  ASP618  TYR619  PRO620  LYS621  CYS622 
 ASP623  PHE694  ASN695  SER759  ASP760  ASP761  ALA762  ILE779  LEU786  VAL792 
 PHE793  MET794  SER795  GLU796  ALA797  LYS798  CYS799  TRP800  GLU811  SER814 

> <Gold.Protein.RotatedAtoms>
  151.4501  133.3619  159.2793 H   0  0  0  0  0  0  0  0  0  0  0  0  # atno 6907 bound_to 6896
  150.9097  134.8514  159.7427 H   0  0  0  0  0  0  0  0  0  0  0  0  # atno 6908 bound_to 6896
  152.4925  134.4430  159.9601 H   0  0  0  0  0  0  0  0  0  0  0  0  # atno 6909 bound_to 6896
  145.3734  139.2393  143.3442 H   0  0  0  0  0  0  0  0  0  0  0  0  # atno 7974 bound_to 7965
  154.4038  140.1306  156.4438 H   0  0  0  0  0  0  0  0  0  0  0  0  # atno 8008 bound_to 7997
  155.7433  140.3489  155.5095 H   0  0  0  0  0  0  0  0  0  0  0  0  # atno 8009 bound_to 7997
  155.9019  140.1021  157.1334 H   0  0  0  0  0  0  0  0  0  0  0  0  # atno 8010 bound_to 7997
  140.6268  143.8083  150.7243 H   0  0  0  0  0  0  0  0  0  0  0  0  # atno 10167 bound_to 10162
  157.0309  131.0259  151.2745 H   0  0  0  0  0  0  0  0  0  0  0  0  # atno 10718 bound_to 10713
  153.2763  135.4185  155.1036 H   0  0  0  0  0  0  0  0  0  0  0  0  # atno 10763 bound_to 10752
  154.8474  135.3484  154.6174 H   0  0  0  0  0  0  0  0  0  0  0  0  # atno 10764 bound_to 10752
  153.6594  135.7049  153.5240 H   0  0  0  0  0  0  0  0  0  0  0  0  # atno 10765 bound_to 10752
  140.1703  134.4230  155.8261 H   0  0  0  0  0  0  0  0  0  0  0  0  # atno 11005 bound_to 11000
  146.2875  140.4390  142.8752 LP  0  0  0  0  0  0  0  0  0  0  0  0  # atno 17320 bound_to 7965
  144.8559  140.7070  143.6138 LP  0  0  0  0  0  0  0  0  0  0  0  0  # atno 17321 bound_to 7965
  140.1686  143.4214  152.2017 LP  0  0  0  0  0  0  0  0  0  0  0  0  # atno 17342 bound_to 10162
  139.5487  144.7320  151.4502 LP  0  0  0  0  0  0  0  0  0  0  0  0  # atno 17343 bound_to 10162
  157.5178  130.7979  149.7776 LP  0  0  0  0  0  0  0  0  0  0  0  0  # atno 17370 bound_to 10713
  156.0070  130.3851  150.2397 LP  0  0  0  0  0  0  0  0  0  0  0  0  # atno 17371 bound_to 10713
  141.2217  133.6953  156.7752 LP  0  0  0  0  0  0  0  0  0  0  0  0  # atno 17394 bound_to 11000
  140.2385  134.8632  157.3549 LP  0  0  0  0  0  0  0  0  0  0  0  0  # atno 17395 bound_to 11000

$$$$
