AV-unprocessed.smi:1240|AV-procd|sdf|5200|dock5
  -GOLD-   22720 4283D 1   1.00000     0.00000
 Structure written by MMmdl.
 48 50  0  0  0  0  0  0  0  0  2 V2000
  144.5012  136.4157  152.1200 O   0  0  0  0  0  0  0  0  0  0  0  0
  145.7059  136.1985  151.9902 C   0  0  0  0  0  0  0  0  0  0  0  0
  146.6549  137.0412  152.4221 N   0  0  0  0  0  0  0  0  0  0  0  0
  146.4018  138.3091  153.0973 C   0  0  0  0  0  0  0  0  0  0  0  0
  147.6910  139.1047  153.4547 C   0  0  1  0  0  0  0  0  0  0  0  0
  147.4404  140.3433  154.3618 C   0  0  2  0  0  0  0  0  0  0  0  0
  146.3575  141.3057  153.8935 C   0  0  0  0  0  0  0  0  0  0  0  0
  146.7200  142.6214  154.5821 C   0  0  0  0  0  0  0  0  0  0  0  0
  148.0907  142.5160  154.9491 O   0  0  0  0  0  0  0  0  0  0  0  0
  148.6276  141.3078  154.4341 C   0  0  0  0  0  0  0  0  0  0  0  0
  148.7306  138.2249  154.0695 N   0  3  0  0  0  0  0  0  0  0  0  0
  150.1241  138.7377  154.0371 C   0  0  0  0  0  0  0  0  0  0  0  0
  151.0924  137.6519  154.5352 C   0  0  0  0  0  0  0  0  0  0  0  0
  150.7197  137.2479  155.8476 O   0  0  0  0  0  0  0  0  0  0  0  0
  149.4131  136.6856  155.8855 C   0  0  0  0  0  0  0  0  0  0  0  0
  148.3843  137.7325  155.4254 C   0  0  0  0  0  0  0  0  0  0  0  0
  146.2473  135.1180  151.4019 N   0  0  0  0  0  0  0  0  0  0  0  0
  145.5924  133.9818  150.8541 C   0  0  0  0  0  0  0  0  0  0  0  0
  146.3974  132.9175  150.3983 C   0  0  0  0  0  0  0  0  0  0  0  0
  145.7723  131.7717  149.8671 C   0  0  0  0  0  0  0  0  0  0  0  0
  144.4330  131.6314  149.7793 N   0  0  0  0  0  0  0  0  0  0  0  0
  143.6632  132.6448  150.2294 C   0  0  0  0  0  0  0  0  0  0  0  0
  144.1864  133.8338  150.7768 C   0  0  0  0  0  0  0  0  0  0  0  0
  147.6209  136.7901  152.2691 H   0  0  0  0  0  0  0  0  0  0  0  0
  145.7669  138.8984  152.4357 H   0  0  0  0  0  0  0  0  0  0  0  0
  145.8074  138.1054  153.9885 H   0  0  0  0  0  0  0  0  0  0  0  0
  148.1258  139.4831  152.5284 H   0  0  0  0  0  0  0  0  0  0  0  0
  147.1937  140.0209  155.3742 H   0  0  0  0  0  0  0  0  0  0  0  0
  146.4054  141.4336  152.8111 H   0  0  0  0  0  0  0  0  0  0  0  0
  145.3500  140.9796  154.1516 H   0  0  0  0  0  0  0  0  0  0  0  0
  146.5557  143.4774  153.9270 H   0  0  0  0  0  0  0  0  0  0  0  0
  146.1265  142.7673  155.4852 H   0  0  0  0  0  0  0  0  0  0  0  0
  149.4347  140.9401  155.0684 H   0  0  0  0  0  0  0  0  0  0  0  0
  149.0356  141.4985  153.4402 H   0  0  0  0  0  0  0  0  0  0  0  0
  150.4004  139.0341  153.0256 H   0  0  0  0  0  0  0  0  0  0  0  0
  150.2189  139.6202  154.6709 H   0  0  0  0  0  0  0  0  0  0  0  0
  151.0947  136.7926  153.8626 H   0  0  0  0  0  0  0  0  0  0  0  0
  152.1112  138.0391  154.5608 H   0  0  0  0  0  0  0  0  0  0  0  0
  149.3702  135.7945  155.2571 H   0  0  0  0  0  0  0  0  0  0  0  0
  149.1950  136.3668  156.9050 H   0  0  0  0  0  0  0  0  0  0  0  0
  148.3609  138.5609  156.1340 H   0  0  0  0  0  0  0  0  0  0  0  0
  147.3892  137.2863  155.4202 H   0  0  0  0  0  0  0  0  0  0  0  0
  147.2508  135.1276  151.2942 H   0  0  0  0  0  0  0  0  0  0  0  0
  147.4749  132.9744  150.4477 H   0  0  0  0  0  0  0  0  0  0  0  0
  146.3655  130.9450  149.5051 H   0  0  0  0  0  0  0  0  0  0  0  0
  142.5950  132.5016  150.1581 H   0  0  0  0  0  0  0  0  0  0  0  0
  143.5055  134.5911  151.1327 H   0  0  0  0  0  0  0  0  0  0  0  0
  148.7358  137.3963  153.4918 H   0  0  0  0  0  0  0  0  0  0  0  0
  1  2  2  0  0  0  0
  2  3  1  0  0  0  0
  2 17  1  0  0  0  0
  3  4  1  0  0  0  0
  3 24  1  0  0  0  0
  4  5  1  0  0  0  0
  4 25  1  0  0  0  0
  4 26  1  0  0  0  0
  5  6  1  0  0  0  0
  5 11  1  0  0  0  0
  5 27  1  0  0  0  0
  6 10  1  0  0  0  0
  6  7  1  0  0  0  0
  6 28  1  0  0  0  0
  7  8  1  0  0  0  0
  7 29  1  0  0  0  0
  7 30  1  0  0  0  0
  8  9  1  0  0  0  0
  8 31  1  0  0  0  0
  8 32  1  0  0  0  0
  9 10  1  0  0  0  0
 10 33  1  0  0  0  0
 10 34  1  0  0  0  0
 11 16  1  0  0  0  0
 11 12  1  0  0  0  0
 11 48  1  0  0  0  0
 12 13  1  0  0  0  0
 12 35  1  0  0  0  0
 12 36  1  0  0  0  0
 13 14  1  0  0  0  0
 13 37  1  0  0  0  0
 13 38  1  0  0  0  0
 14 15  1  0  0  0  0
 15 16  1  0  0  0  0
 15 39  1  0  0  0  0
 15 40  1  0  0  0  0
 16 41  1  0  0  0  0
 16 42  1  0  0  0  0
 17 18  1  0  0  0  0
 17 43  1  0  0  0  0
 18 23  1  0  0  0  0
 18 19  2  0  0  0  0
 19 20  1  0  0  0  0
 19 44  1  0  0  0  0
 20 21  2  0  0  0  0
 20 45  1  0  0  0  0
 21 22  1  0  0  0  0
 22 23  2  0  0  0  0
 22 46  1  0  0  0  0
 23 47  1  0  0  0  0
M  CHG  1  11   1
M  END
> <s_m_source_file>
AV-unprocessed.smi

> <i_m_source_file_index>
1240

> <i_lp_mmshare_version>
43012

> <i_f3d_flags>
0

> <s_epik_input>
W2NIXTFbY0hdbltjSF1bY0hdYzFbTkhdQyg9TylbTkhdW0NIMl1bQ0BIXShbQ0BASF0yW0NIMl1bQ0gyXU9bQ0gyXTIpTjNbQ0gyXVtDSDJdT1tDSDJdW0NIMl0z

> <s_epik_cmdline>
J2VwaWtfcHl0aG9uJywgJy1waCcsICc3LjAnLCAnLXRuJywgJzgnLCAnLW1hJywgJzIwMCcsICctbWV0YWxfYmluZGluZycsICctaW1hZScsICc8aW5maWxlLm1hZT4nLCAnLW9tYWUnLCAnPG91dGZpbGUubWFlPic=

> <r_epik_Ionization_Penalty>
1.08433

> <r_epik_Ionization_Penalty_Charging>
0.98326

> <r_epik_Ionization_Penalty_Neutral>
0.10107

> <r_epik_State_Penalty>
1.11265

> <r_epik_Charging_Adjusted_Penalty>
2.09591

> <i_epik_Tot_Q>
1

> <i_epik_Tot_abs_Q>
1

> <r_epik_Metal_State_Penalty>
1.10731

> <b_epik_Metal_Only>
0

> <s_lp_Force_Field>
OPLS_2005

> <r_lp_Energy>
42.8142

> <b_lp_Chiralities_Consistent>
1

> <s_lp_Variant>
AV-unprocessed.smi:1240-6

> <Gold.Version>
5.8.1

> <Gold.Id.Protein>
6NUR|6NUR_protein|mol2

> <Gold.PLP.Fitness>
49.5830

> <Gold.PLP.PLP>
-33.1787

> <Gold.PLP.part.hbond>
-3.8580

> <Gold.PLP.part.metal>
0.0000

> <Gold.PLP.part.buried>
-3.2491

> <Gold.PLP.part.nonpolar>
-32.7807

> <Gold.PLP.part.repulsive>
5.0759

> <Gold.PLP.ligand.clash>
0.0000

> <Gold.PLP.ligand.torsion>
0.3090

> <Gold.PLP.Chemscore.Hbond>
4.0730

> <Gold.PLP.Chemscore.CHOScore>
1.5142

> <Gold.PLP.Chemscore.Metal>
0.0000

> <Gold.Chemscore.Hbonds>
donor molecule, donor type, donor heavy atom, donor atom, acceptor molecule, acceptor atom, score
      L1  H     3    24       P1  7948  0.89
      L1  H    11    48       P1  7948  2.00
      L1  H    17    43       P1  7948  0.81
      P1  H 10785 10796       L1    21  0.32
      L1  C    20    45       P1 10747  0.44
      L1  C    22    46       P1 10186  0.79
      L1  C    22    46       P1 10952  0.22

> <Gold.PLP.Chemscore.Internal.Correction>
0.2608

> <Gold.Rescore>
     Score         DG    S(hbond)    S(metal)    S(lipo)     H(rot)  DE(clash)    DE(int)     intcor
     17.98     -22.35       2.82        0.00     100.88       1.70       1.82       2.55       ----

> <Gold.Chemscore.Fitness>
17.9808

> <Gold.Chemscore.DG>
-22.3516

> <Gold.Chemscore.ZeroCoef>
-5.4800

> <Gold.Chemscore.Hbond>
2.8221

> <Gold.Chemscore.Metal>
0.0000

> <Gold.Chemscore.Lipo>
100.8812

> <Gold.Chemscore.Internal_Hbond>
0.0000

> <Gold.Chemscore.DEClash>
1.8229

> <Gold.Chemscore.DEInternal>
2.5479

> <Gold.Chemscore.Rot>
1.7021

> <Gold.Chemscore.Internal.Correction>
   9.000000E+99

> <Gold.Chemscore.Hbonds>
donor molecule, donor type, donor heavy atom, donor atom, acceptor molecule, acceptor atom, score
      L1  H     3    24       P1  7948  0.87
      L1  H    11    48       P1  7948  0.95
      L1  H    17    43       P1  7948  0.53
      P1  H 10785 10796       L1    21  0.26

> <Gold.Chemscore.Hbond.Weighted>
-9.4260

> <Gold.Chemscore.Metal.Weighted>
-0.0000

> <Gold.Chemscore.Lipo.Weighted>
-11.8031

> <Gold.Chemscore.Internal_Hbond.Weighted>
0.0000

> <Gold.Chemscore.DEClash.Weighted>
1.8229

> <Gold.Chemscore.DEInternal.Weighted>
2.5479

> <Gold.Chemscore.Rot.Weighted>
4.3575

> <Gold.Chemscore.Internal.Correction.Weighted>
   9.000000E+99

> <Gold.Protein.RotatedTorsions>
[ 6907 6896 6895 6894 ] final  -57.66 input  -60.11 | X-H torsion
[ 7974 7965 7964 7962 ] final   18.23 input  175.53 | X-H torsion
[ 8008 7997 7996 7995 ] final   19.28 input   59.86 | X-H torsion
[ 10167 10162 10161 10158 ] final  105.07 input  -65.29 | X-H torsion
[ 10718 10713 10712 10709 ] final   -1.44 input   66.30 | X-H torsion
[ 10763 10752 10751 10750 ] final   -0.12 input  -60.55 | X-H torsion
[ 11005 11000 10999 10996 ] final   63.60 input  -57.11 | X-H torsion

> <Gold.Protein.ActiveResidues>
 VAL166  LYS551  ARG553  GLY616  TRP617  ASP618  TYR619  PRO620  LYS621  CYS622 
 ASP623  PHE694  ASN695  SER759  ASP760  ASP761  ALA762  ILE779  LEU786  VAL792 
 PHE793  MET794  SER795  GLU796  ALA797  LYS798  CYS799  TRP800  GLU811  SER814 

> <Gold.Protein.RotatedAtoms>
  150.8068  134.7198  159.6651 H   0  0  0  0  0  0  0  0  0  0  0  0  # atno 6907 bound_to 6896
  152.4188  134.5990  160.0004 H   0  0  0  0  0  0  0  0  0  0  0  0  # atno 6908 bound_to 6896
  151.6211  133.3302  159.3124 H   0  0  0  0  0  0  0  0  0  0  0  0  # atno 6909 bound_to 6896
  146.2192  139.8487  142.8627 H   0  0  0  0  0  0  0  0  0  0  0  0  # atno 7974 bound_to 7965
  154.9185  140.3024  155.5229 H   0  0  0  0  0  0  0  0  0  0  0  0  # atno 8008 bound_to 7997
  156.3011  140.2376  156.4168 H   0  0  0  0  0  0  0  0  0  0  0  0  # atno 8009 bound_to 7997
  154.8355  140.0416  157.1494 H   0  0  0  0  0  0  0  0  0  0  0  0  # atno 8010 bound_to 7997
  139.7124  144.7075  151.1006 H   0  0  0  0  0  0  0  0  0  0  0  0  # atno 10167 bound_to 10162
  156.8055  130.5407  149.5716 H   0  0  0  0  0  0  0  0  0  0  0  0  # atno 10718 bound_to 10713
  153.3278  135.6973  153.6974 H   0  0  0  0  0  0  0  0  0  0  0  0  # atno 10763 bound_to 10752
  153.5788  135.3502  155.2867 H   0  0  0  0  0  0  0  0  0  0  0  0  # atno 10764 bound_to 10752
  154.8611  135.4290  154.2459 H   0  0  0  0  0  0  0  0  0  0  0  0  # atno 10765 bound_to 10752
  140.0014  134.6437  155.9925 H   0  0  0  0  0  0  0  0  0  0  0  0  # atno 11005 bound_to 11000
  145.2824  141.0142  143.3710 LP  0  0  0  0  0  0  0  0  0  0  0  0  # atno 17320 bound_to 7965
  144.9140  139.4494  143.6573 LP  0  0  0  0  0  0  0  0  0  0  0  0  # atno 17321 bound_to 7965
  140.7736  143.5276  150.9462 LP  0  0  0  0  0  0  0  0  0  0  0  0  # atno 17342 bound_to 10162
  139.8961  143.6893  152.3138 LP  0  0  0  0  0  0  0  0  0  0  0  0  # atno 17343 bound_to 10162
  156.1075  130.6015  150.9994 LP  0  0  0  0  0  0  0  0  0  0  0  0  # atno 17370 bound_to 10713
  157.6532  131.0893  150.8005 LP  0  0  0  0  0  0  0  0  0  0  0  0  # atno 17371 bound_to 10713
  141.1644  133.6537  156.4430 LP  0  0  0  0  0  0  0  0  0  0  0  0  # atno 17394 bound_to 11000
  140.4721  134.6743  157.5134 LP  0  0  0  0  0  0  0  0  0  0  0  0  # atno 17395 bound_to 11000

$$$$
