AV-unprocessed.smi:6|AV-procd|sdf|41|dock4
  -GOLD-   2262015153D 1   1.00000     0.00000
 Structure written by MMmdl.
 36 37  0  0  0  0  0  0  0  0  2 V2000
  143.2883  137.2128  155.3636 C   0  0  0  0  0  0  0  0  0  0  0  0
  142.8373  137.2839  153.8962 C   0  0  0  0  0  0  0  0  0  0  0  0
  141.6331  136.3790  153.5932 C   0  0  0  0  0  0  0  0  0  0  0  0
  143.9912  137.0385  152.9322 C   0  0  0  0  0  0  0  0  0  0  0  0
  143.8239  136.0717  152.0237 N   0  0  0  0  0  0  0  0  0  0  0  0
  144.8475  135.8522  151.1707 C   0  0  0  0  0  0  0  0  0  0  0  0
  146.0387  136.6026  151.2302 C   0  0  0  0  0  0  0  0  0  0  0  0
  146.1102  137.5955  152.2289 C   0  0  0  0  0  0  0  0  0  0  0  0
  147.2657  138.3812  152.3351 N   0  0  0  0  0  0  0  0  0  0  0  0
  147.3908  139.3251  153.4388 C   0  0  0  0  0  0  0  0  0  0  0  0
  148.7752  139.3219  154.0690 C   0  0  0  0  0  0  0  0  0  0  0  0
  149.4198  138.1784  154.3821 C   0  0  0  0  0  0  0  0  0  0  0  0
  150.7088  138.1698  154.9394 N   0  0  0  0  0  0  0  0  0  0  0  0
  151.3216  136.8767  155.2530 C   0  0  0  0  0  0  0  0  0  0  0  0
  151.3630  139.3427  155.1733 C   0  0  0  0  0  0  0  0  0  0  0  0
  152.4933  139.3047  155.6612 O   0  0  0  0  0  0  0  0  0  0  0  0
  150.7378  140.5171  154.8556 N   0  5  0  0  0  0  0  0  0  0  0  0
  149.4864  140.5823  154.3130 C   0  0  0  0  0  0  0  0  0  0  0  0
  148.9492  141.6526  154.0291 O   0  0  0  0  0  0  0  0  0  0  0  0
  145.0761  137.8079  153.0770 N   0  0  0  0  0  0  0  0  0  0  0  0
  144.0925  137.9221  155.5609 H   0  0  0  0  0  0  0  0  0  0  0  0
  143.6510  136.2171  155.6215 H   0  0  0  0  0  0  0  0  0  0  0  0
  142.4655  137.4500  156.0381 H   0  0  0  0  0  0  0  0  0  0  0  0
  142.4956  138.3079  153.7344 H   0  0  0  0  0  0  0  0  0  0  0  0
  141.2943  136.5104  152.5653 H   0  0  0  0  0  0  0  0  0  0  0  0
  140.7938  136.6097  154.2498 H   0  0  0  0  0  0  0  0  0  0  0  0
  141.8811  135.3260  153.7305 H   0  0  0  0  0  0  0  0  0  0  0  0
  144.7152  135.0733  150.4345 H   0  0  0  0  0  0  0  0  0  0  0  0
  146.8533  136.4231  150.5441 H   0  0  0  0  0  0  0  0  0  0  0  0
  148.1223  138.0013  151.9579 H   0  0  0  0  0  0  0  0  0  0  0  0
  147.1747  140.3322  153.0796 H   0  0  0  0  0  0  0  0  0  0  0  0
  146.6473  139.0926  154.2024 H   0  0  0  0  0  0  0  0  0  0  0  0
  148.9854  137.2023  154.2237 H   0  0  0  0  0  0  0  0  0  0  0  0
  151.5587  136.8147  156.3160 H   0  0  0  0  0  0  0  0  0  0  0  0
  152.2469  136.7466  154.6899 H   0  0  0  0  0  0  0  0  0  0  0  0
  150.6715  136.0347  155.0138 H   0  0  0  0  0  0  0  0  0  0  0  0
  1  2  1  0  0  0  0
  1 21  1  0  0  0  0
  1 22  1  0  0  0  0
  1 23  1  0  0  0  0
  2  3  1  0  0  0  0
  2  4  1  0  0  0  0
  2 24  1  0  0  0  0
  3 25  1  0  0  0  0
  3 26  1  0  0  0  0
  3 27  1  0  0  0  0
  4 20  1  0  0  0  0
  4  5  2  0  0  0  0
  5  6  1  0  0  0  0
  6  7  2  0  0  0  0
  6 28  1  0  0  0  0
  7  8  1  0  0  0  0
  7 29  1  0  0  0  0
  8  9  1  0  0  0  0
  8 20  2  0  0  0  0
  9 10  1  0  0  0  0
  9 30  1  0  0  0  0
 10 11  1  0  0  0  0
 10 31  1  0  0  0  0
 10 32  1  0  0  0  0
 11 18  1  0  0  0  0
 11 12  2  0  0  0  0
 12 13  1  0  0  0  0
 12 33  1  0  0  0  0
 13 14  1  0  0  0  0
 13 15  1  0  0  0  0
 14 34  1  0  0  0  0
 14 35  1  0  0  0  0
 14 36  1  0  0  0  0
 15 16  2  0  0  0  0
 15 17  1  0  0  0  0
 17 18  1  0  0  0  0
 18 19  2  0  0  0  0
M  CHG  1  17  -1
M  END
> <s_m_source_file>
AV-unprocessed.smi

> <i_m_source_file_index>
6

> <i_lp_mmshare_version>
43012

> <i_f3d_flags>
0

> <s_epik_input>
W0NIM11bQ0hdKFtDSDNdKWMxbltjSF1bY0hdYyhuMSlbTkhdW0NIMl1jMltjSF1uKFtDSDNdKWMoPU8pW25IXWMyPU8=

> <s_epik_cmdline>
J2VwaWtfcHl0aG9uJywgJy1waCcsICc3LjAnLCAnLXRuJywgJzgnLCAnLW1hJywgJzIwMCcsICctbWV0YWxfYmluZGluZycsICctaW1hZScsICc8aW5maWxlLm1hZT4nLCAnLW9tYWUnLCAnPG91dGZpbGUubWFlPic=

> <r_lp_tautomer_probability>
0.999537

> <r_epik_Ionization_Penalty>
4.10508

> <r_epik_Ionization_Penalty_Charging>
6.01221e-07

> <r_epik_Ionization_Penalty_Neutral>
4.10508

> <r_epik_State_Penalty>
4.24889

> <r_epik_Charging_Adjusted_Penalty>
4.24889

> <i_epik_Tot_Q>
-1

> <i_epik_Tot_abs_Q>
1

> <r_epik_Metal_State_Penalty>
1.04429

> <b_epik_Metal_Only>
1

> <s_lp_Force_Field>
OPLS_2005

> <r_lp_Energy>
13.2658

> <b_lp_Chiralities_Consistent>
1

> <s_lp_Variant>
AV-unprocessed.smi:6-3

> <Gold.Version>
5.8.1

> <Gold.Id.Protein>
6NUR|6NUR_protein|mol2

> <Gold.PLP.Fitness>
41.0787

> <Gold.PLP.PLP>
-30.4831

> <Gold.PLP.part.hbond>
-4.7100

> <Gold.PLP.part.metal>
0.0000

> <Gold.PLP.part.buried>
1.6229

> <Gold.PLP.part.nonpolar>
-27.8027

> <Gold.PLP.part.repulsive>
1.2224

> <Gold.PLP.ligand.clash>
0.0000

> <Gold.PLP.ligand.torsion>
0.3029

> <Gold.PLP.Chemscore.Hbond>
2.9937

> <Gold.PLP.Chemscore.CHOScore>
0.7138

> <Gold.PLP.Chemscore.Metal>
0.0000

> <Gold.Chemscore.Hbonds>
donor molecule, donor type, donor heavy atom, donor atom, acceptor molecule, acceptor atom, score
      L1  H     9    30       P1  7948  0.75
      P1  H  7989  7998       L1    17  0.86
      P1  H  7997  8010       L1    16  0.81
      P1  H  8011  8017       L1    19  0.59
      L1  C    12    33       P1  7948  0.75

> <Gold.PLP.Chemscore.Internal.Correction>
0.0790

> <Gold.Rescore>
     Score         DG    S(hbond)    S(metal)    S(lipo)     H(rot)  DE(clash)    DE(int)     intcor
     12.69     -14.02       2.23        0.00      44.76       1.62       1.13       0.20       ----

> <Gold.Chemscore.Fitness>
12.6888

> <Gold.Chemscore.DG>
-14.0170

> <Gold.Chemscore.ZeroCoef>
-5.4800

> <Gold.Chemscore.Hbond>
2.2295

> <Gold.Chemscore.Metal>
0.0000

> <Gold.Chemscore.Lipo>
44.7591

> <Gold.Chemscore.Internal_Hbond>
0.0000

> <Gold.Chemscore.DEClash>
1.1332

> <Gold.Chemscore.DEInternal>
0.1950

> <Gold.Chemscore.Rot>
1.6196

> <Gold.Chemscore.Internal.Correction>
   9.000000E+99

> <Gold.Chemscore.Hbonds>
donor molecule, donor type, donor heavy atom, donor atom, acceptor molecule, acceptor atom, score
      L1  H     9    30       P1  7948  0.74
      P1  H  7989  7998       L1    17  0.04
      P1  H  7997  8010       L1    16  0.80
      P1  H  8011  8017       L1    19  0.41

> <Gold.Chemscore.Hbond.Weighted>
-7.4465

> <Gold.Chemscore.Metal.Weighted>
-0.0000

> <Gold.Chemscore.Lipo.Weighted>
-5.2368

> <Gold.Chemscore.Internal_Hbond.Weighted>
0.0000

> <Gold.Chemscore.DEClash.Weighted>
1.1332

> <Gold.Chemscore.DEInternal.Weighted>
0.1950

> <Gold.Chemscore.Rot.Weighted>
4.1463

> <Gold.Chemscore.Internal.Correction.Weighted>
   9.000000E+99

> <Gold.Protein.RotatedTorsions>
[ 6907 6896 6895 6894 ] final -120.19 input  -60.11 | X-H torsion
[ 7974 7965 7964 7962 ] final -165.97 input  175.53 | X-H torsion
[ 8008 7997 7996 7995 ] final   84.24 input   59.86 | X-H torsion
[ 10167 10162 10161 10158 ] final  -99.01 input  -65.29 | X-H torsion
[ 10718 10713 10712 10709 ] final   75.44 input   66.30 | X-H torsion
[ 10763 10752 10751 10750 ] final  126.66 input  -60.55 | X-H torsion
[ 11005 11000 10999 10996 ] final  -78.62 input  -57.11 | X-H torsion

> <Gold.Protein.ActiveResidues>
 VAL166  LYS551  ARG553  GLY616  TRP617  ASP618  TYR619  PRO620  LYS621  CYS622 
 ASP623  PHE694  ASN695  SER759  ASP760  ASP761  ALA762  ILE779  LEU786  VAL792 
 PHE793  MET794  SER795  GLU796  ALA797  LYS798  CYS799  TRP800  GLU811  SER814 

> <Gold.Protein.RotatedAtoms>
  150.8371  133.7996  159.3075 H   0  0  0  0  0  0  0  0  0  0  0  0  # atno 6907 bound_to 6896
  151.5709  135.1061  160.0004 H   0  0  0  0  0  0  0  0  0  0  0  0  # atno 6908 bound_to 6896
  152.4441  133.7461  159.6724 H   0  0  0  0  0  0  0  0  0  0  0  0  # atno 6909 bound_to 6896
  144.7257  140.2736  143.6247 H   0  0  0  0  0  0  0  0  0  0  0  0  # atno 7974 bound_to 7965
  155.9345  140.3412  155.6276 H   0  0  0  0  0  0  0  0  0  0  0  0  # atno 8008 bound_to 7997
  155.7116  140.0772  157.2387 H   0  0  0  0  0  0  0  0  0  0  0  0  # atno 8009 bound_to 7997
  154.4091  140.1621  156.2290 H   0  0  0  0  0  0  0  0  0  0  0  0  # atno 8010 bound_to 7997
  140.2669  143.3370  152.0572 H   0  0  0  0  0  0  0  0  0  0  0  0  # atno 10167 bound_to 10162
  157.6634  130.9726  150.1354 H   0  0  0  0  0  0  0  0  0  0  0  0  # atno 10718 bound_to 10713
  153.6970  135.3289  155.3215 H   0  0  0  0  0  0  0  0  0  0  0  0  # atno 10763 bound_to 10752
  154.8424  135.4445  154.1450 H   0  0  0  0  0  0  0  0  0  0  0  0  # atno 10764 bound_to 10752
  153.2507  135.6981  153.7760 H   0  0  0  0  0  0  0  0  0  0  0  0  # atno 10765 bound_to 10752
  141.1665  133.7071  156.7999 H   0  0  0  0  0  0  0  0  0  0  0  0  # atno 11005 bound_to 11000
  145.8019  139.1967  143.2043 LP  0  0  0  0  0  0  0  0  0  0  0  0  # atno 17320 bound_to 7965
  146.0669  140.7910  142.9707 LP  0  0  0  0  0  0  0  0  0  0  0  0  # atno 17321 bound_to 7965
  139.5000  144.6682  151.6306 LP  0  0  0  0  0  0  0  0  0  0  0  0  # atno 17342 bound_to 10162
  140.5921  143.9761  150.6331 LP  0  0  0  0  0  0  0  0  0  0  0  0  # atno 17343 bound_to 10162
  156.2190  130.3672  149.8578 LP  0  0  0  0  0  0  0  0  0  0  0  0  # atno 17370 bound_to 10713
  156.6436  130.8715  151.3518 LP  0  0  0  0  0  0  0  0  0  0  0  0  # atno 17371 bound_to 10713
  140.2264  134.8719  157.3431 LP  0  0  0  0  0  0  0  0  0  0  0  0  # atno 17394 bound_to 11000
  140.1936  134.4341  155.7702 LP  0  0  0  0  0  0  0  0  0  0  0  0  # atno 17395 bound_to 11000

$$$$
