AV-unprocessed.smi:1662|AV-procd|sdf|6663|dock2
  -GOLD-   22720 7373D 1   1.00000     0.00000
 Structure written by MMmdl.
 47 48  0  0  0  0  0  0  0  0  1 V2000
  146.4426  138.3090  157.8985 C   0  0  0  0  0  0  0  0  0  0  0  0
  147.0079  139.2575  156.8758 C   0  0  0  0  0  0  0  0  0  0  0  0
  148.1906  138.9910  156.4280 N   0  0  0  0  0  0  0  0  0  0  0  0
  148.8039  139.7989  155.4900 N   0  0  0  0  0  0  0  0  0  0  0  0
  150.1572  139.3612  155.1170 C   0  0  0  0  0  0  0  0  0  0  0  0
  151.2744  140.1977  155.7585 C   0  0  0  0  0  0  0  0  0  0  0  0
  152.2785  140.5155  155.1188 O   0  0  0  0  0  0  0  0  0  0  0  0
  151.0706  140.5621  157.0336 N   0  0  0  0  0  0  0  0  0  0  0  0
  151.9874  141.3621  157.8432 C   0  0  2  0  0  0  0  0  0  0  0  0
  152.3998  140.5702  159.0994 C   0  0  0  0  0  0  0  0  0  0  0  0
  153.3947  141.3648  159.9588 C   0  0  0  0  0  0  0  0  0  0  0  0
  152.8456  142.7535  160.3217 C   0  0  0  0  0  0  0  0  0  0  0  0
  152.4276  143.5416  159.0638 C   0  0  2  0  0  0  0  0  0  0  0  0
  151.9747  144.9698  159.4096 C   0  0  0  0  0  0  0  0  0  0  0  0
  151.3982  142.7527  158.2106 C   0  0  2  0  0  0  0  0  0  0  0  0
  149.9949  142.6689  158.8555 C   0  0  0  0  0  0  0  0  0  0  0  0
  148.2438  140.9160  154.9422 C   0  0  0  0  0  0  0  0  0  0  0  0
  148.8235  141.6024  154.0992 O   0  0  0  0  0  0  0  0  0  0  0  0
  146.9041  141.2123  155.4549 C   0  0  0  0  0  0  0  0  0  0  0  0
  146.2836  142.3778  154.9126 C   0  0  0  0  0  0  0  0  0  0  0  0
  145.7748  143.3289  154.4922 N   0  0  0  0  0  0  0  0  0  0  0  0
  146.2959  140.4323  156.3836 C   0  0  0  0  0  0  0  0  0  0  0  0
  144.9080  140.6972  156.9504 C   0  0  0  0  0  0  0  0  0  0  0  0
  145.4868  137.9036  157.5662 H   0  0  0  0  0  0  0  0  0  0  0  0
  146.2839  138.8168  158.8500 H   0  0  0  0  0  0  0  0  0  0  0  0
  147.1092  137.4652  158.0830 H   0  0  0  0  0  0  0  0  0  0  0  0
  150.3066  138.3195  155.4074 H   0  0  0  0  0  0  0  0  0  0  0  0
  150.2723  139.3800  154.0314 H   0  0  0  0  0  0  0  0  0  0  0  0
  150.2160  140.2623  157.4800 H   0  0  0  0  0  0  0  0  0  0  0  0
  152.8928  141.5223  157.2540 H   0  0  0  0  0  0  0  0  0  0  0  0
  151.5209  140.3190  159.6939 H   0  0  0  0  0  0  0  0  0  0  0  0
  152.8522  139.6211  158.8091 H   0  0  0  0  0  0  0  0  0  0  0  0
  153.6291  140.8085  160.8668 H   0  0  0  0  0  0  0  0  0  0  0  0
  154.3339  141.4769  159.4157 H   0  0  0  0  0  0  0  0  0  0  0  0
  151.9982  142.6494  160.9998 H   0  0  0  0  0  0  0  0  0  0  0  0
  153.6069  143.3085  160.8711 H   0  0  0  0  0  0  0  0  0  0  0  0
  153.3226  143.6522  158.4491 H   0  0  0  0  0  0  0  0  0  0  0  0
  151.1407  144.9725  160.1114 H   0  0  0  0  0  0  0  0  0  0  0  0
  151.6657  145.5125  158.5160 H   0  0  0  0  0  0  0  0  0  0  0  0
  152.7872  145.5328  159.8701 H   0  0  0  0  0  0  0  0  0  0  0  0
  151.2711  143.3060  157.2790 H   0  0  0  0  0  0  0  0  0  0  0  0
  150.0141  142.1571  159.8170 H   0  0  0  0  0  0  0  0  0  0  0  0
  149.2906  142.1376  158.2157 H   0  0  0  0  0  0  0  0  0  0  0  0
  149.5710  143.6593  159.0175 H   0  0  0  0  0  0  0  0  0  0  0  0
  144.4701  141.6149  156.5593 H   0  0  0  0  0  0  0  0  0  0  0  0
  144.9494  140.7929  158.0359 H   0  0  0  0  0  0  0  0  0  0  0  0
  144.2317  139.8787  156.7022 H   0  0  0  0  0  0  0  0  0  0  0  0
  1  2  1  0  0  0  0
  1 24  1  0  0  0  0
  1 25  1  0  0  0  0
  1 26  1  0  0  0  0
  2 22  1  0  0  0  0
  2  3  2  0  0  0  0
  3  4  1  0  0  0  0
  4  5  1  0  0  0  0
  4 17  1  0  0  0  0
  5  6  1  0  0  0  0
  5 27  1  0  0  0  0
  5 28  1  0  0  0  0
  6  7  2  0  0  0  0
  6  8  1  0  0  0  0
  8  9  1  0  0  0  0
  8 29  1  0  0  0  0
  9 15  1  0  0  0  0
  9 10  1  0  0  0  0
  9 30  1  0  0  0  0
 10 11  1  0  0  0  0
 10 31  1  0  0  0  0
 10 32  1  0  0  0  0
 11 12  1  0  0  0  0
 11 33  1  0  0  0  0
 11 34  1  0  0  0  0
 12 13  1  0  0  0  0
 12 35  1  0  0  0  0
 12 36  1  0  0  0  0
 13 14  1  0  0  0  0
 13 15  1  0  0  0  0
 13 37  1  0  0  0  0
 14 38  1  0  0  0  0
 14 39  1  0  0  0  0
 14 40  1  0  0  0  0
 15 16  1  0  0  0  0
 15 41  1  0  0  0  0
 16 42  1  0  0  0  0
 16 43  1  0  0  0  0
 16 44  1  0  0  0  0
 17 18  2  0  0  0  0
 17 19  1  0  0  0  0
 19 20  1  0  0  0  0
 19 22  2  0  0  0  0
 20 21  3  0  0  0  0
 22 23  1  0  0  0  0
 23 45  1  0  0  0  0
 23 46  1  0  0  0  0
 23 47  1  0  0  0  0
M  END
> <s_m_source_file>
AV-unprocessed.smi

> <i_m_source_file_index>
1662

> <i_lp_mmshare_version>
43012

> <i_f3d_flags>
0

> <s_epik_input>
TiNDYyhjMVtDSDNdKWMoPU8pbihuYzFbQ0gzXSlbQ0gyXUMoPU8pW05IXVtDQEBIXTJbQ0gyXVtDSDJdW0NIMl1bQ0BASF0oW0NIM10pW0NASF0yW0NIM10=

> <s_epik_cmdline>
J2VwaWtfcHl0aG9uJywgJy1waCcsICc3LjAnLCAnLXRuJywgJzgnLCAnLW1hJywgJzIwMCcsICctbWV0YWxfYmluZGluZycsICctaW1hZScsICc8aW5maWxlLm1hZT4nLCAnLW9tYWUnLCAnPG91dGZpbGUubWFlPic=

> <r_lp_tautomer_probability>
1

> <r_epik_Ionization_Penalty>
1.90709e-08

> <r_epik_Ionization_Penalty_Charging>
2.37982e-11

> <r_epik_Ionization_Penalty_Neutral>
1.90471e-08

> <r_epik_State_Penalty>
-0

> <r_epik_Charging_Adjusted_Penalty>
2.37982e-11

> <i_epik_Tot_Q>
0

> <i_epik_Tot_abs_Q>
0

> <r_epik_Metal_State_Penalty>
-0

> <b_epik_Metal_Only>
0

> <s_lp_Force_Field>
OPLS_2005

> <r_lp_Energy>
29.1366

> <b_lp_Chiralities_Consistent>
1

> <s_lp_Variant>
AV-unprocessed.smi:1662-7

> <Gold.Version>
5.8.1

> <Gold.Id.Protein>
6NUR|6NUR_protein|mol2

> <Gold.PLP.Fitness>
46.8189

> <Gold.PLP.PLP>
-41.5265

> <Gold.PLP.part.hbond>
-4.8811

> <Gold.PLP.part.metal>
0.0000

> <Gold.PLP.part.buried>
-3.9951

> <Gold.PLP.part.nonpolar>
-33.9334

> <Gold.PLP.part.repulsive>
1.2000

> <Gold.PLP.ligand.clash>
0.0000

> <Gold.PLP.ligand.torsion>
0.5161

> <Gold.PLP.Chemscore.Hbond>
2.1026

> <Gold.PLP.Chemscore.CHOScore>
0.0000

> <Gold.PLP.Chemscore.Metal>
0.0000

> <Gold.Chemscore.Hbonds>
donor molecule, donor type, donor heavy atom, donor atom, acceptor molecule, acceptor atom, score
      P1  H  7989  7998       L1     7  0.51
      P1  H  7997  8010       L1     7  0.29
      P1  H  8011  8017       L1    18  0.40

> <Gold.PLP.Chemscore.Internal.Correction>
0.0167

> <Gold.Rescore>
     Score         DG    S(hbond)    S(metal)    S(lipo)     H(rot)  DE(clash)    DE(int)     intcor
     17.35     -18.57       1.77        0.00      93.06       1.45       0.77       0.45       ----

> <Gold.Chemscore.Fitness>
17.3468

> <Gold.Chemscore.DG>
-18.5688

> <Gold.Chemscore.ZeroCoef>
-5.4800

> <Gold.Chemscore.Hbond>
1.7706

> <Gold.Chemscore.Metal>
0.0000

> <Gold.Chemscore.Lipo>
93.0602

> <Gold.Chemscore.Internal_Hbond>
0.0000

> <Gold.Chemscore.DEClash>
0.7739

> <Gold.Chemscore.DEInternal>
0.4480

> <Gold.Chemscore.Rot>
1.4504

> <Gold.Chemscore.Internal.Correction>
   9.000000E+99

> <Gold.Chemscore.Hbonds>
donor molecule, donor type, donor heavy atom, donor atom, acceptor molecule, acceptor atom, score
      P1  H  7989  7998       L1     7  0.26
      P1  H  7997  8010       L1     7  0.28
      P1  H  8011  8017       L1    18  0.39

> <Gold.Chemscore.Hbond.Weighted>
-5.9137

> <Gold.Chemscore.Metal.Weighted>
-0.0000

> <Gold.Chemscore.Lipo.Weighted>
-10.8880

> <Gold.Chemscore.Internal_Hbond.Weighted>
0.0000

> <Gold.Chemscore.DEClash.Weighted>
0.7739

> <Gold.Chemscore.DEInternal.Weighted>
0.4480

> <Gold.Chemscore.Rot.Weighted>
3.7129

> <Gold.Chemscore.Internal.Correction.Weighted>
   9.000000E+99

> <Gold.Protein.RotatedTorsions>
[ 6907 6896 6895 6894 ] final    3.85 input  -60.11 | X-H torsion
[ 7974 7965 7964 7962 ] final -125.63 input  175.53 | X-H torsion
[ 8008 7997 7996 7995 ] final   96.23 input   59.86 | X-H torsion
[ 10167 10162 10161 10158 ] final -120.60 input  -65.29 | X-H torsion
[ 10718 10713 10712 10709 ] final  151.52 input   66.30 | X-H torsion
[ 10763 10752 10751 10750 ] final   66.15 input  -60.55 | X-H torsion
[ 11005 11000 10999 10996 ] final  103.95 input  -57.11 | X-H torsion

> <Gold.Protein.ActiveResidues>
 VAL166  LYS551  ARG553  GLY616  TRP617  ASP618  TYR619  PRO620  LYS621  CYS622 
 ASP623  PHE694  ASN695  SER759  ASP760  ASP761  ALA762  ILE779  LEU786  VAL792 
 PHE793  MET794  SER795  GLU796  ALA797  LYS798  CYS799  TRP800  GLU811  SER814 

> <Gold.Protein.RotatedAtoms>
  151.6318  135.1022  160.0122 H   0  0  0  0  0  0  0  0  0  0  0  0  # atno 6907 bound_to 6896
  152.4102  133.6947  159.6400 H   0  0  0  0  0  0  0  0  0  0  0  0  # atno 6908 bound_to 6896
  150.7993  133.8554  159.3258 H   0  0  0  0  0  0  0  0  0  0  0  0  # atno 6909 bound_to 6896
  144.9956  140.7773  143.4527 H   0  0  0  0  0  0  0  0  0  0  0  0  # atno 7974 bound_to 7965
  156.0773  140.3275  155.7650 H   0  0  0  0  0  0  0  0  0  0  0  0  # atno 8008 bound_to 7997
  155.5209  140.0585  157.2924 H   0  0  0  0  0  0  0  0  0  0  0  0  # atno 8009 bound_to 7997
  154.4563  140.1944  156.0388 H   0  0  0  0  0  0  0  0  0  0  0  0  # atno 8010 bound_to 7997
  140.0341  143.5218  152.2162 H   0  0  0  0  0  0  0  0  0  0  0  0  # atno 10167 bound_to 10162
  157.2696  131.0814  151.1609 H   0  0  0  0  0  0  0  0  0  0  0  0  # atno 10718 bound_to 10713
  153.0127  135.5331  154.6779 H   0  0  0  0  0  0  0  0  0  0  0  0  # atno 10763 bound_to 10752
  154.5947  135.2862  155.0601 H   0  0  0  0  0  0  0  0  0  0  0  0  # atno 10764 bound_to 10752
  154.1681  135.6536  153.5055 H   0  0  0  0  0  0  0  0  0  0  0  0  # atno 10765 bound_to 10752
  139.8788  134.9282  156.5287 H   0  0  0  0  0  0  0  0  0  0  0  0  # atno 11005 bound_to 11000
  145.2224  139.2153  143.5086 LP  0  0  0  0  0  0  0  0  0  0  0  0  # atno 17320 bound_to 7965
  146.3441  140.2084  142.8590 LP  0  0  0  0  0  0  0  0  0  0  0  0  # atno 17321 bound_to 7965
  139.6056  144.7595  151.3069 LP  0  0  0  0  0  0  0  0  0  0  0  0  # atno 17342 bound_to 10162
  140.7289  143.6923  150.7912 LP  0  0  0  0  0  0  0  0  0  0  0  0  # atno 17343 bound_to 10162
  157.3086  130.6878  149.6203 LP  0  0  0  0  0  0  0  0  0  0  0  0  # atno 17370 bound_to 10713
  155.9663  130.4370  150.5158 LP  0  0  0  0  0  0  0  0  0  0  0  0  # atno 17371 bound_to 10713
  140.8397  133.8215  155.9062 LP  0  0  0  0  0  0  0  0  0  0  0  0  # atno 17394 bound_to 11000
  140.9250  134.2094  157.4902 LP  0  0  0  0  0  0  0  0  0  0  0  0  # atno 17395 bound_to 11000

$$$$
