AV-unprocessed.smi:2079|AV-procd|sdf|8476|dock5
  -GOLD-   2272011183D 1   1.00000     0.00000
 Structure written by MMmdl.
 42 43  0  0  0  0  0  0  0  0  2 V2000
  151.6487  139.6152  158.3346 C   0  0  0  0  0  0  0  0  0  0  0  0
  151.3563  139.6005  156.8733 C   0  0  0  0  0  0  0  0  0  0  0  0
  150.2165  139.3717  156.1546 C   0  0  0  0  0  0  0  0  0  0  0  0
  150.6531  139.5120  154.8104 C   0  0  0  0  0  0  0  0  0  0  0  0
  149.7501  139.3442  153.7297 N   0  0  0  0  0  0  0  0  0  0  0  0
  148.4435  139.0369  153.7966 C   0  0  0  0  0  0  0  0  0  0  0  0
  147.8130  138.8335  154.8347 O   0  0  0  0  0  0  0  0  0  0  0  0
  147.8918  138.9709  152.5760 N   0  0  0  0  0  0  0  0  0  0  0  0
  146.4885  138.6713  152.3160 C   0  0  0  0  0  0  0  0  0  0  0  0
  145.9946  137.4914  153.1773 C   0  0  0  0  0  0  0  0  0  0  0  0
  146.2791  136.1598  152.5775 N   0  3  1  0  0  0  0  0  0  0  0  0
  146.3402  135.0898  153.6102 C   0  0  0  0  0  0  0  0  0  0  0  0
  146.8410  133.7630  153.0186 C   0  0  0  0  0  0  0  0  0  0  0  0
  145.9725  133.3267  151.8344 C   0  0  0  0  0  0  0  0  0  0  0  0
  145.9134  134.4506  150.7914 C   0  0  0  0  0  0  0  0  0  0  0  0
  145.4334  135.7864  151.3987 C   0  0  1  0  0  0  0  0  0  0  0  0
  143.9187  135.7799  151.6981 C   0  0  0  0  0  0  0  0  0  0  0  0
  151.9420  139.8015  154.7166 N   0  0  0  0  0  0  0  0  0  0  0  0
  152.3995  139.8589  156.0383 O   0  0  0  0  0  0  0  0  0  0  0  0
  150.7331  139.7369  158.9134 H   0  0  0  0  0  0  0  0  0  0  0  0
  152.3192  140.4366  158.5880 H   0  0  0  0  0  0  0  0  0  0  0  0
  152.1231  138.6831  158.6422 H   0  0  0  0  0  0  0  0  0  0  0  0
  149.2319  139.1401  156.5330 H   0  0  0  0  0  0  0  0  0  0  0  0
  150.1399  139.4805  152.8089 H   0  0  0  0  0  0  0  0  0  0  0  0
  148.4783  139.1525  151.7744 H   0  0  0  0  0  0  0  0  0  0  0  0
  145.9039  139.5737  152.4961 H   0  0  0  0  0  0  0  0  0  0  0  0
  146.3800  138.4325  151.2576 H   0  0  0  0  0  0  0  0  0  0  0  0
  146.5019  137.5490  154.1413 H   0  0  0  0  0  0  0  0  0  0  0  0
  144.9308  137.5820  153.3974 H   0  0  0  0  0  0  0  0  0  0  0  0
  147.0161  135.3925  154.4108 H   0  0  0  0  0  0  0  0  0  0  0  0
  145.3601  134.9555  154.0688 H   0  0  0  0  0  0  0  0  0  0  0  0
  147.8763  133.8744  152.6930 H   0  0  0  0  0  0  0  0  0  0  0  0
  146.8401  132.9888  153.7863 H   0  0  0  0  0  0  0  0  0  0  0  0
  146.3775  132.4188  151.3860 H   0  0  0  0  0  0  0  0  0  0  0  0
  144.9682  133.0799  152.1800 H   0  0  0  0  0  0  0  0  0  0  0  0
  146.9077  134.5891  150.3641 H   0  0  0  0  0  0  0  0  0  0  0  0
  145.2685  134.1572  149.9623 H   0  0  0  0  0  0  0  0  0  0  0  0
  145.5970  136.5323  150.6220 H   0  0  0  0  0  0  0  0  0  0  0  0
  143.3541  135.4735  150.8170 H   0  0  0  0  0  0  0  0  0  0  0  0
  143.5551  136.7702  151.9711 H   0  0  0  0  0  0  0  0  0  0  0  0
  143.6570  135.0946  152.5036 H   0  0  0  0  0  0  0  0  0  0  0  0
  147.2202  136.2279  152.2174 H   0  0  0  0  0  0  0  0  0  0  0  0
  1  2  1  0  0  0  0
  1 20  1  0  0  0  0
  1 21  1  0  0  0  0
  1 22  1  0  0  0  0
  2 19  1  0  0  0  0
  2  3  2  0  0  0  0
  3  4  1  0  0  0  0
  3 23  1  0  0  0  0
  4  5  1  0  0  0  0
  4 18  2  0  0  0  0
  5  6  1  0  0  0  0
  5 24  1  0  0  0  0
  6  7  2  0  0  0  0
  6  8  1  0  0  0  0
  8  9  1  0  0  0  0
  8 25  1  0  0  0  0
  9 10  1  0  0  0  0
  9 26  1  0  0  0  0
  9 27  1  0  0  0  0
 10 11  1  0  0  0  0
 10 28  1  0  0  0  0
 10 29  1  0  0  0  0
 11 16  1  0  0  0  0
 11 12  1  0  0  0  0
 11 42  1  0  0  0  0
 12 13  1  0  0  0  0
 12 30  1  0  0  0  0
 12 31  1  0  0  0  0
 13 14  1  0  0  0  0
 13 32  1  0  0  0  0
 13 33  1  0  0  0  0
 14 15  1  0  0  0  0
 14 34  1  0  0  0  0
 14 35  1  0  0  0  0
 15 16  1  0  0  0  0
 15 36  1  0  0  0  0
 15 37  1  0  0  0  0
 16 17  1  0  0  0  0
 16 38  1  0  0  0  0
 17 39  1  0  0  0  0
 17 40  1  0  0  0  0
 17 41  1  0  0  0  0
 18 19  1  0  0  0  0
M  CHG  1  11   1
M  END
> <s_m_source_file>
AV-unprocessed.smi

> <i_m_source_file_index>
2079

> <i_lp_mmshare_version>
43012

> <i_f3d_flags>
0

> <s_epik_input>
W0NIM11jMVtjSF1jKG5vMSlbTkhdQyg9TylbTkhdW0NIMl1bQ0gyXU4yW0NIMl1bQ0gyXVtDSDJdW0NIMl1bQ0BIXTJbQ0gzXQ==

> <s_epik_cmdline>
J2VwaWtfcHl0aG9uJywgJy1waCcsICc3LjAnLCAnLXRuJywgJzgnLCAnLW1hJywgJzIwMCcsICctbWV0YWxfYmluZGluZycsICctaW1hZScsICc8aW5maWxlLm1hZT4nLCAnLW9tYWUnLCAnPG91dGZpbGUubWFlPic=

> <r_epik_Ionization_Penalty>
0.00265971

> <r_epik_Ionization_Penalty_Charging>
0.00262393

> <r_epik_Ionization_Penalty_Neutral>
3.57846e-05

> <r_epik_State_Penalty>
0.00182566

> <r_epik_Charging_Adjusted_Penalty>
0.00444959

> <i_epik_Tot_Q>
1

> <i_epik_Tot_abs_Q>
1

> <r_epik_Metal_State_Penalty>
0.0216344

> <b_epik_Metal_Only>
0

> <s_lp_Force_Field>
OPLS_2005

> <r_lp_Energy>
16.3098

> <b_lp_Chiralities_Consistent>
1

> <s_lp_Variant>
AV-unprocessed.smi:2079-2

> <Gold.Version>
5.8.1

> <Gold.Id.Protein>
6NUR|6NUR_protein|mol2

> <Gold.PLP.Fitness>
46.2287

> <Gold.PLP.PLP>
-30.7299

> <Gold.PLP.part.hbond>
-5.8003

> <Gold.PLP.part.metal>
0.0000

> <Gold.PLP.part.buried>
-3.1753

> <Gold.PLP.part.nonpolar>
-21.4780

> <Gold.PLP.part.repulsive>
0.3546

> <Gold.PLP.ligand.clash>
0.0000

> <Gold.PLP.ligand.torsion>
0.4147

> <Gold.PLP.Chemscore.Hbond>
5.4272

> <Gold.PLP.Chemscore.CHOScore>
0.0000

> <Gold.PLP.Chemscore.Metal>
0.0000

> <Gold.Chemscore.Hbonds>
donor molecule, donor type, donor heavy atom, donor atom, acceptor molecule, acceptor atom, score
      L1  H     5    24       P1  7957  0.80
      L1  H     8    25       P1  7957  0.98
      L1  H    11    42       P1  7948  2.00
      P1  H  7989  7998       L1    18  0.56
      P1  H  7997  8010       L1    19  1.00

> <Gold.PLP.Chemscore.Internal.Correction>
0.0466

> <Gold.Rescore>
     Score         DG    S(hbond)    S(metal)    S(lipo)     H(rot)  DE(clash)    DE(int)     intcor
     19.52     -22.67       4.53        0.00      51.94       1.57       0.00       3.15       ----

> <Gold.Chemscore.Fitness>
19.5154

> <Gold.Chemscore.DG>
-22.6733

> <Gold.Chemscore.ZeroCoef>
-5.4800

> <Gold.Chemscore.Hbond>
4.5314

> <Gold.Chemscore.Metal>
0.0000

> <Gold.Chemscore.Lipo>
51.9391

> <Gold.Chemscore.Internal_Hbond>
0.0000

> <Gold.Chemscore.DEClash>
0.0034

> <Gold.Chemscore.DEInternal>
3.1544

> <Gold.Chemscore.Rot>
1.5697

> <Gold.Chemscore.Internal.Correction>
   9.000000E+99

> <Gold.Chemscore.Hbonds>
donor molecule, donor type, donor heavy atom, donor atom, acceptor molecule, acceptor atom, score
      L1  H     5    24       P1  7957  0.75
      L1  H     8    25       P1  7957  0.84
      L1  H    11    42       P1  7948  1.00
      P1  H  7989  7998       L1    18  0.04
      P1  H  7997  8010       L1    19  0.93

> <Gold.Chemscore.Hbond.Weighted>
-15.1349

> <Gold.Chemscore.Metal.Weighted>
-0.0000

> <Gold.Chemscore.Lipo.Weighted>
-6.0769

> <Gold.Chemscore.Internal_Hbond.Weighted>
0.0000

> <Gold.Chemscore.DEClash.Weighted>
0.0034

> <Gold.Chemscore.DEInternal.Weighted>
3.1544

> <Gold.Chemscore.Rot.Weighted>
4.0185

> <Gold.Chemscore.Internal.Correction.Weighted>
   9.000000E+99

> <Gold.Protein.RotatedTorsions>
[ 6907 6896 6895 6894 ] final  127.76 input  -60.11 | X-H torsion
[ 7974 7965 7964 7962 ] final   59.32 input  175.53 | X-H torsion
[ 8008 7997 7996 7995 ] final   67.48 input   59.86 | X-H torsion
[ 10167 10162 10161 10158 ] final -145.08 input  -65.29 | X-H torsion
[ 10718 10713 10712 10709 ] final  139.78 input   66.30 | X-H torsion
[ 10763 10752 10751 10750 ] final -176.80 input  -60.55 | X-H torsion
[ 11005 11000 10999 10996 ] final -149.33 input  -57.11 | X-H torsion

> <Gold.Protein.ActiveResidues>
 VAL166  LYS551  ARG553  GLY616  TRP617  ASP618  TYR619  PRO620  LYS621  CYS622 
 ASP623  PHE694  ASN695  SER759  ASP760  ASP761  ALA762  ILE779  LEU786  VAL792 
 PHE793  MET794  SER795  GLU796  ALA797  LYS798  CYS799  TRP800  GLU811  SER814 

> <Gold.Protein.RotatedAtoms>
  152.3782  133.6510  159.6140 H   0  0  0  0  0  0  0  0  0  0  0  0  # atno 6907 bound_to 6896
  150.7720  133.9157  159.3392 H   0  0  0  0  0  0  0  0  0  0  0  0  # atno 6908 bound_to 6896
  151.6968  135.0938  160.0295 H   0  0  0  0  0  0  0  0  0  0  0  0  # atno 6909 bound_to 6896
  145.9085  139.3635  143.0550 H   0  0  0  0  0  0  0  0  0  0  0  0  # atno 7974 bound_to 7965
  155.6935  140.3496  155.4903 H   0  0  0  0  0  0  0  0  0  0  0  0  # atno 8008 bound_to 7997
  155.9503  140.1118  157.1004 H   0  0  0  0  0  0  0  0  0  0  0  0  # atno 8009 bound_to 7997
  154.4120  140.1195  156.5030 H   0  0  0  0  0  0  0  0  0  0  0  0  # atno 8010 bound_to 7997
  139.7839  143.8061  152.2642 H   0  0  0  0  0  0  0  0  0  0  0  0  # atno 10167 bound_to 10162
  157.4106  131.1027  151.0458 H   0  0  0  0  0  0  0  0  0  0  0  0  # atno 10718 bound_to 10713
  154.5679  135.2825  155.0856 H   0  0  0  0  0  0  0  0  0  0  0  0  # atno 10763 bound_to 10752
  154.2239  135.6386  153.5157 H   0  0  0  0  0  0  0  0  0  0  0  0  # atno 10764 bound_to 10752
  153.0048  135.5521  154.6294 H   0  0  0  0  0  0  0  0  0  0  0  0  # atno 10765 bound_to 10752
  140.7519  134.3397  157.5124 H   0  0  0  0  0  0  0  0  0  0  0  0  # atno 11005 bound_to 11000
  145.8702  140.9424  143.0655 LP  0  0  0  0  0  0  0  0  0  0  0  0  # atno 17320 bound_to 7965
  144.6741  140.0644  143.7475 LP  0  0  0  0  0  0  0  0  0  0  0  0  # atno 17321 bound_to 7965
  139.8132  144.7327  150.9669 LP  0  0  0  0  0  0  0  0  0  0  0  0  # atno 17342 bound_to 10162
  140.7819  143.4230  151.0812 LP  0  0  0  0  0  0  0  0  0  0  0  0  # atno 17343 bound_to 10162
  157.1424  130.6148  149.5559 LP  0  0  0  0  0  0  0  0  0  0  0  0  # atno 17370 bound_to 10713
  155.9849  130.4877  150.7008 LP  0  0  0  0  0  0  0  0  0  0  0  0  # atno 17371 bound_to 10713
  139.8786  134.9147  156.3114 LP  0  0  0  0  0  0  0  0  0  0  0  0  # atno 17394 bound_to 11000
  140.9743  133.7307  156.0580 LP  0  0  0  0  0  0  0  0  0  0  0  0  # atno 17395 bound_to 11000

$$$$
