AV-unprocessed.smi:50|AV-procd|sdf|495|dock8
  -GOLD-   2262016363D 1   1.00000     0.00000
 Structure written by MMmdl.
 43 44  0  0  0  0  0  0  0  0  3 V2000
  143.5847  134.8358  151.8197 C   0  0  0  0  0  0  0  0  0  0  0  0
  143.2422  135.5232  153.1552 C   0  0  0  0  0  0  0  0  0  0  0  0
  141.7228  135.4321  153.3967 C   0  0  0  0  0  0  0  0  0  0  0  0
  143.7955  136.9747  153.2013 C   0  0  2  0  0  0  0  0  0  0  0  0
  143.0496  137.8556  152.2816 N   0  3  0  0  0  0  0  0  0  0  0  0
  145.2843  137.0924  152.8222 C   0  0  0  0  0  0  0  0  0  0  0  0
  146.0175  136.1359  152.5621 O   0  0  0  0  0  0  0  0  0  0  0  0
  145.6651  138.3838  152.8232 O   0  0  0  0  0  0  0  0  0  0  0  0
  147.0214  138.7464  152.5983 C   0  0  0  0  0  0  0  0  0  0  0  0
  147.2247  140.2370  152.8945 C   0  0  0  0  0  0  0  0  0  0  0  0
  148.5606  140.4607  153.3257 O   0  0  0  0  0  0  0  0  0  0  0  0
  148.7114  141.4723  154.2701 C   0  0  0  0  0  0  0  0  0  0  0  0
  149.8625  141.1535  155.0970 N   0  0  0  0  0  0  0  0  0  0  0  0
  150.5060  141.9953  155.9292 C   0  0  0  0  0  0  0  0  0  0  0  0
  151.5227  141.4649  156.6069 N   0  0  0  0  0  0  0  0  0  0  0  0
  151.5268  140.1548  156.1445 C   0  0  0  0  0  0  0  0  0  0  0  0
  152.3656  138.9877  156.5081 C   0  0  0  0  0  0  0  0  0  0  0  0
  153.2625  139.1318  157.3362 O   0  0  0  0  0  0  0  0  0  0  0  0
  152.0340  137.8128  155.8939 N   0  5  0  0  0  0  0  0  0  0  0  0
  150.9924  137.7703  154.9571 C   0  0  0  0  0  0  0  0  0  0  0  0
  150.8142  136.5181  154.4115 N   0  0  0  0  0  0  0  0  0  0  0  0
  150.2217  138.7609  154.5810 N   0  0  0  0  0  0  0  0  0  0  0  0
  150.5320  139.9414  155.2291 C   0  0  0  0  0  0  0  0  0  0  0  0
  143.6604  137.3708  154.2087 H   0  0  0  0  0  0  0  0  0  0  0  0
  143.1580  135.3802  150.9765 H   0  0  0  0  0  0  0  0  0  0  0  0
  143.1923  133.8187  151.7885 H   0  0  0  0  0  0  0  0  0  0  0  0
  144.6607  134.7650  151.6603 H   0  0  0  0  0  0  0  0  0  0  0  0
  143.7272  134.9500  153.9471 H   0  0  0  0  0  0  0  0  0  0  0  0
  141.1730  136.0583  152.6929 H   0  0  0  0  0  0  0  0  0  0  0  0
  141.4510  135.7404  154.4061 H   0  0  0  0  0  0  0  0  0  0  0  0
  141.3658  134.4085  153.2769 H   0  0  0  0  0  0  0  0  0  0  0  0
  143.3536  137.6800  151.3339 H   0  0  0  0  0  0  0  0  0  0  0  0
  143.2317  138.8207  152.5168 H   0  0  0  0  0  0  0  0  0  0  0  0
  147.6244  138.1623  153.2934 H   0  0  0  0  0  0  0  0  0  0  0  0
  147.3649  138.4864  151.5960 H   0  0  0  0  0  0  0  0  0  0  0  0
  146.9439  140.8240  152.0206 H   0  0  0  0  0  0  0  0  0  0  0  0
  146.5625  140.5498  153.7019 H   0  0  0  0  0  0  0  0  0  0  0  0
  148.8262  142.4642  153.8290 H   0  0  0  0  0  0  0  0  0  0  0  0
  147.8274  141.4805  154.9083 H   0  0  0  0  0  0  0  0  0  0  0  0
  150.2104  143.0269  156.0515 H   0  0  0  0  0  0  0  0  0  0  0  0
  151.3743  135.7160  154.6598 H   0  0  0  0  0  0  0  0  0  0  0  0
  150.0873  136.3056  153.7438 H   0  0  0  0  0  0  0  0  0  0  0  0
  142.0611  137.6645  152.3570 H   0  0  0  0  0  0  0  0  0  0  0  0
  1  2  1  0  0  0  0
  1 25  1  0  0  0  0
  1 26  1  0  0  0  0
  1 27  1  0  0  0  0
  2  3  1  0  0  0  0
  2  4  1  0  0  0  0
  2 28  1  0  0  0  0
  3 29  1  0  0  0  0
  3 30  1  0  0  0  0
  3 31  1  0  0  0  0
  4 24  1  0  0  0  0
  4  5  1  0  0  0  0
  4  6  1  0  0  0  0
  5 32  1  0  0  0  0
  5 33  1  0  0  0  0
  5 43  1  0  0  0  0
  6  7  2  0  0  0  0
  6  8  1  0  0  0  0
  8  9  1  0  0  0  0
  9 10  1  0  0  0  0
  9 34  1  0  0  0  0
  9 35  1  0  0  0  0
 10 11  1  0  0  0  0
 10 36  1  0  0  0  0
 10 37  1  0  0  0  0
 11 12  1  0  0  0  0
 12 13  1  0  0  0  0
 12 38  1  0  0  0  0
 12 39  1  0  0  0  0
 13 23  1  0  0  0  0
 13 14  1  0  0  0  0
 14 15  2  0  0  0  0
 14 40  1  0  0  0  0
 15 16  1  0  0  0  0
 16 23  2  0  0  0  0
 16 17  1  0  0  0  0
 17 18  2  0  0  0  0
 17 19  1  0  0  0  0
 19 20  1  0  0  0  0
 20 21  1  0  0  0  0
 20 22  2  0  0  0  0
 21 41  1  0  0  0  0
 21 42  1  0  0  0  0
 22 23  1  0  0  0  0
M  CHG  1   5   1
M  CHG  1  19  -1
M  END
> <s_m_source_file>
AV-unprocessed.smi

> <i_m_source_file_index>
50

> <i_lp_mmshare_version>
43012

> <i_f3d_flags>
0

> <s_epik_input>
W0NIM11bQ0hdKFtDSDNdKVtDQEhdKFtOSDJdKUMoPU8pT1tDSDJdW0NIMl1PW0NIMl1uKFtjSF1uMSljKGMxMiluYyhbTkgyXSlbbkhdYzI9Tw==

> <s_epik_cmdline>
J2VwaWtfcHl0aG9uJywgJy1waCcsICc3LjAnLCAnLXRuJywgJzgnLCAnLW1hJywgJzIwMCcsICctbWV0YWxfYmluZGluZycsICctaW1hZScsICc8aW5maWxlLm1hZT4nLCAnLW9tYWUnLCAnPG91dGZpbGUubWFlPic=

> <r_lp_tautomer_probability>
0.99994

> <r_epik_Ionization_Penalty>
3.77459

> <r_epik_Ionization_Penalty_Charging>
0.215994

> <r_epik_Ionization_Penalty_Neutral>
3.5586

> <r_epik_State_Penalty>
3.75449

> <r_epik_Charging_Adjusted_Penalty>
3.97048

> <i_epik_Tot_Q>
0

> <i_epik_Tot_abs_Q>
2

> <r_epik_Metal_State_Penalty>
0.723824

> <b_epik_Metal_Only>
1

> <s_epik_Chemistry_Notes>
This compound has an ester and may undergo hydrolysis at high or low pH. This compound contains an acetal/aminal-like group ( X-CH(R)-Y where X, Y are N, S, or O) that may be acid/base labile, releasing an aldehyde.

> <s_lp_Force_Field>
OPLS_2005

> <r_lp_Energy>
6.41072

> <b_lp_Chiralities_Consistent>
1

> <s_lp_Variant>
AV-unprocessed.smi:50-5

> <Gold.Version>
5.8.1

> <Gold.Id.Protein>
6NUR|6NUR_protein|mol2

> <Gold.PLP.Fitness>
48.6023

> <Gold.PLP.PLP>
-32.8889

> <Gold.PLP.part.hbond>
-5.0000

> <Gold.PLP.part.metal>
0.0000

> <Gold.PLP.part.buried>
-5.7248

> <Gold.PLP.part.nonpolar>
-29.4602

> <Gold.PLP.part.repulsive>
5.8422

> <Gold.PLP.ligand.clash>
0.0000

> <Gold.PLP.ligand.torsion>
0.9382

> <Gold.PLP.Chemscore.Hbond>
4.7920

> <Gold.PLP.Chemscore.CHOScore>
1.0000

> <Gold.PLP.Chemscore.Metal>
0.0000

> <Gold.Chemscore.Hbonds>
donor molecule, donor type, donor heavy atom, donor atom, acceptor molecule, acceptor atom, score
      L1  H     5    32       P1 10171  0.80
      L1  H     5    33       P1 10175  2.00
      L1  H    21    42       P1  7948  0.52
      P1  H  7997  8009       L1    18  1.00
      L1  C    14    40       P1  8028  1.00

> <Gold.PLP.Chemscore.Internal.Correction>
0.2138

> <Gold.Rescore>
     Score         DG    S(hbond)    S(metal)    S(lipo)     H(rot)  DE(clash)    DE(int)     intcor
      1.99      -7.08       2.84        0.00      38.21       4.83       1.48       3.62       ----

> <Gold.Chemscore.Fitness>
1.9863

> <Gold.Chemscore.DG>
-7.0825

> <Gold.Chemscore.ZeroCoef>
-5.4800

> <Gold.Chemscore.Hbond>
2.8442

> <Gold.Chemscore.Metal>
0.0000

> <Gold.Chemscore.Lipo>
38.2098

> <Gold.Chemscore.Internal_Hbond>
0.0000

> <Gold.Chemscore.DEClash>
1.4773

> <Gold.Chemscore.DEInternal>
3.6189

> <Gold.Chemscore.Rot>
4.8312

> <Gold.Chemscore.Internal.Correction>
   9.000000E+99

> <Gold.Chemscore.Hbonds>
donor molecule, donor type, donor heavy atom, donor atom, acceptor molecule, acceptor atom, score
      L1  H     5    32       P1 10171  0.68
      L1  H     5    33       P1 10175  1.00
      L1  H    21    42       P1  7948  0.06
      P1  H  7997  8009       L1    18  0.94

> <Gold.Chemscore.Hbond.Weighted>
-9.4998

> <Gold.Chemscore.Metal.Weighted>
-0.0000

> <Gold.Chemscore.Lipo.Weighted>
-4.4705

> <Gold.Chemscore.Internal_Hbond.Weighted>
0.0000

> <Gold.Chemscore.DEClash.Weighted>
1.4773

> <Gold.Chemscore.DEInternal.Weighted>
3.6189

> <Gold.Chemscore.Rot.Weighted>
12.3678

> <Gold.Chemscore.Internal.Correction.Weighted>
   9.000000E+99

> <Gold.Protein.RotatedTorsions>
[ 6907 6896 6895 6894 ] final  155.10 input  -60.11 | X-H torsion
[ 7974 7965 7964 7962 ] final   77.24 input  175.53 | X-H torsion
[ 8008 7997 7996 7995 ] final  159.83 input   59.86 | X-H torsion
[ 10167 10162 10161 10158 ] final  -75.84 input  -65.29 | X-H torsion
[ 10718 10713 10712 10709 ] final   46.15 input   66.30 | X-H torsion
[ 10763 10752 10751 10750 ] final  -24.93 input  -60.55 | X-H torsion
[ 11005 11000 10999 10996 ] final  135.84 input  -57.11 | X-H torsion

> <Gold.Protein.ActiveResidues>
 VAL166  LYS551  ARG553  GLY616  TRP617  ASP618  TYR619  PRO620  LYS621  CYS622 
 ASP623  PHE694  ASN695  SER759  ASP760  ASP761  ALA762  ILE779  LEU786  VAL792 
 PHE793  MET794  SER795  GLU796  ALA797  LYS798  CYS799  TRP800  GLU811  SER814 

> <Gold.Protein.RotatedAtoms>
  152.0489  133.4010  159.4368 H   0  0  0  0  0  0  0  0  0  0  0  0  # atno 6907 bound_to 6896
  150.6871  134.3330  159.4844 H   0  0  0  0  0  0  0  0  0  0  0  0  # atno 6908 bound_to 6896
  152.1137  134.9255  160.0616 H   0  0  0  0  0  0  0  0  0  0  0  0  # atno 6909 bound_to 6896
  145.6926  139.2557  143.1751 H   0  0  0  0  0  0  0  0  0  0  0  0  # atno 7974 bound_to 7965
  156.2213  140.1820  156.7470 H   0  0  0  0  0  0  0  0  0  0  0  0  # atno 8008 bound_to 7997
  154.5870  140.0657  156.9213 H   0  0  0  0  0  0  0  0  0  0  0  0  # atno 8009 bound_to 7997
  155.2403  140.3321  155.4295 H   0  0  0  0  0  0  0  0  0  0  0  0  # atno 8010 bound_to 7997
  140.4908  143.2381  151.7910 H   0  0  0  0  0  0  0  0  0  0  0  0  # atno 10167 bound_to 10162
  157.4451  130.8104  149.7733 H   0  0  0  0  0  0  0  0  0  0  0  0  # atno 10718 bound_to 10713
  153.6917  135.6961  153.5088 H   0  0  0  0  0  0  0  0  0  0  0  0  # atno 10763 bound_to 10752
  153.2408  135.4306  155.0695 H   0  0  0  0  0  0  0  0  0  0  0  0  # atno 10764 bound_to 10752
  154.8370  135.3507  154.6459 H   0  0  0  0  0  0  0  0  0  0  0  0  # atno 10765 bound_to 10752
  140.0006  134.9480  157.0064 H   0  0  0  0  0  0  0  0  0  0  0  0  # atno 11005 bound_to 11000
  146.0869  140.7701  142.9614 LP  0  0  0  0  0  0  0  0  0  0  0  0  # atno 17320 bound_to 7965
  144.6992  140.3576  143.7170 LP  0  0  0  0  0  0  0  0  0  0  0  0  # atno 17321 bound_to 7965
  139.4851  144.4652  151.9493 LP  0  0  0  0  0  0  0  0  0  0  0  0  # atno 17342 bound_to 10162
  140.3738  144.2822  150.5916 LP  0  0  0  0  0  0  0  0  0  0  0  0  # atno 17343 bound_to 10162
  155.9964  130.3906  150.2780 LP  0  0  0  0  0  0  0  0  0  0  0  0  # atno 17370 bound_to 10713
  157.0948  131.0179  151.3108 LP  0  0  0  0  0  0  0  0  0  0  0  0  # atno 17371 bound_to 10713
  140.4735  134.1362  155.7206 LP  0  0  0  0  0  0  0  0  0  0  0  0  # atno 17394 bound_to 11000
  141.1639  133.8740  157.1770 LP  0  0  0  0  0  0  0  0  0  0  0  0  # atno 17395 bound_to 11000

$$$$
