AV-unprocessed.smi:2131|AV-procd|sdf|8690|dock5
  -GOLD-   2272011443D 1   1.00000     0.00000
 Structure written by MMmdl.
 41 43  0  0  0  0  0  0  0  0  2 V2000
  153.6429  132.0665  164.3458 N   0  0  0  0  0  0  0  0  0  0  0  0
  154.2814  133.0307  164.3859 C   0  0  0  0  0  0  0  0  0  0  0  0
  155.0925  134.2564  164.4369 C   0  0  0  0  0  0  0  0  0  0  0  0
  154.6490  135.2735  163.4061 C   0  0  0  0  0  0  0  0  0  0  0  0
  154.1467  136.5241  163.8152 C   0  0  0  0  0  0  0  0  0  0  0  0
  153.7308  137.4660  162.8549 C   0  0  0  0  0  0  0  0  0  0  0  0
  153.8072  137.1755  161.4772 C   0  0  0  0  0  0  0  0  0  0  0  0
  153.3761  138.1536  160.6069 O   0  0  0  0  0  0  0  0  0  0  0  0
  153.4524  137.8944  159.2112 C   0  0  0  0  0  0  0  0  0  0  0  0
  153.0530  139.1654  158.4479 C   0  0  1  0  0  0  0  0  0  0  0  0
  153.4195  139.0129  157.0908 O   0  0  0  0  0  0  0  0  0  0  0  0
  151.5427  139.4600  158.5462 C   0  0  0  0  0  0  0  0  0  0  0  0
  151.1877  140.7904  158.0359 N   0  0  0  0  0  0  0  0  0  0  0  0
  150.3318  141.1461  157.0398 C   0  0  0  0  0  0  0  0  0  0  0  0
  150.3536  142.5047  156.9456 N   0  3  0  0  0  0  0  0  0  0  0  0
  151.2365  143.0241  157.8952 C   0  0  0  0  0  0  0  0  0  0  0  0
  151.5973  144.3365  158.1846 C   0  0  0  0  0  0  0  0  0  0  0  0
  152.5357  144.5208  159.2215 C   0  0  0  0  0  0  0  0  0  0  0  0
  153.0762  143.4260  159.9272 C   0  0  0  0  0  0  0  0  0  0  0  0
  152.7019  142.0996  159.6269 C   0  0  0  0  0  0  0  0  0  0  0  0
  151.7753  141.9268  158.5996 C   0  0  0  0  0  0  0  0  0  0  0  0
  154.3150  135.9149  161.0725 C   0  0  0  0  0  0  0  0  0  0  0  0
  154.7322  134.9725  162.0325 C   0  0  0  0  0  0  0  0  0  0  0  0
  155.0162  134.6792  165.4391 H   0  0  0  0  0  0  0  0  0  0  0  0
  156.1362  133.9869  164.2734 H   0  0  0  0  0  0  0  0  0  0  0  0
  154.0770  136.7634  164.8662 H   0  0  0  0  0  0  0  0  0  0  0  0
  153.3452  138.4214  163.1798 H   0  0  0  0  0  0  0  0  0  0  0  0
  154.4748  137.6158  158.9500 H   0  0  0  0  0  0  0  0  0  0  0  0
  152.7944  137.0686  158.9344 H   0  0  0  0  0  0  0  0  0  0  0  0
  153.6198  140.0078  158.8458 H   0  0  0  0  0  0  0  0  0  0  0  0
  152.8011  138.4305  156.6763 H   0  0  0  0  0  0  0  0  0  0  0  0
  150.9751  138.7266  157.9714 H   0  0  0  0  0  0  0  0  0  0  0  0
  151.1930  139.3837  159.5765 H   0  0  0  0  0  0  0  0  0  0  0  0
  149.7456  140.4721  156.4317 H   0  0  0  0  0  0  0  0  0  0  0  0
  151.1850  145.1772  157.6461 H   0  0  0  0  0  0  0  0  0  0  0  0
  152.8474  145.5224  159.4804 H   0  0  0  0  0  0  0  0  0  0  0  0
  153.7935  143.6066  160.7149 H   0  0  0  0  0  0  0  0  0  0  0  0
  153.1210  141.2662  160.1715 H   0  0  0  0  0  0  0  0  0  0  0  0
  154.3958  135.6459  160.0305 H   0  0  0  0  0  0  0  0  0  0  0  0
  155.1157  134.0153  161.7109 H   0  0  0  0  0  0  0  0  0  0  0  0
  149.8067  143.0352  156.2795 H   0  0  0  0  0  0  0  0  0  0  0  0
  1  2  3  0  0  0  0
  2  3  1  0  0  0  0
  3  4  1  0  0  0  0
  3 24  1  0  0  0  0
  3 25  1  0  0  0  0
  4 23  1  0  0  0  0
  4  5  2  0  0  0  0
  5  6  1  0  0  0  0
  5 26  1  0  0  0  0
  6  7  2  0  0  0  0
  6 27  1  0  0  0  0
  7  8  1  0  0  0  0
  7 22  1  0  0  0  0
  8  9  1  0  0  0  0
  9 10  1  0  0  0  0
  9 28  1  0  0  0  0
  9 29  1  0  0  0  0
 10 11  1  0  0  0  0
 10 12  1  0  0  0  0
 10 30  1  0  0  0  0
 11 31  1  0  0  0  0
 12 13  1  0  0  0  0
 12 32  1  0  0  0  0
 12 33  1  0  0  0  0
 13 21  1  0  0  0  0
 13 14  1  0  0  0  0
 14 15  2  0  0  0  0
 14 34  1  0  0  0  0
 15 16  1  0  0  0  0
 15 41  1  0  0  0  0
 16 21  2  0  0  0  0
 16 17  1  0  0  0  0
 17 18  2  0  0  0  0
 17 35  1  0  0  0  0
 18 19  1  0  0  0  0
 18 36  1  0  0  0  0
 19 20  2  0  0  0  0
 19 37  1  0  0  0  0
 20 21  1  0  0  0  0
 20 38  1  0  0  0  0
 22 23  2  0  0  0  0
 22 39  1  0  0  0  0
 23 40  1  0  0  0  0
M  CHG  1  15   1
M  END
> <s_m_source_file>
AV-unprocessed.smi

> <i_m_source_file_index>
2131

> <i_lp_mmshare_version>
43012

> <i_f3d_flags>
0

> <s_epik_input>
TiNDW0NIMl1jMVtjSF1bY0hdYyhbY0hdW2NIXTEpT1tDSDJdW0NASF0oW09IXSlbQ0gyXW4oW2NIXW4yKWMoYzIzKVtjSF1bY0hdW2NIXVtjSF0z

> <s_epik_cmdline>
J2VwaWtfcHl0aG9uJywgJy1waCcsICc3LjAnLCAnLXRuJywgJzgnLCAnLW1hJywgJzIwMCcsICctbWV0YWxfYmluZGluZycsICctaW1hZScsICc8aW5maWxlLm1hZT4nLCAnLW9tYWUnLCAnPG91dGZpbGUubWFlPic=

> <r_lp_tautomer_probability>
1

> <r_epik_Ionization_Penalty>
1.3774

> <r_epik_Ionization_Penalty_Charging>
1.37739

> <r_epik_Ionization_Penalty_Neutral>
2.3994e-06

> <r_epik_State_Penalty>
1.45762

> <r_epik_Charging_Adjusted_Penalty>
2.83501

> <i_epik_Tot_Q>
1

> <i_epik_Tot_abs_Q>
1

> <r_epik_Metal_State_Penalty>
5.49752

> <b_epik_Metal_Only>
0

> <s_lp_Force_Field>
OPLS_2005

> <r_lp_Energy>
20.3244

> <b_lp_Chiralities_Consistent>
1

> <s_lp_Variant>
AV-unprocessed.smi:2131-4

> <Gold.Version>
5.8.1

> <Gold.Id.Protein>
6NUR|6NUR_protein|mol2

> <Gold.PLP.Fitness>
57.5681

> <Gold.PLP.PLP>
-48.7778

> <Gold.PLP.part.hbond>
-1.7522

> <Gold.PLP.part.metal>
0.0000

> <Gold.PLP.part.buried>
-6.2066

> <Gold.PLP.part.nonpolar>
-41.3325

> <Gold.PLP.part.repulsive>
0.0479

> <Gold.PLP.ligand.clash>
0.0000

> <Gold.PLP.ligand.torsion>
0.1486

> <Gold.PLP.Chemscore.Hbond>
2.9920

> <Gold.PLP.Chemscore.CHOScore>
0.0000

> <Gold.PLP.Chemscore.Metal>
0.0000

> <Gold.Chemscore.Hbonds>
donor molecule, donor type, donor heavy atom, donor atom, acceptor molecule, acceptor atom, score
      L1  H    15    41       P1  8028  2.00
      P1  H  7997  8010       L1    11  0.98

> <Gold.PLP.Chemscore.Internal.Correction>
0.1115

> <Gold.Rescore>
     Score         DG    S(hbond)    S(metal)    S(lipo)     H(rot)  DE(clash)    DE(int)     intcor
     19.78     -20.16       1.83        0.00     134.68       2.81       0.23       0.15       ----

> <Gold.Chemscore.Fitness>
19.7783

> <Gold.Chemscore.DG>
-20.1607

> <Gold.Chemscore.ZeroCoef>
-5.4800

> <Gold.Chemscore.Hbond>
1.8345

> <Gold.Chemscore.Metal>
0.0000

> <Gold.Chemscore.Lipo>
134.6781

> <Gold.Chemscore.Internal_Hbond>
0.0000

> <Gold.Chemscore.DEClash>
0.2309

> <Gold.Chemscore.DEInternal>
0.1516

> <Gold.Chemscore.Rot>
2.8140

> <Gold.Chemscore.Internal.Correction>
   9.000000E+99

> <Gold.Chemscore.Hbonds>
donor molecule, donor type, donor heavy atom, donor atom, acceptor molecule, acceptor atom, score
      L1  H    15    41       P1  8028  0.91
      P1  H  7997  8010       L1    11  0.26

> <Gold.Chemscore.Hbond.Weighted>
-6.1273

> <Gold.Chemscore.Metal.Weighted>
-0.0000

> <Gold.Chemscore.Lipo.Weighted>
-15.7573

> <Gold.Chemscore.Internal_Hbond.Weighted>
0.0000

> <Gold.Chemscore.DEClash.Weighted>
0.2309

> <Gold.Chemscore.DEInternal.Weighted>
0.1516

> <Gold.Chemscore.Rot.Weighted>
7.2039

> <Gold.Chemscore.Internal.Correction.Weighted>
   9.000000E+99

> <Gold.Protein.RotatedTorsions>
[ 6907 6896 6895 6894 ] final  -59.09 input  -60.11 | X-H torsion
[ 7974 7965 7964 7962 ] final   66.24 input  175.53 | X-H torsion
[ 8008 7997 7996 7995 ] final   34.60 input   59.86 | X-H torsion
[ 10167 10162 10161 10158 ] final   47.63 input  -65.29 | X-H torsion
[ 10718 10713 10712 10709 ] final  -36.22 input   66.30 | X-H torsion
[ 10763 10752 10751 10750 ] final  -38.59 input  -60.55 | X-H torsion
[ 11005 11000 10999 10996 ] final -105.75 input  -57.11 | X-H torsion

> <Gold.Protein.ActiveResidues>
 VAL166  LYS551  ARG553  GLY616  TRP617  ASP618  TYR619  PRO620  LYS621  CYS622 
 ASP623  PHE694  ASN695  SER759  ASP760  ASP761  ALA762  ILE779  LEU786  VAL792 
 PHE793  MET794  SER795  GLU796  ALA797  LYS798  CYS799  TRP800  GLU811  SER814 

> <Gold.Protein.RotatedAtoms>
  150.7957  134.7014  159.6551 H   0  0  0  0  0  0  0  0  0  0  0  0  # atno 6907 bound_to 6896
  152.4068  134.6189  160.0055 H   0  0  0  0  0  0  0  0  0  0  0  0  # atno 6908 bound_to 6896
  151.6444  133.3287  159.3173 H   0  0  0  0  0  0  0  0  0  0  0  0  # atno 6909 bound_to 6896
  145.8289  139.3127  143.0999 H   0  0  0  0  0  0  0  0  0  0  0  0  # atno 7974 bound_to 7965
  155.1574  140.3280  155.4418 H   0  0  0  0  0  0  0  0  0  0  0  0  # atno 8008 bound_to 7997
  156.2554  140.1966  156.6634 H   0  0  0  0  0  0  0  0  0  0  0  0  # atno 8009 bound_to 7997
  154.6429  140.0568  156.9853 H   0  0  0  0  0  0  0  0  0  0  0  0  # atno 8010 bound_to 7997
  140.3017  144.2926  150.6218 H   0  0  0  0  0  0  0  0  0  0  0  0  # atno 10167 bound_to 10162
  156.3295  130.4277  149.7886 H   0  0  0  0  0  0  0  0  0  0  0  0  # atno 10718 bound_to 10713
  153.9154  135.6788  153.4749 H   0  0  0  0  0  0  0  0  0  0  0  0  # atno 10763 bound_to 10752
  153.1056  135.4807  154.8943 H   0  0  0  0  0  0  0  0  0  0  0  0  # atno 10764 bound_to 10752
  154.7505  135.3183  154.8521 H   0  0  0  0  0  0  0  0  0  0  0  0  # atno 10765 bound_to 10752
  141.1038  133.8834  157.1772 H   0  0  0  0  0  0  0  0  0  0  0  0  # atno 11005 bound_to 11000
  145.9593  140.8848  143.0219 LP  0  0  0  0  0  0  0  0  0  0  0  0  # atno 17320 bound_to 7965
  144.6741  140.1789  143.7407 LP  0  0  0  0  0  0  0  0  0  0  0  0  # atno 17321 bound_to 7965
  140.5645  143.2188  151.7707 LP  0  0  0  0  0  0  0  0  0  0  0  0  # atno 17342 bound_to 10162
  139.4913  144.4302  151.9880 LP  0  0  0  0  0  0  0  0  0  0  0  0  # atno 17343 bound_to 10162
  156.5164  130.8195  151.3187 LP  0  0  0  0  0  0  0  0  0  0  0  0  # atno 17370 bound_to 10713
  157.7427  130.9897  150.2540 LP  0  0  0  0  0  0  0  0  0  0  0  0  # atno 17371 bound_to 10713
  139.9900  135.0068  156.9952 LP  0  0  0  0  0  0  0  0  0  0  0  0  # atno 17394 bound_to 11000
  140.4954  134.1151  155.7240 LP  0  0  0  0  0  0  0  0  0  0  0  0  # atno 17395 bound_to 11000

$$$$
