AV-unprocessed.smi:2091|AV-procd|sdf|8540|dock2
  -GOLD-   2272011263D 1   1.00000     0.00000
 Structure written by MMmdl.
 35 36  0  0  0  0  0  0  0  0  2 V2000
  147.7200  132.0864  154.0796 O   0  0  0  0  0  0  0  0  0  0  0  0
  148.1467  133.1559  153.6418 C   0  0  0  0  0  0  0  0  0  0  0  0
  149.3938  133.8112  154.2503 C   0  0  0  0  0  0  0  0  0  0  0  0
  150.0028  133.0059  155.3211 N   0  0  0  0  0  0  0  0  0  0  0  0
  150.2934  131.6588  155.0418 C   0  0  0  0  0  0  0  0  0  0  0  0
  150.8488  130.8464  155.9613 C   0  0  0  0  0  0  0  0  0  0  0  0
  151.1504  131.3970  157.2770 C   0  0  0  0  0  0  0  0  0  0  0  0
  151.6522  130.6681  158.1307 O   0  0  0  0  0  0  0  0  0  0  0  0
  150.8557  132.7119  157.4974 N   0  5  0  0  0  0  0  0  0  0  0  0
  150.2931  133.5269  156.5516 C   0  0  0  0  0  0  0  0  0  0  0  0
  150.0373  134.7118  156.7704 O   0  0  0  0  0  0  0  0  0  0  0  0
  147.5536  133.8309  152.6441 N   0  0  0  0  0  0  0  0  0  0  0  0
  146.3453  133.4079  151.9326 C   0  0  2  0  0  0  0  0  0  0  0  0
  146.7638  133.0049  150.4999 C   0  0  0  0  0  0  0  0  0  0  0  0
  145.7705  132.0553  149.8072 C   0  0  0  0  0  0  0  0  0  0  0  0
  144.3818  132.6533  149.5336 C   0  0  0  0  0  0  0  0  0  0  0  0
  143.6189  133.0566  150.8071 C   0  0  0  0  0  0  0  0  0  0  0  0
  144.0997  134.3171  151.3570 N   0  0  0  0  0  0  0  0  0  0  0  0
  145.3207  134.5642  151.8553 C   0  0  0  0  0  0  0  0  0  0  0  0
  145.6179  135.6959  152.2382 O   0  0  0  0  0  0  0  0  0  0  0  0
  150.1283  134.0084  153.4669 H   0  0  0  0  0  0  0  0  0  0  0  0
  149.1080  134.7937  154.6278 H   0  0  0  0  0  0  0  0  0  0  0  0
  150.0454  131.3322  154.0426 H   0  0  0  0  0  0  0  0  0  0  0  0
  151.0683  129.8146  155.7301 H   0  0  0  0  0  0  0  0  0  0  0  0
  147.9659  134.7067  152.3580 H   0  0  0  0  0  0  0  0  0  0  0  0
  145.9087  132.5522  152.4507 H   0  0  0  0  0  0  0  0  0  0  0  0
  146.9392  133.8864  149.8801 H   0  0  0  0  0  0  0  0  0  0  0  0
  147.7223  132.4852  150.5435 H   0  0  0  0  0  0  0  0  0  0  0  0
  146.2016  131.7360  148.8578 H   0  0  0  0  0  0  0  0  0  0  0  0
  145.6633  131.1478  150.4027 H   0  0  0  0  0  0  0  0  0  0  0  0
  144.4646  133.5062  148.8584 H   0  0  0  0  0  0  0  0  0  0  0  0
  143.7919  131.9067  149.0008 H   0  0  0  0  0  0  0  0  0  0  0  0
  142.5648  133.1942  150.5647 H   0  0  0  0  0  0  0  0  0  0  0  0
  143.6597  132.2682  151.5603 H   0  0  0  0  0  0  0  0  0  0  0  0
  143.4513  135.0908  151.3299 H   0  0  0  0  0  0  0  0  0  0  0  0
  1  2  2  0  0  0  0
  2  3  1  0  0  0  0
  2 12  1  0  0  0  0
  3  4  1  0  0  0  0
  3 21  1  0  0  0  0
  3 22  1  0  0  0  0
  4 10  1  0  0  0  0
  4  5  1  0  0  0  0
  5  6  2  0  0  0  0
  5 23  1  0  0  0  0
  6  7  1  0  0  0  0
  6 24  1  0  0  0  0
  7  8  2  0  0  0  0
  7  9  1  0  0  0  0
  9 10  1  0  0  0  0
 10 11  2  0  0  0  0
 12 13  1  0  0  0  0
 12 25  1  0  0  0  0
 13 19  1  0  0  0  0
 13 14  1  0  0  0  0
 13 26  1  0  0  0  0
 14 15  1  0  0  0  0
 14 27  1  0  0  0  0
 14 28  1  0  0  0  0
 15 16  1  0  0  0  0
 15 29  1  0  0  0  0
 15 30  1  0  0  0  0
 16 17  1  0  0  0  0
 16 31  1  0  0  0  0
 16 32  1  0  0  0  0
 17 18  1  0  0  0  0
 17 33  1  0  0  0  0
 17 34  1  0  0  0  0
 18 19  1  0  0  0  0
 18 35  1  0  0  0  0
 19 20  2  0  0  0  0
M  CHG  1   9  -1
M  END
> <s_m_source_file>
AV-unprocessed.smi

> <i_m_source_file_index>
2091

> <i_lp_mmshare_version>
43012

> <i_f3d_flags>
0

> <s_epik_input>
Tz1jMVtuSF1jKD1PKVtjSF1bY0hdbjFbQ0gyXUMoPU8pW05IXVtDQEBIXTJbQ0gyXVtDSDJdW0NIMl1bQ0gyXVtOSF1DMj1P

> <s_epik_cmdline>
J2VwaWtfcHl0aG9uJywgJy1waCcsICc3LjAnLCAnLXRuJywgJzgnLCAnLW1hJywgJzIwMCcsICctbWV0YWxfYmluZGluZycsICctaW1hZScsICc8aW5maWxlLm1hZT4nLCAnLW9tYWUnLCAnPG91dGZpbGUubWFlPic=

> <r_lp_tautomer_probability>
0.999537

> <r_epik_Ionization_Penalty>
3.03155

> <r_epik_Ionization_Penalty_Charging>
2.38195e-08

> <r_epik_Ionization_Penalty_Neutral>
3.03155

> <r_epik_State_Penalty>
3.03052

> <r_epik_Charging_Adjusted_Penalty>
3.03052

> <i_epik_Tot_Q>
-1

> <i_epik_Tot_abs_Q>
1

> <r_epik_Metal_State_Penalty>
0.455936

> <b_epik_Metal_Only>
1

> <s_lp_Force_Field>
OPLS_2005

> <r_lp_Energy>
21.0708

> <b_lp_Chiralities_Consistent>
1

> <s_lp_Variant>
AV-unprocessed.smi:2091-3

> <Gold.Version>
5.8.1

> <Gold.Id.Protein>
6NUR|6NUR_protein|mol2

> <Gold.PLP.Fitness>
41.6741

> <Gold.PLP.PLP>
-33.0178

> <Gold.PLP.part.hbond>
-2.0000

> <Gold.PLP.part.metal>
0.0000

> <Gold.PLP.part.buried>
-4.3053

> <Gold.PLP.part.nonpolar>
-26.4325

> <Gold.PLP.part.repulsive>
0.1996

> <Gold.PLP.ligand.clash>
0.0000

> <Gold.PLP.ligand.torsion>
0.1727

> <Gold.PLP.Chemscore.Hbond>
3.0000

> <Gold.PLP.Chemscore.CHOScore>
0.0000

> <Gold.PLP.Chemscore.Metal>
0.0000

> <Gold.Chemscore.Hbonds>
donor molecule, donor type, donor heavy atom, donor atom, acceptor molecule, acceptor atom, score
      L1  H    12    25       P1  7948  1.00
      P1  H  6896  6908       L1     9  1.92

> <Gold.PLP.Chemscore.Internal.Correction>
0.0018

> <Gold.Rescore>
     Score         DG    S(hbond)    S(metal)    S(lipo)     H(rot)  DE(clash)    DE(int)     intcor
     11.40     -12.68       1.61        0.00      56.03       1.85       0.00       1.29       ----

> <Gold.Chemscore.Fitness>
11.3953

> <Gold.Chemscore.DG>
-12.6835

> <Gold.Chemscore.ZeroCoef>
-5.4800

> <Gold.Chemscore.Hbond>
1.6134

> <Gold.Chemscore.Metal>
0.0000

> <Gold.Chemscore.Lipo>
56.0306

> <Gold.Chemscore.Internal_Hbond>
0.0000

> <Gold.Chemscore.DEClash>
0.0000

> <Gold.Chemscore.DEInternal>
1.2882

> <Gold.Chemscore.Rot>
1.8519

> <Gold.Chemscore.Internal.Correction>
   9.000000E+99

> <Gold.Chemscore.Hbonds>
donor molecule, donor type, donor heavy atom, donor atom, acceptor molecule, acceptor atom, score
      L1  H    12    25       P1  7948  0.55
      P1  H  6896  6908       L1     9  0.75

> <Gold.Chemscore.Hbond.Weighted>
-5.3887

> <Gold.Chemscore.Metal.Weighted>
-0.0000

> <Gold.Chemscore.Lipo.Weighted>
-6.5556

> <Gold.Chemscore.Internal_Hbond.Weighted>
0.0000

> <Gold.Chemscore.DEClash.Weighted>
0.0000

> <Gold.Chemscore.DEInternal.Weighted>
1.2882

> <Gold.Chemscore.Rot.Weighted>
4.7408

> <Gold.Chemscore.Internal.Correction.Weighted>
   9.000000E+99

> <Gold.Protein.RotatedTorsions>
[ 6907 6896 6895 6894 ] final   69.35 input  -60.11 | X-H torsion
[ 7974 7965 7964 7962 ] final   -9.80 input  175.53 | X-H torsion
[ 8008 7997 7996 7995 ] final -111.57 input   59.86 | X-H torsion
[ 10167 10162 10161 10158 ] final  -43.41 input  -65.29 | X-H torsion
[ 10718 10713 10712 10709 ] final  -94.20 input   66.30 | X-H torsion
[ 10763 10752 10751 10750 ] final  -45.78 input  -60.55 | X-H torsion
[ 11005 11000 10999 10996 ] final  -53.81 input  -57.11 | X-H torsion

> <Gold.Protein.ActiveResidues>
 VAL166  LYS551  ARG553  GLY616  TRP617  ASP618  TYR619  PRO620  LYS621  CYS622 
 ASP623  PHE694  ASN695  SER759  ASP760  ASP761  ALA762  ILE779  LEU786  VAL792 
 PHE793  MET794  SER795  GLU796  ALA797  LYS798  CYS799  TRP800  GLU811  SER814 

> <Gold.Protein.RotatedAtoms>
  152.4681  134.5028  159.9729 H   0  0  0  0  0  0  0  0  0  0  0  0  # atno 6907 bound_to 6896
  151.5061  133.3488  159.2885 H   0  0  0  0  0  0  0  0  0  0  0  0  # atno 6908 bound_to 6896
  150.8675  134.8070  159.7192 H   0  0  0  0  0  0  0  0  0  0  0  0  # atno 6909 bound_to 6896
  146.2240  140.2670  142.8354 H   0  0  0  0  0  0  0  0  0  0  0  0  # atno 7974 bound_to 7965
  154.9919  140.0395  157.2323 H   0  0  0  0  0  0  0  0  0  0  0  0  # atno 8008 bound_to 7997
  154.7621  140.2786  155.6183 H   0  0  0  0  0  0  0  0  0  0  0  0  # atno 8009 bound_to 7997
  156.2906  140.2626  156.2402 H   0  0  0  0  0  0  0  0  0  0  0  0  # atno 8010 bound_to 7997
  140.6935  143.2984  151.3349 H   0  0  0  0  0  0  0  0  0  0  0  0  # atno 10167 bound_to 10162
  156.0024  130.5058  150.5891 H   0  0  0  0  0  0  0  0  0  0  0  0  # atno 10718 bound_to 10713
  154.0342  135.6652  153.4783 H   0  0  0  0  0  0  0  0  0  0  0  0  # atno 10763 bound_to 10752
  153.0528  135.5074  154.7904 H   0  0  0  0  0  0  0  0  0  0  0  0  # atno 10764 bound_to 10752
  154.6859  135.3053  154.9513 H   0  0  0  0  0  0  0  0  0  0  0  0  # atno 10765 bound_to 10752
  141.0995  133.6620  156.4228 H   0  0  0  0  0  0  0  0  0  0  0  0  # atno 11005 bound_to 11000
  144.9297  140.7961  143.5697 LP  0  0  0  0  0  0  0  0  0  0  0  0  # atno 17320 bound_to 7965
  145.2612  139.1991  143.4891 LP  0  0  0  0  0  0  0  0  0  0  0  0  # atno 17321 bound_to 7965
  139.6362  144.0625  152.2518 LP  0  0  0  0  0  0  0  0  0  0  0  0  # atno 17342 bound_to 10162
  140.0116  144.6219  150.7642 LP  0  0  0  0  0  0  0  0  0  0  0  0  # atno 17343 bound_to 10162
  157.3759  131.0773  151.1518 LP  0  0  0  0  0  0  0  0  0  0  0  0  # atno 17370 bound_to 10713
  157.2257  130.6502  149.5829 LP  0  0  0  0  0  0  0  0  0  0  0  0  # atno 17371 bound_to 10713
  140.5058  134.6442  157.5266 LP  0  0  0  0  0  0  0  0  0  0  0  0  # atno 17394 bound_to 11000
  139.9841  134.7089  155.9805 LP  0  0  0  0  0  0  0  0  0  0  0  0  # atno 17395 bound_to 11000

$$$$
