AV-unprocessed.smi:1417|AV-procd|sdf|5768|dock6
  -GOLD-   22720 5413D 1   1.00000     0.00000
 Structure written by MMmdl.
 38 39  0  0  0  0  0  0  0  0  2 V2000
  152.9034  143.7543  162.0286 C   0  0  0  0  0  0  0  0  0  0  0  0
  153.3640  142.5314  161.3115 C   0  0  0  0  0  0  0  0  0  0  0  0
  153.0368  141.9876  160.1019 C   0  0  0  0  0  0  0  0  0  0  0  0
  153.8407  140.8165  160.0434 C   0  0  0  0  0  0  0  0  0  0  0  0
  153.8830  139.9392  159.0287 N   0  5  0  0  0  0  0  0  0  0  0  0
  152.7486  139.6018  158.3727 C   0  0  0  0  0  0  0  0  0  0  0  0
  152.0106  138.6482  158.6323 O   0  0  0  0  0  0  0  0  0  0  0  0
  152.4500  140.4209  157.3535 N   0  0  0  0  0  0  0  0  0  0  0  0
  151.2893  140.3091  156.4738 C   0  0  0  0  0  0  0  0  0  0  0  0
  151.7004  139.8078  155.0803 C   0  0  0  0  0  0  0  0  0  0  0  0
  150.5042  139.8108  154.1114 C   0  0  0  0  0  0  0  0  0  0  0  0
  149.9187  141.1565  154.0087 N   0  0  0  0  0  0  0  0  0  0  0  0
  148.7958  141.2113  153.0444 C   0  0  0  0  0  0  0  0  0  0  0  0
  147.9921  139.9118  152.9234 C   0  0  0  0  0  0  0  0  0  0  0  0
  148.4341  139.0040  152.0494 N   0  0  0  0  0  0  0  0  0  0  0  0
  146.9844  139.7348  153.6042 O   0  0  0  0  0  0  0  0  0  0  0  0
  149.4448  141.6050  155.3225 C   0  0  0  0  0  0  0  0  0  0  0  0
  150.6082  141.6758  156.3266 C   0  0  0  0  0  0  0  0  0  0  0  0
  154.6026  140.6727  161.1150 N   0  0  0  0  0  0  0  0  0  0  0  0
  154.2977  141.7648  161.9364 O   0  0  0  0  0  0  0  0  0  0  0  0
  153.1350  144.6494  161.4515 H   0  0  0  0  0  0  0  0  0  0  0  0
  153.3863  143.8455  163.0019 H   0  0  0  0  0  0  0  0  0  0  0  0
  151.8256  143.7236  162.1884 H   0  0  0  0  0  0  0  0  0  0  0  0
  152.3314  142.3632  159.3761 H   0  0  0  0  0  0  0  0  0  0  0  0
  153.0843  141.1860  157.1759 H   0  0  0  0  0  0  0  0  0  0  0  0
  150.5690  139.6130  156.9081 H   0  0  0  0  0  0  0  0  0  0  0  0
  152.4951  140.4378  154.6776 H   0  0  0  0  0  0  0  0  0  0  0  0
  152.1120  138.8003  155.1504 H   0  0  0  0  0  0  0  0  0  0  0  0
  150.8573  139.4643  153.1402 H   0  0  0  0  0  0  0  0  0  0  0  0
  149.7487  139.0970  154.4443 H   0  0  0  0  0  0  0  0  0  0  0  0
  148.1183  142.0239  153.3141 H   0  0  0  0  0  0  0  0  0  0  0  0
  149.1800  141.4474  152.0510 H   0  0  0  0  0  0  0  0  0  0  0  0
  147.9310  138.1367  151.9302 H   0  0  0  0  0  0  0  0  0  0  0  0
  149.2638  139.1922  151.5057 H   0  0  0  0  0  0  0  0  0  0  0  0
  148.9963  142.5955  155.2355 H   0  0  0  0  0  0  0  0  0  0  0  0
  148.6665  140.9364  155.6947 H   0  0  0  0  0  0  0  0  0  0  0  0
  150.2383  142.0145  157.2951 H   0  0  0  0  0  0  0  0  0  0  0  0
  151.3318  142.4217  155.9933 H   0  0  0  0  0  0  0  0  0  0  0  0
  1  2  1  0  0  0  0
  1 21  1  0  0  0  0
  1 22  1  0  0  0  0
  1 23  1  0  0  0  0
  2 20  1  0  0  0  0
  2  3  2  0  0  0  0
  3  4  1  0  0  0  0
  3 24  1  0  0  0  0
  4  5  1  0  0  0  0
  4 19  2  0  0  0  0
  5  6  1  0  0  0  0
  6  7  2  0  0  0  0
  6  8  1  0  0  0  0
  8  9  1  0  0  0  0
  8 25  1  0  0  0  0
  9 18  1  0  0  0  0
  9 10  1  0  0  0  0
  9 26  1  0  0  0  0
 10 11  1  0  0  0  0
 10 27  1  0  0  0  0
 10 28  1  0  0  0  0
 11 12  1  0  0  0  0
 11 29  1  0  0  0  0
 11 30  1  0  0  0  0
 12 13  1  0  0  0  0
 12 17  1  0  0  0  0
 13 14  1  0  0  0  0
 13 31  1  0  0  0  0
 13 32  1  0  0  0  0
 14 15  1  0  0  0  0
 14 16  2  0  0  0  0
 15 33  1  0  0  0  0
 15 34  1  0  0  0  0
 17 18  1  0  0  0  0
 17 35  1  0  0  0  0
 17 36  1  0  0  0  0
 18 37  1  0  0  0  0
 18 38  1  0  0  0  0
 19 20  1  0  0  0  0
M  CHG  1   5  -1
M  END
> <s_m_source_file>
AV-unprocessed.smi

> <i_m_source_file_index>
1417

> <i_lp_mmshare_version>
43012

> <i_f3d_flags>
0

> <s_epik_input>
W0NIM11jMVtjSF1jKG5vMSlbTkhdQyg9TylbTkhdW0NIXTJbQ0gyXVtDSDJdTihbQ0gyXVtDSDJdMilbQ0gyXUMoPU8pW05IMl0=

> <s_epik_cmdline>
J2VwaWtfcHl0aG9uJywgJy1waCcsICc3LjAnLCAnLXRuJywgJzgnLCAnLW1hJywgJzIwMCcsICctbWV0YWxfYmluZGluZycsICctaW1hZScsICc8aW5maWxlLm1hZT4nLCAnLW9tYWUnLCAnPG91dGZpbGUubWFlPic=

> <r_epik_Ionization_Penalty>
6.76533

> <r_epik_Ionization_Penalty_Charging>
6.59228

> <r_epik_Ionization_Penalty_Neutral>
0.17305

> <r_epik_State_Penalty>
6.73737

> <r_epik_Charging_Adjusted_Penalty>
13.3296

> <i_epik_Tot_Q>
-1

> <i_epik_Tot_abs_Q>
1

> <r_epik_Metal_State_Penalty>
2.67929

> <b_epik_Metal_Only>
1

> <s_lp_Force_Field>
OPLS_2005

> <r_lp_Energy>
4.40981

> <b_lp_Chiralities_Consistent>
1

> <s_lp_Variant>
AV-unprocessed.smi:1417-4

> <Gold.Version>
5.8.1

> <Gold.Id.Protein>
6NUR|6NUR_protein|mol2

> <Gold.PLP.Fitness>
42.9190

> <Gold.PLP.PLP>
-37.7425

> <Gold.PLP.part.hbond>
-3.8827

> <Gold.PLP.part.metal>
0.0000

> <Gold.PLP.part.buried>
-3.4370

> <Gold.PLP.part.nonpolar>
-29.2520

> <Gold.PLP.part.repulsive>
0.4204

> <Gold.PLP.ligand.clash>
0.0000

> <Gold.PLP.ligand.torsion>
1.9291

> <Gold.PLP.Chemscore.Hbond>
3.0000

> <Gold.PLP.Chemscore.CHOScore>
0.0000

> <Gold.PLP.Chemscore.Metal>
0.0000

> <Gold.Chemscore.Hbonds>
donor molecule, donor type, donor heavy atom, donor atom, acceptor molecule, acceptor atom, score
      L1  H    15    33       P1  7948  0.31
      P1  H  7997  8009       L1     5  0.89

> <Gold.PLP.Chemscore.Internal.Correction>
0.0345

> <Gold.Rescore>
     Score         DG    S(hbond)    S(metal)    S(lipo)     H(rot)  DE(clash)    DE(int)     intcor
     12.10     -14.21       1.73        0.00      68.89       2.00       0.05       2.06       ----

> <Gold.Chemscore.Fitness>
12.0982

> <Gold.Chemscore.DG>
-14.2105

> <Gold.Chemscore.ZeroCoef>
-5.4800

> <Gold.Chemscore.Hbond>
1.7315

> <Gold.Chemscore.Metal>
0.0000

> <Gold.Chemscore.Lipo>
68.8932

> <Gold.Chemscore.Internal_Hbond>
0.0000

> <Gold.Chemscore.DEClash>
0.0515

> <Gold.Chemscore.DEInternal>
2.0608

> <Gold.Chemscore.Rot>
1.9973

> <Gold.Chemscore.Internal.Correction>
   9.000000E+99

> <Gold.Chemscore.Hbonds>
donor molecule, donor type, donor heavy atom, donor atom, acceptor molecule, acceptor atom, score
      L1  H    15    33       P1  7948  0.31
      P1  H  7997  8009       L1     5  0.01

> <Gold.Chemscore.Hbond.Weighted>
-5.7831

> <Gold.Chemscore.Metal.Weighted>
-0.0000

> <Gold.Chemscore.Lipo.Weighted>
-8.0605

> <Gold.Chemscore.Internal_Hbond.Weighted>
0.0000

> <Gold.Chemscore.DEClash.Weighted>
0.0515

> <Gold.Chemscore.DEInternal.Weighted>
2.0608

> <Gold.Chemscore.Rot.Weighted>
5.1131

> <Gold.Chemscore.Internal.Correction.Weighted>
   9.000000E+99

> <Gold.Protein.RotatedTorsions>
[ 6907 6896 6895 6894 ] final   42.22 input  -60.11 | X-H torsion
[ 7974 7965 7964 7962 ] final -166.62 input  175.53 | X-H torsion
[ 8008 7997 7996 7995 ] final  135.62 input   59.86 | X-H torsion
[ 10167 10162 10161 10158 ] final  -49.25 input  -65.29 | X-H torsion
[ 10718 10713 10712 10709 ] final -131.08 input   66.30 | X-H torsion
[ 10763 10752 10751 10750 ] final  138.01 input  -60.55 | X-H torsion
[ 11005 11000 10999 10996 ] final  -25.02 input  -57.11 | X-H torsion

> <Gold.Protein.ActiveResidues>
 VAL166  LYS551  ARG553  GLY616  TRP617  ASP618  TYR619  PRO620  LYS621  CYS622 
 ASP623  PHE694  ASN695  SER759  ASP760  ASP761  ALA762  ILE779  LEU786  VAL792 
 PHE793  MET794  SER795  GLU796  ALA797  LYS798  CYS799  TRP800  GLU811  SER814 

> <Gold.Protein.RotatedAtoms>
  152.2051  134.8552  160.0503 H   0  0  0  0  0  0  0  0  0  0  0  0  # atno 6907 bound_to 6896
  151.9391  133.3628  159.3967 H   0  0  0  0  0  0  0  0  0  0  0  0  # atno 6908 bound_to 6896
  150.6963  134.4382  159.5324 H   0  0  0  0  0  0  0  0  0  0  0  0  # atno 6909 bound_to 6896
  144.7241  140.2640  143.6260 H   0  0  0  0  0  0  0  0  0  0  0  0  # atno 7974 bound_to 7965
  156.3003  140.2466  156.3611 H   0  0  0  0  0  0  0  0  0  0  0  0  # atno 8008 bound_to 7997
  154.8876  140.0410  157.1839 H   0  0  0  0  0  0  0  0  0  0  0  0  # atno 8009 bound_to 7997
  154.8631  140.2923  155.5531 H   0  0  0  0  0  0  0  0  0  0  0  0  # atno 8010 bound_to 7997
  140.6694  143.2705  151.4188 H   0  0  0  0  0  0  0  0  0  0  0  0  # atno 10167 bound_to 10162
  156.2208  130.6977  151.0753 H   0  0  0  0  0  0  0  0  0  0  0  0  # atno 10718 bound_to 10713
  153.8826  135.3042  155.3445 H   0  0  0  0  0  0  0  0  0  0  0  0  # atno 10763 bound_to 10752
  154.7754  135.4864  153.9737 H   0  0  0  0  0  0  0  0  0  0  0  0  # atno 10764 bound_to 10752
  153.1343  135.6810  153.9225 H   0  0  0  0  0  0  0  0  0  0  0  0  # atno 10765 bound_to 10752
  140.8899  133.7595  156.0408 H   0  0  0  0  0  0  0  0  0  0  0  0  # atno 11005 bound_to 11000
  145.8108  139.2002  143.1994 LP  0  0  0  0  0  0  0  0  0  0  0  0  # atno 17320 bound_to 7965
  146.0598  140.7983  142.9740 LP  0  0  0  0  0  0  0  0  0  0  0  0  # atno 17321 bound_to 7965
  139.5955  144.1406  152.2139 LP  0  0  0  0  0  0  0  0  0  0  0  0  # atno 17342 bound_to 10162
  140.0774  144.5729  150.7147 LP  0  0  0  0  0  0  0  0  0  0  0  0  # atno 17343 bound_to 10162
  157.7086  131.0745  150.6579 LP  0  0  0  0  0  0  0  0  0  0  0  0  # atno 17370 bound_to 10713
  156.6642  130.4521  149.5677 LP  0  0  0  0  0  0  0  0  0  0  0  0  # atno 17371 bound_to 10713
  140.8359  134.3123  157.5331 LP  0  0  0  0  0  0  0  0  0  0  0  0  # atno 17394 bound_to 11000
  139.8728  134.9389  156.3728 LP  0  0  0  0  0  0  0  0  0  0  0  0  # atno 17395 bound_to 11000

$$$$
