AV-unprocessed.smi:1360|AV-procd|sdf|5552|dock3
  -GOLD-   22720 5143D 1   1.00000     0.00000
 Structure written by MMmdl.
 36 37  0  0  0  0  0  0  0  0  1 V2000
  152.1895  139.5742  155.0024 C   0  0  0  0  0  0  0  0  0  0  0  0
  150.9389  140.4661  155.0707 C   0  0  1  0  0  0  0  0  0  0  0  0
  149.6296  139.6666  155.2485 C   0  0  0  0  0  0  0  0  0  0  0  0
  148.4895  140.3112  154.6217 N   0  0  0  0  0  0  0  0  0  0  0  0
  147.9876  141.5740  154.8560 C   0  0  0  0  0  0  0  0  0  0  0  0
  146.9107  141.7422  154.0335 C   0  0  0  0  0  0  0  0  0  0  0  0
  146.8294  140.5097  153.3270 C   0  0  0  0  0  0  0  0  0  0  0  0
  147.7751  139.6548  153.6816 N   0  0  0  0  0  0  0  0  0  0  0  0
  151.0950  141.4241  156.1613 N   0  0  0  0  0  0  0  0  0  0  0  0
  151.1285  141.1198  157.4683 C   0  0  0  0  0  0  0  0  0  0  0  0
  151.0319  139.9691  157.8965 O   0  0  0  0  0  0  0  0  0  0  0  0
  151.2975  142.2960  158.4394 C   0  0  2  0  0  0  0  0  0  0  0  0
  151.3366  143.6465  157.6867 C   0  0  0  0  0  0  0  0  0  0  0  0
  151.7543  144.7935  158.5902 C   0  0  0  0  0  0  0  0  0  0  0  0
  152.3422  144.6164  159.7859 C   0  0  0  0  0  0  0  0  0  0  0  0
  152.6611  143.2499  160.3662 C   0  0  0  0  0  0  0  0  0  0  0  0
  152.5569  142.1301  159.3132 C   0  0  0  0  0  0  0  0  0  0  0  0
  152.1573  138.9051  154.1424 H   0  0  0  0  0  0  0  0  0  0  0  0
  152.2878  138.9606  155.8984 H   0  0  0  0  0  0  0  0  0  0  0  0
  153.0945  140.1754  154.9092 H   0  0  0  0  0  0  0  0  0  0  0  0
  150.8831  141.0177  154.1301 H   0  0  0  0  0  0  0  0  0  0  0  0
  149.7400  138.6624  154.8353 H   0  0  0  0  0  0  0  0  0  0  0  0
  149.4013  139.5419  156.3079 H   0  0  0  0  0  0  0  0  0  0  0  0
  148.4358  142.2400  155.5788 H   0  0  0  0  0  0  0  0  0  0  0  0
  146.2770  142.6125  153.9496 H   0  0  0  0  0  0  0  0  0  0  0  0
  146.1158  140.2128  152.5724 H   0  0  0  0  0  0  0  0  0  0  0  0
  151.1815  142.3961  155.9020 H   0  0  0  0  0  0  0  0  0  0  0  0
  150.4344  142.3102  159.1079 H   0  0  0  0  0  0  0  0  0  0  0  0
  152.0299  143.6137  156.8450 H   0  0  0  0  0  0  0  0  0  0  0  0
  150.3507  143.8683  157.2767 H   0  0  0  0  0  0  0  0  0  0  0  0
  151.5697  145.7932  158.2253 H   0  0  0  0  0  0  0  0  0  0  0  0
  152.6032  145.4741  160.3883 H   0  0  0  0  0  0  0  0  0  0  0  0
  153.6636  143.2652  160.7943 H   0  0  0  0  0  0  0  0  0  0  0  0
  151.9681  143.0615  161.1867 H   0  0  0  0  0  0  0  0  0  0  0  0
  152.5587  141.1592  159.8105 H   0  0  0  0  0  0  0  0  0  0  0  0
  153.4452  142.1526  158.6796 H   0  0  0  0  0  0  0  0  0  0  0  0
  1  2  1  0  0  0  0
  1 18  1  0  0  0  0
  1 19  1  0  0  0  0
  1 20  1  0  0  0  0
  2  3  1  0  0  0  0
  2  9  1  0  0  0  0
  2 21  1  0  0  0  0
  3  4  1  0  0  0  0
  3 22  1  0  0  0  0
  3 23  1  0  0  0  0
  4  8  1  0  0  0  0
  4  5  1  0  0  0  0
  5  6  2  0  0  0  0
  5 24  1  0  0  0  0
  6  7  1  0  0  0  0
  6 25  1  0  0  0  0
  7  8  2  0  0  0  0
  7 26  1  0  0  0  0
  9 10  1  0  0  0  0
  9 27  1  0  0  0  0
 10 11  2  0  0  0  0
 10 12  1  0  0  0  0
 12 17  1  0  0  0  0
 12 13  1  0  0  0  0
 12 28  1  0  0  0  0
 13 14  1  0  0  0  0
 13 29  1  0  0  0  0
 13 30  1  0  0  0  0
 14 15  2  0  0  0  0
 14 31  1  0  0  0  0
 15 16  1  0  0  0  0
 15 32  1  0  0  0  0
 16 17  1  0  0  0  0
 16 33  1  0  0  0  0
 16 34  1  0  0  0  0
 17 35  1  0  0  0  0
 17 36  1  0  0  0  0
M  END
> <s_m_source_file>
AV-unprocessed.smi

> <i_m_source_file_index>
1360

> <i_lp_mmshare_version>
43012

> <i_f3d_flags>
0

> <s_epik_input>
bjFbY0hdW2NIXVtjSF1uMVtDSDJdW0NAQEhdKFtDSDNdKVtOSF1DKD1PKVtDQEBIXTJbQ0gyXVtDSF09W0NIXVtDSDJdW0NIMl0y

> <s_epik_cmdline>
J2VwaWtfcHl0aG9uJywgJy1waCcsICc3LjAnLCAnLXRuJywgJzgnLCAnLW1hJywgJzIwMCcsICctbWV0YWxfYmluZGluZycsICctaW1hZScsICc8aW5maWxlLm1hZT4nLCAnLW9tYWUnLCAnPG91dGZpbGUubWFlPic=

> <r_lp_tautomer_probability>
1

> <r_epik_Ionization_Penalty>
0.000315076

> <r_epik_Ionization_Penalty_Charging>
0

> <r_epik_Ionization_Penalty_Neutral>
0.000315076

> <r_epik_State_Penalty>
-0

> <r_epik_Charging_Adjusted_Penalty>
0

> <i_epik_Tot_Q>
0

> <i_epik_Tot_abs_Q>
0

> <r_epik_Metal_State_Penalty>
-0

> <b_epik_Metal_Only>
0

> <s_lp_Force_Field>
OPLS_2005

> <r_lp_Energy>
7.97441

> <b_lp_Chiralities_Consistent>
1

> <s_lp_Variant>
AV-unprocessed.smi:1360-2

> <Gold.Version>
5.8.1

> <Gold.Id.Protein>
6NUR|6NUR_protein|mol2

> <Gold.PLP.Fitness>
42.4153

> <Gold.PLP.PLP>
-38.8166

> <Gold.PLP.part.hbond>
0.0000

> <Gold.PLP.part.metal>
0.0000

> <Gold.PLP.part.buried>
-4.2859

> <Gold.PLP.part.nonpolar>
-35.7992

> <Gold.PLP.part.repulsive>
0.2945

> <Gold.PLP.ligand.clash>
1.5777

> <Gold.PLP.ligand.torsion>
0.4140

> <Gold.PLP.Chemscore.Hbond>
0.0000

> <Gold.PLP.Chemscore.CHOScore>
1.9885

> <Gold.PLP.Chemscore.Metal>
0.0000

> <Gold.Chemscore.Hbonds>
donor molecule, donor type, donor heavy atom, donor atom, acceptor molecule, acceptor atom, score
      L1  C     5    24       P1  8028  1.00
      L1  C     7    26       P1 10175  1.00

> <Gold.PLP.Chemscore.Internal.Correction>
0.0389

> <Gold.Rescore>
     Score         DG    S(hbond)    S(metal)    S(lipo)     H(rot)  DE(clash)    DE(int)     intcor
     12.85     -14.46       0.00        0.00     109.70       1.51       0.09       1.51       ----

> <Gold.Chemscore.Fitness>
12.8526

> <Gold.Chemscore.DG>
-14.4608

> <Gold.Chemscore.ZeroCoef>
-5.4800

> <Gold.Chemscore.Hbond>
0.0000

> <Gold.Chemscore.Metal>
0.0000

> <Gold.Chemscore.Lipo>
109.7041

> <Gold.Chemscore.Internal_Hbond>
0.0000

> <Gold.Chemscore.DEClash>
0.0947

> <Gold.Chemscore.DEInternal>
1.5134

> <Gold.Chemscore.Rot>
1.5057

> <Gold.Chemscore.Internal.Correction>
   9.000000E+99

> <Gold.Chemscore.Hbond.Weighted>
-0.0000

> <Gold.Chemscore.Metal.Weighted>
-0.0000

> <Gold.Chemscore.Lipo.Weighted>
-12.8354

> <Gold.Chemscore.Internal_Hbond.Weighted>
0.0000

> <Gold.Chemscore.DEClash.Weighted>
0.0947

> <Gold.Chemscore.DEInternal.Weighted>
1.5134

> <Gold.Chemscore.Rot.Weighted>
3.8546

> <Gold.Chemscore.Internal.Correction.Weighted>
   9.000000E+99

> <Gold.Protein.RotatedTorsions>
[ 6907 6896 6895 6894 ] final    6.82 input  -60.11 | X-H torsion
[ 7974 7965 7964 7962 ] final  -26.23 input  175.53 | X-H torsion
[ 8008 7997 7996 7995 ] final  -95.16 input   59.86 | X-H torsion
[ 10167 10162 10161 10158 ] final   63.02 input  -65.29 | X-H torsion
[ 10718 10713 10712 10709 ] final   71.23 input   66.30 | X-H torsion
[ 10763 10752 10751 10750 ] final  -88.01 input  -60.55 | X-H torsion
[ 11005 11000 10999 10996 ] final -130.90 input  -57.11 | X-H torsion

> <Gold.Protein.ActiveResidues>
 VAL166  LYS551  ARG553  GLY616  TRP617  ASP618  TYR619  PRO620  LYS621  CYS622 
 ASP623  PHE694  ASN695  SER759  ASP760  ASP761  ALA762  ILE779  LEU786  VAL792 
 PHE793  MET794  SER795  GLU796  ALA797  LYS798  CYS799  TRP800  GLU811  SER814 

> <Gold.Protein.RotatedAtoms>
  151.6799  135.0963  160.0213 H   0  0  0  0  0  0  0  0  0  0  0  0  # atno 6907 bound_to 6896
  152.3842  133.6583  159.6194 H   0  0  0  0  0  0  0  0  0  0  0  0  # atno 6908 bound_to 6896
  150.7771  133.8980  159.3374 H   0  0  0  0  0  0  0  0  0  0  0  0  # atno 6909 bound_to 6896
  146.1439  140.4993  142.8640 H   0  0  0  0  0  0  0  0  0  0  0  0  # atno 7974 bound_to 7965
  154.7577  140.0482  157.0947 H   0  0  0  0  0  0  0  0  0  0  0  0  # atno 8008 bound_to 7997
  154.9977  140.3121  155.4860 H   0  0  0  0  0  0  0  0  0  0  0  0  # atno 8009 bound_to 7997
  156.2898  140.2207  156.5085 H   0  0  0  0  0  0  0  0  0  0  0  0  # atno 8010 bound_to 7997
  140.1376  144.4584  150.6829 H   0  0  0  0  0  0  0  0  0  0  0  0  # atno 10167 bound_to 10162
  157.6441  130.9517  150.0760 H   0  0  0  0  0  0  0  0  0  0  0  0  # atno 10718 bound_to 10713
  154.6399  135.5392  153.7777 H   0  0  0  0  0  0  0  0  0  0  0  0  # atno 10763 bound_to 10752
  153.0328  135.6456  154.1175 H   0  0  0  0  0  0  0  0  0  0  0  0  # atno 10764 bound_to 10752
  154.1100  135.2927  155.3212 H   0  0  0  0  0  0  0  0  0  0  0  0  # atno 10765 bound_to 10752
  140.9305  134.1325  157.4238 H   0  0  0  0  0  0  0  0  0  0  0  0  # atno 11005 bound_to 11000
  144.7823  140.5866  143.6597 LP  0  0  0  0  0  0  0  0  0  0  0  0  # atno 17320 bound_to 7965
  145.4983  139.1484  143.3671 LP  0  0  0  0  0  0  0  0  0  0  0  0  # atno 17321 bound_to 7965
  140.6780  143.2313  151.5459 LP  0  0  0  0  0  0  0  0  0  0  0  0  # atno 17342 bound_to 10162
  139.5488  144.2450  152.1492 LP  0  0  0  0  0  0  0  0  0  0  0  0  # atno 17343 bound_to 10162
  156.1750  130.3648  149.9113 LP  0  0  0  0  0  0  0  0  0  0  0  0  # atno 17370 bound_to 10713
  156.7079  130.8958  151.3606 LP  0  0  0  0  0  0  0  0  0  0  0  0  # atno 17371 bound_to 10713
  139.8795  135.0003  156.6004 LP  0  0  0  0  0  0  0  0  0  0  0  0  # atno 17394 bound_to 11000
  140.7868  133.8614  155.8613 LP  0  0  0  0  0  0  0  0  0  0  0  0  # atno 17395 bound_to 11000

$$$$
