AV-unprocessed.smi:3006|AV-procd|sdf|11445|dock4
  -GOLD-   2272016373D 1   1.00000     0.00000
 Structure written by MMmdl.
 44 45  0  0  0  0  0  0  0  0  1 V2000
  152.0230  145.2146  158.9691 C   0  0  0  0  0  0  0  0  0  0  0  0
  152.3376  144.1141  159.9233 C   0  0  0  0  0  0  0  0  0  0  0  0
  152.6631  142.8778  159.5374 N   0  0  0  0  0  0  0  0  0  0  0  0
  152.9036  142.0221  160.6172 C   0  0  0  0  0  0  0  0  0  0  0  0
  153.2739  140.5911  160.3710 C   0  0  0  0  0  0  0  0  0  0  0  0
  153.4104  140.2769  158.8723 C   0  0  0  0  0  0  0  0  0  0  0  0
  152.1140  140.0071  158.2611 N   0  0  0  0  0  0  0  0  0  0  0  0
  151.9242  139.5723  157.0039 C   0  0  0  0  0  0  0  0  0  0  0  0
  152.8637  139.3356  156.2430 O   0  0  0  0  0  0  0  0  0  0  0  0
  150.6270  139.3664  156.6678 N   0  0  0  0  0  0  0  0  0  0  0  0
  149.4445  139.8040  157.4178 C   0  0  0  0  0  0  0  0  0  0  0  0
  148.7787  140.9680  156.6584 C   0  0  0  0  0  0  0  0  0  0  0  0
  148.3756  140.5633  155.3001 N   0  0  0  0  0  0  0  0  0  0  0  0
  147.7310  141.6768  154.5742 C   0  0  0  0  0  0  0  0  0  0  0  0
  146.5974  142.3176  155.4048 C   0  0  0  0  0  0  0  0  0  0  0  0
  147.1437  141.2218  153.2199 C   0  0  0  0  0  0  0  0  0  0  0  0
  149.5583  140.0573  154.5821 C   0  0  0  0  0  0  0  0  0  0  0  0
  150.2188  138.8941  155.3455 C   0  0  0  0  0  0  0  0  0  0  0  0
  152.7581  142.6360  161.8364 C   0  0  0  0  0  0  0  0  0  0  0  0
  152.3093  144.3113  161.6716 S   0  0  0  0  0  0  0  0  0  0  0  0
  152.7528  145.2324  158.1595 H   0  0  0  0  0  0  0  0  0  0  0  0
  152.0459  146.1771  159.4802 H   0  0  0  0  0  0  0  0  0  0  0  0
  151.0300  145.0667  158.5446 H   0  0  0  0  0  0  0  0  0  0  0  0
  154.2109  140.3584  160.8785 H   0  0  0  0  0  0  0  0  0  0  0  0
  152.5236  139.9358  160.8151 H   0  0  0  0  0  0  0  0  0  0  0  0
  153.9076  141.0983  158.3534 H   0  0  0  0  0  0  0  0  0  0  0  0
  154.0386  139.3968  158.7314 H   0  0  0  0  0  0  0  0  0  0  0  0
  151.2981  140.1607  158.8358 H   0  0  0  0  0  0  0  0  0  0  0  0
  148.7474  138.9701  157.5138 H   0  0  0  0  0  0  0  0  0  0  0  0
  149.6633  140.1194  158.4377 H   0  0  0  0  0  0  0  0  0  0  0  0
  147.9131  141.2776  157.2408 H   0  0  0  0  0  0  0  0  0  0  0  0
  149.4563  141.8220  156.6081 H   0  0  0  0  0  0  0  0  0  0  0  0
  148.4817  142.4432  154.3752 H   0  0  0  0  0  0  0  0  0  0  0  0
  146.0343  143.0366  154.8091 H   0  0  0  0  0  0  0  0  0  0  0  0
  146.9715  142.8727  156.2642 H   0  0  0  0  0  0  0  0  0  0  0  0
  145.8919  141.5666  155.7622 H   0  0  0  0  0  0  0  0  0  0  0  0
  146.5441  142.0125  152.7680 H   0  0  0  0  0  0  0  0  0  0  0  0
  146.4995  140.3496  153.3363 H   0  0  0  0  0  0  0  0  0  0  0  0
  147.9173  140.9825  152.4909 H   0  0  0  0  0  0  0  0  0  0  0  0
  149.2797  139.6792  153.6001 H   0  0  0  0  0  0  0  0  0  0  0  0
  150.2766  140.8641  154.4275 H   0  0  0  0  0  0  0  0  0  0  0  0
  151.0551  138.4993  154.7668 H   0  0  0  0  0  0  0  0  0  0  0  0
  149.5175  138.0650  155.4535 H   0  0  0  0  0  0  0  0  0  0  0  0
  152.8851  142.2047  162.8184 H   0  0  0  0  0  0  0  0  0  0  0  0
  1  2  1  0  0  0  0
  1 21  1  0  0  0  0
  1 22  1  0  0  0  0
  1 23  1  0  0  0  0
  2 20  1  0  0  0  0
  2  3  2  0  0  0  0
  3  4  1  0  0  0  0
  4  5  1  0  0  0  0
  4 19  2  0  0  0  0
  5  6  1  0  0  0  0
  5 24  1  0  0  0  0
  5 25  1  0  0  0  0
  6  7  1  0  0  0  0
  6 26  1  0  0  0  0
  6 27  1  0  0  0  0
  7  8  1  0  0  0  0
  7 28  1  0  0  0  0
  8  9  2  0  0  0  0
  8 10  1  0  0  0  0
 10 18  1  0  0  0  0
 10 11  1  0  0  0  0
 11 12  1  0  0  0  0
 11 29  1  0  0  0  0
 11 30  1  0  0  0  0
 12 13  1  0  0  0  0
 12 31  1  0  0  0  0
 12 32  1  0  0  0  0
 13 14  1  0  0  0  0
 13 17  1  0  0  0  0
 14 15  1  0  0  0  0
 14 16  1  0  0  0  0
 14 33  1  0  0  0  0
 15 34  1  0  0  0  0
 15 35  1  0  0  0  0
 15 36  1  0  0  0  0
 16 37  1  0  0  0  0
 16 38  1  0  0  0  0
 16 39  1  0  0  0  0
 17 18  1  0  0  0  0
 17 40  1  0  0  0  0
 17 41  1  0  0  0  0
 18 42  1  0  0  0  0
 18 43  1  0  0  0  0
 19 20  1  0  0  0  0
 19 44  1  0  0  0  0
M  END
> <s_m_source_file>
AV-unprocessed.smi

> <i_m_source_file_index>
3006

> <i_lp_mmshare_version>
43012

> <i_f3d_flags>
0

> <s_epik_input>
W0NIM11jMW5jKFtjSF1zMSlbQ0gyXVtDSDJdW05IXUMoPU8pTjJbQ0gyXVtDSDJdTihbQ0hdKFtDSDNdKVtDSDNdKVtDSDJdW0NIMl0y

> <s_epik_cmdline>
J2VwaWtfcHl0aG9uJywgJy1waCcsICc3LjAnLCAnLXRuJywgJzgnLCAnLW1hJywgJzIwMCcsICctbWV0YWxfYmluZGluZycsICctaW1hZScsICc8aW5maWxlLm1hZT4nLCAnLW9tYWUnLCAnPG91dGZpbGUubWFlPic=

> <r_epik_Ionization_Penalty>
0.875753

> <r_epik_Ionization_Penalty_Charging>
0

> <r_epik_Ionization_Penalty_Neutral>
0.875753

> <r_epik_State_Penalty>
0.930306

> <r_epik_Charging_Adjusted_Penalty>
0.930306

> <i_epik_Tot_Q>
0

> <i_epik_Tot_abs_Q>
0

> <r_epik_Metal_State_Penalty>
0.928801

> <b_epik_Metal_Only>
0

> <s_lp_Force_Field>
OPLS_2005

> <r_lp_Energy>
38.048

> <b_lp_Chiralities_Consistent>
1

> <s_lp_Variant>
AV-unprocessed.smi:3006-2

> <Gold.Version>
5.8.1

> <Gold.Id.Protein>
6NUR|6NUR_protein|mol2

> <Gold.PLP.Fitness>
42.5874

> <Gold.PLP.PLP>
-39.9712

> <Gold.PLP.part.hbond>
-1.0000

> <Gold.PLP.part.metal>
0.0000

> <Gold.PLP.part.buried>
-5.2495

> <Gold.PLP.part.nonpolar>
-34.0462

> <Gold.PLP.part.repulsive>
0.1704

> <Gold.PLP.ligand.clash>
0.0000

> <Gold.PLP.ligand.torsion>
0.2300

> <Gold.PLP.Chemscore.Hbond>
1.0000

> <Gold.PLP.Chemscore.CHOScore>
0.0000

> <Gold.PLP.Chemscore.Metal>
0.0000

> <Gold.Chemscore.Hbonds>
donor molecule, donor type, donor heavy atom, donor atom, acceptor molecule, acceptor atom, score
      P1  H  7997  8009       L1     9  1.00

> <Gold.PLP.Chemscore.Internal.Correction>
0.0762

> <Gold.Rescore>
     Score         DG    S(hbond)    S(metal)    S(lipo)     H(rot)  DE(clash)    DE(int)     intcor
     18.10     -18.41       1.00        0.00     112.33       1.39       0.08       0.23       ----

> <Gold.Chemscore.Fitness>
18.0995

> <Gold.Chemscore.DG>
-18.4083

> <Gold.Chemscore.ZeroCoef>
-5.4800

> <Gold.Chemscore.Hbond>
0.9983

> <Gold.Chemscore.Metal>
0.0000

> <Gold.Chemscore.Lipo>
112.3283

> <Gold.Chemscore.Internal_Hbond>
0.0000

> <Gold.Chemscore.DEClash>
0.0765

> <Gold.Chemscore.DEInternal>
0.2323

> <Gold.Chemscore.Rot>
1.3861

> <Gold.Chemscore.Internal.Correction>
   9.000000E+99

> <Gold.Chemscore.Hbonds>
donor molecule, donor type, donor heavy atom, donor atom, acceptor molecule, acceptor atom, score
      P1  H  7997  8009       L1     9  0.99

> <Gold.Chemscore.Hbond.Weighted>
-3.3344

> <Gold.Chemscore.Metal.Weighted>
-0.0000

> <Gold.Chemscore.Lipo.Weighted>
-13.1424

> <Gold.Chemscore.Internal_Hbond.Weighted>
0.0000

> <Gold.Chemscore.DEClash.Weighted>
0.0765

> <Gold.Chemscore.DEInternal.Weighted>
0.2323

> <Gold.Chemscore.Rot.Weighted>
3.5484

> <Gold.Chemscore.Internal.Correction.Weighted>
   9.000000E+99

> <Gold.Protein.RotatedTorsions>
[ 6907 6896 6895 6894 ] final  -74.33 input  -60.11 | X-H torsion
[ 7974 7965 7964 7962 ] final   97.76 input  175.53 | X-H torsion
[ 8008 7997 7996 7995 ] final -148.32 input   59.86 | X-H torsion
[ 10167 10162 10161 10158 ] final   55.01 input  -65.29 | X-H torsion
[ 10718 10713 10712 10709 ] final   32.48 input   66.30 | X-H torsion
[ 10763 10752 10751 10750 ] final   67.68 input  -60.55 | X-H torsion
[ 11005 11000 10999 10996 ] final   47.25 input  -57.11 | X-H torsion

> <Gold.Protein.ActiveResidues>
 VAL166  LYS551  ARG553  GLY616  TRP617  ASP618  TYR619  PRO620  LYS621  CYS622 
 ASP623  PHE694  ASN695  SER759  ASP760  ASP761  ALA762  ILE779  LEU786  VAL792 
 PHE793  MET794  SER795  GLU796  ALA797  LYS798  CYS799  TRP800  GLU811  SER814 

> <Gold.Protein.RotatedAtoms>
  150.7097  134.4885  159.5504 H   0  0  0  0  0  0  0  0  0  0  0  0  # atno 6907 bound_to 6896
  152.2508  134.8132  160.0455 H   0  0  0  0  0  0  0  0  0  0  0  0  # atno 6908 bound_to 6896
  151.8880  133.3474  159.3825 H   0  0  0  0  0  0  0  0  0  0  0  0  # atno 6909 bound_to 6896
  145.4212  139.2321  143.3195 H   0  0  0  0  0  0  0  0  0  0  0  0  # atno 7974 bound_to 7965
  155.5897  140.0651  157.2762 H   0  0  0  0  0  0  0  0  0  0  0  0  # atno 8008 bound_to 7997
  154.4309  140.1837  156.1108 H   0  0  0  0  0  0  0  0  0  0  0  0  # atno 8009 bound_to 7997
  156.0242  140.3313  155.7074 H   0  0  0  0  0  0  0  0  0  0  0  0  # atno 8010 bound_to 7997
  140.2240  144.3758  150.6439 H   0  0  0  0  0  0  0  0  0  0  0  0  # atno 10167 bound_to 10162
  157.2857  130.7277  149.6582 H   0  0  0  0  0  0  0  0  0  0  0  0  # atno 10718 bound_to 10713
  153.0198  135.5275  154.7017 H   0  0  0  0  0  0  0  0  0  0  0  0  # atno 10763 bound_to 10752
  154.6124  135.2880  155.0420 H   0  0  0  0  0  0  0  0  0  0  0  0  # atno 10764 bound_to 10752
  154.1437  135.6574  153.5000 H   0  0  0  0  0  0  0  0  0  0  0  0  # atno 10765 bound_to 10752
  140.1296  134.4723  155.8532 H   0  0  0  0  0  0  0  0  0  0  0  0  # atno 11005 bound_to 11000
  146.2655  140.4937  142.8836 LP  0  0  0  0  0  0  0  0  0  0  0  0  # atno 17320 bound_to 7965
  144.8244  140.6603  143.6332 LP  0  0  0  0  0  0  0  0  0  0  0  0  # atno 17321 bound_to 7965
  140.6234  143.2178  151.6647 LP  0  0  0  0  0  0  0  0  0  0  0  0  # atno 17342 bound_to 10162
  139.5134  144.3446  152.0709 LP  0  0  0  0  0  0  0  0  0  0  0  0  # atno 17343 bound_to 10162
  155.9665  130.4324  150.4962 LP  0  0  0  0  0  0  0  0  0  0  0  0  # atno 17370 bound_to 10713
  157.2915  131.0627  151.2130 LP  0  0  0  0  0  0  0  0  0  0  0  0  # atno 17371 bound_to 10713
  141.2168  133.6791  156.7044 LP  0  0  0  0  0  0  0  0  0  0  0  0  # atno 17394 bound_to 11000
  140.2859  134.8279  157.3974 LP  0  0  0  0  0  0  0  0  0  0  0  0  # atno 17395 bound_to 11000

$$$$
