AV-unprocessed.smi:2578|AV-procd|sdf|10122|dock10
  -GOLD-   2272014143D 1   1.00000     0.00000
 Structure written by MMmdl.
 41 42  0  0  0  0  0  0  0  0  1 V2000
  145.7397  135.6484  151.2971 C   0  0  0  0  0  0  0  0  0  0  0  0
  145.6321  134.1328  151.2593 C   0  0  0  0  0  0  0  0  0  0  0  0
  144.5933  133.5501  150.6202 C   0  0  0  0  0  0  0  0  0  0  0  0
  144.4250  132.0984  150.5422 C   0  0  0  0  0  0  0  0  0  0  0  0
  143.4743  131.5770  149.9589 O   0  0  0  0  0  0  0  0  0  0  0  0
  145.3903  131.3622  151.1576 N   0  0  0  0  0  0  0  0  0  0  0  0
  145.3142  129.8987  151.1366 C   0  0  0  0  0  0  0  0  0  0  0  0
  146.4732  131.9549  151.8288 C   0  0  0  0  0  0  0  0  0  0  0  0
  146.6356  133.2950  151.9050 C   0  0  0  0  0  0  0  0  0  0  0  0
  147.7008  133.9352  152.5633 N   0  0  0  0  0  0  0  0  0  0  0  0
  148.3344  133.6075  153.7056 C   0  0  0  0  0  0  0  0  0  0  0  0
  148.0833  132.6402  154.4235 O   0  0  0  0  0  0  0  0  0  0  0  0
  149.3110  134.4853  153.9772 N   0  0  0  0  0  0  0  0  0  0  0  0
  150.2048  134.4127  155.1274 C   0  0  0  0  0  0  0  0  0  0  0  0
  150.1330  135.6933  155.9764 C   0  0  0  0  0  0  0  0  0  0  0  0
  151.1633  136.7264  155.5657 C   0  0  0  0  0  0  0  0  0  0  0  0
  151.2432  137.3429  154.3874 C   0  0  0  0  0  0  0  0  0  0  0  0
  152.4063  138.2932  154.3074 C   0  0  0  0  0  0  0  0  0  0  0  0
  153.0918  138.1625  155.6860 C   0  0  0  0  0  0  0  0  0  0  0  0
  152.2675  137.1426  156.5034 C   0  0  0  0  0  0  0  0  0  0  0  0
  144.9170  136.1263  150.7642 H   0  0  0  0  0  0  0  0  0  0  0  0
  146.6719  135.9737  150.8346 H   0  0  0  0  0  0  0  0  0  0  0  0
  145.7228  136.0037  152.3276 H   0  0  0  0  0  0  0  0  0  0  0  0
  143.8494  134.1715  150.1430 H   0  0  0  0  0  0  0  0  0  0  0  0
  146.1688  129.4217  151.6173 H   0  0  0  0  0  0  0  0  0  0  0  0
  145.2748  129.5296  150.1106 H   0  0  0  0  0  0  0  0  0  0  0  0
  144.4169  129.5577  151.6548 H   0  0  0  0  0  0  0  0  0  0  0  0
  147.1431  131.2345  152.2678 H   0  0  0  0  0  0  0  0  0  0  0  0
  148.0394  134.7630  152.0954 H   0  0  0  0  0  0  0  0  0  0  0  0
  149.4523  135.2548  153.3393 H   0  0  0  0  0  0  0  0  0  0  0  0
  149.9125  133.5519  155.7294 H   0  0  0  0  0  0  0  0  0  0  0  0
  151.2253  134.2245  154.7908 H   0  0  0  0  0  0  0  0  0  0  0  0
  149.1445  136.1476  155.8994 H   0  0  0  0  0  0  0  0  0  0  0  0
  150.2820  135.4455  157.0283 H   0  0  0  0  0  0  0  0  0  0  0  0
  150.5662  137.1947  153.5588 H   0  0  0  0  0  0  0  0  0  0  0  0
  153.0739  138.0049  153.4950 H   0  0  0  0  0  0  0  0  0  0  0  0
  152.0516  139.3081  154.1255 H   0  0  0  0  0  0  0  0  0  0  0  0
  154.1212  137.8208  155.5723 H   0  0  0  0  0  0  0  0  0  0  0  0
  153.1257  139.1273  156.1936 H   0  0  0  0  0  0  0  0  0  0  0  0
  151.8566  137.5953  157.4060 H   0  0  0  0  0  0  0  0  0  0  0  0
  152.8666  136.2774  156.7898 H   0  0  0  0  0  0  0  0  0  0  0  0
  1  2  1  0  0  0  0
  1 21  1  0  0  0  0
  1 22  1  0  0  0  0
  1 23  1  0  0  0  0
  2  9  1  0  0  0  0
  2  3  2  0  0  0  0
  3  4  1  0  0  0  0
  3 24  1  0  0  0  0
  4  5  2  0  0  0  0
  4  6  1  0  0  0  0
  6  7  1  0  0  0  0
  6  8  1  0  0  0  0
  7 25  1  0  0  0  0
  7 26  1  0  0  0  0
  7 27  1  0  0  0  0
  8  9  2  0  0  0  0
  8 28  1  0  0  0  0
  9 10  1  0  0  0  0
 10 11  1  0  0  0  0
 10 29  1  0  0  0  0
 11 12  2  0  0  0  0
 11 13  1  0  0  0  0
 13 14  1  0  0  0  0
 13 30  1  0  0  0  0
 14 15  1  0  0  0  0
 14 31  1  0  0  0  0
 14 32  1  0  0  0  0
 15 16  1  0  0  0  0
 15 33  1  0  0  0  0
 15 34  1  0  0  0  0
 16 20  1  0  0  0  0
 16 17  2  0  0  0  0
 17 18  1  0  0  0  0
 17 35  1  0  0  0  0
 18 19  1  0  0  0  0
 18 36  1  0  0  0  0
 18 37  1  0  0  0  0
 19 20  1  0  0  0  0
 19 38  1  0  0  0  0
 19 39  1  0  0  0  0
 20 40  1  0  0  0  0
 20 41  1  0  0  0  0
M  END
> <s_m_source_file>
AV-unprocessed.smi

> <i_m_source_file_index>
2578

> <i_lp_mmshare_version>
43012

> <i_f3d_flags>
0

> <s_epik_input>
W0NIM11jMVtjSF1jKD1PKW4oW0NIM10pW2NIXWMxW05IXUMoPU8pW05IXVtDSDJdW0NIMl1DMj1bQ0hdW0NIMl1bQ0gyXVtDSDJdMg==

> <s_epik_cmdline>
J2VwaWtfcHl0aG9uJywgJy1waCcsICc3LjAnLCAnLXRuJywgJzgnLCAnLW1hJywgJzIwMCcsICctbWV0YWxfYmluZGluZycsICctaW1hZScsICc8aW5maWxlLm1hZT4nLCAnLW9tYWUnLCAnPG91dGZpbGUubWFlPic=

> <r_lp_tautomer_probability>
1

> <r_epik_Ionization_Penalty>
2.83926e-05

> <r_epik_Ionization_Penalty_Charging>
8.15285e-06

> <r_epik_Ionization_Penalty_Neutral>
2.02397e-05

> <r_epik_State_Penalty>
-0

> <r_epik_Charging_Adjusted_Penalty>
8.15285e-06

> <i_epik_Tot_Q>
0

> <i_epik_Tot_abs_Q>
0

> <r_epik_Metal_State_Penalty>
-0

> <b_epik_Metal_Only>
0

> <s_lp_Force_Field>
OPLS_2005

> <r_lp_Energy>
31.0137

> <b_lp_Chiralities_Consistent>
1

> <s_lp_Variant>
AV-unprocessed.smi:2578-1

> <Gold.Version>
5.8.1

> <Gold.Id.Protein>
6NUR|6NUR_protein|mol2

> <Gold.PLP.Fitness>
43.4800

> <Gold.PLP.PLP>
-35.5378

> <Gold.PLP.part.hbond>
-3.0000

> <Gold.PLP.part.metal>
0.0000

> <Gold.PLP.part.buried>
-6.0001

> <Gold.PLP.part.nonpolar>
-27.9580

> <Gold.PLP.part.repulsive>
1.2495

> <Gold.PLP.ligand.clash>
0.0000

> <Gold.PLP.ligand.torsion>
0.4991

> <Gold.PLP.Chemscore.Hbond>
2.9760

> <Gold.PLP.Chemscore.CHOScore>
0.0000

> <Gold.PLP.Chemscore.Metal>
0.0000

> <Gold.Chemscore.Hbonds>
donor molecule, donor type, donor heavy atom, donor atom, acceptor molecule, acceptor atom, score
      L1  H    10    29       P1  7948  1.00
      L1  H    13    30       P1  7948  0.65
      P1  H 10785 10796       L1     5  0.99
      L1  C     8    28       P1 10747  0.23

> <Gold.PLP.Chemscore.Internal.Correction>
0.0124

> <Gold.Rescore>
     Score         DG    S(hbond)    S(metal)    S(lipo)     H(rot)  DE(clash)    DE(int)     intcor
     18.55     -19.99       2.72        0.00      75.87       1.35       0.87       0.57       ----

> <Gold.Chemscore.Fitness>
18.5498

> <Gold.Chemscore.DG>
-19.9900

> <Gold.Chemscore.ZeroCoef>
-5.4800

> <Gold.Chemscore.Hbond>
2.7207

> <Gold.Chemscore.Metal>
0.0000

> <Gold.Chemscore.Lipo>
75.8719

> <Gold.Chemscore.Internal_Hbond>
0.0000

> <Gold.Chemscore.DEClash>
0.8654

> <Gold.Chemscore.DEInternal>
0.5748

> <Gold.Chemscore.Rot>
1.3493

> <Gold.Chemscore.Internal.Correction>
   9.000000E+99

> <Gold.Chemscore.Hbonds>
donor molecule, donor type, donor heavy atom, donor atom, acceptor molecule, acceptor atom, score
      L1  H    10    29       P1  7948  0.34
      L1  H    13    30       P1  7948  0.05
      P1  H 10785 10796       L1     5  0.93

> <Gold.Chemscore.Hbond.Weighted>
-9.0871

> <Gold.Chemscore.Metal.Weighted>
-0.0000

> <Gold.Chemscore.Lipo.Weighted>
-8.8770

> <Gold.Chemscore.Internal_Hbond.Weighted>
0.0000

> <Gold.Chemscore.DEClash.Weighted>
0.8654

> <Gold.Chemscore.DEInternal.Weighted>
0.5748

> <Gold.Chemscore.Rot.Weighted>
3.4541

> <Gold.Chemscore.Internal.Correction.Weighted>
   9.000000E+99

> <Gold.Protein.RotatedTorsions>
[ 6907 6896 6895 6894 ] final   84.42 input  -60.11 | X-H torsion
[ 7974 7965 7964 7962 ] final   73.48 input  175.53 | X-H torsion
[ 8008 7997 7996 7995 ] final  155.93 input   59.86 | X-H torsion
[ 10167 10162 10161 10158 ] final  -83.75 input  -65.29 | X-H torsion
[ 10718 10713 10712 10709 ] final  -38.84 input   66.30 | X-H torsion
[ 10763 10752 10751 10750 ] final -151.86 input  -60.55 | X-H torsion
[ 11005 11000 10999 10996 ] final   70.73 input  -57.11 | X-H torsion

> <Gold.Protein.ActiveResidues>
 VAL166  LYS551  ARG553  GLY616  TRP617  ASP618  TYR619  PRO620  LYS621  CYS622 
 ASP623  PHE694  ASN695  SER759  ASP760  ASP761  ALA762  ILE779  LEU786  VAL792 
 PHE793  MET794  SER795  GLU796  ALA797  LYS798  CYS799  TRP800  GLU811  SER814 

> <Gold.Protein.RotatedAtoms>
  152.5352  134.2744  159.8983 H   0  0  0  0  0  0  0  0  0  0  0  0  # atno 6907 bound_to 6896
  151.2700  133.4253  159.2628 H   0  0  0  0  0  0  0  0  0  0  0  0  # atno 6908 bound_to 6896
  151.0376  134.9599  159.8201 H   0  0  0  0  0  0  0  0  0  0  0  0  # atno 6909 bound_to 6896
  145.7403  139.2718  143.1490 H   0  0  0  0  0  0  0  0  0  0  0  0  # atno 7974 bound_to 7965
  156.2451  140.1926  156.6878 H   0  0  0  0  0  0  0  0  0  0  0  0  # atno 8008 bound_to 7997
  154.6274  140.0600  156.9717 H   0  0  0  0  0  0  0  0  0  0  0  0  # atno 8009 bound_to 7997
  155.1764  140.3272  155.4385 H   0  0  0  0  0  0  0  0  0  0  0  0  # atno 8010 bound_to 7997
  140.4197  143.2589  151.8907 H   0  0  0  0  0  0  0  0  0  0  0  0  # atno 10167 bound_to 10162
  156.2992  130.4238  149.8160 H   0  0  0  0  0  0  0  0  0  0  0  0  # atno 10718 bound_to 10713
  154.8031  135.3250  154.7500 H   0  0  0  0  0  0  0  0  0  0  0  0  # atno 10763 bound_to 10752
  153.8164  135.6891  153.4838 H   0  0  0  0  0  0  0  0  0  0  0  0  # atno 10764 bound_to 10752
  153.1759  135.4605  154.9909 H   0  0  0  0  0  0  0  0  0  0  0  0  # atno 10765 bound_to 10752
  139.9582  134.7108  156.0706 H   0  0  0  0  0  0  0  0  0  0  0  0  # atno 11005 bound_to 11000
  146.0454  140.8123  142.9808 LP  0  0  0  0  0  0  0  0  0  0  0  0  # atno 17320 bound_to 7965
  144.6872  140.2972  143.7269 LP  0  0  0  0  0  0  0  0  0  0  0  0  # atno 17321 bound_to 7965
  139.4782  144.5450  151.8471 LP  0  0  0  0  0  0  0  0  0  0  0  0  # atno 17342 bound_to 10162
  140.4547  144.1806  150.5900 LP  0  0  0  0  0  0  0  0  0  0  0  0  # atno 17343 bound_to 10162
  156.5545  130.8356  151.3310 LP  0  0  0  0  0  0  0  0  0  0  0  0  # atno 17370 bound_to 10713
  157.7363  130.9777  150.2131 LP  0  0  0  0  0  0  0  0  0  0  0  0  # atno 17371 bound_to 10713
  141.1256  133.6600  156.3327 LP  0  0  0  0  0  0  0  0  0  0  0  0  # atno 17394 bound_to 11000
  140.5561  134.5980  157.5421 LP  0  0  0  0  0  0  0  0  0  0  0  0  # atno 17395 bound_to 11000

$$$$
