AV-unprocessed.smi:1723|AV-procd|sdf|6946|dock9
  -GOLD-   22720 8153D 1   1.00000     0.00000
 Structure written by MMmdl.
 38 38  0  0  0  0  0  0  0  0  1 V2000
  145.7353  142.8300  154.9009 C   0  0  0  0  0  0  0  0  0  0  0  0
  146.8583  142.0787  154.1776 C   0  0  0  0  0  0  0  0  0  0  0  0
  147.2908  140.8073  154.9215 C   0  0  0  0  0  0  0  0  0  0  0  0
  148.6834  140.3236  154.5018 C   0  0  0  0  0  0  0  0  0  0  0  0
  148.9681  139.1108  155.1895 O   0  0  0  0  0  0  0  0  0  0  0  0
  150.3346  138.7052  155.1784 C   0  0  1  0  0  0  0  0  0  0  0  0
  150.7603  138.5572  153.7103 C   0  0  0  0  0  0  0  0  0  0  0  0
  151.2026  139.7421  155.9094 C   0  0  0  0  0  0  0  0  0  0  0  0
  151.9418  140.4806  155.2584 O   0  0  0  0  0  0  0  0  0  0  0  0
  151.0802  139.7584  157.2513 N   0  0  0  0  0  0  0  0  0  0  0  0
  151.6747  140.6252  158.1826 C   0  0  0  0  0  0  0  0  0  0  0  0
  151.3907  141.9489  158.2945 C   0  0  0  0  0  0  0  0  0  0  0  0
  152.0267  142.7927  159.2921 C   0  0  0  0  0  0  0  0  0  0  0  0
  151.6555  144.2597  159.4443 C   0  0  0  0  0  0  0  0  0  0  0  0
  152.3507  145.0265  158.6033 F   0  0  0  0  0  0  0  0  0  0  0  0
  150.3598  144.4280  159.1850 F   0  0  0  0  0  0  0  0  0  0  0  0
  151.8881  144.6840  160.6866 F   0  0  0  0  0  0  0  0  0  0  0  0
  152.8949  142.1877  160.1241 C   0  0  0  0  0  0  0  0  0  0  0  0
  153.1926  140.8272  160.0153 N   0  0  0  0  0  0  0  0  0  0  0  0
  152.6374  139.9982  159.1029 C   0  0  0  0  0  0  0  0  0  0  0  0
  152.9446  138.8070  159.0771 O   0  0  0  0  0  0  0  0  0  0  0  0
  153.8623  140.4497  160.6702 H   0  0  0  0  0  0  0  0  0  0  0  0
  145.4506  143.7273  154.3510 H   0  0  0  0  0  0  0  0  0  0  0  0
  146.0464  143.1367  155.8999 H   0  0  0  0  0  0  0  0  0  0  0  0
  144.8467  142.2064  155.0025 H   0  0  0  0  0  0  0  0  0  0  0  0
  146.5251  141.8188  153.1722 H   0  0  0  0  0  0  0  0  0  0  0  0
  147.7152  142.7422  154.0570 H   0  0  0  0  0  0  0  0  0  0  0  0
  147.2805  140.9915  155.9964 H   0  0  0  0  0  0  0  0  0  0  0  0
  146.5656  140.0135  154.7372 H   0  0  0  0  0  0  0  0  0  0  0  0
  148.7074  140.1785  153.4212 H   0  0  0  0  0  0  0  0  0  0  0  0
  149.4331  141.0761  154.7510 H   0  0  0  0  0  0  0  0  0  0  0  0
  150.4280  137.7311  155.6629 H   0  0  0  0  0  0  0  0  0  0  0  0
  151.8067  138.2610  153.6290 H   0  0  0  0  0  0  0  0  0  0  0  0
  150.6312  139.4890  153.1580 H   0  0  0  0  0  0  0  0  0  0  0  0
  150.1629  137.7944  153.2106 H   0  0  0  0  0  0  0  0  0  0  0  0
  150.5072  139.0324  157.6571 H   0  0  0  0  0  0  0  0  0  0  0  0
  150.6624  142.4142  157.6503 H   0  0  0  0  0  0  0  0  0  0  0  0
  153.4159  142.6865  160.9280 H   0  0  0  0  0  0  0  0  0  0  0  0
  1  2  1  0  0  0  0
  1 23  1  0  0  0  0
  1 24  1  0  0  0  0
  1 25  1  0  0  0  0
  2  3  1  0  0  0  0
  2 26  1  0  0  0  0
  2 27  1  0  0  0  0
  3  4  1  0  0  0  0
  3 28  1  0  0  0  0
  3 29  1  0  0  0  0
  4  5  1  0  0  0  0
  4 30  1  0  0  0  0
  4 31  1  0  0  0  0
  5  6  1  0  0  0  0
  6  7  1  0  0  0  0
  6  8  1  0  0  0  0
  6 32  1  0  0  0  0
  7 33  1  0  0  0  0
  7 34  1  0  0  0  0
  7 35  1  0  0  0  0
  8  9  2  0  0  0  0
  8 10  1  0  0  0  0
 10 11  1  0  0  0  0
 10 36  1  0  0  0  0
 11 20  1  0  0  0  0
 11 12  2  0  0  0  0
 12 13  1  0  0  0  0
 12 37  1  0  0  0  0
 13 14  1  0  0  0  0
 13 18  2  0  0  0  0
 14 15  1  0  0  0  0
 14 16  1  0  0  0  0
 14 17  1  0  0  0  0
 18 19  1  0  0  0  0
 18 38  1  0  0  0  0
 19 22  1  0  0  0  0
 19 20  1  0  0  0  0
 20 21  2  0  0  0  0
M  END
> <s_m_source_file>
AV-unprocessed.smi

> <i_m_source_file_index>
1723

> <i_lp_mmshare_version>
43012

> <i_f3d_flags>
0

> <s_epik_input>
W0NIM11bQ0gyXVtDSDJdW0NIMl1PW0NASF0oW0NIM10pQyg9TylbTkhdYzFbY0hdYyhDKEYpKEYpRilbY0hdW25IXWMxPU8=

> <s_epik_cmdline>
J2VwaWtfcHl0aG9uJywgJy1waCcsICc3LjAnLCAnLXRuJywgJzgnLCAnLW1hJywgJzIwMCcsICctbWV0YWxfYmluZGluZycsICctaW1hZScsICc8aW5maWxlLm1hZT4nLCAnLW9tYWUnLCAnPG91dGZpbGUubWFlPic=

> <r_lp_tautomer_probability>
0.999

> <r_epik_Ionization_Penalty>
0.00763408

> <r_epik_Ionization_Penalty_Charging>
0.00763398

> <r_epik_Ionization_Penalty_Neutral>
9.29819e-08

> <r_epik_State_Penalty>
0.00571302

> <r_epik_Charging_Adjusted_Penalty>
0.013347

> <i_epik_Tot_Q>
0

> <i_epik_Tot_abs_Q>
0

> <r_epik_Metal_State_Penalty>
0.392814

> <b_epik_Metal_Only>
0

> <s_lp_Force_Field>
OPLS_2005

> <r_lp_Energy>
18.7704

> <b_lp_Chiralities_Consistent>
1

> <s_lp_Variant>
AV-unprocessed.smi:1723-2

> <Gold.Version>
5.8.1

> <Gold.Id.Protein>
6NUR|6NUR_protein|mol2

> <Gold.PLP.Fitness>
43.9326

> <Gold.PLP.PLP>
-45.6575

> <Gold.PLP.part.hbond>
-1.0000

> <Gold.PLP.part.metal>
0.0000

> <Gold.PLP.part.buried>
-7.1257

> <Gold.PLP.part.nonpolar>
-38.3191

> <Gold.PLP.part.repulsive>
0.2203

> <Gold.PLP.ligand.clash>
0.0051

> <Gold.PLP.ligand.torsion>
2.0666

> <Gold.PLP.Chemscore.Hbond>
0.7520

> <Gold.PLP.Chemscore.CHOScore>
0.0000

> <Gold.PLP.Chemscore.Metal>
0.0000

> <Gold.Chemscore.Hbonds>
donor molecule, donor type, donor heavy atom, donor atom, acceptor molecule, acceptor atom, score
      P1  H  7989  7998       L1     9  0.69

> <Gold.PLP.Chemscore.Internal.Correction>
0.1573

> <Gold.Rescore>
     Score         DG    S(hbond)    S(metal)    S(lipo)     H(rot)  DE(clash)    DE(int)     intcor
     11.78     -13.00       0.88        0.00      82.91       1.99       0.05       1.17       ----

> <Gold.Chemscore.Fitness>
11.7787

> <Gold.Chemscore.DG>
-13.0030

> <Gold.Chemscore.ZeroCoef>
-5.4800

> <Gold.Chemscore.Hbond>
0.8770

> <Gold.Chemscore.Metal>
0.0000

> <Gold.Chemscore.Lipo>
82.9069

> <Gold.Chemscore.Internal_Hbond>
0.0000

> <Gold.Chemscore.DEClash>
0.0542

> <Gold.Chemscore.DEInternal>
1.1701

> <Gold.Chemscore.Rot>
1.9946

> <Gold.Chemscore.Internal.Correction>
   9.000000E+99

> <Gold.Chemscore.Hbonds>
donor molecule, donor type, donor heavy atom, donor atom, acceptor molecule, acceptor atom, score
      P1  H  7989  7998       L1     9  0.68

> <Gold.Chemscore.Hbond.Weighted>
-2.9291

> <Gold.Chemscore.Metal.Weighted>
-0.0000

> <Gold.Chemscore.Lipo.Weighted>
-9.7001

> <Gold.Chemscore.Internal_Hbond.Weighted>
0.0000

> <Gold.Chemscore.DEClash.Weighted>
0.0542

> <Gold.Chemscore.DEInternal.Weighted>
1.1701

> <Gold.Chemscore.Rot.Weighted>
5.1062

> <Gold.Chemscore.Internal.Correction.Weighted>
   9.000000E+99

> <Gold.Protein.RotatedTorsions>
[ 6907 6896 6895 6894 ] final -103.74 input  -60.11 | X-H torsion
[ 7974 7965 7964 7962 ] final  -18.51 input  175.53 | X-H torsion
[ 8008 7997 7996 7995 ] final   77.17 input   59.86 | X-H torsion
[ 10167 10162 10161 10158 ] final  145.14 input  -65.29 | X-H torsion
[ 10718 10713 10712 10709 ] final   79.33 input   66.30 | X-H torsion
[ 10763 10752 10751 10750 ] final -168.95 input  -60.55 | X-H torsion
[ 11005 11000 10999 10996 ] final  -23.93 input  -57.11 | X-H torsion

> <Gold.Protein.ActiveResidues>
 VAL166  LYS551  ARG553  GLY616  TRP617  ASP618  TYR619  PRO620  LYS621  CYS622 
 ASP623  PHE694  ASN695  SER759  ASP760  ASP761  ALA762  ILE779  LEU786  VAL792 
 PHE793  MET794  SER795  GLU796  ALA797  LYS798  CYS799  TRP800  GLU811  SER814 

> <Gold.Protein.RotatedAtoms>
  150.7254  134.0383  159.3756 H   0  0  0  0  0  0  0  0  0  0  0  0  # atno 6907 bound_to 6896
  151.8356  135.0605  160.0451 H   0  0  0  0  0  0  0  0  0  0  0  0  # atno 6908 bound_to 6896
  152.2901  133.5517  159.5588 H   0  0  0  0  0  0  0  0  0  0  0  0  # atno 6909 bound_to 6896
  146.1888  140.3931  142.8466 H   0  0  0  0  0  0  0  0  0  0  0  0  # atno 7974 bound_to 7965
  155.8377  140.3463  155.5612 H   0  0  0  0  0  0  0  0  0  0  0  0  # atno 8008 bound_to 7997
  155.8174  140.0908  157.1889 H   0  0  0  0  0  0  0  0  0  0  0  0  # atno 8009 bound_to 7997
  154.4004  140.1436  156.3446 H   0  0  0  0  0  0  0  0  0  0  0  0  # atno 8010 bound_to 7997
  139.4932  144.5922  151.6656 H   0  0  0  0  0  0  0  0  0  0  0  0  # atno 10167 bound_to 10162
  157.6773  130.9909  150.1917 H   0  0  0  0  0  0  0  0  0  0  0  0  # atno 10718 bound_to 10713
  154.6575  135.2920  154.9909 H   0  0  0  0  0  0  0  0  0  0  0  0  # atno 10763 bound_to 10752
  154.0980  135.6581  153.4867 H   0  0  0  0  0  0  0  0  0  0  0  0  # atno 10764 bound_to 10752
  153.0411  135.5236  154.7511 H   0  0  0  0  0  0  0  0  0  0  0  0  # atno 10765 bound_to 10752
  140.8798  133.7662  156.0288 H   0  0  0  0  0  0  0  0  0  0  0  0  # atno 11005 bound_to 11000
  144.8448  140.6912  143.6206 LP  0  0  0  0  0  0  0  0  0  0  0  0  # atno 17320 bound_to 7965
  145.3855  139.1627  143.4257 LP  0  0  0  0  0  0  0  0  0  0  0  0  # atno 17321 bound_to 7965
  140.5552  144.0360  150.6144 LP  0  0  0  0  0  0  0  0  0  0  0  0  # atno 17342 bound_to 10162
  140.3427  143.3010  152.0571 LP  0  0  0  0  0  0  0  0  0  0  0  0  # atno 17343 bound_to 10162
  156.2627  130.3712  149.8114 LP  0  0  0  0  0  0  0  0  0  0  0  0  # atno 17370 bound_to 10713
  156.5854  130.8484  151.3394 LP  0  0  0  0  0  0  0  0  0  0  0  0  # atno 17371 bound_to 10713
  140.8475  134.2993  157.5289 LP  0  0  0  0  0  0  0  0  0  0  0  0  # atno 17394 bound_to 11000
  139.8718  134.9450  156.3896 LP  0  0  0  0  0  0  0  0  0  0  0  0  # atno 17395 bound_to 11000

$$$$
