AV-unprocessed.smi:49|AV-procd|sdf|474|dock7
  -GOLD-   2262016343D 1   1.00000     0.00000
 Structure written by MMmdl.
 27 28  0  0  0  0  0  0  0  0  1 V2000
  146.0429  142.8773  154.5689 C   0  0  0  0  0  0  0  0  0  0  0  0
  146.2709  141.4980  155.1967 C   0  0  0  0  0  0  0  0  0  0  0  0
  147.6822  141.0288  155.0589 C   0  0  0  0  0  0  0  0  0  0  0  0
  148.0523  139.8498  154.5706 N   0  0  0  0  0  0  0  0  0  0  0  0
  149.4112  139.9555  154.6801 C   0  0  0  0  0  0  0  0  0  0  0  0
  150.3343  138.8699  154.2156 C   0  0  1  0  0  0  0  0  0  0  0  0
  151.6616  138.8587  154.9993 C   0  0  0  0  0  0  0  0  0  0  0  0
  151.6605  137.5154  155.7252 C   0  0  2  0  0  0  0  0  0  0  0  0
  152.9577  136.9930  155.9194 O   0  0  0  0  0  0  0  0  0  0  0  0
  150.8143  136.6419  154.8084 C   0  0  0  0  0  0  0  0  0  0  0  0
  149.7573  137.5269  154.3432 N   0  0  0  0  0  0  0  0  0  0  0  0
  149.8672  141.1115  155.1659 N   0  0  0  0  0  0  0  0  0  0  0  0
  148.7240  141.7857  155.4091 N   0  0  0  0  0  0  0  0  0  0  0  0
  150.5656  139.0538  153.1655 H   0  0  0  0  0  0  0  0  0  0  0  0
  151.1644  137.6195  156.6915 H   0  0  0  0  0  0  0  0  0  0  0  0
  148.7050  142.7197  155.7935 H   0  0  0  0  0  0  0  0  0  0  0  0
  145.0049  143.1894  154.6842 H   0  0  0  0  0  0  0  0  0  0  0  0
  146.2705  142.8662  153.5025 H   0  0  0  0  0  0  0  0  0  0  0  0
  146.6733  143.6326  155.0387 H   0  0  0  0  0  0  0  0  0  0  0  0
  146.0059  141.5238  156.2545 H   0  0  0  0  0  0  0  0  0  0  0  0
  145.6129  140.7648  154.7294 H   0  0  0  0  0  0  0  0  0  0  0  0
  152.4919  138.9065  154.2930 H   0  0  0  0  0  0  0  0  0  0  0  0
  151.7712  139.6983  155.6874 H   0  0  0  0  0  0  0  0  0  0  0  0
  153.4846  137.6505  156.3476 H   0  0  0  0  0  0  0  0  0  0  0  0
  151.4102  136.3043  153.9592 H   0  0  0  0  0  0  0  0  0  0  0  0
  150.4171  135.7605  155.3122 H   0  0  0  0  0  0  0  0  0  0  0  0
  149.4377  137.2034  153.4360 H   0  0  0  0  0  0  0  0  0  0  0  0
  1  2  1  0  0  0  0
  1 17  1  0  0  0  0
  1 18  1  0  0  0  0
  1 19  1  0  0  0  0
  2  3  1  0  0  0  0
  2 20  1  0  0  0  0
  2 21  1  0  0  0  0
  3 13  1  0  0  0  0
  3  4  2  0  0  0  0
  4  5  1  0  0  0  0
  5  6  1  0  0  0  0
  5 12  2  0  0  0  0
  6 14  1  0  0  0  0
  6 11  1  0  0  0  0
  6  7  1  0  0  0  0
  7  8  1  0  0  0  0
  7 22  1  0  0  0  0
  7 23  1  0  0  0  0
  8 15  1  0  0  0  0
  8  9  1  0  0  0  0
  8 10  1  0  0  0  0
  9 24  1  0  0  0  0
 10 11  1  0  0  0  0
 10 25  1  0  0  0  0
 10 26  1  0  0  0  0
 11 27  1  0  0  0  0
 12 13  1  0  0  0  0
 13 16  1  0  0  0  0
M  END
> <s_m_source_file>
AV-unprocessed.smi

> <i_m_source_file_index>
49

> <i_lp_mmshare_version>
43012

> <i_f3d_flags>
0

> <s_epik_input>
W0NIM11bQ0gyXWMxbmMobltuSF0xKVtDQEBIXTJbQ0gyXVtDQEBIXShbT0hdKVtDSDJdW05IXTI=

> <s_epik_cmdline>
J2VwaWtfcHl0aG9uJywgJy1waCcsICc3LjAnLCAnLXRuJywgJzgnLCAnLW1hJywgJzIwMCcsICctbWV0YWxfYmluZGluZycsICctaW1hZScsICc8aW5maWxlLm1hZT4nLCAnLW9tYWUnLCAnPG91dGZpbGUubWFlPic=

> <r_lp_tautomer_probability>
0.948284

> <r_epik_Ionization_Penalty>
1.6657

> <r_epik_Ionization_Penalty_Charging>
0

> <r_epik_Ionization_Penalty_Neutral>
1.6657

> <r_epik_State_Penalty>
2.01417

> <r_epik_Charging_Adjusted_Penalty>
2.01417

> <i_epik_Tot_Q>
0

> <i_epik_Tot_abs_Q>
0

> <r_epik_Metal_State_Penalty>
2.28256

> <b_epik_Metal_Only>
0

> <s_lp_Force_Field>
OPLS_2005

> <r_lp_Energy>
18.9317

> <b_lp_Chiralities_Consistent>
1

> <s_lp_Variant>
AV-unprocessed.smi:49-12

> <Gold.Version>
5.8.1

> <Gold.Id.Protein>
6NUR|6NUR_protein|mol2

> <Gold.PLP.Fitness>
32.2942

> <Gold.PLP.PLP>
-25.1637

> <Gold.PLP.part.hbond>
-4.0000

> <Gold.PLP.part.metal>
0.0000

> <Gold.PLP.part.buried>
-3.5122

> <Gold.PLP.part.nonpolar>
-17.8841

> <Gold.PLP.part.repulsive>
0.4487

> <Gold.PLP.ligand.clash>
0.0000

> <Gold.PLP.ligand.torsion>
0.8162

> <Gold.PLP.Chemscore.Hbond>
2.9167

> <Gold.PLP.Chemscore.CHOScore>
0.0000

> <Gold.PLP.Chemscore.Metal>
0.0000

> <Gold.Chemscore.Hbonds>
donor molecule, donor type, donor heavy atom, donor atom, acceptor molecule, acceptor atom, score
      L1  H    11    27       P1  7948  1.00
      L1  H    13    16       P1  8028  1.00
      P1  H 10752 10764       L1     9  0.64

> <Gold.PLP.Chemscore.Internal.Correction>
0.0128

> <Gold.Rescore>
     Score         DG    S(hbond)    S(metal)    S(lipo)     H(rot)  DE(clash)    DE(int)     intcor
     13.12     -13.61       2.41        0.00      41.45       1.86       0.03       0.47       ----

> <Gold.Chemscore.Fitness>
13.1215

> <Gold.Chemscore.DG>
-13.6127

> <Gold.Chemscore.ZeroCoef>
-5.4800

> <Gold.Chemscore.Hbond>
2.4055

> <Gold.Chemscore.Metal>
0.0000

> <Gold.Chemscore.Lipo>
41.4452

> <Gold.Chemscore.Internal_Hbond>
0.0000

> <Gold.Chemscore.DEClash>
0.0253

> <Gold.Chemscore.DEInternal>
0.4659

> <Gold.Chemscore.Rot>
1.8558

> <Gold.Chemscore.Internal.Correction>
   9.000000E+99

> <Gold.Chemscore.Hbonds>
donor molecule, donor type, donor heavy atom, donor atom, acceptor molecule, acceptor atom, score
      L1  H    11    27       P1  7948  0.93
      L1  H    13    16       P1  8028  0.92
      P1  H 10752 10764       L1     9  0.59

> <Gold.Chemscore.Hbond.Weighted>
-8.0343

> <Gold.Chemscore.Metal.Weighted>
-0.0000

> <Gold.Chemscore.Lipo.Weighted>
-4.8491

> <Gold.Chemscore.Internal_Hbond.Weighted>
0.0000

> <Gold.Chemscore.DEClash.Weighted>
0.0253

> <Gold.Chemscore.DEInternal.Weighted>
0.4659

> <Gold.Chemscore.Rot.Weighted>
4.7507

> <Gold.Chemscore.Internal.Correction.Weighted>
   9.000000E+99

> <Gold.Protein.RotatedTorsions>
[ 6907 6896 6895 6894 ] final -115.04 input  -60.11 | X-H torsion
[ 7974 7965 7964 7962 ] final -169.79 input  175.53 | X-H torsion
[ 8008 7997 7996 7995 ] final  114.49 input   59.86 | X-H torsion
[ 10167 10162 10161 10158 ] final -166.46 input  -65.29 | X-H torsion
[ 10718 10713 10712 10709 ] final  127.91 input   66.30 | X-H torsion
[ 10763 10752 10751 10750 ] final  -20.04 input  -60.55 | X-H torsion
[ 11005 11000 10999 10996 ] final  140.50 input  -57.11 | X-H torsion

> <Gold.Protein.ActiveResidues>
 VAL166  LYS551  ARG553  GLY616  TRP617  ASP618  TYR619  PRO620  LYS621  CYS622 
 ASP623  PHE694  ASN695  SER759  ASP760  ASP761  ALA762  ILE779  LEU786  VAL792 
 PHE793  MET794  SER795  GLU796  ALA797  LYS798  CYS799  TRP800  GLU811  SER814 

> <Gold.Protein.RotatedAtoms>
  150.7948  133.8714  159.3259 H   0  0  0  0  0  0  0  0  0  0  0  0  # atno 6907 bound_to 6896
  151.6543  135.0996  160.0176 H   0  0  0  0  0  0  0  0  0  0  0  0  # atno 6908 bound_to 6896
  152.4028  133.6804  159.6366 H   0  0  0  0  0  0  0  0  0  0  0  0  # atno 6909 bound_to 6896
  144.7180  140.2169  143.6321 H   0  0  0  0  0  0  0  0  0  0  0  0  # atno 7974 bound_to 7965
  156.2324  140.2958  156.0223 H   0  0  0  0  0  0  0  0  0  0  0  0  # atno 8008 bound_to 7997
  155.2188  140.0415  157.2962 H   0  0  0  0  0  0  0  0  0  0  0  0  # atno 8009 bound_to 7997
  154.6019  140.2429  155.7789 H   0  0  0  0  0  0  0  0  0  0  0  0  # atno 8010 bound_to 7997
  139.6114  144.0808  152.1845 H   0  0  0  0  0  0  0  0  0  0  0  0  # atno 10167 bound_to 10162
  157.5291  131.1098  150.9037 H   0  0  0  0  0  0  0  0  0  0  0  0  # atno 10718 bound_to 10713
  153.6142  135.6995  153.5335 H   0  0  0  0  0  0  0  0  0  0  0  0  # atno 10763 bound_to 10752
  153.2991  135.4134  155.1236 H   0  0  0  0  0  0  0  0  0  0  0  0  # atno 10764 bound_to 10752
  154.8557  135.3644  154.5682 H   0  0  0  0  0  0  0  0  0  0  0  0  # atno 10765 bound_to 10752
  140.0332  134.9342  157.0702 H   0  0  0  0  0  0  0  0  0  0  0  0  # atno 11005 bound_to 11000
  145.8538  139.2188  143.1756 LP  0  0  0  0  0  0  0  0  0  0  0  0  # atno 17320 bound_to 7965
  146.0236  140.8325  142.9911 LP  0  0  0  0  0  0  0  0  0  0  0  0  # atno 17321 bound_to 7965
  140.0427  144.5995  150.7398 LP  0  0  0  0  0  0  0  0  0  0  0  0  # atno 17342 bound_to 10162
  140.7321  143.2702  151.3913 LP  0  0  0  0  0  0  0  0  0  0  0  0  # atno 17343 bound_to 10162
  156.9624  130.5460  149.5286 LP  0  0  0  0  0  0  0  0  0  0  0  0  # atno 17370 bound_to 10713
  156.0409  130.5491  150.8768 LP  0  0  0  0  0  0  0  0  0  0  0  0  # atno 17371 bound_to 10713
  140.4191  134.1900  155.7164 LP  0  0  0  0  0  0  0  0  0  0  0  0  # atno 17394 bound_to 11000
  141.1843  133.8347  157.1146 LP  0  0  0  0  0  0  0  0  0  0  0  0  # atno 17395 bound_to 11000

$$$$
