AV-unprocessed.smi:2431|AV-procd|sdf|9586|dock3
  -GOLD-   2272013213D 1   1.00000     0.00000
 Structure written by MMmdl.
 36 37  0  0  0  0  0  0  0  0  3 V2000
  146.2487  138.6358  154.3067 O   0  0  0  0  0  0  0  0  0  0  0  0
  147.0228  137.9123  153.6795 C   0  0  0  0  0  0  0  0  0  0  0  0
  146.6272  136.8455  152.9702 N   0  0  0  0  0  0  0  0  0  0  0  0
  145.2459  136.3978  152.8358 C   0  0  0  0  0  0  0  0  0  0  0  0
  144.9258  135.9935  151.3870 C   0  0  0  0  0  0  0  0  0  0  0  0
  145.1487  134.5161  151.1307 C   0  0  0  0  0  0  0  0  0  0  0  0
  146.3091  133.8647  151.1966 C   0  0  0  0  0  0  0  0  0  0  0  0
  146.1741  132.4045  150.8624 C   0  0  0  0  0  0  0  0  0  0  0  0
  144.6771  132.2360  150.5192 C   0  0  0  0  0  0  0  0  0  0  0  0
  144.0097  133.6137  150.7310 C   0  0  0  0  0  0  0  0  0  0  0  0
  148.3523  138.0887  153.5916 N   0  0  0  0  0  0  0  0  0  0  0  0
  149.1512  139.1130  154.1761 C   0  0  0  0  0  0  0  0  0  0  0  0
  148.7017  140.4534  154.2659 C   0  0  0  0  0  0  0  0  0  0  0  0
  149.5425  141.4184  154.8511 C   0  0  0  0  0  0  0  0  0  0  0  0
  150.7639  141.1343  155.3438 N   0  0  0  0  0  0  0  0  0  0  0  0
  151.1860  139.8548  155.2766 C   0  0  0  0  0  0  0  0  0  0  0  0
  150.4274  138.7990  154.7207 C   0  0  0  0  0  0  0  0  0  0  0  0
  150.9893  137.4347  154.7144 N   0  3  0  0  0  0  0  0  0  0  0  0
  152.2099  137.3244  154.7580 O   0  0  0  0  0  0  0  0  0  0  0  0
  150.2195  136.4796  154.6934 O   0  5  0  0  0  0  0  0  0  0  0  0
  147.3291  136.3085  152.4819 H   0  0  0  0  0  0  0  0  0  0  0  0
  145.1007  135.5453  153.4999 H   0  0  0  0  0  0  0  0  0  0  0  0
  144.5674  137.1796  153.1811 H   0  0  0  0  0  0  0  0  0  0  0  0
  143.8890  136.2294  151.1447 H   0  0  0  0  0  0  0  0  0  0  0  0
  145.5469  136.5691  150.6992 H   0  0  0  0  0  0  0  0  0  0  0  0
  147.2592  134.3078  151.4569 H   0  0  0  0  0  0  0  0  0  0  0  0
  146.8148  132.1468  150.0185 H   0  0  0  0  0  0  0  0  0  0  0  0
  146.4629  131.7954  151.7195 H   0  0  0  0  0  0  0  0  0  0  0  0
  144.5576  131.9105  149.4849 H   0  0  0  0  0  0  0  0  0  0  0  0
  144.2149  131.4776  151.1521 H   0  0  0  0  0  0  0  0  0  0  0  0
  143.2581  133.5746  151.5198 H   0  0  0  0  0  0  0  0  0  0  0  0
  143.5374  133.9772  149.8178 H   0  0  0  0  0  0  0  0  0  0  0  0
  148.8398  137.4692  152.9603 H   0  0  0  0  0  0  0  0  0  0  0  0
  147.7302  140.7559  153.9058 H   0  0  0  0  0  0  0  0  0  0  0  0
  149.2221  142.4469  154.9278 H   0  0  0  0  0  0  0  0  0  0  0  0
  152.1641  139.6674  155.6950 H   0  0  0  0  0  0  0  0  0  0  0  0
  1  2  2  0  0  0  0
  2  3  1  0  0  0  0
  2 11  1  0  0  0  0
  3  4  1  0  0  0  0
  3 21  1  0  0  0  0
  4  5  1  0  0  0  0
  4 22  1  0  0  0  0
  4 23  1  0  0  0  0
  5  6  1  0  0  0  0
  5 24  1  0  0  0  0
  5 25  1  0  0  0  0
  6 10  1  0  0  0  0
  6  7  2  0  0  0  0
  7  8  1  0  0  0  0
  7 26  1  0  0  0  0
  8  9  1  0  0  0  0
  8 27  1  0  0  0  0
  8 28  1  0  0  0  0
  9 10  1  0  0  0  0
  9 29  1  0  0  0  0
  9 30  1  0  0  0  0
 10 31  1  0  0  0  0
 10 32  1  0  0  0  0
 11 12  1  0  0  0  0
 11 33  1  0  0  0  0
 12 17  1  0  0  0  0
 12 13  2  0  0  0  0
 13 14  1  0  0  0  0
 13 34  1  0  0  0  0
 14 15  2  0  0  0  0
 14 35  1  0  0  0  0
 15 16  1  0  0  0  0
 16 17  2  0  0  0  0
 16 36  1  0  0  0  0
 17 18  1  0  0  0  0
 18 19  2  0  0  0  0
 18 20  1  0  0  0  0
M  CHG  1  18   1
M  CHG  1  20  -1
M  END
> <s_m_source_file>
AV-unprocessed.smi

> <i_m_source_file_index>
2431

> <i_lp_mmshare_version>
43012

> <i_f3d_flags>
0

> <s_epik_input>
W0NIMl0xW0NIMl1bQ0gyXVtDSF09QzFbQ0gyXVtDSDJdW05IXUMoPU8pW05IXWMyW2NIXVtjSF1uW2NIXWMyW04rXSg9TylbTy1d

> <s_epik_cmdline>
J2VwaWtfcHl0aG9uJywgJy1waCcsICc3LjAnLCAnLXRuJywgJzgnLCAnLW1hJywgJzIwMCcsICctbWV0YWxfYmluZGluZycsICctaW1hZScsICc8aW5maWxlLm1hZT4nLCAnLW9tYWUnLCAnPG91dGZpbGUubWFlPic=

> <r_lp_tautomer_probability>
1

> <r_epik_Ionization_Penalty>
0.000148912

> <r_epik_Ionization_Penalty_Charging>
0

> <r_epik_Ionization_Penalty_Neutral>
0.000148912

> <r_epik_State_Penalty>
-0

> <r_epik_Charging_Adjusted_Penalty>
0

> <i_epik_Tot_Q>
0

> <i_epik_Tot_abs_Q>
2

> <r_epik_Metal_State_Penalty>
-0

> <b_epik_Metal_Only>
0

> <s_lp_Force_Field>
OPLS_2005

> <r_lp_Energy>
28.1068

> <b_lp_Chiralities_Consistent>
1

> <s_lp_Variant>
AV-unprocessed.smi:2431-1

> <Gold.Version>
5.8.1

> <Gold.Id.Protein>
6NUR|6NUR_protein|mol2

> <Gold.PLP.Fitness>
45.6318

> <Gold.PLP.PLP>
-36.0278

> <Gold.PLP.part.hbond>
-4.0000

> <Gold.PLP.part.metal>
0.0000

> <Gold.PLP.part.buried>
-2.3754

> <Gold.PLP.part.nonpolar>
-30.0518

> <Gold.PLP.part.repulsive>
0.8103

> <Gold.PLP.ligand.clash>
0.0000

> <Gold.PLP.ligand.torsion>
0.9059

> <Gold.PLP.Chemscore.Hbond>
2.7920

> <Gold.PLP.Chemscore.CHOScore>
1.0000

> <Gold.PLP.Chemscore.Metal>
0.0000

> <Gold.Chemscore.Hbonds>
donor molecule, donor type, donor heavy atom, donor atom, acceptor molecule, acceptor atom, score
      L1  H     3    21       P1  7948  0.98
      L1  H    11    33       P1  7948  1.00
      P1  H 10752 10765       L1    19  0.78
      L1  C    14    35       P1  8028  1.00

> <Gold.PLP.Chemscore.Internal.Correction>
0.0399

> <Gold.Rescore>
     Score         DG    S(hbond)    S(metal)    S(lipo)     H(rot)  DE(clash)    DE(int)     intcor
     17.10     -20.28       2.74        0.00      80.67       1.48       0.06       3.12       ----

> <Gold.Chemscore.Fitness>
17.0998

> <Gold.Chemscore.DG>
-20.2775

> <Gold.Chemscore.ZeroCoef>
-5.4800

> <Gold.Chemscore.Hbond>
2.7411

> <Gold.Chemscore.Metal>
0.0000

> <Gold.Chemscore.Lipo>
80.6674

> <Gold.Chemscore.Internal_Hbond>
0.0000

> <Gold.Chemscore.DEClash>
0.0580

> <Gold.Chemscore.DEInternal>
3.1197

> <Gold.Chemscore.Rot>
1.4828

> <Gold.Chemscore.Internal.Correction>
   9.000000E+99

> <Gold.Chemscore.Hbonds>
donor molecule, donor type, donor heavy atom, donor atom, acceptor molecule, acceptor atom, score
      L1  H     3    21       P1  7948  0.92
      L1  H    11    33       P1  7948  0.98
      P1  H 10752 10765       L1    19  0.74

> <Gold.Chemscore.Hbond.Weighted>
-9.1554

> <Gold.Chemscore.Metal.Weighted>
-0.0000

> <Gold.Chemscore.Lipo.Weighted>
-9.4381

> <Gold.Chemscore.Internal_Hbond.Weighted>
0.0000

> <Gold.Chemscore.DEClash.Weighted>
0.0580

> <Gold.Chemscore.DEInternal.Weighted>
3.1197

> <Gold.Chemscore.Rot.Weighted>
3.7960

> <Gold.Chemscore.Internal.Correction.Weighted>
   9.000000E+99

> <Gold.Protein.RotatedTorsions>
[ 6907 6896 6895 6894 ] final -178.62 input  -60.11 | X-H torsion
[ 7974 7965 7964 7962 ] final -102.87 input  175.53 | X-H torsion
[ 8008 7997 7996 7995 ] final  -90.39 input   59.86 | X-H torsion
[ 10167 10162 10161 10158 ] final   -8.21 input  -65.29 | X-H torsion
[ 10718 10713 10712 10709 ] final -123.32 input   66.30 | X-H torsion
[ 10763 10752 10751 10750 ] final  172.05 input  -60.55 | X-H torsion
[ 11005 11000 10999 10996 ] final -128.83 input  -57.11 | X-H torsion

> <Gold.Protein.ActiveResidues>
 VAL166  LYS551  ARG553  GLY616  TRP617  ASP618  TYR619  PRO620  LYS621  CYS622 
 ASP623  PHE694  ASN695  SER759  ASP760  ASP761  ALA762  ILE779  LEU786  VAL792 
 PHE793  MET794  SER795  GLU796  ALA797  LYS798  CYS799  TRP800  GLU811  SER814 

> <Gold.Protein.RotatedAtoms>
  151.6401  133.3326  159.3128 H   0  0  0  0  0  0  0  0  0  0  0  0  # atno 6907 bound_to 6896
  150.8012  134.7111  159.6614 H   0  0  0  0  0  0  0  0  0  0  0  0  # atno 6908 bound_to 6896
  152.4104  134.6138  160.0084 H   0  0  0  0  0  0  0  0  0  0  0  0  # atno 6909 bound_to 6896
  145.2631  140.9275  143.3029 H   0  0  0  0  0  0  0  0  0  0  0  0  # atno 7974 bound_to 7965
  154.6980  140.0531  157.0429 H   0  0  0  0  0  0  0  0  0  0  0  0  # atno 8008 bound_to 7997
  155.0724  140.3201  155.4607 H   0  0  0  0  0  0  0  0  0  0  0  0  # atno 8009 bound_to 7997
  156.2750  140.2079  156.5852 H   0  0  0  0  0  0  0  0  0  0  0  0  # atno 8010 bound_to 7997
  140.7052  143.5995  150.8812 H   0  0  0  0  0  0  0  0  0  0  0  0  # atno 10167 bound_to 10162
  156.1492  130.6522  150.9888 H   0  0  0  0  0  0  0  0  0  0  0  0  # atno 10718 bound_to 10713
  154.4206  135.2758  155.1978 H   0  0  0  0  0  0  0  0  0  0  0  0  # atno 10763 bound_to 10752
  154.3925  135.6063  153.5855 H   0  0  0  0  0  0  0  0  0  0  0  0  # atno 10764 bound_to 10752
  152.9833  135.5907  154.4501 H   0  0  0  0  0  0  0  0  0  0  0  0  # atno 10765 bound_to 10752
  140.9483  134.1100  157.4086 H   0  0  0  0  0  0  0  0  0  0  0  0  # atno 11005 bound_to 11000
  144.9401  139.4199  143.6453 LP  0  0  0  0  0  0  0  0  0  0  0  0  # atno 17320 bound_to 7965
  146.3269  139.8356  142.8900 LP  0  0  0  0  0  0  0  0  0  0  0  0  # atno 17321 bound_to 7965
  139.9719  143.6047  152.2971 LP  0  0  0  0  0  0  0  0  0  0  0  0  # atno 17342 bound_to 10162
  139.6637  144.7662  151.1914 LP  0  0  0  0  0  0  0  0  0  0  0  0  # atno 17343 bound_to 10162
  157.6642  131.0875  150.7766 LP  0  0  0  0  0  0  0  0  0  0  0  0  # atno 17370 bound_to 10713
  156.7836  130.4867  149.5397 LP  0  0  0  0  0  0  0  0  0  0  0  0  # atno 17371 bound_to 10713
  139.8840  135.0058  156.6337 LP  0  0  0  0  0  0  0  0  0  0  0  0  # atno 17394 bound_to 11000
  140.7639  133.8795  155.8439 LP  0  0  0  0  0  0  0  0  0  0  0  0  # atno 17395 bound_to 11000

$$$$
