AV-unprocessed.smi:2329|AV-procd|sdf|9302|dock2
  -GOLD-   2272012523D 1   1.00000     0.00000
 Structure written by MMmdl.
 45 48  0  0  0  0  0  0  0  0  1 V2000
  149.9513  142.0204  156.3336 C   0  0  0  0  0  0  0  0  0  0  0  0
  150.3376  140.7718  155.5694 C   0  0  0  0  0  0  0  0  0  0  0  0
  151.6654  140.3007  155.5723 C   0  0  0  0  0  0  0  0  0  0  0  0
  151.9569  139.1351  154.8411 C   0  0  0  0  0  0  0  0  0  0  0  0
  150.9165  138.4934  154.1423 C   0  0  0  0  0  0  0  0  0  0  0  0
  149.6114  139.0326  154.1909 C   0  0  0  0  0  0  0  0  0  0  0  0
  148.6358  138.3079  153.4588 N   0  0  0  0  0  0  0  0  0  0  0  0
  147.3030  138.5007  153.4200 C   0  0  0  0  0  0  0  0  0  0  0  0
  146.7120  139.4334  153.9610 O   0  0  0  0  0  0  0  0  0  0  0  0
  146.6373  137.5683  152.7166 N   0  0  0  0  0  0  0  0  0  0  0  0
  145.1952  137.4848  152.4804 C   0  0  2  0  0  0  0  0  0  0  0  0
  144.4006  137.5232  153.7862 C   0  0  1  0  0  0  0  0  0  0  0  0
  143.4788  138.5066  154.4144 C   0  0  0  0  0  0  0  0  0  0  0  0
  142.3510  137.5187  154.8142 C   0  0  0  0  0  0  0  0  0  0  0  0
  142.6671  136.2679  154.1563 O   0  0  0  0  0  0  0  0  0  0  0  0
  143.4173  136.6597  153.0245 C   0  0  2  0  0  0  0  0  0  0  0  0
  144.6370  136.0145  152.3371 C   0  0  0  0  0  0  0  0  0  0  0  0
  144.4130  135.4843  150.9156 C   0  0  0  0  0  0  0  0  0  0  0  0
  145.2747  134.2328  150.7057 C   0  0  0  0  0  0  0  0  0  0  0  0
  146.1185  134.0840  151.9676 C   0  0  0  0  0  0  0  0  0  0  0  0
  145.3457  134.8445  153.0411 C   0  0  0  0  0  0  0  0  0  0  0  0
  149.3399  140.1571  154.8987 N   0  0  0  0  0  0  0  0  0  0  0  0
  150.7881  142.4005  156.9202 H   0  0  0  0  0  0  0  0  0  0  0  0
  149.1269  141.8095  157.0152 H   0  0  0  0  0  0  0  0  0  0  0  0
  149.6353  142.8027  155.6430 H   0  0  0  0  0  0  0  0  0  0  0  0
  152.4413  140.8161  156.1189 H   0  0  0  0  0  0  0  0  0  0  0  0
  152.9613  138.7391  154.8168 H   0  0  0  0  0  0  0  0  0  0  0  0
  151.1228  137.5959  153.5774 H   0  0  0  0  0  0  0  0  0  0  0  0
  148.9834  137.5138  152.9421 H   0  0  0  0  0  0  0  0  0  0  0  0
  147.1955  136.8434  152.2890 H   0  0  0  0  0  0  0  0  0  0  0  0
  144.8207  138.1891  151.7317 H   0  0  0  0  0  0  0  0  0  0  0  0
  144.9263  136.9673  154.5683 H   0  0  0  0  0  0  0  0  0  0  0  0
  143.9193  139.0111  155.2747 H   0  0  0  0  0  0  0  0  0  0  0  0
  143.1331  139.2549  153.6998 H   0  0  0  0  0  0  0  0  0  0  0  0
  142.3087  137.3625  155.8925 H   0  0  0  0  0  0  0  0  0  0  0  0
  141.3778  137.8866  154.4867 H   0  0  0  0  0  0  0  0  0  0  0  0
  142.7910  137.2152  152.3168 H   0  0  0  0  0  0  0  0  0  0  0  0
  143.3634  135.2332  150.7578 H   0  0  0  0  0  0  0  0  0  0  0  0
  144.6566  136.2408  150.1701 H   0  0  0  0  0  0  0  0  0  0  0  0
  144.6312  133.3609  150.5846 H   0  0  0  0  0  0  0  0  0  0  0  0
  145.8965  134.3076  149.8131 H   0  0  0  0  0  0  0  0  0  0  0  0
  146.2939  133.0418  152.2355 H   0  0  0  0  0  0  0  0  0  0  0  0
  147.0910  134.5523  151.8138 H   0  0  0  0  0  0  0  0  0  0  0  0
  146.0140  135.1547  153.8441 H   0  0  0  0  0  0  0  0  0  0  0  0
  144.6048  134.1815  153.4899 H   0  0  0  0  0  0  0  0  0  0  0  0
  1  2  1  0  0  0  0
  1 23  1  0  0  0  0
  1 24  1  0  0  0  0
  1 25  1  0  0  0  0
  2 22  1  0  0  0  0
  2  3  2  0  0  0  0
  3  4  1  0  0  0  0
  3 26  1  0  0  0  0
  4  5  2  0  0  0  0
  4 27  1  0  0  0  0
  5  6  1  0  0  0  0
  5 28  1  0  0  0  0
  6  7  1  0  0  0  0
  6 22  2  0  0  0  0
  7  8  1  0  0  0  0
  7 29  1  0  0  0  0
  8  9  2  0  0  0  0
  8 10  1  0  0  0  0
 10 11  1  0  0  0  0
 10 30  1  0  0  0  0
 11 17  1  0  0  0  0
 11 12  1  0  0  0  0
 11 31  1  0  0  0  0
 12 16  1  0  0  0  0
 12 13  1  0  0  0  0
 12 32  1  0  0  0  0
 13 14  1  0  0  0  0
 13 33  1  0  0  0  0
 13 34  1  0  0  0  0
 14 15  1  0  0  0  0
 14 35  1  0  0  0  0
 14 36  1  0  0  0  0
 15 16  1  0  0  0  0
 16 17  1  0  0  0  0
 16 37  1  0  0  0  0
 17 21  1  0  0  0  0
 17 18  1  0  0  0  0
 18 19  1  0  0  0  0
 18 38  1  0  0  0  0
 18 39  1  0  0  0  0
 19 20  1  0  0  0  0
 19 40  1  0  0  0  0
 19 41  1  0  0  0  0
 20 21  1  0  0  0  0
 20 42  1  0  0  0  0
 20 43  1  0  0  0  0
 21 44  1  0  0  0  0
 21 45  1  0  0  0  0
M  END
> <s_m_source_file>
AV-unprocessed.smi

> <i_m_source_file_index>
2329

> <i_lp_mmshare_version>
43012

> <i_f3d_flags>
0

> <s_epik_input>
W0NIM11jMVtjSF1bY0hdW2NIXWMobjEpW05IXUMoPU8pW05IXVtDQEBIXTJbQ0BASF0oW0NIMl1bQ0gyXU8zKVtDQEhdM0MyNFtDSDJdW0NIMl1bQ0gyXVtDSDJdNA==

> <s_epik_cmdline>
J2VwaWtfcHl0aG9uJywgJy1waCcsICc3LjAnLCAnLXRuJywgJzgnLCAnLW1hJywgJzIwMCcsICctbWV0YWxfYmluZGluZycsICctaW1hZScsICc8aW5maWxlLm1hZT4nLCAnLW9tYWUnLCAnPG91dGZpbGUubWFlPic=

> <r_lp_tautomer_probability>
1

> <r_epik_Ionization_Penalty>
8.97002e-05

> <r_epik_Ionization_Penalty_Charging>
0

> <r_epik_Ionization_Penalty_Neutral>
8.97002e-05

> <r_epik_State_Penalty>
-0

> <r_epik_Charging_Adjusted_Penalty>
0

> <i_epik_Tot_Q>
0

> <i_epik_Tot_abs_Q>
0

> <r_epik_Metal_State_Penalty>
-0

> <b_epik_Metal_Only>
0

> <s_lp_Force_Field>
OPLS_2005

> <r_lp_Energy>
86.3971

> <b_lp_Chiralities_Consistent>
1

> <s_lp_Variant>
AV-unprocessed.smi:2329-1

> <Gold.Version>
5.8.1

> <Gold.Id.Protein>
6NUR|6NUR_protein|mol2

> <Gold.PLP.Fitness>
37.7327

> <Gold.PLP.PLP>
-32.0058

> <Gold.PLP.part.hbond>
-2.5140

> <Gold.PLP.part.metal>
0.0000

> <Gold.PLP.part.buried>
-3.4048

> <Gold.PLP.part.nonpolar>
-27.3984

> <Gold.PLP.part.repulsive>
0.2953

> <Gold.PLP.ligand.clash>
0.0000

> <Gold.PLP.ligand.torsion>
0.2164

> <Gold.PLP.Chemscore.Hbond>
1.9600

> <Gold.PLP.Chemscore.CHOScore>
0.0000

> <Gold.PLP.Chemscore.Metal>
0.0000

> <Gold.Chemscore.Hbonds>
donor molecule, donor type, donor heavy atom, donor atom, acceptor molecule, acceptor atom, score
      L1  H     7    29       P1  7948  1.00
      L1  H    10    30       P1  7948  0.94

> <Gold.PLP.Chemscore.Internal.Correction>
0.2797

> <Gold.Rescore>
     Score         DG    S(hbond)    S(metal)    S(lipo)     H(rot)  DE(clash)    DE(int)     intcor
     14.72     -18.25       1.95        0.00      75.21       1.00       1.29       2.24       ----

> <Gold.Chemscore.Fitness>
14.7192

> <Gold.Chemscore.DG>
-18.2481

> <Gold.Chemscore.ZeroCoef>
-5.4800

> <Gold.Chemscore.Hbond>
1.9547

> <Gold.Chemscore.Metal>
0.0000

> <Gold.Chemscore.Lipo>
75.2102

> <Gold.Chemscore.Internal_Hbond>
0.0000

> <Gold.Chemscore.DEClash>
1.2887

> <Gold.Chemscore.DEInternal>
2.2402

> <Gold.Chemscore.Rot>
1.0000

> <Gold.Chemscore.Internal.Correction>
   9.000000E+99

> <Gold.Chemscore.Hbonds>
donor molecule, donor type, donor heavy atom, donor atom, acceptor molecule, acceptor atom, score
      L1  H     7    29       P1  7948  0.99
      L1  H    10    30       P1  7948  0.91

> <Gold.Chemscore.Hbond.Weighted>
-6.5286

> <Gold.Chemscore.Metal.Weighted>
-0.0000

> <Gold.Chemscore.Lipo.Weighted>
-8.7996

> <Gold.Chemscore.Internal_Hbond.Weighted>
0.0000

> <Gold.Chemscore.DEClash.Weighted>
1.2887

> <Gold.Chemscore.DEInternal.Weighted>
2.2402

> <Gold.Chemscore.Rot.Weighted>
2.5600

> <Gold.Chemscore.Internal.Correction.Weighted>
   9.000000E+99

> <Gold.Protein.RotatedTorsions>
[ 6907 6896 6895 6894 ] final -112.17 input  -60.11 | X-H torsion
[ 7974 7965 7964 7962 ] final    1.54 input  175.53 | X-H torsion
[ 8008 7997 7996 7995 ] final  138.21 input   59.86 | X-H torsion
[ 10167 10162 10161 10158 ] final   32.52 input  -65.29 | X-H torsion
[ 10718 10713 10712 10709 ] final   76.65 input   66.30 | X-H torsion
[ 10763 10752 10751 10750 ] final   96.69 input  -60.55 | X-H torsion
[ 11005 11000 10999 10996 ] final -139.89 input  -57.11 | X-H torsion

> <Gold.Protein.ActiveResidues>
 VAL166  LYS551  ARG553  GLY616  TRP617  ASP618  TYR619  PRO620  LYS621  CYS622 
 ASP623  PHE694  ASN695  SER759  ASP760  ASP761  ALA762  ILE779  LEU786  VAL792 
 PHE793  MET794  SER795  GLU796  ALA797  LYS798  CYS799  TRP800  GLU811  SER814 

> <Gold.Protein.RotatedAtoms>
  150.7740  133.9129  159.3374 H   0  0  0  0  0  0  0  0  0  0  0  0  # atno 6907 bound_to 6896
  151.7008  135.0928  160.0260 H   0  0  0  0  0  0  0  0  0  0  0  0  # atno 6908 bound_to 6896
  152.3768  133.6454  159.6166 H   0  0  0  0  0  0  0  0  0  0  0  0  # atno 6909 bound_to 6896
  146.2440  140.0971  142.8349 H   0  0  0  0  0  0  0  0  0  0  0  0  # atno 7974 bound_to 7965
  156.2998  140.2399  156.4036 H   0  0  0  0  0  0  0  0  0  0  0  0  # atno 8008 bound_to 7997
  154.8504  140.0424  157.1620 H   0  0  0  0  0  0  0  0  0  0  0  0  # atno 8009 bound_to 7997
  154.9004  140.2976  155.5324 H   0  0  0  0  0  0  0  0  0  0  0  0  # atno 8010 bound_to 7997
  140.4491  144.1075  150.6188 H   0  0  0  0  0  0  0  0  0  0  0  0  # atno 10167 bound_to 10162
  157.6681  130.9784  150.1527 H   0  0  0  0  0  0  0  0  0  0  0  0  # atno 10718 bound_to 10713
  153.2679  135.4210  155.0959 H   0  0  0  0  0  0  0  0  0  0  0  0  # atno 10763 bound_to 10752
  154.8445  135.3465  154.6285 H   0  0  0  0  0  0  0  0  0  0  0  0  # atno 10764 bound_to 10752
  153.6705  135.7044  153.5206 H   0  0  0  0  0  0  0  0  0  0  0  0  # atno 10765 bound_to 10752
  140.8475  134.2326  157.4778 H   0  0  0  0  0  0  0  0  0  0  0  0  # atno 11005 bound_to 11000
  145.0600  140.9081  143.4944 LP  0  0  0  0  0  0  0  0  0  0  0  0  # atno 17320 bound_to 7965
  145.1085  139.2773  143.5650 LP  0  0  0  0  0  0  0  0  0  0  0  0  # atno 17321 bound_to 7965
  140.4229  143.2603  151.9693 LP  0  0  0  0  0  0  0  0  0  0  0  0  # atno 17342 bound_to 10162
  139.4795  144.5815  151.7925 LP  0  0  0  0  0  0  0  0  0  0  0  0  # atno 17343 bound_to 10162
  156.2322  130.3683  149.8431 LP  0  0  0  0  0  0  0  0  0  0  0  0  # atno 17370 bound_to 10713
  156.6255  130.8644  151.3484 LP  0  0  0  0  0  0  0  0  0  0  0  0  # atno 17371 bound_to 10713
  139.8703  134.9667  156.4571 LP  0  0  0  0  0  0  0  0  0  0  0  0  # atno 17394 bound_to 11000
  140.8827  133.7906  155.9484 LP  0  0  0  0  0  0  0  0  0  0  0  0  # atno 17395 bound_to 11000

$$$$
