AV-unprocessed.smi:1876|AV-procd|sdf|7621|dock8
  -GOLD-   22720 9353D 1   1.00000     0.00000
 Structure written by MMmdl.
 31 32  0  0  0  0  0  0  0  0  1 V2000
  153.4515  142.3007  161.4314 C   0  0  0  0  0  0  0  0  0  0  0  0
  152.6380  142.7985  160.2864 C   0  0  0  0  0  0  0  0  0  0  0  0
  151.7625  142.1889  159.4321 C   0  0  0  0  0  0  0  0  0  0  0  0
  151.3470  143.2524  158.5873 C   0  0  0  0  0  0  0  0  0  0  0  0
  150.4146  143.0305  157.5417 N   0  0  0  0  0  0  0  0  0  0  0  0
  149.8674  141.8614  157.1677 C   0  0  0  0  0  0  0  0  0  0  0  0
  150.0916  140.7720  157.6965 O   0  0  0  0  0  0  0  0  0  0  0  0
  149.0345  142.0232  156.1292 N   0  0  0  0  0  0  0  0  0  0  0  0
  148.3149  140.9503  155.4454 C   0  0  1  0  0  0  0  0  0  0  0  0
  146.8891  141.3935  155.0673 C   0  0  0  0  0  0  0  0  0  0  0  0
  146.2167  140.3287  154.1960 C   0  0  0  0  0  0  0  0  0  0  0  0
  147.0465  140.0658  152.9288 C   0  0  0  0  0  0  0  0  0  0  0  0
  148.4801  139.9293  153.1923 N   0  0  0  0  0  0  0  0  0  0  0  0
  149.1367  140.3738  154.2785 C   0  0  0  0  0  0  0  0  0  0  0  0
  150.3610  140.2911  154.3647 O   0  0  0  0  0  0  0  0  0  0  0  0
  151.9186  144.4062  158.8970 N   0  0  0  0  0  0  0  0  0  0  0  0
  152.7481  144.1213  159.9879 O   0  0  0  0  0  0  0  0  0  0  0  0
  153.4253  141.2123  161.4845 H   0  0  0  0  0  0  0  0  0  0  0  0
  153.0719  142.6946  162.3742 H   0  0  0  0  0  0  0  0  0  0  0  0
  154.4922  142.6089  161.3300 H   0  0  0  0  0  0  0  0  0  0  0  0
  151.4675  141.1501  159.4183 H   0  0  0  0  0  0  0  0  0  0  0  0
  150.1431  143.8483  157.0161 H   0  0  0  0  0  0  0  0  0  0  0  0
  148.9119  142.9538  155.7575 H   0  0  0  0  0  0  0  0  0  0  0  0
  148.2210  140.1156  156.1426 H   0  0  0  0  0  0  0  0  0  0  0  0
  146.2946  141.5673  155.9649 H   0  0  0  0  0  0  0  0  0  0  0  0
  146.9214  142.3402  154.5257 H   0  0  0  0  0  0  0  0  0  0  0  0
  146.1165  139.4046  154.7668 H   0  0  0  0  0  0  0  0  0  0  0  0
  145.2067  140.6385  153.9266 H   0  0  0  0  0  0  0  0  0  0  0  0
  146.6879  139.1687  152.4236 H   0  0  0  0  0  0  0  0  0  0  0  0
  146.9160  140.8919  152.2291 H   0  0  0  0  0  0  0  0  0  0  0  0
  149.0332  139.5179  152.4543 H   0  0  0  0  0  0  0  0  0  0  0  0
  1  2  1  0  0  0  0
  1 18  1  0  0  0  0
  1 19  1  0  0  0  0
  1 20  1  0  0  0  0
  2 17  1  0  0  0  0
  2  3  2  0  0  0  0
  3  4  1  0  0  0  0
  3 21  1  0  0  0  0
  4  5  1  0  0  0  0
  4 16  2  0  0  0  0
  5  6  1  0  0  0  0
  5 22  1  0  0  0  0
  6  7  2  0  0  0  0
  6  8  1  0  0  0  0
  8  9  1  0  0  0  0
  8 23  1  0  0  0  0
  9 14  1  0  0  0  0
  9 10  1  0  0  0  0
  9 24  1  0  0  0  0
 10 11  1  0  0  0  0
 10 25  1  0  0  0  0
 10 26  1  0  0  0  0
 11 12  1  0  0  0  0
 11 27  1  0  0  0  0
 11 28  1  0  0  0  0
 12 13  1  0  0  0  0
 12 29  1  0  0  0  0
 12 30  1  0  0  0  0
 13 14  1  0  0  0  0
 13 31  1  0  0  0  0
 14 15  2  0  0  0  0
 16 17  1  0  0  0  0
M  END
> <s_m_source_file>
AV-unprocessed.smi

> <i_m_source_file_index>
1876

> <i_lp_mmshare_version>
43012

> <i_f3d_flags>
0

> <s_epik_input>
W0NIM11jMVtjSF1jKG5vMSlbTkhdQyg9TylbTkhdW0NAQEhdMltDSDJdW0NIMl1bQ0gyXVtOSF1DMj1P

> <s_epik_cmdline>
J2VwaWtfcHl0aG9uJywgJy1waCcsICc3LjAnLCAnLXRuJywgJzgnLCAnLW1hJywgJzIwMCcsICctbWV0YWxfYmluZGluZycsICctaW1hZScsICc8aW5maWxlLm1hZT4nLCAnLW9tYWUnLCAnPG91dGZpbGUubWFlPic=

> <r_lp_tautomer_probability>
1

> <r_epik_Ionization_Penalty>
2.33177e-05

> <r_epik_Ionization_Penalty_Charging>
0

> <r_epik_Ionization_Penalty_Neutral>
2.33177e-05

> <r_epik_State_Penalty>
-0

> <r_epik_Charging_Adjusted_Penalty>
0

> <i_epik_Tot_Q>
0

> <i_epik_Tot_abs_Q>
0

> <r_epik_Metal_State_Penalty>
-0

> <b_epik_Metal_Only>
0

> <s_lp_Force_Field>
OPLS_2005

> <r_lp_Energy>
6.99083

> <b_lp_Chiralities_Consistent>
1

> <s_lp_Variant>
AV-unprocessed.smi:1876-2

> <Gold.Version>
5.8.1

> <Gold.Id.Protein>
6NUR|6NUR_protein|mol2

> <Gold.PLP.Fitness>
37.1954

> <Gold.PLP.PLP>
-26.9072

> <Gold.PLP.part.hbond>
-3.3267

> <Gold.PLP.part.metal>
0.0000

> <Gold.PLP.part.buried>
-3.0676

> <Gold.PLP.part.nonpolar>
-21.0947

> <Gold.PLP.part.repulsive>
0.4121

> <Gold.PLP.ligand.clash>
0.0000

> <Gold.PLP.ligand.torsion>
0.3392

> <Gold.PLP.Chemscore.Hbond>
3.6415

> <Gold.PLP.Chemscore.CHOScore>
0.0000

> <Gold.PLP.Chemscore.Metal>
0.0000

> <Gold.Chemscore.Hbonds>
donor molecule, donor type, donor heavy atom, donor atom, acceptor molecule, acceptor atom, score
      L1  H     5    22       P1  8028  1.00
      L1  H     8    23       P1  8028  1.00
      L1  H    13    31       P1  7957  0.65
      P1  H  7989  7998       L1    15  1.00

> <Gold.PLP.Chemscore.Internal.Correction>
0.0421

> <Gold.Rescore>
     Score         DG    S(hbond)    S(metal)    S(lipo)     H(rot)  DE(clash)    DE(int)     intcor
     19.21     -20.97       3.62        0.00      50.87       1.00       0.06       1.70       ----

> <Gold.Chemscore.Fitness>
19.2117

> <Gold.Chemscore.DG>
-20.9717

> <Gold.Chemscore.ZeroCoef>
-5.4800

> <Gold.Chemscore.Hbond>
3.6226

> <Gold.Chemscore.Metal>
0.0000

> <Gold.Chemscore.Lipo>
50.8721

> <Gold.Chemscore.Internal_Hbond>
0.0000

> <Gold.Chemscore.DEClash>
0.0578

> <Gold.Chemscore.DEInternal>
1.7021

> <Gold.Chemscore.Rot>
1.0000

> <Gold.Chemscore.Internal.Correction>
   9.000000E+99

> <Gold.Chemscore.Hbonds>
donor molecule, donor type, donor heavy atom, donor atom, acceptor molecule, acceptor atom, score
      L1  H     5    22       P1  8028  0.86
      L1  H     8    23       P1  8028  1.00
      L1  H    13    31       P1  7957  0.63
      P1  H  7989  7998       L1    15  0.96

> <Gold.Chemscore.Hbond.Weighted>
-12.0996

> <Gold.Chemscore.Metal.Weighted>
-0.0000

> <Gold.Chemscore.Lipo.Weighted>
-5.9520

> <Gold.Chemscore.Internal_Hbond.Weighted>
0.0000

> <Gold.Chemscore.DEClash.Weighted>
0.0578

> <Gold.Chemscore.DEInternal.Weighted>
1.7021

> <Gold.Chemscore.Rot.Weighted>
2.5600

> <Gold.Chemscore.Internal.Correction.Weighted>
   9.000000E+99

> <Gold.Protein.RotatedTorsions>
[ 6907 6896 6895 6894 ] final    3.50 input  -60.11 | X-H torsion
[ 7974 7965 7964 7962 ] final -149.75 input  175.53 | X-H torsion
[ 8008 7997 7996 7995 ] final   73.19 input   59.86 | X-H torsion
[ 10167 10162 10161 10158 ] final  170.70 input  -65.29 | X-H torsion
[ 10718 10713 10712 10709 ] final  162.27 input   66.30 | X-H torsion
[ 10763 10752 10751 10750 ] final -129.32 input  -60.55 | X-H torsion
[ 11005 11000 10999 10996 ] final  172.49 input  -57.11 | X-H torsion

> <Gold.Protein.ActiveResidues>
 VAL166  LYS551  ARG553  GLY616  TRP617  ASP618  TYR619  PRO620  LYS621  CYS622 
 ASP623  PHE694  ASN695  SER759  ASP760  ASP761  ALA762  ILE779  LEU786  VAL792 
 PHE793  MET794  SER795  GLU796  ALA797  LYS798  CYS799  TRP800  GLU811  SER814 

> <Gold.Protein.RotatedAtoms>
  151.6261  135.1027  160.0111 H   0  0  0  0  0  0  0  0  0  0  0  0  # atno 6907 bound_to 6896
  152.4131  133.6991  159.6424 H   0  0  0  0  0  0  0  0  0  0  0  0  # atno 6908 bound_to 6896
  150.8021  133.8505  159.3245 H   0  0  0  0  0  0  0  0  0  0  0  0  # atno 6909 bound_to 6896
  144.7948  140.5023  143.5747 H   0  0  0  0  0  0  0  0  0  0  0  0  # atno 7974 bound_to 7965
  155.7800  140.3482  155.5292 H   0  0  0  0  0  0  0  0  0  0  0  0  # atno 8008 bound_to 7997
  155.8738  140.0991  157.1553 H   0  0  0  0  0  0  0  0  0  0  0  0  # atno 8009 bound_to 7997
  154.4019  140.1335  156.4098 H   0  0  0  0  0  0  0  0  0  0  0  0  # atno 8010 bound_to 7997
  139.5026  144.3567  151.9867 H   0  0  0  0  0  0  0  0  0  0  0  0  # atno 10167 bound_to 10162
  157.1249  131.0502  151.2398 H   0  0  0  0  0  0  0  0  0  0  0  0  # atno 10718 bound_to 10713
  154.8757  135.3899  154.3901 H   0  0  0  0  0  0  0  0  0  0  0  0  # atno 10763 bound_to 10752
  153.4638  135.7029  153.6039 H   0  0  0  0  0  0  0  0  0  0  0  0  # atno 10764 bound_to 10752
  153.4527  135.3830  155.2261 H   0  0  0  0  0  0  0  0  0  0  0  0  # atno 10765 bound_to 10752
  140.3302  134.7363  157.4129 H   0  0  0  0  0  0  0  0  0  0  0  0  # atno 11005 bound_to 11000
  145.5700  139.1483  143.3293 LP  0  0  0  0  0  0  0  0  0  0  0  0  # atno 17320 bound_to 7965
  146.2213  140.5834  142.9016 LP  0  0  0  0  0  0  0  0  0  0  0  0  # atno 17321 bound_to 7965
  140.3004  144.3653  150.6062 LP  0  0  0  0  0  0  0  0  0  0  0  0  # atno 17342 bound_to 10162
  140.5878  143.2169  151.7310 LP  0  0  0  0  0  0  0  0  0  0  0  0  # atno 17343 bound_to 10162
  157.4444  130.7562  149.7096 LP  0  0  0  0  0  0  0  0  0  0  0  0  # atno 17370 bound_to 10713
  155.9820  130.4013  150.3439 LP  0  0  0  0  0  0  0  0  0  0  0  0  # atno 17371 bound_to 10713
  140.0867  134.5657  155.8485 LP  0  0  0  0  0  0  0  0  0  0  0  0  # atno 17394 bound_to 11000
  141.2065  133.6656  156.6246 LP  0  0  0  0  0  0  0  0  0  0  0  0  # atno 17395 bound_to 11000

$$$$
