AV-unprocessed.smi:3324|AV-procd|sdf|12782|dock1
  -GOLD-   2272019123D 1   1.00000     0.00000
 Structure written by MMmdl.
 30 30  0  0  0  0  0  0  0  0  1 V2000
  151.3561  134.9389  155.8540 O   0  0  0  0  0  0  0  0  0  0  0  0
  150.3313  135.1363  155.2021 C   0  0  0  0  0  0  0  0  0  0  0  0
  149.6598  133.9794  154.4644 C   0  0  0  0  0  0  0  0  0  0  0  0
  148.4074  134.4007  153.8289 N   0  0  0  0  0  0  0  0  0  0  0  0
  147.7715  133.2798  153.1541 C   0  0  0  0  0  0  0  0  0  0  0  0
  146.2464  133.4232  153.2577 C   0  0  0  0  0  0  0  0  0  0  0  0
  145.5834  132.9333  152.0651 N   0  0  0  0  0  0  0  0  0  0  0  0
  145.9133  131.8423  151.2892 C   0  0  0  0  0  0  0  0  0  0  0  0
  145.0052  131.7787  150.2715 C   0  0  0  0  0  0  0  0  0  0  0  0
  144.1491  132.8896  150.5128 C   0  0  0  0  0  0  0  0  0  0  0  0
  144.5000  133.5809  151.5852 N   0  0  0  0  0  0  0  0  0  0  0  0
  149.7412  136.3364  155.0942 N   0  0  0  0  0  0  0  0  0  0  0  0
  150.2116  137.5666  155.7226 C   0  0  0  0  0  0  0  0  0  0  0  0
  150.6361  138.6193  154.6850 C   0  0  0  0  0  0  0  0  0  0  0  0
  151.0976  139.6959  155.3198 F   0  0  0  0  0  0  0  0  0  0  0  0
  151.6042  138.1351  153.9064 F   0  0  0  0  0  0  0  0  0  0  0  0
  149.6028  138.9840  153.9257 F   0  0  0  0  0  0  0  0  0  0  0  0
  150.3423  133.5843  153.7099 H   0  0  0  0  0  0  0  0  0  0  0  0
  149.4656  133.1768  155.1778 H   0  0  0  0  0  0  0  0  0  0  0  0
  148.5681  135.1397  153.1590 H   0  0  0  0  0  0  0  0  0  0  0  0
  148.0771  133.2568  152.1067 H   0  0  0  0  0  0  0  0  0  0  0  0
  148.0899  132.3414  153.6110 H   0  0  0  0  0  0  0  0  0  0  0  0
  145.8678  132.8637  154.1143 H   0  0  0  0  0  0  0  0  0  0  0  0
  145.9668  134.4667  153.4125 H   0  0  0  0  0  0  0  0  0  0  0  0
  146.7572  131.2103  151.5234 H   0  0  0  0  0  0  0  0  0  0  0  0
  144.9593  131.0498  149.4760 H   0  0  0  0  0  0  0  0  0  0  0  0
  143.2894  133.2127  149.9440 H   0  0  0  0  0  0  0  0  0  0  0  0
  148.9020  136.4007  154.5363 H   0  0  0  0  0  0  0  0  0  0  0  0
  149.4483  137.9742  156.3875 H   0  0  0  0  0  0  0  0  0  0  0  0
  151.0628  137.3125  156.3550 H   0  0  0  0  0  0  0  0  0  0  0  0
  1  2  2  0  0  0  0
  2  3  1  0  0  0  0
  2 12  1  0  0  0  0
  3  4  1  0  0  0  0
  3 18  1  0  0  0  0
  3 19  1  0  0  0  0
  4  5  1  0  0  0  0
  4 20  1  0  0  0  0
  5  6  1  0  0  0  0
  5 21  1  0  0  0  0
  5 22  1  0  0  0  0
  6  7  1  0  0  0  0
  6 23  1  0  0  0  0
  6 24  1  0  0  0  0
  7 11  1  0  0  0  0
  7  8  1  0  0  0  0
  8  9  2  0  0  0  0
  8 25  1  0  0  0  0
  9 10  1  0  0  0  0
  9 26  1  0  0  0  0
 10 11  2  0  0  0  0
 10 27  1  0  0  0  0
 12 13  1  0  0  0  0
 12 28  1  0  0  0  0
 13 14  1  0  0  0  0
 13 29  1  0  0  0  0
 13 30  1  0  0  0  0
 14 15  1  0  0  0  0
 14 16  1  0  0  0  0
 14 17  1  0  0  0  0
M  END
> <s_m_source_file>
AV-unprocessed.smi

> <i_m_source_file_index>
3324

> <i_lp_mmshare_version>
43012

> <i_f3d_flags>
0

> <s_epik_input>
RkMoRikoRilbQ0gyXVtOSF1DKD1PKVtDSDJdW05IXVtDSDJdW0NIMl1uMVtjSF1bY0hdW2NIXW4x

> <s_epik_cmdline>
J2VwaWtfcHl0aG9uJywgJy1waCcsICc3LjAnLCAnLXRuJywgJzgnLCAnLW1hJywgJzIwMCcsICctbWV0YWxfYmluZGluZycsICctaW1hZScsICc8aW5maWxlLm1hZT4nLCAnLW9tYWUnLCAnPG91dGZpbGUubWFlPic=

> <r_lp_tautomer_probability>
1

> <r_epik_Ionization_Penalty>
0.533356

> <r_epik_Ionization_Penalty_Charging>
0

> <r_epik_Ionization_Penalty_Neutral>
0.533356

> <r_epik_State_Penalty>
0.540813

> <r_epik_Charging_Adjusted_Penalty>
0.540813

> <i_epik_Tot_Q>
0

> <i_epik_Tot_abs_Q>
0

> <r_epik_Metal_State_Penalty>
0.549553

> <b_epik_Metal_Only>
0

> <s_lp_Force_Field>
OPLS_2005

> <r_lp_Energy>
3.03628

> <b_lp_Chiralities_Consistent>
1

> <s_lp_Variant>
AV-unprocessed.smi:3324-2

> <Gold.Version>
5.8.1

> <Gold.Id.Protein>
6NUR|6NUR_protein|mol2

> <Gold.PLP.Fitness>
41.4592

> <Gold.PLP.PLP>
-31.5397

> <Gold.PLP.part.hbond>
-2.0000

> <Gold.PLP.part.metal>
0.0000

> <Gold.PLP.part.buried>
-2.9823

> <Gold.PLP.part.nonpolar>
-25.6923

> <Gold.PLP.part.repulsive>
0.1852

> <Gold.PLP.ligand.clash>
0.0000

> <Gold.PLP.ligand.torsion>
0.8090

> <Gold.PLP.Chemscore.Hbond>
1.7582

> <Gold.PLP.Chemscore.CHOScore>
2.0000

> <Gold.PLP.Chemscore.Metal>
0.0000

> <Gold.Chemscore.Hbonds>
donor molecule, donor type, donor heavy atom, donor atom, acceptor molecule, acceptor atom, score
      L1  H     4    20       P1  7948  1.00
      P1  H 10752 10764       L1     1  0.91
      L1  C     8    25       P1 10747  0.90
      L1  C    10    27       P1 10186  0.80

> <Gold.PLP.Chemscore.Internal.Correction>
0.2630

> <Gold.Rescore>
     Score         DG    S(hbond)    S(metal)    S(lipo)     H(rot)  DE(clash)    DE(int)     intcor
      8.80      -9.94       1.54        0.00      55.98       2.83       0.43       0.70       ----

> <Gold.Chemscore.Fitness>
8.8045

> <Gold.Chemscore.DG>
-9.9372

> <Gold.Chemscore.ZeroCoef>
-5.4800

> <Gold.Chemscore.Hbond>
1.5429

> <Gold.Chemscore.Metal>
0.0000

> <Gold.Chemscore.Lipo>
55.9833

> <Gold.Chemscore.Internal_Hbond>
0.0000

> <Gold.Chemscore.DEClash>
0.4333

> <Gold.Chemscore.DEInternal>
0.6994

> <Gold.Chemscore.Rot>
2.8305

> <Gold.Chemscore.Internal.Correction>
   9.000000E+99

> <Gold.Chemscore.Hbonds>
donor molecule, donor type, donor heavy atom, donor atom, acceptor molecule, acceptor atom, score
      L1  H     4    20       P1  7948  0.78
      P1  H 10752 10764       L1     1  0.76

> <Gold.Chemscore.Hbond.Weighted>
-5.1533

> <Gold.Chemscore.Metal.Weighted>
-0.0000

> <Gold.Chemscore.Lipo.Weighted>
-6.5500

> <Gold.Chemscore.Internal_Hbond.Weighted>
0.0000

> <Gold.Chemscore.DEClash.Weighted>
0.4333

> <Gold.Chemscore.DEInternal.Weighted>
0.6994

> <Gold.Chemscore.Rot.Weighted>
7.2461

> <Gold.Chemscore.Internal.Correction.Weighted>
   9.000000E+99

> <Gold.Protein.RotatedTorsions>
[ 6907 6896 6895 6894 ] final   43.24 input  -60.11 | X-H torsion
[ 7974 7965 7964 7962 ] final  171.89 input  175.53 | X-H torsion
[ 8008 7997 7996 7995 ] final   -2.93 input   59.86 | X-H torsion
[ 10167 10162 10161 10158 ] final   70.21 input  -65.29 | X-H torsion
[ 10718 10713 10712 10709 ] final -168.11 input   66.30 | X-H torsion
[ 10763 10752 10751 10750 ] final  -40.21 input  -60.55 | X-H torsion
[ 11005 11000 10999 10996 ] final  -12.01 input  -57.11 | X-H torsion

> <Gold.Protein.ActiveResidues>
 VAL166  LYS551  ARG553  GLY616  TRP617  ASP618  TYR619  PRO620  LYS621  CYS622 
 ASP623  PHE694  ASN695  SER759  ASP760  ASP761  ALA762  ILE779  LEU786  VAL792 
 PHE793  MET794  SER795  GLU796  ALA797  LYS798  CYS799  TRP800  GLU811  SER814 

> <Gold.Protein.RotatedAtoms>
  152.2178  134.8441  160.0489 H   0  0  0  0  0  0  0  0  0  0  0  0  # atno 6907 bound_to 6896
  151.9236  133.3587  159.3914 H   0  0  0  0  0  0  0  0  0  0  0  0  # atno 6908 bound_to 6896
  150.6992  134.4534  159.5391 H   0  0  0  0  0  0  0  0  0  0  0  0  # atno 6909 bound_to 6896
  144.7282  139.9418  143.6429 H   0  0  0  0  0  0  0  0  0  0  0  0  # atno 7974 bound_to 7965
  154.6304  140.2522  155.7441 H   0  0  0  0  0  0  0  0  0  0  0  0  # atno 8008 bound_to 7997
  156.2476  140.2908  156.0573 H   0  0  0  0  0  0  0  0  0  0  0  0  # atno 8009 bound_to 7997
  155.1754  140.0387  157.2862 H   0  0  0  0  0  0  0  0  0  0  0  0  # atno 8010 bound_to 7997
  140.0595  144.5245  150.7305 H   0  0  0  0  0  0  0  0  0  0  0  0  # atno 10167 bound_to 10162
  156.6921  130.9163  151.3070 H   0  0  0  0  0  0  0  0  0  0  0  0  # atno 10718 bound_to 10713
  153.9422  135.6760  153.4744 H   0  0  0  0  0  0  0  0  0  0  0  0  # atno 10763 bound_to 10752
  153.0926  135.4867  154.8715 H   0  0  0  0  0  0  0  0  0  0  0  0  # atno 10764 bound_to 10752
  154.7371  135.3151  154.8751 H   0  0  0  0  0  0  0  0  0  0  0  0  # atno 10765 bound_to 10752
  140.7612  133.8513  155.9126 H   0  0  0  0  0  0  0  0  0  0  0  0  # atno 11005 bound_to 11000
  146.0779  139.3767  143.0482 LP  0  0  0  0  0  0  0  0  0  0  0  0  # atno 17320 bound_to 7965
  145.7880  140.9827  143.1064 LP  0  0  0  0  0  0  0  0  0  0  0  0  # atno 17321 bound_to 7965
  140.7179  143.2561  151.4375 LP  0  0  0  0  0  0  0  0  0  0  0  0  # atno 17342 bound_to 10162
  139.5903  144.1514  152.2080 LP  0  0  0  0  0  0  0  0  0  0  0  0  # atno 17343 bound_to 10162
  157.7005  130.9327  150.0770 LP  0  0  0  0  0  0  0  0  0  0  0  0  # atno 17370 bound_to 10713
  156.1790  130.3649  149.9061 LP  0  0  0  0  0  0  0  0  0  0  0  0  # atno 17371 bound_to 10713
  140.9661  134.1592  157.4615 LP  0  0  0  0  0  0  0  0  0  0  0  0  # atno 17394 bound_to 11000
  139.8770  134.9962  156.5783 LP  0  0  0  0  0  0  0  0  0  0  0  0  # atno 17395 bound_to 11000

$$$$
