AV-unprocessed.smi:2032|AV-procd|sdf|8254|dock3
  -GOLD-   2272010523D 1   1.00000     0.00000
 Structure written by MMmdl.
 42 43  0  0  0  0  0  0  0  0  3 V2000
  148.1709  141.5145  153.8419 C   0  0  0  0  0  0  0  0  0  0  0  0
  148.6899  140.2279  154.4932 C   0  0  1  0  0  0  0  0  0  0  0  0
  148.3488  138.9769  153.6543 C   0  0  0  0  0  0  0  0  0  0  0  0
  148.9189  137.7458  154.2673 N   0  3  2  0  0  0  0  0  0  0  0  0
  148.2151  137.2530  155.5016 C   0  0  1  0  0  0  0  0  0  0  0  0
  146.6985  137.0600  155.2574 C   0  0  0  0  0  0  0  0  0  0  0  0
  148.8354  135.9325  156.0394 C   0  0  0  0  0  0  0  0  0  0  0  0
  149.1734  135.9989  157.4584 N   0  0  0  0  0  0  0  0  0  0  0  0
  148.4450  135.4815  158.4582 C   0  0  0  0  0  0  0  0  0  0  0  0
  147.3808  134.9093  158.2101 O   0  0  0  0  0  0  0  0  0  0  0  0
  148.9989  135.6514  159.6791 N   0  5  0  0  0  0  0  0  0  0  0  0
  148.2489  135.4996  160.7827 C   0  0  0  0  0  0  0  0  0  0  0  0
  148.2043  136.4062  161.7655 N   0  0  0  0  0  0  0  0  0  0  0  0
  147.3633  136.0418  162.8187 C   0  0  0  0  0  0  0  0  0  0  0  0
  146.7603  134.8254  162.6372 C   0  0  0  0  0  0  0  0  0  0  0  0
  147.2340  134.0966  161.1294 S   0  0  0  0  0  0  0  0  0  0  0  0
  150.3884  137.9462  154.3996 C   0  0  0  0  0  0  0  0  0  0  0  0
  150.7095  139.2050  155.2336 C   0  0  1  0  0  0  0  0  0  0  0  0
  152.2176  139.4635  155.3232 C   0  0  0  0  0  0  0  0  0  0  0  0
  150.1060  140.3354  154.6103 O   0  0  0  0  0  0  0  0  0  0  0  0
  147.0853  141.4937  153.7432 H   0  0  0  0  0  0  0  0  0  0  0  0
  148.5950  141.6541  152.8470 H   0  0  0  0  0  0  0  0  0  0  0  0
  148.4326  142.3873  154.4406 H   0  0  0  0  0  0  0  0  0  0  0  0
  148.2512  140.1500  155.4889 H   0  0  0  0  0  0  0  0  0  0  0  0
  147.2785  138.8974  153.4760 H   0  0  0  0  0  0  0  0  0  0  0  0
  148.7847  139.0887  152.6603 H   0  0  0  0  0  0  0  0  0  0  0  0
  148.3183  138.0093  156.2782 H   0  0  0  0  0  0  0  0  0  0  0  0
  146.1978  136.6132  156.1160 H   0  0  0  0  0  0  0  0  0  0  0  0
  146.5146  136.4121  154.4000 H   0  0  0  0  0  0  0  0  0  0  0  0
  146.1831  138.0047  155.0903 H   0  0  0  0  0  0  0  0  0  0  0  0
  148.1384  135.1066  155.8943 H   0  0  0  0  0  0  0  0  0  0  0  0
  149.7513  135.6602  155.5185 H   0  0  0  0  0  0  0  0  0  0  0  0
  150.0351  136.4640  157.7046 H   0  0  0  0  0  0  0  0  0  0  0  0
  147.2545  136.7095  163.6603 H   0  0  0  0  0  0  0  0  0  0  0  0
  146.0721  134.3154  163.2941 H   0  0  0  0  0  0  0  0  0  0  0  0
  150.9009  137.0711  154.7906 H   0  0  0  0  0  0  0  0  0  0  0  0
  150.7990  138.0752  153.3970 H   0  0  0  0  0  0  0  0  0  0  0  0
  150.3228  139.1006  156.2480 H   0  0  0  0  0  0  0  0  0  0  0  0
  152.7307  138.6289  155.8016 H   0  0  0  0  0  0  0  0  0  0  0  0
  152.4255  140.3594  155.9085 H   0  0  0  0  0  0  0  0  0  0  0  0
  152.6548  139.6027  154.3339 H   0  0  0  0  0  0  0  0  0  0  0  0
  148.7959  137.0105  153.5860 H   0  0  0  0  0  0  0  0  0  0  0  0
  1  2  1  0  0  0  0
  1 21  1  0  0  0  0
  1 22  1  0  0  0  0
  1 23  1  0  0  0  0
  2 20  1  0  0  0  0
  2  3  1  0  0  0  0
  2 24  1  0  0  0  0
  3  4  1  0  0  0  0
  3 25  1  0  0  0  0
  3 26  1  0  0  0  0
  4  5  1  0  0  0  0
  4 17  1  0  0  0  0
  4 42  1  0  0  0  0
  5  6  1  0  0  0  0
  5  7  1  0  0  0  0
  5 27  1  0  0  0  0
  6 28  1  0  0  0  0
  6 29  1  0  0  0  0
  6 30  1  0  0  0  0
  7  8  1  0  0  0  0
  7 31  1  0  0  0  0
  7 32  1  0  0  0  0
  8  9  1  0  0  0  0
  8 33  1  0  0  0  0
  9 10  2  0  0  0  0
  9 11  1  0  0  0  0
 11 12  1  0  0  0  0
 12 16  1  0  0  0  0
 12 13  2  0  0  0  0
 13 14  1  0  0  0  0
 14 15  2  0  0  0  0
 14 34  1  0  0  0  0
 15 16  1  0  0  0  0
 15 35  1  0  0  0  0
 17 18  1  0  0  0  0
 17 36  1  0  0  0  0
 17 37  1  0  0  0  0
 18 19  1  0  0  0  0
 18 20  1  0  0  0  0
 18 38  1  0  0  0  0
 19 39  1  0  0  0  0
 19 40  1  0  0  0  0
 19 41  1  0  0  0  0
M  CHG  1   4   1
M  CHG  1  11  -1
M  END
> <s_m_source_file>
AV-unprocessed.smi

> <i_m_source_file_index>
2032

> <i_lp_mmshare_version>
43012

> <i_f3d_flags>
0

> <s_epik_input>
W0NIM11bQ0BASF0xW0NIMl1OKFtDSDJdW0NASF0oTzEpW0NIM10pW0NASF0oW0NIM10pW0NIMl1bTkhdQyg9TylbTkhdYzJuW2NIXVtjSF1zMg==

> <s_epik_cmdline>
J2VwaWtfcHl0aG9uJywgJy1waCcsICc3LjAnLCAnLXRuJywgJzgnLCAnLW1hJywgJzIwMCcsICctbWV0YWxfYmluZGluZycsICctaW1hZScsICc8aW5maWxlLm1hZT4nLCAnLW9tYWUnLCAnPG91dGZpbGUubWFlPic=

> <r_lp_tautomer_probability>
0.999

> <r_epik_Ionization_Penalty>
6.71699

> <r_epik_Ionization_Penalty_Charging>
5.88592

> <r_epik_Ionization_Penalty_Neutral>
0.831074

> <r_epik_State_Penalty>
6.08365

> <r_epik_Charging_Adjusted_Penalty>
11.9696

> <i_epik_Tot_Q>
0

> <i_epik_Tot_abs_Q>
2

> <r_epik_Metal_State_Penalty>
2.0947

> <b_epik_Metal_Only>
1

> <s_lp_Force_Field>
OPLS_2005

> <r_lp_Energy>
10.9106

> <b_lp_Chiralities_Consistent>
1

> <s_lp_Variant>
AV-unprocessed.smi:2032-24

> <Gold.Version>
5.8.1

> <Gold.Id.Protein>
6NUR|6NUR_protein|mol2

> <Gold.PLP.Fitness>
47.8780

> <Gold.PLP.PLP>
-32.4765

> <Gold.PLP.part.hbond>
-4.0000

> <Gold.PLP.part.metal>
0.0000

> <Gold.PLP.part.buried>
-2.0277

> <Gold.PLP.part.nonpolar>
-27.5683

> <Gold.PLP.part.repulsive>
0.1551

> <Gold.PLP.ligand.clash>
0.0000

> <Gold.PLP.ligand.torsion>
1.3564

> <Gold.PLP.Chemscore.Hbond>
6.0000

> <Gold.PLP.Chemscore.CHOScore>
0.0000

> <Gold.PLP.Chemscore.Metal>
0.0000

> <Gold.Chemscore.Hbonds>
donor molecule, donor type, donor heavy atom, donor atom, acceptor molecule, acceptor atom, score
      L1  H     4    42       P1  7948  2.00
      P1  H  6896  6908       L1    11  2.00
      P1  H  6931  6943       L1    13  1.00
      P1  H  7989  7998       L1    20  0.94

> <Gold.PLP.Chemscore.Internal.Correction>
0.1143

> <Gold.Rescore>
     Score         DG    S(hbond)    S(metal)    S(lipo)     H(rot)  DE(clash)    DE(int)     intcor
     14.60     -18.50       2.61        0.00      71.47       1.58       1.54       2.37       ----

> <Gold.Chemscore.Fitness>
14.5950

> <Gold.Chemscore.DG>
-18.5003

> <Gold.Chemscore.ZeroCoef>
-5.4800

> <Gold.Chemscore.Hbond>
2.6052

> <Gold.Chemscore.Metal>
0.0000

> <Gold.Chemscore.Lipo>
71.4664

> <Gold.Chemscore.Internal_Hbond>
0.0000

> <Gold.Chemscore.DEClash>
1.5356

> <Gold.Chemscore.DEInternal>
2.3697

> <Gold.Chemscore.Rot>
1.5791

> <Gold.Chemscore.Internal.Correction>
   9.000000E+99

> <Gold.Chemscore.Hbonds>
donor molecule, donor type, donor heavy atom, donor atom, acceptor molecule, acceptor atom, score
      L1  H     4    42       P1  7948  0.97
      P1  H  6896  6908       L1    11  0.60
      P1  H  6931  6943       L1    13  0.86
      P1  H  7989  7998       L1    20  0.20

> <Gold.Chemscore.Hbond.Weighted>
-8.7012

> <Gold.Chemscore.Metal.Weighted>
-0.0000

> <Gold.Chemscore.Lipo.Weighted>
-8.3616

> <Gold.Chemscore.Internal_Hbond.Weighted>
0.0000

> <Gold.Chemscore.DEClash.Weighted>
1.5356

> <Gold.Chemscore.DEInternal.Weighted>
2.3697

> <Gold.Chemscore.Rot.Weighted>
4.0425

> <Gold.Chemscore.Internal.Correction.Weighted>
   9.000000E+99

> <Gold.Protein.RotatedTorsions>
[ 6907 6896 6895 6894 ] final -175.69 input  -60.11 | X-H torsion
[ 7974 7965 7964 7962 ] final  138.50 input  175.53 | X-H torsion
[ 8008 7997 7996 7995 ] final -141.26 input   59.86 | X-H torsion
[ 10167 10162 10161 10158 ] final   12.59 input  -65.29 | X-H torsion
[ 10718 10713 10712 10709 ] final -126.22 input   66.30 | X-H torsion
[ 10763 10752 10751 10750 ] final  172.02 input  -60.55 | X-H torsion
[ 11005 11000 10999 10996 ] final  143.47 input  -57.11 | X-H torsion

> <Gold.Protein.ActiveResidues>
 VAL166  LYS551  ARG553  GLY616  TRP617  ASP618  TYR619  PRO620  LYS621  CYS622 
 ASP623  PHE694  ASN695  SER759  ASP760  ASP761  ALA762  ILE779  LEU786  VAL792 
 PHE793  MET794  SER795  GLU796  ALA797  LYS798  CYS799  TRP800  GLU811  SER814 

> <Gold.Protein.RotatedAtoms>
  151.5927  133.3365  159.3030 H   0  0  0  0  0  0  0  0  0  0  0  0  # atno 6907 bound_to 6896
  150.8251  134.7481  159.6817 H   0  0  0  0  0  0  0  0  0  0  0  0  # atno 6908 bound_to 6896
  152.4341  134.5726  159.9977 H   0  0  0  0  0  0  0  0  0  0  0  0  # atno 6909 bound_to 6896
  144.9367  139.4981  143.5592 H   0  0  0  0  0  0  0  0  0  0  0  0  # atno 7974 bound_to 7965
  155.4749  140.0556  157.2975 H   0  0  0  0  0  0  0  0  0  0  0  0  # atno 8008 bound_to 7997
  154.4683  140.2029  156.0013 H   0  0  0  0  0  0  0  0  0  0  0  0  # atno 8009 bound_to 7997
  156.1013  140.3218  155.7950 H   0  0  0  0  0  0  0  0  0  0  0  0  # atno 8010 bound_to 7997
  140.6058  143.8511  150.7012 H   0  0  0  0  0  0  0  0  0  0  0  0  # atno 10167 bound_to 10162
  156.1746  130.6691  151.0225 H   0  0  0  0  0  0  0  0  0  0  0  0  # atno 10718 bound_to 10713
  154.4201  135.2757  155.1981 H   0  0  0  0  0  0  0  0  0  0  0  0  # atno 10763 bound_to 10752
  154.3930  135.6062  153.5857 H   0  0  0  0  0  0  0  0  0  0  0  0  # atno 10764 bound_to 10752
  152.9833  135.5908  154.4496 H   0  0  0  0  0  0  0  0  0  0  0  0  # atno 10765 bound_to 10752
  140.0556  134.9232  157.1095 H   0  0  0  0  0  0  0  0  0  0  0  0  # atno 11005 bound_to 11000
  146.3269  139.8356  142.8900 LP  0  0  0  0  0  0  0  0  0  0  0  0  # atno 17320 bound_to 7965
  145.3056  141.0206  143.3584 LP  0  0  0  0  0  0  0  0  0  0  0  0  # atno 17321 bound_to 7965
  140.2067  143.3915  152.1749 LP  0  0  0  0  0  0  0  0  0  0  0  0  # atno 17342 bound_to 10162
  139.5324  144.7173  151.5010 LP  0  0  0  0  0  0  0  0  0  0  0  0  # atno 17343 bound_to 10162
  157.6827  131.0833  150.7328 LP  0  0  0  0  0  0  0  0  0  0  0  0  # atno 17370 bound_to 10713
  156.7386  130.4732  149.5483 LP  0  0  0  0  0  0  0  0  0  0  0  0  # atno 17371 bound_to 10713
  140.3849  134.2247  155.7169 LP  0  0  0  0  0  0  0  0  0  0  0  0  # atno 17394 bound_to 11000
  141.1950  133.8114  157.0731 LP  0  0  0  0  0  0  0  0  0  0  0  0  # atno 17395 bound_to 11000

$$$$
