AV-unprocessed.smi:1794|AV-procd|sdf|7235|dock6
  -GOLD-   22720 8483D 1   1.00000     0.00000
 Structure written by MMmdl.
 56 58  0  0  0  0  0  0  0  0  3 V2000
  154.8474  135.9537  159.7374 C   0  0  0  0  0  0  0  0  0  0  0  0
  156.0223  136.4739  160.6021 C   0  0  0  0  0  0  0  0  0  0  0  0
  157.2379  135.5344  160.3787 C   0  0  0  0  0  0  0  0  0  0  0  0
  156.4346  137.9011  160.1340 C   0  0  0  0  0  0  0  0  0  0  0  0
  155.2941  138.7606  159.8279 N   0  0  0  0  0  0  0  0  0  0  0  0
  155.0269  139.9141  160.4530 C   0  0  0  0  0  0  0  0  0  0  0  0
  155.7324  140.3802  161.3472 O   0  0  0  0  0  0  0  0  0  0  0  0
  153.8928  140.4673  159.9921 N   0  0  0  0  0  0  0  0  0  0  0  0
  153.2433  141.6467  160.4541 C   0  0  0  0  0  0  0  0  0  0  0  0
  153.5425  142.2030  161.7244 C   0  0  0  0  0  0  0  0  0  0  0  0
  152.8661  143.3568  162.1635 C   0  0  0  0  0  0  0  0  0  0  0  0
  151.9030  143.9411  161.3234 C   0  0  0  0  0  0  0  0  0  0  0  0
  151.6558  143.4005  160.1124 N   0  3  0  0  0  0  0  0  0  0  0  0
  152.2834  142.3000  159.6276 C   0  0  0  0  0  0  0  0  0  0  0  0
  151.9287  141.8534  158.3343 N   0  0  0  0  0  0  0  0  0  0  0  0
  151.5457  140.4643  158.1106 C   0  0  0  0  0  0  0  0  0  0  0  0
  150.9121  140.4491  156.7222 C   0  0  0  0  0  0  0  0  0  0  0  0
  150.2054  141.8003  156.6705 C   0  0  0  0  0  0  0  0  0  0  0  0
  151.1235  142.7217  157.4810 C   0  0  0  0  0  0  0  0  0  0  0  0
  155.6472  136.5240  162.0649 N   0  3  0  0  0  0  0  0  0  0  0  0
  156.6982  137.0608  162.9781 C   0  0  0  0  0  0  0  0  0  0  0  0
  156.2798  136.9042  164.4487 C   0  0  0  0  0  0  0  0  0  0  0  0
  155.0528  137.5843  164.6646 O   0  0  0  0  0  0  0  0  0  0  0  0
  154.0074  137.0309  163.8799 C   0  0  0  0  0  0  0  0  0  0  0  0
  154.3406  137.1701  162.3843 C   0  0  0  0  0  0  0  0  0  0  0  0
  155.1488  135.8125  158.6990 H   0  0  0  0  0  0  0  0  0  0  0  0
  154.0075  136.6483  159.7264 H   0  0  0  0  0  0  0  0  0  0  0  0
  154.4788  134.9905  160.0899 H   0  0  0  0  0  0  0  0  0  0  0  0
  157.6056  135.5689  159.3531 H   0  0  0  0  0  0  0  0  0  0  0  0
  156.9889  134.4883  160.5569 H   0  0  0  0  0  0  0  0  0  0  0  0
  158.0723  135.8006  161.0286 H   0  0  0  0  0  0  0  0  0  0  0  0
  157.0116  138.4188  160.8987 H   0  0  0  0  0  0  0  0  0  0  0  0
  157.0729  137.8344  159.2510 H   0  0  0  0  0  0  0  0  0  0  0  0
  154.6640  138.4467  159.1043 H   0  0  0  0  0  0  0  0  0  0  0  0
  153.3748  139.9208  159.3200 H   0  0  0  0  0  0  0  0  0  0  0  0
  154.2867  141.7629  162.3706 H   0  0  0  0  0  0  0  0  0  0  0  0
  153.0822  143.7846  163.1317 H   0  0  0  0  0  0  0  0  0  0  0  0
  151.3322  144.8227  161.5769 H   0  0  0  0  0  0  0  0  0  0  0  0
  152.4070  139.7984  158.1704 H   0  0  0  0  0  0  0  0  0  0  0  0
  150.8112  140.1463  158.8516 H   0  0  0  0  0  0  0  0  0  0  0  0
  151.6885  140.4062  155.9571 H   0  0  0  0  0  0  0  0  0  0  0  0
  150.2378  139.6058  156.5702 H   0  0  0  0  0  0  0  0  0  0  0  0
  150.0386  142.1555  155.6532 H   0  0  0  0  0  0  0  0  0  0  0  0
  149.2347  141.7240  157.1627 H   0  0  0  0  0  0  0  0  0  0  0  0
  150.5483  143.4470  158.0578 H   0  0  0  0  0  0  0  0  0  0  0  0
  151.7865  143.2689  156.8102 H   0  0  0  0  0  0  0  0  0  0  0  0
  157.6490  136.5498  162.8471 H   0  0  0  0  0  0  0  0  0  0  0  0
  156.8717  138.1176  162.7728 H   0  0  0  0  0  0  0  0  0  0  0  0
  156.1860  135.8517  164.7209 H   0  0  0  0  0  0  0  0  0  0  0  0
  157.0386  137.3356  165.1019 H   0  0  0  0  0  0  0  0  0  0  0  0
  153.8501  135.9847  164.1477 H   0  0  0  0  0  0  0  0  0  0  0  0
  153.0809  137.5584  164.1072 H   0  0  0  0  0  0  0  0  0  0  0  0
  154.3665  138.2245  162.1082 H   0  0  0  0  0  0  0  0  0  0  0  0
  153.5195  136.7110  161.8372 H   0  0  0  0  0  0  0  0  0  0  0  0
  155.5266  135.5570  162.3315 H   0  0  0  0  0  0  0  0  0  0  0  0
  150.9581  143.8537  159.5220 H   0  0  0  0  0  0  0  0  0  0  0  0
  1  2  1  0  0  0  0
  1 26  1  0  0  0  0
  1 27  1  0  0  0  0
  1 28  1  0  0  0  0
  2  3  1  0  0  0  0
  2  4  1  0  0  0  0
  2 20  1  0  0  0  0
  3 29  1  0  0  0  0
  3 30  1  0  0  0  0
  3 31  1  0  0  0  0
  4  5  1  0  0  0  0
  4 32  1  0  0  0  0
  4 33  1  0  0  0  0
  5  6  1  0  0  0  0
  5 34  1  0  0  0  0
  6  7  2  0  0  0  0
  6  8  1  0  0  0  0
  8  9  1  0  0  0  0
  8 35  1  0  0  0  0
  9 14  1  0  0  0  0
  9 10  2  0  0  0  0
 10 11  1  0  0  0  0
 10 36  1  0  0  0  0
 11 12  2  0  0  0  0
 11 37  1  0  0  0  0
 12 13  1  0  0  0  0
 12 38  1  0  0  0  0
 13 14  2  0  0  0  0
 13 56  1  0  0  0  0
 14 15  1  0  0  0  0
 15 19  1  0  0  0  0
 15 16  1  0  0  0  0
 16 17  1  0  0  0  0
 16 39  1  0  0  0  0
 16 40  1  0  0  0  0
 17 18  1  0  0  0  0
 17 41  1  0  0  0  0
 17 42  1  0  0  0  0
 18 19  1  0  0  0  0
 18 43  1  0  0  0  0
 18 44  1  0  0  0  0
 19 45  1  0  0  0  0
 19 46  1  0  0  0  0
 20 25  1  0  0  0  0
 20 21  1  0  0  0  0
 20 55  1  0  0  0  0
 21 22  1  0  0  0  0
 21 47  1  0  0  0  0
 21 48  1  0  0  0  0
 22 23  1  0  0  0  0
 22 49  1  0  0  0  0
 22 50  1  0  0  0  0
 23 24  1  0  0  0  0
 24 25  1  0  0  0  0
 24 51  1  0  0  0  0
 24 52  1  0  0  0  0
 25 53  1  0  0  0  0
 25 54  1  0  0  0  0
M  CHG  1  13   1
M  CHG  1  20   1
M  END
> <s_m_source_file>
AV-unprocessed.smi

> <i_m_source_file_index>
1794

> <i_lp_mmshare_version>
43012

> <i_f3d_flags>
0

> <s_epik_input>
W0NIMl0xW0NIMl1PW0NIMl1bQ0gyXU4xQyhbQ0gzXSkoW0NIM10pW0NIMl1bTkhdQyg9TylbTkhdYzJbY0hdW2NIXVtjSF1uYzJOM1tDSDJdW0NIMl1bQ0gyXVtDSDJdMw==

> <s_epik_cmdline>
J2VwaWtfcHl0aG9uJywgJy1waCcsICc3LjAnLCAnLXRuJywgJzgnLCAnLW1hJywgJzIwMCcsICctbWV0YWxfYmluZGluZycsICctaW1hZScsICc8aW5maWxlLm1hZT4nLCAnLW9tYWUnLCAnPG91dGZpbGUubWFlPic=

> <r_lp_tautomer_probability>
0.999994

> <r_epik_Ionization_Penalty>
1.80144

> <r_epik_Ionization_Penalty_Charging>
1.80142

> <r_epik_Ionization_Penalty_Neutral>
2.02981e-05

> <r_epik_State_Penalty>
1.84115

> <r_epik_Charging_Adjusted_Penalty>
3.64257

> <i_epik_Tot_Q>
2

> <i_epik_Tot_abs_Q>
2

> <r_epik_Metal_State_Penalty>
1.92426

> <b_epik_Metal_Only>
0

> <s_lp_Force_Field>
OPLS_2005

> <r_lp_Energy>
63.0658

> <b_lp_Chiralities_Consistent>
1

> <s_lp_Variant>
AV-unprocessed.smi:1794-4

> <Gold.Version>
5.8.1

> <Gold.Id.Protein>
6NUR|6NUR_protein|mol2

> <Gold.PLP.Fitness>
41.7032

> <Gold.PLP.PLP>
-42.5457

> <Gold.PLP.part.hbond>
-0.9246

> <Gold.PLP.part.metal>
0.0000

> <Gold.PLP.part.buried>
-6.6532

> <Gold.PLP.part.nonpolar>
-34.5195

> <Gold.PLP.part.repulsive>
0.2810

> <Gold.PLP.ligand.clash>
0.0000

> <Gold.PLP.ligand.torsion>
0.6604

> <Gold.PLP.Chemscore.Hbond>
0.0000

> <Gold.PLP.Chemscore.CHOScore>
0.0000

> <Gold.PLP.Chemscore.Metal>
0.0000

> <Gold.PLP.Chemscore.Internal.Correction>
0.4783

> <Gold.Rescore>
     Score         DG    S(hbond)    S(metal)    S(lipo)     H(rot)  DE(clash)    DE(int)     intcor
     11.88     -13.88       0.00        0.00     107.55       1.64       0.02       1.98       ----

> <Gold.Chemscore.Fitness>
11.8753

> <Gold.Chemscore.DG>
-13.8773

> <Gold.Chemscore.ZeroCoef>
-5.4800

> <Gold.Chemscore.Hbond>
0.0000

> <Gold.Chemscore.Metal>
0.0000

> <Gold.Chemscore.Lipo>
107.5465

> <Gold.Chemscore.Internal_Hbond>
0.0000

> <Gold.Chemscore.DEClash>
0.0226

> <Gold.Chemscore.DEInternal>
1.9794

> <Gold.Chemscore.Rot>
1.6350

> <Gold.Chemscore.Internal.Correction>
   9.000000E+99

> <Gold.Chemscore.Hbond.Weighted>
-0.0000

> <Gold.Chemscore.Metal.Weighted>
-0.0000

> <Gold.Chemscore.Lipo.Weighted>
-12.5829

> <Gold.Chemscore.Internal_Hbond.Weighted>
0.0000

> <Gold.Chemscore.DEClash.Weighted>
0.0226

> <Gold.Chemscore.DEInternal.Weighted>
1.9794

> <Gold.Chemscore.Rot.Weighted>
4.1856

> <Gold.Chemscore.Internal.Correction.Weighted>
   9.000000E+99

> <Gold.Protein.RotatedTorsions>
[ 6907 6896 6895 6894 ] final  -36.66 input  -60.11 | X-H torsion
[ 7974 7965 7964 7962 ] final  -56.13 input  175.53 | X-H torsion
[ 8008 7997 7996 7995 ] final   -4.79 input   59.86 | X-H torsion
[ 10167 10162 10161 10158 ] final   12.24 input  -65.29 | X-H torsion
[ 10718 10713 10712 10709 ] final -103.57 input   66.30 | X-H torsion
[ 10763 10752 10751 10750 ] final  105.10 input  -60.55 | X-H torsion
[ 11005 11000 10999 10996 ] final  -55.02 input  -57.11 | X-H torsion

> <Gold.Protein.ActiveResidues>
 VAL166  LYS551  ARG553  GLY616  TRP617  ASP618  TYR619  PRO620  LYS621  CYS622 
 ASP623  PHE694  ASN695  SER759  ASP760  ASP761  ALA762  ILE779  LEU786  VAL792 
 PHE793  MET794  SER795  GLU796  ALA797  LYS798  CYS799  TRP800  GLU811  SER814 

> <Gold.Protein.RotatedAtoms>
  151.0244  134.9493  159.8076 H   0  0  0  0  0  0  0  0  0  0  0  0  # atno 6907 bound_to 6896
  152.5332  134.2862  159.9036 H   0  0  0  0  0  0  0  0  0  0  0  0  # atno 6908 bound_to 6896
  151.2870  133.4141  159.2664 H   0  0  0  0  0  0  0  0  0  0  0  0  # atno 6909 bound_to 6896
  145.8662  140.8249  142.9911 H   0  0  0  0  0  0  0  0  0  0  0  0  # atno 7974 bound_to 7965
  154.6106  140.2475  155.7673 H   0  0  0  0  0  0  0  0  0  0  0  0  # atno 8008 bound_to 7997
  156.2368  140.2947  156.0285 H   0  0  0  0  0  0  0  0  0  0  0  0  # atno 8009 bound_to 7997
  155.2058  140.0395  157.2915 H   0  0  0  0  0  0  0  0  0  0  0  0  # atno 8010 bound_to 7997
  140.6081  143.8466  150.7035 H   0  0  0  0  0  0  0  0  0  0  0  0  # atno 10167 bound_to 10162
  156.0270  130.5474  150.7272 H   0  0  0  0  0  0  0  0  0  0  0  0  # atno 10718 bound_to 10713
  153.3748  135.3921  155.1815 H   0  0  0  0  0  0  0  0  0  0  0  0  # atno 10763 bound_to 10752
  154.8699  135.3711  154.4931 H   0  0  0  0  0  0  0  0  0  0  0  0  # atno 10764 bound_to 10752
  153.5403  135.7084  153.5701 H   0  0  0  0  0  0  0  0  0  0  0  0  # atno 10765 bound_to 10752
  141.1054  133.6614  156.4407 H   0  0  0  0  0  0  0  0  0  0  0  0  # atno 11005 bound_to 11000
  144.6726  140.1170  143.7452 LP  0  0  0  0  0  0  0  0  0  0  0  0  # atno 17320 bound_to 7965
  145.9190  139.2534  143.1393 LP  0  0  0  0  0  0  0  0  0  0  0  0  # atno 17321 bound_to 7965
  140.2028  143.3946  152.1778 LP  0  0  0  0  0  0  0  0  0  0  0  0  # atno 17342 bound_to 10162
  139.5340  144.7190  151.4957 LP  0  0  0  0  0  0  0  0  0  0  0  0  # atno 17343 bound_to 10162
  157.4873  131.0908  151.0467 LP  0  0  0  0  0  0  0  0  0  0  0  0  # atno 17370 bound_to 10713
  157.0884  130.5932  149.5434 LP  0  0  0  0  0  0  0  0  0  0  0  0  # atno 17371 bound_to 10713
  140.4916  134.6570  157.5213 LP  0  0  0  0  0  0  0  0  0  0  0  0  # atno 17394 bound_to 11000
  139.9922  134.6968  155.9671 LP  0  0  0  0  0  0  0  0  0  0  0  0  # atno 17395 bound_to 11000

$$$$
