AV-unprocessed.smi:3241|AV-procd|sdf|12385|dock3
  -GOLD-   2272018253D 1   1.00000     0.00000
 Structure written by MMmdl.
 44 45  0  0  0  0  0  0  0  0  2 V2000
  150.8066  145.3296  159.5278 C   0  0  0  0  0  0  0  0  0  0  0  0
  151.3263  143.9868  160.0672 C   0  0  2  0  0  0  0  0  0  0  0  0
  152.2077  144.2074  161.3131 C   0  0  0  0  0  0  0  0  0  0  0  0
  152.7454  142.8823  161.8732 C   0  0  0  0  0  0  0  0  0  0  0  0
  153.5152  142.1025  160.7987 C   0  0  0  0  0  0  0  0  0  0  0  0
  152.6426  141.8668  159.5573 C   0  0  0  0  0  0  0  0  0  0  0  0
  152.0959  143.1933  158.9865 C   0  0  1  0  0  0  0  0  0  0  0  0
  151.1926  142.9219  157.9212 O   0  0  0  0  0  0  0  0  0  0  0  0
  149.9924  142.2719  158.3130 C   0  0  0  0  0  0  0  0  0  0  0  0
  149.4750  141.4522  157.1268 C   0  0  0  0  0  0  0  0  0  0  0  0
  148.3905  142.1646  156.4232 N   0  3  0  0  0  0  0  0  0  0  0  0
  147.8723  141.4511  155.2403 C   0  0  0  0  0  0  0  0  0  0  0  0
  148.9747  141.2520  154.1903 C   0  0  0  0  0  0  0  0  0  0  0  0
  149.7489  140.0526  154.4441 N   0  0  0  0  0  0  0  0  0  0  0  0
  149.3466  138.7363  154.3576 C   0  0  0  0  0  0  0  0  0  0  0  0
  150.4199  137.9612  154.6921 C   0  0  0  0  0  0  0  0  0  0  0  0
  151.4452  138.9067  154.9742 C   0  0  0  0  0  0  0  0  0  0  0  0
  151.0398  140.1579  154.8258 N   0  0  0  0  0  0  0  0  0  0  0  0
  151.6260  145.9653  159.1911 H   0  0  0  0  0  0  0  0  0  0  0  0
  150.2576  145.8742  160.2963 H   0  0  0  0  0  0  0  0  0  0  0  0
  150.1295  145.1857  158.6855 H   0  0  0  0  0  0  0  0  0  0  0  0
  150.4615  143.3951  160.3715 H   0  0  0  0  0  0  0  0  0  0  0  0
  153.0451  144.8601  161.0614 H   0  0  0  0  0  0  0  0  0  0  0  0
  151.6381  144.7235  162.0867 H   0  0  0  0  0  0  0  0  0  0  0  0
  153.3934  143.0757  162.7285 H   0  0  0  0  0  0  0  0  0  0  0  0
  151.9167  142.2772  162.2435 H   0  0  0  0  0  0  0  0  0  0  0  0
  154.4123  142.6551  160.5166 H   0  0  0  0  0  0  0  0  0  0  0  0
  153.8532  141.1479  161.2029 H   0  0  0  0  0  0  0  0  0  0  0  0
  153.2283  141.3361  158.8073 H   0  0  0  0  0  0  0  0  0  0  0  0
  151.8108  141.2115  159.8192 H   0  0  0  0  0  0  0  0  0  0  0  0
  152.9243  143.8091  158.6306 H   0  0  0  0  0  0  0  0  0  0  0  0
  150.1953  141.6055  159.1526 H   0  0  0  0  0  0  0  0  0  0  0  0
  149.2367  142.9875  158.6375 H   0  0  0  0  0  0  0  0  0  0  0  0
  150.2906  141.2380  156.4349 H   0  0  0  0  0  0  0  0  0  0  0  0
  149.0939  140.4940  157.4820 H   0  0  0  0  0  0  0  0  0  0  0  0
  147.6290  142.3137  157.0699 H   0  0  0  0  0  0  0  0  0  0  0  0
  147.4749  140.4834  155.5499 H   0  0  0  0  0  0  0  0  0  0  0  0
  147.0441  142.0200  154.8155 H   0  0  0  0  0  0  0  0  0  0  0  0
  148.5447  141.1818  153.1901 H   0  0  0  0  0  0  0  0  0  0  0  0
  149.6525  142.1067  154.1849 H   0  0  0  0  0  0  0  0  0  0  0  0
  148.3426  138.4627  154.0685 H   0  0  0  0  0  0  0  0  0  0  0  0
  150.4657  136.8830  154.7312 H   0  0  0  0  0  0  0  0  0  0  0  0
  152.4642  138.7221  155.2808 H   0  0  0  0  0  0  0  0  0  0  0  0
  148.7432  143.0634  156.1263 H   0  0  0  0  0  0  0  0  0  0  0  0
  1  2  1  0  0  0  0
  1 19  1  0  0  0  0
  1 20  1  0  0  0  0
  1 21  1  0  0  0  0
  2  7  1  0  0  0  0
  2  3  1  0  0  0  0
  2 22  1  0  0  0  0
  3  4  1  0  0  0  0
  3 23  1  0  0  0  0
  3 24  1  0  0  0  0
  4  5  1  0  0  0  0
  4 25  1  0  0  0  0
  4 26  1  0  0  0  0
  5  6  1  0  0  0  0
  5 27  1  0  0  0  0
  5 28  1  0  0  0  0
  6  7  1  0  0  0  0
  6 29  1  0  0  0  0
  6 30  1  0  0  0  0
  7  8  1  0  0  0  0
  7 31  1  0  0  0  0
  8  9  1  0  0  0  0
  9 10  1  0  0  0  0
  9 32  1  0  0  0  0
  9 33  1  0  0  0  0
 10 11  1  0  0  0  0
 10 34  1  0  0  0  0
 10 35  1  0  0  0  0
 11 12  1  0  0  0  0
 11 36  1  0  0  0  0
 11 44  1  0  0  0  0
 12 13  1  0  0  0  0
 12 37  1  0  0  0  0
 12 38  1  0  0  0  0
 13 14  1  0  0  0  0
 13 39  1  0  0  0  0
 13 40  1  0  0  0  0
 14 18  1  0  0  0  0
 14 15  1  0  0  0  0
 15 16  2  0  0  0  0
 15 41  1  0  0  0  0
 16 17  1  0  0  0  0
 16 42  1  0  0  0  0
 17 18  2  0  0  0  0
 17 43  1  0  0  0  0
M  CHG  1  11   1
M  END
> <s_m_source_file>
AV-unprocessed.smi

> <i_m_source_file_index>
3241

> <i_lp_mmshare_version>
43012

> <i_f3d_flags>
0

> <s_epik_input>
W0NIM11bQ0BASF0xW0NIMl1bQ0gyXVtDSDJdW0NIMl1bQ0BIXTFPW0NIMl1bQ0gyXVtOSF1bQ0gyXVtDSDJdbjJbY0hdW2NIXVtjSF1uMg==

> <s_epik_cmdline>
J2VwaWtfcHl0aG9uJywgJy1waCcsICc3LjAnLCAnLXRuJywgJzgnLCAnLW1hJywgJzIwMCcsICctbWV0YWxfYmluZGluZycsICctaW1hZScsICc8aW5maWxlLm1hZT4nLCAnLW9tYWUnLCAnPG91dGZpbGUubWFlPic=

> <r_lp_tautomer_probability>
1

> <r_epik_Ionization_Penalty>
0.00924946

> <r_epik_Ionization_Penalty_Charging>
0.00924645

> <r_epik_Ionization_Penalty_Neutral>
3.00629e-06

> <r_epik_State_Penalty>
0.0070118

> <r_epik_Charging_Adjusted_Penalty>
0.0162583

> <i_epik_Tot_Q>
1

> <i_epik_Tot_abs_Q>
1

> <r_epik_Metal_State_Penalty>
0.00702523

> <b_epik_Metal_Only>
0

> <s_lp_Force_Field>
OPLS_2005

> <r_lp_Energy>
13.7412

> <b_lp_Chiralities_Consistent>
1

> <s_lp_Variant>
AV-unprocessed.smi:3241-1

> <Gold.Version>
5.8.1

> <Gold.Id.Protein>
6NUR|6NUR_protein|mol2

> <Gold.PLP.Fitness>
54.1464

> <Gold.PLP.PLP>
-46.2396

> <Gold.PLP.part.hbond>
-2.0000

> <Gold.PLP.part.metal>
0.0000

> <Gold.PLP.part.buried>
-4.4697

> <Gold.PLP.part.nonpolar>
-39.6750

> <Gold.PLP.part.repulsive>
0.1799

> <Gold.PLP.ligand.clash>
0.0000

> <Gold.PLP.ligand.torsion>
0.6784

> <Gold.PLP.Chemscore.Hbond>
3.0000

> <Gold.PLP.Chemscore.CHOScore>
0.0000

> <Gold.PLP.Chemscore.Metal>
0.0000

> <Gold.Chemscore.Hbonds>
donor molecule, donor type, donor heavy atom, donor atom, acceptor molecule, acceptor atom, score
      L1  H    11    44       P1  8028  2.00
      P1  H  7989  7998       L1    18  0.95

> <Gold.PLP.Chemscore.Internal.Correction>
0.2636

> <Gold.Rescore>
     Score         DG    S(hbond)    S(metal)    S(lipo)     H(rot)  DE(clash)    DE(int)     intcor
     20.23     -20.87       1.92        0.00     118.06       1.89       0.04       0.60       ----

> <Gold.Chemscore.Fitness>
20.2313

> <Gold.Chemscore.DG>
-20.8717

> <Gold.Chemscore.ZeroCoef>
-5.4800

> <Gold.Chemscore.Hbond>
1.9218

> <Gold.Chemscore.Metal>
0.0000

> <Gold.Chemscore.Lipo>
118.0590

> <Gold.Chemscore.Internal_Hbond>
0.0000

> <Gold.Chemscore.DEClash>
0.0418

> <Gold.Chemscore.DEInternal>
0.5986

> <Gold.Chemscore.Rot>
1.8906

> <Gold.Chemscore.Internal.Correction>
   9.000000E+99

> <Gold.Chemscore.Hbonds>
donor molecule, donor type, donor heavy atom, donor atom, acceptor molecule, acceptor atom, score
      L1  H    11    44       P1  8028  0.99
      P1  H  7989  7998       L1    18  0.18

> <Gold.Chemscore.Hbond.Weighted>
-6.4188

> <Gold.Chemscore.Metal.Weighted>
-0.0000

> <Gold.Chemscore.Lipo.Weighted>
-13.8129

> <Gold.Chemscore.Internal_Hbond.Weighted>
0.0000

> <Gold.Chemscore.DEClash.Weighted>
0.0418

> <Gold.Chemscore.DEInternal.Weighted>
0.5986

> <Gold.Chemscore.Rot.Weighted>
4.8400

> <Gold.Chemscore.Internal.Correction.Weighted>
   9.000000E+99

> <Gold.Protein.RotatedTorsions>
[ 6907 6896 6895 6894 ] final  149.00 input  -60.11 | X-H torsion
[ 7974 7965 7964 7962 ] final -143.91 input  175.53 | X-H torsion
[ 8008 7997 7996 7995 ] final   74.19 input   59.86 | X-H torsion
[ 10167 10162 10161 10158 ] final   33.52 input  -65.29 | X-H torsion
[ 10718 10713 10712 10709 ] final   -0.08 input   66.30 | X-H torsion
[ 10763 10752 10751 10750 ] final -171.52 input  -60.55 | X-H torsion
[ 11005 11000 10999 10996 ] final  -45.74 input  -57.11 | X-H torsion

> <Gold.Protein.ActiveResidues>
 VAL166  LYS551  ARG553  GLY616  TRP617  ASP618  TYR619  PRO620  LYS621  CYS622 
 ASP623  PHE694  ASN695  SER759  ASP760  ASP761  ALA762  ILE779  LEU786  VAL792 
 PHE793  MET794  SER795  GLU796  ALA797  LYS798  CYS799  TRP800  GLU811  SER814 

> <Gold.Protein.RotatedAtoms>
  152.1339  133.4424  159.4733 H   0  0  0  0  0  0  0  0  0  0  0  0  # atno 6907 bound_to 6896
  150.6880  134.2387  159.4473 H   0  0  0  0  0  0  0  0  0  0  0  0  # atno 6908 bound_to 6896
  152.0273  134.9787  160.0622 H   0  0  0  0  0  0  0  0  0  0  0  0  # atno 6909 bound_to 6896
  144.8335  140.5775  143.5499 H   0  0  0  0  0  0  0  0  0  0  0  0  # atno 7974 bound_to 7965
  155.7948  140.3478  155.5369 H   0  0  0  0  0  0  0  0  0  0  0  0  # atno 8008 bound_to 7997
  155.8598  140.0969  157.1641 H   0  0  0  0  0  0  0  0  0  0  0  0  # atno 8009 bound_to 7997
  154.4011  140.1361  156.3934 H   0  0  0  0  0  0  0  0  0  0  0  0  # atno 8010 bound_to 7997
  140.4399  144.1202  150.6172 H   0  0  0  0  0  0  0  0  0  0  0  0  # atno 10167 bound_to 10162
  156.8257  130.5471  149.5692 H   0  0  0  0  0  0  0  0  0  0  0  0  # atno 10718 bound_to 10713
  154.6295  135.2885  155.0233 H   0  0  0  0  0  0  0  0  0  0  0  0  # atno 10763 bound_to 10752
  154.1398  135.6520  153.4943 H   0  0  0  0  0  0  0  0  0  0  0  0  # atno 10764 bound_to 10752
  153.0273  135.5330  154.7117 H   0  0  0  0  0  0  0  0  0  0  0  0  # atno 10765 bound_to 10752
  141.0534  133.6734  156.3055 H   0  0  0  0  0  0  0  0  0  0  0  0  # atno 11005 bound_to 11000
  145.4845  139.1493  143.3744 LP  0  0  0  0  0  0  0  0  0  0  0  0  # atno 17320 bound_to 7965
  146.2636  140.4981  142.8843 LP  0  0  0  0  0  0  0  0  0  0  0  0  # atno 17321 bound_to 7965
  140.4330  143.2560  151.9571 LP  0  0  0  0  0  0  0  0  0  0  0  0  # atno 17342 bound_to 10162
  139.4789  144.5726  151.8063 LP  0  0  0  0  0  0  0  0  0  0  0  0  # atno 17343 bound_to 10162
  156.0963  130.5935  150.9819 LP  0  0  0  0  0  0  0  0  0  0  0  0  # atno 17370 bound_to 10713
  157.6433  131.0907  150.8205 LP  0  0  0  0  0  0  0  0  0  0  0  0  # atno 17371 bound_to 10713
  140.6010  134.5554  157.5517 LP  0  0  0  0  0  0  0  0  0  0  0  0  # atno 17394 bound_to 11000
  139.9370  134.7857  156.0778 LP  0  0  0  0  0  0  0  0  0  0  0  0  # atno 17395 bound_to 11000

$$$$
