AV-unprocessed.smi:1710|AV-procd|sdf|6899|dock3
  -GOLD-   22720 8103D 1   1.00000     0.00000
 Structure written by MMmdl.
 36 37  0  0  0  0  0  0  0  0  1 V2000
  149.1465  141.3582  156.1988 C   0  0  0  0  0  0  0  0  0  0  0  0
  149.1915  140.2859  154.7051 S   0  0  0  0  0  0  0  0  0  0  0  0
  149.5671  141.1200  153.5531 O   0  0  0  0  0  0  0  0  0  0  0  0
  149.9807  139.0865  155.0249 O   0  0  0  0  0  0  0  0  0  0  0  0
  147.5368  139.7922  154.4877 N   0  0  0  0  0  0  0  0  0  0  0  0
  146.8686  140.0027  153.1875 C   0  0  0  0  0  0  0  0  0  0  0  0
  146.7961  138.7036  152.3658 C   0  0  0  0  0  0  0  0  0  0  0  0
  146.1496  137.5655  153.1728 C   0  0  0  0  0  0  0  0  0  0  0  0
  146.1490  136.3223  152.4068 N   0  0  0  0  0  0  0  0  0  0  0  0
  145.0537  135.6286  152.0652 C   0  0  0  0  0  0  0  0  0  0  0  0
  143.9102  135.9685  152.3697 O   0  0  0  0  0  0  0  0  0  0  0  0
  145.3696  134.5354  151.3515 N   0  0  0  0  0  0  0  0  0  0  0  0
  144.4797  133.5615  150.8316 C   0  0  0  0  0  0  0  0  0  0  0  0
  144.5710  132.9924  149.5322 C   0  0  0  0  0  0  0  0  0  0  0  0
  143.6073  132.1066  149.3233 N   0  0  0  0  0  0  0  0  0  0  0  0
  142.9035  132.1029  150.4778 N   0  0  0  0  0  0  0  0  0  0  0  0
  143.3986  132.9720  151.4248 C   0  0  0  0  0  0  0  0  0  0  0  0
  146.9225  137.3734  154.4853 C   0  0  0  0  0  0  0  0  0  0  0  0
  146.9869  138.6824  155.2919 C   0  0  0  0  0  0  0  0  0  0  0  0
  142.0976  131.5068  150.6040 H   0  0  0  0  0  0  0  0  0  0  0  0
  150.1559  141.7065  156.4160 H   0  0  0  0  0  0  0  0  0  0  0  0
  148.7769  140.7919  157.0516 H   0  0  0  0  0  0  0  0  0  0  0  0
  148.5075  142.2205  156.0168 H   0  0  0  0  0  0  0  0  0  0  0  0
  145.8592  140.3699  153.3758 H   0  0  0  0  0  0  0  0  0  0  0  0
  147.3771  140.7815  152.6201 H   0  0  0  0  0  0  0  0  0  0  0  0
  146.2268  138.8859  151.4536 H   0  0  0  0  0  0  0  0  0  0  0  0
  147.7954  138.4100  152.0455 H   0  0  0  0  0  0  0  0  0  0  0  0
  145.1214  137.8394  153.4179 H   0  0  0  0  0  0  0  0  0  0  0  0
  147.0476  135.9685  152.1122 H   0  0  0  0  0  0  0  0  0  0  0  0
  146.3486  134.3844  151.1574 H   0  0  0  0  0  0  0  0  0  0  0  0
  145.2891  133.1888  148.7498 H   0  0  0  0  0  0  0  0  0  0  0  0
  142.9484  133.0818  152.4000 H   0  0  0  0  0  0  0  0  0  0  0  0
  146.4454  136.5996  155.0881 H   0  0  0  0  0  0  0  0  0  0  0  0
  147.9302  137.0164  154.2749 H   0  0  0  0  0  0  0  0  0  0  0  0
  147.5749  138.5416  156.1984 H   0  0  0  0  0  0  0  0  0  0  0  0
  145.9834  138.9590  155.6171 H   0  0  0  0  0  0  0  0  0  0  0  0
  1  2  1  0  0  0  0
  1 21  1  0  0  0  0
  1 22  1  0  0  0  0
  1 23  1  0  0  0  0
  2  3  2  0  0  0  0
  2  4  2  0  0  0  0
  2  5  1  0  0  0  0
  5 19  1  0  0  0  0
  5  6  1  0  0  0  0
  6  7  1  0  0  0  0
  6 24  1  0  0  0  0
  6 25  1  0  0  0  0
  7  8  1  0  0  0  0
  7 26  1  0  0  0  0
  7 27  1  0  0  0  0
  8  9  1  0  0  0  0
  8 18  1  0  0  0  0
  8 28  1  0  0  0  0
  9 10  1  0  0  0  0
  9 29  1  0  0  0  0
 10 11  2  0  0  0  0
 10 12  1  0  0  0  0
 12 13  1  0  0  0  0
 12 30  1  0  0  0  0
 13 17  2  0  0  0  0
 13 14  1  0  0  0  0
 14 15  2  0  0  0  0
 14 31  1  0  0  0  0
 15 16  1  0  0  0  0
 16 20  1  0  0  0  0
 16 17  1  0  0  0  0
 17 32  1  0  0  0  0
 18 19  1  0  0  0  0
 18 33  1  0  0  0  0
 18 34  1  0  0  0  0
 19 35  1  0  0  0  0
 19 36  1  0  0  0  0
M  END
> <s_m_source_file>
AV-unprocessed.smi

> <i_m_source_file_index>
1710

> <i_lp_mmshare_version>
43012

> <i_f3d_flags>
0

> <s_epik_input>
W0NIM11TKD1PKSg9TylOMVtDSDJdW0NIMl1bQ0hdKFtDSDJdW0NIMl0xKVtOSF1DKD1PKVtOSF1jMltjSF1uW25IXVtjSF0y

> <s_epik_cmdline>
J2VwaWtfcHl0aG9uJywgJy1waCcsICc3LjAnLCAnLXRuJywgJzgnLCAnLW1hJywgJzIwMCcsICctbWV0YWxfYmluZGluZycsICctaW1hZScsICc8aW5maWxlLm1hZT4nLCAnLW9tYWUnLCAnPG91dGZpbGUubWFlPic=

> <r_lp_tautomer_probability>
1

> <r_epik_Ionization_Penalty>
5.00334e-05

> <r_epik_Ionization_Penalty_Charging>
0

> <r_epik_Ionization_Penalty_Neutral>
5.00334e-05

> <r_epik_State_Penalty>
-0

> <r_epik_Charging_Adjusted_Penalty>
0

> <i_epik_Tot_Q>
0

> <i_epik_Tot_abs_Q>
0

> <r_epik_Metal_State_Penalty>
-0

> <b_epik_Metal_Only>
0

> <s_lp_Force_Field>
OPLS_2005

> <r_lp_Energy>
2.71919

> <b_lp_Chiralities_Consistent>
1

> <s_lp_Variant>
AV-unprocessed.smi:1710-1

> <Gold.Version>
5.8.1

> <Gold.Id.Protein>
6NUR|6NUR_protein|mol2

> <Gold.PLP.Fitness>
40.4235

> <Gold.PLP.PLP>
-25.2579

> <Gold.PLP.part.hbond>
-5.6974

> <Gold.PLP.part.metal>
0.0000

> <Gold.PLP.part.buried>
-5.4991

> <Gold.PLP.part.nonpolar>
-19.1339

> <Gold.PLP.part.repulsive>
4.0707

> <Gold.PLP.ligand.clash>
0.0000

> <Gold.PLP.ligand.torsion>
1.4041

> <Gold.PLP.Chemscore.Hbond>
3.7756

> <Gold.PLP.Chemscore.CHOScore>
1.5318

> <Gold.PLP.Chemscore.Metal>
0.0000

> <Gold.Chemscore.Hbonds>
donor molecule, donor type, donor heavy atom, donor atom, acceptor molecule, acceptor atom, score
      L1  H     9    29       P1  7948  1.00
      L1  H    16    20       P1 10952  0.76
      P1  H  7989  7998       L1     3  0.23
      P1  H  8011  8017       L1     3  1.00
      P1  H 10785 10796       L1    15  0.72
      L1  C    14    31       P1  7921  1.00
      L1  C    17    32       P1 10957  0.53

> <Gold.PLP.Chemscore.Internal.Correction>
2.0515

> <Gold.Rescore>
     Score         DG    S(hbond)    S(metal)    S(lipo)     H(rot)  DE(clash)    DE(int)     intcor
     15.39     -18.35       2.89        0.00      49.38       1.00       1.63       1.32       ----

> <Gold.Chemscore.Fitness>
15.3912

> <Gold.Chemscore.DG>
-18.3460

> <Gold.Chemscore.ZeroCoef>
-5.4800

> <Gold.Chemscore.Hbond>
2.8887

> <Gold.Chemscore.Metal>
0.0000

> <Gold.Chemscore.Lipo>
49.3810

> <Gold.Chemscore.Internal_Hbond>
0.0000

> <Gold.Chemscore.DEClash>
1.6325

> <Gold.Chemscore.DEInternal>
1.3223

> <Gold.Chemscore.Rot>
1.0000

> <Gold.Chemscore.Internal.Correction>
   9.000000E+99

> <Gold.Chemscore.Hbonds>
donor molecule, donor type, donor heavy atom, donor atom, acceptor molecule, acceptor atom, score
      L1  H     9    29       P1  7948  0.95
      L1  H    16    20       P1 10952  0.14
      P1  H  7989  7998       L1     3  0.10
      P1  H  8011  8017       L1     3  0.94
      P1  H 10785 10796       L1    15  0.14

> <Gold.Chemscore.Hbond.Weighted>
-9.6484

> <Gold.Chemscore.Metal.Weighted>
-0.0000

> <Gold.Chemscore.Lipo.Weighted>
-5.7776

> <Gold.Chemscore.Internal_Hbond.Weighted>
0.0000

> <Gold.Chemscore.DEClash.Weighted>
1.6325

> <Gold.Chemscore.DEInternal.Weighted>
1.3223

> <Gold.Chemscore.Rot.Weighted>
2.5600

> <Gold.Chemscore.Internal.Correction.Weighted>
   9.000000E+99

> <Gold.Protein.RotatedTorsions>
[ 6907 6896 6895 6894 ] final  -89.86 input  -60.11 | X-H torsion
[ 7974 7965 7964 7962 ] final  -81.40 input  175.53 | X-H torsion
[ 8008 7997 7996 7995 ] final  147.36 input   59.86 | X-H torsion
[ 10167 10162 10161 10158 ] final  -32.47 input  -65.29 | X-H torsion
[ 10718 10713 10712 10709 ] final  170.17 input   66.30 | X-H torsion
[ 10763 10752 10751 10750 ] final  118.93 input  -60.55 | X-H torsion
[ 11005 11000 10999 10996 ] final -169.55 input  -57.11 | X-H torsion

> <Gold.Protein.ActiveResidues>
 VAL166  LYS551  ARG553  GLY616  TRP617  ASP618  TYR619  PRO620  LYS621  CYS622 
 ASP623  PHE694  ASN695  SER759  ASP760  ASP761  ALA762  ILE779  LEU786  VAL792 
 PHE793  MET794  SER795  GLU796  ALA797  LYS798  CYS799  TRP800  GLU811  SER814 

> <Gold.Protein.RotatedAtoms>
  150.6877  134.2521  159.4514 H   0  0  0  0  0  0  0  0  0  0  0  0  # atno 6907 bound_to 6896
  152.0458  134.9681  160.0583 H   0  0  0  0  0  0  0  0  0  0  0  0  # atno 6908 bound_to 6896
  152.1165  133.4295  159.4692 H   0  0  0  0  0  0  0  0  0  0  0  0  # atno 6909 bound_to 6896
  145.5471  140.9502  143.1519 H   0  0  0  0  0  0  0  0  0  0  0  0  # atno 7974 bound_to 7965
  156.2827  140.2157  156.5526 H   0  0  0  0  0  0  0  0  0  0  0  0  # atno 8008 bound_to 7997
  154.7279  140.0498  157.0722 H   0  0  0  0  0  0  0  0  0  0  0  0  # atno 8009 bound_to 7997
  155.0392  140.3144  155.4733 H   0  0  0  0  0  0  0  0  0  0  0  0  # atno 8010 bound_to 7997
  140.7220  143.3692  151.1811 H   0  0  0  0  0  0  0  0  0  0  0  0  # atno 10167 bound_to 10162
  157.0120  131.0207  151.2800 H   0  0  0  0  0  0  0  0  0  0  0  0  # atno 10718 bound_to 10713
  153.5752  135.3494  155.2853 H   0  0  0  0  0  0  0  0  0  0  0  0  # atno 10763 bound_to 10752
  154.8676  135.4169  154.2681 H   0  0  0  0  0  0  0  0  0  0  0  0  # atno 10764 bound_to 10752
  153.3455  135.7052  153.6901 H   0  0  0  0  0  0  0  0  0  0  0  0  # atno 10765 bound_to 10752
  140.5295  134.5630  157.5070 H   0  0  0  0  0  0  0  0  0  0  0  0  # atno 11005 bound_to 11000
  144.7548  139.7103  143.7258 LP  0  0  0  0  0  0  0  0  0  0  0  0  # atno 17320 bound_to 7965
  146.1942  139.5199  142.9785 LP  0  0  0  0  0  0  0  0  0  0  0  0  # atno 17321 bound_to 7965
  139.7260  143.9148  152.3002 LP  0  0  0  0  0  0  0  0  0  0  0  0  # atno 17342 bound_to 10162
  139.8921  144.6959  150.8759 LP  0  0  0  0  0  0  0  0  0  0  0  0  # atno 17343 bound_to 10162
  157.5313  130.8060  149.7920 LP  0  0  0  0  0  0  0  0  0  0  0  0  # atno 17370 bound_to 10713
  156.0132  130.3824  150.2194 LP  0  0  0  0  0  0  0  0  0  0  0  0  # atno 17371 bound_to 10713
  139.9562  134.7531  156.0337 LP  0  0  0  0  0  0  0  0  0  0  0  0  # atno 17394 bound_to 11000
  141.1289  133.6591  156.3412 LP  0  0  0  0  0  0  0  0  0  0  0  0  # atno 17395 bound_to 11000

$$$$
