AV-unprocessed.smi:561|AV-procd|sdf|2942|dock1
  -GOLD-   2262023443D 1   1.00000     0.00000
 Structure written by MMmdl.
 35 36  0  0  0  0  0  0  0  0  2 V2000
  154.2582  141.5673  161.4459 C   0  0  0  0  0  0  0  0  0  0  0  0
  153.5008  141.1230  160.1869 C   0  0  2  0  0  0  0  0  0  0  0  0
  152.0664  141.7111  160.1597 C   0  0  0  0  0  0  0  0  0  0  0  0
  152.0135  143.1610  160.0035 N   0  0  0  0  0  0  0  0  0  0  0  0
  152.2191  143.8868  158.8346 C   0  0  0  0  0  0  0  0  0  0  0  0
  152.0588  145.2145  159.1589 C   0  0  0  0  0  0  0  0  0  0  0  0
  151.7398  145.3326  160.5093 N   0  0  0  0  0  0  0  0  0  0  0  0
  151.7291  144.0781  160.9420 C   0  0  0  0  0  0  0  0  0  0  0  0
  153.4461  139.6562  160.1666 N   0  5  0  0  0  0  0  0  0  0  0  0
  153.5880  138.8724  159.0542 C   0  0  0  0  0  0  0  0  0  0  0  0
  154.3955  137.9459  158.9135 O   0  0  0  0  0  0  0  0  0  0  0  0
  152.7191  139.1415  157.8703 C   0  0  0  0  0  0  0  0  0  0  0  0
  153.1737  138.9174  156.6767 N   0  0  0  0  0  0  0  0  0  0  0  0
  152.4087  139.1168  155.5464 N   0  0  0  0  0  0  0  0  0  0  0  0
  152.9765  138.5654  154.3180 C   0  0  0  0  0  0  0  0  0  0  0  0
  151.2295  139.7853  155.5212 C   0  0  0  0  0  0  0  0  0  0  0  0
  150.5471  139.9319  154.5069 O   0  0  0  0  0  0  0  0  0  0  0  0
  150.7692  140.4060  156.8423 C   0  0  0  0  0  0  0  0  0  0  0  0
  151.2957  139.6328  158.0673 C   0  0  0  0  0  0  0  0  0  0  0  0
  154.3401  142.6537  161.4887 H   0  0  0  0  0  0  0  0  0  0  0  0
  155.2706  141.1623  161.4599 H   0  0  0  0  0  0  0  0  0  0  0  0
  153.7533  141.2365  162.3543 H   0  0  0  0  0  0  0  0  0  0  0  0
  154.0456  141.5242  159.3310 H   0  0  0  0  0  0  0  0  0  0  0  0
  151.4832  141.2555  159.3579 H   0  0  0  0  0  0  0  0  0  0  0  0
  151.5519  141.4623  161.0887 H   0  0  0  0  0  0  0  0  0  0  0  0
  152.4671  143.4077  157.8990 H   0  0  0  0  0  0  0  0  0  0  0  0
  152.1437  146.0866  158.5277 H   0  0  0  0  0  0  0  0  0  0  0  0
  151.5112  143.8181  161.9675 H   0  0  0  0  0  0  0  0  0  0  0  0
  153.1291  139.3520  153.5778 H   0  0  0  0  0  0  0  0  0  0  0  0
  152.3089  137.8168  153.8894 H   0  0  0  0  0  0  0  0  0  0  0  0
  153.9415  138.0862  154.4921 H   0  0  0  0  0  0  0  0  0  0  0  0
  151.1421  141.4306  156.8686 H   0  0  0  0  0  0  0  0  0  0  0  0
  149.6808  140.4665  156.8707 H   0  0  0  0  0  0  0  0  0  0  0  0
  150.6486  138.7806  158.2773 H   0  0  0  0  0  0  0  0  0  0  0  0
  151.2301  140.2909  158.9342 H   0  0  0  0  0  0  0  0  0  0  0  0
  1  2  1  0  0  0  0
  1 20  1  0  0  0  0
  1 21  1  0  0  0  0
  1 22  1  0  0  0  0
  2  3  1  0  0  0  0
  2  9  1  0  0  0  0
  2 23  1  0  0  0  0
  3  4  1  0  0  0  0
  3 24  1  0  0  0  0
  3 25  1  0  0  0  0
  4  8  1  0  0  0  0
  4  5  1  0  0  0  0
  5  6  2  0  0  0  0
  5 26  1  0  0  0  0
  6  7  1  0  0  0  0
  6 27  1  0  0  0  0
  7  8  2  0  0  0  0
  8 28  1  0  0  0  0
  9 10  1  0  0  0  0
 10 11  2  0  0  0  0
 10 12  1  0  0  0  0
 12 19  1  0  0  0  0
 12 13  2  0  0  0  0
 13 14  1  0  0  0  0
 14 15  1  0  0  0  0
 14 16  1  0  0  0  0
 15 29  1  0  0  0  0
 15 30  1  0  0  0  0
 15 31  1  0  0  0  0
 16 17  2  0  0  0  0
 16 18  1  0  0  0  0
 18 19  1  0  0  0  0
 18 32  1  0  0  0  0
 18 33  1  0  0  0  0
 19 34  1  0  0  0  0
 19 35  1  0  0  0  0
M  CHG  1   9  -1
M  END
> <s_m_source_file>
AV-unprocessed.smi

> <i_m_source_file_index>
561

> <i_lp_mmshare_version>
43012

> <i_f3d_flags>
0

> <s_epik_input>
W2NIXTFuW2NIXVtjSF1uMVtDSDJdW0NAQEhdKFtDSDNdKVtOSF1DKD1PKUMyPU5OKFtDSDNdKUMoPU8pW0NIMl1bQ0gyXTI=

> <s_epik_cmdline>
J2VwaWtfcHl0aG9uJywgJy1waCcsICc3LjAnLCAnLXRuJywgJzgnLCAnLW1hJywgJzIwMCcsICctbWV0YWxfYmluZGluZycsICctaW1hZScsICc8aW5maWxlLm1hZT4nLCAnLW9tYWUnLCAnPG91dGZpbGUubWFlPic=

> <r_lp_tautomer_probability>
1

> <r_epik_Ionization_Penalty>
6.06239

> <r_epik_Ionization_Penalty_Charging>
6.06239

> <r_epik_Ionization_Penalty_Neutral>
3.91387e-09

> <r_epik_State_Penalty>
5.76729

> <r_epik_Charging_Adjusted_Penalty>
11.8297

> <i_epik_Tot_Q>
-1

> <i_epik_Tot_abs_Q>
1

> <r_epik_Metal_State_Penalty>
2.02369

> <b_epik_Metal_Only>
1

> <s_epik_Chemistry_Notes>
This compound has an imine and may undergo hydrolysis.

> <s_lp_Force_Field>
OPLS_2005

> <r_lp_Energy>
24.7282

> <b_lp_Chiralities_Consistent>
1

> <s_lp_Variant>
AV-unprocessed.smi:561-7

> <Gold.Version>
5.8.1

> <Gold.Id.Protein>
6NUR|6NUR_protein|mol2

> <Gold.PLP.Fitness>
43.7964

> <Gold.PLP.PLP>
-40.6748

> <Gold.PLP.part.hbond>
-2.0000

> <Gold.PLP.part.metal>
0.0000

> <Gold.PLP.part.buried>
-3.5817

> <Gold.PLP.part.nonpolar>
-35.1744

> <Gold.PLP.part.repulsive>
0.2748

> <Gold.PLP.ligand.clash>
0.0000

> <Gold.PLP.ligand.torsion>
1.4529

> <Gold.PLP.Chemscore.Hbond>
2.0000

> <Gold.PLP.Chemscore.CHOScore>
0.0000

> <Gold.PLP.Chemscore.Metal>
0.0000

> <Gold.Chemscore.Hbonds>
donor molecule, donor type, donor heavy atom, donor atom, acceptor molecule, acceptor atom, score
      P1  H  7989  7998       L1    17  1.00
      P1  H  7997  8008       L1    13  1.00

> <Gold.PLP.Chemscore.Internal.Correction>
0.0274

> <Gold.Rescore>
     Score         DG    S(hbond)    S(metal)    S(lipo)     H(rot)  DE(clash)    DE(int)     intcor
     11.65     -13.07       0.82        0.00      78.08       1.68       0.07       1.34       ----

> <Gold.Chemscore.Fitness>
11.6523

> <Gold.Chemscore.DG>
-13.0674

> <Gold.Chemscore.ZeroCoef>
-5.4800

> <Gold.Chemscore.Hbond>
0.8240

> <Gold.Chemscore.Metal>
0.0000

> <Gold.Chemscore.Lipo>
78.0772

> <Gold.Chemscore.Internal_Hbond>
0.0000

> <Gold.Chemscore.DEClash>
0.0731

> <Gold.Chemscore.DEInternal>
1.3420

> <Gold.Chemscore.Rot>
1.6796

> <Gold.Chemscore.Internal.Correction>
   9.000000E+99

> <Gold.Chemscore.Hbonds>
donor molecule, donor type, donor heavy atom, donor atom, acceptor molecule, acceptor atom, score
      P1  H  7989  7998       L1    17  0.35
      P1  H  7997  8008       L1    13  0.13

> <Gold.Chemscore.Hbond.Weighted>
-2.7521

> <Gold.Chemscore.Metal.Weighted>
-0.0000

> <Gold.Chemscore.Lipo.Weighted>
-9.1350

> <Gold.Chemscore.Internal_Hbond.Weighted>
0.0000

> <Gold.Chemscore.DEClash.Weighted>
0.0731

> <Gold.Chemscore.DEInternal.Weighted>
1.3420

> <Gold.Chemscore.Rot.Weighted>
4.2997

> <Gold.Chemscore.Internal.Correction.Weighted>
   9.000000E+99

> <Gold.Protein.RotatedTorsions>
[ 6907 6896 6895 6894 ] final   72.15 input  -60.11 | X-H torsion
[ 7974 7965 7964 7962 ] final   -8.93 input  175.53 | X-H torsion
[ 8008 7997 7996 7995 ] final  -50.47 input   59.86 | X-H torsion
[ 10167 10162 10161 10158 ] final   51.45 input  -65.29 | X-H torsion
[ 10718 10713 10712 10709 ] final  141.48 input   66.30 | X-H torsion
[ 10763 10752 10751 10750 ] final  -42.51 input  -60.55 | X-H torsion
[ 11005 11000 10999 10996 ] final   39.44 input  -57.11 | X-H torsion

> <Gold.Protein.ActiveResidues>
 VAL166  LYS551  ARG553  GLY616  TRP617  ASP618  TYR619  PRO620  LYS621  CYS622 
 ASP623  PHE694  ASN695  SER759  ASP760  ASP761  ALA762  ILE779  LEU786  VAL792 
 PHE793  MET794  SER795  GLU796  ALA797  LYS798  CYS799  TRP800  GLU811  SER814 

> <Gold.Protein.RotatedAtoms>
  152.4851  134.4614  159.9606 H   0  0  0  0  0  0  0  0  0  0  0  0  # atno 6907 bound_to 6896
  151.4612  133.3586  159.2817 H   0  0  0  0  0  0  0  0  0  0  0  0  # atno 6908 bound_to 6896
  150.8955  134.8388  159.7384 H   0  0  0  0  0  0  0  0  0  0  0  0  # atno 6909 bound_to 6896
  146.2266  140.2542  142.8348 H   0  0  0  0  0  0  0  0  0  0  0  0  # atno 7974 bound_to 7965
  154.4063  140.1271  156.4671 H   0  0  0  0  0  0  0  0  0  0  0  0  # atno 8008 bound_to 7997
  155.7216  140.3492  155.4999 H   0  0  0  0  0  0  0  0  0  0  0  0  # atno 8009 bound_to 7997
  155.9209  140.1052  157.1197 H   0  0  0  0  0  0  0  0  0  0  0  0  # atno 8010 bound_to 7997
  140.2618  144.3365  150.6316 H   0  0  0  0  0  0  0  0  0  0  0  0  # atno 10167 bound_to 10162
  157.3915  131.1005  151.0642 H   0  0  0  0  0  0  0  0  0  0  0  0  # atno 10718 bound_to 10713
  153.9803  135.6718  153.4750 H   0  0  0  0  0  0  0  0  0  0  0  0  # atno 10763 bound_to 10752
  153.0751  135.4953  154.8384 H   0  0  0  0  0  0  0  0  0  0  0  0  # atno 10764 bound_to 10752
  154.7168  135.3109  154.9072 H   0  0  0  0  0  0  0  0  0  0  0  0  # atno 10765 bound_to 10752
  140.2028  134.3850  155.8087 H   0  0  0  0  0  0  0  0  0  0  0  0  # atno 11005 bound_to 11000
  144.9389  140.8056  143.5643 LP  0  0  0  0  0  0  0  0  0  0  0  0  # atno 17320 bound_to 7965
  145.2492  139.2039  143.4952 LP  0  0  0  0  0  0  0  0  0  0  0  0  # atno 17321 bound_to 7965
  140.5960  143.2167  151.7163 LP  0  0  0  0  0  0  0  0  0  0  0  0  # atno 17342 bound_to 10162
  139.5014  144.3866  152.0322 LP  0  0  0  0  0  0  0  0  0  0  0  0  # atno 17343 bound_to 10162
  157.1674  130.6252  149.5629 LP  0  0  0  0  0  0  0  0  0  0  0  0  # atno 17370 bound_to 10713
  155.9799  130.4797  150.6744 LP  0  0  0  0  0  0  0  0  0  0  0  0  # atno 17371 bound_to 10713
  141.2227  133.7102  156.8286 LP  0  0  0  0  0  0  0  0  0  0  0  0  # atno 17394 bound_to 11000
  140.2036  134.8879  157.3196 LP  0  0  0  0  0  0  0  0  0  0  0  0  # atno 17395 bound_to 11000

$$$$
