AV-unprocessed.smi:2334|AV-procd|sdf|9321|dock7
  -GOLD-   2272012543D 1   1.00000     0.00000
 Structure written by MMmdl.
 49 51  0  0  0  0  0  0  0  0  1 V2000
  148.7610  139.3310  154.1090 C   0  0  0  0  0  0  0  0  0  0  0  0
  149.8899  139.1309  155.1052 C   0  0  0  0  0  0  0  0  0  0  0  0
  150.3098  140.2491  155.7364 N   0  0  0  0  0  0  0  0  0  0  0  0
  151.3078  140.1595  156.6466 C   0  0  0  0  0  0  0  0  0  0  0  0
  151.7175  141.3502  157.2786 N   0  0  0  0  0  0  0  0  0  0  0  0
  151.0030  142.6033  157.0899 C   0  0  0  0  0  0  0  0  0  0  0  0
  151.6745  143.5796  158.0544 C   0  0  0  0  0  0  0  0  0  0  0  0
  152.0955  142.6819  159.2180 C   0  0  0  0  0  0  0  0  0  0  0  0
  152.4175  141.3372  158.5559 C   0  0  0  0  0  0  0  0  0  0  0  0
  151.9263  138.9249  156.9503 C   0  0  0  0  0  0  0  0  0  0  0  0
  151.4904  137.7597  156.2926 C   0  0  0  0  0  0  0  0  0  0  0  0
  150.4529  137.8537  155.3355 C   0  0  0  0  0  0  0  0  0  0  0  0
  149.9298  136.7289  154.6380 N   0  0  0  0  0  0  0  0  0  0  0  0
  149.7206  135.4839  155.0988 C   0  0  0  0  0  0  0  0  0  0  0  0
  149.9823  135.0984  156.2375 O   0  0  0  0  0  0  0  0  0  0  0  0
  149.2048  134.6994  154.1377 N   0  0  0  0  0  0  0  0  0  0  0  0
  148.8508  133.2735  154.2103 C   0  0  0  0  0  0  0  0  0  0  0  0
  150.0167  132.4726  154.8295 C   0  0  0  0  0  0  0  0  0  0  0  0
  147.6063  133.1413  155.1149 C   0  0  0  0  0  0  0  0  0  0  0  0
  146.3469  133.7410  154.4605 C   0  0  0  0  0  0  0  0  0  0  0  0
  146.1119  133.1273  153.1989 O   0  0  0  0  0  0  0  0  0  0  0  0
  147.1753  133.3331  152.2760 C   0  0  0  0  0  0  0  0  0  0  0  0
  148.4706  132.7050  152.8211 C   0  0  0  0  0  0  0  0  0  0  0  0
  149.0678  138.9999  153.1163 H   0  0  0  0  0  0  0  0  0  0  0  0
  148.4691  140.3799  154.0382 H   0  0  0  0  0  0  0  0  0  0  0  0
  147.8839  138.7570  154.4098 H   0  0  0  0  0  0  0  0  0  0  0  0
  151.0630  142.9500  156.0575 H   0  0  0  0  0  0  0  0  0  0  0  0
  149.9522  142.4667  157.3496 H   0  0  0  0  0  0  0  0  0  0  0  0
  152.5589  144.0134  157.5855 H   0  0  0  0  0  0  0  0  0  0  0  0
  151.0179  144.3954  158.3578 H   0  0  0  0  0  0  0  0  0  0  0  0
  152.9342  143.0852  159.7860 H   0  0  0  0  0  0  0  0  0  0  0  0
  151.2559  142.5583  159.9033 H   0  0  0  0  0  0  0  0  0  0  0  0
  152.1053  140.5069  159.1904 H   0  0  0  0  0  0  0  0  0  0  0  0
  153.4878  141.2436  158.3694 H   0  0  0  0  0  0  0  0  0  0  0  0
  152.7258  138.8551  157.6727 H   0  0  0  0  0  0  0  0  0  0  0  0
  151.9509  136.8175  156.5456 H   0  0  0  0  0  0  0  0  0  0  0  0
  149.7561  136.8734  153.6542 H   0  0  0  0  0  0  0  0  0  0  0  0
  149.0405  135.1366  153.2426 H   0  0  0  0  0  0  0  0  0  0  0  0
  149.7416  131.4284  154.9818 H   0  0  0  0  0  0  0  0  0  0  0  0
  150.3058  132.8787  155.7993 H   0  0  0  0  0  0  0  0  0  0  0  0
  150.9010  132.4771  154.1924 H   0  0  0  0  0  0  0  0  0  0  0  0
  147.4160  132.0879  155.3249 H   0  0  0  0  0  0  0  0  0  0  0  0
  147.7839  133.6148  156.0815 H   0  0  0  0  0  0  0  0  0  0  0  0
  145.4792  133.5707  155.0981 H   0  0  0  0  0  0  0  0  0  0  0  0
  146.4398  134.8212  154.3389 H   0  0  0  0  0  0  0  0  0  0  0  0
  146.9077  132.8696  151.3264 H   0  0  0  0  0  0  0  0  0  0  0  0
  147.3046  134.3988  152.0810 H   0  0  0  0  0  0  0  0  0  0  0  0
  149.2788  132.8349  152.1018 H   0  0  0  0  0  0  0  0  0  0  0  0
  148.3210  131.6275  152.9026 H   0  0  0  0  0  0  0  0  0  0  0  0
  1  2  1  0  0  0  0
  1 24  1  0  0  0  0
  1 25  1  0  0  0  0
  1 26  1  0  0  0  0
  2 12  1  0  0  0  0
  2  3  2  0  0  0  0
  3  4  1  0  0  0  0
  4  5  1  0  0  0  0
  4 10  2  0  0  0  0
  5  9  1  0  0  0  0
  5  6  1  0  0  0  0
  6  7  1  0  0  0  0
  6 27  1  0  0  0  0
  6 28  1  0  0  0  0
  7  8  1  0  0  0  0
  7 29  1  0  0  0  0
  7 30  1  0  0  0  0
  8  9  1  0  0  0  0
  8 31  1  0  0  0  0
  8 32  1  0  0  0  0
  9 33  1  0  0  0  0
  9 34  1  0  0  0  0
 10 11  1  0  0  0  0
 10 35  1  0  0  0  0
 11 12  2  0  0  0  0
 11 36  1  0  0  0  0
 12 13  1  0  0  0  0
 13 14  1  0  0  0  0
 13 37  1  0  0  0  0
 14 15  2  0  0  0  0
 14 16  1  0  0  0  0
 16 17  1  0  0  0  0
 16 38  1  0  0  0  0
 17 23  1  0  0  0  0
 17 18  1  0  0  0  0
 17 19  1  0  0  0  0
 18 39  1  0  0  0  0
 18 40  1  0  0  0  0
 18 41  1  0  0  0  0
 19 20  1  0  0  0  0
 19 42  1  0  0  0  0
 19 43  1  0  0  0  0
 20 21  1  0  0  0  0
 20 44  1  0  0  0  0
 20 45  1  0  0  0  0
 21 22  1  0  0  0  0
 22 23  1  0  0  0  0
 22 46  1  0  0  0  0
 22 47  1  0  0  0  0
 23 48  1  0  0  0  0
 23 49  1  0  0  0  0
M  END
> <s_m_source_file>
AV-unprocessed.smi

> <i_m_source_file_index>
2334

> <i_lp_mmshare_version>
43012

> <i_f3d_flags>
0

> <s_epik_input>
W0NIMl0xW0NIMl1bQ0gyXVtDSDJdTjFjKG5jMltDSDNdKVtjSF1bY0hdYzJbTkhdQyg9TylbTkhdQzMoW0NIM10pW0NIMl1bQ0gyXU9bQ0gyXVtDSDJdMw==

> <s_epik_cmdline>
J2VwaWtfcHl0aG9uJywgJy1waCcsICc3LjAnLCAnLXRuJywgJzgnLCAnLW1hJywgJzIwMCcsICctbWV0YWxfYmluZGluZycsICctaW1hZScsICc8aW5maWxlLm1hZT4nLCAnLW9tYWUnLCAnPG91dGZpbGUubWFlPic=

> <r_lp_tautomer_probability>
1

> <r_epik_Ionization_Penalty>
0.314437

> <r_epik_Ionization_Penalty_Charging>
0

> <r_epik_Ionization_Penalty_Neutral>
0.314437

> <r_epik_State_Penalty>
0.308039

> <r_epik_Charging_Adjusted_Penalty>
0.308039

> <i_epik_Tot_Q>
0

> <i_epik_Tot_abs_Q>
0

> <r_epik_Metal_State_Penalty>
0.200041

> <b_epik_Metal_Only>
0

> <s_lp_Force_Field>
OPLS_2005

> <r_lp_Energy>
36.0775

> <b_lp_Chiralities_Consistent>
1

> <s_lp_Variant>
AV-unprocessed.smi:2334-1

> <Gold.Version>
5.8.1

> <Gold.Id.Protein>
6NUR|6NUR_protein|mol2

> <Gold.PLP.Fitness>
39.3919

> <Gold.PLP.PLP>
-34.2859

> <Gold.PLP.part.hbond>
-2.0000

> <Gold.PLP.part.metal>
0.0000

> <Gold.PLP.part.buried>
-3.6091

> <Gold.PLP.part.nonpolar>
-28.5050

> <Gold.PLP.part.repulsive>
0.2086

> <Gold.PLP.ligand.clash>
0.0000

> <Gold.PLP.ligand.torsion>
0.5432

> <Gold.PLP.Chemscore.Hbond>
2.0000

> <Gold.PLP.Chemscore.CHOScore>
0.0000

> <Gold.PLP.Chemscore.Metal>
0.0000

> <Gold.Chemscore.Hbonds>
donor molecule, donor type, donor heavy atom, donor atom, acceptor molecule, acceptor atom, score
      L1  H    13    37       P1  7948  0.99
      L1  H    16    38       P1  7948  1.00

> <Gold.PLP.Chemscore.Internal.Correction>
0.1924

> <Gold.Rescore>
     Score         DG    S(hbond)    S(metal)    S(lipo)     H(rot)  DE(clash)    DE(int)     intcor
     17.14     -18.89       1.73        0.00      87.16       1.00       0.06       1.69       ----

> <Gold.Chemscore.Fitness>
17.1405

> <Gold.Chemscore.DG>
-18.8939

> <Gold.Chemscore.ZeroCoef>
-5.4800

> <Gold.Chemscore.Hbond>
1.7296

> <Gold.Chemscore.Metal>
0.0000

> <Gold.Chemscore.Lipo>
87.1553

> <Gold.Chemscore.Internal_Hbond>
0.0000

> <Gold.Chemscore.DEClash>
0.0630

> <Gold.Chemscore.DEInternal>
1.6905

> <Gold.Chemscore.Rot>
1.0000

> <Gold.Chemscore.Internal.Correction>
   9.000000E+99

> <Gold.Chemscore.Hbonds>
donor molecule, donor type, donor heavy atom, donor atom, acceptor molecule, acceptor atom, score
      L1  H    13    37       P1  7948  0.53
      L1  H    16    38       P1  7948  0.26

> <Gold.Chemscore.Hbond.Weighted>
-5.7768

> <Gold.Chemscore.Metal.Weighted>
-0.0000

> <Gold.Chemscore.Lipo.Weighted>
-10.1972

> <Gold.Chemscore.Internal_Hbond.Weighted>
0.0000

> <Gold.Chemscore.DEClash.Weighted>
0.0630

> <Gold.Chemscore.DEInternal.Weighted>
1.6905

> <Gold.Chemscore.Rot.Weighted>
2.5600

> <Gold.Chemscore.Internal.Correction.Weighted>
   9.000000E+99

> <Gold.Protein.RotatedTorsions>
[ 6907 6896 6895 6894 ] final   85.15 input  -60.11 | X-H torsion
[ 7974 7965 7964 7962 ] final  123.23 input  175.53 | X-H torsion
[ 8008 7997 7996 7995 ] final -138.27 input   59.86 | X-H torsion
[ 10167 10162 10161 10158 ] final  131.67 input  -65.29 | X-H torsion
[ 10718 10713 10712 10709 ] final  139.10 input   66.30 | X-H torsion
[ 10763 10752 10751 10750 ] final   53.31 input  -60.55 | X-H torsion
[ 11005 11000 10999 10996 ] final  148.20 input  -57.11 | X-H torsion

> <Gold.Protein.ActiveResidues>
 VAL166  LYS551  ARG553  GLY616  TRP617  ASP618  TYR619  PRO620  LYS621  CYS622 
 ASP623  PHE694  ASN695  SER759  ASP760  ASP761  ALA762  ILE779  LEU786  VAL792 
 PHE793  MET794  SER795  GLU796  ALA797  LYS798  CYS799  TRP800  GLU811  SER814 

> <Gold.Protein.RotatedAtoms>
  152.5368  134.2631  159.8942 H   0  0  0  0  0  0  0  0  0  0  0  0  # atno 6907 bound_to 6896
  151.2590  133.4305  159.2623 H   0  0  0  0  0  0  0  0  0  0  0  0  # atno 6908 bound_to 6896
  151.0470  134.9661  159.8248 H   0  0  0  0  0  0  0  0  0  0  0  0  # atno 6909 bound_to 6896
  145.0983  139.3537  143.4825 H   0  0  0  0  0  0  0  0  0  0  0  0  # atno 7974 bound_to 7965
  155.4255  140.0521  157.3022 H   0  0  0  0  0  0  0  0  0  0  0  0  # atno 8008 bound_to 7997
  154.4883  140.2110  155.9564 H   0  0  0  0  0  0  0  0  0  0  0  0  # atno 8009 bound_to 7997
  156.1306  140.3172  155.8349 H   0  0  0  0  0  0  0  0  0  0  0  0  # atno 8010 bound_to 7997
  139.5373  144.6696  151.4741 H   0  0  0  0  0  0  0  0  0  0  0  0  # atno 10167 bound_to 10162
  157.4181  131.1035  151.0383 H   0  0  0  0  0  0  0  0  0  0  0  0  # atno 10718 bound_to 10713
  152.9794  135.5783  154.4721 H   0  0  0  0  0  0  0  0  0  0  0  0  # atno 10763 bound_to 10752
  154.4282  135.2773  155.1932 H   0  0  0  0  0  0  0  0  0  0  0  0  # atno 10764 bound_to 10752
  154.3652  135.6180  153.5765 H   0  0  0  0  0  0  0  0  0  0  0  0  # atno 10765 bound_to 10752
  140.0939  134.9024  157.1694 H   0  0  0  0  0  0  0  0  0  0  0  0  # atno 11005 bound_to 11000
  146.3530  140.0849  142.8615 LP  0  0  0  0  0  0  0  0  0  0  0  0  # atno 17320 bound_to 7965
  145.0985  140.9330  143.4727 LP  0  0  0  0  0  0  0  0  0  0  0  0  # atno 17321 bound_to 7965
  140.6587  143.8545  150.6863 LP  0  0  0  0  0  0  0  0  0  0  0  0  # atno 17342 bound_to 10162
  140.1933  143.4019  152.1847 LP  0  0  0  0  0  0  0  0  0  0  0  0  # atno 17343 bound_to 10162
  157.1323  130.6107  149.5533 LP  0  0  0  0  0  0  0  0  0  0  0  0  # atno 17370 bound_to 10713
  155.9871  130.4909  150.7112 LP  0  0  0  0  0  0  0  0  0  0  0  0  # atno 17371 bound_to 10713
  140.3313  134.2807  155.7227 LP  0  0  0  0  0  0  0  0  0  0  0  0  # atno 17394 bound_to 11000
  141.2086  133.7772  157.0047 LP  0  0  0  0  0  0  0  0  0  0  0  0  # atno 17395 bound_to 11000

$$$$
