AV-unprocessed.smi:1875|AV-procd|sdf|7615|dock2
  -GOLD-   22720 9343D 1   1.00000     0.00000
 Structure written by MMmdl.
 47 49  0  0  0  0  0  0  0  0  1 V2000
  142.5090  135.1355  153.4527 C   0  0  0  0  0  0  0  0  0  0  0  0
  143.6988  135.6141  152.6466 C   0  0  0  0  0  0  0  0  0  0  0  0
  144.0695  134.8539  151.6112 N   0  0  0  0  0  0  0  0  0  0  0  0
  145.1369  135.2733  150.8971 C   0  0  0  0  0  0  0  0  0  0  0  0
  145.8306  136.4556  151.2243 C   0  0  0  0  0  0  0  0  0  0  0  0
  145.3458  137.1742  152.3376 C   0  0  0  0  0  0  0  0  0  0  0  0
  146.0108  138.4562  152.7945 C   0  0  0  0  0  0  0  0  0  0  0  0
  147.3096  138.2059  153.4093 N   0  0  0  0  0  0  0  0  0  0  0  0
  147.9435  139.4095  153.9372 C   0  0  0  0  0  0  0  0  0  0  0  0
  149.3746  139.1174  154.4180 C   0  0  1  0  0  0  0  0  0  0  0  0
  150.0312  138.3466  153.4295 O   0  0  0  0  0  0  0  0  0  0  0  0
  150.1713  140.4145  154.6572 C   0  0  0  0  0  0  0  0  0  0  0  0
  151.1457  140.2802  155.7255 N   0  0  0  0  0  0  0  0  0  0  0  0
  152.1084  139.3441  155.8274 C   0  0  0  0  0  0  0  0  0  0  0  0
  152.9015  139.3995  156.8936 N   0  0  0  0  0  0  0  0  0  0  0  0
  152.3955  140.5023  157.5601 C   0  0  0  0  0  0  0  0  0  0  0  0
  152.7960  141.1025  158.7740 C   0  0  0  0  0  0  0  0  0  0  0  0
  152.1268  142.2419  159.2746 C   0  0  0  0  0  0  0  0  0  0  0  0
  152.5910  142.8549  160.5842 C   0  0  0  0  0  0  0  0  0  0  0  0
  151.0377  142.7987  158.5570 C   0  0  0  0  0  0  0  0  0  0  0  0
  150.3057  144.0246  159.0740 C   0  0  0  0  0  0  0  0  0  0  0  0
  150.6234  142.2104  157.3436 C   0  0  0  0  0  0  0  0  0  0  0  0
  151.2968  141.0764  156.8559 C   0  0  0  0  0  0  0  0  0  0  0  0
  144.2781  136.7492  153.0493 N   0  0  0  0  0  0  0  0  0  0  0  0
  141.8469  134.5157  152.8467 H   0  0  0  0  0  0  0  0  0  0  0  0
  141.9289  135.9793  153.8282 H   0  0  0  0  0  0  0  0  0  0  0  0
  142.8474  134.5448  154.3046 H   0  0  0  0  0  0  0  0  0  0  0  0
  145.4385  134.6620  150.0595 H   0  0  0  0  0  0  0  0  0  0  0  0
  146.6849  136.7899  150.6543 H   0  0  0  0  0  0  0  0  0  0  0  0
  146.1240  139.1091  151.9283 H   0  0  0  0  0  0  0  0  0  0  0  0
  145.3560  138.9763  153.4955 H   0  0  0  0  0  0  0  0  0  0  0  0
  147.9267  137.7694  152.7316 H   0  0  0  0  0  0  0  0  0  0  0  0
  147.9502  140.2051  153.1907 H   0  0  0  0  0  0  0  0  0  0  0  0
  147.3506  139.7785  154.7750 H   0  0  0  0  0  0  0  0  0  0  0  0
  149.3455  138.5460  155.3474 H   0  0  0  0  0  0  0  0  0  0  0  0
  149.4224  137.7069  153.0934 H   0  0  0  0  0  0  0  0  0  0  0  0
  150.6878  140.7225  153.7472 H   0  0  0  0  0  0  0  0  0  0  0  0
  149.4934  141.2281  154.9191 H   0  0  0  0  0  0  0  0  0  0  0  0
  152.2338  138.5785  155.0756 H   0  0  0  0  0  0  0  0  0  0  0  0
  153.6259  140.6784  159.3195 H   0  0  0  0  0  0  0  0  0  0  0  0
  151.7821  142.8522  161.3150 H   0  0  0  0  0  0  0  0  0  0  0  0
  152.9169  143.8839  160.4299 H   0  0  0  0  0  0  0  0  0  0  0  0
  153.4271  142.2994  161.0101 H   0  0  0  0  0  0  0  0  0  0  0  0
  149.5044  144.3242  158.3980 H   0  0  0  0  0  0  0  0  0  0  0  0
  150.9919  144.8660  159.1728 H   0  0  0  0  0  0  0  0  0  0  0  0
  149.8625  143.8218  160.0491 H   0  0  0  0  0  0  0  0  0  0  0  0
  149.7960  142.6251  156.7873 H   0  0  0  0  0  0  0  0  0  0  0  0
  1  2  1  0  0  0  0
  1 25  1  0  0  0  0
  1 26  1  0  0  0  0
  1 27  1  0  0  0  0
  2 24  1  0  0  0  0
  2  3  2  0  0  0  0
  3  4  1  0  0  0  0
  4  5  2  0  0  0  0
  4 28  1  0  0  0  0
  5  6  1  0  0  0  0
  5 29  1  0  0  0  0
  6  7  1  0  0  0  0
  6 24  2  0  0  0  0
  7  8  1  0  0  0  0
  7 30  1  0  0  0  0
  7 31  1  0  0  0  0
  8  9  1  0  0  0  0
  8 32  1  0  0  0  0
  9 10  1  0  0  0  0
  9 33  1  0  0  0  0
  9 34  1  0  0  0  0
 10 11  1  0  0  0  0
 10 12  1  0  0  0  0
 10 35  1  0  0  0  0
 11 36  1  0  0  0  0
 12 13  1  0  0  0  0
 12 37  1  0  0  0  0
 12 38  1  0  0  0  0
 13 23  1  0  0  0  0
 13 14  1  0  0  0  0
 14 15  2  0  0  0  0
 14 39  1  0  0  0  0
 15 16  1  0  0  0  0
 16 23  2  0  0  0  0
 16 17  1  0  0  0  0
 17 18  2  0  0  0  0
 17 40  1  0  0  0  0
 18 19  1  0  0  0  0
 18 20  1  0  0  0  0
 19 41  1  0  0  0  0
 19 42  1  0  0  0  0
 19 43  1  0  0  0  0
 20 21  1  0  0  0  0
 20 22  2  0  0  0  0
 21 44  1  0  0  0  0
 21 45  1  0  0  0  0
 21 46  1  0  0  0  0
 22 23  1  0  0  0  0
 22 47  1  0  0  0  0
M  END
> <s_m_source_file>
AV-unprocessed.smi

> <i_m_source_file_index>
1875

> <i_lp_mmshare_version>
43012

> <i_f3d_flags>
0

> <s_epik_input>
W0NIM11jMW5bY0hdW2NIXWMobjEpW0NIMl1bTkhdW0NIMl1bQ0BIXShbT0hdKVtDSDJdbihbY0hdbjIpYyhjMjMpW2NIXWMoW0NIM10pYyhbY0hdMylbQ0gzXQ==

> <s_epik_cmdline>
J2VwaWtfcHl0aG9uJywgJy1waCcsICc3LjAnLCAnLXRuJywgJzgnLCAnLW1hJywgJzIwMCcsICctbWV0YWxfYmluZGluZycsICctaW1hZScsICc8aW5maWxlLm1hZT4nLCAnLW9tYWUnLCAnPG91dGZpbGUubWFlPic=

> <r_lp_tautomer_probability>
1

> <r_epik_Ionization_Penalty>
1.21192

> <r_epik_Ionization_Penalty_Charging>
0

> <r_epik_Ionization_Penalty_Neutral>
1.21192

> <r_epik_State_Penalty>
1.26105

> <r_epik_Charging_Adjusted_Penalty>
1.26105

> <i_epik_Tot_Q>
0

> <i_epik_Tot_abs_Q>
0

> <r_epik_Metal_State_Penalty>
1.2224

> <b_epik_Metal_Only>
0

> <s_epik_Chemistry_Notes>
This compound contains an electron-poor aromatic ring that is susceptible to covalent hydrolysis at low pH, typically resulting in measured values for nitrogen ring protonation that are around two units higher than predicted values.

> <s_lp_Force_Field>
OPLS_2005

> <r_lp_Energy>
10.0128

> <b_lp_Chiralities_Consistent>
1

> <s_lp_Variant>
AV-unprocessed.smi:1875-4

> <Gold.Version>
5.8.1

> <Gold.Id.Protein>
6NUR|6NUR_protein|mol2

> <Gold.PLP.Fitness>
55.5230

> <Gold.PLP.PLP>
-44.5944

> <Gold.PLP.part.hbond>
-4.2430

> <Gold.PLP.part.metal>
0.0000

> <Gold.PLP.part.buried>
-1.7935

> <Gold.PLP.part.nonpolar>
-39.8136

> <Gold.PLP.part.repulsive>
0.2952

> <Gold.PLP.ligand.clash>
0.0000

> <Gold.PLP.ligand.torsion>
0.6744

> <Gold.PLP.Chemscore.Hbond>
3.0000

> <Gold.PLP.Chemscore.CHOScore>
1.0000

> <Gold.PLP.Chemscore.Metal>
0.0000

> <Gold.Chemscore.Hbonds>
donor molecule, donor type, donor heavy atom, donor atom, acceptor molecule, acceptor atom, score
      L1  H     8    32       P1  7948  1.00
      L1  H    11    36       P1  7948  0.99
      P1  H  7997  8008       L1    15  0.75
      L1  C     4    28       P1  7921  1.00

> <Gold.PLP.Chemscore.Internal.Correction>
0.2773

> <Gold.Rescore>
     Score         DG    S(hbond)    S(metal)    S(lipo)     H(rot)  DE(clash)    DE(int)     intcor
     17.66     -19.62       2.41        0.00     111.54       2.72       1.29       0.67       ----

> <Gold.Chemscore.Fitness>
17.6637

> <Gold.Chemscore.DG>
-19.6243

> <Gold.Chemscore.ZeroCoef>
-5.4800

> <Gold.Chemscore.Hbond>
2.4143

> <Gold.Chemscore.Metal>
0.0000

> <Gold.Chemscore.Lipo>
111.5440

> <Gold.Chemscore.Internal_Hbond>
0.0000

> <Gold.Chemscore.DEClash>
1.2886

> <Gold.Chemscore.DEInternal>
0.6719

> <Gold.Chemscore.Rot>
2.7228

> <Gold.Chemscore.Internal.Correction>
   9.000000E+99

> <Gold.Chemscore.Hbonds>
donor molecule, donor type, donor heavy atom, donor atom, acceptor molecule, acceptor atom, score
      L1  H     8    32       P1  7948  0.92
      L1  H    11    36       P1  7948  0.87
      P1  H  7997  8008       L1    15  0.08

> <Gold.Chemscore.Hbond.Weighted>
-8.0639

> <Gold.Chemscore.Metal.Weighted>
-0.0000

> <Gold.Chemscore.Lipo.Weighted>
-13.0506

> <Gold.Chemscore.Internal_Hbond.Weighted>
0.0000

> <Gold.Chemscore.DEClash.Weighted>
1.2886

> <Gold.Chemscore.DEInternal.Weighted>
0.6719

> <Gold.Chemscore.Rot.Weighted>
6.9702

> <Gold.Chemscore.Internal.Correction.Weighted>
   9.000000E+99

> <Gold.Protein.RotatedTorsions>
[ 6907 6896 6895 6894 ] final  156.42 input  -60.11 | X-H torsion
[ 7974 7965 7964 7962 ] final  -94.13 input  175.53 | X-H torsion
[ 8008 7997 7996 7995 ] final  -56.13 input   59.86 | X-H torsion
[ 10167 10162 10161 10158 ] final   12.69 input  -65.29 | X-H torsion
[ 10718 10713 10712 10709 ] final   64.42 input   66.30 | X-H torsion
[ 10763 10752 10751 10750 ] final   62.60 input  -60.55 | X-H torsion
[ 11005 11000 10999 10996 ] final  166.32 input  -57.11 | X-H torsion

> <Gold.Protein.ActiveResidues>
 VAL166  LYS551  ARG553  GLY616  TRP617  ASP618  TYR619  PRO620  LYS621  CYS622 
 ASP623  PHE694  ASN695  SER759  ASP760  ASP761  ALA762  ILE779  LEU786  VAL792 
 PHE793  MET794  SER795  GLU796  ALA797  LYS798  CYS799  TRP800  GLU811  SER814 

> <Gold.Protein.RotatedAtoms>
  152.0300  133.3933  159.4292 H   0  0  0  0  0  0  0  0  0  0  0  0  # atno 6907 bound_to 6896
  150.6883  134.3531  159.4927 H   0  0  0  0  0  0  0  0  0  0  0  0  # atno 6908 bound_to 6896
  152.1316  134.9130  160.0609 H   0  0  0  0  0  0  0  0  0  0  0  0  # atno 6909 bound_to 6896
  145.3773  140.9513  143.2413 H   0  0  0  0  0  0  0  0  0  0  0  0  # atno 7974 bound_to 7965
  154.4219  140.1137  156.5588 H   0  0  0  0  0  0  0  0  0  0  0  0  # atno 8008 bound_to 7997
  155.6333  140.3496  155.4671 H   0  0  0  0  0  0  0  0  0  0  0  0  # atno 8009 bound_to 7997
  155.9930  140.1183  157.0609 H   0  0  0  0  0  0  0  0  0  0  0  0  # atno 8010 bound_to 7997
  140.6051  143.8524  150.7005 H   0  0  0  0  0  0  0  0  0  0  0  0  # atno 10167 bound_to 10162
  157.6038  130.9159  149.9844 H   0  0  0  0  0  0  0  0  0  0  0  0  # atno 10718 bound_to 10713
  152.9988  135.5459  154.6219 H   0  0  0  0  0  0  0  0  0  0  0  0  # atno 10763 bound_to 10752
  154.5516  135.2827  155.1005 H   0  0  0  0  0  0  0  0  0  0  0  0  # atno 10764 bound_to 10752
  154.2242  135.6445  153.5207 H   0  0  0  0  0  0  0  0  0  0  0  0  # atno 10765 bound_to 10752
  140.2653  134.7870  157.3626 H   0  0  0  0  0  0  0  0  0  0  0  0  # atno 11005 bound_to 11000
  144.8533  139.5289  143.6846 LP  0  0  0  0  0  0  0  0  0  0  0  0  # atno 17320 bound_to 7965
  146.2858  139.7000  142.9196 LP  0  0  0  0  0  0  0  0  0  0  0  0  # atno 17321 bound_to 7965
  140.2079  143.3907  152.1741 LP  0  0  0  0  0  0  0  0  0  0  0  0  # atno 17342 bound_to 10162
  139.5319  144.7168  151.5026 LP  0  0  0  0  0  0  0  0  0  0  0  0  # atno 17343 bound_to 10162
  156.1119  130.3649  150.0035 LP  0  0  0  0  0  0  0  0  0  0  0  0  # atno 17370 bound_to 10713
  156.8131  130.9332  151.3643 LP  0  0  0  0  0  0  0  0  0  0  0  0  # atno 17371 bound_to 10713
  140.1425  134.4953  155.8020 LP  0  0  0  0  0  0  0  0  0  0  0  0  # atno 17394 bound_to 11000
  141.2185  133.6831  156.7236 LP  0  0  0  0  0  0  0  0  0  0  0  0  # atno 17395 bound_to 11000

$$$$
