AV-unprocessed.smi:2284|AV-procd|sdf|9201|dock2
  -GOLD-   2272012413D 1   1.00000     0.00000
 Structure written by MMmdl.
 44 45  0  0  0  0  0  0  0  0  1 V2000
  154.2305  140.8723  161.7846 C   0  0  0  0  0  0  0  0  0  0  0  0
  153.3463  141.9837  161.2576 C   0  0  0  0  0  0  0  0  0  0  0  0
  153.1086  143.1335  162.0351 C   0  0  0  0  0  0  0  0  0  0  0  0
  152.2839  144.1588  161.5384 C   0  0  0  0  0  0  0  0  0  0  0  0
  151.6925  144.0418  160.2635 C   0  0  0  0  0  0  0  0  0  0  0  0
  150.8053  145.1571  159.7428 C   0  0  0  0  0  0  0  0  0  0  0  0
  151.9220  142.8921  159.4728 C   0  0  0  0  0  0  0  0  0  0  0  0
  151.3112  142.8409  158.2370 O   0  0  0  0  0  0  0  0  0  0  0  0
  151.2424  141.5910  157.5618 C   0  0  0  0  0  0  0  0  0  0  0  0
  150.2817  141.6964  156.3654 C   0  0  2  0  0  0  0  0  0  0  0  0
  149.0108  141.2471  156.7908 O   0  0  0  0  0  0  0  0  0  0  0  0
  150.7578  140.8907  155.1354 C   0  0  0  0  0  0  0  0  0  0  0  0
  150.7675  139.4404  155.3894 N   0  0  0  0  0  0  0  0  0  0  0  0
  149.6945  138.7085  154.8554 C   0  0  0  0  0  0  0  0  0  0  0  0
  149.6009  137.4286  155.0121 N   0  0  0  0  0  0  0  0  0  0  0  0
  150.5861  136.7393  155.7250 C   0  0  0  0  0  0  0  0  0  0  0  0
  150.3820  135.2394  155.8437 C   0  0  0  0  0  0  0  0  0  0  0  0
  151.6533  137.3893  156.2648 C   0  0  0  0  0  0  0  0  0  0  0  0
  152.7614  136.6900  157.0425 C   0  0  0  0  0  0  0  0  0  0  0  0
  151.7729  138.8465  156.0953 C   0  0  0  0  0  0  0  0  0  0  0  0
  152.7149  139.4975  156.5509 O   0  0  0  0  0  0  0  0  0  0  0  0
  152.7554  141.8644  159.9835 C   0  0  0  0  0  0  0  0  0  0  0  0
  154.7448  141.1724  162.6982 H   0  0  0  0  0  0  0  0  0  0  0  0
  154.9843  140.6028  161.0444 H   0  0  0  0  0  0  0  0  0  0  0  0
  153.6323  139.9876  162.0043 H   0  0  0  0  0  0  0  0  0  0  0  0
  153.5555  143.2339  163.0135 H   0  0  0  0  0  0  0  0  0  0  0  0
  152.1066  145.0365  162.1425 H   0  0  0  0  0  0  0  0  0  0  0  0
  151.2069  145.5567  158.8111 H   0  0  0  0  0  0  0  0  0  0  0  0
  150.7301  145.9762  160.4585 H   0  0  0  0  0  0  0  0  0  0  0  0
  149.7998  144.7814  159.5506 H   0  0  0  0  0  0  0  0  0  0  0  0
  152.2305  141.2660  157.2310 H   0  0  0  0  0  0  0  0  0  0  0  0
  150.8583  140.8366  158.2505 H   0  0  0  0  0  0  0  0  0  0  0  0
  150.1837  142.7528  156.1126 H   0  0  0  0  0  0  0  0  0  0  0  0
  148.6687  141.8630  157.4203 H   0  0  0  0  0  0  0  0  0  0  0  0
  150.0881  141.0878  154.2959 H   0  0  0  0  0  0  0  0  0  0  0  0
  151.7287  141.2554  154.7930 H   0  0  0  0  0  0  0  0  0  0  0  0
  148.9571  139.2917  154.3011 H   0  0  0  0  0  0  0  0  0  0  0  0
  150.2912  134.9483  156.8905 H   0  0  0  0  0  0  0  0  0  0  0  0
  151.2234  134.7031  155.4042 H   0  0  0  0  0  0  0  0  0  0  0  0
  149.4759  134.9194  155.3280 H   0  0  0  0  0  0  0  0  0  0  0  0
  153.7155  136.8147  156.5296 H   0  0  0  0  0  0  0  0  0  0  0  0
  152.5915  135.6218  157.1653 H   0  0  0  0  0  0  0  0  0  0  0  0
  152.8538  137.1222  158.0395 H   0  0  0  0  0  0  0  0  0  0  0  0
  152.9571  140.9702  159.4138 H   0  0  0  0  0  0  0  0  0  0  0  0
  1  2  1  0  0  0  0
  1 23  1  0  0  0  0
  1 24  1  0  0  0  0
  1 25  1  0  0  0  0
  2 22  1  0  0  0  0
  2  3  2  0  0  0  0
  3  4  1  0  0  0  0
  3 26  1  0  0  0  0
  4  5  2  0  0  0  0
  4 27  1  0  0  0  0
  5  6  1  0  0  0  0
  5  7  1  0  0  0  0
  6 28  1  0  0  0  0
  6 29  1  0  0  0  0
  6 30  1  0  0  0  0
  7  8  1  0  0  0  0
  7 22  2  0  0  0  0
  8  9  1  0  0  0  0
  9 10  1  0  0  0  0
  9 31  1  0  0  0  0
  9 32  1  0  0  0  0
 10 11  1  0  0  0  0
 10 12  1  0  0  0  0
 10 33  1  0  0  0  0
 11 34  1  0  0  0  0
 12 13  1  0  0  0  0
 12 35  1  0  0  0  0
 12 36  1  0  0  0  0
 13 20  1  0  0  0  0
 13 14  1  0  0  0  0
 14 15  2  0  0  0  0
 14 37  1  0  0  0  0
 15 16  1  0  0  0  0
 16 17  1  0  0  0  0
 16 18  2  0  0  0  0
 17 38  1  0  0  0  0
 17 39  1  0  0  0  0
 17 40  1  0  0  0  0
 18 19  1  0  0  0  0
 18 20  1  0  0  0  0
 19 41  1  0  0  0  0
 19 42  1  0  0  0  0
 19 43  1  0  0  0  0
 20 21  2  0  0  0  0
 22 44  1  0  0  0  0
M  END
> <s_m_source_file>
AV-unprocessed.smi

> <i_m_source_file_index>
2284

> <i_lp_mmshare_version>
43012

> <i_f3d_flags>
0

> <s_epik_input>
W0NIM11jMVtjSF1bY0hdYyhbQ0gzXSljKFtjSF0xKU9bQ0gyXVtDQEhdKFtPSF0pW0NIMl1uMltjSF1uYyhbQ0gzXSljKFtDSDNdKWMyPU8=

> <s_epik_cmdline>
J2VwaWtfcHl0aG9uJywgJy1waCcsICc3LjAnLCAnLXRuJywgJzgnLCAnLW1hJywgJzIwMCcsICctbWV0YWxfYmluZGluZycsICctaW1hZScsICc8aW5maWxlLm1hZT4nLCAnLW9tYWUnLCAnPG91dGZpbGUubWFlPic=

> <r_lp_tautomer_probability>
1

> <r_epik_Ionization_Penalty>
3.7476e-05

> <r_epik_Ionization_Penalty_Charging>
8.44705e-08

> <r_epik_Ionization_Penalty_Neutral>
3.73915e-05

> <r_epik_State_Penalty>
-0

> <r_epik_Charging_Adjusted_Penalty>
8.44705e-08

> <i_epik_Tot_Q>
0

> <i_epik_Tot_abs_Q>
0

> <r_epik_Metal_State_Penalty>
-0

> <b_epik_Metal_Only>
0

> <s_lp_Force_Field>
OPLS_2005

> <r_lp_Energy>
24.4024

> <b_lp_Chiralities_Consistent>
1

> <s_lp_Variant>
AV-unprocessed.smi:2284-1

> <Gold.Version>
5.8.1

> <Gold.Id.Protein>
6NUR|6NUR_protein|mol2

> <Gold.PLP.Fitness>
44.3693

> <Gold.PLP.PLP>
-43.1998

> <Gold.PLP.part.hbond>
-1.0000

> <Gold.PLP.part.metal>
0.0000

> <Gold.PLP.part.buried>
-2.3990

> <Gold.PLP.part.nonpolar>
-39.0289

> <Gold.PLP.part.repulsive>
0.2294

> <Gold.PLP.ligand.clash>
0.0000

> <Gold.PLP.ligand.torsion>
0.9854

> <Gold.PLP.Chemscore.Hbond>
1.0000

> <Gold.PLP.Chemscore.CHOScore>
0.0000

> <Gold.PLP.Chemscore.Metal>
0.0000

> <Gold.Chemscore.Hbonds>
donor molecule, donor type, donor heavy atom, donor atom, acceptor molecule, acceptor atom, score
      P1  H  7997  8008       L1    21  1.00

> <Gold.PLP.Chemscore.Internal.Correction>
0.1403

> <Gold.Rescore>
     Score         DG    S(hbond)    S(metal)    S(lipo)     H(rot)  DE(clash)    DE(int)     intcor
     13.93     -17.28       1.00        0.00     123.15       2.32       1.08       2.27       ----

> <Gold.Chemscore.Fitness>
13.9292

> <Gold.Chemscore.DG>
-17.2786

> <Gold.Chemscore.ZeroCoef>
-5.4800

> <Gold.Chemscore.Hbond>
0.9997

> <Gold.Chemscore.Metal>
0.0000

> <Gold.Chemscore.Lipo>
123.1451

> <Gold.Chemscore.Internal_Hbond>
0.0000

> <Gold.Chemscore.DEClash>
1.0813

> <Gold.Chemscore.DEInternal>
2.2681

> <Gold.Chemscore.Rot>
2.3236

> <Gold.Chemscore.Internal.Correction>
   9.000000E+99

> <Gold.Chemscore.Hbonds>
donor molecule, donor type, donor heavy atom, donor atom, acceptor molecule, acceptor atom, score
      P1  H  7997  8008       L1    21  0.98

> <Gold.Chemscore.Hbond.Weighted>
-3.3391

> <Gold.Chemscore.Metal.Weighted>
-0.0000

> <Gold.Chemscore.Lipo.Weighted>
-14.4080

> <Gold.Chemscore.Internal_Hbond.Weighted>
0.0000

> <Gold.Chemscore.DEClash.Weighted>
1.0813

> <Gold.Chemscore.DEInternal.Weighted>
2.2681

> <Gold.Chemscore.Rot.Weighted>
5.9484

> <Gold.Chemscore.Internal.Correction.Weighted>
   9.000000E+99

> <Gold.Protein.RotatedTorsions>
[ 6907 6896 6895 6894 ] final  -41.27 input  -60.11 | X-H torsion
[ 7974 7965 7964 7962 ] final    8.73 input  175.53 | X-H torsion
[ 8008 7997 7996 7995 ] final  -32.16 input   59.86 | X-H torsion
[ 10167 10162 10161 10158 ] final  105.83 input  -65.29 | X-H torsion
[ 10718 10713 10712 10709 ] final  161.99 input   66.30 | X-H torsion
[ 10763 10752 10751 10750 ] final  -51.64 input  -60.55 | X-H torsion
[ 11005 11000 10999 10996 ] final -122.82 input  -57.11 | X-H torsion

> <Gold.Protein.ActiveResidues>
 VAL166  LYS551  ARG553  GLY616  TRP617  ASP618  TYR619  PRO620  LYS621  CYS622 
 ASP623  PHE694  ASN695  SER759  ASP760  ASP761  ALA762  ILE779  LEU786  VAL792 
 PHE793  MET794  SER795  GLU796  ALA797  LYS798  CYS799  TRP800  GLU811  SER814 

> <Gold.Protein.RotatedAtoms>
  150.9687  134.9064  159.7774 H   0  0  0  0  0  0  0  0  0  0  0  0  # atno 6907 bound_to 6896
  152.5182  134.3571  159.9281 H   0  0  0  0  0  0  0  0  0  0  0  0  # atno 6908 bound_to 6896
  151.3581  133.3859  159.2721 H   0  0  0  0  0  0  0  0  0  0  0  0  # atno 6909 bound_to 6896
  146.2412  139.9890  142.8428 H   0  0  0  0  0  0  0  0  0  0  0  0  # atno 7974 bound_to 7965
  154.4189  140.1745  156.1682 H   0  0  0  0  0  0  0  0  0  0  0  0  # atno 8008 bound_to 7997
  155.9782  140.3380  155.6614 H   0  0  0  0  0  0  0  0  0  0  0  0  # atno 8009 bound_to 7997
  155.6535  140.0693  157.2569 H   0  0  0  0  0  0  0  0  0  0  0  0  # atno 8010 bound_to 7997
  139.7060  144.7086  151.1106 H   0  0  0  0  0  0  0  0  0  0  0  0  # atno 10167 bound_to 10162
  157.1288  131.0511  151.2381 H   0  0  0  0  0  0  0  0  0  0  0  0  # atno 10718 bound_to 10713
  154.1299  135.6521  153.4920 H   0  0  0  0  0  0  0  0  0  0  0  0  # atno 10763 bound_to 10752
  153.0198  135.5290  154.7012 H   0  0  0  0  0  0  0  0  0  0  0  0  # atno 10764 bound_to 10752
  154.6243  135.2968  155.0260 H   0  0  0  0  0  0  0  0  0  0  0  0  # atno 10765 bound_to 10752
  140.9966  134.0462  157.3589 H   0  0  0  0  0  0  0  0  0  0  0  0  # atno 11005 bound_to 11000
  145.1521  140.9628  143.4426 LP  0  0  0  0  0  0  0  0  0  0  0  0  # atno 17320 bound_to 7965
  145.0195  139.3437  143.6079 LP  0  0  0  0  0  0  0  0  0  0  0  0  # atno 17321 bound_to 7965
  140.7721  143.5358  150.9370 LP  0  0  0  0  0  0  0  0  0  0  0  0  # atno 17342 bound_to 10162
  139.9041  143.6799  152.3126 LP  0  0  0  0  0  0  0  0  0  0  0  0  # atno 17343 bound_to 10162
  157.4411  130.7544  149.7070 LP  0  0  0  0  0  0  0  0  0  0  0  0  # atno 17370 bound_to 10713
  155.9812  130.4021  150.3483 LP  0  0  0  0  0  0  0  0  0  0  0  0  # atno 17371 bound_to 10713
  139.9018  135.0167  156.7303 LP  0  0  0  0  0  0  0  0  0  0  0  0  # atno 17394 bound_to 11000
  140.6956  133.9352  155.7992 LP  0  0  0  0  0  0  0  0  0  0  0  0  # atno 17395 bound_to 11000

$$$$
