AV-unprocessed.smi:1626|AV-procd|sdf|6515|dock3
  -GOLD-   22720 7183D 1   1.00000     0.00000
 Structure written by MMmdl.
 47 49  0  0  0  0  0  0  0  0  1 V2000
  153.1070  142.8618  161.4202 C   0  0  0  0  0  0  0  0  0  0  0  0
  152.4898  142.4782  160.0866 C   0  0  0  0  0  0  0  0  0  0  0  0
  152.9098  141.2872  159.4522 C   0  0  0  0  0  0  0  0  0  0  0  0
  152.3610  140.8952  158.2115 C   0  0  0  0  0  0  0  0  0  0  0  0
  152.6200  139.7871  157.4229 N   0  0  0  0  0  0  0  0  0  0  0  0
  151.7937  139.9866  156.3998 C   0  0  0  0  0  0  0  0  0  0  0  0
  151.0323  141.0975  156.4309 N   0  0  0  0  0  0  0  0  0  0  0  0
  150.0610  141.5282  155.4398 C   0  0  0  0  0  0  0  0  0  0  0  0
  148.6035  141.2879  155.8890 C   0  0  1  0  0  0  0  0  0  0  0  0
  148.2541  142.2740  156.8414 O   0  0  0  0  0  0  0  0  0  0  0  0
  147.5381  141.3558  154.7716 C   0  0  0  0  0  0  0  0  0  0  0  0
  147.4768  140.1999  153.8714 N   0  0  0  0  0  0  0  0  0  0  0  0
  146.8058  140.5161  152.6047 C   0  0  0  0  0  0  0  0  0  0  0  0
  146.8050  139.3306  151.6247 C   0  0  0  0  0  0  0  0  0  0  0  0
  146.1272  138.1104  152.2672 C   0  0  0  0  0  0  0  0  0  0  0  0
  146.2470  136.9874  151.4193 O   0  0  0  0  0  0  0  0  0  0  0  0
  146.7727  137.8122  153.6295 C   0  0  0  0  0  0  0  0  0  0  0  0
  146.7808  139.0768  154.5062 C   0  0  0  0  0  0  0  0  0  0  0  0
  151.3724  141.7340  157.6190 C   0  0  0  0  0  0  0  0  0  0  0  0
  150.9469  142.9215  158.2395 C   0  0  0  0  0  0  0  0  0  0  0  0
  151.5069  143.2994  159.4776 C   0  0  0  0  0  0  0  0  0  0  0  0
  151.0443  144.5865  160.1369 C   0  0  0  0  0  0  0  0  0  0  0  0
  153.7823  142.0868  161.7839 H   0  0  0  0  0  0  0  0  0  0  0  0
  152.3333  143.0092  162.1740 H   0  0  0  0  0  0  0  0  0  0  0  0
  153.6772  143.7858  161.3230 H   0  0  0  0  0  0  0  0  0  0  0  0
  153.6600  140.6627  159.9146 H   0  0  0  0  0  0  0  0  0  0  0  0
  151.7417  139.2874  155.5779 H   0  0  0  0  0  0  0  0  0  0  0  0
  150.2276  142.5841  155.2216 H   0  0  0  0  0  0  0  0  0  0  0  0
  150.2753  140.9723  154.5286 H   0  0  0  0  0  0  0  0  0  0  0  0
  148.5341  140.3206  156.3886 H   0  0  0  0  0  0  0  0  0  0  0  0
  148.2396  143.1142  156.4088 H   0  0  0  0  0  0  0  0  0  0  0  0
  146.5769  141.4431  155.2808 H   0  0  0  0  0  0  0  0  0  0  0  0
  147.6384  142.2795  154.1993 H   0  0  0  0  0  0  0  0  0  0  0  0
  145.7767  140.8216  152.8000 H   0  0  0  0  0  0  0  0  0  0  0  0
  147.2777  141.3613  152.1134 H   0  0  0  0  0  0  0  0  0  0  0  0
  146.2910  139.6069  150.7035 H   0  0  0  0  0  0  0  0  0  0  0  0
  147.8331  139.0889  151.3501 H   0  0  0  0  0  0  0  0  0  0  0  0
  145.0657  138.3184  152.4084 H   0  0  0  0  0  0  0  0  0  0  0  0
  147.1302  136.6568  151.4815 H   0  0  0  0  0  0  0  0  0  0  0  0
  146.2351  137.0092  154.1349 H   0  0  0  0  0  0  0  0  0  0  0  0
  147.7969  137.4629  153.4895 H   0  0  0  0  0  0  0  0  0  0  0  0
  147.2628  138.8336  155.4539 H   0  0  0  0  0  0  0  0  0  0  0  0
  145.7555  139.3631  154.7465 H   0  0  0  0  0  0  0  0  0  0  0  0
  150.1967  143.5367  157.7643 H   0  0  0  0  0  0  0  0  0  0  0  0
  150.3225  145.1152  159.5140 H   0  0  0  0  0  0  0  0  0  0  0  0
  151.8891  145.2538  160.3084 H   0  0  0  0  0  0  0  0  0  0  0  0
  150.5689  144.3751  161.0949 H   0  0  0  0  0  0  0  0  0  0  0  0
  1  2  1  0  0  0  0
  1 23  1  0  0  0  0
  1 24  1  0  0  0  0
  1 25  1  0  0  0  0
  2 21  1  0  0  0  0
  2  3  2  0  0  0  0
  3  4  1  0  0  0  0
  3 26  1  0  0  0  0
  4 19  2  0  0  0  0
  4  5  1  0  0  0  0
  5  6  2  0  0  0  0
  6  7  1  0  0  0  0
  6 27  1  0  0  0  0
  7  8  1  0  0  0  0
  7 19  1  0  0  0  0
  8  9  1  0  0  0  0
  8 28  1  0  0  0  0
  8 29  1  0  0  0  0
  9 10  1  0  0  0  0
  9 11  1  0  0  0  0
  9 30  1  0  0  0  0
 10 31  1  0  0  0  0
 11 12  1  0  0  0  0
 11 32  1  0  0  0  0
 11 33  1  0  0  0  0
 12 18  1  0  0  0  0
 12 13  1  0  0  0  0
 13 14  1  0  0  0  0
 13 34  1  0  0  0  0
 13 35  1  0  0  0  0
 14 15  1  0  0  0  0
 14 36  1  0  0  0  0
 14 37  1  0  0  0  0
 15 16  1  0  0  0  0
 15 17  1  0  0  0  0
 15 38  1  0  0  0  0
 16 39  1  0  0  0  0
 17 18  1  0  0  0  0
 17 40  1  0  0  0  0
 17 41  1  0  0  0  0
 18 42  1  0  0  0  0
 18 43  1  0  0  0  0
 19 20  1  0  0  0  0
 20 21  2  0  0  0  0
 20 44  1  0  0  0  0
 21 22  1  0  0  0  0
 22 45  1  0  0  0  0
 22 46  1  0  0  0  0
 22 47  1  0  0  0  0
M  END
> <s_m_source_file>
AV-unprocessed.smi

> <i_m_source_file_index>
1626

> <i_lp_mmshare_version>
43012

> <i_f3d_flags>
0

> <s_epik_input>
W0NIM11jKFtjSF0xKWMoW0NIM10pW2NIXWMoYzEyKW4oW2NIXW4yKVtDSDJdW0NASF0oW09IXSlbQ0gyXU4zW0NIMl1bQ0gyXVtDSF0oW09IXSlbQ0gyXVtDSDJdMw==

> <s_epik_cmdline>
J2VwaWtfcHl0aG9uJywgJy1waCcsICc3LjAnLCAnLXRuJywgJzgnLCAnLW1hJywgJzIwMCcsICctbWV0YWxfYmluZGluZycsICctaW1hZScsICc8aW5maWxlLm1hZT4nLCAnLW9tYWUnLCAnPG91dGZpbGUubWFlPic=

> <r_epik_Ionization_Penalty>
2.14395

> <r_epik_Ionization_Penalty_Charging>
0

> <r_epik_Ionization_Penalty_Neutral>
2.14395

> <r_epik_State_Penalty>
2.24477

> <r_epik_Charging_Adjusted_Penalty>
2.24477

> <i_epik_Tot_Q>
0

> <i_epik_Tot_abs_Q>
0

> <r_epik_Metal_State_Penalty>
2.17429

> <b_epik_Metal_Only>
0

> <s_lp_Force_Field>
OPLS_2005

> <r_lp_Energy>
31.4526

> <b_lp_Chiralities_Consistent>
1

> <s_lp_Variant>
AV-unprocessed.smi:1626-10

> <Gold.Version>
5.8.1

> <Gold.Id.Protein>
6NUR|6NUR_protein|mol2

> <Gold.PLP.Fitness>
51.6919

> <Gold.PLP.PLP>
-43.9063

> <Gold.PLP.part.hbond>
-3.0989

> <Gold.PLP.part.metal>
0.0000

> <Gold.PLP.part.buried>
-2.0929

> <Gold.PLP.part.nonpolar>
-38.8157

> <Gold.PLP.part.repulsive>
0.1457

> <Gold.PLP.ligand.clash>
0.0000

> <Gold.PLP.ligand.torsion>
0.6121

> <Gold.PLP.Chemscore.Hbond>
3.0000

> <Gold.PLP.Chemscore.CHOScore>
0.0000

> <Gold.PLP.Chemscore.Metal>
0.0000

> <Gold.Chemscore.Hbonds>
donor molecule, donor type, donor heavy atom, donor atom, acceptor molecule, acceptor atom, score
      L1  H    10    31       P1  8028  1.00
      L1  H    16    39       P1  7948  1.00
      P1  H  7997  8008       L1     5  1.00

> <Gold.PLP.Chemscore.Internal.Correction>
0.0097

> <Gold.Rescore>
     Score         DG    S(hbond)    S(metal)    S(lipo)     H(rot)  DE(clash)    DE(int)     intcor
     19.48     -20.61       2.03        0.00     128.16       2.59       0.52       0.60       ----

> <Gold.Chemscore.Fitness>
19.4825

> <Gold.Chemscore.DG>
-20.6064

> <Gold.Chemscore.ZeroCoef>
-5.4800

> <Gold.Chemscore.Hbond>
2.0280

> <Gold.Chemscore.Metal>
0.0000

> <Gold.Chemscore.Lipo>
128.1636

> <Gold.Chemscore.Internal_Hbond>
0.0000

> <Gold.Chemscore.DEClash>
0.5193

> <Gold.Chemscore.DEInternal>
0.6046

> <Gold.Chemscore.Rot>
2.5947

> <Gold.Chemscore.Internal.Correction>
   9.000000E+99

> <Gold.Chemscore.Hbonds>
donor molecule, donor type, donor heavy atom, donor atom, acceptor molecule, acceptor atom, score
      L1  H    10    31       P1  8028  0.55
      L1  H    16    39       P1  7948  1.00
      P1  H  7997  8008       L1     5  0.22

> <Gold.Chemscore.Hbond.Weighted>
-6.7736

> <Gold.Chemscore.Metal.Weighted>
-0.0000

> <Gold.Chemscore.Lipo.Weighted>
-14.9951

> <Gold.Chemscore.Internal_Hbond.Weighted>
0.0000

> <Gold.Chemscore.DEClash.Weighted>
0.5193

> <Gold.Chemscore.DEInternal.Weighted>
0.6046

> <Gold.Chemscore.Rot.Weighted>
6.6424

> <Gold.Chemscore.Internal.Correction.Weighted>
   9.000000E+99

> <Gold.Protein.RotatedTorsions>
[ 6907 6896 6895 6894 ] final   91.96 input  -60.11 | X-H torsion
[ 7974 7965 7964 7962 ] final   33.40 input  175.53 | X-H torsion
[ 8008 7997 7996 7995 ] final  -62.31 input   59.86 | X-H torsion
[ 10167 10162 10161 10158 ] final -176.05 input  -65.29 | X-H torsion
[ 10718 10713 10712 10709 ] final   44.20 input   66.30 | X-H torsion
[ 10763 10752 10751 10750 ] final  -33.78 input  -60.55 | X-H torsion
[ 11005 11000 10999 10996 ] final  -73.29 input  -57.11 | X-H torsion

> <Gold.Protein.ActiveResidues>
 VAL166  LYS551  ARG553  GLY616  TRP617  ASP618  TYR619  PRO620  LYS621  CYS622 
 ASP623  PHE694  ASN695  SER759  ASP760  ASP761  ALA762  ILE779  LEU786  VAL792 
 PHE793  MET794  SER795  GLU796  ALA797  LYS798  CYS799  TRP800  GLU811  SER814 

> <Gold.Protein.RotatedAtoms>
  152.5451  134.1576  159.8544 H   0  0  0  0  0  0  0  0  0  0  0  0  # atno 6907 bound_to 6896
  151.1598  133.4846  159.2602 H   0  0  0  0  0  0  0  0  0  0  0  0  # atno 6908 bound_to 6896
  151.1385  135.0178  159.8670 H   0  0  0  0  0  0  0  0  0  0  0  0  # atno 6909 bound_to 6896
  146.1423  139.6402  142.9155 H   0  0  0  0  0  0  0  0  0  0  0  0  # atno 7974 bound_to 7965
  154.4493  140.0999  156.6567 H   0  0  0  0  0  0  0  0  0  0  0  0  # atno 8008 bound_to 7997
  155.5338  140.3482  155.4413 H   0  0  0  0  0  0  0  0  0  0  0  0  # atno 8009 bound_to 7997
  156.0645  140.1334  156.9891 H   0  0  0  0  0  0  0  0  0  0  0  0  # atno 8010 bound_to 7997
  139.5549  144.2014  152.1142 H   0  0  0  0  0  0  0  0  0  0  0  0  # atno 10167 bound_to 10162
  157.4242  130.7987  149.7543 H   0  0  0  0  0  0  0  0  0  0  0  0  # atno 10718 bound_to 10713
  153.8359  135.6862  153.4809 H   0  0  0  0  0  0  0  0  0  0  0  0  # atno 10763 bound_to 10752
  153.1483  135.4629  154.9596 H   0  0  0  0  0  0  0  0  0  0  0  0  # atno 10764 bound_to 10752
  154.7866  135.3287  154.7818 H   0  0  0  0  0  0  0  0  0  0  0  0  # atno 10765 bound_to 10752
  141.1621  133.6873  156.7189 H   0  0  0  0  0  0  0  0  0  0  0  0  # atno 11005 bound_to 11000
  145.5018  141.0437  143.2536 LP  0  0  0  0  0  0  0  0  0  0  0  0  # atno 17320 bound_to 7965
  144.7806  139.6534  143.7156 LP  0  0  0  0  0  0  0  0  0  0  0  0  # atno 17321 bound_to 7965
  140.1516  144.5109  150.6684 LP  0  0  0  0  0  0  0  0  0  0  0  0  # atno 17342 bound_to 10162
  140.6820  143.2331  151.5359 LP  0  0  0  0  0  0  0  0  0  0  0  0  # atno 17343 bound_to 10162
  155.9891  130.3954  150.3089 LP  0  0  0  0  0  0  0  0  0  0  0  0  # atno 17370 bound_to 10713
  157.1239  131.0254  151.2997 LP  0  0  0  0  0  0  0  0  0  0  0  0  # atno 17371 bound_to 10713
  140.2831  134.8301  157.3951 LP  0  0  0  0  0  0  0  0  0  0  0  0  # atno 17394 bound_to 11000
  140.1415  134.4966  155.8028 LP  0  0  0  0  0  0  0  0  0  0  0  0  # atno 17395 bound_to 11000

$$$$
