AV-unprocessed.smi:2379|AV-procd|sdf|9452|dock1
  -GOLD-   2272013 83D 1   1.00000     0.00000
 Structure written by MMmdl.
 53 55  0  0  0  0  0  0  0  0  2 V2000
  151.9707  145.9486  160.1221 C   0  0  0  0  0  0  0  0  0  0  0  0
  151.9517  144.5687  159.4986 C   0  0  0  0  0  0  0  0  0  0  0  0
  152.8475  143.5699  159.9258 C   0  0  0  0  0  0  0  0  0  0  0  0
  152.7797  142.3069  159.3057 C   0  0  0  0  0  0  0  0  0  0  0  0
  153.7087  141.1848  159.7192 C   0  0  0  0  0  0  0  0  0  0  0  0
  151.9026  142.0153  158.3217 N   0  0  0  0  0  0  0  0  0  0  0  0
  151.0368  142.9701  157.9002 C   0  0  0  0  0  0  0  0  0  0  0  0
  150.0757  142.7631  156.8752 N   0  0  0  0  0  0  0  0  0  0  0  0
  150.0160  141.7561  155.9858 C   0  0  0  0  0  0  0  0  0  0  0  0
  150.8231  140.8298  155.9012 O   0  0  0  0  0  0  0  0  0  0  0  0
  148.9541  141.8827  155.1762 N   0  0  0  0  0  0  0  0  0  0  0  0
  148.6220  140.9745  154.0818 C   0  0  2  0  0  0  0  0  0  0  0  0
  147.4454  141.5394  153.2702 C   0  0  0  0  0  0  0  0  0  0  0  0
  147.0194  140.5688  152.1552 C   0  0  0  0  0  0  0  0  0  0  0  0
  146.6807  139.2301  152.7051 N   0  3  1  0  0  0  0  0  0  0  0  0
  146.1329  138.3074  151.6761 C   0  0  0  0  0  0  0  0  0  0  0  0
  145.6207  136.9880  152.2869 C   0  0  1  0  0  0  0  0  0  0  0  0
  144.2663  137.1216  152.9551 C   0  0  0  0  0  0  0  0  0  0  0  0
  143.8084  135.6697  153.0480 C   0  0  0  0  0  0  0  0  0  0  0  0
  144.3816  135.0126  151.9225 O   0  0  0  0  0  0  0  0  0  0  0  0
  145.3301  135.8646  151.2893 C   0  0  0  0  0  0  0  0  0  0  0  0
  147.8226  138.6508  153.4607 C   0  0  0  0  0  0  0  0  0  0  0  0
  148.2537  139.5759  154.6101 C   0  0  0  0  0  0  0  0  0  0  0  0
  151.0339  144.2617  158.4738 C   0  0  0  0  0  0  0  0  0  0  0  0
  152.6526  145.9904  160.9719 H   0  0  0  0  0  0  0  0  0  0  0  0
  150.9745  146.2204  160.4719 H   0  0  0  0  0  0  0  0  0  0  0  0
  152.2919  146.6890  159.3893 H   0  0  0  0  0  0  0  0  0  0  0  0
  153.5667  143.7661  160.7078 H   0  0  0  0  0  0  0  0  0  0  0  0
  154.2682  141.4459  160.6178 H   0  0  0  0  0  0  0  0  0  0  0  0
  154.4213  140.9710  158.9223 H   0  0  0  0  0  0  0  0  0  0  0  0
  153.1412  140.2770  159.9258 H   0  0  0  0  0  0  0  0  0  0  0  0
  149.3553  143.4666  156.8088 H   0  0  0  0  0  0  0  0  0  0  0  0
  148.3421  142.6734  155.3161 H   0  0  0  0  0  0  0  0  0  0  0  0
  149.4860  140.8896  153.4195 H   0  0  0  0  0  0  0  0  0  0  0  0
  146.5959  141.7282  153.9287 H   0  0  0  0  0  0  0  0  0  0  0  0
  147.7188  142.5015  152.8350 H   0  0  0  0  0  0  0  0  0  0  0  0
  146.1538  140.9844  151.6376 H   0  0  0  0  0  0  0  0  0  0  0  0
  147.8161  140.4696  151.4158 H   0  0  0  0  0  0  0  0  0  0  0  0
  145.2849  138.7847  151.1827 H   0  0  0  0  0  0  0  0  0  0  0  0
  146.8651  138.1251  150.8879 H   0  0  0  0  0  0  0  0  0  0  0  0
  146.3325  136.6283  153.0321 H   0  0  0  0  0  0  0  0  0  0  0  0
  144.3137  137.6121  153.9280 H   0  0  0  0  0  0  0  0  0  0  0  0
  143.5818  137.6879  152.3212 H   0  0  0  0  0  0  0  0  0  0  0  0
  144.1956  135.2048  153.9554 H   0  0  0  0  0  0  0  0  0  0  0  0
  142.7224  135.5748  153.0553 H   0  0  0  0  0  0  0  0  0  0  0  0
  144.8788  136.2609  150.3787 H   0  0  0  0  0  0  0  0  0  0  0  0
  146.2264  135.3097  151.0115 H   0  0  0  0  0  0  0  0  0  0  0  0
  147.5548  137.6781  153.8692 H   0  0  0  0  0  0  0  0  0  0  0  0
  148.6616  138.4838  152.7829 H   0  0  0  0  0  0  0  0  0  0  0  0
  149.1012  139.1326  155.1343 H   0  0  0  0  0  0  0  0  0  0  0  0
  147.4454  139.6528  155.3389 H   0  0  0  0  0  0  0  0  0  0  0  0
  150.3380  145.0137  158.1305 H   0  0  0  0  0  0  0  0  0  0  0  0
  145.9358  139.3851  153.3694 H   0  0  0  0  0  0  0  0  0  0  0  0
  1  2  1  0  0  0  0
  1 25  1  0  0  0  0
  1 26  1  0  0  0  0
  1 27  1  0  0  0  0
  2 24  1  0  0  0  0
  2  3  2  0  0  0  0
  3  4  1  0  0  0  0
  3 28  1  0  0  0  0
  4  5  1  0  0  0  0
  4  6  2  0  0  0  0
  5 29  1  0  0  0  0
  5 30  1  0  0  0  0
  5 31  1  0  0  0  0
  6  7  1  0  0  0  0
  7  8  1  0  0  0  0
  7 24  2  0  0  0  0
  8  9  1  0  0  0  0
  8 32  1  0  0  0  0
  9 10  2  0  0  0  0
  9 11  1  0  0  0  0
 11 12  1  0  0  0  0
 11 33  1  0  0  0  0
 12 23  1  0  0  0  0
 12 13  1  0  0  0  0
 12 34  1  0  0  0  0
 13 14  1  0  0  0  0
 13 35  1  0  0  0  0
 13 36  1  0  0  0  0
 14 15  1  0  0  0  0
 14 37  1  0  0  0  0
 14 38  1  0  0  0  0
 15 16  1  0  0  0  0
 15 22  1  0  0  0  0
 15 53  1  0  0  0  0
 16 17  1  0  0  0  0
 16 39  1  0  0  0  0
 16 40  1  0  0  0  0
 17 21  1  0  0  0  0
 17 18  1  0  0  0  0
 17 41  1  0  0  0  0
 18 19  1  0  0  0  0
 18 42  1  0  0  0  0
 18 43  1  0  0  0  0
 19 20  1  0  0  0  0
 19 44  1  0  0  0  0
 19 45  1  0  0  0  0
 20 21  1  0  0  0  0
 21 46  1  0  0  0  0
 21 47  1  0  0  0  0
 22 23  1  0  0  0  0
 22 48  1  0  0  0  0
 22 49  1  0  0  0  0
 23 50  1  0  0  0  0
 23 51  1  0  0  0  0
 24 52  1  0  0  0  0
M  CHG  1  15   1
M  END
> <s_m_source_file>
AV-unprocessed.smi

> <i_m_source_file_index>
2379

> <i_lp_mmshare_version>
43012

> <i_f3d_flags>
0

> <s_epik_input>
W0NIM11jMVtjSF1jKFtDSDNdKW5jKFtjSF0xKVtOSF1DKD1PKVtOSF1bQ0hdMltDSDJdW0NIMl1OKFtDSDJdW0NIMl0yKVtDSDJdW0NAQEhdM1tDSDJdW0NIMl1PW0NIMl0z

> <s_epik_cmdline>
J2VwaWtfcHl0aG9uJywgJy1waCcsICc3LjAnLCAnLXRuJywgJzgnLCAnLW1hJywgJzIwMCcsICctbWV0YWxfYmluZGluZycsICctaW1hZScsICc8aW5maWxlLm1hZT4nLCAnLW9tYWUnLCAnPG91dGZpbGUubWFlPic=

> <r_epik_Ionization_Penalty>
0.00766556

> <r_epik_Ionization_Penalty_Charging>
0.00747775

> <r_epik_Ionization_Penalty_Neutral>
0.00018781

> <r_epik_State_Penalty>
0.00558817

> <r_epik_Charging_Adjusted_Penalty>
0.0130659

> <i_epik_Tot_Q>
1

> <i_epik_Tot_abs_Q>
1

> <r_epik_Metal_State_Penalty>
-0

> <b_epik_Metal_Only>
0

> <s_lp_Force_Field>
OPLS_2005

> <r_lp_Energy>
35.6798

> <b_lp_Chiralities_Consistent>
1

> <s_lp_Variant>
AV-unprocessed.smi:2379-2

> <Gold.Version>
5.8.1

> <Gold.Id.Protein>
6NUR|6NUR_protein|mol2

> <Gold.PLP.Fitness>
49.5938

> <Gold.PLP.PLP>
-46.0206

> <Gold.PLP.part.hbond>
-2.1452

> <Gold.PLP.part.metal>
0.0000

> <Gold.PLP.part.buried>
-0.1480

> <Gold.PLP.part.nonpolar>
-43.6848

> <Gold.PLP.part.repulsive>
0.3800

> <Gold.PLP.ligand.clash>
0.0000

> <Gold.PLP.ligand.torsion>
0.2196

> <Gold.PLP.Chemscore.Hbond>
1.3000

> <Gold.PLP.Chemscore.CHOScore>
0.0000

> <Gold.PLP.Chemscore.Metal>
0.0000

> <Gold.Chemscore.Hbonds>
donor molecule, donor type, donor heavy atom, donor atom, acceptor molecule, acceptor atom, score
      L1  H     8    32       P1  8028  0.75
      L1  H    11    33       P1  8028  0.43

> <Gold.PLP.Chemscore.Internal.Correction>
0.1125

> <Gold.Rescore>
     Score         DG    S(hbond)    S(metal)    S(lipo)     H(rot)  DE(clash)    DE(int)     intcor
     17.30     -20.30       1.06        0.00     126.31       1.37       1.48       1.52       ----

> <Gold.Chemscore.Fitness>
17.2961

> <Gold.Chemscore.DG>
-20.2986

> <Gold.Chemscore.ZeroCoef>
-5.4800

> <Gold.Chemscore.Hbond>
1.0642

> <Gold.Chemscore.Metal>
0.0000

> <Gold.Chemscore.Lipo>
126.3058

> <Gold.Chemscore.Internal_Hbond>
0.0000

> <Gold.Chemscore.DEClash>
1.4843

> <Gold.Chemscore.DEInternal>
1.5181

> <Gold.Chemscore.Rot>
1.3725

> <Gold.Chemscore.Internal.Correction>
   9.000000E+99

> <Gold.Chemscore.Hbonds>
donor molecule, donor type, donor heavy atom, donor atom, acceptor molecule, acceptor atom, score
      L1  H     8    32       P1  8028  0.72
      L1  H    11    33       P1  8028  0.43

> <Gold.Chemscore.Hbond.Weighted>
-3.5544

> <Gold.Chemscore.Metal.Weighted>
-0.0000

> <Gold.Chemscore.Lipo.Weighted>
-14.7778

> <Gold.Chemscore.Internal_Hbond.Weighted>
0.0000

> <Gold.Chemscore.DEClash.Weighted>
1.4843

> <Gold.Chemscore.DEInternal.Weighted>
1.5181

> <Gold.Chemscore.Rot.Weighted>
3.5136

> <Gold.Chemscore.Internal.Correction.Weighted>
   9.000000E+99

> <Gold.Protein.RotatedTorsions>
[ 6907 6896 6895 6894 ] final   33.72 input  -60.11 | X-H torsion
[ 7974 7965 7964 7962 ] final  102.70 input  175.53 | X-H torsion
[ 8008 7997 7996 7995 ] final  -32.09 input   59.86 | X-H torsion
[ 10167 10162 10161 10158 ] final   -5.24 input  -65.29 | X-H torsion
[ 10718 10713 10712 10709 ] final -106.01 input   66.30 | X-H torsion
[ 10763 10752 10751 10750 ] final -112.07 input  -60.55 | X-H torsion
[ 11005 11000 10999 10996 ] final  141.22 input  -57.11 | X-H torsion

> <Gold.Protein.ActiveResidues>
 VAL166  LYS551  ARG553  GLY616  TRP617  ASP618  TYR619  PRO620  LYS621  CYS622 
 ASP623  PHE694  ASN695  SER759  ASP760  ASP761  ALA762  ILE779  LEU786  VAL792 
 PHE793  MET794  SER795  GLU796  ALA797  LYS798  CYS799  TRP800  GLU811  SER814 

> <Gold.Protein.RotatedAtoms>
  152.0925  134.9397  160.0571 H   0  0  0  0  0  0  0  0  0  0  0  0  # atno 6907 bound_to 6896
  152.0643  133.4072  159.4440 H   0  0  0  0  0  0  0  0  0  0  0  0  # atno 6908 bound_to 6896
  150.6837  134.3084  159.4779 H   0  0  0  0  0  0  0  0  0  0  0  0  # atno 6909 bound_to 6896
  145.3556  139.2429  143.3534 H   0  0  0  0  0  0  0  0  0  0  0  0  # atno 7974 bound_to 7965
  154.4191  140.1747  156.1671 H   0  0  0  0  0  0  0  0  0  0  0  0  # atno 8008 bound_to 7997
  155.9790  140.3379  155.6621 H   0  0  0  0  0  0  0  0  0  0  0  0  # atno 8009 bound_to 7997
  155.6525  140.0692  157.2573 H   0  0  0  0  0  0  0  0  0  0  0  0  # atno 8010 bound_to 7997
  140.6956  143.6331  150.8504 H   0  0  0  0  0  0  0  0  0  0  0  0  # atno 10167 bound_to 10162
  156.0371  130.5592  150.7621 H   0  0  0  0  0  0  0  0  0  0  0  0  # atno 10718 bound_to 10713
  154.8332  135.4504  154.1138 H   0  0  0  0  0  0  0  0  0  0  0  0  # atno 10763 bound_to 10752
  153.2393  135.6914  153.7808 H   0  0  0  0  0  0  0  0  0  0  0  0  # atno 10764 bound_to 10752
  153.7162  135.3349  155.3233 H   0  0  0  0  0  0  0  0  0  0  0  0  # atno 10765 bound_to 10752
  140.0385  134.9316  157.0799 H   0  0  0  0  0  0  0  0  0  0  0  0  # atno 11005 bound_to 11000
  146.2949  140.4180  142.8725 LP  0  0  0  0  0  0  0  0  0  0  0  0  # atno 17320 bound_to 7965
  144.8685  140.7239  143.6062 LP  0  0  0  0  0  0  0  0  0  0  0  0  # atno 17321 bound_to 7965
  140.0049  143.5704  152.2861 LP  0  0  0  0  0  0  0  0  0  0  0  0  # atno 17342 bound_to 10162
  139.6407  144.7654  151.2344 LP  0  0  0  0  0  0  0  0  0  0  0  0  # atno 17343 bound_to 10162
  157.5137  131.0927  151.0166 LP  0  0  0  0  0  0  0  0  0  0  0  0  # atno 17370 bound_to 10713
  157.0514  130.5789  149.5371 LP  0  0  0  0  0  0  0  0  0  0  0  0  # atno 17371 bound_to 10713
  140.4107  134.1984  155.7163 LP  0  0  0  0  0  0  0  0  0  0  0  0  # atno 17394 bound_to 11000
  141.1870  133.8289  157.1046 LP  0  0  0  0  0  0  0  0  0  0  0  0  # atno 17395 bound_to 11000

$$$$
