AV-unprocessed.smi:1007|AV-procd|sdf|4402|dock2
  -GOLD-   22720 2343D 1   1.00000     0.00000
 Structure written by MMmdl.
 57 59  0  0  0  0  0  0  0  0  3 V2000
  147.3522  136.4261  162.1208 C   0  0  0  0  0  0  0  0  0  0  0  0
  148.0710  136.9452  161.0128 O   0  0  0  0  0  0  0  0  0  0  0  0
  148.8709  135.9853  160.3374 C   0  0  0  0  0  0  0  0  0  0  0  0
  148.9065  136.2464  158.8196 C   0  0  0  0  0  0  0  0  0  0  0  0
  149.6758  135.2684  158.0444 N   0  0  0  0  0  0  0  0  0  0  0  0
  149.0866  134.9998  156.7326 C   0  0  0  0  0  0  0  0  0  0  0  0
  149.2583  136.1660  155.7375 C   0  0  0  0  0  0  0  0  0  0  0  0
  150.6979  136.4956  155.5831 N   0  3  0  0  0  0  0  0  0  0  0  0
  150.9479  137.5225  154.5416 C   0  0  0  0  0  0  0  0  0  0  0  0
  150.6023  138.9607  154.9950 C   0  0  2  0  0  0  0  0  0  0  0  0
  150.3582  139.7237  153.8328 O   0  0  0  0  0  0  0  0  0  0  0  0
  151.7120  139.6858  155.7901 C   0  0  0  0  0  0  0  0  0  0  0  0
  151.2581  140.9389  156.4124 N   0  0  0  0  0  0  0  0  0  0  0  0
  150.3429  141.8410  155.9635 C   0  0  0  0  0  0  0  0  0  0  0  0
  150.2510  142.8311  156.8931 N   0  3  0  0  0  0  0  0  0  0  0  0
  151.1267  142.5643  157.9471 C   0  0  0  0  0  0  0  0  0  0  0  0
  151.3777  143.2666  159.1194 C   0  0  0  0  0  0  0  0  0  0  0  0
  152.3326  142.7210  160.0063 C   0  0  0  0  0  0  0  0  0  0  0  0
  152.6203  143.4566  161.3038 C   0  0  0  0  0  0  0  0  0  0  0  0
  153.0087  141.5125  159.6973 C   0  0  0  0  0  0  0  0  0  0  0  0
  154.0323  140.9334  160.6587 C   0  0  0  0  0  0  0  0  0  0  0  0
  152.7441  140.8163  158.4963 C   0  0  0  0  0  0  0  0  0  0  0  0
  151.7903  141.3604  157.6383 C   0  0  0  0  0  0  0  0  0  0  0  0
  151.3115  136.7974  156.9024 C   0  0  0  0  0  0  0  0  0  0  0  0
  151.0887  135.6129  157.8643 C   0  0  0  0  0  0  0  0  0  0  0  0
  146.7216  137.2090  162.5420 H   0  0  0  0  0  0  0  0  0  0  0  0
  148.0188  136.0802  162.9103 H   0  0  0  0  0  0  0  0  0  0  0  0
  146.7041  135.6014  161.8221 H   0  0  0  0  0  0  0  0  0  0  0  0
  149.8716  135.9598  160.7701 H   0  0  0  0  0  0  0  0  0  0  0  0
  148.4265  135.0067  160.5211 H   0  0  0  0  0  0  0  0  0  0  0  0
  147.8753  136.2322  158.4645 H   0  0  0  0  0  0  0  0  0  0  0  0
  149.2719  137.2539  158.6278 H   0  0  0  0  0  0  0  0  0  0  0  0
  149.5511  134.1069  156.3128 H   0  0  0  0  0  0  0  0  0  0  0  0
  148.0288  134.7581  156.8424 H   0  0  0  0  0  0  0  0  0  0  0  0
  148.8433  135.8742  154.7724 H   0  0  0  0  0  0  0  0  0  0  0  0
  148.7051  137.0479  156.0632 H   0  0  0  0  0  0  0  0  0  0  0  0
  152.0004  137.4970  154.2544 H   0  0  0  0  0  0  0  0  0  0  0  0
  150.3817  137.2553  153.6476 H   0  0  0  0  0  0  0  0  0  0  0  0
  149.6760  138.9728  155.5684 H   0  0  0  0  0  0  0  0  0  0  0  0
  149.4534  139.9983  153.8305 H   0  0  0  0  0  0  0  0  0  0  0  0
  152.1537  139.0332  156.5427 H   0  0  0  0  0  0  0  0  0  0  0  0
  152.5259  139.9583  155.1166 H   0  0  0  0  0  0  0  0  0  0  0  0
  149.7850  141.7793  155.0399 H   0  0  0  0  0  0  0  0  0  0  0  0
  150.8609  144.1879  159.3470 H   0  0  0  0  0  0  0  0  0  0  0  0
  153.6607  143.7805  161.3370 H   0  0  0  0  0  0  0  0  0  0  0  0
  152.4297  142.8113  162.1615 H   0  0  0  0  0  0  0  0  0  0  0  0
  151.9925  144.3420  161.4087 H   0  0  0  0  0  0  0  0  0  0  0  0
  154.4869  140.0261  160.2599 H   0  0  0  0  0  0  0  0  0  0  0  0
  153.5627  140.6806  161.6096 H   0  0  0  0  0  0  0  0  0  0  0  0
  154.8320  141.6505  160.8465 H   0  0  0  0  0  0  0  0  0  0  0  0
  153.2583  139.8939  158.2704 H   0  0  0  0  0  0  0  0  0  0  0  0
  152.3827  136.9598  156.7929 H   0  0  0  0  0  0  0  0  0  0  0  0
  150.8947  137.7192  157.3098 H   0  0  0  0  0  0  0  0  0  0  0  0
  151.5581  135.8190  158.8255 H   0  0  0  0  0  0  0  0  0  0  0  0
  151.6138  134.7422  157.4691 H   0  0  0  0  0  0  0  0  0  0  0  0
  151.1375  135.6500  155.2487 H   0  0  0  0  0  0  0  0  0  0  0  0
  149.6374  143.6322  156.8097 H   0  0  0  0  0  0  0  0  0  0  0  0
  1  2  1  0  0  0  0
  1 26  1  0  0  0  0
  1 27  1  0  0  0  0
  1 28  1  0  0  0  0
  2  3  1  0  0  0  0
  3  4  1  0  0  0  0
  3 29  1  0  0  0  0
  3 30  1  0  0  0  0
  4  5  1  0  0  0  0
  4 31  1  0  0  0  0
  4 32  1  0  0  0  0
  5 25  1  0  0  0  0
  5  6  1  0  0  0  0
  6  7  1  0  0  0  0
  6 33  1  0  0  0  0
  6 34  1  0  0  0  0
  7  8  1  0  0  0  0
  7 35  1  0  0  0  0
  7 36  1  0  0  0  0
  8  9  1  0  0  0  0
  8 24  1  0  0  0  0
  8 56  1  0  0  0  0
  9 10  1  0  0  0  0
  9 37  1  0  0  0  0
  9 38  1  0  0  0  0
 10 11  1  0  0  0  0
 10 12  1  0  0  0  0
 10 39  1  0  0  0  0
 11 40  1  0  0  0  0
 12 13  1  0  0  0  0
 12 41  1  0  0  0  0
 12 42  1  0  0  0  0
 13 23  1  0  0  0  0
 13 14  1  0  0  0  0
 14 15  2  0  0  0  0
 14 43  1  0  0  0  0
 15 16  1  0  0  0  0
 15 57  1  0  0  0  0
 16 23  2  0  0  0  0
 16 17  1  0  0  0  0
 17 18  2  0  0  0  0
 17 44  1  0  0  0  0
 18 19  1  0  0  0  0
 18 20  1  0  0  0  0
 19 45  1  0  0  0  0
 19 46  1  0  0  0  0
 19 47  1  0  0  0  0
 20 21  1  0  0  0  0
 20 22  2  0  0  0  0
 21 48  1  0  0  0  0
 21 49  1  0  0  0  0
 21 50  1  0  0  0  0
 22 23  1  0  0  0  0
 22 51  1  0  0  0  0
 24 25  1  0  0  0  0
 24 52  1  0  0  0  0
 24 53  1  0  0  0  0
 25 54  1  0  0  0  0
 25 55  1  0  0  0  0
M  CHG  1   8   1
M  CHG  1  15   1
M  END
> <s_m_source_file>
AV-unprocessed.smi

> <i_m_source_file_index>
1007

> <i_lp_mmshare_version>
43012

> <i_f3d_flags>
0

> <s_epik_input>
W0NIM11PW0NIMl1bQ0gyXU4xW0NIMl1bQ0gyXU4oW0NIMl1bQ0gyXTEpW0NIMl1bQ0BIXShbT0hdKVtDSDJdbihbY0hdbjIpYyhjMjMpW2NIXWMoW0NIM10pYyhbY0hdMylbQ0gzXQ==

> <s_epik_cmdline>
J2VwaWtfcHl0aG9uJywgJy1waCcsICc3LjAnLCAnLXRuJywgJzgnLCAnLW1hJywgJzIwMCcsICctbWV0YWxfYmluZGluZycsICctaW1hZScsICc8aW5maWxlLm1hZT4nLCAnLW9tYWUnLCAnPG91dGZpbGUubWFlPic=

> <r_epik_Ionization_Penalty>
1.19231

> <r_epik_Ionization_Penalty_Charging>
1.17974

> <r_epik_Ionization_Penalty_Neutral>
0.0125676

> <r_epik_State_Penalty>
1.24499

> <r_epik_Charging_Adjusted_Penalty>
2.42472

> <i_epik_Tot_Q>
2

> <i_epik_Tot_abs_Q>
2

> <r_epik_Metal_State_Penalty>
5.24866

> <b_epik_Metal_Only>
0

> <s_lp_Force_Field>
OPLS_2005

> <r_lp_Energy>
43.594

> <b_lp_Chiralities_Consistent>
1

> <s_lp_Variant>
AV-unprocessed.smi:1007-5

> <Gold.Version>
5.8.1

> <Gold.Id.Protein>
6NUR|6NUR_protein|mol2

> <Gold.PLP.Fitness>
56.4871

> <Gold.PLP.PLP>
-44.8168

> <Gold.PLP.part.hbond>
-5.9189

> <Gold.PLP.part.metal>
0.0000

> <Gold.PLP.part.buried>
-0.5470

> <Gold.PLP.part.nonpolar>
-38.4106

> <Gold.PLP.part.repulsive>
0.1007

> <Gold.PLP.ligand.clash>
0.0000

> <Gold.PLP.ligand.torsion>
1.4348

> <Gold.PLP.Chemscore.Hbond>
4.7680

> <Gold.PLP.Chemscore.CHOScore>
0.0000

> <Gold.PLP.Chemscore.Metal>
0.0000

> <Gold.Chemscore.Hbonds>
donor molecule, donor type, donor heavy atom, donor atom, acceptor molecule, acceptor atom, score
      L1  H    15    57       P1  8028  1.79
      P1  H  6931  6943       L1     2  0.95
      P1  H  6934  6947       L1     2  0.33
      P1  H  7989  7998       L1    11  0.99

> <Gold.PLP.Chemscore.Internal.Correction>
0.2359

> <Gold.Rescore>
     Score         DG    S(hbond)    S(metal)    S(lipo)     H(rot)  DE(clash)    DE(int)     intcor
     18.09     -22.62       2.62        0.00     129.53       2.64       1.79       2.74       ----

> <Gold.Chemscore.Fitness>
18.0874

> <Gold.Chemscore.DG>
-22.6185

> <Gold.Chemscore.ZeroCoef>
-5.4800

> <Gold.Chemscore.Hbond>
2.6198

> <Gold.Chemscore.Metal>
0.0000

> <Gold.Chemscore.Lipo>
129.5300

> <Gold.Chemscore.Internal_Hbond>
0.0000

> <Gold.Chemscore.DEClash>
1.7873

> <Gold.Chemscore.DEInternal>
2.7438

> <Gold.Chemscore.Rot>
2.6432

> <Gold.Chemscore.Internal.Correction>
   9.000000E+99

> <Gold.Chemscore.Hbonds>
donor molecule, donor type, donor heavy atom, donor atom, acceptor molecule, acceptor atom, score
      L1  H    15    57       P1  8028  0.87
      P1  H  6931  6943       L1     2  0.18
      P1  H  6934  6947       L1     2  0.08
      P1  H  7989  7998       L1    11  0.81

> <Gold.Chemscore.Hbond.Weighted>
-8.7500

> <Gold.Chemscore.Metal.Weighted>
-0.0000

> <Gold.Chemscore.Lipo.Weighted>
-15.1550

> <Gold.Chemscore.Internal_Hbond.Weighted>
0.0000

> <Gold.Chemscore.DEClash.Weighted>
1.7873

> <Gold.Chemscore.DEInternal.Weighted>
2.7438

> <Gold.Chemscore.Rot.Weighted>
6.7665

> <Gold.Chemscore.Internal.Correction.Weighted>
   9.000000E+99

> <Gold.Protein.RotatedTorsions>
[ 6907 6896 6895 6894 ] final  101.77 input  -60.11 | X-H torsion
[ 7974 7965 7964 7962 ] final  126.57 input  175.53 | X-H torsion
[ 8008 7997 7996 7995 ] final   32.74 input   59.86 | X-H torsion
[ 10167 10162 10161 10158 ] final  -71.40 input  -65.29 | X-H torsion
[ 10718 10713 10712 10709 ] final   22.92 input   66.30 | X-H torsion
[ 10763 10752 10751 10750 ] final  -68.34 input  -60.55 | X-H torsion
[ 11005 11000 10999 10996 ] final -111.29 input  -57.11 | X-H torsion

> <Gold.Protein.ActiveResidues>
 VAL166  LYS551  ARG553  GLY616  TRP617  ASP618  TYR619  PRO620  LYS621  CYS622 
 ASP623  PHE694  ASN695  SER759  ASP760  ASP761  ALA762  ILE779  LEU786  VAL792 
 PHE793  MET794  SER795  GLU796  ALA797  LYS798  CYS799  TRP800  GLU811  SER814 

> <Gold.Protein.RotatedAtoms>
  152.5341  134.0076  159.7923 H   0  0  0  0  0  0  0  0  0  0  0  0  # atno 6907 bound_to 6896
  151.0283  133.5805  159.2670 H   0  0  0  0  0  0  0  0  0  0  0  0  # atno 6908 bound_to 6896
  151.2819  135.0723  159.9226 H   0  0  0  0  0  0  0  0  0  0  0  0  # atno 6909 bound_to 6896
  145.0602  139.3811  143.5009 H   0  0  0  0  0  0  0  0  0  0  0  0  # atno 7974 bound_to 7965
  155.1273  140.3254  155.4482 H   0  0  0  0  0  0  0  0  0  0  0  0  # atno 8008 bound_to 7997
  156.2645  140.2016  156.6342 H   0  0  0  0  0  0  0  0  0  0  0  0  # atno 8009 bound_to 7997
  154.6639  140.0544  157.0079 H   0  0  0  0  0  0  0  0  0  0  0  0  # atno 8010 bound_to 7997
  140.5276  143.2325  151.7319 H   0  0  0  0  0  0  0  0  0  0  0  0  # atno 10167 bound_to 10162
  157.1589  130.6708  149.6037 H   0  0  0  0  0  0  0  0  0  0  0  0  # atno 10718 bound_to 10713
  154.3876  135.6060  153.5825 H   0  0  0  0  0  0  0  0  0  0  0  0  # atno 10763 bound_to 10752
  152.9787  135.5876  154.4335 H   0  0  0  0  0  0  0  0  0  0  0  0  # atno 10764 bound_to 10752
  154.4114  135.2844  155.2012 H   0  0  0  0  0  0  0  0  0  0  0  0  # atno 10765 bound_to 10752
  141.0743  133.9327  157.2422 H   0  0  0  0  0  0  0  0  0  0  0  0  # atno 11005 bound_to 11000
  146.3524  140.0296  142.8651 LP  0  0  0  0  0  0  0  0  0  0  0  0  # atno 17320 bound_to 7965
  145.1418  140.9575  143.4484 LP  0  0  0  0  0  0  0  0  0  0  0  0  # atno 17321 bound_to 7965
  139.4943  144.4162  152.0027 LP  0  0  0  0  0  0  0  0  0  0  0  0  # atno 17342 bound_to 10162
  140.3262  144.3369  150.5998 LP  0  0  0  0  0  0  0  0  0  0  0  0  # atno 17343 bound_to 10162
  155.9757  130.4718  150.6478 LP  0  0  0  0  0  0  0  0  0  0  0  0  # atno 17370 bound_to 10713
  157.4151  131.0829  151.1184 LP  0  0  0  0  0  0  0  0  0  0  0  0  # atno 17371 bound_to 10713
  139.9555  135.0166  156.9117 LP  0  0  0  0  0  0  0  0  0  0  0  0  # atno 17394 bound_to 11000
  140.5607  134.0538  155.7398 LP  0  0  0  0  0  0  0  0  0  0  0  0  # atno 17395 bound_to 11000

$$$$
