AV-unprocessed.smi:2391|AV-procd|sdf|9483|dock2
  -GOLD-   2272013113D 1   1.00000     0.00000
 Structure written by MMmdl.
 35 36  0  0  0  0  0  0  0  0  1 V2000
  149.5533  136.1860  158.5984 O   0  0  0  0  0  0  0  0  0  0  0  0
  148.9380  137.1080  159.1417 C   0  0  0  0  0  0  0  0  0  0  0  0
  148.3305  137.1300  160.3921 N   0  0  0  0  0  0  0  0  0  0  0  0
  147.8631  136.0581  160.9632 C   0  0  0  0  0  0  0  0  0  0  0  0
  147.2449  136.1242  162.2765 C   0  0  0  0  0  0  0  0  0  0  0  0
  146.7562  135.0168  162.8815 C   0  0  0  0  0  0  0  0  0  0  0  0
  146.8599  133.7473  162.1898 C   0  0  0  0  0  0  0  0  0  0  0  0
  147.3989  133.6422  161.0215 N   0  0  0  0  0  0  0  0  0  0  0  0
  147.8822  134.7521  160.4268 N   0  0  0  0  0  0  0  0  0  0  0  0
  148.7731  138.2956  158.5393 N   0  0  0  0  0  0  0  0  0  0  0  0
  149.2634  138.6818  157.2133 C   0  0  2  0  0  0  0  0  0  0  0  0
  149.6388  140.1867  157.2235 C   0  0  0  0  0  0  0  0  0  0  0  0
  150.3210  140.6992  155.9501 C   0  0  0  0  0  0  0  0  0  0  0  0
  150.9923  142.0126  156.3598 C   0  0  0  0  0  0  0  0  0  0  0  0
  151.2731  141.8967  157.8637 C   0  0  0  0  0  0  0  0  0  0  0  0
  150.6422  140.5758  158.3196 C   0  0  0  0  0  0  0  0  0  0  0  0
  148.1960  138.3064  156.1598 C   0  0  0  0  0  0  0  0  0  0  0  0
  147.8047  137.0446  156.3434 F   0  0  0  0  0  0  0  0  0  0  0  0
  147.1315  139.1030  156.2635 F   0  0  0  0  0  0  0  0  0  0  0  0
  148.6880  138.4007  154.9252 F   0  0  0  0  0  0  0  0  0  0  0  0
  147.1587  137.0616  162.8064 H   0  0  0  0  0  0  0  0  0  0  0  0
  146.2963  135.0651  163.8574 H   0  0  0  0  0  0  0  0  0  0  0  0
  146.4530  132.8871  162.7211 H   0  0  0  0  0  0  0  0  0  0  0  0
  148.2548  139.0006  159.0433 H   0  0  0  0  0  0  0  0  0  0  0  0
  150.1637  138.1137  156.9740 H   0  0  0  0  0  0  0  0  0  0  0  0
  148.7330  140.7756  157.3780 H   0  0  0  0  0  0  0  0  0  0  0  0
  151.0805  139.9880  155.6217 H   0  0  0  0  0  0  0  0  0  0  0  0
  149.6221  140.8453  155.1261 H   0  0  0  0  0  0  0  0  0  0  0  0
  151.8994  142.1997  155.7844 H   0  0  0  0  0  0  0  0  0  0  0  0
  150.3134  142.8470  156.1784 H   0  0  0  0  0  0  0  0  0  0  0  0
  152.3429  141.9105  158.0753 H   0  0  0  0  0  0  0  0  0  0  0  0
  150.8259  142.7388  158.3932 H   0  0  0  0  0  0  0  0  0  0  0  0
  150.1746  140.6620  159.3009 H   0  0  0  0  0  0  0  0  0  0  0  0
  151.4201  139.8146  158.3950 H   0  0  0  0  0  0  0  0  0  0  0  0
  148.2935  134.6242  159.5131 H   0  0  0  0  0  0  0  0  0  0  0  0
  1  2  2  0  0  0  0
  2  3  1  0  0  0  0
  2 10  1  0  0  0  0
  3  4  2  0  0  0  0
  4  9  1  0  0  0  0
  4  5  1  0  0  0  0
  5  6  2  0  0  0  0
  5 21  1  0  0  0  0
  6  7  1  0  0  0  0
  6 22  1  0  0  0  0
  7  8  2  0  0  0  0
  7 23  1  0  0  0  0
  8  9  1  0  0  0  0
  9 35  1  0  0  0  0
 10 11  1  0  0  0  0
 10 24  1  0  0  0  0
 11 12  1  0  0  0  0
 11 17  1  0  0  0  0
 11 25  1  0  0  0  0
 12 16  1  0  0  0  0
 12 13  1  0  0  0  0
 12 26  1  0  0  0  0
 13 14  1  0  0  0  0
 13 27  1  0  0  0  0
 13 28  1  0  0  0  0
 14 15  1  0  0  0  0
 14 29  1  0  0  0  0
 14 30  1  0  0  0  0
 15 16  1  0  0  0  0
 15 31  1  0  0  0  0
 15 32  1  0  0  0  0
 16 33  1  0  0  0  0
 16 34  1  0  0  0  0
 17 18  1  0  0  0  0
 17 19  1  0  0  0  0
 17 20  1  0  0  0  0
M  END
> <s_m_source_file>
AV-unprocessed.smi

> <i_m_source_file_index>
2391

> <i_lp_mmshare_version>
43012

> <i_f3d_flags>
0

> <s_epik_input>
W0NIMl0xW0NIMl1bQ0gyXVtDSDJdW0NIXTFbQ0BIXShDKEYpKEYpRilbTkhdQyg9TylbTkhdYzJbY0hdW2NIXVtjSF1ubjI=

> <s_epik_cmdline>
J2VwaWtfcHl0aG9uJywgJy1waCcsICc3LjAnLCAnLXRuJywgJzgnLCAnLW1hJywgJzIwMCcsICctbWV0YWxfYmluZGluZycsICctaW1hZScsICc8aW5maWxlLm1hZT4nLCAnLW9tYWUnLCAnPG91dGZpbGUubWFlPic=

> <r_epik_Ionization_Penalty>
0.0611197

> <r_epik_Ionization_Penalty_Charging>
0.0611196

> <r_epik_Ionization_Penalty_Neutral>
6.50554e-08

> <r_epik_State_Penalty>
2.29873

> <r_epik_Charging_Adjusted_Penalty>
2.35985

> <i_epik_Tot_Q>
0

> <i_epik_Tot_abs_Q>
0

> <r_epik_Metal_State_Penalty>
2.32932

> <b_epik_Metal_Only>
0

> <s_lp_Force_Field>
OPLS_2005

> <r_lp_Energy>
49.9712

> <b_lp_Chiralities_Consistent>
1

> <s_lp_Variant>
AV-unprocessed.smi:2391-3

> <Gold.Version>
5.8.1

> <Gold.Id.Protein>
6NUR|6NUR_protein|mol2

> <Gold.PLP.Fitness>
35.8517

> <Gold.PLP.PLP>
-30.6720

> <Gold.PLP.part.hbond>
-3.0000

> <Gold.PLP.part.metal>
0.0000

> <Gold.PLP.part.buried>
-5.5538

> <Gold.PLP.part.nonpolar>
-22.5688

> <Gold.PLP.part.repulsive>
0.2696

> <Gold.PLP.ligand.clash>
0.0000

> <Gold.PLP.ligand.torsion>
0.7090

> <Gold.PLP.Chemscore.Hbond>
2.0690

> <Gold.PLP.Chemscore.CHOScore>
0.0000

> <Gold.PLP.Chemscore.Metal>
0.0000

> <Gold.Chemscore.Hbonds>
donor molecule, donor type, donor heavy atom, donor atom, acceptor molecule, acceptor atom, score
      P1  H  6896  6908       L1     1  0.73
      P1  H  6931  6943       L1     3  0.74
      P1  H  6934  6947       L1     3  0.25

> <Gold.PLP.Chemscore.Internal.Correction>
0.3905

> <Gold.Rescore>
     Score         DG    S(hbond)    S(metal)    S(lipo)     H(rot)  DE(clash)    DE(int)     intcor
     13.19     -14.27       1.65        0.00      57.23       1.33       0.22       0.87       ----

> <Gold.Chemscore.Fitness>
13.1859

> <Gold.Chemscore.DG>
-14.2706

> <Gold.Chemscore.ZeroCoef>
-5.4800

> <Gold.Chemscore.Hbond>
1.6467

> <Gold.Chemscore.Metal>
0.0000

> <Gold.Chemscore.Lipo>
57.2343

> <Gold.Chemscore.Internal_Hbond>
0.0000

> <Gold.Chemscore.DEClash>
0.2171

> <Gold.Chemscore.DEInternal>
0.8676

> <Gold.Chemscore.Rot>
1.3304

> <Gold.Chemscore.Internal.Correction>
   9.000000E+99

> <Gold.Chemscore.Hbonds>
donor molecule, donor type, donor heavy atom, donor atom, acceptor molecule, acceptor atom, score
      P1  H  6896  6908       L1     1  0.73
      P1  H  6931  6943       L1     3  0.39
      P1  H  6934  6947       L1     3  0.21

> <Gold.Chemscore.Hbond.Weighted>
-5.4999

> <Gold.Chemscore.Metal.Weighted>
-0.0000

> <Gold.Chemscore.Lipo.Weighted>
-6.6964

> <Gold.Chemscore.Internal_Hbond.Weighted>
0.0000

> <Gold.Chemscore.DEClash.Weighted>
0.2171

> <Gold.Chemscore.DEInternal.Weighted>
0.8676

> <Gold.Chemscore.Rot.Weighted>
3.4057

> <Gold.Chemscore.Internal.Correction.Weighted>
   9.000000E+99

> <Gold.Protein.RotatedTorsions>
[ 6907 6896 6895 6894 ] final -178.44 input  -60.11 | X-H torsion
[ 7974 7965 7964 7962 ] final  114.44 input  175.53 | X-H torsion
[ 8008 7997 7996 7995 ] final  -58.95 input   59.86 | X-H torsion
[ 10167 10162 10161 10158 ] final  -39.13 input  -65.29 | X-H torsion
[ 10718 10713 10712 10709 ] final   82.93 input   66.30 | X-H torsion
[ 10763 10752 10751 10750 ] final  -75.96 input  -60.55 | X-H torsion
[ 11005 11000 10999 10996 ] final  104.04 input  -57.11 | X-H torsion

> <Gold.Protein.ActiveResidues>
 VAL166  LYS551  ARG553  GLY616  TRP617  ASP618  TYR619  PRO620  LYS621  CYS622 
 ASP623  PHE694  ASN695  SER759  ASP760  ASP761  ALA762  ILE779  LEU786  VAL792 
 PHE793  MET794  SER795  GLU796  ALA797  LYS798  CYS799  TRP800  GLU811  SER814 

> <Gold.Protein.RotatedAtoms>
  151.6373  133.3328  159.3121 H   0  0  0  0  0  0  0  0  0  0  0  0  # atno 6907 bound_to 6896
  150.8026  134.7133  159.6626 H   0  0  0  0  0  0  0  0  0  0  0  0  # atno 6908 bound_to 6896
  152.4119  134.6114  160.0078 H   0  0  0  0  0  0  0  0  0  0  0  0  # atno 6909 bound_to 6896
  145.2044  139.2937  143.4301 H   0  0  0  0  0  0  0  0  0  0  0  0  # atno 7974 bound_to 7965
  154.4331  140.1072  156.6038 H   0  0  0  0  0  0  0  0  0  0  0  0  # atno 8008 bound_to 7997
  155.5883  140.3491  155.4540 H   0  0  0  0  0  0  0  0  0  0  0  0  # atno 8009 bound_to 7997
  156.0266  140.1251  157.0291 H   0  0  0  0  0  0  0  0  0  0  0  0  # atno 8010 bound_to 7997
  140.7073  143.3233  151.2739 H   0  0  0  0  0  0  0  0  0  0  0  0  # atno 10167 bound_to 10162
  157.6868  131.0069  150.2448 H   0  0  0  0  0  0  0  0  0  0  0  0  # atno 10718 bound_to 10713
  154.4935  135.5814  153.6477 H   0  0  0  0  0  0  0  0  0  0  0  0  # atno 10763 bound_to 10752
  152.9866  135.6118  154.3095 H   0  0  0  0  0  0  0  0  0  0  0  0  # atno 10764 bound_to 10752
  154.2996  135.2847  155.2596 H   0  0  0  0  0  0  0  0  0  0  0  0  # atno 10765 bound_to 10752
  139.8788  134.9285  156.5300 H   0  0  0  0  0  0  0  0  0  0  0  0  # atno 11005 bound_to 11000
  146.3411  140.2299  142.8593 LP  0  0  0  0  0  0  0  0  0  0  0  0  # atno 17320 bound_to 7965
  144.9917  140.8552  143.5335 LP  0  0  0  0  0  0  0  0  0  0  0  0  # atno 17321 bound_to 7965
  139.6694  144.0047  152.2743 LP  0  0  0  0  0  0  0  0  0  0  0  0  # atno 17342 bound_to 10162
  139.9640  144.6538  150.8052 LP  0  0  0  0  0  0  0  0  0  0  0  0  # atno 17343 bound_to 10162
  156.3055  130.3764  149.7710 LP  0  0  0  0  0  0  0  0  0  0  0  0  # atno 17370 bound_to 10713
  156.5326  130.8264  151.3242 LP  0  0  0  0  0  0  0  0  0  0  0  0  # atno 17371 bound_to 10713
  140.8387  133.8222  155.9054 LP  0  0  0  0  0  0  0  0  0  0  0  0  # atno 17394 bound_to 11000
  140.9258  134.2084  157.4897 LP  0  0  0  0  0  0  0  0  0  0  0  0  # atno 17395 bound_to 11000

$$$$
