AV-unprocessed.smi:30|AV-procd|sdf|194|dock2
  -GOLD-   2262015463D 1   1.00000     0.00000
 Structure written by MMmdl.
 54 57  0  0  0  0  0  0  0  0  1 V2000
  151.0642  134.0985  156.0746 O   0  0  0  0  0  0  0  0  0  0  0  0
  150.3675  134.3699  155.0958 C   0  0  0  0  0  0  0  0  0  0  0  0
  149.7277  133.2512  154.2581 C   0  0  0  0  0  0  0  0  0  0  0  0
  148.2533  133.3405  154.1705 N   0  0  0  0  0  0  0  0  0  0  0  0
  147.5041  133.3711  155.3734 C   0  0  0  0  0  0  0  0  0  0  0  0
  148.0598  133.3335  156.4722 O   0  0  0  0  0  0  0  0  0  0  0  0
  146.0559  133.4391  155.2129 C   0  0  0  0  0  0  0  0  0  0  0  0
  145.2656  133.4640  156.2996 F   0  0  0  0  0  0  0  0  0  0  0  0
  145.4946  133.4746  153.9871 C   0  0  0  0  0  0  0  0  0  0  0  0
  146.2385  133.4511  152.8223 N   0  0  0  0  0  0  0  0  0  0  0  0
  145.5653  133.4798  151.4699 C   0  0  1  0  0  0  0  0  0  0  0  0
  145.8081  132.1608  150.7264 C   0  0  0  0  0  0  0  0  0  0  0  0
  144.5162  131.4119  150.9754 C   0  0  0  0  0  0  0  0  0  0  0  0
  143.5042  132.5503  151.0118 C   0  0  0  0  0  0  0  0  0  0  0  0
  144.1862  133.6211  151.6556 O   0  0  0  0  0  0  0  0  0  0  0  0
  147.6459  133.3626  152.8921 C   0  0  0  0  0  0  0  0  0  0  0  0
  148.3254  133.2954  151.8658 O   0  0  0  0  0  0  0  0  0  0  0  0
  150.1297  135.6178  154.6523 N   0  0  0  0  0  0  0  0  0  0  0  0
  150.5362  136.8570  155.2176 C   0  0  0  0  0  0  0  0  0  0  0  0
  150.4901  137.9933  154.3860 C   0  0  0  0  0  0  0  0  0  0  0  0
  150.8485  139.2598  154.8856 C   0  0  0  0  0  0  0  0  0  0  0  0
  151.2478  139.4202  156.2275 C   0  0  0  0  0  0  0  0  0  0  0  0
  151.5733  140.6958  156.6368 O   0  0  0  0  0  0  0  0  0  0  0  0
  152.0559  140.8756  157.9625 C   0  0  0  0  0  0  0  0  0  0  0  0
  152.0693  142.3384  158.3636 C   0  0  0  0  0  0  0  0  0  0  0  0
  152.5094  142.7172  159.6497 C   0  0  0  0  0  0  0  0  0  0  0  0
  152.5042  144.0736  160.0297 C   0  0  0  0  0  0  0  0  0  0  0  0
  152.0533  145.0565  159.1274 C   0  0  0  0  0  0  0  0  0  0  0  0
  151.6059  144.6819  157.8457 C   0  0  0  0  0  0  0  0  0  0  0  0
  151.6108  143.3255  157.4654 C   0  0  0  0  0  0  0  0  0  0  0  0
  151.2838  138.2790  157.0670 C   0  0  0  0  0  0  0  0  0  0  0  0
  150.9272  137.0109  156.5686 C   0  0  0  0  0  0  0  0  0  0  0  0
  150.1706  133.2651  153.2606 H   0  0  0  0  0  0  0  0  0  0  0  0
  150.0420  132.2914  154.6708 H   0  0  0  0  0  0  0  0  0  0  0  0
  144.4173  133.5184  153.9251 H   0  0  0  0  0  0  0  0  0  0  0  0
  145.9491  134.3561  150.9454 H   0  0  0  0  0  0  0  0  0  0  0  0
  145.9249  132.3777  149.6639 H   0  0  0  0  0  0  0  0  0  0  0  0
  146.6989  131.6406  151.0810 H   0  0  0  0  0  0  0  0  0  0  0  0
  144.2967  130.6699  150.2074 H   0  0  0  0  0  0  0  0  0  0  0  0
  144.5518  130.9054  151.9407 H   0  0  0  0  0  0  0  0  0  0  0  0
  143.2399  132.8581  149.9993 H   0  0  0  0  0  0  0  0  0  0  0  0
  142.5876  132.2843  151.5382 H   0  0  0  0  0  0  0  0  0  0  0  0
  149.6314  135.6856  153.7769 H   0  0  0  0  0  0  0  0  0  0  0  0
  150.1803  137.8988  153.3554 H   0  0  0  0  0  0  0  0  0  0  0  0
  150.8107  140.1191  154.2324 H   0  0  0  0  0  0  0  0  0  0  0  0
  151.4296  140.3184  158.6613 H   0  0  0  0  0  0  0  0  0  0  0  0
  153.0753  140.4964  158.0469 H   0  0  0  0  0  0  0  0  0  0  0  0
  152.8519  141.9685  160.3488 H   0  0  0  0  0  0  0  0  0  0  0  0
  152.8438  144.3595  161.0142 H   0  0  0  0  0  0  0  0  0  0  0  0
  152.0480  146.0962  159.4189 H   0  0  0  0  0  0  0  0  0  0  0  0
  151.2573  145.4348  157.1545 H   0  0  0  0  0  0  0  0  0  0  0  0
  151.2620  143.0474  156.4816 H   0  0  0  0  0  0  0  0  0  0  0  0
  151.5761  138.3498  158.1034 H   0  0  0  0  0  0  0  0  0  0  0  0
  150.9448  136.1727  157.2478 H   0  0  0  0  0  0  0  0  0  0  0  0
  1  2  2  0  0  0  0
  2  3  1  0  0  0  0
  2 18  1  0  0  0  0
  3  4  1  0  0  0  0
  3 33  1  0  0  0  0
  3 34  1  0  0  0  0
  4 16  1  0  0  0  0
  4  5  1  0  0  0  0
  5  6  2  0  0  0  0
  5  7  1  0  0  0  0
  7  8  1  0  0  0  0
  7  9  2  0  0  0  0
  9 10  1  0  0  0  0
  9 35  1  0  0  0  0
 10 11  1  0  0  0  0
 10 16  1  0  0  0  0
 11 15  1  0  0  0  0
 11 12  1  0  0  0  0
 11 36  1  0  0  0  0
 12 13  1  0  0  0  0
 12 37  1  0  0  0  0
 12 38  1  0  0  0  0
 13 14  1  0  0  0  0
 13 39  1  0  0  0  0
 13 40  1  0  0  0  0
 14 15  1  0  0  0  0
 14 41  1  0  0  0  0
 14 42  1  0  0  0  0
 16 17  2  0  0  0  0
 18 19  1  0  0  0  0
 18 43  1  0  0  0  0
 19 32  1  0  0  0  0
 19 20  2  0  0  0  0
 20 21  1  0  0  0  0
 20 44  1  0  0  0  0
 21 22  2  0  0  0  0
 21 45  1  0  0  0  0
 22 23  1  0  0  0  0
 22 31  1  0  0  0  0
 23 24  1  0  0  0  0
 24 25  1  0  0  0  0
 24 46  1  0  0  0  0
 24 47  1  0  0  0  0
 25 30  1  0  0  0  0
 25 26  2  0  0  0  0
 26 27  1  0  0  0  0
 26 48  1  0  0  0  0
 27 28  2  0  0  0  0
 27 49  1  0  0  0  0
 28 29  1  0  0  0  0
 28 50  1  0  0  0  0
 29 30  2  0  0  0  0
 29 51  1  0  0  0  0
 30 52  1  0  0  0  0
 31 32  2  0  0  0  0
 31 53  1  0  0  0  0
 32 54  1  0  0  0  0
M  END
> <s_m_source_file>
AV-unprocessed.smi

> <i_m_source_file_index>
30

> <i_lp_mmshare_version>
43012

> <i_f3d_flags>
0

> <s_epik_input>
TzFbQ0gyXVtDSDJdW0NIMl1bQ0BIXTFuKGMyPU8pW2NIXWMoRiljKD1PKW4yW0NIMl1DKD1PKVtOSF1jM1tjSF1bY0hdYyhbY0hdW2NIXTMpT1tDSDJdYzRbY0hdW2NIXVtjSF1bY0hdW2NIXTQ=

> <s_epik_cmdline>
J2VwaWtfcHl0aG9uJywgJy1waCcsICc3LjAnLCAnLXRuJywgJzgnLCAnLW1hJywgJzIwMCcsICctbWV0YWxfYmluZGluZycsICctaW1hZScsICc8aW5maWxlLm1hZT4nLCAnLW9tYWUnLCAnPG91dGZpbGUubWFlPic=

> <r_lp_tautomer_probability>
1

> <r_epik_Ionization_Penalty>
1.04818e-05

> <r_epik_Ionization_Penalty_Charging>
3.88729e-08

> <r_epik_Ionization_Penalty_Neutral>
1.04429e-05

> <r_epik_State_Penalty>
-0

> <r_epik_Charging_Adjusted_Penalty>
3.88729e-08

> <i_epik_Tot_Q>
0

> <i_epik_Tot_abs_Q>
0

> <r_epik_Metal_State_Penalty>
-0

> <b_epik_Metal_Only>
0

> <s_epik_Chemistry_Notes>
This compound contains an acetal/aminal-like group ( X-CH(R)-Y where X, Y are N, S, or O) that may be acid/base labile, releasing an aldehyde.

> <s_lp_Force_Field>
OPLS_2005

> <r_lp_Energy>
44.0701

> <b_lp_Chiralities_Consistent>
1

> <s_lp_Variant>
AV-unprocessed.smi:30-2

> <Gold.Version>
5.8.1

> <Gold.Id.Protein>
6NUR|6NUR_protein|mol2

> <Gold.PLP.Fitness>
56.0774

> <Gold.PLP.PLP>
-51.1529

> <Gold.PLP.part.hbond>
-0.7775

> <Gold.PLP.part.metal>
0.0000

> <Gold.PLP.part.buried>
-6.4540

> <Gold.PLP.part.nonpolar>
-46.9413

> <Gold.PLP.part.repulsive>
2.2717

> <Gold.PLP.ligand.clash>
0.0000

> <Gold.PLP.ligand.torsion>
0.1948

> <Gold.PLP.Chemscore.Hbond>
0.7800

> <Gold.PLP.Chemscore.CHOScore>
0.9597

> <Gold.PLP.Chemscore.Metal>
0.0000

> <Gold.Chemscore.Hbonds>
donor molecule, donor type, donor heavy atom, donor atom, acceptor molecule, acceptor atom, score
      L1  H    18    43       P1  7948  0.86
      L1  C     9    35       P1 10957  0.74

> <Gold.PLP.Chemscore.Internal.Correction>
0.0950

> <Gold.Rescore>
     Score         DG    S(hbond)    S(metal)    S(lipo)     H(rot)  DE(clash)    DE(int)     intcor
     13.95     -17.29       0.19        0.00     143.61       2.20       0.52       2.82       ----

> <Gold.Chemscore.Fitness>
13.9486

> <Gold.Chemscore.DG>
-17.2874

> <Gold.Chemscore.ZeroCoef>
-5.4800

> <Gold.Chemscore.Hbond>
0.1870

> <Gold.Chemscore.Metal>
0.0000

> <Gold.Chemscore.Lipo>
143.6117

> <Gold.Chemscore.Internal_Hbond>
0.0000

> <Gold.Chemscore.DEClash>
0.5152

> <Gold.Chemscore.DEInternal>
2.8236

> <Gold.Chemscore.Rot>
2.1952

> <Gold.Chemscore.Internal.Correction>
   9.000000E+99

> <Gold.Chemscore.Hbonds>
donor molecule, donor type, donor heavy atom, donor atom, acceptor molecule, acceptor atom, score
      L1  H    18    43       P1  7948  0.19

> <Gold.Chemscore.Hbond.Weighted>
-0.6245

> <Gold.Chemscore.Metal.Weighted>
-0.0000

> <Gold.Chemscore.Lipo.Weighted>
-16.8026

> <Gold.Chemscore.Internal_Hbond.Weighted>
0.0000

> <Gold.Chemscore.DEClash.Weighted>
0.5152

> <Gold.Chemscore.DEInternal.Weighted>
2.8236

> <Gold.Chemscore.Rot.Weighted>
5.6196

> <Gold.Chemscore.Internal.Correction.Weighted>
   9.000000E+99

> <Gold.Protein.RotatedTorsions>
[ 6907 6896 6895 6894 ] final  -92.29 input  -60.11 | X-H torsion
[ 7974 7965 7964 7962 ] final  123.90 input  175.53 | X-H torsion
[ 8008 7997 7996 7995 ] final -159.44 input   59.86 | X-H torsion
[ 10167 10162 10161 10158 ] final  157.99 input  -65.29 | X-H torsion
[ 10718 10713 10712 10709 ] final   86.08 input   66.30 | X-H torsion
[ 10763 10752 10751 10750 ] final   61.50 input  -60.55 | X-H torsion
[ 11005 11000 10999 10996 ] final   15.14 input  -57.11 | X-H torsion

> <Gold.Protein.ActiveResidues>
 VAL166  LYS551  ARG553  GLY616  TRP617  ASP618  TYR619  PRO620  LYS621  CYS622 
 ASP623  PHE694  ASN695  SER759  ASP760  ASP761  ALA762  ILE779  LEU786  VAL792 
 PHE793  MET794  SER795  GLU796  ALA797  LYS798  CYS799  TRP800  GLU811  SER814 

> <Gold.Protein.RotatedAtoms>
  150.6904  134.2144  159.4371 H   0  0  0  0  0  0  0  0  0  0  0  0  # atno 6907 bound_to 6896
  152.0104  134.9877  160.0577 H   0  0  0  0  0  0  0  0  0  0  0  0  # atno 6908 bound_to 6896
  152.1494  133.4477  159.4843 H   0  0  0  0  0  0  0  0  0  0  0  0  # atno 6909 bound_to 6896
  145.0906  139.3590  143.4863 H   0  0  0  0  0  0  0  0  0  0  0  0  # atno 7974 bound_to 7965
  155.7626  140.0841  157.2147 H   0  0  0  0  0  0  0  0  0  0  0  0  # atno 8008 bound_to 7997
  154.4002  140.1540  156.2907 H   0  0  0  0  0  0  0  0  0  0  0  0  # atno 8009 bound_to 7997
  155.8824  140.3420  155.5900 H   0  0  0  0  0  0  0  0  0  0  0  0  # atno 8010 bound_to 7997
  139.4825  144.4866  151.8369 H   0  0  0  0  0  0  0  0  0  0  0  0  # atno 10167 bound_to 10162
  157.6924  131.0201  150.2918 H   0  0  0  0  0  0  0  0  0  0  0  0  # atno 10718 bound_to 10713
  152.9952  135.5498  154.6044 H   0  0  0  0  0  0  0  0  0  0  0  0  # atno 10763 bound_to 10752
  154.5379  135.2818  155.1124 H   0  0  0  0  0  0  0  0  0  0  0  0  # atno 10764 bound_to 10752
  154.2414  135.6415  153.5261 H   0  0  0  0  0  0  0  0  0  0  0  0  # atno 10765 bound_to 10752
  140.4617  134.1121  155.7717 H   0  0  0  0  0  0  0  0  0  0  0  0  # atno 11005 bound_to 11000
  146.3531  140.0738  142.8621 LP  0  0  0  0  0  0  0  0  0  0  0  0  # atno 17320 bound_to 7965
  145.1071  140.9382  143.4678 LP  0  0  0  0  0  0  0  0  0  0  0  0  # atno 17321 bound_to 7965
  140.4346  144.2069  150.5889 LP  0  0  0  0  0  0  0  0  0  0  0  0  # atno 17342 bound_to 10162
  140.4745  143.2401  151.9043 LP  0  0  0  0  0  0  0  0  0  0  0  0  # atno 17343 bound_to 10162
  156.3448  130.3821  149.7378 LP  0  0  0  0  0  0  0  0  0  0  0  0  # atno 17370 bound_to 10713
  156.4875  130.8070  151.3081 LP  0  0  0  0  0  0  0  0  0  0  0  0  # atno 17371 bound_to 10713
  141.1618  133.8778  157.1826 LP  0  0  0  0  0  0  0  0  0  0  0  0  # atno 17394 bound_to 11000
  139.9941  135.0053  157.0043 LP  0  0  0  0  0  0  0  0  0  0  0  0  # atno 17395 bound_to 11000

$$$$
