AV-unprocessed.smi:2351|AV-procd|sdf|9376|dock4
  -GOLD-   2272013 03D 1   1.00000     0.00000
 Structure written by MMmdl.
 47 49  0  0  0  0  0  0  0  0  2 V2000
  149.6382  140.3218  155.6036 O   0  0  0  0  0  0  0  0  0  0  0  0
  149.4569  141.5323  155.7282 C   0  0  0  0  0  0  0  0  0  0  0  0
  150.0643  142.3259  156.6269 N   0  0  0  0  0  0  0  0  0  0  0  0
  151.0080  141.9794  157.6332 C   0  0  0  0  0  0  0  0  0  0  0  0
  151.2949  140.6528  158.0374 C   0  0  0  0  0  0  0  0  0  0  0  0
  152.2644  140.4477  159.0397 C   0  0  0  0  0  0  0  0  0  0  0  0
  152.9440  141.4506  159.6349 N   0  0  0  0  0  0  0  0  0  0  0  0
  152.6773  142.7128  159.2380 C   0  0  0  0  0  0  0  0  0  0  0  0
  151.7281  143.0275  158.2449 C   0  0  0  0  0  0  0  0  0  0  0  0
  151.5114  144.3174  157.8902 F   0  0  0  0  0  0  0  0  0  0  0  0
  148.5919  142.2281  154.9753 N   0  0  0  0  0  0  0  0  0  0  0  0
  147.7586  141.6714  153.9094 C   0  0  2  0  0  0  0  0  0  0  0  0
  146.5705  142.6024  153.6132 C   0  0  0  0  0  0  0  0  0  0  0  0
  145.5269  142.5868  154.7457 C   0  0  0  0  0  0  0  0  0  0  0  0
  145.0540  141.2069  155.0296 N   0  3  2  0  0  0  0  0  0  0  0  0
  143.9498  141.1879  156.0233 C   0  0  0  0  0  0  0  0  0  0  0  0
  144.4270  140.8163  157.4413 C   0  0  2  0  0  0  0  0  0  0  0  0
  143.3156  140.6851  158.4647 C   0  0  0  0  0  0  0  0  0  0  0  0
  144.0745  140.8254  159.7812 C   0  0  0  0  0  0  0  0  0  0  0  0
  145.1958  141.6583  159.4989 O   0  0  0  0  0  0  0  0  0  0  0  0
  145.2919  141.8918  158.0978 C   0  0  0  0  0  0  0  0  0  0  0  0
  146.1820  140.3046  155.3828 C   0  0  0  0  0  0  0  0  0  0  0  0
  147.2334  140.2648  154.2602 C   0  0  0  0  0  0  0  0  0  0  0  0
  149.7648  143.2898  156.6405 H   0  0  0  0  0  0  0  0  0  0  0  0
  150.8081  139.7957  157.5994 H   0  0  0  0  0  0  0  0  0  0  0  0
  152.5040  139.4473  159.3690 H   0  0  0  0  0  0  0  0  0  0  0  0
  153.2381  143.4965  159.7258 H   0  0  0  0  0  0  0  0  0  0  0  0
  148.5113  143.2200  155.1453 H   0  0  0  0  0  0  0  0  0  0  0  0
  148.3713  141.6054  153.0084 H   0  0  0  0  0  0  0  0  0  0  0  0
  146.9203  143.6208  153.4388 H   0  0  0  0  0  0  0  0  0  0  0  0
  146.0915  142.2854  152.6858 H   0  0  0  0  0  0  0  0  0  0  0  0
  145.9444  143.0237  155.6541 H   0  0  0  0  0  0  0  0  0  0  0  0
  144.6820  143.2124  154.4553 H   0  0  0  0  0  0  0  0  0  0  0  0
  143.4486  142.1569  156.0314 H   0  0  0  0  0  0  0  0  0  0  0  0
  143.1986  140.4598  155.7134 H   0  0  0  0  0  0  0  0  0  0  0  0
  145.0036  139.8912  157.4244 H   0  0  0  0  0  0  0  0  0  0  0  0
  142.5995  141.5013  158.3583 H   0  0  0  0  0  0  0  0  0  0  0  0
  142.7719  139.7429  158.3898 H   0  0  0  0  0  0  0  0  0  0  0  0
  143.4553  141.2453  160.5742 H   0  0  0  0  0  0  0  0  0  0  0  0
  144.4410  139.8541  160.1157 H   0  0  0  0  0  0  0  0  0  0  0  0
  146.3279  141.8608  157.7590 H   0  0  0  0  0  0  0  0  0  0  0  0
  144.8988  142.8882  157.8896 H   0  0  0  0  0  0  0  0  0  0  0  0
  146.6383  140.6349  156.3170 H   0  0  0  0  0  0  0  0  0  0  0  0
  145.8200  139.2916  155.5528 H   0  0  0  0  0  0  0  0  0  0  0  0
  146.7847  139.8207  153.3706 H   0  0  0  0  0  0  0  0  0  0  0  0
  148.0536  139.6033  154.5405 H   0  0  0  0  0  0  0  0  0  0  0  0
  144.6625  140.8623  154.1646 H   0  0  0  0  0  0  0  0  0  0  0  0
  1  2  2  0  0  0  0
  2  3  1  0  0  0  0
  2 11  1  0  0  0  0
  3  4  1  0  0  0  0
  3 24  1  0  0  0  0
  4  9  1  0  0  0  0
  4  5  2  0  0  0  0
  5  6  1  0  0  0  0
  5 25  1  0  0  0  0
  6  7  2  0  0  0  0
  6 26  1  0  0  0  0
  7  8  1  0  0  0  0
  8  9  2  0  0  0  0
  8 27  1  0  0  0  0
  9 10  1  0  0  0  0
 11 12  1  0  0  0  0
 11 28  1  0  0  0  0
 12 23  1  0  0  0  0
 12 13  1  0  0  0  0
 12 29  1  0  0  0  0
 13 14  1  0  0  0  0
 13 30  1  0  0  0  0
 13 31  1  0  0  0  0
 14 15  1  0  0  0  0
 14 32  1  0  0  0  0
 14 33  1  0  0  0  0
 15 16  1  0  0  0  0
 15 22  1  0  0  0  0
 15 47  1  0  0  0  0
 16 17  1  0  0  0  0
 16 34  1  0  0  0  0
 16 35  1  0  0  0  0
 17 21  1  0  0  0  0
 17 18  1  0  0  0  0
 17 36  1  0  0  0  0
 18 19  1  0  0  0  0
 18 37  1  0  0  0  0
 18 38  1  0  0  0  0
 19 20  1  0  0  0  0
 19 39  1  0  0  0  0
 19 40  1  0  0  0  0
 20 21  1  0  0  0  0
 21 41  1  0  0  0  0
 21 42  1  0  0  0  0
 22 23  1  0  0  0  0
 22 43  1  0  0  0  0
 22 44  1  0  0  0  0
 23 45  1  0  0  0  0
 23 46  1  0  0  0  0
M  CHG  1  15   1
M  END
> <s_m_source_file>
AV-unprocessed.smi

> <i_m_source_file_index>
2351

> <i_lp_mmshare_version>
43012

> <i_f3d_flags>
0

> <s_epik_input>
RmMxW2NIXW5bY0hdW2NIXWMxW05IXUMoPU8pW05IXVtDSF0yW0NIMl1bQ0gyXU4oW0NIMl1bQ0gyXTIpW0NIMl1bQ0BASF0zW0NIMl1bQ0gyXU9bQ0gyXTM=

> <s_epik_cmdline>
J2VwaWtfcHl0aG9uJywgJy1waCcsICc3LjAnLCAnLXRuJywgJzgnLCAnLW1hJywgJzIwMCcsICctbWV0YWxfYmluZGluZycsICctaW1hZScsICc8aW5maWxlLm1hZT4nLCAnLW9tYWUnLCAnPG91dGZpbGUubWFlPic=

> <r_epik_Ionization_Penalty>
0.0102464

> <r_epik_Ionization_Penalty_Charging>
0.00747775

> <r_epik_Ionization_Penalty_Neutral>
0.00276864

> <r_epik_State_Penalty>
0.00558817

> <r_epik_Charging_Adjusted_Penalty>
0.0130659

> <i_epik_Tot_Q>
1

> <i_epik_Tot_abs_Q>
1

> <r_epik_Metal_State_Penalty>
-0

> <b_epik_Metal_Only>
0

> <s_lp_Force_Field>
OPLS_2005

> <r_lp_Energy>
39.3269

> <b_lp_Chiralities_Consistent>
1

> <s_lp_Variant>
AV-unprocessed.smi:2351-3

> <Gold.Version>
5.8.1

> <Gold.Id.Protein>
6NUR|6NUR_protein|mol2

> <Gold.PLP.Fitness>
49.4476

> <Gold.PLP.PLP>
-36.3288

> <Gold.PLP.part.hbond>
-4.0000

> <Gold.PLP.part.metal>
0.0000

> <Gold.PLP.part.buried>
-7.4932

> <Gold.PLP.part.nonpolar>
-25.8932

> <Gold.PLP.part.repulsive>
0.3198

> <Gold.PLP.ligand.clash>
0.0000

> <Gold.PLP.ligand.torsion>
0.8698

> <Gold.PLP.Chemscore.Hbond>
4.9440

> <Gold.PLP.Chemscore.CHOScore>
0.0000

> <Gold.PLP.Chemscore.Metal>
0.0000

> <Gold.Chemscore.Hbonds>
donor molecule, donor type, donor heavy atom, donor atom, acceptor molecule, acceptor atom, score
      L1  H     3    24       P1  8028  0.93
      L1  H    11    28       P1  8028  1.00
      L1  H    15    47       P1 10175  2.00
      P1  H  6934  6946       L1    20  0.49

> <Gold.PLP.Chemscore.Internal.Correction>
0.0264

> <Gold.Rescore>
     Score         DG    S(hbond)    S(metal)    S(lipo)     H(rot)  DE(clash)    DE(int)     intcor
     18.43     -22.15       3.60        0.00      71.39       1.45       0.21       3.52       ----

> <Gold.Chemscore.Fitness>
18.4282

> <Gold.Chemscore.DG>
-22.1538

> <Gold.Chemscore.ZeroCoef>
-5.4800

> <Gold.Chemscore.Hbond>
3.6015

> <Gold.Chemscore.Metal>
0.0000

> <Gold.Chemscore.Lipo>
71.3877

> <Gold.Chemscore.Internal_Hbond>
0.0000

> <Gold.Chemscore.DEClash>
0.2069

> <Gold.Chemscore.DEInternal>
3.5188

> <Gold.Chemscore.Rot>
1.4483

> <Gold.Chemscore.Internal.Correction>
   9.000000E+99

> <Gold.Chemscore.Hbonds>
donor molecule, donor type, donor heavy atom, donor atom, acceptor molecule, acceptor atom, score
      L1  H     3    24       P1  8028  0.90
      L1  H    11    28       P1  8028  0.99
      L1  H    15    47       P1 10175  0.94
      P1  H  6934  6946       L1    20  0.26

> <Gold.Chemscore.Hbond.Weighted>
-12.0292

> <Gold.Chemscore.Metal.Weighted>
-0.0000

> <Gold.Chemscore.Lipo.Weighted>
-8.3524

> <Gold.Chemscore.Internal_Hbond.Weighted>
0.0000

> <Gold.Chemscore.DEClash.Weighted>
0.2069

> <Gold.Chemscore.DEInternal.Weighted>
3.5188

> <Gold.Chemscore.Rot.Weighted>
3.7077

> <Gold.Chemscore.Internal.Correction.Weighted>
   9.000000E+99

> <Gold.Protein.RotatedTorsions>
[ 6907 6896 6895 6894 ] final  162.28 input  -60.11 | X-H torsion
[ 7974 7965 7964 7962 ] final   90.05 input  175.53 | X-H torsion
[ 8008 7997 7996 7995 ] final   40.02 input   59.86 | X-H torsion
[ 10167 10162 10161 10158 ] final  145.70 input  -65.29 | X-H torsion
[ 10718 10713 10712 10709 ] final -108.82 input   66.30 | X-H torsion
[ 10763 10752 10751 10750 ] final   10.19 input  -60.55 | X-H torsion
[ 11005 11000 10999 10996 ] final -154.37 input  -57.11 | X-H torsion

> <Gold.Protein.ActiveResidues>
 VAL166  LYS551  ARG553  GLY616  TRP617  ASP618  TYR619  PRO620  LYS621  CYS622 
 ASP623  PHE694  ASN695  SER759  ASP760  ASP761  ALA762  ILE779  LEU786  VAL792 
 PHE793  MET794  SER795  GLU796  ALA797  LYS798  CYS799  TRP800  GLU811  SER814 

> <Gold.Protein.RotatedAtoms>
  151.9428  133.3643  159.3971 H   0  0  0  0  0  0  0  0  0  0  0  0  # atno 6907 bound_to 6896
  150.6995  134.4421  159.5306 H   0  0  0  0  0  0  0  0  0  0  0  0  # atno 6908 bound_to 6896
  152.2081  134.8527  160.0551 H   0  0  0  0  0  0  0  0  0  0  0  0  # atno 6909 bound_to 6896
  145.5242  139.2280  143.2654 H   0  0  0  0  0  0  0  0  0  0  0  0  # atno 7974 bound_to 7965
  155.2462  140.3349  155.4287 H   0  0  0  0  0  0  0  0  0  0  0  0  # atno 8008 bound_to 7997
  156.2235  140.1819  156.7464 H   0  0  0  0  0  0  0  0  0  0  0  0  # atno 8009 bound_to 7997
  154.5862  140.0645  156.9159 H   0  0  0  0  0  0  0  0  0  0  0  0  # atno 8010 bound_to 7997
  139.4921  144.5883  151.6734 H   0  0  0  0  0  0  0  0  0  0  0  0  # atno 10167 bound_to 10162
  156.0505  130.5732  150.8014 H   0  0  0  0  0  0  0  0  0  0  0  0  # atno 10718 bound_to 10713
  153.2059  135.6862  153.8174 H   0  0  0  0  0  0  0  0  0  0  0  0  # atno 10763 bound_to 10752
  153.7424  135.3236  155.3307 H   0  0  0  0  0  0  0  0  0  0  0  0  # atno 10764 bound_to 10752
  154.8196  135.4661  154.0845 H   0  0  0  0  0  0  0  0  0  0  0  0  # atno 10765 bound_to 10752
  140.6981  134.3968  157.5212 H   0  0  0  0  0  0  0  0  0  0  0  0  # atno 11005 bound_to 11000
  146.2086  140.6056  142.9070 LP  0  0  0  0  0  0  0  0  0  0  0  0  # atno 17320 bound_to 7965
  144.7660  140.5530  143.6703 LP  0  0  0  0  0  0  0  0  0  0  0  0  # atno 17321 bound_to 7965
  140.5504  144.0435  150.6124 LP  0  0  0  0  0  0  0  0  0  0  0  0  # atno 17342 bound_to 10162
  140.3487  143.2976  152.0510 LP  0  0  0  0  0  0  0  0  0  0  0  0  # atno 17343 bound_to 10162
  157.5426  131.0941  150.9806 LP  0  0  0  0  0  0  0  0  0  0  0  0  # atno 17370 bound_to 10713
  157.0085  130.5627  149.5318 LP  0  0  0  0  0  0  0  0  0  0  0  0  # atno 17371 bound_to 10713
  139.8904  134.8805  156.2370 LP  0  0  0  0  0  0  0  0  0  0  0  0  # atno 17394 bound_to 11000
  141.0186  133.7054  156.1231 LP  0  0  0  0  0  0  0  0  0  0  0  0  # atno 17395 bound_to 11000

$$$$
