AV-unprocessed.smi:3253|AV-procd|sdf|12452|dock5
  -GOLD-   2272018343D 1   1.00000     0.00000
 Structure written by MMmdl.
 36 37  0  0  0  0  0  0  0  0  1 V2000
  153.2587  140.6577  161.5080 C   0  0  0  0  0  0  0  0  0  0  0  0
  152.3933  141.4901  160.5526 C   0  0  1  0  0  0  0  0  0  0  0  0
  153.2177  142.6046  159.8729 C   0  0  0  0  0  0  0  0  0  0  0  0
  152.4019  143.7284  159.4488 N   0  0  0  0  0  0  0  0  0  0  0  0
  152.1147  144.1101  158.1444 C   0  0  0  0  0  0  0  0  0  0  0  0
  151.2986  145.2153  158.2289 C   0  0  0  0  0  0  0  0  0  0  0  0
  151.0786  145.5341  159.5666 N   0  0  0  0  0  0  0  0  0  0  0  0
  151.7651  144.6121  160.2293 C   0  0  0  0  0  0  0  0  0  0  0  0
  151.7985  140.6035  159.5530 N   0  0  0  0  0  0  0  0  0  0  0  0
  150.8202  140.9370  158.6960 C   0  0  0  0  0  0  0  0  0  0  0  0
  150.2682  142.0379  158.6928 O   0  0  0  0  0  0  0  0  0  0  0  0
  150.4238  139.8722  157.6624 C   0  0  1  0  0  0  0  0  0  0  0  0
  148.9436  139.4608  157.8017 C   0  0  0  0  0  0  0  0  0  0  0  0
  148.2894  140.0180  156.5478 C   0  0  0  0  0  0  0  0  0  0  0  0
  147.0750  139.9819  156.3552 O   0  0  0  0  0  0  0  0  0  0  0  0
  149.2024  140.5422  155.7254 N   0  0  0  0  0  0  0  0  0  0  0  0
  148.9300  141.1852  154.4474 C   0  0  0  0  0  0  0  0  0  0  0  0
  150.5616  140.3958  156.2163 C   0  0  0  0  0  0  0  0  0  0  0  0
  153.7027  141.2852  162.2812 H   0  0  0  0  0  0  0  0  0  0  0  0
  154.0707  140.1589  160.9779 H   0  0  0  0  0  0  0  0  0  0  0  0
  152.6657  139.8911  162.0079 H   0  0  0  0  0  0  0  0  0  0  0  0
  151.6085  141.9537  161.1531 H   0  0  0  0  0  0  0  0  0  0  0  0
  153.9756  142.9825  160.5603 H   0  0  0  0  0  0  0  0  0  0  0  0
  153.7509  142.2122  159.0059 H   0  0  0  0  0  0  0  0  0  0  0  0
  152.4963  143.5735  157.2885 H   0  0  0  0  0  0  0  0  0  0  0  0
  150.8564  145.8006  157.4364 H   0  0  0  0  0  0  0  0  0  0  0  0
  151.7980  144.5728  161.3082 H   0  0  0  0  0  0  0  0  0  0  0  0
  152.1907  139.6759  159.4809 H   0  0  0  0  0  0  0  0  0  0  0  0
  151.0606  138.9956  157.7944 H   0  0  0  0  0  0  0  0  0  0  0  0
  148.8374  138.3758  157.8132 H   0  0  0  0  0  0  0  0  0  0  0  0
  148.4585  139.8555  158.6959 H   0  0  0  0  0  0  0  0  0  0  0  0
  148.3449  140.5289  153.8025 H   0  0  0  0  0  0  0  0  0  0  0  0
  149.8557  141.4322  153.9268 H   0  0  0  0  0  0  0  0  0  0  0  0
  148.3696  142.1083  154.5993 H   0  0  0  0  0  0  0  0  0  0  0  0
  151.0954  141.3462  156.1537 H   0  0  0  0  0  0  0  0  0  0  0  0
  151.0954  139.6771  155.5932 H   0  0  0  0  0  0  0  0  0  0  0  0
  1  2  1  0  0  0  0
  1 19  1  0  0  0  0
  1 20  1  0  0  0  0
  1 21  1  0  0  0  0
  2  3  1  0  0  0  0
  2  9  1  0  0  0  0
  2 22  1  0  0  0  0
  3  4  1  0  0  0  0
  3 23  1  0  0  0  0
  3 24  1  0  0  0  0
  4  8  1  0  0  0  0
  4  5  1  0  0  0  0
  5  6  2  0  0  0  0
  5 25  1  0  0  0  0
  6  7  1  0  0  0  0
  6 26  1  0  0  0  0
  7  8  2  0  0  0  0
  8 27  1  0  0  0  0
  9 10  1  0  0  0  0
  9 28  1  0  0  0  0
 10 11  2  0  0  0  0
 10 12  1  0  0  0  0
 12 18  1  0  0  0  0
 12 13  1  0  0  0  0
 12 29  1  0  0  0  0
 13 14  1  0  0  0  0
 13 30  1  0  0  0  0
 13 31  1  0  0  0  0
 14 15  2  0  0  0  0
 14 16  1  0  0  0  0
 16 17  1  0  0  0  0
 16 18  1  0  0  0  0
 17 32  1  0  0  0  0
 17 33  1  0  0  0  0
 17 34  1  0  0  0  0
 18 35  1  0  0  0  0
 18 36  1  0  0  0  0
M  END
> <s_m_source_file>
AV-unprocessed.smi

> <i_m_source_file_index>
3253

> <i_lp_mmshare_version>
43012

> <i_f3d_flags>
0

> <s_epik_input>
W2NIXTFuW2NIXVtjSF1uMVtDSDJdW0NAQEhdKFtDSDNdKVtOSF1DKD1PKVtDQEBIXTJbQ0gyXUMoPU8pTihbQ0gzXSlbQ0gyXTI=

> <s_epik_cmdline>
J2VwaWtfcHl0aG9uJywgJy1waCcsICc3LjAnLCAnLXRuJywgJzgnLCAnLW1hJywgJzIwMCcsICctbWV0YWxfYmluZGluZycsICctaW1hZScsICc8aW5maWxlLm1hZT4nLCAnLW9tYWUnLCAnPG91dGZpbGUubWFlPic=

> <r_lp_tautomer_probability>
1

> <r_epik_Ionization_Penalty>
0.628884

> <r_epik_Ionization_Penalty_Charging>
0.628884

> <r_epik_Ionization_Penalty_Neutral>
2.35084e-08

> <r_epik_State_Penalty>
0.64556

> <r_epik_Charging_Adjusted_Penalty>
1.27444

> <i_epik_Tot_Q>
0

> <i_epik_Tot_abs_Q>
0

> <r_epik_Metal_State_Penalty>
0.308736

> <b_epik_Metal_Only>
0

> <s_lp_Force_Field>
OPLS_2005

> <r_lp_Energy>
12.6198

> <b_lp_Chiralities_Consistent>
1

> <s_lp_Variant>
AV-unprocessed.smi:3253-8

> <Gold.Version>
5.8.1

> <Gold.Id.Protein>
6NUR|6NUR_protein|mol2

> <Gold.PLP.Fitness>
41.5543

> <Gold.PLP.PLP>
-39.4420

> <Gold.PLP.part.hbond>
-0.2336

> <Gold.PLP.part.metal>
0.0000

> <Gold.PLP.part.buried>
-4.8324

> <Gold.PLP.part.nonpolar>
-34.9385

> <Gold.PLP.part.repulsive>
0.3625

> <Gold.PLP.ligand.clash>
0.0000

> <Gold.PLP.ligand.torsion>
0.4448

> <Gold.PLP.Chemscore.Hbond>
0.0000

> <Gold.PLP.Chemscore.CHOScore>
0.9902

> <Gold.PLP.Chemscore.Metal>
0.0000

> <Gold.Chemscore.Hbonds>
donor molecule, donor type, donor heavy atom, donor atom, acceptor molecule, acceptor atom, score
      L1  C     6    26       P1  8028  0.15

> <Gold.PLP.Chemscore.Internal.Correction>
0.0312

> <Gold.Rescore>
     Score         DG    S(hbond)    S(metal)    S(lipo)     H(rot)  DE(clash)    DE(int)     intcor
      9.23     -10.10       0.00        0.00      82.51       1.97       0.23       0.64       ----

> <Gold.Chemscore.Fitness>
9.2310

> <Gold.Chemscore.DG>
-10.0988

> <Gold.Chemscore.ZeroCoef>
-5.4800

> <Gold.Chemscore.Hbond>
0.0000

> <Gold.Chemscore.Metal>
0.0000

> <Gold.Chemscore.Lipo>
82.5127

> <Gold.Chemscore.Internal_Hbond>
0.0000

> <Gold.Chemscore.DEClash>
0.2295

> <Gold.Chemscore.DEInternal>
0.6383

> <Gold.Chemscore.Rot>
1.9669

> <Gold.Chemscore.Internal.Correction>
   9.000000E+99

> <Gold.Chemscore.Hbond.Weighted>
-0.0000

> <Gold.Chemscore.Metal.Weighted>
-0.0000

> <Gold.Chemscore.Lipo.Weighted>
-9.6540

> <Gold.Chemscore.Internal_Hbond.Weighted>
0.0000

> <Gold.Chemscore.DEClash.Weighted>
0.2295

> <Gold.Chemscore.DEInternal.Weighted>
0.6383

> <Gold.Chemscore.Rot.Weighted>
5.0352

> <Gold.Chemscore.Internal.Correction.Weighted>
   9.000000E+99

> <Gold.Protein.RotatedTorsions>
[ 6907 6896 6895 6894 ] final  159.80 input  -60.11 | X-H torsion
[ 7974 7965 7964 7962 ] final   60.51 input  175.53 | X-H torsion
[ 8008 7997 7996 7995 ] final  165.54 input   59.86 | X-H torsion
[ 10167 10162 10161 10158 ] final -145.37 input  -65.29 | X-H torsion
[ 10718 10713 10712 10709 ] final  -35.44 input   66.30 | X-H torsion
[ 10763 10752 10751 10750 ] final -118.56 input  -60.55 | X-H torsion
[ 11005 11000 10999 10996 ] final  -67.42 input  -57.11 | X-H torsion

> <Gold.Protein.ActiveResidues>
 VAL166  LYS551  ARG553  GLY616  TRP617  ASP618  TYR619  PRO620  LYS621  CYS622 
 ASP623  PHE694  ASN695  SER759  ASP760  ASP761  ALA762  ILE779  LEU786  VAL792 
 PHE793  MET794  SER795  GLU796  ALA797  LYS798  CYS799  TRP800  GLU811  SER814 

> <Gold.Protein.RotatedAtoms>
  151.9802  133.3755  159.4104 H   0  0  0  0  0  0  0  0  0  0  0  0  # atno 6907 bound_to 6896
  150.6936  134.4047  159.5144 H   0  0  0  0  0  0  0  0  0  0  0  0  # atno 6908 bound_to 6896
  152.1765  134.8790  160.0581 H   0  0  0  0  0  0  0  0  0  0  0  0  # atno 6909 bound_to 6896
  145.8952  139.3540  143.0626 H   0  0  0  0  0  0  0  0  0  0  0  0  # atno 7974 bound_to 7965
  156.1792  140.1667  156.8306 H   0  0  0  0  0  0  0  0  0  0  0  0  # atno 8008 bound_to 7997
  154.5341  140.0750  156.8430 H   0  0  0  0  0  0  0  0  0  0  0  0  # atno 8009 bound_to 7997
  155.3347  140.3381  155.4241 H   0  0  0  0  0  0  0  0  0  0  0  0  # atno 8010 bound_to 7997
  139.7812  143.8099  152.2639 H   0  0  0  0  0  0  0  0  0  0  0  0  # atno 10167 bound_to 10162
  156.3386  130.4290  149.7808 H   0  0  0  0  0  0  0  0  0  0  0  0  # atno 10718 bound_to 10713
  154.8591  135.4270  154.2158 H   0  0  0  0  0  0  0  0  0  0  0  0  # atno 10763 bound_to 10752
  153.3173  135.6980  153.7067 H   0  0  0  0  0  0  0  0  0  0  0  0  # atno 10764 bound_to 10752
  153.6136  135.3515  155.2961 H   0  0  0  0  0  0  0  0  0  0  0  0  # atno 10765 bound_to 10752
  141.1507  133.6719  156.6289 H   0  0  0  0  0  0  0  0  0  0  0  0  # atno 11005 bound_to 11000
  145.8860  140.9334  143.0577 LP  0  0  0  0  0  0  0  0  0  0  0  0  # atno 17320 bound_to 7965
  144.6732  140.0842  143.7468 LP  0  0  0  0  0  0  0  0  0  0  0  0  # atno 17321 bound_to 7965
  139.8162  144.7315  150.9632 LP  0  0  0  0  0  0  0  0  0  0  0  0  # atno 17342 bound_to 10162
  140.7818  143.4203  151.0852 LP  0  0  0  0  0  0  0  0  0  0  0  0  # atno 17343 bound_to 10162
  156.5053  130.8147  151.3148 LP  0  0  0  0  0  0  0  0  0  0  0  0  # atno 17370 bound_to 10713
  157.7443  130.9931  150.2662 LP  0  0  0  0  0  0  0  0  0  0  0  0  # atno 17371 bound_to 10713
  140.3482  134.7791  157.4447 LP  0  0  0  0  0  0  0  0  0  0  0  0  # atno 17394 bound_to 11000
  140.0882  134.5637  155.8470 LP  0  0  0  0  0  0  0  0  0  0  0  0  # atno 17395 bound_to 11000

$$$$
