AV-unprocessed.smi:447|AV-procd|sdf|2598|dock7
  -GOLD-   2262022593D 1   1.00000     0.00000
 Structure written by MMmdl.
 45 47  0  0  0  0  0  0  0  0  1 V2000
  148.5442  145.0304  160.7744 C   0  0  0  0  0  0  0  0  0  0  0  0
  149.9230  144.6730  160.2311 C   0  0  0  0  0  0  0  0  0  0  0  0
  150.8381  144.3949  161.0056 O   0  0  0  0  0  0  0  0  0  0  0  0
  150.0594  144.6956  158.8971 N   0  0  0  0  0  0  0  0  0  0  0  0
  151.2998  144.4445  158.1660 C   0  0  1  0  0  0  0  0  0  0  0  0
  152.2866  145.6107  158.3288 C   0  0  0  0  0  0  0  0  0  0  0  0
  151.8768  143.1454  158.6684 C   0  0  0  0  0  0  0  0  0  0  0  0
  152.6068  143.0830  159.7866 N   0  0  0  0  0  0  0  0  0  0  0  0
  152.9362  141.7458  159.8689 C   0  0  0  0  0  0  0  0  0  0  0  0
  153.6925  141.0435  160.8344 C   0  0  0  0  0  0  0  0  0  0  0  0
  153.8987  139.6543  160.7066 C   0  0  0  0  0  0  0  0  0  0  0  0
  153.3537  138.9497  159.6138 C   0  0  0  0  0  0  0  0  0  0  0  0
  152.5982  139.6315  158.6404 C   0  0  0  0  0  0  0  0  0  0  0  0
  152.3948  141.0183  158.7733 C   0  0  0  0  0  0  0  0  0  0  0  0
  151.7170  141.9652  158.0115 N   0  0  0  0  0  0  0  0  0  0  0  0
  150.9990  141.6873  156.7735 C   0  0  0  0  0  0  0  0  0  0  0  0
  149.4772  141.5643  156.9940 C   0  0  2  0  0  0  0  0  0  0  0  0
  149.2501  140.5494  157.9507 O   0  0  0  0  0  0  0  0  0  0  0  0
  148.7087  141.3268  155.7004 C   0  0  0  0  0  0  0  0  0  0  0  0
  149.0038  140.1966  154.9075 C   0  0  0  0  0  0  0  0  0  0  0  0
  148.2959  139.9608  153.7132 C   0  0  0  0  0  0  0  0  0  0  0  0
  147.2902  140.8561  153.3021 C   0  0  0  0  0  0  0  0  0  0  0  0
  146.9881  141.9832  154.0899 C   0  0  0  0  0  0  0  0  0  0  0  0
  147.6926  142.2169  155.2867 C   0  0  0  0  0  0  0  0  0  0  0  0
  147.7606  144.5387  160.1971 H   0  0  0  0  0  0  0  0  0  0  0  0
  148.3880  146.1083  160.7225 H   0  0  0  0  0  0  0  0  0  0  0  0
  148.4468  144.7197  161.8151 H   0  0  0  0  0  0  0  0  0  0  0  0
  149.2510  144.9330  158.3402 H   0  0  0  0  0  0  0  0  0  0  0  0
  151.0433  144.3466  157.1130 H   0  0  0  0  0  0  0  0  0  0  0  0
  153.2099  145.4169  157.7821 H   0  0  0  0  0  0  0  0  0  0  0  0
  152.5471  145.7683  159.3759 H   0  0  0  0  0  0  0  0  0  0  0  0
  151.8673  146.5412  157.9454 H   0  0  0  0  0  0  0  0  0  0  0  0
  154.1146  141.5742  161.6747 H   0  0  0  0  0  0  0  0  0  0  0  0
  154.4781  139.1269  161.4502 H   0  0  0  0  0  0  0  0  0  0  0  0
  153.5160  137.8857  159.5227 H   0  0  0  0  0  0  0  0  0  0  0  0
  152.1801  139.0947  157.8019 H   0  0  0  0  0  0  0  0  0  0  0  0
  151.2358  142.4339  156.0166 H   0  0  0  0  0  0  0  0  0  0  0  0
  151.3856  140.7457  156.3812 H   0  0  0  0  0  0  0  0  0  0  0  0
  149.1098  142.4880  157.4430 H   0  0  0  0  0  0  0  0  0  0  0  0
  149.4113  139.7124  157.5422 H   0  0  0  0  0  0  0  0  0  0  0  0
  149.7710  139.5020  155.2175 H   0  0  0  0  0  0  0  0  0  0  0  0
  148.5232  139.0919  153.1134 H   0  0  0  0  0  0  0  0  0  0  0  0
  146.7452  140.6742  152.3876 H   0  0  0  0  0  0  0  0  0  0  0  0
  146.2103  142.6654  153.7800 H   0  0  0  0  0  0  0  0  0  0  0  0
  147.4447  143.0799  155.8872 H   0  0  0  0  0  0  0  0  0  0  0  0
  1  2  1  0  0  0  0
  1 25  1  0  0  0  0
  1 26  1  0  0  0  0
  1 27  1  0  0  0  0
  2  3  2  0  0  0  0
  2  4  1  0  0  0  0
  4  5  1  0  0  0  0
  4 28  1  0  0  0  0
  5  6  1  0  0  0  0
  5  7  1  0  0  0  0
  5 29  1  0  0  0  0
  6 30  1  0  0  0  0
  6 31  1  0  0  0  0
  6 32  1  0  0  0  0
  7 15  1  0  0  0  0
  7  8  2  0  0  0  0
  8  9  1  0  0  0  0
  9 14  2  0  0  0  0
  9 10  1  0  0  0  0
 10 11  2  0  0  0  0
 10 33  1  0  0  0  0
 11 12  1  0  0  0  0
 11 34  1  0  0  0  0
 12 13  2  0  0  0  0
 12 35  1  0  0  0  0
 13 14  1  0  0  0  0
 13 36  1  0  0  0  0
 14 15  1  0  0  0  0
 15 16  1  0  0  0  0
 16 17  1  0  0  0  0
 16 37  1  0  0  0  0
 16 38  1  0  0  0  0
 17 18  1  0  0  0  0
 17 19  1  0  0  0  0
 17 39  1  0  0  0  0
 18 40  1  0  0  0  0
 19 24  1  0  0  0  0
 19 20  2  0  0  0  0
 20 21  1  0  0  0  0
 20 41  1  0  0  0  0
 21 22  2  0  0  0  0
 21 42  1  0  0  0  0
 22 23  1  0  0  0  0
 22 43  1  0  0  0  0
 23 24  2  0  0  0  0
 23 44  1  0  0  0  0
 24 45  1  0  0  0  0
M  END
> <s_m_source_file>
AV-unprocessed.smi

> <i_m_source_file_index>
447

> <i_lp_mmshare_version>
43012

> <i_f3d_flags>
0

> <s_epik_input>
W0NIM11DKD1PKVtOSF1bQ0BIXShbQ0gzXSljKG4xKW4oYyhjMTIpW2NIXVtjSF1bY0hdW2NIXTIpW0NIMl1bQ0BIXShbT0hdKWMzW2NIXVtjSF1bY0hdW2NIXVtjSF0z

> <s_epik_cmdline>
J2VwaWtfcHl0aG9uJywgJy1waCcsICc3LjAnLCAnLXRuJywgJzgnLCAnLW1hJywgJzIwMCcsICctbWV0YWxfYmluZGluZycsICctaW1hZScsICc8aW5maWxlLm1hZT4nLCAnLW9tYWUnLCAnPG91dGZpbGUubWFlPic=

> <r_epik_Ionization_Penalty>
0.13301

> <r_epik_Ionization_Penalty_Charging>
0

> <r_epik_Ionization_Penalty_Neutral>
0.13301

> <r_epik_State_Penalty>
0.122384

> <r_epik_Charging_Adjusted_Penalty>
0.122384

> <i_epik_Tot_Q>
0

> <i_epik_Tot_abs_Q>
0

> <r_epik_Metal_State_Penalty>
0.0997374

> <b_epik_Metal_Only>
0

> <s_lp_Force_Field>
OPLS_2005

> <r_lp_Energy>
6.90784

> <b_lp_Chiralities_Consistent>
1

> <s_lp_Variant>
AV-unprocessed.smi:447-2

> <Gold.Version>
5.8.1

> <Gold.Id.Protein>
6NUR|6NUR_protein|mol2

> <Gold.PLP.Fitness>
45.7089

> <Gold.PLP.PLP>
-44.6003

> <Gold.PLP.part.hbond>
-1.0000

> <Gold.PLP.part.metal>
0.0000

> <Gold.PLP.part.buried>
-3.1051

> <Gold.PLP.part.nonpolar>
-39.9732

> <Gold.PLP.part.repulsive>
0.3673

> <Gold.PLP.ligand.clash>
0.0000

> <Gold.PLP.ligand.torsion>
0.9769

> <Gold.PLP.Chemscore.Hbond>
1.0000

> <Gold.PLP.Chemscore.CHOScore>
0.0000

> <Gold.PLP.Chemscore.Metal>
0.0000

> <Gold.Chemscore.Hbonds>
donor molecule, donor type, donor heavy atom, donor atom, acceptor molecule, acceptor atom, score
      L1  H     4    28       P1  8029  1.00

> <Gold.PLP.Chemscore.Internal.Correction>
0.0624

> <Gold.Rescore>
     Score         DG    S(hbond)    S(metal)    S(lipo)     H(rot)  DE(clash)    DE(int)     intcor
     10.27     -16.34       0.76        0.00     122.49       2.35       2.02       4.05       ----

> <Gold.Chemscore.Fitness>
10.2691

> <Gold.Chemscore.DG>
-16.3379

> <Gold.Chemscore.ZeroCoef>
-5.4800

> <Gold.Chemscore.Hbond>
0.7636

> <Gold.Chemscore.Metal>
0.0000

> <Gold.Chemscore.Lipo>
122.4852

> <Gold.Chemscore.Internal_Hbond>
0.0000

> <Gold.Chemscore.DEClash>
2.0193

> <Gold.Chemscore.DEInternal>
4.0495

> <Gold.Chemscore.Rot>
2.3528

> <Gold.Chemscore.Internal.Correction>
   9.000000E+99

> <Gold.Chemscore.Hbonds>
donor molecule, donor type, donor heavy atom, donor atom, acceptor molecule, acceptor atom, score
      L1  H     4    28       P1  8029  0.58

> <Gold.Chemscore.Hbond.Weighted>
-2.5503

> <Gold.Chemscore.Metal.Weighted>
-0.0000

> <Gold.Chemscore.Lipo.Weighted>
-14.3308

> <Gold.Chemscore.Internal_Hbond.Weighted>
0.0000

> <Gold.Chemscore.DEClash.Weighted>
2.0193

> <Gold.Chemscore.DEInternal.Weighted>
4.0495

> <Gold.Chemscore.Rot.Weighted>
6.0231

> <Gold.Chemscore.Internal.Correction.Weighted>
   9.000000E+99

> <Gold.Protein.RotatedTorsions>
[ 6907 6896 6895 6894 ] final  -39.17 input  -60.11 | X-H torsion
[ 7974 7965 7964 7962 ] final  -14.43 input  175.53 | X-H torsion
[ 8008 7997 7996 7995 ] final  176.15 input   59.86 | X-H torsion
[ 10167 10162 10161 10158 ] final  -93.04 input  -65.29 | X-H torsion
[ 10718 10713 10712 10709 ] final   50.47 input   66.30 | X-H torsion
[ 10763 10752 10751 10750 ] final  -54.16 input  -60.55 | X-H torsion
[ 11005 11000 10999 10996 ] final  -18.41 input  -57.11 | X-H torsion

> <Gold.Protein.ActiveResidues>
 VAL166  LYS551  ARG553  GLY616  TRP617  ASP618  TYR619  PRO620  LYS621  CYS622 
 ASP623  PHE694  ASN695  SER759  ASP760  ASP761  ALA762  ILE779  LEU786  VAL792 
 PHE793  MET794  SER795  GLU796  ALA797  LYS798  CYS799  TRP800  GLU811  SER814 

> <Gold.Protein.RotatedAtoms>
  150.9935  134.9264  159.7913 H   0  0  0  0  0  0  0  0  0  0  0  0  # atno 6907 bound_to 6896
  152.5258  134.3249  159.9172 H   0  0  0  0  0  0  0  0  0  0  0  0  # atno 6908 bound_to 6896
  151.3255  133.3981  159.2692 H   0  0  0  0  0  0  0  0  0  0  0  0  # atno 6909 bound_to 6896
  146.2074  140.3347  142.8402 H   0  0  0  0  0  0  0  0  0  0  0  0  # atno 7974 bound_to 7965
  156.0795  140.1391  156.9730 H   0  0  0  0  0  0  0  0  0  0  0  0  # atno 8008 bound_to 7997
  154.4577  140.0955  156.6853 H   0  0  0  0  0  0  0  0  0  0  0  0  # atno 8009 bound_to 7997
  155.5099  140.3453  155.4388 H   0  0  0  0  0  0  0  0  0  0  0  0  # atno 8010 bound_to 7997
  140.3287  143.3007  151.9966 H   0  0  0  0  0  0  0  0  0  0  0  0  # atno 10167 bound_to 10162
  157.4888  130.8362  149.8178 H   0  0  0  0  0  0  0  0  0  0  0  0  # atno 10718 bound_to 10713
  154.1704  135.6460  153.5008 H   0  0  0  0  0  0  0  0  0  0  0  0  # atno 10763 bound_to 10752
  153.0086  135.5382  154.6619 H   0  0  0  0  0  0  0  0  0  0  0  0  # atno 10764 bound_to 10752
  154.5956  135.2938  155.0561 H   0  0  0  0  0  0  0  0  0  0  0  0  # atno 10765 bound_to 10752
  140.8265  133.8029  155.9714 H   0  0  0  0  0  0  0  0  0  0  0  0  # atno 11005 bound_to 11000
  144.8828  140.7422  143.5976 LP  0  0  0  0  0  0  0  0  0  0  0  0  # atno 17320 bound_to 7965
  145.3267  139.1772  143.4558 LP  0  0  0  0  0  0  0  0  0  0  0  0  # atno 17321 bound_to 7965
  139.4860  144.6253  151.7177 LP  0  0  0  0  0  0  0  0  0  0  0  0  # atno 17342 bound_to 10162
  140.5417  144.0568  150.6091 LP  0  0  0  0  0  0  0  0  0  0  0  0  # atno 17343 bound_to 10162
  156.0162  130.3813  150.2105 LP  0  0  0  0  0  0  0  0  0  0  0  0  # atno 17370 bound_to 10713
  157.0293  131.0002  151.3317 LP  0  0  0  0  0  0  0  0  0  0  0  0  # atno 17371 bound_to 10713
  140.9043  134.2339  157.5023 LP  0  0  0  0  0  0  0  0  0  0  0  0  # atno 17394 bound_to 11000
  139.8706  134.9721  156.4761 LP  0  0  0  0  0  0  0  0  0  0  0  0  # atno 17395 bound_to 11000

$$$$
