AV-unprocessed.smi:261|AV-procd|sdf|1989|dock2
  -GOLD-   2262021173D 1   1.00000     0.00000
 Structure written by MMmdl.
 51 54  0  0  0  0  0  0  0  0  1 V2000
  153.1612  141.3857  159.0259 C   0  0  0  0  0  0  0  0  0  0  0  0
  152.7658  140.3362  158.1581 O   0  0  0  0  0  0  0  0  0  0  0  0
  151.7590  140.7159  157.2311 C   0  0  1  0  0  0  0  0  0  0  0  0
  151.0102  139.5250  156.6259 C   0  0  0  0  0  0  0  0  0  0  0  0
  149.6453  140.1012  156.2113 C   0  0  2  0  0  0  0  0  0  0  0  0
  149.6687  140.6238  154.7632 C   0  0  0  0  0  0  0  0  0  0  0  0
  149.8358  139.7138  153.8007 N   0  0  0  0  0  0  0  0  0  0  0  0
  149.5503  141.8227  154.5136 O   0  0  0  0  0  0  0  0  0  0  0  0
  149.4270  141.1755  157.1806 N   0  0  0  0  0  0  0  0  0  0  0  0
  148.2140  141.7000  157.5121 C   0  0  0  0  0  0  0  0  0  0  0  0
  148.0821  142.2563  158.7459 N   0  0  0  0  0  0  0  0  0  0  0  0
  146.9224  142.7891  159.1378 C   0  0  0  0  0  0  0  0  0  0  0  0
  145.7757  142.8740  158.4644 N   0  0  0  0  0  0  0  0  0  0  0  0
  145.8914  142.3206  157.2242 C   0  0  0  0  0  0  0  0  0  0  0  0
  147.0592  141.7172  156.6697 C   0  0  0  0  0  0  0  0  0  0  0  0
  146.7758  141.2715  155.3819 N   0  0  0  0  0  0  0  0  0  0  0  0
  145.5269  141.5923  155.1882 C   0  0  0  0  0  0  0  0  0  0  0  0
  144.9172  142.2221  156.2465 N   0  0  0  0  0  0  0  0  0  0  0  0
  143.5403  142.6818  156.3043 C   0  0  0  0  0  0  0  0  0  0  0  0
  143.3244  143.9973  155.5302 C   0  0  1  0  0  0  0  0  0  0  0  0
  142.1800  143.8798  154.7050 O   0  0  0  0  0  0  0  0  0  0  0  0
  143.1760  145.2069  156.4760 C   0  0  2  0  0  0  0  0  0  0  0  0
  142.7758  146.5470  155.8311 C   0  0  0  0  0  0  0  0  0  0  0  0
  143.9008  147.4871  156.2273 C   0  0  0  0  0  0  0  0  0  0  0  0
  144.4722  146.8228  157.4733 C   0  0  0  0  0  0  0  0  0  0  0  0
  144.4044  145.4424  157.1562 O   0  0  0  0  0  0  0  0  0  0  0  0
  150.6394  141.4848  157.9325 C   0  0  0  0  0  0  0  0  0  0  0  0
  152.1762  141.3396  156.4380 H   0  0  0  0  0  0  0  0  0  0  0  0
  148.8899  139.3217  156.3150 H   0  0  0  0  0  0  0  0  0  0  0  0
  153.9165  141.0178  159.7200 H   0  0  0  0  0  0  0  0  0  0  0  0
  152.3175  141.7517  159.6122 H   0  0  0  0  0  0  0  0  0  0  0  0
  153.5945  142.2211  158.4753 H   0  0  0  0  0  0  0  0  0  0  0  0
  151.5542  139.0603  155.8023 H   0  0  0  0  0  0  0  0  0  0  0  0
  150.8613  138.7595  157.3891 H   0  0  0  0  0  0  0  0  0  0  0  0
  149.8661  140.0024  152.8338 H   0  0  0  0  0  0  0  0  0  0  0  0
  149.9386  138.7398  154.0457 H   0  0  0  0  0  0  0  0  0  0  0  0
  146.9125  143.2070  160.1336 H   0  0  0  0  0  0  0  0  0  0  0  0
  145.0114  141.3730  154.2645 H   0  0  0  0  0  0  0  0  0  0  0  0
  142.8903  141.8974  155.9149 H   0  0  0  0  0  0  0  0  0  0  0  0
  143.2724  142.8133  157.3530 H   0  0  0  0  0  0  0  0  0  0  0  0
  144.1868  144.1635  154.8834 H   0  0  0  0  0  0  0  0  0  0  0  0
  142.4671  143.8066  153.8075 H   0  0  0  0  0  0  0  0  0  0  0  0
  142.4447  144.9629  157.2486 H   0  0  0  0  0  0  0  0  0  0  0  0
  142.6533  146.4986  154.7485 H   0  0  0  0  0  0  0  0  0  0  0  0
  141.8291  146.8907  156.2498 H   0  0  0  0  0  0  0  0  0  0  0  0
  144.6585  147.5089  155.4428 H   0  0  0  0  0  0  0  0  0  0  0  0
  143.5642  148.5090  156.4043 H   0  0  0  0  0  0  0  0  0  0  0  0
  145.4932  147.1377  157.6900 H   0  0  0  0  0  0  0  0  0  0  0  0
  143.8517  147.0298  158.3468 H   0  0  0  0  0  0  0  0  0  0  0  0
  150.5169  141.1368  158.9595 H   0  0  0  0  0  0  0  0  0  0  0  0
  150.8496  142.5548  157.9542 H   0  0  0  0  0  0  0  0  0  0  0  0
  1  2  1  0  0  0  0
  1 30  1  0  0  0  0
  1 31  1  0  0  0  0
  1 32  1  0  0  0  0
  2  3  1  0  0  0  0
  3 28  1  0  0  0  0
  3 27  1  0  0  0  0
  3  4  1  0  0  0  0
  4  5  1  0  0  0  0
  4 33  1  0  0  0  0
  4 34  1  0  0  0  0
  5 29  1  0  0  0  0
  5  6  1  0  0  0  0
  5  9  1  0  0  0  0
  6  7  1  0  0  0  0
  6  8  2  0  0  0  0
  7 35  1  0  0  0  0
  7 36  1  0  0  0  0
  9 10  1  0  0  0  0
  9 27  1  0  0  0  0
 10 15  1  0  0  0  0
 10 11  2  0  0  0  0
 11 12  1  0  0  0  0
 12 13  2  0  0  0  0
 12 37  1  0  0  0  0
 13 14  1  0  0  0  0
 14 18  1  0  0  0  0
 14 15  2  0  0  0  0
 15 16  1  0  0  0  0
 16 17  2  0  0  0  0
 17 18  1  0  0  0  0
 17 38  1  0  0  0  0
 18 19  1  0  0  0  0
 19 20  1  0  0  0  0
 19 39  1  0  0  0  0
 19 40  1  0  0  0  0
 20 21  1  0  0  0  0
 20 22  1  0  0  0  0
 20 41  1  0  0  0  0
 21 42  1  0  0  0  0
 22 26  1  0  0  0  0
 22 23  1  0  0  0  0
 22 43  1  0  0  0  0
 23 24  1  0  0  0  0
 23 44  1  0  0  0  0
 23 45  1  0  0  0  0
 24 25  1  0  0  0  0
 24 46  1  0  0  0  0
 24 47  1  0  0  0  0
 25 26  1  0  0  0  0
 25 48  1  0  0  0  0
 25 49  1  0  0  0  0
 27 50  1  0  0  0  0
 27 51  1  0  0  0  0
M  END
> <s_m_source_file>
AV-unprocessed.smi

> <i_m_source_file_index>
261

> <i_lp_mmshare_version>
43012

> <i_f3d_flags>
0

> <s_epik_input>
W0NIM11PW0NASF0xW0NIMl1bQ0BASF0oQyg9TylbTkgyXSlOKFtDSDJdMSljKG5bY0hdbjIpYyhjMjMpbltjSF1uM1tDSDJdW0NASF0oW09IXSlbQ0BASF00W0NIMl1bQ0gyXVtDSDJdTzQ=

> <s_epik_cmdline>
J2VwaWtfcHl0aG9uJywgJy1waCcsICc3LjAnLCAnLXRuJywgJzgnLCAnLW1hJywgJzIwMCcsICctbWV0YWxfYmluZGluZycsICctaW1hZScsICc8aW5maWxlLm1hZT4nLCAnLW9tYWUnLCAnPG91dGZpbGUubWFlPic=

> <r_lp_tautomer_probability>
1

> <r_epik_Ionization_Penalty>
0.000713824

> <r_epik_Ionization_Penalty_Charging>
0

> <r_epik_Ionization_Penalty_Neutral>
0.000713824

> <r_epik_State_Penalty>
0.000402132

> <r_epik_Charging_Adjusted_Penalty>
0.000402132

> <i_epik_Tot_Q>
0

> <i_epik_Tot_abs_Q>
0

> <r_epik_Metal_State_Penalty>
-0

> <b_epik_Metal_Only>
0

> <s_lp_Force_Field>
OPLS_2005

> <r_lp_Energy>
44.9421

> <b_lp_Chiralities_Consistent>
1

> <s_lp_Variant>
AV-unprocessed.smi:261-7

> <Gold.Version>
5.8.1

> <Gold.Id.Protein>
6NUR|6NUR_protein|mol2

> <Gold.PLP.Fitness>
41.4037

> <Gold.PLP.PLP>
-31.9853

> <Gold.PLP.part.hbond>
-5.0361

> <Gold.PLP.part.metal>
0.0000

> <Gold.PLP.part.buried>
-3.6550

> <Gold.PLP.part.nonpolar>
-22.8476

> <Gold.PLP.part.repulsive>
0.9225

> <Gold.PLP.ligand.clash>
0.0000

> <Gold.PLP.ligand.torsion>
1.3412

> <Gold.PLP.Chemscore.Hbond>
2.9607

> <Gold.PLP.Chemscore.CHOScore>
1.0000

> <Gold.PLP.Chemscore.Metal>
0.0000

> <Gold.Chemscore.Hbonds>
donor molecule, donor type, donor heavy atom, donor atom, acceptor molecule, acceptor atom, score
      L1  H     7    35       P1  7957  1.00
      L1  H    21    42       P1 10174  0.67
      P1  H  7997  8008       L1     2  0.64
      P1  H  8011  8017       L1     8  0.17
      L1  C    17    38       P1 10175  1.00

> <Gold.PLP.Chemscore.Internal.Correction>
0.2188

> <Gold.Rescore>
     Score         DG    S(hbond)    S(metal)    S(lipo)     H(rot)  DE(clash)    DE(int)     intcor
      9.34     -12.45       2.48        0.00      58.51       3.18       0.13       2.98       ----

> <Gold.Chemscore.Fitness>
9.3445

> <Gold.Chemscore.DG>
-12.4528

> <Gold.Chemscore.ZeroCoef>
-5.4800

> <Gold.Chemscore.Hbond>
2.4778

> <Gold.Chemscore.Metal>
0.0000

> <Gold.Chemscore.Lipo>
58.5107

> <Gold.Chemscore.Internal_Hbond>
0.0000

> <Gold.Chemscore.DEClash>
0.1267

> <Gold.Chemscore.DEInternal>
2.9816

> <Gold.Chemscore.Rot>
3.1831

> <Gold.Chemscore.Internal.Correction>
   9.000000E+99

> <Gold.Chemscore.Hbonds>
donor molecule, donor type, donor heavy atom, donor atom, acceptor molecule, acceptor atom, score
      L1  H     7    35       P1  7957  1.00
      L1  H    21    42       P1 10174  0.66
      P1  H  7997  8008       L1     2  0.11
      P1  H  8011  8017       L1     8  0.16

> <Gold.Chemscore.Hbond.Weighted>
-8.2757

> <Gold.Chemscore.Metal.Weighted>
-0.0000

> <Gold.Chemscore.Lipo.Weighted>
-6.8458

> <Gold.Chemscore.Internal_Hbond.Weighted>
0.0000

> <Gold.Chemscore.DEClash.Weighted>
0.1267

> <Gold.Chemscore.DEInternal.Weighted>
2.9816

> <Gold.Chemscore.Rot.Weighted>
8.1486

> <Gold.Chemscore.Internal.Correction.Weighted>
   9.000000E+99

> <Gold.Protein.RotatedTorsions>
[ 6907 6896 6895 6894 ] final   25.87 input  -60.11 | X-H torsion
[ 7974 7965 7964 7962 ] final   87.32 input  175.53 | X-H torsion
[ 8008 7997 7996 7995 ] final  -80.75 input   59.86 | X-H torsion
[ 10167 10162 10161 10158 ] final -116.56 input  -65.29 | X-H torsion
[ 10718 10713 10712 10709 ] final  161.59 input   66.30 | X-H torsion
[ 10763 10752 10751 10750 ] final  -53.51 input  -60.55 | X-H torsion
[ 11005 11000 10999 10996 ] final  -48.05 input  -57.11 | X-H torsion

> <Gold.Protein.ActiveResidues>
 VAL166  LYS551  ARG553  GLY616  TRP617  ASP618  TYR619  PRO620  LYS621  CYS622 
 ASP623  PHE694  ASN695  SER759  ASP760  ASP761  ALA762  ILE779  LEU786  VAL792 
 PHE793  MET794  SER795  GLU796  ALA797  LYS798  CYS799  TRP800  GLU811  SER814 

> <Gold.Protein.RotatedAtoms>
  151.9790  135.0038  160.0556 H   0  0  0  0  0  0  0  0  0  0  0  0  # atno 6907 bound_to 6896
  152.1713  133.4641  159.4919 H   0  0  0  0  0  0  0  0  0  0  0  0  # atno 6908 bound_to 6896
  150.6902  134.1866  159.4312 H   0  0  0  0  0  0  0  0  0  0  0  0  # atno 6909 bound_to 6896
  145.5606  139.2303  143.2462 H   0  0  0  0  0  0  0  0  0  0  0  0  # atno 7974 bound_to 7965
  154.5914  140.0658  156.9243 H   0  0  0  0  0  0  0  0  0  0  0  0  # atno 8008 bound_to 7997
  155.2289  140.3336  155.4287 H   0  0  0  0  0  0  0  0  0  0  0  0  # atno 8009 bound_to 7997
  156.2258  140.1818  156.7350 H   0  0  0  0  0  0  0  0  0  0  0  0  # atno 8010 bound_to 7997
  140.0779  143.4815  152.1942 H   0  0  0  0  0  0  0  0  0  0  0  0  # atno 10167 bound_to 10162
  157.1344  131.0525  151.2356 H   0  0  0  0  0  0  0  0  0  0  0  0  # atno 10718 bound_to 10713
  154.1601  135.6476  153.4984 H   0  0  0  0  0  0  0  0  0  0  0  0  # atno 10763 bound_to 10752
  153.0113  135.5358  154.6720 H   0  0  0  0  0  0  0  0  0  0  0  0  # atno 10764 bound_to 10752
  154.6031  135.2946  155.0485 H   0  0  0  0  0  0  0  0  0  0  0  0  # atno 10765 bound_to 10752
  141.0677  133.6688  156.3385 H   0  0  0  0  0  0  0  0  0  0  0  0  # atno 11005 bound_to 11000
  146.1854  140.6430  142.9170 LP  0  0  0  0  0  0  0  0  0  0  0  0  # atno 17320 bound_to 7965
  144.7485  140.5130  143.6819 LP  0  0  0  0  0  0  0  0  0  0  0  0  # atno 17321 bound_to 7965
  139.5797  144.7504  151.3672 LP  0  0  0  0  0  0  0  0  0  0  0  0  # atno 17342 bound_to 10162
  140.7093  143.7433  150.7537 LP  0  0  0  0  0  0  0  0  0  0  0  0  # atno 17343 bound_to 10162
  157.4363  130.7519  149.7032 LP  0  0  0  0  0  0  0  0  0  0  0  0  # atno 17370 bound_to 10713
  155.9801  130.4033  150.3547 LP  0  0  0  0  0  0  0  0  0  0  0  0  # atno 17371 bound_to 10713
  140.5738  134.5814  157.5464 LP  0  0  0  0  0  0  0  0  0  0  0  0  # atno 17394 bound_to 11000
  139.9493  134.7646  156.0487 LP  0  0  0  0  0  0  0  0  0  0  0  0  # atno 17395 bound_to 11000

$$$$
