AV-unprocessed.smi:598|AV-procd|sdf|3026|dock1
  -GOLD-   2262023533D 1   1.00000     0.00000
 Structure written by MMmdl.
 43 44  0  0  0  0  0  0  0  0  3 V2000
  151.6524  145.6026  160.4903 C   0  0  0  0  0  0  0  0  0  0  0  0
  152.4194  144.2863  160.2662 C   0  0  1  0  0  0  0  0  0  0  0  0
  152.6583  143.5939  161.6228 C   0  0  0  0  0  0  0  0  0  0  0  0
  153.4491  142.2909  161.4666 C   0  0  0  0  0  0  0  0  0  0  0  0
  152.7270  141.3340  160.5141 C   0  0  0  0  0  0  0  0  0  0  0  0
  152.4841  141.9869  159.1396 C   0  0  1  0  0  0  0  0  0  0  0  0
  151.7551  141.0508  158.2854 N   0  0  0  0  0  0  0  0  0  0  0  0
  152.2641  139.9360  157.7391 C   0  0  0  0  0  0  0  0  0  0  0  0
  153.4254  139.5656  157.9180 O   0  0  0  0  0  0  0  0  0  0  0  0
  151.2978  139.1112  156.8773 C   0  0  0  0  0  0  0  0  0  0  0  0
  150.2110  139.9137  156.2913 N   0  0  0  0  0  0  0  0  0  0  0  0
  149.1166  140.2152  157.1259 C   0  0  0  0  0  0  0  0  0  0  0  0
  148.0631  140.9351  156.6931 C   0  0  0  0  0  0  0  0  0  0  0  0
  146.9440  141.2280  157.5615 N   0  3  0  0  0  0  0  0  0  0  0  0
  146.9445  140.7666  158.6983 O   0  0  0  0  0  0  0  0  0  0  0  0
  146.0289  141.9276  157.1378 O   0  5  0  0  0  0  0  0  0  0  0  0
  148.0850  141.4036  155.3209 C   0  0  0  0  0  0  0  0  0  0  0  0
  149.1264  141.1145  154.5161 C   0  0  0  0  0  0  0  0  0  0  0  0
  150.2691  140.3251  154.9875 C   0  0  0  0  0  0  0  0  0  0  0  0
  151.2200  140.0508  154.2550 O   0  0  0  0  0  0  0  0  0  0  0  0
  151.7126  143.3292  159.2639 C   0  0  2  0  0  0  0  0  0  0  0  0
  151.5169  143.9857  157.8793 C   0  0  0  0  0  0  0  0  0  0  0  0
  150.6299  145.4151  160.8191 H   0  0  0  0  0  0  0  0  0  0  0  0
  151.6106  146.2093  159.5864 H   0  0  0  0  0  0  0  0  0  0  0  0
  152.1376  146.2122  161.2531 H   0  0  0  0  0  0  0  0  0  0  0  0
  153.3961  144.5438  159.8540 H   0  0  0  0  0  0  0  0  0  0  0  0
  153.1992  144.2626  162.2934 H   0  0  0  0  0  0  0  0  0  0  0  0
  151.7027  143.3830  162.1046 H   0  0  0  0  0  0  0  0  0  0  0  0
  154.4486  142.5068  161.0870 H   0  0  0  0  0  0  0  0  0  0  0  0
  153.5813  141.8177  162.4399 H   0  0  0  0  0  0  0  0  0  0  0  0
  153.3168  140.4234  160.4003 H   0  0  0  0  0  0  0  0  0  0  0  0
  151.7759  141.0322  160.9552 H   0  0  0  0  0  0  0  0  0  0  0  0
  153.4535  142.2019  158.6851 H   0  0  0  0  0  0  0  0  0  0  0  0
  150.7902  141.2748  158.0892 H   0  0  0  0  0  0  0  0  0  0  0  0
  151.8764  138.6220  156.0923 H   0  0  0  0  0  0  0  0  0  0  0  0
  150.8855  138.2966  157.4757 H   0  0  0  0  0  0  0  0  0  0  0  0
  149.1929  139.8144  158.1265 H   0  0  0  0  0  0  0  0  0  0  0  0
  147.2661  141.9884  154.9283 H   0  0  0  0  0  0  0  0  0  0  0  0
  149.1208  141.4722  153.4968 H   0  0  0  0  0  0  0  0  0  0  0  0
  150.7215  143.1061  159.6627 H   0  0  0  0  0  0  0  0  0  0  0  0
  152.4720  144.2847  157.4464 H   0  0  0  0  0  0  0  0  0  0  0  0
  150.8832  144.8697  157.9356 H   0  0  0  0  0  0  0  0  0  0  0  0
  151.0330  143.3114  157.1728 H   0  0  0  0  0  0  0  0  0  0  0  0
  1  2  1  0  0  0  0
  1 23  1  0  0  0  0
  1 24  1  0  0  0  0
  1 25  1  0  0  0  0
  2 21  1  0  0  0  0
  2  3  1  0  0  0  0
  2 26  1  0  0  0  0
  3  4  1  0  0  0  0
  3 27  1  0  0  0  0
  3 28  1  0  0  0  0
  4  5  1  0  0  0  0
  4 29  1  0  0  0  0
  4 30  1  0  0  0  0
  5  6  1  0  0  0  0
  5 31  1  0  0  0  0
  5 32  1  0  0  0  0
  6  7  1  0  0  0  0
  6 21  1  0  0  0  0
  6 33  1  0  0  0  0
  7  8  1  0  0  0  0
  7 34  1  0  0  0  0
  8  9  2  0  0  0  0
  8 10  1  0  0  0  0
 10 11  1  0  0  0  0
 10 35  1  0  0  0  0
 10 36  1  0  0  0  0
 11 19  1  0  0  0  0
 11 12  1  0  0  0  0
 12 13  2  0  0  0  0
 12 37  1  0  0  0  0
 13 14  1  0  0  0  0
 13 17  1  0  0  0  0
 14 15  2  0  0  0  0
 14 16  1  0  0  0  0
 17 18  2  0  0  0  0
 17 38  1  0  0  0  0
 18 19  1  0  0  0  0
 18 39  1  0  0  0  0
 19 20  2  0  0  0  0
 21 22  1  0  0  0  0
 21 40  1  0  0  0  0
 22 41  1  0  0  0  0
 22 42  1  0  0  0  0
 22 43  1  0  0  0  0
M  CHG  1  14   1
M  CHG  1  16  -1
M  END
> <s_m_source_file>
AV-unprocessed.smi

> <i_m_source_file_index>
598

> <i_lp_mmshare_version>
43012

> <i_f3d_flags>
0

> <s_epik_input>
W0NIM11bQ0BASF0xW0NIMl1bQ0gyXVtDSDJdW0NASF0oW0NASF0xW0NIM10pW05IXUMoPU8pW0NIMl1uMltjSF1jKFtOK10oPU8pW08tXSlbY0hdW2NIXWMyPU8=

> <s_epik_cmdline>
J2VwaWtfcHl0aG9uJywgJy1waCcsICc3LjAnLCAnLXRuJywgJzgnLCAnLW1hJywgJzIwMCcsICctbWV0YWxfYmluZGluZycsICctaW1hZScsICc8aW5maWxlLm1hZT4nLCAnLW9tYWUnLCAnPG91dGZpbGUubWFlPic=

> <r_lp_tautomer_probability>
1

> <r_epik_Ionization_Penalty>
1.91291e-08

> <r_epik_Ionization_Penalty_Charging>
8.21931e-11

> <r_epik_Ionization_Penalty_Neutral>
1.90469e-08

> <r_epik_State_Penalty>
-0

> <r_epik_Charging_Adjusted_Penalty>
8.21931e-11

> <i_epik_Tot_Q>
0

> <i_epik_Tot_abs_Q>
2

> <r_epik_Metal_State_Penalty>
-0

> <b_epik_Metal_Only>
0

> <s_lp_Force_Field>
OPLS_2005

> <r_lp_Energy>
23.592

> <b_lp_Chiralities_Consistent>
1

> <s_lp_Variant>
AV-unprocessed.smi:598-6

> <Gold.Version>
5.8.1

> <Gold.Id.Protein>
6NUR|6NUR_protein|mol2

> <Gold.PLP.Fitness>
47.3184

> <Gold.PLP.PLP>
-41.8297

> <Gold.PLP.part.hbond>
-3.0000

> <Gold.PLP.part.metal>
0.0000

> <Gold.PLP.part.buried>
-5.7277

> <Gold.PLP.part.nonpolar>
-33.5624

> <Gold.PLP.part.repulsive>
0.3256

> <Gold.PLP.ligand.clash>
0.0000

> <Gold.PLP.ligand.torsion>
0.7965

> <Gold.PLP.Chemscore.Hbond>
2.3567

> <Gold.PLP.Chemscore.CHOScore>
0.0000

> <Gold.PLP.Chemscore.Metal>
0.0000

> <Gold.Chemscore.Hbonds>
donor molecule, donor type, donor heavy atom, donor atom, acceptor molecule, acceptor atom, score
      P1  H  6934  6946       L1    15  0.16
      P1  H  7989  7998       L1    20  0.15
      P1  H  7997  8010       L1     9  1.00

> <Gold.PLP.Chemscore.Internal.Correction>
0.0114

> <Gold.Rescore>
     Score         DG    S(hbond)    S(metal)    S(lipo)     H(rot)  DE(clash)    DE(int)     intcor
     20.30     -21.32       2.23        0.00     105.53       1.54       0.11       0.91       ----

> <Gold.Chemscore.Fitness>
20.2998

> <Gold.Chemscore.DG>
-21.3235

> <Gold.Chemscore.ZeroCoef>
-5.4800

> <Gold.Chemscore.Hbond>
2.2268

> <Gold.Chemscore.Metal>
0.0000

> <Gold.Chemscore.Lipo>
105.5258

> <Gold.Chemscore.Internal_Hbond>
0.0000

> <Gold.Chemscore.DEClash>
0.1130

> <Gold.Chemscore.DEInternal>
0.9107

> <Gold.Chemscore.Rot>
1.5393

> <Gold.Chemscore.Internal.Correction>
   9.000000E+99

> <Gold.Chemscore.Hbonds>
donor molecule, donor type, donor heavy atom, donor atom, acceptor molecule, acceptor atom, score
      P1  H  6934  6946       L1    15  0.16
      P1  H  7989  7998       L1    20  0.16
      P1  H  7997  8010       L1     9  0.91

> <Gold.Chemscore.Hbond.Weighted>
-7.4377

> <Gold.Chemscore.Metal.Weighted>
-0.0000

> <Gold.Chemscore.Lipo.Weighted>
-12.3465

> <Gold.Chemscore.Internal_Hbond.Weighted>
0.0000

> <Gold.Chemscore.DEClash.Weighted>
0.1130

> <Gold.Chemscore.DEInternal.Weighted>
0.9107

> <Gold.Chemscore.Rot.Weighted>
3.9407

> <Gold.Chemscore.Internal.Correction.Weighted>
   9.000000E+99

> <Gold.Protein.RotatedTorsions>
[ 6907 6896 6895 6894 ] final   46.62 input  -60.11 | X-H torsion
[ 7974 7965 7964 7962 ] final -106.17 input  175.53 | X-H torsion
[ 8008 7997 7996 7995 ] final   43.20 input   59.86 | X-H torsion
[ 10167 10162 10161 10158 ] final  114.14 input  -65.29 | X-H torsion
[ 10718 10713 10712 10709 ] final  -49.45 input   66.30 | X-H torsion
[ 10763 10752 10751 10750 ] final  -86.36 input  -60.55 | X-H torsion
[ 11005 11000 10999 10996 ] final   87.48 input  -57.11 | X-H torsion

> <Gold.Protein.ActiveResidues>
 VAL166  LYS551  ARG553  GLY616  TRP617  ASP618  TYR619  PRO620  LYS621  CYS622 
 ASP623  PHE694  ASN695  SER759  ASP760  ASP761  ALA762  ILE779  LEU786  VAL792 
 PHE793  MET794  SER795  GLU796  ALA797  LYS798  CYS799  TRP800  GLU811  SER814 

> <Gold.Protein.RotatedAtoms>
  152.2585  134.8059  160.0434 H   0  0  0  0  0  0  0  0  0  0  0  0  # atno 6907 bound_to 6896
  151.8714  133.3471  159.3744 H   0  0  0  0  0  0  0  0  0  0  0  0  # atno 6908 bound_to 6896
  150.7108  134.5036  159.5617 H   0  0  0  0  0  0  0  0  0  0  0  0  # atno 6909 bound_to 6896
  145.2212  140.9135  143.3258 H   0  0  0  0  0  0  0  0  0  0  0  0  # atno 7974 bound_to 7965
  155.2987  140.3383  155.4248 H   0  0  0  0  0  0  0  0  0  0  0  0  # atno 8008 bound_to 7997
  156.2011  140.1733  156.7935 H   0  0  0  0  0  0  0  0  0  0  0  0  # atno 8009 bound_to 7997
  154.5561  140.0696  156.8729 H   0  0  0  0  0  0  0  0  0  0  0  0  # atno 8010 bound_to 7997
  139.6410  144.7124  151.2236 H   0  0  0  0  0  0  0  0  0  0  0  0  # atno 10167 bound_to 10162
  156.1892  130.4152  149.9396 H   0  0  0  0  0  0  0  0  0  0  0  0  # atno 10718 bound_to 10713
  154.6216  135.5452  153.7581 H   0  0  0  0  0  0  0  0  0  0  0  0  # atno 10763 bound_to 10752
  153.0241  135.6414  154.1432 H   0  0  0  0  0  0  0  0  0  0  0  0  # atno 10764 bound_to 10752
  154.1366  135.2911  155.3151 H   0  0  0  0  0  0  0  0  0  0  0  0  # atno 10765 bound_to 10752
  139.8918  134.8425  156.2866 H   0  0  0  0  0  0  0  0  0  0  0  0  # atno 11005 bound_to 11000
  144.9763  139.3828  143.6284 LP  0  0  0  0  0  0  0  0  0  0  0  0  # atno 17320 bound_to 7965
  146.3375  139.8884  142.8813 LP  0  0  0  0  0  0  0  0  0  0  0  0  # atno 17321 bound_to 7965
  140.7491  143.6311  150.8422 LP  0  0  0  0  0  0  0  0  0  0  0  0  # atno 17342 bound_to 10162
  139.9949  143.5807  152.2897 LP  0  0  0  0  0  0  0  0  0  0  0  0  # atno 17343 bound_to 10162
  156.7142  130.8982  151.3612 LP  0  0  0  0  0  0  0  0  0  0  0  0  # atno 17370 bound_to 10713
  157.6918  130.9241  150.0535 LP  0  0  0  0  0  0  0  0  0  0  0  0  # atno 17371 bound_to 10713
  141.0004  133.7155  156.0951 LP  0  0  0  0  0  0  0  0  0  0  0  0  # atno 17394 bound_to 11000
  140.7505  134.4050  157.5542 LP  0  0  0  0  0  0  0  0  0  0  0  0  # atno 17395 bound_to 11000

$$$$
