AV-unprocessed.smi:557|AV-procd|sdf|2916|dock2
  -GOLD-   2262023403D 1   1.00000     0.00000
 Structure written by MMmdl.
 47 49  0  0  0  0  0  0  0  0  2 V2000
  151.5188  138.6915  154.8464 C   0  0  0  0  0  0  0  0  0  0  0  0
  150.3162  139.4632  154.6180 N   0  0  0  0  0  0  0  0  0  0  0  0
  149.1270  139.0544  154.0543 C   0  0  0  0  0  0  0  0  0  0  0  0
  148.2847  140.1305  154.0487 C   0  0  0  0  0  0  0  0  0  0  0  0
  146.8701  140.2137  153.5477 C   0  0  0  0  0  0  0  0  0  0  0  0
  146.7685  139.7824  152.0788 C   0  0  0  0  0  0  0  0  0  0  0  0
  145.9198  138.6013  151.9475 N   0  0  0  0  0  0  0  0  0  0  0  0
  145.9472  137.4934  152.7074 C   0  0  0  0  0  0  0  0  0  0  0  0
  146.7342  137.3626  153.6427 O   0  0  0  0  0  0  0  0  0  0  0  0
  145.0488  136.5559  152.3621 N   0  0  0  0  0  0  0  0  0  0  0  0
  144.8864  135.2717  153.0369 C   0  0  2  0  0  0  0  0  0  0  0  0
  146.2008  134.6683  153.5141 C   0  0  0  0  0  0  0  0  0  0  0  0
  145.8438  133.1940  153.7310 C   0  0  0  0  0  0  0  0  0  0  0  0
  144.7094  132.8879  152.8245 N   0  3  2  0  0  0  0  0  0  0  0  0
  144.9575  131.7401  151.9112 C   0  0  0  0  0  0  0  0  0  0  0  0
  143.9504  131.7314  150.7518 C   0  0  0  0  0  0  0  0  0  0  0  0
  144.0750  133.0010  149.8882 C   0  0  0  0  0  0  0  0  0  0  0  0
  144.6833  134.1849  150.6647 C   0  0  0  0  0  0  0  0  0  0  0  0
  144.2868  134.1546  152.1616 C   0  0  2  0  0  0  0  0  0  0  0  0
  149.0670  141.1655  154.6358 C   0  0  0  0  0  0  0  0  0  0  0  0
  150.2810  140.7636  154.9751 N   0  0  0  0  0  0  0  0  0  0  0  0
  151.3046  137.6275  154.7423 H   0  0  0  0  0  0  0  0  0  0  0  0
  151.8968  138.8784  155.8521 H   0  0  0  0  0  0  0  0  0  0  0  0
  152.2797  138.9741  154.1185 H   0  0  0  0  0  0  0  0  0  0  0  0
  148.9783  138.0420  153.7084 H   0  0  0  0  0  0  0  0  0  0  0  0
  146.2146  139.5867  154.1534 H   0  0  0  0  0  0  0  0  0  0  0  0
  146.4888  141.2301  153.6533 H   0  0  0  0  0  0  0  0  0  0  0  0
  146.3540  140.5957  151.4805 H   0  0  0  0  0  0  0  0  0  0  0  0
  147.7631  139.5618  151.6875 H   0  0  0  0  0  0  0  0  0  0  0  0
  145.2477  138.6203  151.1938 H   0  0  0  0  0  0  0  0  0  0  0  0
  144.4417  136.7447  151.5775 H   0  0  0  0  0  0  0  0  0  0  0  0
  144.2489  135.4112  153.9128 H   0  0  0  0  0  0  0  0  0  0  0  0
  146.9619  134.7541  152.7369 H   0  0  0  0  0  0  0  0  0  0  0  0
  146.5858  135.1457  154.4158 H   0  0  0  0  0  0  0  0  0  0  0  0
  146.7074  132.5461  153.5744 H   0  0  0  0  0  0  0  0  0  0  0  0
  145.5044  133.0386  154.7556 H   0  0  0  0  0  0  0  0  0  0  0  0
  145.9688  131.7939  151.5046 H   0  0  0  0  0  0  0  0  0  0  0  0
  144.8957  130.8130  152.4818 H   0  0  0  0  0  0  0  0  0  0  0  0
  144.0866  130.8446  150.1320 H   0  0  0  0  0  0  0  0  0  0  0  0
  142.9410  131.6650  151.1604 H   0  0  0  0  0  0  0  0  0  0  0  0
  144.6917  132.7987  149.0120 H   0  0  0  0  0  0  0  0  0  0  0  0
  143.0885  133.2694  149.5084 H   0  0  0  0  0  0  0  0  0  0  0  0
  145.7704  134.1510  150.5794 H   0  0  0  0  0  0  0  0  0  0  0  0
  144.3720  135.1161  150.1909 H   0  0  0  0  0  0  0  0  0  0  0  0
  143.1985  134.2150  152.2132 H   0  0  0  0  0  0  0  0  0  0  0  0
  148.7888  142.1918  154.8258 H   0  0  0  0  0  0  0  0  0  0  0  0
  143.9372  132.6214  153.4190 H   0  0  0  0  0  0  0  0  0  0  0  0
  1  2  1  0  0  0  0
  1 22  1  0  0  0  0
  1 23  1  0  0  0  0
  1 24  1  0  0  0  0
  2 21  1  0  0  0  0
  2  3  1  0  0  0  0
  3  4  2  0  0  0  0
  3 25  1  0  0  0  0
  4  5  1  0  0  0  0
  4 20  1  0  0  0  0
  5  6  1  0  0  0  0
  5 26  1  0  0  0  0
  5 27  1  0  0  0  0
  6  7  1  0  0  0  0
  6 28  1  0  0  0  0
  6 29  1  0  0  0  0
  7  8  1  0  0  0  0
  7 30  1  0  0  0  0
  8  9  2  0  0  0  0
  8 10  1  0  0  0  0
 10 11  1  0  0  0  0
 10 31  1  0  0  0  0
 11 19  1  0  0  0  0
 11 12  1  0  0  0  0
 11 32  1  0  0  0  0
 12 13  1  0  0  0  0
 12 33  1  0  0  0  0
 12 34  1  0  0  0  0
 13 14  1  0  0  0  0
 13 35  1  0  0  0  0
 13 36  1  0  0  0  0
 14 19  1  0  0  0  0
 14 15  1  0  0  0  0
 14 47  1  0  0  0  0
 15 16  1  0  0  0  0
 15 37  1  0  0  0  0
 15 38  1  0  0  0  0
 16 17  1  0  0  0  0
 16 39  1  0  0  0  0
 16 40  1  0  0  0  0
 17 18  1  0  0  0  0
 17 41  1  0  0  0  0
 17 42  1  0  0  0  0
 18 19  1  0  0  0  0
 18 43  1  0  0  0  0
 18 44  1  0  0  0  0
 19 45  1  0  0  0  0
 20 21  2  0  0  0  0
 20 46  1  0  0  0  0
M  CHG  1  14   1
M  END
> <s_m_source_file>
AV-unprocessed.smi

> <i_m_source_file_index>
557

> <i_lp_mmshare_version>
43012

> <i_f3d_flags>
0

> <s_epik_input>
W0NIM11uMVtjSF1jKFtjSF1uMSlbQ0gyXVtDSDJdW05IXUMoPU8pW05IXVtDQEhdKFtDSDJdW0NIMl0yKVtDQEhdKE4yMylbQ0gyXVtDSDJdW0NIMl1bQ0gyXTM=

> <s_epik_cmdline>
J2VwaWtfcHl0aG9uJywgJy1waCcsICc3LjAnLCAnLXRuJywgJzgnLCAnLW1hJywgJzIwMCcsICctbWV0YWxfYmluZGluZycsICctaW1hZScsICc8aW5maWxlLm1hZT4nLCAnLW9tYWUnLCAnPG91dGZpbGUubWFlPic=

> <r_lp_tautomer_probability>
1

> <r_epik_Ionization_Penalty>
0.000956547

> <r_epik_Ionization_Penalty_Charging>
0.000435796

> <r_epik_Ionization_Penalty_Neutral>
0.000520752

> <r_epik_State_Penalty>
-0

> <r_epik_Charging_Adjusted_Penalty>
0.000435796

> <i_epik_Tot_Q>
1

> <i_epik_Tot_abs_Q>
1

> <r_epik_Metal_State_Penalty>
-0

> <b_epik_Metal_Only>
0

> <s_lp_Force_Field>
OPLS_2005

> <r_lp_Energy>
46.1315

> <b_lp_Chiralities_Consistent>
1

> <s_lp_Variant>
AV-unprocessed.smi:557-3

> <Gold.Version>
5.8.1

> <Gold.Id.Protein>
6NUR|6NUR_protein|mol2

> <Gold.PLP.Fitness>
48.7887

> <Gold.PLP.PLP>
-36.3441

> <Gold.PLP.part.hbond>
-4.0000

> <Gold.PLP.part.metal>
0.0000

> <Gold.PLP.part.buried>
-3.0487

> <Gold.PLP.part.nonpolar>
-32.4718

> <Gold.PLP.part.repulsive>
0.8049

> <Gold.PLP.ligand.clash>
0.0137

> <Gold.PLP.ligand.torsion>
0.8248

> <Gold.PLP.Chemscore.Hbond>
3.1121

> <Gold.PLP.Chemscore.CHOScore>
1.5874

> <Gold.PLP.Chemscore.Metal>
0.0000

> <Gold.Chemscore.Hbonds>
donor molecule, donor type, donor heavy atom, donor atom, acceptor molecule, acceptor atom, score
      L1  H     7    30       P1 10171  1.00
      L1  H    14    47       P1 10957  1.95
      P1  H  7989  7998       L1    21  0.08
      L1  C     3    25       P1  7948  0.91
      L1  C    20    46       P1  8028  0.70

> <Gold.PLP.Chemscore.Internal.Correction>
0.0095

> <Gold.Rescore>
     Score         DG    S(hbond)    S(metal)    S(lipo)     H(rot)  DE(clash)    DE(int)     intcor
     10.80     -16.06       1.08        0.00      94.81       1.60       0.86       4.40       ----

> <Gold.Chemscore.Fitness>
10.8009

> <Gold.Chemscore.DG>
-16.0638

> <Gold.Chemscore.ZeroCoef>
-5.4800

> <Gold.Chemscore.Hbond>
1.0754

> <Gold.Chemscore.Metal>
0.0000

> <Gold.Chemscore.Lipo>
94.8067

> <Gold.Chemscore.Internal_Hbond>
0.0000

> <Gold.Chemscore.DEClash>
0.8642

> <Gold.Chemscore.DEInternal>
4.3986

> <Gold.Chemscore.Rot>
1.6018

> <Gold.Chemscore.Internal.Correction>
   9.000000E+99

> <Gold.Chemscore.Hbonds>
donor molecule, donor type, donor heavy atom, donor atom, acceptor molecule, acceptor atom, score
      L1  H     7    30       P1 10171  0.99
      L1  H    14    47       P1 10957  0.36

> <Gold.Chemscore.Hbond.Weighted>
-3.5920

> <Gold.Chemscore.Metal.Weighted>
-0.0000

> <Gold.Chemscore.Lipo.Weighted>
-11.0924

> <Gold.Chemscore.Internal_Hbond.Weighted>
0.0000

> <Gold.Chemscore.DEClash.Weighted>
0.8642

> <Gold.Chemscore.DEInternal.Weighted>
4.3986

> <Gold.Chemscore.Rot.Weighted>
4.1006

> <Gold.Chemscore.Internal.Correction.Weighted>
   9.000000E+99

> <Gold.Protein.RotatedTorsions>
[ 6907 6896 6895 6894 ] final  -72.05 input  -60.11 | X-H torsion
[ 7974 7965 7964 7962 ] final -105.69 input  175.53 | X-H torsion
[ 8008 7997 7996 7995 ] final  -92.87 input   59.86 | X-H torsion
[ 10167 10162 10161 10158 ] final -129.00 input  -65.29 | X-H torsion
[ 10718 10713 10712 10709 ] final   52.06 input   66.30 | X-H torsion
[ 10763 10752 10751 10750 ] final  176.68 input  -60.55 | X-H torsion
[ 11005 11000 10999 10996 ] final -144.32 input  -57.11 | X-H torsion

> <Gold.Protein.ActiveResidues>
 VAL166  LYS551  ARG553  GLY616  TRP617  ASP618  TYR619  PRO620  LYS621  CYS622 
 ASP623  PHE694  ASN695  SER759  ASP760  ASP761  ALA762  ILE779  LEU786  VAL792 
 PHE793  MET794  SER795  GLU796  ALA797  LYS798  CYS799  TRP800  GLU811  SER814 

> <Gold.Protein.RotatedAtoms>
  150.7186  134.5219  159.5657 H   0  0  0  0  0  0  0  0  0  0  0  0  # atno 6907 bound_to 6896
  152.2772  134.7865  160.0412 H   0  0  0  0  0  0  0  0  0  0  0  0  # atno 6908 bound_to 6896
  151.8524  133.3407  159.3714 H   0  0  0  0  0  0  0  0  0  0  0  0  # atno 6909 bound_to 6896
  145.2273  140.9157  143.3225 H   0  0  0  0  0  0  0  0  0  0  0  0  # atno 7974 bound_to 7965
  154.7285  140.0504  157.0704 H   0  0  0  0  0  0  0  0  0  0  0  0  # atno 8008 bound_to 7997
  155.0333  140.3160  155.4731 H   0  0  0  0  0  0  0  0  0  0  0  0  # atno 8009 bound_to 7997
  156.2835  140.2146  156.5455 H   0  0  0  0  0  0  0  0  0  0  0  0  # atno 8010 bound_to 7997
  139.9444  143.6126  152.2494 H   0  0  0  0  0  0  0  0  0  0  0  0  # atno 10167 bound_to 10162
  157.5039  130.8456  149.8351 H   0  0  0  0  0  0  0  0  0  0  0  0  # atno 10718 bound_to 10713
  154.4843  135.2776  155.1546 H   0  0  0  0  0  0  0  0  0  0  0  0  # atno 10763 bound_to 10752
  154.3243  135.6203  153.5526 H   0  0  0  0  0  0  0  0  0  0  0  0  # atno 10764 bound_to 10752
  152.9879  135.5750  154.5251 H   0  0  0  0  0  0  0  0  0  0  0  0  # atno 10765 bound_to 10752
  140.8036  134.2828  157.4969 H   0  0  0  0  0  0  0  0  0  0  0  0  # atno 11005 bound_to 11000
  144.9710  139.3881  143.6309 LP  0  0  0  0  0  0  0  0  0  0  0  0  # atno 17320 bound_to 7965
  146.3361  139.8807  142.8825 LP  0  0  0  0  0  0  0  0  0  0  0  0  # atno 17321 bound_to 7965
  139.6678  144.7662  151.1840 LP  0  0  0  0  0  0  0  0  0  0  0  0  # atno 17342 bound_to 10162
  140.7601  143.5911  150.8796 LP  0  0  0  0  0  0  0  0  0  0  0  0  # atno 17343 bound_to 10162
  156.0246  130.3784  150.1860 LP  0  0  0  0  0  0  0  0  0  0  0  0  # atno 17370 bound_to 10713
  157.0050  130.9934  151.3381 LP  0  0  0  0  0  0  0  0  0  0  0  0  # atno 17371 bound_to 10713
  139.8719  134.9443  156.3878 LP  0  0  0  0  0  0  0  0  0  0  0  0  # atno 17394 bound_to 11000
  140.9270  133.7606  155.9976 LP  0  0  0  0  0  0  0  0  0  0  0  0  # atno 17395 bound_to 11000

$$$$
