AV-unprocessed.smi:3143|AV-procd|sdf|11975|dock2
  -GOLD-   2272017373D 1   1.00000     0.00000
 Structure written by MMmdl.
 38 39  0  0  0  0  0  0  0  0  2 V2000
  151.7505  140.3970  156.4334 C   0  0  0  0  0  0  0  0  0  0  0  0
  150.4655  141.2303  156.3053 C   0  0  1  0  0  0  0  0  0  0  0  0
  150.7992  142.6704  156.3980 N   0  3  0  0  0  0  0  0  0  0  0  0
  151.5905  143.0512  157.5874 C   0  0  0  0  0  0  0  0  0  0  0  0
  151.2158  142.1868  158.7990 C   0  0  0  0  0  0  0  0  0  0  0  0
  151.8416  142.6717  160.0135 N   0  0  0  0  0  0  0  0  0  0  0  0
  152.8250  142.0735  160.7733 C   0  0  0  0  0  0  0  0  0  0  0  0
  153.0920  142.9084  161.8204 C   0  0  0  0  0  0  0  0  0  0  0  0
  152.2112  144.0064  161.6115 C   0  0  0  0  0  0  0  0  0  0  0  0
  151.4641  143.8615  160.5287 N   0  0  0  0  0  0  0  0  0  0  0  0
  149.7545  140.8996  154.9774 C   0  0  0  0  0  0  0  0  0  0  0  0
  150.3511  140.2210  154.1397 O   0  0  0  0  0  0  0  0  0  0  0  0
  148.4977  141.3477  154.7685 N   0  0  0  0  0  0  0  0  0  0  0  0
  147.6942  142.1427  155.6975 C   0  0  0  0  0  0  0  0  0  0  0  0
  146.2866  142.1811  155.1020 C   0  0  0  0  0  0  0  0  0  0  0  0
  146.5085  141.9775  153.6103 C   0  0  0  0  0  0  0  0  0  0  0  0
  147.7518  141.0910  153.5373 C   0  0  0  0  0  0  0  0  0  0  0  0
  151.5405  139.3277  156.3898 H   0  0  0  0  0  0  0  0  0  0  0  0
  152.2487  140.5913  157.3838 H   0  0  0  0  0  0  0  0  0  0  0  0
  152.4589  140.6271  155.6361 H   0  0  0  0  0  0  0  0  0  0  0  0
  149.8227  140.9964  157.1539 H   0  0  0  0  0  0  0  0  0  0  0  0
  151.3361  142.9210  155.5804 H   0  0  0  0  0  0  0  0  0  0  0  0
  152.6536  142.9412  157.3693 H   0  0  0  0  0  0  0  0  0  0  0  0
  151.4158  144.1039  157.8133 H   0  0  0  0  0  0  0  0  0  0  0  0
  150.1346  142.1782  158.9439 H   0  0  0  0  0  0  0  0  0  0  0  0
  151.5238  141.1520  158.6407 H   0  0  0  0  0  0  0  0  0  0  0  0
  153.2485  141.1149  160.5109 H   0  0  0  0  0  0  0  0  0  0  0  0
  153.8086  142.7586  162.6145 H   0  0  0  0  0  0  0  0  0  0  0  0
  152.0934  144.8984  162.2094 H   0  0  0  0  0  0  0  0  0  0  0  0
  147.6801  141.7223  156.7037 H   0  0  0  0  0  0  0  0  0  0  0  0
  148.1075  143.1509  155.7527 H   0  0  0  0  0  0  0  0  0  0  0  0
  145.6978  141.3528  155.4989 H   0  0  0  0  0  0  0  0  0  0  0  0
  145.7559  143.1063  155.3283 H   0  0  0  0  0  0  0  0  0  0  0  0
  145.6456  141.5377  153.1094 H   0  0  0  0  0  0  0  0  0  0  0  0
  146.7151  142.9386  153.1371 H   0  0  0  0  0  0  0  0  0  0  0  0
  148.3408  141.3104  152.6454 H   0  0  0  0  0  0  0  0  0  0  0  0
  147.4694  140.0374  153.5073 H   0  0  0  0  0  0  0  0  0  0  0  0
  149.9372  143.1974  156.3925 H   0  0  0  0  0  0  0  0  0  0  0  0
  1  2  1  0  0  0  0
  1 18  1  0  0  0  0
  1 19  1  0  0  0  0
  1 20  1  0  0  0  0
  2  3  1  0  0  0  0
  2 11  1  0  0  0  0
  2 21  1  0  0  0  0
  3  4  1  0  0  0  0
  3 22  1  0  0  0  0
  3 38  1  0  0  0  0
  4  5  1  0  0  0  0
  4 23  1  0  0  0  0
  4 24  1  0  0  0  0
  5  6  1  0  0  0  0
  5 25  1  0  0  0  0
  5 26  1  0  0  0  0
  6 10  1  0  0  0  0
  6  7  1  0  0  0  0
  7  8  2  0  0  0  0
  7 27  1  0  0  0  0
  8  9  1  0  0  0  0
  8 28  1  0  0  0  0
  9 10  2  0  0  0  0
  9 29  1  0  0  0  0
 11 12  2  0  0  0  0
 11 13  1  0  0  0  0
 13 17  1  0  0  0  0
 13 14  1  0  0  0  0
 14 15  1  0  0  0  0
 14 30  1  0  0  0  0
 14 31  1  0  0  0  0
 15 16  1  0  0  0  0
 15 32  1  0  0  0  0
 15 33  1  0  0  0  0
 16 17  1  0  0  0  0
 16 34  1  0  0  0  0
 16 35  1  0  0  0  0
 17 36  1  0  0  0  0
 17 37  1  0  0  0  0
M  CHG  1   3   1
M  END
> <s_m_source_file>
AV-unprocessed.smi

> <i_m_source_file_index>
3143

> <i_lp_mmshare_version>
43012

> <i_f3d_flags>
0

> <s_epik_input>
W0NIMl0xW0NIMl1bQ0gyXVtDSDJdTjFDKD1PKVtDQEhdKFtDSDNdKVtOSF1bQ0gyXVtDSDJdbjJbY0hdW2NIXVtjSF1uMg==

> <s_epik_cmdline>
J2VwaWtfcHl0aG9uJywgJy1waCcsICc3LjAnLCAnLXRuJywgJzgnLCAnLW1hJywgJzIwMCcsICctbWV0YWxfYmluZGluZycsICctaW1hZScsICc8aW5maWxlLm1hZT4nLCAnLW9tYWUnLCAnPG91dGZpbGUubWFlPic=

> <r_lp_tautomer_probability>
1

> <r_epik_Ionization_Penalty>
0.203171

> <r_epik_Ionization_Penalty_Charging>
0.203168

> <r_epik_Ionization_Penalty_Neutral>
2.46932e-06

> <r_epik_State_Penalty>
0.193072

> <r_epik_Charging_Adjusted_Penalty>
0.39624

> <i_epik_Tot_Q>
1

> <i_epik_Tot_abs_Q>
1

> <r_epik_Metal_State_Penalty>
0.193323

> <b_epik_Metal_Only>
0

> <s_lp_Force_Field>
OPLS_2005

> <r_lp_Energy>
30.1321

> <b_lp_Chiralities_Consistent>
1

> <s_lp_Variant>
AV-unprocessed.smi:3143-2

> <Gold.Version>
5.8.1

> <Gold.Id.Protein>
6NUR|6NUR_protein|mol2

> <Gold.PLP.Fitness>
46.7080

> <Gold.PLP.PLP>
-38.5975

> <Gold.PLP.part.hbond>
-1.8545

> <Gold.PLP.part.metal>
0.0000

> <Gold.PLP.part.buried>
-2.5255

> <Gold.PLP.part.nonpolar>
-33.3119

> <Gold.PLP.part.repulsive>
0.7698

> <Gold.PLP.ligand.clash>
0.0000

> <Gold.PLP.ligand.torsion>
0.4369

> <Gold.PLP.Chemscore.Hbond>
2.9520

> <Gold.PLP.Chemscore.CHOScore>
0.0000

> <Gold.PLP.Chemscore.Metal>
0.0000

> <Gold.Chemscore.Hbonds>
donor molecule, donor type, donor heavy atom, donor atom, acceptor molecule, acceptor atom, score
      L1  H     3    38       P1  8028  1.92
      P1  H  7989  7998       L1    12  1.00

> <Gold.PLP.Chemscore.Internal.Correction>
0.1282

> <Gold.Rescore>
     Score         DG    S(hbond)    S(metal)    S(lipo)     H(rot)  DE(clash)    DE(int)     intcor
     16.54     -17.13       1.78        0.00      88.98       1.84       0.15       0.45       ----

> <Gold.Chemscore.Fitness>
16.5368

> <Gold.Chemscore.DG>
-17.1316

> <Gold.Chemscore.ZeroCoef>
-5.4800

> <Gold.Chemscore.Hbond>
1.7823

> <Gold.Chemscore.Metal>
0.0000

> <Gold.Chemscore.Lipo>
88.9765

> <Gold.Chemscore.Internal_Hbond>
0.0000

> <Gold.Chemscore.DEClash>
0.1451

> <Gold.Chemscore.DEInternal>
0.4497

> <Gold.Chemscore.Rot>
1.8405

> <Gold.Chemscore.Internal.Correction>
   9.000000E+99

> <Gold.Chemscore.Hbonds>
donor molecule, donor type, donor heavy atom, donor atom, acceptor molecule, acceptor atom, score
      L1  H     3    38       P1  8028  0.90
      P1  H  7989  7998       L1    12  0.87

> <Gold.Chemscore.Hbond.Weighted>
-5.9530

> <Gold.Chemscore.Metal.Weighted>
-0.0000

> <Gold.Chemscore.Lipo.Weighted>
-10.4102

> <Gold.Chemscore.Internal_Hbond.Weighted>
0.0000

> <Gold.Chemscore.DEClash.Weighted>
0.1451

> <Gold.Chemscore.DEInternal.Weighted>
0.4497

> <Gold.Chemscore.Rot.Weighted>
4.7117

> <Gold.Chemscore.Internal.Correction.Weighted>
   9.000000E+99

> <Gold.Protein.RotatedTorsions>
[ 6907 6896 6895 6894 ] final  110.29 input  -60.11 | X-H torsion
[ 7974 7965 7964 7962 ] final  121.23 input  175.53 | X-H torsion
[ 8008 7997 7996 7995 ] final -162.33 input   59.86 | X-H torsion
[ 10167 10162 10161 10158 ] final  -37.67 input  -65.29 | X-H torsion
[ 10718 10713 10712 10709 ] final -153.07 input   66.30 | X-H torsion
[ 10763 10752 10751 10750 ] final  163.65 input  -60.55 | X-H torsion
[ 11005 11000 10999 10996 ] final  119.24 input  -57.11 | X-H torsion

> <Gold.Protein.ActiveResidues>
 VAL166  LYS551  ARG553  GLY616  TRP617  ASP618  TYR619  PRO620  LYS621  CYS622 
 ASP623  PHE694  ASN695  SER759  ASP760  ASP761  ALA762  ILE779  LEU786  VAL792 
 PHE793  MET794  SER795  GLU796  ALA797  LYS798  CYS799  TRP800  GLU811  SER814 

> <Gold.Protein.RotatedAtoms>
  152.5027  133.8822  159.7351 H   0  0  0  0  0  0  0  0  0  0  0  0  # atno 6907 bound_to 6896
  150.9282  133.6790  159.2823 H   0  0  0  0  0  0  0  0  0  0  0  0  # atno 6908 bound_to 6896
  151.4144  135.0994  159.9647 H   0  0  0  0  0  0  0  0  0  0  0  0  # atno 6909 bound_to 6896
  145.1218  139.3384  143.4710 H   0  0  0  0  0  0  0  0  0  0  0  0  # atno 7974 bound_to 7965
  155.8052  140.0897  157.1935 H   0  0  0  0  0  0  0  0  0  0  0  0  # atno 8008 bound_to 7997
  154.3981  140.1465  156.3380 H   0  0  0  0  0  0  0  0  0  0  0  0  # atno 8009 bound_to 7997
  155.8422  140.3438  155.5642 H   0  0  0  0  0  0  0  0  0  0  0  0  # atno 8010 bound_to 7997
  140.7112  143.3327  151.2532 H   0  0  0  0  0  0  0  0  0  0  0  0  # atno 10167 bound_to 10162
  156.4809  130.8302  151.2529 H   0  0  0  0  0  0  0  0  0  0  0  0  # atno 10718 bound_to 10713
  154.2969  135.2760  155.2629 H   0  0  0  0  0  0  0  0  0  0  0  0  # atno 10763 bound_to 10752
  154.5083  135.5789  153.6588 H   0  0  0  0  0  0  0  0  0  0  0  0  # atno 10764 bound_to 10752
  152.9906  135.6175  154.3137 H   0  0  0  0  0  0  0  0  0  0  0  0  # atno 10765 bound_to 10752
  139.9139  134.9627  156.7625 H   0  0  0  0  0  0  0  0  0  0  0  0  # atno 11005 bound_to 11000
  146.3520  140.1180  142.8601 LP  0  0  0  0  0  0  0  0  0  0  0  0  # atno 17320 bound_to 7965
  145.0732  140.9170  143.4869 LP  0  0  0  0  0  0  0  0  0  0  0  0  # atno 17321 bound_to 7965
  139.6813  143.9849  152.2810 LP  0  0  0  0  0  0  0  0  0  0  0  0  # atno 17342 bound_to 10162
  139.9480  144.6639  150.8200 LP  0  0  0  0  0  0  0  0  0  0  0  0  # atno 17343 bound_to 10162
  157.7483  131.0045  150.3079 LP  0  0  0  0  0  0  0  0  0  0  0  0  # atno 17370 bound_to 10713
  156.3523  130.3833  149.7319 LP  0  0  0  0  0  0  0  0  0  0  0  0  # atno 17371 bound_to 10713
  140.6685  133.9580  155.7844 LP  0  0  0  0  0  0  0  0  0  0  0  0  # atno 17394 bound_to 11000
  141.0594  134.0369  157.3679 LP  0  0  0  0  0  0  0  0  0  0  0  0  # atno 17395 bound_to 11000

$$$$
