AV-unprocessed.smi:3237|AV-procd|sdf|12372|dock6
  -GOLD-   2272018233D 1   1.00000     0.00000
 Structure written by MMmdl.
 36 38  0  0  0  0  0  0  0  0  3 V2000
  152.7134  141.9451  159.0337 C   0  0  0  0  0  0  0  0  0  0  0  0
  152.1870  140.8600  158.1583 C   0  0  0  0  0  0  0  0  0  0  0  0
  151.0717  140.7546  157.3758 C   0  0  0  0  0  0  0  0  0  0  0  0
  151.1899  139.4518  156.8221 C   0  0  0  0  0  0  0  0  0  0  0  0
  150.2015  138.9504  155.9344 N   0  0  0  0  0  0  0  0  0  0  0  0
  149.8272  139.4287  154.7338 C   0  0  0  0  0  0  0  0  0  0  0  0
  150.3604  140.4435  154.2704 O   0  0  0  0  0  0  0  0  0  0  0  0
  148.8436  138.6785  154.1637 N   0  5  0  0  0  0  0  0  0  0  0  0
  147.4129  139.0056  154.2001 C   0  0  1  0  0  0  0  0  0  0  0  0
  147.0171  139.7478  152.9184 C   0  0  0  0  0  0  0  0  0  0  0  0
  146.6063  138.6550  151.9179 C   0  0  0  0  0  0  0  0  0  0  0  0
  146.5483  137.3855  152.6764 N   0  3  2  0  0  0  0  0  0  0  0  0
  145.4469  136.4827  152.2803 C   0  0  0  0  0  0  0  0  0  0  0  0
  145.8693  135.0394  152.1463 C   0  0  0  0  0  0  0  0  0  0  0  0
  145.6276  135.8773  150.9090 C   0  0  0  0  0  0  0  0  0  0  0  0
  146.5669  137.7316  154.1101 C   0  0  0  0  0  0  0  0  0  0  0  0
  152.2828  138.8216  157.2271 N   0  0  0  0  0  0  0  0  0  0  0  0
  152.9270  139.7205  158.0854 O   0  0  0  0  0  0  0  0  0  0  0  0
  151.9896  142.7547  159.1286 H   0  0  0  0  0  0  0  0  0  0  0  0
  153.6337  142.3600  158.6228 H   0  0  0  0  0  0  0  0  0  0  0  0
  152.9282  141.5657  160.0328 H   0  0  0  0  0  0  0  0  0  0  0  0
  150.2957  141.4908  157.2270 H   0  0  0  0  0  0  0  0  0  0  0  0
  149.7256  138.1148  156.2407 H   0  0  0  0  0  0  0  0  0  0  0  0
  147.1463  139.5910  155.0810 H   0  0  0  0  0  0  0  0  0  0  0  0
  146.1557  140.3841  153.1251 H   0  0  0  0  0  0  0  0  0  0  0  0
  147.8056  140.3958  152.5325 H   0  0  0  0  0  0  0  0  0  0  0  0
  145.6417  138.8969  151.4683 H   0  0  0  0  0  0  0  0  0  0  0  0
  147.3319  138.5562  151.1092 H   0  0  0  0  0  0  0  0  0  0  0  0
  144.4541  136.7366  152.6478 H   0  0  0  0  0  0  0  0  0  0  0  0
  146.8993  134.7805  152.3856 H   0  0  0  0  0  0  0  0  0  0  0  0
  145.1309  134.2761  152.3836 H   0  0  0  0  0  0  0  0  0  0  0  0
  144.7299  135.6655  150.3316 H   0  0  0  0  0  0  0  0  0  0  0  0
  146.4971  136.1744  150.3255 H   0  0  0  0  0  0  0  0  0  0  0  0
  146.9451  136.9104  154.7207 H   0  0  0  0  0  0  0  0  0  0  0  0
  145.5502  137.9483  154.4425 H   0  0  0  0  0  0  0  0  0  0  0  0
  147.4232  136.9126  152.4996 H   0  0  0  0  0  0  0  0  0  0  0  0
  1  2  1  0  0  0  0
  1 19  1  0  0  0  0
  1 20  1  0  0  0  0
  1 21  1  0  0  0  0
  2 18  1  0  0  0  0
  2  3  2  0  0  0  0
  3  4  1  0  0  0  0
  3 22  1  0  0  0  0
  4  5  1  0  0  0  0
  4 17  2  0  0  0  0
  5  6  1  0  0  0  0
  5 23  1  0  0  0  0
  6  7  2  0  0  0  0
  6  8  1  0  0  0  0
  8  9  1  0  0  0  0
  9 16  1  0  0  0  0
  9 10  1  0  0  0  0
  9 24  1  0  0  0  0
 10 11  1  0  0  0  0
 10 25  1  0  0  0  0
 10 26  1  0  0  0  0
 11 12  1  0  0  0  0
 11 27  1  0  0  0  0
 11 28  1  0  0  0  0
 12 13  1  0  0  0  0
 12 16  1  0  0  0  0
 12 36  1  0  0  0  0
 13 15  1  0  0  0  0
 13 14  1  0  0  0  0
 13 29  1  0  0  0  0
 14 15  1  0  0  0  0
 14 30  1  0  0  0  0
 14 31  1  0  0  0  0
 15 32  1  0  0  0  0
 15 33  1  0  0  0  0
 16 34  1  0  0  0  0
 16 35  1  0  0  0  0
 17 18  1  0  0  0  0
M  CHG  1   8  -1
M  CHG  1  12   1
M  END
> <s_m_source_file>
AV-unprocessed.smi

> <i_m_source_file_index>
3237

> <i_lp_mmshare_version>
43012

> <i_f3d_flags>
0

> <s_epik_input>
W0NIM11jMVtjSF1jKG5vMSlbTkhdQyg9TylbTkhdW0NAQEhdMltDSDJdW0NIMl1OKFtDSDJdMilbQ0hdM1tDSDJdW0NIMl0z

> <s_epik_cmdline>
J2VwaWtfcHl0aG9uJywgJy1waCcsICc3LjAnLCAnLXRuJywgJzgnLCAnLW1hJywgJzIwMCcsICctbWV0YWxfYmluZGluZycsICctaW1hZScsICc8aW5maWxlLm1hZT4nLCAnLW9tYWUnLCAnPG91dGZpbGUubWFlPic=

> <r_epik_Ionization_Penalty>
6.76456

> <r_epik_Ionization_Penalty_Charging>
6.76456

> <r_epik_Ionization_Penalty_Neutral>
5.76722e-06

> <r_epik_State_Penalty>
6.78919

> <r_epik_Charging_Adjusted_Penalty>
13.5538

> <i_epik_Tot_Q>
0

> <i_epik_Tot_abs_Q>
2

> <r_epik_Metal_State_Penalty>
2.728

> <b_epik_Metal_Only>
1

> <s_lp_Force_Field>
OPLS_2005

> <r_lp_Energy>
30.7434

> <b_lp_Chiralities_Consistent>
1

> <s_lp_Variant>
AV-unprocessed.smi:3237-10

> <Gold.Version>
5.8.1

> <Gold.Id.Protein>
6NUR|6NUR_protein|mol2

> <Gold.PLP.Fitness>
35.9685

> <Gold.PLP.PLP>
-27.5327

> <Gold.PLP.part.hbond>
-2.7817

> <Gold.PLP.part.metal>
0.0000

> <Gold.PLP.part.buried>
-3.5242

> <Gold.PLP.part.nonpolar>
-21.9676

> <Gold.PLP.part.repulsive>
0.4063

> <Gold.PLP.ligand.clash>
0.0000

> <Gold.PLP.ligand.torsion>
2.3340

> <Gold.PLP.Chemscore.Hbond>
3.9280

> <Gold.PLP.Chemscore.CHOScore>
0.0000

> <Gold.PLP.Chemscore.Metal>
0.0000

> <Gold.Chemscore.Hbonds>
donor molecule, donor type, donor heavy atom, donor atom, acceptor molecule, acceptor atom, score
      L1  H    12    36       P1  7948  2.00
      P1  H  7989  7998       L1     7  0.94
      P1  H  7997  8010       L1    18  1.00

> <Gold.PLP.Chemscore.Internal.Correction>
1.3197

> <Gold.Rescore>
     Score         DG    S(hbond)    S(metal)    S(lipo)     H(rot)  DE(clash)    DE(int)     intcor
     15.24     -17.61       2.55        0.00      58.15       1.25       0.02       2.35       ----

> <Gold.Chemscore.Fitness>
15.2388

> <Gold.Chemscore.DG>
-17.6087

> <Gold.Chemscore.ZeroCoef>
-5.4800

> <Gold.Chemscore.Hbond>
2.5498

> <Gold.Chemscore.Metal>
0.0000

> <Gold.Chemscore.Lipo>
58.1469

> <Gold.Chemscore.Internal_Hbond>
0.0000

> <Gold.Chemscore.DEClash>
0.0153

> <Gold.Chemscore.DEInternal>
2.3546

> <Gold.Chemscore.Rot>
1.2464

> <Gold.Chemscore.Internal.Correction>
   9.000000E+99

> <Gold.Chemscore.Hbonds>
donor molecule, donor type, donor heavy atom, donor atom, acceptor molecule, acceptor atom, score
      L1  H    12    36       P1  7948  1.00
      P1  H  7989  7998       L1     7  0.86
      P1  H  7997  8010       L1    18  0.18

> <Gold.Chemscore.Hbond.Weighted>
-8.5164

> <Gold.Chemscore.Metal.Weighted>
-0.0000

> <Gold.Chemscore.Lipo.Weighted>
-6.8032

> <Gold.Chemscore.Internal_Hbond.Weighted>
0.0000

> <Gold.Chemscore.DEClash.Weighted>
0.0153

> <Gold.Chemscore.DEInternal.Weighted>
2.3546

> <Gold.Chemscore.Rot.Weighted>
3.1909

> <Gold.Chemscore.Internal.Correction.Weighted>
   9.000000E+99

> <Gold.Protein.RotatedTorsions>
[ 6907 6896 6895 6894 ] final -106.25 input  -60.11 | X-H torsion
[ 7974 7965 7964 7962 ] final    3.38 input  175.53 | X-H torsion
[ 8008 7997 7996 7995 ] final   32.46 input   59.86 | X-H torsion
[ 10167 10162 10161 10158 ] final   92.55 input  -65.29 | X-H torsion
[ 10718 10713 10712 10709 ] final  166.80 input   66.30 | X-H torsion
[ 10763 10752 10751 10750 ] final   99.09 input  -60.55 | X-H torsion
[ 11005 11000 10999 10996 ] final   36.17 input  -57.11 | X-H torsion

> <Gold.Protein.ActiveResidues>
 VAL166  LYS551  ARG553  GLY616  TRP617  ASP618  TYR619  PRO620  LYS621  CYS622 
 ASP623  PHE694  ASN695  SER759  ASP760  ASP761  ALA762  ILE779  LEU786  VAL792 
 PHE793  MET794  SER795  GLU796  ALA797  LYS798  CYS799  TRP800  GLU811  SER814 

> <Gold.Protein.RotatedAtoms>
  150.7379  134.0004  159.3636 H   0  0  0  0  0  0  0  0  0  0  0  0  # atno 6907 bound_to 6896
  151.7958  135.0721  160.0403 H   0  0  0  0  0  0  0  0  0  0  0  0  # atno 6908 bound_to 6896
  152.3176  133.5782  159.5759 H   0  0  0  0  0  0  0  0  0  0  0  0  # atno 6909 bound_to 6896
  146.2445  140.0694  142.8363 H   0  0  0  0  0  0  0  0  0  0  0  0  # atno 7974 bound_to 7965
  155.1228  140.3250  155.4493 H   0  0  0  0  0  0  0  0  0  0  0  0  # atno 8008 bound_to 7997
  156.2657  140.2024  156.6298 H   0  0  0  0  0  0  0  0  0  0  0  0  # atno 8009 bound_to 7997
  154.6670  140.0540  157.0112 H   0  0  0  0  0  0  0  0  0  0  0  0  # atno 8010 bound_to 7997
  139.8266  144.6707  150.9452 H   0  0  0  0  0  0  0  0  0  0  0  0  # atno 10167 bound_to 10162
  157.0607  131.0339  151.2648 H   0  0  0  0  0  0  0  0  0  0  0  0  # atno 10718 bound_to 10713
  153.2971  135.4125  155.1219 H   0  0  0  0  0  0  0  0  0  0  0  0  # atno 10763 bound_to 10752
  154.8538  135.3532  154.5902 H   0  0  0  0  0  0  0  0  0  0  0  0  # atno 10764 bound_to 10752
  153.6326  135.7060  153.5328 H   0  0  0  0  0  0  0  0  0  0  0  0  # atno 10765 bound_to 10752
  140.2352  134.3479  155.7947 H   0  0  0  0  0  0  0  0  0  0  0  0  # atno 11005 bound_to 11000
  145.0830  140.9233  143.4814 LP  0  0  0  0  0  0  0  0  0  0  0  0  # atno 17320 bound_to 7965
  145.0850  139.2931  143.5764 LP  0  0  0  0  0  0  0  0  0  0  0  0  # atno 17321 bound_to 7965
  140.7810  143.4041  151.1100 LP  0  0  0  0  0  0  0  0  0  0  0  0  # atno 17342 bound_to 10162
  139.7698  143.8512  152.3118 LP  0  0  0  0  0  0  0  0  0  0  0  0  # atno 17343 bound_to 10162
  157.4957  130.7849  149.7552 LP  0  0  0  0  0  0  0  0  0  0  0  0  # atno 17370 bound_to 10713
  155.9979  130.3897  150.2722 LP  0  0  0  0  0  0  0  0  0  0  0  0  # atno 17371 bound_to 10713
  141.2215  133.7268  156.8797 LP  0  0  0  0  0  0  0  0  0  0  0  0  # atno 17394 bound_to 11000
  140.1709  134.9100  157.2832 LP  0  0  0  0  0  0  0  0  0  0  0  0  # atno 17395 bound_to 11000

$$$$
