AV-unprocessed.smi:1047|AV-procd|sdf|4565|dock2
  -GOLD-   22720 3 13D 1   1.00000     0.00000
 Structure written by MMmdl.
 57 59  0  0  0  0  0  0  0  0  3 V2000
  143.6880  135.2560  155.0563 C   0  0  0  0  0  0  0  0  0  0  0  0
  144.0689  134.8837  153.6165 C   0  0  0  0  0  0  0  0  0  0  0  0
  143.7833  135.9777  152.6501 N   0  3  2  0  0  0  0  0  0  0  0  0
  144.0595  135.6086  151.2403 C   0  0  0  0  0  0  0  0  0  0  0  0
  145.5669  135.6666  150.9358 C   0  0  0  0  0  0  0  0  0  0  0  0
  146.0601  136.9667  151.2373 O   0  0  0  0  0  0  0  0  0  0  0  0
  145.9172  137.3028  152.6141 C   0  0  1  0  0  0  0  0  0  0  0  0
  146.5353  138.6927  152.8300 C   0  0  0  0  0  0  0  0  0  0  0  0
  147.9974  138.6077  153.0214 N   0  3  0  0  0  0  0  0  0  0  0  0
  148.4699  139.1705  154.3018 C   0  0  0  0  0  0  0  0  0  0  0  0
  149.1994  140.5106  154.0902 C   0  0  1  0  0  0  0  0  0  0  0  0
  148.5161  141.2393  153.0887 O   0  0  0  0  0  0  0  0  0  0  0  0
  149.2944  141.3714  155.3691 C   0  0  0  0  0  0  0  0  0  0  0  0
  150.1679  140.8090  156.3865 N   0  0  0  0  0  0  0  0  0  0  0  0
  150.4842  139.5106  156.5587 C   0  0  0  0  0  0  0  0  0  0  0  0
  151.3135  139.2121  157.5540 N   0  0  0  0  0  0  0  0  0  0  0  0
  151.5585  140.4610  158.0976 C   0  0  0  0  0  0  0  0  0  0  0  0
  152.3666  140.8425  159.1906 C   0  0  0  0  0  0  0  0  0  0  0  0
  152.4721  142.1979  159.5759 C   0  0  0  0  0  0  0  0  0  0  0  0
  153.3520  142.5629  160.7584 C   0  0  0  0  0  0  0  0  0  0  0  0
  151.7608  143.1965  158.8636 C   0  0  0  0  0  0  0  0  0  0  0  0
  151.8572  144.6588  159.2612 C   0  0  0  0  0  0  0  0  0  0  0  0
  150.9481  142.8327  157.7698 C   0  0  0  0  0  0  0  0  0  0  0  0
  150.8533  141.4808  157.3940 C   0  0  0  0  0  0  0  0  0  0  0  0
  144.4148  137.2829  152.9766 C   0  0  0  0  0  0  0  0  0  0  0  0
  143.8134  134.3988  155.7180 H   0  0  0  0  0  0  0  0  0  0  0  0
  142.6457  135.5699  155.1201 H   0  0  0  0  0  0  0  0  0  0  0  0
  144.3080  136.0597  155.4519 H   0  0  0  0  0  0  0  0  0  0  0  0
  145.1141  134.5790  153.5665 H   0  0  0  0  0  0  0  0  0  0  0  0
  143.4829  134.0064  153.3392 H   0  0  0  0  0  0  0  0  0  0  0  0
  143.6542  134.6223  151.0110 H   0  0  0  0  0  0  0  0  0  0  0  0
  143.5346  136.3119  150.5923 H   0  0  0  0  0  0  0  0  0  0  0  0
  146.1164  134.9119  151.5004 H   0  0  0  0  0  0  0  0  0  0  0  0
  145.7428  135.4609  149.8799 H   0  0  0  0  0  0  0  0  0  0  0  0
  146.4585  136.5794  153.2258 H   0  0  0  0  0  0  0  0  0  0  0  0
  146.3132  139.3406  151.9806 H   0  0  0  0  0  0  0  0  0  0  0  0
  146.0973  139.1600  153.7129 H   0  0  0  0  0  0  0  0  0  0  0  0
  148.2812  137.6399  152.9707 H   0  0  0  0  0  0  0  0  0  0  0  0
  147.6225  139.2942  154.9780 H   0  0  0  0  0  0  0  0  0  0  0  0
  149.1472  138.4518  154.7645 H   0  0  0  0  0  0  0  0  0  0  0  0
  150.2118  140.3196  153.7320 H   0  0  0  0  0  0  0  0  0  0  0  0
  148.3540  140.6654  152.3547 H   0  0  0  0  0  0  0  0  0  0  0  0
  149.6617  142.3669  155.1171 H   0  0  0  0  0  0  0  0  0  0  0  0
  148.3042  141.5156  155.8040 H   0  0  0  0  0  0  0  0  0  0  0  0
  150.0881  138.7411  155.9121 H   0  0  0  0  0  0  0  0  0  0  0  0
  152.9073  140.0814  159.7339 H   0  0  0  0  0  0  0  0  0  0  0  0
  152.7639  143.0507  161.5360 H   0  0  0  0  0  0  0  0  0  0  0  0
  154.1473  143.2409  160.4480 H   0  0  0  0  0  0  0  0  0  0  0  0
  153.8176  141.6795  161.1967 H   0  0  0  0  0  0  0  0  0  0  0  0
  151.2590  145.2904  158.6038 H   0  0  0  0  0  0  0  0  0  0  0  0
  152.8902  145.0034  159.2070 H   0  0  0  0  0  0  0  0  0  0  0  0
  151.4972  144.8014  160.2803 H   0  0  0  0  0  0  0  0  0  0  0  0
  150.3996  143.5842  157.2220 H   0  0  0  0  0  0  0  0  0  0  0  0
  143.8969  138.0551  152.4059 H   0  0  0  0  0  0  0  0  0  0  0  0
  144.2673  137.5369  154.0255 H   0  0  0  0  0  0  0  0  0  0  0  0
  148.4488  139.1165  152.2739 H   0  0  0  0  0  0  0  0  0  0  0  0
  142.7843  136.1192  152.7049 H   0  0  0  0  0  0  0  0  0  0  0  0
  1  2  1  0  0  0  0
  1 26  1  0  0  0  0
  1 27  1  0  0  0  0
  1 28  1  0  0  0  0
  2  3  1  0  0  0  0
  2 29  1  0  0  0  0
  2 30  1  0  0  0  0
  3 25  1  0  0  0  0
  3  4  1  0  0  0  0
  3 57  1  0  0  0  0
  4  5  1  0  0  0  0
  4 31  1  0  0  0  0
  4 32  1  0  0  0  0
  5  6  1  0  0  0  0
  5 33  1  0  0  0  0
  5 34  1  0  0  0  0
  6  7  1  0  0  0  0
  7  8  1  0  0  0  0
  7 25  1  0  0  0  0
  7 35  1  0  0  0  0
  8  9  1  0  0  0  0
  8 36  1  0  0  0  0
  8 37  1  0  0  0  0
  9 10  1  0  0  0  0
  9 38  1  0  0  0  0
  9 56  1  0  0  0  0
 10 11  1  0  0  0  0
 10 39  1  0  0  0  0
 10 40  1  0  0  0  0
 11 12  1  0  0  0  0
 11 13  1  0  0  0  0
 11 41  1  0  0  0  0
 12 42  1  0  0  0  0
 13 14  1  0  0  0  0
 13 43  1  0  0  0  0
 13 44  1  0  0  0  0
 14 24  1  0  0  0  0
 14 15  1  0  0  0  0
 15 16  2  0  0  0  0
 15 45  1  0  0  0  0
 16 17  1  0  0  0  0
 17 24  2  0  0  0  0
 17 18  1  0  0  0  0
 18 19  2  0  0  0  0
 18 46  1  0  0  0  0
 19 20  1  0  0  0  0
 19 21  1  0  0  0  0
 20 47  1  0  0  0  0
 20 48  1  0  0  0  0
 20 49  1  0  0  0  0
 21 22  1  0  0  0  0
 21 23  2  0  0  0  0
 22 50  1  0  0  0  0
 22 51  1  0  0  0  0
 22 52  1  0  0  0  0
 23 24  1  0  0  0  0
 23 53  1  0  0  0  0
 25 54  1  0  0  0  0
 25 55  1  0  0  0  0
M  CHG  1   3   1
M  CHG  1   9   1
M  END
> <s_m_source_file>
AV-unprocessed.smi

> <i_m_source_file_index>
1047

> <i_lp_mmshare_version>
43012

> <i_f3d_flags>
0

> <s_epik_input>
W0NIM11bQ0gyXU4xW0NIMl1bQ0gyXU9bQ0BIXShbQ0gyXTEpW0NIMl1bTkhdW0NIMl1bQ0BIXShbT0hdKVtDSDJdbihbY0hdbjIpYyhjMjMpW2NIXWMoW0NIM10pYyhbY0hdMylbQ0gzXQ==

> <s_epik_cmdline>
J2VwaWtfcHl0aG9uJywgJy1waCcsICc3LjAnLCAnLXRuJywgJzgnLCAnLW1hJywgJzIwMCcsICctbWV0YWxfYmluZGluZycsICctaW1hZScsICc8aW5maWxlLm1hZT4nLCAnLW9tYWUnLCAnPG91dGZpbGUubWFlPic=

> <r_epik_Ionization_Penalty>
0.528991

> <r_epik_Ionization_Penalty_Charging>
0.438567

> <r_epik_Ionization_Penalty_Neutral>
0.0904237

> <r_epik_State_Penalty>
0.533036

> <r_epik_Charging_Adjusted_Penalty>
0.971603

> <i_epik_Tot_Q>
2

> <i_epik_Tot_abs_Q>
2

> <r_epik_Metal_State_Penalty>
0.448985

> <b_epik_Metal_Only>
0

> <s_lp_Force_Field>
OPLS_2005

> <r_lp_Energy>
30.0062

> <b_lp_Chiralities_Consistent>
1

> <s_lp_Variant>
AV-unprocessed.smi:1047-6

> <Gold.Version>
5.8.1

> <Gold.Id.Protein>
6NUR|6NUR_protein|mol2

> <Gold.PLP.Fitness>
56.1205

> <Gold.PLP.PLP>
-45.4802

> <Gold.PLP.part.hbond>
-3.7428

> <Gold.PLP.part.metal>
0.0000

> <Gold.PLP.part.buried>
-1.7949

> <Gold.PLP.part.nonpolar>
-41.5090

> <Gold.PLP.part.repulsive>
1.8160

> <Gold.PLP.ligand.clash>
0.0000

> <Gold.PLP.ligand.torsion>
1.5513

> <Gold.PLP.Chemscore.Hbond>
4.4880

> <Gold.PLP.Chemscore.CHOScore>
0.0000

> <Gold.PLP.Chemscore.Metal>
0.0000

> <Gold.Chemscore.Hbonds>
donor molecule, donor type, donor heavy atom, donor atom, acceptor molecule, acceptor atom, score
      L1  H     9    38       P1  7948  1.82
      L1  H     9    56       P1  7957  1.00
      L1  H    12    42       P1  7957  0.54
      P1  H  8011  8017       L1    12  0.93

> <Gold.PLP.Chemscore.Internal.Correction>
0.2789

> <Gold.Rescore>
     Score         DG    S(hbond)    S(metal)    S(lipo)     H(rot)  DE(clash)    DE(int)     intcor
     19.41     -22.26       2.68        0.00     125.84       2.70       1.09       1.76       ----

> <Gold.Chemscore.Fitness>
19.4120

> <Gold.Chemscore.DG>
-22.2617

> <Gold.Chemscore.ZeroCoef>
-5.4800

> <Gold.Chemscore.Hbond>
2.6844

> <Gold.Chemscore.Metal>
0.0000

> <Gold.Chemscore.Lipo>
125.8445

> <Gold.Chemscore.Internal_Hbond>
0.0000

> <Gold.Chemscore.DEClash>
1.0920

> <Gold.Chemscore.DEInternal>
1.7577

> <Gold.Chemscore.Rot>
2.6985

> <Gold.Chemscore.Internal.Correction>
   9.000000E+99

> <Gold.Chemscore.Hbonds>
donor molecule, donor type, donor heavy atom, donor atom, acceptor molecule, acceptor atom, score
      L1  H     9    38       P1  7948  0.88
      L1  H     9    56       P1  7957  1.00
      L1  H    12    42       P1  7957  0.54
      P1  H  8011  8017       L1    12  0.14

> <Gold.Chemscore.Hbond.Weighted>
-8.9661

> <Gold.Chemscore.Metal.Weighted>
-0.0000

> <Gold.Chemscore.Lipo.Weighted>
-14.7238

> <Gold.Chemscore.Internal_Hbond.Weighted>
0.0000

> <Gold.Chemscore.DEClash.Weighted>
1.0920

> <Gold.Chemscore.DEInternal.Weighted>
1.7577

> <Gold.Chemscore.Rot.Weighted>
6.9081

> <Gold.Chemscore.Internal.Correction.Weighted>
   9.000000E+99

> <Gold.Protein.RotatedTorsions>
[ 6907 6896 6895 6894 ] final   82.71 input  -60.11 | X-H torsion
[ 7974 7965 7964 7962 ] final  115.94 input  175.53 | X-H torsion
[ 8008 7997 7996 7995 ] final  165.56 input   59.86 | X-H torsion
[ 10167 10162 10161 10158 ] final  179.75 input  -65.29 | X-H torsion
[ 10718 10713 10712 10709 ] final -107.02 input   66.30 | X-H torsion
[ 10763 10752 10751 10750 ] final  169.78 input  -60.55 | X-H torsion
[ 11005 11000 10999 10996 ] final  -77.36 input  -57.11 | X-H torsion

> <Gold.Protein.ActiveResidues>
 VAL166  LYS551  ARG553  GLY616  TRP617  ASP618  TYR619  PRO620  LYS621  CYS622 
 ASP623  PHE694  ASN695  SER759  ASP760  ASP761  ALA762  ILE779  LEU786  VAL792 
 PHE793  MET794  SER795  GLU796  ALA797  LYS798  CYS799  TRP800  GLU811  SER814 

> <Gold.Protein.RotatedAtoms>
  152.5307  134.3008  159.9077 H   0  0  0  0  0  0  0  0  0  0  0  0  # atno 6907 bound_to 6896
  151.2959  133.4138  159.2644 H   0  0  0  0  0  0  0  0  0  0  0  0  # atno 6908 bound_to 6896
  151.0161  134.9450  159.8091 H   0  0  0  0  0  0  0  0  0  0  0  0  # atno 6909 bound_to 6896
  145.1858  139.3026  143.4394 H   0  0  0  0  0  0  0  0  0  0  0  0  # atno 7974 bound_to 7965
  156.1791  140.1667  156.8308 H   0  0  0  0  0  0  0  0  0  0  0  0  # atno 8008 bound_to 7997
  154.5339  140.0751  156.8427 H   0  0  0  0  0  0  0  0  0  0  0  0  # atno 8009 bound_to 7997
  155.3350  140.3381  155.4241 H   0  0  0  0  0  0  0  0  0  0  0  0  # atno 8010 bound_to 7997
  139.5350  144.2524  152.0774 H   0  0  0  0  0  0  0  0  0  0  0  0  # atno 10167 bound_to 10162
  156.0417  130.5642  150.7763 H   0  0  0  0  0  0  0  0  0  0  0  0  # atno 10718 bound_to 10713
  154.3881  135.2754  155.2171 H   0  0  0  0  0  0  0  0  0  0  0  0  # atno 10763 bound_to 10752
  154.4249  135.5991  153.6036 H   0  0  0  0  0  0  0  0  0  0  0  0  # atno 10764 bound_to 10752
  152.9832  135.5981  154.4132 H   0  0  0  0  0  0  0  0  0  0  0  0  # atno 10765 bound_to 10752
  141.1660  133.7019  156.7808 H   0  0  0  0  0  0  0  0  0  0  0  0  # atno 11005 bound_to 11000
  146.3445  140.2053  142.8589 LP  0  0  0  0  0  0  0  0  0  0  0  0  # atno 17320 bound_to 7965
  145.0091  140.8698  143.5235 LP  0  0  0  0  0  0  0  0  0  0  0  0  # atno 17321 bound_to 7965
  140.1993  144.4674  150.6439 LP  0  0  0  0  0  0  0  0  0  0  0  0  # atno 17342 bound_to 10162
  140.6551  143.2235  151.5988 LP  0  0  0  0  0  0  0  0  0  0  0  0  # atno 17343 bound_to 10162
  157.5243  131.0933  151.0038 LP  0  0  0  0  0  0  0  0  0  0  0  0  # atno 17370 bound_to 10713
  157.0361  130.5730  149.5349 LP  0  0  0  0  0  0  0  0  0  0  0  0  # atno 17371 bound_to 10713
  140.2396  134.8624  157.3559 LP  0  0  0  0  0  0  0  0  0  0  0  0  # atno 17394 bound_to 11000
  140.1810  134.4490  155.7772 LP  0  0  0  0  0  0  0  0  0  0  0  0  # atno 17395 bound_to 11000

$$$$
