AV-unprocessed.smi:1555|AV-procd|sdf|6266|dock10
  -GOLD-   22720 6453D 1   1.00000     0.00000
 Structure written by MMmdl.
 41 42  0  0  0  0  0  0  0  0  1 V2000
  148.6736  140.4127  157.5704 C   0  0  0  0  0  0  0  0  0  0  0  0
  149.3387  141.5648  156.7997 C   0  0  2  0  0  0  0  0  0  0  0  0
  149.7661  141.1679  155.3695 C   0  0  0  0  0  0  0  0  0  0  0  0
  148.6346  140.9094  154.4996 N   0  0  0  0  0  0  0  0  0  0  0  0
  148.2922  139.6983  153.9134 C   0  0  0  0  0  0  0  0  0  0  0  0
  147.1513  139.9262  153.1776 C   0  0  0  0  0  0  0  0  0  0  0  0
  146.7746  141.2619  153.2985 N   0  0  0  0  0  0  0  0  0  0  0  0
  147.6976  141.7797  154.0989 C   0  0  0  0  0  0  0  0  0  0  0  0
  150.4904  142.0421  157.5596 N   0  0  0  0  0  0  0  0  0  0  0  0
  151.5058  141.2825  158.0065 C   0  0  0  0  0  0  0  0  0  0  0  0
  151.5486  140.0671  157.8099 O   0  0  0  0  0  0  0  0  0  0  0  0
  152.4662  141.9603  158.6856 N   0  0  0  0  0  0  0  0  0  0  0  0
  152.5138  143.4138  158.9180 C   0  0  0  0  0  0  0  0  0  0  0  0
  152.1844  143.6901  160.3958 C   0  0  0  0  0  0  0  0  0  0  0  0
  153.1523  142.9364  161.3384 C   0  0  0  0  0  0  0  0  0  0  0  0
  152.7704  143.1010  162.8206 C   0  0  0  0  0  0  0  0  0  0  0  0
  152.4919  144.4529  163.1196 O   0  0  0  0  0  0  0  0  0  0  0  0
  153.2389  141.4442  160.9472 C   0  0  0  0  0  0  0  0  0  0  0  0
  153.5180  141.2710  159.4427 C   0  0  0  0  0  0  0  0  0  0  0  0
  147.7531  140.0854  157.0866 H   0  0  0  0  0  0  0  0  0  0  0  0
  148.4136  140.7179  158.5845 H   0  0  0  0  0  0  0  0  0  0  0  0
  149.3373  139.5502  157.6421 H   0  0  0  0  0  0  0  0  0  0  0  0
  148.6113  142.3762  156.7344 H   0  0  0  0  0  0  0  0  0  0  0  0
  150.3633  141.9586  154.9136 H   0  0  0  0  0  0  0  0  0  0  0  0
  150.3965  140.2776  155.3948 H   0  0  0  0  0  0  0  0  0  0  0  0
  148.8734  138.8003  154.0635 H   0  0  0  0  0  0  0  0  0  0  0  0
  146.5765  139.2368  152.5772 H   0  0  0  0  0  0  0  0  0  0  0  0
  147.6946  142.8182  154.3962 H   0  0  0  0  0  0  0  0  0  0  0  0
  150.5226  143.0310  157.7602 H   0  0  0  0  0  0  0  0  0  0  0  0
  153.5153  143.7798  158.6875 H   0  0  0  0  0  0  0  0  0  0  0  0
  151.8461  143.9883  158.2763 H   0  0  0  0  0  0  0  0  0  0  0  0
  152.2342  144.7627  160.5852 H   0  0  0  0  0  0  0  0  0  0  0  0
  151.1563  143.3874  160.5997 H   0  0  0  0  0  0  0  0  0  0  0  0
  154.1482  143.3605  161.1999 H   0  0  0  0  0  0  0  0  0  0  0  0
  151.9026  142.4893  163.0695 H   0  0  0  0  0  0  0  0  0  0  0  0
  153.5892  142.7741  163.4623 H   0  0  0  0  0  0  0  0  0  0  0  0
  152.4699  144.9413  162.3106 H   0  0  0  0  0  0  0  0  0  0  0  0
  154.0212  140.9516  161.5256 H   0  0  0  0  0  0  0  0  0  0  0  0
  152.3046  140.9411  161.2007 H   0  0  0  0  0  0  0  0  0  0  0  0
  153.5900  140.2103  159.1984 H   0  0  0  0  0  0  0  0  0  0  0  0
  154.4889  141.6987  159.1883 H   0  0  0  0  0  0  0  0  0  0  0  0
  1  2  1  0  0  0  0
  1 20  1  0  0  0  0
  1 21  1  0  0  0  0
  1 22  1  0  0  0  0
  2  3  1  0  0  0  0
  2  9  1  0  0  0  0
  2 23  1  0  0  0  0
  3  4  1  0  0  0  0
  3 24  1  0  0  0  0
  3 25  1  0  0  0  0
  4  8  1  0  0  0  0
  4  5  1  0  0  0  0
  5  6  2  0  0  0  0
  5 26  1  0  0  0  0
  6  7  1  0  0  0  0
  6 27  1  0  0  0  0
  7  8  2  0  0  0  0
  8 28  1  0  0  0  0
  9 10  1  0  0  0  0
  9 29  1  0  0  0  0
 10 11  2  0  0  0  0
 10 12  1  0  0  0  0
 12 19  1  0  0  0  0
 12 13  1  0  0  0  0
 13 14  1  0  0  0  0
 13 30  1  0  0  0  0
 13 31  1  0  0  0  0
 14 15  1  0  0  0  0
 14 32  1  0  0  0  0
 14 33  1  0  0  0  0
 15 16  1  0  0  0  0
 15 18  1  0  0  0  0
 15 34  1  0  0  0  0
 16 17  1  0  0  0  0
 16 35  1  0  0  0  0
 16 36  1  0  0  0  0
 17 37  1  0  0  0  0
 18 19  1  0  0  0  0
 18 38  1  0  0  0  0
 18 39  1  0  0  0  0
 19 40  1  0  0  0  0
 19 41  1  0  0  0  0
M  END
> <s_m_source_file>
AV-unprocessed.smi

> <i_m_source_file_index>
1555

> <i_lp_mmshare_version>
43012

> <i_f3d_flags>
0

> <s_epik_input>
W2NIXTFuW2NIXVtjSF1uMVtDSDJdW0NAQEhdKFtDSDNdKVtOSF1DKD1PKU4yW0NIMl1bQ0gyXVtDSF0oW0NIMl1bT0hdKVtDSDJdW0NIMl0y

> <s_epik_cmdline>
J2VwaWtfcHl0aG9uJywgJy1waCcsICc3LjAnLCAnLXRuJywgJzgnLCAnLW1hJywgJzIwMCcsICctbWV0YWxfYmluZGluZycsICctaW1hZScsICc8aW5maWxlLm1hZT4nLCAnLW9tYWUnLCAnPG91dGZpbGUubWFlPic=

> <r_lp_tautomer_probability>
1

> <r_epik_Ionization_Penalty>
0.625883

> <r_epik_Ionization_Penalty_Charging>
0.625812

> <r_epik_Ionization_Penalty_Neutral>
7.07114e-05

> <r_epik_State_Penalty>
0.642234

> <r_epik_Charging_Adjusted_Penalty>
1.26805

> <i_epik_Tot_Q>
0

> <i_epik_Tot_abs_Q>
0

> <r_epik_Metal_State_Penalty>
0.307949

> <b_epik_Metal_Only>
0

> <s_lp_Force_Field>
OPLS_2005

> <r_lp_Energy>
32.8415

> <b_lp_Chiralities_Consistent>
1

> <s_lp_Variant>
AV-unprocessed.smi:1555-3

> <Gold.Version>
5.8.1

> <Gold.Id.Protein>
6NUR|6NUR_protein|mol2

> <Gold.PLP.Fitness>
44.5141

> <Gold.PLP.PLP>
-41.9003

> <Gold.PLP.part.hbond>
-2.0000

> <Gold.PLP.part.metal>
0.0000

> <Gold.PLP.part.buried>
-2.7351

> <Gold.PLP.part.nonpolar>
-36.9018

> <Gold.PLP.part.repulsive>
0.2351

> <Gold.PLP.ligand.clash>
0.0000

> <Gold.PLP.ligand.torsion>
0.2265

> <Gold.PLP.Chemscore.Hbond>
0.0000

> <Gold.PLP.Chemscore.CHOScore>
1.0000

> <Gold.PLP.Chemscore.Metal>
0.0000

> <Gold.Chemscore.Hbonds>
donor molecule, donor type, donor heavy atom, donor atom, acceptor molecule, acceptor atom, score
      L1  C     8    28       P1  8028  0.99

> <Gold.PLP.Chemscore.Internal.Correction>
0.0669

> <Gold.Rescore>
     Score         DG    S(hbond)    S(metal)    S(lipo)     H(rot)  DE(clash)    DE(int)     intcor
      8.51     -10.31       0.00        0.00      95.65       2.49       0.52       1.27       ----

> <Gold.Chemscore.Fitness>
8.5118

> <Gold.Chemscore.DG>
-10.3055

> <Gold.Chemscore.ZeroCoef>
-5.4800

> <Gold.Chemscore.Hbond>
0.0000

> <Gold.Chemscore.Metal>
0.0000

> <Gold.Chemscore.Lipo>
95.6538

> <Gold.Chemscore.Internal_Hbond>
0.0000

> <Gold.Chemscore.DEClash>
0.5196

> <Gold.Chemscore.DEInternal>
1.2740

> <Gold.Chemscore.Rot>
2.4867

> <Gold.Chemscore.Internal.Correction>
   9.000000E+99

> <Gold.Chemscore.Hbond.Weighted>
-0.0000

> <Gold.Chemscore.Metal.Weighted>
-0.0000

> <Gold.Chemscore.Lipo.Weighted>
-11.1915

> <Gold.Chemscore.Internal_Hbond.Weighted>
0.0000

> <Gold.Chemscore.DEClash.Weighted>
0.5196

> <Gold.Chemscore.DEInternal.Weighted>
1.2740

> <Gold.Chemscore.Rot.Weighted>
6.3660

> <Gold.Chemscore.Internal.Correction.Weighted>
   9.000000E+99

> <Gold.Protein.RotatedTorsions>
[ 6907 6896 6895 6894 ] final  116.55 input  -60.11 | X-H torsion
[ 7974 7965 7964 7962 ] final  104.12 input  175.53 | X-H torsion
[ 8008 7997 7996 7995 ] final -100.46 input   59.86 | X-H torsion
[ 10167 10162 10161 10158 ] final  142.13 input  -65.29 | X-H torsion
[ 10718 10713 10712 10709 ] final   89.00 input   66.30 | X-H torsion
[ 10763 10752 10751 10750 ] final   23.69 input  -60.55 | X-H torsion
[ 11005 11000 10999 10996 ] final  133.39 input  -57.11 | X-H torsion

> <Gold.Protein.ActiveResidues>
 VAL166  LYS551  ARG553  GLY616  TRP617  ASP618  TYR619  PRO620  LYS621  CYS622 
 ASP623  PHE694  ASN695  SER759  ASP760  ASP761  ALA762  ILE779  LEU786  VAL792 
 PHE793  MET794  SER795  GLU796  ALA797  LYS798  CYS799  TRP800  GLU811  SER814 

> <Gold.Protein.RotatedAtoms>
  152.4670  133.7946  159.6919 H   0  0  0  0  0  0  0  0  0  0  0  0  # atno 6907 bound_to 6896
  150.8640  133.7592  159.2989 H   0  0  0  0  0  0  0  0  0  0  0  0  # atno 6908 bound_to 6896
  151.5148  135.1069  159.9915 H   0  0  0  0  0  0  0  0  0  0  0  0  # atno 6909 bound_to 6896
  145.3370  139.2472  143.3630 H   0  0  0  0  0  0  0  0  0  0  0  0  # atno 7974 bound_to 7965
  154.8290  140.0441  157.1463 H   0  0  0  0  0  0  0  0  0  0  0  0  # atno 8008 bound_to 7997
  154.9174  140.3022  155.5214 H   0  0  0  0  0  0  0  0  0  0  0  0  # atno 8009 bound_to 7997
  156.2985  140.2347  156.4220 H   0  0  0  0  0  0  0  0  0  0  0  0  # atno 8010 bound_to 7997
  139.5002  144.6127  151.6235 H   0  0  0  0  0  0  0  0  0  0  0  0  # atno 10167 bound_to 10162
  157.6953  131.0316  150.3360 H   0  0  0  0  0  0  0  0  0  0  0  0  # atno 10718 bound_to 10713
  153.0820  135.6621  154.0027 H   0  0  0  0  0  0  0  0  0  0  0  0  # atno 10763 bound_to 10752
  153.9646  135.2970  155.3433 H   0  0  0  0  0  0  0  0  0  0  0  0  # atno 10764 bound_to 10752
  154.7221  135.5160  153.8899 H   0  0  0  0  0  0  0  0  0  0  0  0  # atno 10765 bound_to 10752
  139.9849  134.9535  156.9718 H   0  0  0  0  0  0  0  0  0  0  0  0  # atno 11005 bound_to 11000
  146.3023  140.3959  142.8700 LP  0  0  0  0  0  0  0  0  0  0  0  0  # atno 17320 bound_to 7965
  144.8820  140.7412  143.5981 LP  0  0  0  0  0  0  0  0  0  0  0  0  # atno 17321 bound_to 7965
  140.5806  143.9952  150.6266 LP  0  0  0  0  0  0  0  0  0  0  0  0  # atno 17342 bound_to 10162
  140.3100  143.3204  152.0888 LP  0  0  0  0  0  0  0  0  0  0  0  0  # atno 17343 bound_to 10162
  156.3827  130.3883  149.7089 LP  0  0  0  0  0  0  0  0  0  0  0  0  # atno 17370 bound_to 10713
  156.4466  130.7886  151.2908 LP  0  0  0  0  0  0  0  0  0  0  0  0  # atno 17371 bound_to 10713
  140.5023  134.1085  155.7253 LP  0  0  0  0  0  0  0  0  0  0  0  0  # atno 17394 bound_to 11000
  141.1515  133.8959  157.2085 LP  0  0  0  0  0  0  0  0  0  0  0  0  # atno 17395 bound_to 11000

$$$$
