AV-unprocessed.smi:1218|AV-procd|sdf|5111|dock9
  -GOLD-   22720 4163D 1   1.00000     0.00000
 Structure written by MMmdl.
 44 45  0  0  0  0  0  0  0  0  1 V2000
  151.5413  144.9088  157.9843 C   0  0  0  0  0  0  0  0  0  0  0  0
  151.0156  144.0377  159.1365 C   0  0  0  0  0  0  0  0  0  0  0  0
  150.9761  144.8424  160.4439 C   0  0  0  0  0  0  0  0  0  0  0  0
  151.8606  142.7580  159.3161 C   0  0  0  0  0  0  0  0  0  0  0  0
  151.9340  141.8718  158.1529 N   0  0  0  0  0  0  0  0  0  0  0  0
  150.6824  141.8249  157.3999 C   0  0  0  0  0  0  0  0  0  0  0  0
  150.7659  140.8570  156.2079 C   0  0  0  0  0  0  0  0  0  0  0  0
  151.1364  139.5640  156.6716 O   0  0  0  0  0  0  0  0  0  0  0  0
  152.3889  139.5549  157.3529 C   0  0  2  0  0  0  0  0  0  0  0  0
  152.7106  138.1167  157.7927 C   0  0  0  0  0  0  0  0  0  0  0  0
  151.6081  137.5286  158.5462 N   0  0  0  0  0  0  0  0  0  0  0  0
  151.3800  136.2131  158.6864 C   0  0  0  0  0  0  0  0  0  0  0  0
  152.0800  135.3425  158.1697 O   0  0  0  0  0  0  0  0  0  0  0  0
  150.1835  135.8140  159.5518 C   0  0  0  0  0  0  0  0  0  0  0  0
  150.5492  134.8082  160.5341 N   0  0  0  0  0  0  0  0  0  0  0  0
  150.4635  134.8817  161.9092 C   0  0  0  0  0  0  0  0  0  0  0  0
  150.9184  133.6952  162.4086 C   0  0  0  0  0  0  0  0  0  0  0  0
  151.2613  132.9485  161.2469 C   0  0  0  0  0  0  0  0  0  0  0  0
  151.0399  133.6170  160.1266 N   0  0  0  0  0  0  0  0  0  0  0  0
  152.2948  140.5159  158.5549 C   0  0  0  0  0  0  0  0  0  0  0  0
  152.5717  145.2190  158.1604 H   0  0  0  0  0  0  0  0  0  0  0  0
  150.9384  145.8096  157.8659 H   0  0  0  0  0  0  0  0  0  0  0  0
  151.5127  144.3713  157.0362 H   0  0  0  0  0  0  0  0  0  0  0  0
  149.9859  143.7631  158.9109 H   0  0  0  0  0  0  0  0  0  0  0  0
  151.9742  145.1646  160.7420 H   0  0  0  0  0  0  0  0  0  0  0  0
  150.5604  144.2484  161.2584 H   0  0  0  0  0  0  0  0  0  0  0  0
  150.3559  145.7331  160.3392 H   0  0  0  0  0  0  0  0  0  0  0  0
  152.8708  143.0650  159.5917 H   0  0  0  0  0  0  0  0  0  0  0  0
  151.4824  142.1939  160.1702 H   0  0  0  0  0  0  0  0  0  0  0  0
  149.8667  141.5178  158.0560 H   0  0  0  0  0  0  0  0  0  0  0  0
  150.4266  142.8140  157.0225 H   0  0  0  0  0  0  0  0  0  0  0  0
  149.8018  140.7922  155.7034 H   0  0  0  0  0  0  0  0  0  0  0  0
  151.4901  141.2097  155.4720 H   0  0  0  0  0  0  0  0  0  0  0  0
  153.1692  139.9022  156.6727 H   0  0  0  0  0  0  0  0  0  0  0  0
  152.8759  137.4932  156.9138 H   0  0  0  0  0  0  0  0  0  0  0  0
  153.6387  138.0881  158.3665 H   0  0  0  0  0  0  0  0  0  0  0  0
  150.9769  138.1688  159.0063 H   0  0  0  0  0  0  0  0  0  0  0  0
  149.7950  136.6874  160.0773 H   0  0  0  0  0  0  0  0  0  0  0  0
  149.3786  135.4367  158.9187 H   0  0  0  0  0  0  0  0  0  0  0  0
  150.0912  135.7630  162.4106 H   0  0  0  0  0  0  0  0  0  0  0  0
  150.9935  133.4040  163.4456 H   0  0  0  0  0  0  0  0  0  0  0  0
  151.6610  131.9470  161.1846 H   0  0  0  0  0  0  0  0  0  0  0  0
  153.2524  140.5313  159.0768 H   0  0  0  0  0  0  0  0  0  0  0  0
  151.5594  140.1352  159.2657 H   0  0  0  0  0  0  0  0  0  0  0  0
  1  2  1  0  0  0  0
  1 21  1  0  0  0  0
  1 22  1  0  0  0  0
  1 23  1  0  0  0  0
  2  3  1  0  0  0  0
  2  4  1  0  0  0  0
  2 24  1  0  0  0  0
  3 25  1  0  0  0  0
  3 26  1  0  0  0  0
  3 27  1  0  0  0  0
  4  5  1  0  0  0  0
  4 28  1  0  0  0  0
  4 29  1  0  0  0  0
  5 20  1  0  0  0  0
  5  6  1  0  0  0  0
  6  7  1  0  0  0  0
  6 30  1  0  0  0  0
  6 31  1  0  0  0  0
  7  8  1  0  0  0  0
  7 32  1  0  0  0  0
  7 33  1  0  0  0  0
  8  9  1  0  0  0  0
  9 10  1  0  0  0  0
  9 20  1  0  0  0  0
  9 34  1  0  0  0  0
 10 11  1  0  0  0  0
 10 35  1  0  0  0  0
 10 36  1  0  0  0  0
 11 12  1  0  0  0  0
 11 37  1  0  0  0  0
 12 13  2  0  0  0  0
 12 14  1  0  0  0  0
 14 15  1  0  0  0  0
 14 38  1  0  0  0  0
 14 39  1  0  0  0  0
 15 19  1  0  0  0  0
 15 16  1  0  0  0  0
 16 17  2  0  0  0  0
 16 40  1  0  0  0  0
 17 18  1  0  0  0  0
 17 41  1  0  0  0  0
 18 19  2  0  0  0  0
 18 42  1  0  0  0  0
 20 43  1  0  0  0  0
 20 44  1  0  0  0  0
M  END
> <s_m_source_file>
AV-unprocessed.smi

> <i_m_source_file_index>
1218

> <i_lp_mmshare_version>
43012

> <i_f3d_flags>
0

> <s_epik_input>
W0NIM11bQ0hdKFtDSDNdKVtDSDJdTjFbQ0gyXVtDSDJdT1tDQEhdKFtDSDJdMSlbQ0gyXVtOSF1DKD1PKVtDSDJdbjJbY0hdW2NIXVtjSF1uMg==

> <s_epik_cmdline>
J2VwaWtfcHl0aG9uJywgJy1waCcsICc3LjAnLCAnLXRuJywgJzgnLCAnLW1hJywgJzIwMCcsICctbWV0YWxfYmluZGluZycsICctaW1hZScsICc8aW5maWxlLm1hZT4nLCAnLW9tYWUnLCAnPG91dGZpbGUubWFlPic=

> <r_lp_tautomer_probability>
1

> <r_epik_Ionization_Penalty>
1.10621

> <r_epik_Ionization_Penalty_Charging>
0

> <r_epik_Ionization_Penalty_Neutral>
1.10621

> <r_epik_State_Penalty>
1.16377

> <r_epik_Charging_Adjusted_Penalty>
1.16377

> <i_epik_Tot_Q>
0

> <i_epik_Tot_abs_Q>
0

> <r_epik_Metal_State_Penalty>
1.16377

> <b_epik_Metal_Only>
0

> <s_lp_Force_Field>
OPLS_2005

> <r_lp_Energy>
24.8608

> <b_lp_Chiralities_Consistent>
1

> <s_lp_Variant>
AV-unprocessed.smi:1218-6

> <Gold.Version>
5.8.1

> <Gold.Id.Protein>
6NUR|6NUR_protein|mol2

> <Gold.PLP.Fitness>
47.6753

> <Gold.PLP.PLP>
-45.7044

> <Gold.PLP.part.hbond>
-1.0000

> <Gold.PLP.part.metal>
0.0000

> <Gold.PLP.part.buried>
-6.5129

> <Gold.PLP.part.nonpolar>
-38.7463

> <Gold.PLP.part.repulsive>
0.2121

> <Gold.PLP.ligand.clash>
0.0000

> <Gold.PLP.ligand.torsion>
0.5409

> <Gold.PLP.Chemscore.Hbond>
1.0000

> <Gold.PLP.Chemscore.CHOScore>
0.0000

> <Gold.PLP.Chemscore.Metal>
0.0000

> <Gold.PLP.Chemscore.Internal.Correction>
0.0526

> <Gold.Rescore>
     Score         DG    S(hbond)    S(metal)    S(lipo)     H(rot)  DE(clash)    DE(int)     intcor
     14.28     -16.50       1.00        0.00     107.18       1.90       0.05       2.17       ----

> <Gold.Chemscore.Fitness>
14.2820

> <Gold.Chemscore.DG>
-16.4978

> <Gold.Chemscore.ZeroCoef>
-5.4800

> <Gold.Chemscore.Hbond>
0.9982

> <Gold.Chemscore.Metal>
0.0000

> <Gold.Chemscore.Lipo>
107.1822

> <Gold.Chemscore.Internal_Hbond>
0.0000

> <Gold.Chemscore.DEClash>
0.0492

> <Gold.Chemscore.DEInternal>
2.1666

> <Gold.Chemscore.Rot>
1.8970

> <Gold.Chemscore.Internal.Correction>
   9.000000E+99

> <Gold.Chemscore.Hbond.Weighted>
-3.3338

> <Gold.Chemscore.Metal.Weighted>
-0.0000

> <Gold.Chemscore.Lipo.Weighted>
-12.5403

> <Gold.Chemscore.Internal_Hbond.Weighted>
0.0000

> <Gold.Chemscore.DEClash.Weighted>
0.0492

> <Gold.Chemscore.DEInternal.Weighted>
2.1666

> <Gold.Chemscore.Rot.Weighted>
4.8564

> <Gold.Chemscore.Internal.Correction.Weighted>
   9.000000E+99

> <Gold.Protein.RotatedTorsions>
[ 6907 6896 6895 6894 ] final -168.31 input  -60.11 | X-H torsion
[ 7974 7965 7964 7962 ] final  -53.96 input  175.53 | X-H torsion
[ 8008 7997 7996 7995 ] final  -49.43 input   59.86 | X-H torsion
[ 10167 10162 10161 10158 ] final  -94.65 input  -65.29 | X-H torsion
[ 10718 10713 10712 10709 ] final  155.18 input   66.30 | X-H torsion
[ 10763 10752 10751 10750 ] final  -68.98 input  -60.55 | X-H torsion
[ 11005 11000 10999 10996 ] final  143.97 input  -57.11 | X-H torsion

> <Gold.Protein.ActiveResidues>
 VAL166  LYS551  ARG553  GLY616  TRP617  ASP618  TYR619  PRO620  LYS621  CYS622 
 ASP623  PHE694  ASN695  SER759  ASP760  ASP761  ALA762  ILE779  LEU786  VAL792 
 PHE793  MET794  SER795  GLU796  ALA797  LYS798  CYS799  TRP800  GLU811  SER814 

> <Gold.Protein.RotatedAtoms>
  151.4736  133.3563  159.2826 H   0  0  0  0  0  0  0  0  0  0  0  0  # atno 6907 bound_to 6896
  150.8944  134.8353  159.7327 H   0  0  0  0  0  0  0  0  0  0  0  0  # atno 6908 bound_to 6896
  152.4843  134.4649  159.9669 H   0  0  0  0  0  0  0  0  0  0  0  0  # atno 6909 bound_to 6896
  145.8909  140.8071  142.9792 H   0  0  0  0  0  0  0  0  0  0  0  0  # atno 7974 bound_to 7965
  154.4044  140.1297  156.4501 H   0  0  0  0  0  0  0  0  0  0  0  0  # atno 8008 bound_to 7997
  155.7375  140.3490  155.5068 H   0  0  0  0  0  0  0  0  0  0  0  0  # atno 8009 bound_to 7997
  155.9070  140.1029  157.1298 H   0  0  0  0  0  0  0  0  0  0  0  0  # atno 8010 bound_to 7997
  140.3122  143.3098  152.0136 H   0  0  0  0  0  0  0  0  0  0  0  0  # atno 10167 bound_to 10162
  157.2218  131.0720  151.1908 H   0  0  0  0  0  0  0  0  0  0  0  0  # atno 10718 bound_to 10713
  154.3968  135.6040  153.5874 H   0  0  0  0  0  0  0  0  0  0  0  0  # atno 10763 bound_to 10752
  152.9788  135.5897  154.4232 H   0  0  0  0  0  0  0  0  0  0  0  0  # atno 10764 bound_to 10752
  154.4024  135.2843  155.2066 H   0  0  0  0  0  0  0  0  0  0  0  0  # atno 10765 bound_to 10752
  140.0595  134.9212  157.1159 H   0  0  0  0  0  0  0  0  0  0  0  0  # atno 11005 bound_to 11000
  144.6730  140.1528  143.7428 LP  0  0  0  0  0  0  0  0  0  0  0  0  # atno 17320 bound_to 7965
  145.8909  139.2375  143.1550 LP  0  0  0  0  0  0  0  0  0  0  0  0  # atno 17321 bound_to 7965
  139.4891  144.6375  151.6945 LP  0  0  0  0  0  0  0  0  0  0  0  0  # atno 17342 bound_to 10162
  140.5558  144.0351  150.6147 LP  0  0  0  0  0  0  0  0  0  0  0  0  # atno 17343 bound_to 10162
  157.3568  130.7111  149.6476 LP  0  0  0  0  0  0  0  0  0  0  0  0  # atno 17370 bound_to 10713
  155.9682  130.4237  150.4573 LP  0  0  0  0  0  0  0  0  0  0  0  0  # atno 17371 bound_to 10713
  140.3792  134.2306  155.7172 LP  0  0  0  0  0  0  0  0  0  0  0  0  # atno 17394 bound_to 11000
  141.1967  133.8077  157.0661 LP  0  0  0  0  0  0  0  0  0  0  0  0  # atno 17395 bound_to 11000

$$$$
