AV-unprocessed.smi:1487|AV-procd|sdf|6010|dock3
  -GOLD-   22720 6113D 1   1.00000     0.00000
 Structure written by MMmdl.
 48 50  0  0  0  0  0  0  0  0  2 V2000
  153.0262  142.8716  161.1862 C   0  0  0  0  0  0  0  0  0  0  0  0
  152.3813  142.4995  159.8627 C   0  0  0  0  0  0  0  0  0  0  0  0
  152.7861  141.3123  159.2119 C   0  0  0  0  0  0  0  0  0  0  0  0
  152.2107  140.9291  157.9808 C   0  0  0  0  0  0  0  0  0  0  0  0
  152.4527  139.8261  157.1799 N   0  0  0  0  0  0  0  0  0  0  0  0
  151.6062  140.0324  156.1758 C   0  0  0  0  0  0  0  0  0  0  0  0
  150.8468  141.1439  156.2283 N   0  0  0  0  0  0  0  0  0  0  0  0
  149.8606  141.5781  155.2552 C   0  0  0  0  0  0  0  0  0  0  0  0
  148.8027  140.4967  154.9627 C   0  0  1  0  0  0  0  0  0  0  0  0
  147.5700  141.1191  154.6547 O   0  0  0  0  0  0  0  0  0  0  0  0
  149.2166  139.6073  153.7737 C   0  0  0  0  0  0  0  0  0  0  0  0
  148.2241  138.5412  153.4816 N   0  3  2  0  0  0  0  0  0  0  0  0
  147.1292  138.9848  152.5787 C   0  0  0  0  0  0  0  0  0  0  0  0
  146.2317  137.8028  152.1805 C   0  0  0  0  0  0  0  0  0  0  0  0
  145.6543  137.1068  153.4211 C   0  0  0  0  0  0  0  0  0  0  0  0
  146.7705  136.7171  154.4046 C   0  0  1  0  0  0  0  0  0  0  0  0
  147.5356  135.6467  153.8868 O   0  0  0  0  0  0  0  0  0  0  0  0
  147.6959  137.9088  154.7196 C   0  0  0  0  0  0  0  0  0  0  0  0
  151.2108  141.7727  157.4141 C   0  0  0  0  0  0  0  0  0  0  0  0
  150.7989  142.9560  158.0522 C   0  0  0  0  0  0  0  0  0  0  0  0
  151.3846  143.3241  159.2817 C   0  0  0  0  0  0  0  0  0  0  0  0
  150.9349  144.6043  159.9635 C   0  0  0  0  0  0  0  0  0  0  0  0
  153.8062  142.1615  161.4626 H   0  0  0  0  0  0  0  0  0  0  0  0
  152.2822  142.8788  161.9831 H   0  0  0  0  0  0  0  0  0  0  0  0
  153.4814  143.8605  161.1277 H   0  0  0  0  0  0  0  0  0  0  0  0
  153.5443  140.6832  159.6544 H   0  0  0  0  0  0  0  0  0  0  0  0
  151.5366  139.3375  155.3515 H   0  0  0  0  0  0  0  0  0  0  0  0
  149.3851  142.4886  155.6235 H   0  0  0  0  0  0  0  0  0  0  0  0
  150.3854  141.8499  154.3385 H   0  0  0  0  0  0  0  0  0  0  0  0
  148.6642  139.8956  155.8607 H   0  0  0  0  0  0  0  0  0  0  0  0
  147.7052  142.0548  154.6244 H   0  0  0  0  0  0  0  0  0  0  0  0
  149.3417  140.2456  152.8974 H   0  0  0  0  0  0  0  0  0  0  0  0
  150.1906  139.1504  153.9561 H   0  0  0  0  0  0  0  0  0  0  0  0
  146.5371  139.7564  153.0737 H   0  0  0  0  0  0  0  0  0  0  0  0
  147.5378  139.4351  151.6750 H   0  0  0  0  0  0  0  0  0  0  0  0
  145.4206  138.1506  151.5398 H   0  0  0  0  0  0  0  0  0  0  0  0
  146.8067  137.0891  151.5891 H   0  0  0  0  0  0  0  0  0  0  0  0
  144.9606  137.7856  153.9187 H   0  0  0  0  0  0  0  0  0  0  0  0
  145.0723  136.2309  153.1315 H   0  0  0  0  0  0  0  0  0  0  0  0
  146.3197  136.3626  155.3322 H   0  0  0  0  0  0  0  0  0  0  0  0
  147.8967  135.9093  153.0532 H   0  0  0  0  0  0  0  0  0  0  0  0
  148.5204  137.5724  155.3503 H   0  0  0  0  0  0  0  0  0  0  0  0
  147.1491  138.6587  155.2938 H   0  0  0  0  0  0  0  0  0  0  0  0
  150.0383  143.5746  157.5996 H   0  0  0  0  0  0  0  0  0  0  0  0
  150.1405  145.0969  159.4024 H   0  0  0  0  0  0  0  0  0  0  0  0
  151.7675  145.3030  160.0491 H   0  0  0  0  0  0  0  0  0  0  0  0
  150.5555  144.3928  160.9636 H   0  0  0  0  0  0  0  0  0  0  0  0
  148.7301  137.8128  152.9968 H   0  0  0  0  0  0  0  0  0  0  0  0
  1  2  1  0  0  0  0
  1 23  1  0  0  0  0
  1 24  1  0  0  0  0
  1 25  1  0  0  0  0
  2 21  1  0  0  0  0
  2  3  2  0  0  0  0
  3  4  1  0  0  0  0
  3 26  1  0  0  0  0
  4 19  2  0  0  0  0
  4  5  1  0  0  0  0
  5  6  2  0  0  0  0
  6  7  1  0  0  0  0
  6 27  1  0  0  0  0
  7  8  1  0  0  0  0
  7 19  1  0  0  0  0
  8  9  1  0  0  0  0
  8 28  1  0  0  0  0
  8 29  1  0  0  0  0
  9 10  1  0  0  0  0
  9 11  1  0  0  0  0
  9 30  1  0  0  0  0
 10 31  1  0  0  0  0
 11 12  1  0  0  0  0
 11 32  1  0  0  0  0
 11 33  1  0  0  0  0
 12 18  1  0  0  0  0
 12 13  1  0  0  0  0
 12 48  1  0  0  0  0
 13 14  1  0  0  0  0
 13 34  1  0  0  0  0
 13 35  1  0  0  0  0
 14 15  1  0  0  0  0
 14 36  1  0  0  0  0
 14 37  1  0  0  0  0
 15 16  1  0  0  0  0
 15 38  1  0  0  0  0
 15 39  1  0  0  0  0
 16 17  1  0  0  0  0
 16 18  1  0  0  0  0
 16 40  1  0  0  0  0
 17 41  1  0  0  0  0
 18 42  1  0  0  0  0
 18 43  1  0  0  0  0
 19 20  1  0  0  0  0
 20 21  2  0  0  0  0
 20 44  1  0  0  0  0
 21 22  1  0  0  0  0
 22 45  1  0  0  0  0
 22 46  1  0  0  0  0
 22 47  1  0  0  0  0
M  CHG  1  12   1
M  END
> <s_m_source_file>
AV-unprocessed.smi

> <i_m_source_file_index>
1487

> <i_lp_mmshare_version>
43012

> <i_f3d_flags>
0

> <s_epik_input>
W0NIM11jKFtjSF0xKWMoW0NIM10pW2NIXWMoYzEyKW4oW2NIXW4yKVtDSDJdW0NASF0oW09IXSlbQ0gyXU4zW0NIMl1bQ0gyXVtDSDJdW0NAQEhdKFtPSF0pW0NIMl0z

> <s_epik_cmdline>
J2VwaWtfcHl0aG9uJywgJy1waCcsICc3LjAnLCAnLXRuJywgJzgnLCAnLW1hJywgJzIwMCcsICctbWV0YWxfYmluZGluZycsICctaW1hZScsICc8aW5maWxlLm1hZT4nLCAnLW9tYWUnLCAnPG91dGZpbGUubWFlPic=

> <r_epik_Ionization_Penalty>
0.0940186

> <r_epik_Ionization_Penalty_Charging>
0.00679686

> <r_epik_Ionization_Penalty_Neutral>
0.0872218

> <r_epik_State_Penalty>
0.0799311

> <r_epik_Charging_Adjusted_Penalty>
0.086728

> <i_epik_Tot_Q>
1

> <i_epik_Tot_abs_Q>
1

> <r_epik_Metal_State_Penalty>
7.95545e-05

> <b_epik_Metal_Only>
0

> <s_lp_Force_Field>
OPLS_2005

> <r_lp_Energy>
21.7982

> <b_lp_Chiralities_Consistent>
1

> <s_lp_Variant>
AV-unprocessed.smi:1487-4

> <Gold.Version>
5.8.1

> <Gold.Id.Protein>
6NUR|6NUR_protein|mol2

> <Gold.PLP.Fitness>
52.2553

> <Gold.PLP.PLP>
-41.5456

> <Gold.PLP.part.hbond>
-3.9940

> <Gold.PLP.part.metal>
0.0000

> <Gold.PLP.part.buried>
1.5261

> <Gold.PLP.part.nonpolar>
-38.4642

> <Gold.PLP.part.repulsive>
0.0374

> <Gold.PLP.ligand.clash>
0.0000

> <Gold.PLP.ligand.torsion>
0.6659

> <Gold.PLP.Chemscore.Hbond>
4.0000

> <Gold.PLP.Chemscore.CHOScore>
0.0000

> <Gold.PLP.Chemscore.Metal>
0.0000

> <Gold.Chemscore.Hbonds>
donor molecule, donor type, donor heavy atom, donor atom, acceptor molecule, acceptor atom, score
      L1  H    12    48       P1  7948  2.00
      L1  H    17    41       P1  7948  1.00
      P1  H  7997  8008       L1     5  1.00

> <Gold.PLP.Chemscore.Internal.Correction>
0.0415

> <Gold.Rescore>
     Score         DG    S(hbond)    S(metal)    S(lipo)     H(rot)  DE(clash)    DE(int)     intcor
     18.21     -20.46       2.67        0.00     110.43       2.67       1.56       0.70       ----

> <Gold.Chemscore.Fitness>
18.2071

> <Gold.Chemscore.DG>
-20.4636

> <Gold.Chemscore.ZeroCoef>
-5.4800

> <Gold.Chemscore.Hbond>
2.6651

> <Gold.Chemscore.Metal>
0.0000

> <Gold.Chemscore.Lipo>
110.4310

> <Gold.Chemscore.Internal_Hbond>
0.0000

> <Gold.Chemscore.DEClash>
1.5562

> <Gold.Chemscore.DEInternal>
0.7004

> <Gold.Chemscore.Rot>
2.6712

> <Gold.Chemscore.Internal.Correction>
   9.000000E+99

> <Gold.Chemscore.Hbonds>
donor molecule, donor type, donor heavy atom, donor atom, acceptor molecule, acceptor atom, score
      L1  H    12    48       P1  7948  0.98
      L1  H    17    41       P1  7948  0.99
      P1  H  7997  8008       L1     5  0.30

> <Gold.Chemscore.Hbond.Weighted>
-8.9015

> <Gold.Chemscore.Metal.Weighted>
-0.0000

> <Gold.Chemscore.Lipo.Weighted>
-12.9204

> <Gold.Chemscore.Internal_Hbond.Weighted>
0.0000

> <Gold.Chemscore.DEClash.Weighted>
1.5562

> <Gold.Chemscore.DEInternal.Weighted>
0.7004

> <Gold.Chemscore.Rot.Weighted>
6.8383

> <Gold.Chemscore.Internal.Correction.Weighted>
   9.000000E+99

> <Gold.Protein.RotatedTorsions>
[ 6907 6896 6895 6894 ] final  170.66 input  -60.11 | X-H torsion
[ 7974 7965 7964 7962 ] final   67.11 input  175.53 | X-H torsion
[ 8008 7997 7996 7995 ] final  -57.08 input   59.86 | X-H torsion
[ 10167 10162 10161 10158 ] final  -68.89 input  -65.29 | X-H torsion
[ 10718 10713 10712 10709 ] final  -79.02 input   66.30 | X-H torsion
[ 10763 10752 10751 10750 ] final   -7.47 input  -60.55 | X-H torsion
[ 11005 11000 10999 10996 ] final  -78.93 input  -57.11 | X-H torsion

> <Gold.Protein.ActiveResidues>
 VAL166  LYS551  ARG553  GLY616  TRP617  ASP618  TYR619  PRO620  LYS621  CYS622 
 ASP623  PHE694  ASN695  SER759  ASP760  ASP761  ALA762  ILE779  LEU786  VAL792 
 PHE793  MET794  SER795  GLU796  ALA797  LYS798  CYS799  TRP800  GLU811  SER814 

> <Gold.Protein.RotatedAtoms>
  151.8125  133.3383  159.3559 H   0  0  0  0  0  0  0  0  0  0  0  0  # atno 6907 bound_to 6896
  150.7321  134.5650  159.5871 H   0  0  0  0  0  0  0  0  0  0  0  0  # atno 6908 bound_to 6896
  152.3065  134.7550  160.0397 H   0  0  0  0  0  0  0  0  0  0  0  0  # atno 6909 bound_to 6896
  145.8186  139.3072  143.1056 H   0  0  0  0  0  0  0  0  0  0  0  0  # atno 7974 bound_to 7965
  154.4254  140.1115  156.5740 H   0  0  0  0  0  0  0  0  0  0  0  0  # atno 8008 bound_to 7997
  155.6182  140.3495  155.4625 H   0  0  0  0  0  0  0  0  0  0  0  0  # atno 8009 bound_to 7997
  156.0045  140.1206  157.0504 H   0  0  0  0  0  0  0  0  0  0  0  0  # atno 8010 bound_to 7997
  140.5473  143.2312  151.6978 H   0  0  0  0  0  0  0  0  0  0  0  0  # atno 10167 bound_to 10162
  156.0103  130.4534  150.3584 H   0  0  0  0  0  0  0  0  0  0  0  0  # atno 10718 bound_to 10713
  153.4267  135.7011  153.6257 H   0  0  0  0  0  0  0  0  0  0  0  0  # atno 10763 bound_to 10752
  153.4689  135.3719  155.2380 H   0  0  0  0  0  0  0  0  0  0  0  0  # atno 10764 bound_to 10752
  154.8724  135.4038  154.3645 H   0  0  0  0  0  0  0  0  0  0  0  0  # atno 10765 bound_to 10752
  141.1666  133.7084  156.8046 H   0  0  0  0  0  0  0  0  0  0  0  0  # atno 11005 bound_to 11000
  145.9699  140.8768  143.0167 LP  0  0  0  0  0  0  0  0  0  0  0  0  # atno 17320 bound_to 7965
  144.6750  140.1931  143.7394 LP  0  0  0  0  0  0  0  0  0  0  0  0  # atno 17321 bound_to 7965
  139.5012  144.3875  152.0314 LP  0  0  0  0  0  0  0  0  0  0  0  0  # atno 17342 bound_to 10162
  140.2988  144.3670  150.6066 LP  0  0  0  0  0  0  0  0  0  0  0  0  # atno 17343 bound_to 10162
  157.1674  131.0360  151.2812 LP  0  0  0  0  0  0  0  0  0  0  0  0  # atno 17370 bound_to 10713
  157.4259  130.7463  149.6950 LP  0  0  0  0  0  0  0  0  0  0  0  0  # atno 17371 bound_to 10713
  140.2231  134.8742  157.3398 LP  0  0  0  0  0  0  0  0  0  0  0  0  # atno 17394 bound_to 11000
  140.1967  134.4305  155.7685 LP  0  0  0  0  0  0  0  0  0  0  0  0  # atno 17395 bound_to 11000

$$$$
