AV-unprocessed.smi:1868|AV-procd|sdf|7588|dock4
  -GOLD-   22720 9303D 1   1.00000     0.00000
 Structure written by MMmdl.
 48 50  0  0  0  0  0  0  0  0  3 V2000
  154.6670  139.8903  161.9515 C   0  0  0  0  0  0  0  0  0  0  0  0
  153.8584  141.0471  161.4680 C   0  0  0  0  0  0  0  0  0  0  0  0
  153.3890  142.0714  162.2346 N   0  3  0  0  0  0  0  0  0  0  0  0
  152.6775  142.9701  161.4386 C   0  0  0  0  0  0  0  0  0  0  0  0
  152.0224  144.1540  161.7626 C   0  0  0  0  0  0  0  0  0  0  0  0
  151.3904  144.8377  160.7032 C   0  0  0  0  0  0  0  0  0  0  0  0
  151.4245  144.3402  159.3840 C   0  0  0  0  0  0  0  0  0  0  0  0
  152.0916  143.1381  159.0676 C   0  0  0  0  0  0  0  0  0  0  0  0
  152.7136  142.4688  160.1211 C   0  0  0  0  0  0  0  0  0  0  0  0
  153.4500  141.2807  160.1871 N   0  0  0  0  0  0  0  0  0  0  0  0
  153.6747  140.5044  158.9575 C   0  0  0  0  0  0  0  0  0  0  0  0
  152.3696  140.1544  158.2140 C   0  0  2  0  0  0  0  0  0  0  0  0
  151.7324  139.0823  158.8831 O   0  0  0  0  0  0  0  0  0  0  0  0
  152.6505  139.7461  156.7526 C   0  0  0  0  0  0  0  0  0  0  0  0
  151.5677  140.1395  155.8133 N   0  3  2  0  0  0  0  0  0  0  0  0
  150.8610  141.3679  156.2603 C   0  0  0  0  0  0  0  0  0  0  0  0
  149.8406  141.8384  155.2103 C   0  0  0  0  0  0  0  0  0  0  0  0
  148.8264  140.7306  154.8814 C   0  0  1  0  0  0  0  0  0  0  0  0
  147.8206  141.1785  153.8118 C   0  0  0  0  0  0  0  0  0  0  0  0
  149.5848  139.4625  154.4557 C   0  0  0  0  0  0  0  0  0  0  0  0
  150.6100  139.0393  155.5213 C   0  0  0  0  0  0  0  0  0  0  0  0
  154.8829  139.9914  163.0155 H   0  0  0  0  0  0  0  0  0  0  0  0
  155.6120  139.8382  161.4106 H   0  0  0  0  0  0  0  0  0  0  0  0
  154.1233  138.9586  161.7951 H   0  0  0  0  0  0  0  0  0  0  0  0
  151.9959  144.5380  162.7719 H   0  0  0  0  0  0  0  0  0  0  0  0
  150.8700  145.7626  160.9063 H   0  0  0  0  0  0  0  0  0  0  0  0
  150.9300  144.8936  158.5988 H   0  0  0  0  0  0  0  0  0  0  0  0
  152.1128  142.7667  158.0540 H   0  0  0  0  0  0  0  0  0  0  0  0
  154.3499  141.0702  158.3144 H   0  0  0  0  0  0  0  0  0  0  0  0
  154.2088  139.5945  159.2334 H   0  0  0  0  0  0  0  0  0  0  0  0
  151.7077  141.0183  158.2521 H   0  0  0  0  0  0  0  0  0  0  0  0
  151.6576  138.3500  158.2907 H   0  0  0  0  0  0  0  0  0  0  0  0
  153.5909  140.1808  156.4098 H   0  0  0  0  0  0  0  0  0  0  0  0
  152.7898  138.6639  156.7207 H   0  0  0  0  0  0  0  0  0  0  0  0
  150.3625  141.1770  157.2119 H   0  0  0  0  0  0  0  0  0  0  0  0
  151.5829  142.1665  156.4355 H   0  0  0  0  0  0  0  0  0  0  0  0
  149.3206  142.7247  155.5761 H   0  0  0  0  0  0  0  0  0  0  0  0
  150.3656  142.1419  154.3032 H   0  0  0  0  0  0  0  0  0  0  0  0
  148.2648  140.5025  155.7886 H   0  0  0  0  0  0  0  0  0  0  0  0
  148.3202  141.4234  152.8739 H   0  0  0  0  0  0  0  0  0  0  0  0
  147.2697  142.0620  154.1359 H   0  0  0  0  0  0  0  0  0  0  0  0
  147.0915  140.3944  153.6058 H   0  0  0  0  0  0  0  0  0  0  0  0
  148.8809  138.6477  154.2821 H   0  0  0  0  0  0  0  0  0  0  0  0
  150.0957  139.6351  153.5071 H   0  0  0  0  0  0  0  0  0  0  0  0
  151.1380  138.1559  155.1655 H   0  0  0  0  0  0  0  0  0  0  0  0
  150.0958  138.7494  156.4390 H   0  0  0  0  0  0  0  0  0  0  0  0
  152.0181  140.3803  154.9421 H   0  0  0  0  0  0  0  0  0  0  0  0
  153.5463  142.1487  163.2312 H   0  0  0  0  0  0  0  0  0  0  0  0
  1  2  1  0  0  0  0
  1 22  1  0  0  0  0
  1 23  1  0  0  0  0
  1 24  1  0  0  0  0
  2 10  1  0  0  0  0
  2  3  2  0  0  0  0
  3  4  1  0  0  0  0
  3 48  1  0  0  0  0
  4  9  2  0  0  0  0
  4  5  1  0  0  0  0
  5  6  2  0  0  0  0
  5 25  1  0  0  0  0
  6  7  1  0  0  0  0
  6 26  1  0  0  0  0
  7  8  2  0  0  0  0
  7 27  1  0  0  0  0
  8  9  1  0  0  0  0
  8 28  1  0  0  0  0
  9 10  1  0  0  0  0
 10 11  1  0  0  0  0
 11 12  1  0  0  0  0
 11 29  1  0  0  0  0
 11 30  1  0  0  0  0
 12 13  1  0  0  0  0
 12 14  1  0  0  0  0
 12 31  1  0  0  0  0
 13 32  1  0  0  0  0
 14 15  1  0  0  0  0
 14 33  1  0  0  0  0
 14 34  1  0  0  0  0
 15 21  1  0  0  0  0
 15 16  1  0  0  0  0
 15 47  1  0  0  0  0
 16 17  1  0  0  0  0
 16 35  1  0  0  0  0
 16 36  1  0  0  0  0
 17 18  1  0  0  0  0
 17 37  1  0  0  0  0
 17 38  1  0  0  0  0
 18 19  1  0  0  0  0
 18 20  1  0  0  0  0
 18 39  1  0  0  0  0
 19 40  1  0  0  0  0
 19 41  1  0  0  0  0
 19 42  1  0  0  0  0
 20 21  1  0  0  0  0
 20 43  1  0  0  0  0
 20 44  1  0  0  0  0
 21 45  1  0  0  0  0
 21 46  1  0  0  0  0
M  CHG  1   3   1
M  CHG  1  15   1
M  END
> <s_m_source_file>
AV-unprocessed.smi

> <i_m_source_file_index>
1868

> <i_lp_mmshare_version>
43012

> <i_f3d_flags>
0

> <s_epik_input>
W2NIXTFbY0hdW2NIXVtjSF1jKGMxMiluKGMobjIpW0NIM10pW0NIMl1bQ0BIXShbT0hdKVtDSDJdTjNbQ0gyXVtDSDJdW0NIXShbQ0gzXSlbQ0gyXVtDSDJdMw==

> <s_epik_cmdline>
J2VwaWtfcHl0aG9uJywgJy1waCcsICc3LjAnLCAnLXRuJywgJzgnLCAnLW1hJywgJzIwMCcsICctbWV0YWxfYmluZGluZycsICctaW1hZScsICc8aW5maWxlLm1hZT4nLCAnLW9tYWUnLCAnPG91dGZpbGUubWFlPic=

> <r_epik_Ionization_Penalty>
1.10901

> <r_epik_Ionization_Penalty_Charging>
1.10901

> <r_epik_Ionization_Penalty_Neutral>
6.90208e-07

> <r_epik_State_Penalty>
1.18788

> <r_epik_Charging_Adjusted_Penalty>
2.29689

> <i_epik_Tot_Q>
2

> <i_epik_Tot_abs_Q>
2

> <r_epik_Metal_State_Penalty>
5.19353

> <b_epik_Metal_Only>
0

> <s_lp_Force_Field>
OPLS_2005

> <r_lp_Energy>
30.2902

> <b_lp_Chiralities_Consistent>
1

> <s_lp_Variant>
AV-unprocessed.smi:1868-5

> <Gold.Version>
5.8.1

> <Gold.Id.Protein>
6NUR|6NUR_protein|mol2

> <Gold.PLP.Fitness>
45.7317

> <Gold.PLP.PLP>
-47.8015

> <Gold.PLP.part.hbond>
0.0000

> <Gold.PLP.part.metal>
0.0000

> <Gold.PLP.part.buried>
-4.1383

> <Gold.PLP.part.nonpolar>
-44.2979

> <Gold.PLP.part.repulsive>
0.1813

> <Gold.PLP.ligand.clash>
0.0000

> <Gold.PLP.ligand.torsion>
1.0571

> <Gold.PLP.Chemscore.Hbond>
0.0000

> <Gold.PLP.Chemscore.CHOScore>
0.0000

> <Gold.PLP.Chemscore.Metal>
0.0000

> <Gold.PLP.Chemscore.Internal.Correction>
0.0443

> <Gold.Rescore>
     Score         DG    S(hbond)    S(metal)    S(lipo)     H(rot)  DE(clash)    DE(int)     intcor
     14.59     -15.41       0.00        0.00     128.33       1.99       0.19       0.63       ----

> <Gold.Chemscore.Fitness>
14.5860

> <Gold.Chemscore.DG>
-15.4093

> <Gold.Chemscore.ZeroCoef>
-5.4800

> <Gold.Chemscore.Hbond>
0.0000

> <Gold.Chemscore.Metal>
0.0000

> <Gold.Chemscore.Lipo>
128.3278

> <Gold.Chemscore.Internal_Hbond>
0.0000

> <Gold.Chemscore.DEClash>
0.1928

> <Gold.Chemscore.DEInternal>
0.6305

> <Gold.Chemscore.Rot>
1.9863

> <Gold.Chemscore.Internal.Correction>
   9.000000E+99

> <Gold.Chemscore.Hbond.Weighted>
-0.0000

> <Gold.Chemscore.Metal.Weighted>
-0.0000

> <Gold.Chemscore.Lipo.Weighted>
-15.0143

> <Gold.Chemscore.Internal_Hbond.Weighted>
0.0000

> <Gold.Chemscore.DEClash.Weighted>
0.1928

> <Gold.Chemscore.DEInternal.Weighted>
0.6305

> <Gold.Chemscore.Rot.Weighted>
5.0850

> <Gold.Chemscore.Internal.Correction.Weighted>
   9.000000E+99

> <Gold.Protein.RotatedTorsions>
[ 6907 6896 6895 6894 ] final   18.46 input  -60.11 | X-H torsion
[ 7974 7965 7964 7962 ] final   15.99 input  175.53 | X-H torsion
[ 8008 7997 7996 7995 ] final  -78.79 input   59.86 | X-H torsion
[ 10167 10162 10161 10158 ] final  115.76 input  -65.29 | X-H torsion
[ 10718 10713 10712 10709 ] final  -50.30 input   66.30 | X-H torsion
[ 10763 10752 10751 10750 ] final  103.12 input  -60.55 | X-H torsion
[ 11005 11000 10999 10996 ] final   84.71 input  -57.11 | X-H torsion

> <Gold.Protein.ActiveResidues>
 VAL166  LYS551  ARG553  GLY616  TRP617  ASP618  TYR619  PRO620  LYS621  CYS622 
 ASP623  PHE694  ASN695  SER759  ASP760  ASP761  ALA762  ILE779  LEU786  VAL792 
 PHE793  MET794  SER795  GLU796  ALA797  LYS798  CYS799  TRP800  GLU811  SER814 

> <Gold.Protein.RotatedAtoms>
  151.8656  135.0508  160.0473 H   0  0  0  0  0  0  0  0  0  0  0  0  # atno 6907 bound_to 6896
  152.2628  133.5308  159.5400 H   0  0  0  0  0  0  0  0  0  0  0  0  # atno 6908 bound_to 6896
  150.7123  134.0722  159.3910 H   0  0  0  0  0  0  0  0  0  0  0  0  # atno 6909 bound_to 6896
  146.2263  139.8813  142.8570 H   0  0  0  0  0  0  0  0  0  0  0  0  # atno 7974 bound_to 7965
  154.5723  140.0688  156.8983 H   0  0  0  0  0  0  0  0  0  0  0  0  # atno 8008 bound_to 7997
  155.2611  140.3358  155.4255 H   0  0  0  0  0  0  0  0  0  0  0  0  # atno 8009 bound_to 7997
  156.2128  140.1766  156.7642 H   0  0  0  0  0  0  0  0  0  0  0  0  # atno 8010 bound_to 7997
  139.6294  144.7113  151.2464 H   0  0  0  0  0  0  0  0  0  0  0  0  # atno 10167 bound_to 10162
  156.1813  130.4150  149.9503 H   0  0  0  0  0  0  0  0  0  0  0  0  # atno 10718 bound_to 10713
  153.3485  135.3987  155.1627 H   0  0  0  0  0  0  0  0  0  0  0  0  # atno 10763 bound_to 10752
  154.8657  135.3651  154.5253 H   0  0  0  0  0  0  0  0  0  0  0  0  # atno 10764 bound_to 10752
  153.5703  135.7079  153.5567 H   0  0  0  0  0  0  0  0  0  0  0  0  # atno 10765 bound_to 10752
  139.8992  134.8235  156.2482 H   0  0  0  0  0  0  0  0  0  0  0  0  # atno 11005 bound_to 11000
  145.2509  141.0043  143.3881 LP  0  0  0  0  0  0  0  0  0  0  0  0  # atno 17320 bound_to 7965
  144.9375  139.4227  143.6465 LP  0  0  0  0  0  0  0  0  0  0  0  0  # atno 17321 bound_to 7965
  140.7430  143.6507  150.8251 LP  0  0  0  0  0  0  0  0  0  0  0  0  # atno 17342 bound_to 10162
  140.0130  143.5622  152.2831 LP  0  0  0  0  0  0  0  0  0  0  0  0  # atno 17343 bound_to 10162
  156.7272  130.9029  151.3623 LP  0  0  0  0  0  0  0  0  0  0  0  0  # atno 17370 bound_to 10713
  157.6870  130.9195  150.0412 LP  0  0  0  0  0  0  0  0  0  0  0  0  # atno 17371 bound_to 10713
  141.0241  133.7025  156.1317 LP  0  0  0  0  0  0  0  0  0  0  0  0  # atno 17394 bound_to 11000
  140.7192  134.4377  157.5576 LP  0  0  0  0  0  0  0  0  0  0  0  0  # atno 17395 bound_to 11000

$$$$
