AV-unprocessed.smi:1768|AV-procd|sdf|7150|dock5
  -GOLD-   22720 8393D 1   1.00000     0.00000
 Structure written by MMmdl.
 32 33  0  0  0  0  0  0  0  0  2 V2000
  150.0974  135.0686  154.8187 C   0  0  0  0  0  0  0  0  0  0  0  0
  150.9472  136.1891  155.3118 C   0  0  0  0  0  0  0  0  0  0  0  0
  152.0394  135.9933  156.0543 N   0  0  0  0  0  0  0  0  0  0  0  0
  152.6640  137.1858  156.3901 N   0  0  0  0  0  0  0  0  0  0  0  0
  152.0330  138.2646  155.9051 C   0  0  0  0  0  0  0  0  0  0  0  0
  152.4778  139.5144  156.1159 N   0  5  0  0  0  0  0  0  0  0  0  0
  151.6066  140.5490  156.1274 C   0  0  0  0  0  0  0  0  0  0  0  0
  150.6989  140.7460  155.3165 O   0  0  0  0  0  0  0  0  0  0  0  0
  151.8084  141.4099  157.1361 N   0  0  0  0  0  0  0  0  0  0  0  0
  151.0469  142.6271  157.4158 C   0  0  1  0  0  0  0  0  0  0  0  0
  149.6774  142.2311  157.9868 C   0  0  0  0  0  0  0  0  0  0  0  0
  151.8266  143.5403  158.3843 C   0  0  1  0  0  0  0  0  0  0  0  0
  151.1854  144.9017  158.6553 C   0  0  0  0  0  0  0  0  0  0  0  0
  151.7923  145.3129  159.9853 C   0  0  0  0  0  0  0  0  0  0  0  0
  152.2790  143.9939  160.5931 C   0  0  0  0  0  0  0  0  0  0  0  0
  151.8673  142.9780  159.6871 O   0  0  0  0  0  0  0  0  0  0  0  0
  150.5985  137.8726  154.9570 S   0  0  0  0  0  0  0  0  0  0  0  0
  149.8920  134.3675  155.6279 H   0  0  0  0  0  0  0  0  0  0  0  0
  150.6094  134.5389  154.0152 H   0  0  0  0  0  0  0  0  0  0  0  0
  149.1495  135.4500  154.4391 H   0  0  0  0  0  0  0  0  0  0  0  0
  152.5654  141.1988  157.7692 H   0  0  0  0  0  0  0  0  0  0  0  0
  150.8678  143.1749  156.4891 H   0  0  0  0  0  0  0  0  0  0  0  0
  149.0604  143.1095  158.1771 H   0  0  0  0  0  0  0  0  0  0  0  0
  149.7804  141.6870  158.9263 H   0  0  0  0  0  0  0  0  0  0  0  0
  149.1321  141.5933  157.2902 H   0  0  0  0  0  0  0  0  0  0  0  0
  152.8501  143.6807  158.0306 H   0  0  0  0  0  0  0  0  0  0  0  0
  151.3716  145.6254  157.8611 H   0  0  0  0  0  0  0  0  0  0  0  0
  150.1056  144.7925  158.7652 H   0  0  0  0  0  0  0  0  0  0  0  0
  152.6319  145.9930  159.8368 H   0  0  0  0  0  0  0  0  0  0  0  0
  151.0608  145.8147  160.6194 H   0  0  0  0  0  0  0  0  0  0  0  0
  153.3667  143.9873  160.6744 H   0  0  0  0  0  0  0  0  0  0  0  0
  151.8632  143.8144  161.5847 H   0  0  0  0  0  0  0  0  0  0  0  0
  1  2  1  0  0  0  0
  1 18  1  0  0  0  0
  1 19  1  0  0  0  0
  1 20  1  0  0  0  0
  2 17  1  0  0  0  0
  2  3  2  0  0  0  0
  3  4  1  0  0  0  0
  4  5  2  0  0  0  0
  5  6  1  0  0  0  0
  5 17  1  0  0  0  0
  6  7  1  0  0  0  0
  7  8  2  0  0  0  0
  7  9  1  0  0  0  0
  9 10  1  0  0  0  0
  9 21  1  0  0  0  0
 10 11  1  0  0  0  0
 10 12  1  0  0  0  0
 10 22  1  0  0  0  0
 11 23  1  0  0  0  0
 11 24  1  0  0  0  0
 11 25  1  0  0  0  0
 12 16  1  0  0  0  0
 12 13  1  0  0  0  0
 12 26  1  0  0  0  0
 13 14  1  0  0  0  0
 13 27  1  0  0  0  0
 13 28  1  0  0  0  0
 14 15  1  0  0  0  0
 14 29  1  0  0  0  0
 14 30  1  0  0  0  0
 15 16  1  0  0  0  0
 15 31  1  0  0  0  0
 15 32  1  0  0  0  0
M  CHG  1   6  -1
M  END
> <s_m_source_file>
AV-unprocessed.smi

> <i_m_source_file_index>
1768

> <i_lp_mmshare_version>
43012

> <i_f3d_flags>
0

> <s_epik_input>
W0NIM11jMW5uYyhzMSlbTkhdQyg9TylbTkhdW0NASF0oW0NIM10pW0NAQEhdMltDSDJdW0NIMl1bQ0gyXU8y

> <s_epik_cmdline>
J2VwaWtfcHl0aG9uJywgJy1waCcsICc3LjAnLCAnLXRuJywgJzgnLCAnLW1hJywgJzIwMCcsICctbWV0YWxfYmluZGluZycsICctaW1hZScsICc8aW5maWxlLm1hZT4nLCAnLW9tYWUnLCAnPG91dGZpbGUubWFlPic=

> <r_lp_tautomer_probability>
1

> <r_epik_Ionization_Penalty>
4.3376

> <r_epik_Ionization_Penalty_Charging>
4.19392

> <r_epik_Ionization_Penalty_Neutral>
0.143681

> <r_epik_State_Penalty>
4.19342

> <r_epik_Charging_Adjusted_Penalty>
8.38735

> <i_epik_Tot_Q>
-1

> <i_epik_Tot_abs_Q>
1

> <r_epik_Metal_State_Penalty>
0.686065

> <b_epik_Metal_Only>
1

> <s_lp_Force_Field>
OPLS_2005

> <r_lp_Energy>
15.6479

> <b_lp_Chiralities_Consistent>
1

> <s_lp_Variant>
AV-unprocessed.smi:1768-8

> <Gold.Version>
5.8.1

> <Gold.Id.Protein>
6NUR|6NUR_protein|mol2

> <Gold.PLP.Fitness>
43.0163

> <Gold.PLP.PLP>
-33.0145

> <Gold.PLP.part.hbond>
-4.0000

> <Gold.PLP.part.metal>
0.0000

> <Gold.PLP.part.buried>
-2.8423

> <Gold.PLP.part.nonpolar>
-26.2298

> <Gold.PLP.part.repulsive>
0.1974

> <Gold.PLP.ligand.clash>
0.0000

> <Gold.PLP.ligand.torsion>
0.7911

> <Gold.PLP.Chemscore.Hbond>
3.8480

> <Gold.PLP.Chemscore.CHOScore>
0.0000

> <Gold.PLP.Chemscore.Metal>
0.0000

> <Gold.Chemscore.Hbonds>
donor molecule, donor type, donor heavy atom, donor atom, acceptor molecule, acceptor atom, score
      P1  H  7989  7998       L1     8  0.83
      P1  H  7997  8010       L1     6  2.00
      P1  H 10752 10765       L1     3  0.86

> <Gold.PLP.Chemscore.Internal.Correction>
0.0401

> <Gold.Rescore>
     Score         DG    S(hbond)    S(metal)    S(lipo)     H(rot)  DE(clash)    DE(int)     intcor
     14.17     -16.26       1.60        0.00      74.46       1.28       0.06       2.03       ----

> <Gold.Chemscore.Fitness>
14.1702

> <Gold.Chemscore.DG>
-16.2605

> <Gold.Chemscore.ZeroCoef>
-5.4800

> <Gold.Chemscore.Hbond>
1.5985

> <Gold.Chemscore.Metal>
0.0000

> <Gold.Chemscore.Lipo>
74.4630

> <Gold.Chemscore.Internal_Hbond>
0.0000

> <Gold.Chemscore.DEClash>
0.0640

> <Gold.Chemscore.DEInternal>
2.0263

> <Gold.Chemscore.Rot>
1.2776

> <Gold.Chemscore.Internal.Correction>
   9.000000E+99

> <Gold.Chemscore.Hbonds>
donor molecule, donor type, donor heavy atom, donor atom, acceptor molecule, acceptor atom, score
      P1  H  7989  7998       L1     8  0.39
      P1  H  7997  8010       L1     6  0.81
      P1  H 10752 10765       L1     3  0.04

> <Gold.Chemscore.Hbond.Weighted>
-5.3389

> <Gold.Chemscore.Metal.Weighted>
-0.0000

> <Gold.Chemscore.Lipo.Weighted>
-8.7122

> <Gold.Chemscore.Internal_Hbond.Weighted>
0.0000

> <Gold.Chemscore.DEClash.Weighted>
0.0640

> <Gold.Chemscore.DEInternal.Weighted>
2.0263

> <Gold.Chemscore.Rot.Weighted>
3.2706

> <Gold.Chemscore.Internal.Correction.Weighted>
   9.000000E+99

> <Gold.Protein.RotatedTorsions>
[ 6907 6896 6895 6894 ] final -170.31 input  -60.11 | X-H torsion
[ 7974 7965 7964 7962 ] final -136.53 input  175.53 | X-H torsion
[ 8008 7997 7996 7995 ] final   79.01 input   59.86 | X-H torsion
[ 10167 10162 10161 10158 ] final -131.36 input  -65.29 | X-H torsion
[ 10718 10713 10712 10709 ] final -143.43 input   66.30 | X-H torsion
[ 10763 10752 10751 10750 ] final -163.95 input  -60.55 | X-H torsion
[ 11005 11000 10999 10996 ] final -123.55 input  -57.11 | X-H torsion

> <Gold.Protein.ActiveResidues>
 VAL166  LYS551  ARG553  GLY616  TRP617  ASP618  TYR619  PRO620  LYS621  CYS622 
 ASP623  PHE694  ASN695  SER759  ASP760  ASP761  ALA762  ILE779  LEU786  VAL792 
 PHE793  MET794  SER795  GLU796  ALA797  LYS798  CYS799  TRP800  GLU811  SER814 

> <Gold.Protein.RotatedAtoms>
  151.5057  133.3495  159.2876 H   0  0  0  0  0  0  0  0  0  0  0  0  # atno 6907 bound_to 6896
  150.8744  134.8126  159.7190 H   0  0  0  0  0  0  0  0  0  0  0  0  # atno 6908 bound_to 6896
  152.4720  134.4946  159.9757 H   0  0  0  0  0  0  0  0  0  0  0  0  # atno 6909 bound_to 6896
  144.8919  140.6654  143.5140 H   0  0  0  0  0  0  0  0  0  0  0  0  # atno 7974 bound_to 7965
  155.8637  140.3452  155.5773 H   0  0  0  0  0  0  0  0  0  0  0  0  # atno 8008 bound_to 7997
  155.7905  140.0871  157.2031 H   0  0  0  0  0  0  0  0  0  0  0  0  # atno 8009 bound_to 7997
  154.4013  140.1484  156.3145 H   0  0  0  0  0  0  0  0  0  0  0  0  # atno 8010 bound_to 7997
  139.9197  143.6397  152.2556 H   0  0  0  0  0  0  0  0  0  0  0  0  # atno 10167 bound_to 10162
  156.3579  130.7722  151.1886 H   0  0  0  0  0  0  0  0  0  0  0  0  # atno 10718 bound_to 10713
  154.7074  135.2999  154.9249 H   0  0  0  0  0  0  0  0  0  0  0  0  # atno 10763 bound_to 10752
  154.0161  135.6688  153.4773 H   0  0  0  0  0  0  0  0  0  0  0  0  # atno 10764 bound_to 10752
  153.0728  135.5051  154.8253 H   0  0  0  0  0  0  0  0  0  0  0  0  # atno 10765 bound_to 10752
  140.9910  134.0539  157.3654 H   0  0  0  0  0  0  0  0  0  0  0  0  # atno 11005 bound_to 11000
  145.3768  139.1646  143.4302 LP  0  0  0  0  0  0  0  0  0  0  0  0  # atno 17320 bound_to 7965
  146.3059  140.3845  142.8687 LP  0  0  0  0  0  0  0  0  0  0  0  0  # atno 17321 bound_to 7965
  139.6872  144.7650  151.1503 LP  0  0  0  0  0  0  0  0  0  0  0  0  # atno 17342 bound_to 10162
  140.7665  143.5640  150.9068 LP  0  0  0  0  0  0  0  0  0  0  0  0  # atno 17343 bound_to 10162
  157.7470  131.0408  150.4618 LP  0  0  0  0  0  0  0  0  0  0  0  0  # atno 17370 bound_to 10713
  156.4824  130.4077  149.6454 LP  0  0  0  0  0  0  0  0  0  0  0  0  # atno 17371 bound_to 10713
  139.8992  135.0158  156.7186 LP  0  0  0  0  0  0  0  0  0  0  0  0  # atno 17394 bound_to 11000
  140.7040  133.9282  155.8042 LP  0  0  0  0  0  0  0  0  0  0  0  0  # atno 17395 bound_to 11000

$$$$
