AV-unprocessed.smi:1194|AV-procd|sdf|4991|dock2
  -GOLD-   22720 3593D 1   1.00000     0.00000
 Structure written by MMmdl.
 47 48  0  0  0  0  0  0  0  0  1 V2000
  151.3389  142.2347  157.8727 C   0  0  0  0  0  0  0  0  0  0  0  0
  150.6755  141.8837  156.5364 C   0  0  0  0  0  0  0  0  0  0  0  0
  150.5392  140.3626  156.3297 C   0  0  0  0  0  0  0  0  0  0  0  0
  149.8312  139.9671  155.0203 C   0  0  0  0  0  0  0  0  0  0  0  0
  150.5074  139.4857  154.1096 O   0  0  0  0  0  0  0  0  0  0  0  0
  148.4876  140.1433  154.9099 N   0  0  0  0  0  0  0  0  0  0  0  0
  147.6487  140.7771  155.9489 C   0  0  0  0  0  0  0  0  0  0  0  0
  147.0941  142.1121  155.4223 C   0  0  0  0  0  0  0  0  0  0  0  0
  146.3371  141.9137  154.0984 C   0  0  0  0  0  0  0  0  0  0  0  0
  147.2109  141.1599  153.0801 C   0  0  0  0  0  0  0  0  0  0  0  0
  147.7619  139.8311  153.6546 C   0  0  2  0  0  0  0  0  0  0  0  0
  146.7075  138.7122  153.8013 C   0  0  0  0  0  0  0  0  0  0  0  0
  145.7855  138.8284  154.6089 O   0  0  0  0  0  0  0  0  0  0  0  0
  146.8434  137.6353  153.0116 N   0  0  0  0  0  0  0  0  0  0  0  0
  145.9483  136.4881  153.0171 C   0  0  0  0  0  0  0  0  0  0  0  0
  145.3136  136.2961  151.6339 C   0  0  0  0  0  0  0  0  0  0  0  0
  145.4476  134.8698  151.1391 C   0  0  0  0  0  0  0  0  0  0  0  0
  144.4680  134.3014  150.2992 C   0  0  0  0  0  0  0  0  0  0  0  0
  144.6321  132.9705  149.8700 C   0  0  0  0  0  0  0  0  0  0  0  0
  145.7722  132.2630  150.3006 C   0  0  0  0  0  0  0  0  0  0  0  0
  146.7163  132.7969  151.1054 N   0  0  0  0  0  0  0  0  0  0  0  0
  146.5512  134.0737  151.5127 C   0  0  0  0  0  0  0  0  0  0  0  0
  151.4157  143.3152  157.9957 H   0  0  0  0  0  0  0  0  0  0  0  0
  152.3458  141.8209  157.9331 H   0  0  0  0  0  0  0  0  0  0  0  0
  150.7642  141.8444  158.7130 H   0  0  0  0  0  0  0  0  0  0  0  0
  149.6921  142.3540  156.4951 H   0  0  0  0  0  0  0  0  0  0  0  0
  151.2626  142.3184  155.7261 H   0  0  0  0  0  0  0  0  0  0  0  0
  151.5348  139.9171  156.3368 H   0  0  0  0  0  0  0  0  0  0  0  0
  149.9849  139.9405  157.1690 H   0  0  0  0  0  0  0  0  0  0  0  0
  146.8209  140.1161  156.2055 H   0  0  0  0  0  0  0  0  0  0  0  0
  148.1601  140.9549  156.8923 H   0  0  0  0  0  0  0  0  0  0  0  0
  146.4349  142.5634  156.1642 H   0  0  0  0  0  0  0  0  0  0  0  0
  147.9164  142.8127  155.2712 H   0  0  0  0  0  0  0  0  0  0  0  0
  145.4182  141.3559  154.2825 H   0  0  0  0  0  0  0  0  0  0  0  0
  146.0348  142.8786  153.6908 H   0  0  0  0  0  0  0  0  0  0  0  0
  146.6476  140.9844  152.1628 H   0  0  0  0  0  0  0  0  0  0  0  0
  148.0493  141.7962  152.7932 H   0  0  0  0  0  0  0  0  0  0  0  0
  148.4398  139.4415  152.8946 H   0  0  0  0  0  0  0  0  0  0  0  0
  147.6195  137.6118  152.3660 H   0  0  0  0  0  0  0  0  0  0  0  0
  146.5091  135.5965  153.3016 H   0  0  0  0  0  0  0  0  0  0  0  0
  145.1707  136.6366  153.7681 H   0  0  0  0  0  0  0  0  0  0  0  0
  144.2556  136.5604  151.6676 H   0  0  0  0  0  0  0  0  0  0  0  0
  145.7767  136.9693  150.9113 H   0  0  0  0  0  0  0  0  0  0  0  0
  143.6050  134.8732  149.9908 H   0  0  0  0  0  0  0  0  0  0  0  0
  143.9015  132.5025  149.2270 H   0  0  0  0  0  0  0  0  0  0  0  0
  145.9296  131.2406  149.9904 H   0  0  0  0  0  0  0  0  0  0  0  0
  147.3218  134.4704  152.1572 H   0  0  0  0  0  0  0  0  0  0  0  0
  1  2  1  0  0  0  0
  1 23  1  0  0  0  0
  1 24  1  0  0  0  0
  1 25  1  0  0  0  0
  2  3  1  0  0  0  0
  2 26  1  0  0  0  0
  2 27  1  0  0  0  0
  3  4  1  0  0  0  0
  3 28  1  0  0  0  0
  3 29  1  0  0  0  0
  4  5  2  0  0  0  0
  4  6  1  0  0  0  0
  6 11  1  0  0  0  0
  6  7  1  0  0  0  0
  7  8  1  0  0  0  0
  7 30  1  0  0  0  0
  7 31  1  0  0  0  0
  8  9  1  0  0  0  0
  8 32  1  0  0  0  0
  8 33  1  0  0  0  0
  9 10  1  0  0  0  0
  9 34  1  0  0  0  0
  9 35  1  0  0  0  0
 10 11  1  0  0  0  0
 10 36  1  0  0  0  0
 10 37  1  0  0  0  0
 11 12  1  0  0  0  0
 11 38  1  0  0  0  0
 12 13  2  0  0  0  0
 12 14  1  0  0  0  0
 14 15  1  0  0  0  0
 14 39  1  0  0  0  0
 15 16  1  0  0  0  0
 15 40  1  0  0  0  0
 15 41  1  0  0  0  0
 16 17  1  0  0  0  0
 16 42  1  0  0  0  0
 16 43  1  0  0  0  0
 17 22  1  0  0  0  0
 17 18  2  0  0  0  0
 18 19  1  0  0  0  0
 18 44  1  0  0  0  0
 19 20  2  0  0  0  0
 19 45  1  0  0  0  0
 20 21  1  0  0  0  0
 20 46  1  0  0  0  0
 21 22  2  0  0  0  0
 22 47  1  0  0  0  0
M  END
> <s_m_source_file>
AV-unprocessed.smi

> <i_m_source_file_index>
1194

> <i_lp_mmshare_version>
43012

> <i_f3d_flags>
0

> <s_epik_input>
W0NIM11bQ0gyXVtDSDJdQyg9TylOMVtDSDJdW0NIMl1bQ0gyXVtDSDJdW0NASF0xQyg9TylbTkhdW0NIMl1bQ0gyXWMyW2NIXVtjSF1bY0hdbltjSF0y

> <s_epik_cmdline>
J2VwaWtfcHl0aG9uJywgJy1waCcsICc3LjAnLCAnLXRuJywgJzgnLCAnLW1hJywgJzIwMCcsICctbWV0YWxfYmluZGluZycsICctaW1hZScsICc8aW5maWxlLm1hZT4nLCAnLW9tYWUnLCAnPG91dGZpbGUubWFlPic=

> <r_epik_Ionization_Penalty>
0.0130932

> <r_epik_Ionization_Penalty_Charging>
0

> <r_epik_Ionization_Penalty_Neutral>
0.0130932

> <r_epik_State_Penalty>
0.0101714

> <r_epik_Charging_Adjusted_Penalty>
0.0101714

> <i_epik_Tot_Q>
0

> <i_epik_Tot_abs_Q>
0

> <r_epik_Metal_State_Penalty>
0.00995056

> <b_epik_Metal_Only>
0

> <s_lp_Force_Field>
OPLS_2005

> <r_lp_Energy>
25.0478

> <b_lp_Chiralities_Consistent>
1

> <s_lp_Variant>
AV-unprocessed.smi:1194-2

> <Gold.Version>
5.8.1

> <Gold.Id.Protein>
6NUR|6NUR_protein|mol2

> <Gold.PLP.Fitness>
42.9181

> <Gold.PLP.PLP>
-36.4039

> <Gold.PLP.part.hbond>
-2.0000

> <Gold.PLP.part.metal>
0.0000

> <Gold.PLP.part.buried>
-4.0136

> <Gold.PLP.part.nonpolar>
-31.1991

> <Gold.PLP.part.repulsive>
0.6085

> <Gold.PLP.ligand.clash>
0.0000

> <Gold.PLP.ligand.torsion>
0.9254

> <Gold.PLP.Chemscore.Hbond>
1.7360

> <Gold.PLP.Chemscore.CHOScore>
1.0000

> <Gold.PLP.Chemscore.Metal>
0.0000

> <Gold.Chemscore.Hbonds>
donor molecule, donor type, donor heavy atom, donor atom, acceptor molecule, acceptor atom, score
      L1  H    14    39       P1  7948  0.70
      P1  H  7989  7998       L1     5  1.00
      L1  C    22    47       P1  7948  1.00

> <Gold.PLP.Chemscore.Internal.Correction>
0.1570

> <Gold.Rescore>
     Score         DG    S(hbond)    S(metal)    S(lipo)     H(rot)  DE(clash)    DE(int)     intcor
     15.26     -17.22       1.68        0.00      89.14       1.68       0.31       1.66       ----

> <Gold.Chemscore.Fitness>
15.2604

> <Gold.Chemscore.DG>
-17.2248

> <Gold.Chemscore.ZeroCoef>
-5.4800

> <Gold.Chemscore.Hbond>
1.6832

> <Gold.Chemscore.Metal>
0.0000

> <Gold.Chemscore.Lipo>
89.1441

> <Gold.Chemscore.Internal_Hbond>
0.0000

> <Gold.Chemscore.DEClash>
0.3080

> <Gold.Chemscore.DEInternal>
1.6564

> <Gold.Chemscore.Rot>
1.6823

> <Gold.Chemscore.Internal.Correction>
   9.000000E+99

> <Gold.Chemscore.Hbonds>
donor molecule, donor type, donor heavy atom, donor atom, acceptor molecule, acceptor atom, score
      L1  H    14    39       P1  7948  0.69
      P1  H  7989  7998       L1     5  0.60

> <Gold.Chemscore.Hbond.Weighted>
-5.6217

> <Gold.Chemscore.Metal.Weighted>
-0.0000

> <Gold.Chemscore.Lipo.Weighted>
-10.4299

> <Gold.Chemscore.Internal_Hbond.Weighted>
0.0000

> <Gold.Chemscore.DEClash.Weighted>
0.3080

> <Gold.Chemscore.DEInternal.Weighted>
1.6564

> <Gold.Chemscore.Rot.Weighted>
4.3068

> <Gold.Chemscore.Internal.Correction.Weighted>
   9.000000E+99

> <Gold.Protein.RotatedTorsions>
[ 6907 6896 6895 6894 ] final   54.00 input  -60.11 | X-H torsion
[ 7974 7965 7964 7962 ] final   51.31 input  175.53 | X-H torsion
[ 8008 7997 7996 7995 ] final   38.32 input   59.86 | X-H torsion
[ 10167 10162 10161 10158 ] final  167.45 input  -65.29 | X-H torsion
[ 10718 10713 10712 10709 ] final -165.16 input   66.30 | X-H torsion
[ 10763 10752 10751 10750 ] final -152.33 input  -60.55 | X-H torsion
[ 11005 11000 10999 10996 ] final  174.89 input  -57.11 | X-H torsion

> <Gold.Protein.ActiveResidues>
 VAL166  LYS551  ARG553  GLY616  TRP617  ASP618  TYR619  PRO620  LYS621  CYS622 
 ASP623  PHE694  ASN695  SER759  ASP760  ASP761  ALA762  ILE779  LEU786  VAL792 
 PHE793  MET794  SER795  GLU796  ALA797  LYS798  CYS799  TRP800  GLU811  SER814 

> <Gold.Protein.RotatedAtoms>
  152.3395  134.7154  160.0267 H   0  0  0  0  0  0  0  0  0  0  0  0  # atno 6907 bound_to 6896
  151.7544  133.3324  159.3408 H   0  0  0  0  0  0  0  0  0  0  0  0  # atno 6908 bound_to 6896
  150.7471  134.6095  159.6123 H   0  0  0  0  0  0  0  0  0  0  0  0  # atno 6909 bound_to 6896
  145.9926  139.4354  143.0064 H   0  0  0  0  0  0  0  0  0  0  0  0  # atno 7974 bound_to 7965
  155.2182  140.3329  155.4319 H   0  0  0  0  0  0  0  0  0  0  0  0  # atno 8008 bound_to 7997
  156.2344  140.1865  156.7207 H   0  0  0  0  0  0  0  0  0  0  0  0  # atno 8009 bound_to 7997
  154.6033  140.0620  156.9383 H   0  0  0  0  0  0  0  0  0  0  0  0  # atno 8010 bound_to 7997
  139.4945  144.3921  151.9506 H   0  0  0  0  0  0  0  0  0  0  0  0  # atno 10167 bound_to 10162
  156.6495  130.9001  151.3010 H   0  0  0  0  0  0  0  0  0  0  0  0  # atno 10718 bound_to 10713
  154.8001  135.3239  154.7571 H   0  0  0  0  0  0  0  0  0  0  0  0  # atno 10763 bound_to 10752
  153.8241  135.6885  153.4827 H   0  0  0  0  0  0  0  0  0  0  0  0  # atno 10764 bound_to 10752
  153.1713  135.4622  154.9849 H   0  0  0  0  0  0  0  0  0  0  0  0  # atno 10765 bound_to 10752
  140.3562  134.7152  157.4301 H   0  0  0  0  0  0  0  0  0  0  0  0  # atno 11005 bound_to 11000
  145.7608  140.9936  143.1201 LP  0  0  0  0  0  0  0  0  0  0  0  0  # atno 17320 bound_to 7965
  144.6893  139.9327  143.7472 LP  0  0  0  0  0  0  0  0  0  0  0  0  # atno 17321 bound_to 7965
  140.3358  144.3262  150.5977 LP  0  0  0  0  0  0  0  0  0  0  0  0  # atno 17342 bound_to 10162
  140.5607  143.2192  151.7770 LP  0  0  0  0  0  0  0  0  0  0  0  0  # atno 17343 bound_to 10162
  157.7145  130.9481  150.1207 LP  0  0  0  0  0  0  0  0  0  0  0  0  # atno 17370 bound_to 10713
  156.2096  130.3666  149.8687 LP  0  0  0  0  0  0  0  0  0  0  0  0  # atno 17371 bound_to 10713
  140.0663  134.5925  155.8692 LP  0  0  0  0  0  0  0  0  0  0  0  0  # atno 17394 bound_to 11000
  141.1997  133.6608  156.5861 LP  0  0  0  0  0  0  0  0  0  0  0  0  # atno 17395 bound_to 11000

$$$$
