AV-unprocessed.smi:266|AV-procd|sdf|2033|dock4
  -GOLD-   2262021243D 1   1.00000     0.00000
 Structure written by MMmdl.
 52 55  0  0  0  0  0  0  0  0  1 V2000
  145.0145  131.0755  151.5683 C   0  0  0  0  0  0  0  0  0  0  0  0
  144.4817  132.4726  151.9309 C   0  0  2  0  0  0  0  0  0  0  0  0
  143.9635  133.0395  150.7259 O   0  0  0  0  0  0  0  0  0  0  0  0
  144.5178  134.3279  150.5019 C   0  0  0  0  0  0  0  0  0  0  0  0
  145.8648  134.2723  151.2048 C   0  0  0  0  0  0  0  0  0  0  0  0
  145.5353  133.4773  152.4631 C   0  0  2  0  0  0  0  0  0  0  0  0
  146.7141  132.8421  152.9261 O   0  0  0  0  0  0  0  0  0  0  0  0
  144.9522  134.3329  153.6203 C   0  0  0  0  0  0  0  0  0  0  0  0
  145.7860  135.4595  154.0113 N   0  0  0  0  0  0  0  0  0  0  0  0
  146.4569  135.6095  155.2028 C   0  0  0  0  0  0  0  0  0  0  0  0
  147.1407  136.7138  155.3186 N   0  0  0  0  0  0  0  0  0  0  0  0
  146.9346  137.3792  154.1148 C   0  0  0  0  0  0  0  0  0  0  0  0
  147.3683  138.6265  153.5726 C   0  0  0  0  0  0  0  0  0  0  0  0
  148.1269  139.5344  154.2482 N   0  0  0  0  0  0  0  0  0  0  0  0
  147.9883  140.9457  153.8967 C   0  0  0  0  0  0  0  0  0  0  0  0
  148.5484  139.2248  155.6157 C   0  0  0  0  0  0  0  0  0  0  0  0
  150.0730  139.3335  155.8351 C   0  0  2  0  0  0  0  0  0  0  0  0
  150.8591  138.8332  154.6073 C   0  0  0  0  0  0  0  0  0  0  0  0
  152.3374  138.7066  154.9860 C   0  0  0  0  0  0  0  0  0  0  0  0
  152.3472  138.1624  156.7328 S   0  0  0  0  0  0  0  0  0  0  0  0
  152.5313  136.7044  156.7913 O   0  0  0  0  0  0  0  0  0  0  0  0
  153.2043  139.0667  157.5141 O   0  0  0  0  0  0  0  0  0  0  0  0
  150.5862  138.5496  157.0582 C   0  0  0  0  0  0  0  0  0  0  0  0
  146.9712  138.9173  152.3038 N   0  0  0  0  0  0  0  0  0  0  0  0
  146.1930  138.0739  151.6210 C   0  0  0  0  0  0  0  0  0  0  0  0
  145.6985  136.8985  152.0086 N   0  0  0  0  0  0  0  0  0  0  0  0
  146.0996  136.5877  153.2733 C   0  0  0  0  0  0  0  0  0  0  0  0
  145.3976  130.5558  152.4469 H   0  0  0  0  0  0  0  0  0  0  0  0
  145.8174  131.1339  150.8329 H   0  0  0  0  0  0  0  0  0  0  0  0
  144.2227  130.4575  151.1444 H   0  0  0  0  0  0  0  0  0  0  0  0
  143.6657  132.3578  152.6457 H   0  0  0  0  0  0  0  0  0  0  0  0
  144.6067  134.5453  149.4374 H   0  0  0  0  0  0  0  0  0  0  0  0
  143.8735  135.0839  150.9524 H   0  0  0  0  0  0  0  0  0  0  0  0
  146.5660  133.7178  150.5784 H   0  0  0  0  0  0  0  0  0  0  0  0
  146.2986  135.2552  151.3832 H   0  0  0  0  0  0  0  0  0  0  0  0
  147.4611  133.3311  152.6164 H   0  0  0  0  0  0  0  0  0  0  0  0
  143.9719  134.7244  153.3455 H   0  0  0  0  0  0  0  0  0  0  0  0
  144.7869  133.7094  154.5002 H   0  0  0  0  0  0  0  0  0  0  0  0
  146.4156  134.8726  155.9919 H   0  0  0  0  0  0  0  0  0  0  0  0
  148.0921  141.0893  152.8205 H   0  0  0  0  0  0  0  0  0  0  0  0
  148.7584  141.5436  154.3845 H   0  0  0  0  0  0  0  0  0  0  0  0
  147.0159  141.3302  154.2069 H   0  0  0  0  0  0  0  0  0  0  0  0
  148.0163  139.8233  156.3509 H   0  0  0  0  0  0  0  0  0  0  0  0
  148.2406  138.1990  155.8214 H   0  0  0  0  0  0  0  0  0  0  0  0
  150.3385  140.3823  155.9745 H   0  0  0  0  0  0  0  0  0  0  0  0
  150.4849  137.8504  154.3180 H   0  0  0  0  0  0  0  0  0  0  0  0
  150.7255  139.4899  153.7471 H   0  0  0  0  0  0  0  0  0  0  0  0
  152.8811  137.9957  154.3636 H   0  0  0  0  0  0  0  0  0  0  0  0
  152.8350  139.6749  154.9307 H   0  0  0  0  0  0  0  0  0  0  0  0
  150.4951  139.1076  157.9901 H   0  0  0  0  0  0  0  0  0  0  0  0
  150.0593  137.6019  157.1683 H   0  0  0  0  0  0  0  0  0  0  0  0
  145.9228  138.3891  150.6237 H   0  0  0  0  0  0  0  0  0  0  0  0
  1  2  1  0  0  0  0
  1 28  1  0  0  0  0
  1 29  1  0  0  0  0
  1 30  1  0  0  0  0
  2  6  1  0  0  0  0
  2  3  1  0  0  0  0
  2 31  1  0  0  0  0
  3  4  1  0  0  0  0
  4  5  1  0  0  0  0
  4 32  1  0  0  0  0
  4 33  1  0  0  0  0
  5  6  1  0  0  0  0
  5 34  1  0  0  0  0
  5 35  1  0  0  0  0
  6  7  1  0  0  0  0
  6  8  1  0  0  0  0
  7 36  1  0  0  0  0
  8  9  1  0  0  0  0
  8 37  1  0  0  0  0
  8 38  1  0  0  0  0
  9 27  1  0  0  0  0
  9 10  1  0  0  0  0
 10 11  2  0  0  0  0
 10 39  1  0  0  0  0
 11 12  1  0  0  0  0
 12 27  2  0  0  0  0
 12 13  1  0  0  0  0
 13 14  1  0  0  0  0
 13 24  2  0  0  0  0
 14 15  1  0  0  0  0
 14 16  1  0  0  0  0
 15 40  1  0  0  0  0
 15 41  1  0  0  0  0
 15 42  1  0  0  0  0
 16 17  1  0  0  0  0
 16 43  1  0  0  0  0
 16 44  1  0  0  0  0
 17 23  1  0  0  0  0
 17 18  1  0  0  0  0
 17 45  1  0  0  0  0
 18 19  1  0  0  0  0
 18 46  1  0  0  0  0
 18 47  1  0  0  0  0
 19 20  1  0  0  0  0
 19 48  1  0  0  0  0
 19 49  1  0  0  0  0
 20 21  2  0  0  0  0
 20 22  2  0  0  0  0
 20 23  1  0  0  0  0
 23 50  1  0  0  0  0
 23 51  1  0  0  0  0
 24 25  1  0  0  0  0
 25 26  2  0  0  0  0
 25 52  1  0  0  0  0
 26 27  1  0  0  0  0
M  END
> <s_m_source_file>
AV-unprocessed.smi

> <i_m_source_file_index>
266

> <i_lp_mmshare_version>
43012

> <i_f3d_flags>
0

> <s_epik_input>
W0NIMl0xW0NIMl1PW0NAQEhdKFtDSDNdKVtDQEBdMShbT0hdKVtDSDJdbihbY0hdbjIpYyhjMjMpbltjSF1uYzNOKFtDSDNdKVtDSDJdW0NAQEhdKFtDSDJdNClbQ0gyXVtDSDJdUzQoPU8pPU8=

> <s_epik_cmdline>
J2VwaWtfcHl0aG9uJywgJy1waCcsICc3LjAnLCAnLXRuJywgJzgnLCAnLW1hJywgJzIwMCcsICctbWV0YWxfYmluZGluZycsICctaW1hZScsICc8aW5maWxlLm1hZT4nLCAnLW9tYWUnLCAnPG91dGZpbGUubWFlPic=

> <r_lp_tautomer_probability>
1

> <r_epik_Ionization_Penalty>
0.00155497

> <r_epik_Ionization_Penalty_Charging>
0

> <r_epik_Ionization_Penalty_Neutral>
0.00155497

> <r_epik_State_Penalty>
-0

> <r_epik_Charging_Adjusted_Penalty>
0

> <i_epik_Tot_Q>
0

> <i_epik_Tot_abs_Q>
0

> <r_epik_Metal_State_Penalty>
-0

> <b_epik_Metal_Only>
0

> <s_lp_Force_Field>
OPLS_2005

> <r_lp_Energy>
29.9122

> <b_lp_Chiralities_Consistent>
1

> <s_lp_Variant>
AV-unprocessed.smi:266-3

> <Gold.Version>
5.8.1

> <Gold.Id.Protein>
6NUR|6NUR_protein|mol2

> <Gold.PLP.Fitness>
40.8303

> <Gold.PLP.PLP>
-32.6198

> <Gold.PLP.part.hbond>
-1.9559

> <Gold.PLP.part.metal>
0.0000

> <Gold.PLP.part.buried>
-4.2994

> <Gold.PLP.part.nonpolar>
-29.0902

> <Gold.PLP.part.repulsive>
1.8935

> <Gold.PLP.ligand.clash>
0.0000

> <Gold.PLP.ligand.torsion>
0.6457

> <Gold.PLP.Chemscore.Hbond>
2.0000

> <Gold.PLP.Chemscore.CHOScore>
0.9468

> <Gold.PLP.Chemscore.Metal>
0.0000

> <Gold.Chemscore.Hbonds>
donor molecule, donor type, donor heavy atom, donor atom, acceptor molecule, acceptor atom, score
      P1  H  7997  8010       L1    22  1.00
      P1  H 10752 10763       L1    21  0.63
      L1  C    25    52       P1 10171  0.95

> <Gold.PLP.Chemscore.Internal.Correction>
0.6617

> <Gold.Rescore>
     Score         DG    S(hbond)    S(metal)    S(lipo)     H(rot)  DE(clash)    DE(int)     intcor
     10.82     -14.00       1.97        0.00      70.21       2.45       0.99       2.18       ----

> <Gold.Chemscore.Fitness>
10.8215

> <Gold.Chemscore.DG>
-13.9957

> <Gold.Chemscore.ZeroCoef>
-5.4800

> <Gold.Chemscore.Hbond>
1.9658

> <Gold.Chemscore.Metal>
0.0000

> <Gold.Chemscore.Lipo>
70.2098

> <Gold.Chemscore.Internal_Hbond>
0.0000

> <Gold.Chemscore.DEClash>
0.9914

> <Gold.Chemscore.DEInternal>
2.1828

> <Gold.Chemscore.Rot>
2.4471

> <Gold.Chemscore.Internal.Correction>
   9.000000E+99

> <Gold.Chemscore.Hbonds>
donor molecule, donor type, donor heavy atom, donor atom, acceptor molecule, acceptor atom, score
      P1  H  7997  8010       L1    22  1.00
      P1  H 10752 10763       L1    21  0.62

> <Gold.Chemscore.Hbond.Weighted>
-6.5657

> <Gold.Chemscore.Metal.Weighted>
-0.0000

> <Gold.Chemscore.Lipo.Weighted>
-8.2145

> <Gold.Chemscore.Internal_Hbond.Weighted>
0.0000

> <Gold.Chemscore.DEClash.Weighted>
0.9914

> <Gold.Chemscore.DEInternal.Weighted>
2.1828

> <Gold.Chemscore.Rot.Weighted>
6.2645

> <Gold.Chemscore.Internal.Correction.Weighted>
   9.000000E+99

> <Gold.Protein.RotatedTorsions>
[ 6907 6896 6895 6894 ] final  -47.14 input  -60.11 | X-H torsion
[ 7974 7965 7964 7962 ] final  -32.06 input  175.53 | X-H torsion
[ 8008 7997 7996 7995 ] final   42.36 input   59.86 | X-H torsion
[ 10167 10162 10161 10158 ] final -168.87 input  -65.29 | X-H torsion
[ 10718 10713 10712 10709 ] final  -92.04 input   66.30 | X-H torsion
[ 10763 10752 10751 10750 ] final  110.18 input  -60.55 | X-H torsion
[ 11005 11000 10999 10996 ] final -115.49 input  -57.11 | X-H torsion

> <Gold.Protein.ActiveResidues>
 VAL166  LYS551  ARG553  GLY616  TRP617  ASP618  TYR619  PRO620  LYS621  CYS622 
 ASP623  PHE694  ASN695  SER759  ASP760  ASP761  ALA762  ILE779  LEU786  VAL792 
 PHE793  MET794  SER795  GLU796  ALA797  LYS798  CYS799  TRP800  GLU811  SER814 

> <Gold.Protein.RotatedAtoms>
  150.9039  134.8452  159.7378 H   0  0  0  0  0  0  0  0  0  0  0  0  # atno 6907 bound_to 6896
  152.4907  134.4461  159.9569 H   0  0  0  0  0  0  0  0  0  0  0  0  # atno 6908 bound_to 6896
  151.4510  133.3578  159.2830 H   0  0  0  0  0  0  0  0  0  0  0  0  # atno 6909 bound_to 6896
  146.1019  140.5746  142.8817 H   0  0  0  0  0  0  0  0  0  0  0  0  # atno 7974 bound_to 7965
  155.2849  140.3375  155.4256 H   0  0  0  0  0  0  0  0  0  0  0  0  # atno 8008 bound_to 7997
  156.2073  140.1756  156.7813 H   0  0  0  0  0  0  0  0  0  0  0  0  # atno 8009 bound_to 7997
  154.5638  140.0682  156.8844 H   0  0  0  0  0  0  0  0  0  0  0  0  # atno 8010 bound_to 7997
  139.5958  144.1116  152.1687 H   0  0  0  0  0  0  0  0  0  0  0  0  # atno 10167 bound_to 10162
  155.9998  130.4971  150.5565 H   0  0  0  0  0  0  0  0  0  0  0  0  # atno 10718 bound_to 10713
  153.4452  135.3756  155.2252 H   0  0  0  0  0  0  0  0  0  0  0  0  # atno 10763 bound_to 10752
  154.8755  135.3872  154.4104 H   0  0  0  0  0  0  0  0  0  0  0  0  # atno 10764 bound_to 10752
  153.4655  135.7087  153.6088 H   0  0  0  0  0  0  0  0  0  0  0  0  # atno 10765 bound_to 10752
  141.0484  133.9726  157.2878 H   0  0  0  0  0  0  0  0  0  0  0  0  # atno 11005 bound_to 11000
  144.7439  140.5017  143.6849 LP  0  0  0  0  0  0  0  0  0  0  0  0  # atno 17320 bound_to 7965
  145.5837  139.1490  143.3221 LP  0  0  0  0  0  0  0  0  0  0  0  0  # atno 17321 bound_to 7965
  140.0700  144.5787  150.7198 LP  0  0  0  0  0  0  0  0  0  0  0  0  # atno 17342 bound_to 10162
  140.7210  143.2589  151.4277 LP  0  0  0  0  0  0  0  0  0  0  0  0  # atno 17343 bound_to 10162
  157.3481  131.0728  151.1735 LP  0  0  0  0  0  0  0  0  0  0  0  0  # atno 17370 bound_to 10713
  157.2561  130.6637  149.5953 LP  0  0  0  0  0  0  0  0  0  0  0  0  # atno 17371 bound_to 10713
  139.9330  135.0198  156.8464 LP  0  0  0  0  0  0  0  0  0  0  0  0  # atno 17394 bound_to 11000
  140.6102  134.0089  155.7574 LP  0  0  0  0  0  0  0  0  0  0  0  0  # atno 17395 bound_to 11000

$$$$
