AV-unprocessed.smi:1990|AV-procd|sdf|8063|dock9
  -GOLD-   2272010273D 1   1.00000     0.00000
 Structure written by MMmdl.
 46 47  0  0  0  0  0  0  0  0  1 V2000
  145.2723  130.7159  151.8803 C   0  0  0  0  0  0  0  0  0  0  0  0
  146.0056  131.5804  150.8390 C   0  0  2  0  0  0  0  0  0  0  0  0
  146.3233  133.0042  151.3373 C   0  0  0  0  0  0  0  0  0  0  0  0
  145.1246  133.8384  151.3437 N   0  0  0  0  0  0  0  0  0  0  0  0
  145.2269  135.0560  152.0513 C   0  0  0  0  0  0  0  0  0  0  0  0
  146.0876  135.1597  153.1692 C   0  0  0  0  0  0  0  0  0  0  0  0
  146.1754  136.3822  153.8624 C   0  0  0  0  0  0  0  0  0  0  0  0
  145.3896  137.4751  153.4275 C   0  0  0  0  0  0  0  0  0  0  0  0
  145.3950  138.7650  154.0252 N   0  0  0  0  0  0  0  0  0  0  0  0
  146.1177  139.2148  155.0684 C   0  0  0  0  0  0  0  0  0  0  0  0
  146.8898  138.5236  155.7321 O   0  0  0  0  0  0  0  0  0  0  0  0
  145.9059  140.6903  155.4360 C   0  0  1  0  0  0  0  0  0  0  0  0
  145.4945  140.8630  156.9078 C   0  0  0  0  0  0  0  0  0  0  0  0
  147.4515  141.6567  155.0955 S   0  0  0  0  0  0  0  0  0  0  0  0
  146.9172  142.8604  153.8069 C   0  0  0  0  0  0  0  0  0  0  0  0
  147.7939  142.4091  156.3119 O   0  0  0  0  0  0  0  0  0  0  0  0
  148.4533  140.7621  154.4956 O   0  0  0  0  0  0  0  0  0  0  0  0
  144.5685  137.2776  152.2997 C   0  0  0  0  0  0  0  0  0  0  0  0
  144.4818  136.1081  151.6328 N   0  0  0  0  0  0  0  0  0  0  0  0
  144.4215  133.8438  150.0637 C   0  0  0  0  0  0  0  0  0  0  0  0
  144.1046  132.4053  149.6180 C   0  0  1  0  0  0  0  0  0  0  0  0
  143.4870  132.3650  148.2163 C   0  0  0  0  0  0  0  0  0  0  0  0
  145.3062  131.6359  149.5937 O   0  0  0  0  0  0  0  0  0  0  0  0
  145.8878  130.5787  152.7696 H   0  0  0  0  0  0  0  0  0  0  0  0
  145.0503  129.7273  151.4783 H   0  0  0  0  0  0  0  0  0  0  0  0
  144.3337  131.1647  152.2048 H   0  0  0  0  0  0  0  0  0  0  0  0
  146.9540  131.0842  150.6313 H   0  0  0  0  0  0  0  0  0  0  0  0
  146.7898  132.9459  152.3198 H   0  0  0  0  0  0  0  0  0  0  0  0
  147.0544  133.4680  150.6738 H   0  0  0  0  0  0  0  0  0  0  0  0
  146.6711  134.3176  153.5100 H   0  0  0  0  0  0  0  0  0  0  0  0
  146.8485  136.4518  154.7020 H   0  0  0  0  0  0  0  0  0  0  0  0
  144.7401  139.4227  153.6279 H   0  0  0  0  0  0  0  0  0  0  0  0
  145.1201  141.1094  154.8064 H   0  0  0  0  0  0  0  0  0  0  0  0
  144.6055  140.2767  157.1431 H   0  0  0  0  0  0  0  0  0  0  0  0
  145.2661  141.9063  157.1266 H   0  0  0  0  0  0  0  0  0  0  0  0
  146.2904  140.5532  157.5862 H   0  0  0  0  0  0  0  0  0  0  0  0
  147.7303  143.5584  153.6091 H   0  0  0  0  0  0  0  0  0  0  0  0
  146.0465  143.4126  154.1594 H   0  0  0  0  0  0  0  0  0  0  0  0
  146.6704  142.3343  152.8852 H   0  0  0  0  0  0  0  0  0  0  0  0
  143.9574  138.0831  151.9187 H   0  0  0  0  0  0  0  0  0  0  0  0
  143.4910  134.4071  150.1457 H   0  0  0  0  0  0  0  0  0  0  0  0
  145.0408  134.3435  149.3173 H   0  0  0  0  0  0  0  0  0  0  0  0
  143.3938  131.9558  150.3118 H   0  0  0  0  0  0  0  0  0  0  0  0
  142.5580  132.9343  148.1806 H   0  0  0  0  0  0  0  0  0  0  0  0
  143.2608  131.3406  147.9197 H   0  0  0  0  0  0  0  0  0  0  0  0
  144.1662  132.7847  147.4736 H   0  0  0  0  0  0  0  0  0  0  0  0
  1  2  1  0  0  0  0
  1 24  1  0  0  0  0
  1 25  1  0  0  0  0
  1 26  1  0  0  0  0
  2 23  1  0  0  0  0
  2  3  1  0  0  0  0
  2 27  1  0  0  0  0
  3  4  1  0  0  0  0
  3 28  1  0  0  0  0
  3 29  1  0  0  0  0
  4  5  1  0  0  0  0
  4 20  1  0  0  0  0
  5 19  1  0  0  0  0
  5  6  2  0  0  0  0
  6  7  1  0  0  0  0
  6 30  1  0  0  0  0
  7  8  2  0  0  0  0
  7 31  1  0  0  0  0
  8  9  1  0  0  0  0
  8 18  1  0  0  0  0
  9 10  1  0  0  0  0
  9 32  1  0  0  0  0
 10 11  2  0  0  0  0
 10 12  1  0  0  0  0
 12 13  1  0  0  0  0
 12 14  1  0  0  0  0
 12 33  1  0  0  0  0
 13 34  1  0  0  0  0
 13 35  1  0  0  0  0
 13 36  1  0  0  0  0
 14 15  1  0  0  0  0
 14 16  2  0  0  0  0
 14 17  2  0  0  0  0
 15 37  1  0  0  0  0
 15 38  1  0  0  0  0
 15 39  1  0  0  0  0
 18 19  2  0  0  0  0
 18 40  1  0  0  0  0
 20 21  1  0  0  0  0
 20 41  1  0  0  0  0
 20 42  1  0  0  0  0
 21 22  1  0  0  0  0
 21 23  1  0  0  0  0
 21 43  1  0  0  0  0
 22 44  1  0  0  0  0
 22 45  1  0  0  0  0
 22 46  1  0  0  0  0
M  END
> <s_m_source_file>
AV-unprocessed.smi

> <i_m_source_file_index>
1990

> <i_lp_mmshare_version>
43012

> <i_f3d_flags>
0

> <s_epik_input>
W0NIM11bQ0BASF0xW0NIMl1OKFtDSDJdW0NASF0oTzEpW0NIM10pYzJbY0hdW2NIXWMoW2NIXW4yKVtOSF1DKD1PKVtDQEhdKFtDSDNdKVMoPU8pKD1PKVtDSDNd

> <s_epik_cmdline>
J2VwaWtfcHl0aG9uJywgJy1waCcsICc3LjAnLCAnLXRuJywgJzgnLCAnLW1hJywgJzIwMCcsICctbWV0YWxfYmluZGluZycsICctaW1hZScsICc8aW5maWxlLm1hZT4nLCAnLW9tYWUnLCAnPG91dGZpbGUubWFlPic=

> <r_lp_tautomer_probability>
1

> <r_epik_Ionization_Penalty>
0.000334888

> <r_epik_Ionization_Penalty_Charging>
0

> <r_epik_Ionization_Penalty_Neutral>
0.000334888

> <r_epik_State_Penalty>
0.000200905

> <r_epik_Charging_Adjusted_Penalty>
0.000200905

> <i_epik_Tot_Q>
0

> <i_epik_Tot_abs_Q>
0

> <r_epik_Metal_State_Penalty>
-0

> <b_epik_Metal_Only>
0

> <s_lp_Force_Field>
OPLS_2005

> <r_lp_Energy>
21.5475

> <b_lp_Chiralities_Consistent>
1

> <s_lp_Variant>
AV-unprocessed.smi:1990-3

> <Gold.Version>
5.8.1

> <Gold.Id.Protein>
6NUR|6NUR_protein|mol2

> <Gold.PLP.Fitness>
34.9169

> <Gold.PLP.PLP>
-27.3555

> <Gold.PLP.part.hbond>
-1.3359

> <Gold.PLP.part.metal>
0.0000

> <Gold.PLP.part.buried>
-0.7294

> <Gold.PLP.part.nonpolar>
-26.0425

> <Gold.PLP.part.repulsive>
1.3418

> <Gold.PLP.ligand.clash>
0.0000

> <Gold.PLP.ligand.torsion>
0.6441

> <Gold.PLP.Chemscore.Hbond>
1.0000

> <Gold.PLP.Chemscore.CHOScore>
1.7872

> <Gold.PLP.Chemscore.Metal>
0.0000

> <Gold.Chemscore.Hbonds>
donor molecule, donor type, donor heavy atom, donor atom, acceptor molecule, acceptor atom, score
      L1  H     9    32       P1 10175  1.00
      L1  C    18    40       P1 10171  0.87
      L1  C    18    40       P1 10175  1.00

> <Gold.PLP.Chemscore.Internal.Correction>
0.4879

> <Gold.Rescore>
     Score         DG    S(hbond)    S(metal)    S(lipo)     H(rot)  DE(clash)    DE(int)     intcor
     11.93     -14.20       0.97        0.00      80.17       1.52       0.29       1.98       ----

> <Gold.Chemscore.Fitness>
11.9322

> <Gold.Chemscore.DG>
-14.2033

> <Gold.Chemscore.ZeroCoef>
-5.4800

> <Gold.Chemscore.Hbond>
0.9666

> <Gold.Chemscore.Metal>
0.0000

> <Gold.Chemscore.Lipo>
80.1713

> <Gold.Chemscore.Internal_Hbond>
0.0000

> <Gold.Chemscore.DEClash>
0.2911

> <Gold.Chemscore.DEInternal>
1.9799

> <Gold.Chemscore.Rot>
1.5177

> <Gold.Chemscore.Internal.Correction>
   9.000000E+99

> <Gold.Chemscore.Hbonds>
donor molecule, donor type, donor heavy atom, donor atom, acceptor molecule, acceptor atom, score
      L1  H     9    32       P1 10175  1.00

> <Gold.Chemscore.Hbond.Weighted>
-3.2285

> <Gold.Chemscore.Metal.Weighted>
-0.0000

> <Gold.Chemscore.Lipo.Weighted>
-9.3800

> <Gold.Chemscore.Internal_Hbond.Weighted>
0.0000

> <Gold.Chemscore.DEClash.Weighted>
0.2911

> <Gold.Chemscore.DEInternal.Weighted>
1.9799

> <Gold.Chemscore.Rot.Weighted>
3.8853

> <Gold.Chemscore.Internal.Correction.Weighted>
   9.000000E+99

> <Gold.Protein.RotatedTorsions>
[ 6907 6896 6895 6894 ] final   71.69 input  -60.11 | X-H torsion
[ 7974 7965 7964 7962 ] final  101.82 input  175.53 | X-H torsion
[ 8008 7997 7996 7995 ] final  130.69 input   59.86 | X-H torsion
[ 10167 10162 10161 10158 ] final   60.04 input  -65.29 | X-H torsion
[ 10718 10713 10712 10709 ] final  -97.12 input   66.30 | X-H torsion
[ 10763 10752 10751 10750 ] final  -27.07 input  -60.55 | X-H torsion
[ 11005 11000 10999 10996 ] final -176.59 input  -57.11 | X-H torsion

> <Gold.Protein.ActiveResidues>
 VAL166  LYS551  ARG553  GLY616  TRP617  ASP618  TYR619  PRO620  LYS621  CYS622 
 ASP623  PHE694  ASN695  SER759  ASP760  ASP761  ALA762  ILE779  LEU786  VAL792 
 PHE793  MET794  SER795  GLU796  ALA797  LYS798  CYS799  TRP800  GLU811  SER814 

> <Gold.Protein.RotatedAtoms>
  152.4824  134.4683  159.9627 H   0  0  0  0  0  0  0  0  0  0  0  0  # atno 6907 bound_to 6896
  151.4686  133.3568  159.2828 H   0  0  0  0  0  0  0  0  0  0  0  0  # atno 6908 bound_to 6896
  150.8907  134.8336  159.7352 H   0  0  0  0  0  0  0  0  0  0  0  0  # atno 6909 bound_to 6896
  145.3673  139.2405  143.3474 H   0  0  0  0  0  0  0  0  0  0  0  0  # atno 7974 bound_to 7965
  156.2958  140.2589  156.2804 H   0  0  0  0  0  0  0  0  0  0  0  0  # atno 8008 bound_to 7997
  154.9608  140.0392  157.2207 H   0  0  0  0  0  0  0  0  0  0  0  0  # atno 8009 bound_to 7997
  154.7949  140.2818  155.5969 H   0  0  0  0  0  0  0  0  0  0  0  0  # atno 8010 bound_to 7997
  140.1699  144.4287  150.6666 H   0  0  0  0  0  0  0  0  0  0  0  0  # atno 10167 bound_to 10162
  156.0076  130.5180  150.6327 H   0  0  0  0  0  0  0  0  0  0  0  0  # atno 10718 bound_to 10713
  153.7262  135.6942  153.5000 H   0  0  0  0  0  0  0  0  0  0  0  0  # atno 10763 bound_to 10752
  153.2169  135.4383  155.0443 H   0  0  0  0  0  0  0  0  0  0  0  0  # atno 10764 bound_to 10752
  154.8268  135.3450  154.6793 H   0  0  0  0  0  0  0  0  0  0  0  0  # atno 10765 bound_to 10752
  140.4504  134.6348  157.4798 H   0  0  0  0  0  0  0  0  0  0  0  0  # atno 11005 bound_to 11000
  146.2901  140.4317  142.8743 LP  0  0  0  0  0  0  0  0  0  0  0  0  # atno 17320 bound_to 7965
  144.8602  140.7129  143.6112 LP  0  0  0  0  0  0  0  0  0  0  0  0  # atno 17321 bound_to 7965
  140.6589  143.2246  151.5903 LP  0  0  0  0  0  0  0  0  0  0  0  0  # atno 17342 bound_to 10162
  139.5343  144.2827  152.1216 LP  0  0  0  0  0  0  0  0  0  0  0  0  # atno 17343 bound_to 10162
  157.4122  131.0825  151.1210 LP  0  0  0  0  0  0  0  0  0  0  0  0  # atno 17370 bound_to 10713
  157.1838  130.6321  149.5681 LP  0  0  0  0  0  0  0  0  0  0  0  0  # atno 17371 bound_to 10713
  140.0010  134.6836  155.9530 LP  0  0  0  0  0  0  0  0  0  0  0  0  # atno 17394 bound_to 11000
  141.1666  133.6537  156.4503 LP  0  0  0  0  0  0  0  0  0  0  0  0  # atno 17395 bound_to 11000

$$$$
