AV-unprocessed.smi:1394|AV-procd|sdf|5668|dock7
  -GOLD-   22720 5293D 1   1.00000     0.00000
 Structure written by MMmdl.
 41 42  0  0  0  0  0  0  0  0  1 V2000
  152.9654  141.8520  160.9242 C   0  0  0  0  0  0  0  0  0  0  0  0
  152.1581  142.7334  159.9541 C   0  0  1  0  0  0  0  0  0  0  0  0
  152.7679  144.1480  159.8756 C   0  0  0  0  0  0  0  0  0  0  0  0
  151.9806  145.0595  158.9221 C   0  0  0  0  0  0  0  0  0  0  0  0
  151.8860  144.4396  157.5215 C   0  0  0  0  0  0  0  0  0  0  0  0
  151.2639  143.0375  157.5827 C   0  0  0  0  0  0  0  0  0  0  0  0
  152.0420  142.1094  158.5404 C   0  0  2  0  0  0  0  0  0  0  0  0
  151.3837  140.8066  158.6109 N   0  0  0  0  0  0  0  0  0  0  0  0
  151.9302  139.6370  158.2456 C   0  0  0  0  0  0  0  0  0  0  0  0
  153.0793  139.5329  157.8147 O   0  0  0  0  0  0  0  0  0  0  0  0
  151.0415  138.3969  158.4137 C   0  0  0  0  0  0  0  0  0  0  0  0
  150.7770  137.7001  157.1432 N   0  0  0  0  0  0  0  0  0  0  0  0
  151.1201  138.3780  155.9597 C   0  0  0  0  0  0  0  0  0  0  0  0
  150.9192  137.8342  154.7519 C   0  0  0  0  0  0  0  0  0  0  0  0
  150.3359  136.5165  154.6851 C   0  0  0  0  0  0  0  0  0  0  0  0
  149.9935  135.8404  155.8063 C   0  0  0  0  0  0  0  0  0  0  0  0
  149.3791  134.4435  155.7547 C   0  0  0  0  0  0  0  0  0  0  0  0
  148.1905  134.4317  156.3593 F   0  0  0  0  0  0  0  0  0  0  0  0
  149.2026  134.0260  154.5002 F   0  0  0  0  0  0  0  0  0  0  0  0
  150.1681  133.5614  156.3697 F   0  0  0  0  0  0  0  0  0  0  0  0
  150.2155  136.4513  157.1330 C   0  0  0  0  0  0  0  0  0  0  0  0
  149.9159  135.8772  158.1816 O   0  0  0  0  0  0  0  0  0  0  0  0
  153.9801  141.6911  160.5594 H   0  0  0  0  0  0  0  0  0  0  0  0
  152.5029  140.8746  161.0626 H   0  0  0  0  0  0  0  0  0  0  0  0
  153.0367  142.3166  161.9078 H   0  0  0  0  0  0  0  0  0  0  0  0
  151.1515  142.8321  160.3636 H   0  0  0  0  0  0  0  0  0  0  0  0
  152.7940  144.5991  160.8682 H   0  0  0  0  0  0  0  0  0  0  0  0
  153.8039  144.0835  159.5404 H   0  0  0  0  0  0  0  0  0  0  0  0
  150.9780  145.2266  159.3179 H   0  0  0  0  0  0  0  0  0  0  0  0
  152.4584  146.0378  158.8639 H   0  0  0  0  0  0  0  0  0  0  0  0
  151.2935  145.0816  156.8691 H   0  0  0  0  0  0  0  0  0  0  0  0
  152.8806  144.3804  157.0776 H   0  0  0  0  0  0  0  0  0  0  0  0
  150.2259  143.1179  157.9090 H   0  0  0  0  0  0  0  0  0  0  0  0
  151.2382  142.6099  156.5797 H   0  0  0  0  0  0  0  0  0  0  0  0
  153.0521  141.9731  158.1483 H   0  0  0  0  0  0  0  0  0  0  0  0
  150.4358  140.7964  158.9589 H   0  0  0  0  0  0  0  0  0  0  0  0
  151.5265  137.7290  159.1268 H   0  0  0  0  0  0  0  0  0  0  0  0
  150.0988  138.6805  158.8859 H   0  0  0  0  0  0  0  0  0  0  0  0
  151.5462  139.3612  156.0967 H   0  0  0  0  0  0  0  0  0  0  0  0
  151.1852  138.3694  153.8521 H   0  0  0  0  0  0  0  0  0  0  0  0
  150.1766  136.0753  153.7126 H   0  0  0  0  0  0  0  0  0  0  0  0
  1  2  1  0  0  0  0
  1 23  1  0  0  0  0
  1 24  1  0  0  0  0
  1 25  1  0  0  0  0
  2  7  1  0  0  0  0
  2  3  1  0  0  0  0
  2 26  1  0  0  0  0
  3  4  1  0  0  0  0
  3 27  1  0  0  0  0
  3 28  1  0  0  0  0
  4  5  1  0  0  0  0
  4 29  1  0  0  0  0
  4 30  1  0  0  0  0
  5  6  1  0  0  0  0
  5 31  1  0  0  0  0
  5 32  1  0  0  0  0
  6  7  1  0  0  0  0
  6 33  1  0  0  0  0
  6 34  1  0  0  0  0
  7  8  1  0  0  0  0
  7 35  1  0  0  0  0
  8  9  1  0  0  0  0
  8 36  1  0  0  0  0
  9 10  2  0  0  0  0
  9 11  1  0  0  0  0
 11 12  1  0  0  0  0
 11 37  1  0  0  0  0
 11 38  1  0  0  0  0
 12 21  1  0  0  0  0
 12 13  1  0  0  0  0
 13 14  2  0  0  0  0
 13 39  1  0  0  0  0
 14 15  1  0  0  0  0
 14 40  1  0  0  0  0
 15 16  2  0  0  0  0
 15 41  1  0  0  0  0
 16 17  1  0  0  0  0
 16 21  1  0  0  0  0
 17 18  1  0  0  0  0
 17 19  1  0  0  0  0
 17 20  1  0  0  0  0
 21 22  2  0  0  0  0
M  END
> <s_m_source_file>
AV-unprocessed.smi

> <i_m_source_file_index>
1394

> <i_lp_mmshare_version>
43012

> <i_f3d_flags>
0

> <s_epik_input>
W0NIM11bQ0BASF0xW0NIMl1bQ0gyXVtDSDJdW0NIMl1bQ0BIXTFbTkhdQyg9TylbQ0gyXW4yW2NIXVtjSF1bY0hdYyhDKEYpKEYpRiljMj1P

> <s_epik_cmdline>
J2VwaWtfcHl0aG9uJywgJy1waCcsICc3LjAnLCAnLXRuJywgJzgnLCAnLW1hJywgJzIwMCcsICctbWV0YWxfYmluZGluZycsICctaW1hZScsICc8aW5maWxlLm1hZT4nLCAnLW9tYWUnLCAnPG91dGZpbGUubWFlPic=

> <r_lp_tautomer_probability>
1

> <r_epik_Ionization_Penalty>
2.11487e-08

> <r_epik_Ionization_Penalty_Charging>
2.10183e-09

> <r_epik_Ionization_Penalty_Neutral>
1.90469e-08

> <r_epik_State_Penalty>
-0

> <r_epik_Charging_Adjusted_Penalty>
2.10183e-09

> <i_epik_Tot_Q>
0

> <i_epik_Tot_abs_Q>
0

> <r_epik_Metal_State_Penalty>
-0

> <b_epik_Metal_Only>
0

> <s_lp_Force_Field>
OPLS_2005

> <r_lp_Energy>
20.4612

> <b_lp_Chiralities_Consistent>
1

> <s_lp_Variant>
AV-unprocessed.smi:1394-4

> <Gold.Version>
5.8.1

> <Gold.Id.Protein>
6NUR|6NUR_protein|mol2

> <Gold.PLP.Fitness>
47.3903

> <Gold.PLP.PLP>
-42.7066

> <Gold.PLP.part.hbond>
-2.0000

> <Gold.PLP.part.metal>
0.0000

> <Gold.PLP.part.buried>
-5.9192

> <Gold.PLP.part.nonpolar>
-34.8169

> <Gold.PLP.part.repulsive>
0.1394

> <Gold.PLP.ligand.clash>
0.9073

> <Gold.PLP.ligand.torsion>
0.1479

> <Gold.PLP.Chemscore.Hbond>
1.8640

> <Gold.PLP.Chemscore.CHOScore>
0.0000

> <Gold.PLP.Chemscore.Metal>
0.0000

> <Gold.Chemscore.Hbonds>
donor molecule, donor type, donor heavy atom, donor atom, acceptor molecule, acceptor atom, score
      P1  H  6896  6907       L1    22  1.00
      P1  H  7997  8009       L1    10  0.93

> <Gold.PLP.Chemscore.Internal.Correction>
0.2948

> <Gold.Rescore>
     Score         DG    S(hbond)    S(metal)    S(lipo)     H(rot)  DE(clash)    DE(int)     intcor
     17.43     -21.08       1.84        0.00     114.27       1.52       0.11       3.54       ----

> <Gold.Chemscore.Fitness>
17.4313

> <Gold.Chemscore.DG>
-21.0825

> <Gold.Chemscore.ZeroCoef>
-5.4800

> <Gold.Chemscore.Hbond>
1.8369

> <Gold.Chemscore.Metal>
0.0000

> <Gold.Chemscore.Lipo>
114.2672

> <Gold.Chemscore.Internal_Hbond>
0.0000

> <Gold.Chemscore.DEClash>
0.1108

> <Gold.Chemscore.DEInternal>
3.5405

> <Gold.Chemscore.Rot>
1.5242

> <Gold.Chemscore.Internal.Correction>
   9.000000E+99

> <Gold.Chemscore.Hbonds>
donor molecule, donor type, donor heavy atom, donor atom, acceptor molecule, acceptor atom, score
      P1  H  6896  6907       L1    22  0.90
      P1  H  7997  8009       L1    10  0.91

> <Gold.Chemscore.Hbond.Weighted>
-6.1351

> <Gold.Chemscore.Metal.Weighted>
-0.0000

> <Gold.Chemscore.Lipo.Weighted>
-13.3693

> <Gold.Chemscore.Internal_Hbond.Weighted>
0.0000

> <Gold.Chemscore.DEClash.Weighted>
0.1108

> <Gold.Chemscore.DEInternal.Weighted>
3.5405

> <Gold.Chemscore.Rot.Weighted>
3.9019

> <Gold.Chemscore.Internal.Correction.Weighted>
   9.000000E+99

> <Gold.Protein.RotatedTorsions>
[ 6907 6896 6895 6894 ] final  -60.11 input  -60.11 | X-H torsion
[ 7974 7965 7964 7962 ] final  121.44 input  175.53 | X-H torsion
[ 8008 7997 7996 7995 ] final  140.79 input   59.86 | X-H torsion
[ 10167 10162 10161 10158 ] final   74.25 input  -65.29 | X-H torsion
[ 10718 10713 10712 10709 ] final  -16.68 input   66.30 | X-H torsion
[ 10763 10752 10751 10750 ] final  -73.23 input  -60.55 | X-H torsion
[ 11005 11000 10999 10996 ] final -101.01 input  -57.11 | X-H torsion

> <Gold.Protein.ActiveResidues>
 VAL166  LYS551  ARG553  GLY616  TRP617  ASP618  TYR619  PRO620  LYS621  CYS622 
 ASP623  PHE694  ASN695  SER759  ASP760  ASP761  ALA762  ILE779  LEU786  VAL792 
 PHE793  MET794  SER795  GLU796  ALA797  LYS798  CYS799  TRP800  GLU811  SER814 

> <Gold.Protein.RotatedAtoms>
  150.7880  134.6881  159.6480 H   0  0  0  0  0  0  0  0  0  0  0  0  # atno 6907 bound_to 6896
  152.3980  134.6329  160.0090 H   0  0  0  0  0  0  0  0  0  0  0  0  # atno 6908 bound_to 6896
  151.6609  133.3280  159.3210 H   0  0  0  0  0  0  0  0  0  0  0  0  # atno 6909 bound_to 6896
  145.1193  139.3400  143.4723 H   0  0  0  0  0  0  0  0  0  0  0  0  # atno 7974 bound_to 7965
  156.2974  140.2332  156.4458 H   0  0  0  0  0  0  0  0  0  0  0  0  # atno 8008 bound_to 7997
  154.8145  140.0441  157.1387 H   0  0  0  0  0  0  0  0  0  0  0  0  # atno 8009 bound_to 7997
  154.9385  140.3026  155.5136 H   0  0  0  0  0  0  0  0  0  0  0  0  # atno 8010 bound_to 7997
  140.0157  144.5579  150.7622 H   0  0  0  0  0  0  0  0  0  0  0  0  # atno 10167 bound_to 10162
  156.5841  130.4782  149.6307 H   0  0  0  0  0  0  0  0  0  0  0  0  # atno 10718 bound_to 10713
  154.4566  135.5904  153.6227 H   0  0  0  0  0  0  0  0  0  0  0  0  # atno 10763 bound_to 10752
  152.9819  135.6034  154.3538 H   0  0  0  0  0  0  0  0  0  0  0  0  # atno 10764 bound_to 10752
  154.3405  135.2841  155.2404 H   0  0  0  0  0  0  0  0  0  0  0  0  # atno 10765 bound_to 10752
  141.1248  133.8444  157.1176 H   0  0  0  0  0  0  0  0  0  0  0  0  # atno 11005 bound_to 11000
  146.3522  140.1145  142.8602 LP  0  0  0  0  0  0  0  0  0  0  0  0  # atno 17320 bound_to 7965
  145.0759  140.9187  143.4854 LP  0  0  0  0  0  0  0  0  0  0  0  0  # atno 17321 bound_to 7965
  140.7363  143.2751  151.3766 LP  0  0  0  0  0  0  0  0  0  0  0  0  # atno 17342 bound_to 10162
  139.6174  144.0975  152.2359 LP  0  0  0  0  0  0  0  0  0  0  0  0  # atno 17343 bound_to 10162
  156.2606  130.6960  151.1727 LP  0  0  0  0  0  0  0  0  0  0  0  0  # atno 17370 bound_to 10713
  157.7319  131.0604  150.5653 LP  0  0  0  0  0  0  0  0  0  0  0  0  # atno 17371 bound_to 10713
  140.0236  134.9934  157.0642 LP  0  0  0  0  0  0  0  0  0  0  0  0  # atno 17394 bound_to 11000
  140.4398  134.1693  155.7173 LP  0  0  0  0  0  0  0  0  0  0  0  0  # atno 17395 bound_to 11000

$$$$
