AV-unprocessed.smi:2960|AV-procd|sdf|11312|dock1
  -GOLD-   2272016213D 1   1.00000     0.00000
 Structure written by MMmdl.
 49 51  0  0  0  0  0  0  0  0  2 V2000
  151.0893  137.5010  154.4010 C   0  0  0  0  0  0  0  0  0  0  0  0
  150.7653  136.1729  155.0765 C   0  0  0  0  0  0  0  0  0  0  0  0
  151.4588  135.7677  156.0091 O   0  0  0  0  0  0  0  0  0  0  0  0
  149.7062  135.5047  154.5957 N   0  0  0  0  0  0  0  0  0  0  0  0
  149.2364  134.2161  155.0902 C   0  0  0  0  0  0  0  0  0  0  0  0
  149.4731  133.0924  154.0676 C   0  0  0  0  0  0  0  0  0  0  0  0
  148.2594  132.8468  153.2301 C   0  0  0  0  0  0  0  0  0  0  0  0
  147.7153  133.7330  152.3486 N   0  3  0  0  0  0  0  0  0  0  0  0
  146.5843  133.1747  151.7519 C   0  0  0  0  0  0  0  0  0  0  0  0
  145.7084  133.6867  150.7995 C   0  0  0  0  0  0  0  0  0  0  0  0
  144.6454  132.8489  150.4022 C   0  0  0  0  0  0  0  0  0  0  0  0
  144.4840  131.5584  150.9474 C   0  0  0  0  0  0  0  0  0  0  0  0
  145.3786  131.0506  151.9126 C   0  0  0  0  0  0  0  0  0  0  0  0
  146.4267  131.8853  152.2995 C   0  0  0  0  0  0  0  0  0  0  0  0
  147.4773  131.7275  153.2103 N   0  0  0  0  0  0  0  0  0  0  0  0
  147.5814  130.4687  153.9618 C   0  0  0  0  0  0  0  0  0  0  0  0
  148.6559  129.5375  153.3845 C   0  0  0  0  0  0  0  0  0  0  0  0
  148.3514  128.2046  153.7680 O   0  0  0  0  0  0  0  0  0  0  0  0
  148.4233  127.2182  152.8076 C   0  0  0  0  0  0  0  0  0  0  0  0
  148.2264  127.6126  151.4683 C   0  0  0  0  0  0  0  0  0  0  0  0
  148.2861  126.6715  150.4227 C   0  0  0  0  0  0  0  0  0  0  0  0
  148.5451  125.3163  150.7050 C   0  0  0  0  0  0  0  0  0  0  0  0
  148.6109  124.3083  149.5762 C   0  0  0  0  0  0  0  0  0  0  0  0
  148.7419  124.9098  152.0398 C   0  0  0  0  0  0  0  0  0  0  0  0
  148.6811  125.8517  153.0853 C   0  0  0  0  0  0  0  0  0  0  0  0
  150.2413  138.1830  154.4738 H   0  0  0  0  0  0  0  0  0  0  0  0
  151.3184  137.3458  153.3463 H   0  0  0  0  0  0  0  0  0  0  0  0
  151.9508  137.9763  154.8719 H   0  0  0  0  0  0  0  0  0  0  0  0
  149.1962  135.9134  153.8254 H   0  0  0  0  0  0  0  0  0  0  0  0
  149.7700  133.9992  156.0147 H   0  0  0  0  0  0  0  0  0  0  0  0
  148.1783  134.2815  155.3502 H   0  0  0  0  0  0  0  0  0  0  0  0
  150.3024  133.3498  153.4076 H   0  0  0  0  0  0  0  0  0  0  0  0
  149.7582  132.1698  154.5733 H   0  0  0  0  0  0  0  0  0  0  0  0
  145.8295  134.6749  150.3807 H   0  0  0  0  0  0  0  0  0  0  0  0
  143.9398  133.2030  149.6647 H   0  0  0  0  0  0  0  0  0  0  0  0
  143.6571  130.9452  150.6193 H   0  0  0  0  0  0  0  0  0  0  0  0
  145.2462  130.0613  152.3253 H   0  0  0  0  0  0  0  0  0  0  0  0
  147.7857  130.7025  155.0072 H   0  0  0  0  0  0  0  0  0  0  0  0
  146.6092  129.9769  153.9401 H   0  0  0  0  0  0  0  0  0  0  0  0
  148.6720  129.6231  152.2975 H   0  0  0  0  0  0  0  0  0  0  0  0
  149.6403  129.8185  153.7616 H   0  0  0  0  0  0  0  0  0  0  0  0
  148.0277  128.6494  151.2395 H   0  0  0  0  0  0  0  0  0  0  0  0
  148.1332  126.9932  149.4027 H   0  0  0  0  0  0  0  0  0  0  0  0
  148.8381  123.3084  149.9474 H   0  0  0  0  0  0  0  0  0  0  0  0
  149.3857  124.5902  148.8628 H   0  0  0  0  0  0  0  0  0  0  0  0
  147.6570  124.2676  149.0496 H   0  0  0  0  0  0  0  0  0  0  0  0
  148.9411  123.8731  152.2688 H   0  0  0  0  0  0  0  0  0  0  0  0
  148.8376  125.4986  154.0931 H   0  0  0  0  0  0  0  0  0  0  0  0
  148.0944  134.6542  152.1696 H   0  0  0  0  0  0  0  0  0  0  0  0
  1  2  1  0  0  0  0
  1 26  1  0  0  0  0
  1 27  1  0  0  0  0
  1 28  1  0  0  0  0
  2  3  2  0  0  0  0
  2  4  1  0  0  0  0
  4  5  1  0  0  0  0
  4 29  1  0  0  0  0
  5  6  1  0  0  0  0
  5 30  1  0  0  0  0
  5 31  1  0  0  0  0
  6  7  1  0  0  0  0
  6 32  1  0  0  0  0
  6 33  1  0  0  0  0
  7 15  1  0  0  0  0
  7  8  2  0  0  0  0
  8  9  1  0  0  0  0
  8 49  1  0  0  0  0
  9 14  2  0  0  0  0
  9 10  1  0  0  0  0
 10 11  2  0  0  0  0
 10 34  1  0  0  0  0
 11 12  1  0  0  0  0
 11 35  1  0  0  0  0
 12 13  2  0  0  0  0
 12 36  1  0  0  0  0
 13 14  1  0  0  0  0
 13 37  1  0  0  0  0
 14 15  1  0  0  0  0
 15 16  1  0  0  0  0
 16 17  1  0  0  0  0
 16 38  1  0  0  0  0
 16 39  1  0  0  0  0
 17 18  1  0  0  0  0
 17 40  1  0  0  0  0
 17 41  1  0  0  0  0
 18 19  1  0  0  0  0
 19 25  1  0  0  0  0
 19 20  2  0  0  0  0
 20 21  1  0  0  0  0
 20 42  1  0  0  0  0
 21 22  2  0  0  0  0
 21 43  1  0  0  0  0
 22 23  1  0  0  0  0
 22 24  1  0  0  0  0
 23 44  1  0  0  0  0
 23 45  1  0  0  0  0
 23 46  1  0  0  0  0
 24 25  2  0  0  0  0
 24 47  1  0  0  0  0
 25 48  1  0  0  0  0
M  CHG  1   8   1
M  END
> <s_m_source_file>
AV-unprocessed.smi

> <i_m_source_file_index>
2960

> <i_lp_mmshare_version>
43012

> <i_f3d_flags>
0

> <s_epik_input>
W0NIM11DKD1PKVtOSF1bQ0gyXVtDSDJdYyhuMSluKGMoYzEyKVtjSF1bY0hdW2NIXVtjSF0yKVtDSDJdW0NIMl1PYzNbY0hdW2NIXWMoW0NIM10pW2NIXVtjSF0z

> <s_epik_cmdline>
J2VwaWtfcHl0aG9uJywgJy1waCcsICc3LjAnLCAnLXRuJywgJzgnLCAnLW1hJywgJzIwMCcsICctbWV0YWxfYmluZGluZycsICctaW1hZScsICc8aW5maWxlLm1hZT4nLCAnLW9tYWUnLCAnPG91dGZpbGUubWFlPic=

> <r_lp_tautomer_probability>
1

> <r_epik_Ionization_Penalty>
1.10884

> <r_epik_Ionization_Penalty_Charging>
1.10884

> <r_epik_Ionization_Penalty_Neutral>
3.05925e-07

> <r_epik_State_Penalty>
1.16664

> <r_epik_Charging_Adjusted_Penalty>
2.27548

> <i_epik_Tot_Q>
1

> <i_epik_Tot_abs_Q>
1

> <r_epik_Metal_State_Penalty>
1.2527

> <b_epik_Metal_Only>
0

> <s_lp_Force_Field>
OPLS_2005

> <r_lp_Energy>
19.8643

> <b_lp_Chiralities_Consistent>
1

> <s_lp_Variant>
AV-unprocessed.smi:2960-2

> <Gold.Version>
5.8.1

> <Gold.Id.Protein>
6NUR|6NUR_protein|mol2

> <Gold.PLP.Fitness>
61.2906

> <Gold.PLP.PLP>
-51.6851

> <Gold.PLP.part.hbond>
-3.0000

> <Gold.PLP.part.metal>
0.0000

> <Gold.PLP.part.buried>
-7.2063

> <Gold.PLP.part.nonpolar>
-42.4935

> <Gold.PLP.part.repulsive>
0.1639

> <Gold.PLP.ligand.clash>
0.0050

> <Gold.PLP.ligand.torsion>
1.3715

> <Gold.PLP.Chemscore.Hbond>
3.9920

> <Gold.PLP.Chemscore.CHOScore>
0.0000

> <Gold.PLP.Chemscore.Metal>
0.0000

> <Gold.Chemscore.Hbonds>
donor molecule, donor type, donor heavy atom, donor atom, acceptor molecule, acceptor atom, score
      L1  H     4    29       P1  7948  0.99
      L1  H     8    49       P1  7948  2.00
      P1  H 10752 10765       L1     3  1.00

> <Gold.PLP.Chemscore.Internal.Correction>
0.3775

> <Gold.Rescore>
     Score         DG    S(hbond)    S(metal)    S(lipo)     H(rot)  DE(clash)    DE(int)     intcor
     19.29     -20.82       2.06        0.00     119.98       2.18       0.13       1.40       ----

> <Gold.Chemscore.Fitness>
19.2868

> <Gold.Chemscore.DG>
-20.8159

> <Gold.Chemscore.ZeroCoef>
-5.4800

> <Gold.Chemscore.Hbond>
2.0591

> <Gold.Chemscore.Metal>
0.0000

> <Gold.Chemscore.Lipo>
119.9790

> <Gold.Chemscore.Internal_Hbond>
0.0000

> <Gold.Chemscore.DEClash>
0.1317

> <Gold.Chemscore.DEInternal>
1.3973

> <Gold.Chemscore.Rot>
2.1793

> <Gold.Chemscore.Internal.Correction>
   9.000000E+99

> <Gold.Chemscore.Hbonds>
donor molecule, donor type, donor heavy atom, donor atom, acceptor molecule, acceptor atom, score
      L1  H     4    29       P1  7948  0.75
      L1  H     8    49       P1  7948  0.26
      P1  H 10752 10765       L1     3  0.29

> <Gold.Chemscore.Hbond.Weighted>
-6.8775

> <Gold.Chemscore.Metal.Weighted>
-0.0000

> <Gold.Chemscore.Lipo.Weighted>
-14.0375

> <Gold.Chemscore.Internal_Hbond.Weighted>
0.0000

> <Gold.Chemscore.DEClash.Weighted>
0.1317

> <Gold.Chemscore.DEInternal.Weighted>
1.3973

> <Gold.Chemscore.Rot.Weighted>
5.5791

> <Gold.Chemscore.Internal.Correction.Weighted>
   9.000000E+99

> <Gold.Protein.RotatedTorsions>
[ 6907 6896 6895 6894 ] final   73.00 input  -60.11 | X-H torsion
[ 7974 7965 7964 7962 ] final  -70.27 input  175.53 | X-H torsion
[ 8008 7997 7996 7995 ] final   30.20 input   59.86 | X-H torsion
[ 10167 10162 10161 10158 ] final    2.21 input  -65.29 | X-H torsion
[ 10718 10713 10712 10709 ] final  117.28 input   66.30 | X-H torsion
[ 10763 10752 10751 10750 ] final -147.03 input  -60.55 | X-H torsion
[ 11005 11000 10999 10996 ] final  108.38 input  -57.11 | X-H torsion

> <Gold.Protein.ActiveResidues>
 VAL166  LYS551  ARG553  GLY616  TRP617  ASP618  TYR619  PRO620  LYS621  CYS622 
 ASP623  PHE694  ASN695  SER759  ASP760  ASP761  ALA762  ILE779  LEU786  VAL792 
 PHE793  MET794  SER795  GLU796  ALA797  LYS798  CYS799  TRP800  GLU811  SER814 

> <Gold.Protein.RotatedAtoms>
  152.4899  134.4487  159.9567 H   0  0  0  0  0  0  0  0  0  0  0  0  # atno 6907 bound_to 6896
  151.4476  133.3620  159.2798 H   0  0  0  0  0  0  0  0  0  0  0  0  # atno 6908 bound_to 6896
  150.9044  134.8482  159.7442 H   0  0  0  0  0  0  0  0  0  0  0  0  # atno 6909 bound_to 6896
  145.6931  140.9145  143.0771 H   0  0  0  0  0  0  0  0  0  0  0  0  # atno 7974 bound_to 7965
  155.0867  140.3216  155.4585 H   0  0  0  0  0  0  0  0  0  0  0  0  # atno 8008 bound_to 7997
  156.2753  140.2085  156.5940 H   0  0  0  0  0  0  0  0  0  0  0  0  # atno 8009 bound_to 7997
  154.6936  140.0514  157.0375 H   0  0  0  0  0  0  0  0  0  0  0  0  # atno 8010 bound_to 7997
  140.6646  143.7214  150.7802 H   0  0  0  0  0  0  0  0  0  0  0  0  # atno 10167 bound_to 10162
  157.6106  131.1035  150.7593 H   0  0  0  0  0  0  0  0  0  0  0  0  # atno 10718 bound_to 10713
  154.8307  135.3371  154.6754 H   0  0  0  0  0  0  0  0  0  0  0  0  # atno 10763 bound_to 10752
  153.7374  135.6948  153.4979 H   0  0  0  0  0  0  0  0  0  0  0  0  # atno 10764 bound_to 10752
  153.2268  135.4430  155.0503 H   0  0  0  0  0  0  0  0  0  0  0  0  # atno 10765 bound_to 10752
  139.8843  134.9429  156.5964 H   0  0  0  0  0  0  0  0  0  0  0  0  # atno 11005 bound_to 11000
  144.6990  139.8848  143.7449 LP  0  0  0  0  0  0  0  0  0  0  0  0  # atno 17320 bound_to 7965
  146.0864  139.3852  143.0433 LP  0  0  0  0  0  0  0  0  0  0  0  0  # atno 17321 bound_to 7965
  140.0889  143.4897  152.2489 LP  0  0  0  0  0  0  0  0  0  0  0  0  # atno 17342 bound_to 10162
  139.5890  144.7542  151.3448 LP  0  0  0  0  0  0  0  0  0  0  0  0  # atno 17343 bound_to 10162
  156.7971  130.4909  149.5375 LP  0  0  0  0  0  0  0  0  0  0  0  0  # atno 17370 bound_to 10713
  156.1208  130.6108  151.0190 LP  0  0  0  0  0  0  0  0  0  0  0  0  # atno 17371 bound_to 10713
  140.7917  133.8577  155.8651 LP  0  0  0  0  0  0  0  0  0  0  0  0  # atno 17394 bound_to 11000
  140.9671  134.1579  157.4607 LP  0  0  0  0  0  0  0  0  0  0  0  0  # atno 17395 bound_to 11000

$$$$
