AV-unprocessed.smi:2471|AV-procd|sdf|9740|dock1
  -GOLD-   2272013383D 1   1.00000     0.00000
 Structure written by MMmdl.
 40 41  0  0  0  0  0  0  0  0  1 V2000
  146.3079  142.4656  154.8112 C   0  0  0  0  0  0  0  0  0  0  0  0
  147.3243  141.3617  154.6069 C   0  0  0  0  0  0  0  0  0  0  0  0
  148.6556  141.5134  155.0410 C   0  0  0  0  0  0  0  0  0  0  0  0
  149.5481  140.4482  154.8253 C   0  0  0  0  0  0  0  0  0  0  0  0
  149.0764  139.2840  154.1886 C   0  0  0  0  0  0  0  0  0  0  0  0
  147.7244  139.2124  153.7836 C   0  0  0  0  0  0  0  0  0  0  0  0
  147.3473  137.9973  153.1517 N   0  0  0  0  0  0  0  0  0  0  0  0
  146.1089  137.5049  152.9711 C   0  0  0  0  0  0  0  0  0  0  0  0
  145.0650  138.0521  153.3282 O   0  0  0  0  0  0  0  0  0  0  0  0
  146.1424  136.3221  152.3401 N   0  0  0  0  0  0  0  0  0  0  0  0
  144.9669  135.5315  151.9869 C   0  0  0  0  0  0  0  0  0  0  0  0
  145.3294  134.2231  151.2437 C   0  0  1  0  0  0  0  0  0  0  0  0
  145.9471  133.1832  152.2084 C   0  0  0  0  0  0  0  0  0  0  0  0
  146.2824  131.8610  151.5014 C   0  0  0  0  0  0  0  0  0  0  0  0
  145.0446  131.2738  150.8106 C   0  0  0  0  0  0  0  0  0  0  0  0
  144.4419  132.2844  149.8256 C   0  0  0  0  0  0  0  0  0  0  0  0
  144.1012  133.6161  150.5207 C   0  0  2  0  0  0  0  0  0  0  0  0
  143.6246  134.5053  149.5300 O   0  0  0  0  0  0  0  0  0  0  0  0
  146.8714  140.2450  153.9975 N   0  0  0  0  0  0  0  0  0  0  0  0
  146.7910  143.3968  155.1085 H   0  0  0  0  0  0  0  0  0  0  0  0
  145.5983  142.1848  155.5898 H   0  0  0  0  0  0  0  0  0  0  0  0
  145.7532  142.6509  153.8906 H   0  0  0  0  0  0  0  0  0  0  0  0
  148.9861  142.4196  155.5271 H   0  0  0  0  0  0  0  0  0  0  0  0
  150.5778  140.5220  155.1425 H   0  0  0  0  0  0  0  0  0  0  0  0
  149.7498  138.4569  154.0151 H   0  0  0  0  0  0  0  0  0  0  0  0
  148.1091  137.4369  152.8000 H   0  0  0  0  0  0  0  0  0  0  0  0
  147.0416  135.9427  152.0820 H   0  0  0  0  0  0  0  0  0  0  0  0
  144.4273  135.2996  152.9054 H   0  0  0  0  0  0  0  0  0  0  0  0
  144.2935  136.1466  151.3881 H   0  0  0  0  0  0  0  0  0  0  0  0
  146.0783  134.4565  150.4846 H   0  0  0  0  0  0  0  0  0  0  0  0
  146.8555  133.5789  152.6632 H   0  0  0  0  0  0  0  0  0  0  0  0
  145.2542  132.9871  153.0279 H   0  0  0  0  0  0  0  0  0  0  0  0
  147.0694  132.0290  150.7648 H   0  0  0  0  0  0  0  0  0  0  0  0
  146.6798  131.1452  152.2214 H   0  0  0  0  0  0  0  0  0  0  0  0
  145.3109  130.3556  150.2864 H   0  0  0  0  0  0  0  0  0  0  0  0
  144.2998  131.0000  151.5589 H   0  0  0  0  0  0  0  0  0  0  0  0
  145.1506  132.4608  149.0146 H   0  0  0  0  0  0  0  0  0  0  0  0
  143.5475  131.8614  149.3666 H   0  0  0  0  0  0  0  0  0  0  0  0
  143.2991  133.4502  151.2414 H   0  0  0  0  0  0  0  0  0  0  0  0
  142.6798  134.4992  149.5483 H   0  0  0  0  0  0  0  0  0  0  0  0
  1  2  1  0  0  0  0
  1 20  1  0  0  0  0
  1 21  1  0  0  0  0
  1 22  1  0  0  0  0
  2 19  1  0  0  0  0
  2  3  2  0  0  0  0
  3  4  1  0  0  0  0
  3 23  1  0  0  0  0
  4  5  2  0  0  0  0
  4 24  1  0  0  0  0
  5  6  1  0  0  0  0
  5 25  1  0  0  0  0
  6  7  1  0  0  0  0
  6 19  2  0  0  0  0
  7  8  1  0  0  0  0
  7 26  1  0  0  0  0
  8  9  2  0  0  0  0
  8 10  1  0  0  0  0
 10 11  1  0  0  0  0
 10 27  1  0  0  0  0
 11 12  1  0  0  0  0
 11 28  1  0  0  0  0
 11 29  1  0  0  0  0
 12 17  1  0  0  0  0
 12 13  1  0  0  0  0
 12 30  1  0  0  0  0
 13 14  1  0  0  0  0
 13 31  1  0  0  0  0
 13 32  1  0  0  0  0
 14 15  1  0  0  0  0
 14 33  1  0  0  0  0
 14 34  1  0  0  0  0
 15 16  1  0  0  0  0
 15 35  1  0  0  0  0
 15 36  1  0  0  0  0
 16 17  1  0  0  0  0
 16 37  1  0  0  0  0
 16 38  1  0  0  0  0
 17 18  1  0  0  0  0
 17 39  1  0  0  0  0
 18 40  1  0  0  0  0
M  END
> <s_m_source_file>
AV-unprocessed.smi

> <i_m_source_file_index>
2471

> <i_lp_mmshare_version>
43012

> <i_f3d_flags>
0

> <s_epik_input>
W0NIM11jMVtjSF1bY0hdW2NIXWMobjEpW05IXUMoPU8pW05IXVtDSDJdW0NAQEhdMltDSDJdW0NIMl1bQ0gyXVtDSDJdW0NASF0yW09IXQ==

> <s_epik_cmdline>
J2VwaWtfcHl0aG9uJywgJy1waCcsICc3LjAnLCAnLXRuJywgJzgnLCAnLW1hJywgJzIwMCcsICctbWV0YWxfYmluZGluZycsICctaW1hZScsICc8aW5maWxlLm1hZT4nLCAnLW9tYWUnLCAnPG91dGZpbGUubWFlPic=

> <r_lp_tautomer_probability>
1

> <r_epik_Ionization_Penalty>
8.52237e-05

> <r_epik_Ionization_Penalty_Charging>
0

> <r_epik_Ionization_Penalty_Neutral>
8.52237e-05

> <r_epik_State_Penalty>
-0

> <r_epik_Charging_Adjusted_Penalty>
0

> <i_epik_Tot_Q>
0

> <i_epik_Tot_abs_Q>
0

> <r_epik_Metal_State_Penalty>
-0

> <b_epik_Metal_Only>
0

> <s_lp_Force_Field>
OPLS_2005

> <r_lp_Energy>
14.0215

> <b_lp_Chiralities_Consistent>
1

> <s_lp_Variant>
AV-unprocessed.smi:2471-4

> <Gold.Version>
5.8.1

> <Gold.Id.Protein>
6NUR|6NUR_protein|mol2

> <Gold.PLP.Fitness>
45.1502

> <Gold.PLP.PLP>
-36.7289

> <Gold.PLP.part.hbond>
-4.0000

> <Gold.PLP.part.metal>
0.0000

> <Gold.PLP.part.buried>
-3.5832

> <Gold.PLP.part.nonpolar>
-32.5598

> <Gold.PLP.part.repulsive>
3.4288

> <Gold.PLP.ligand.clash>
0.0000

> <Gold.PLP.ligand.torsion>
0.1846

> <Gold.PLP.Chemscore.Hbond>
2.9280

> <Gold.PLP.Chemscore.CHOScore>
0.0000

> <Gold.PLP.Chemscore.Metal>
0.0000

> <Gold.Chemscore.Hbonds>
donor molecule, donor type, donor heavy atom, donor atom, acceptor molecule, acceptor atom, score
      L1  H     7    26       P1  7948  1.00
      L1  H    10    27       P1  7948  0.98
      L1  H    18    40       P1 10186  1.00

> <Gold.PLP.Chemscore.Internal.Correction>
0.0067

> <Gold.Rescore>
     Score         DG    S(hbond)    S(metal)    S(lipo)     H(rot)  DE(clash)    DE(int)     intcor
     18.21     -20.06       2.92        0.00      79.33       1.73       0.46       1.39       ----

> <Gold.Chemscore.Fitness>
18.2112

> <Gold.Chemscore.DG>
-20.0624

> <Gold.Chemscore.ZeroCoef>
-5.4800

> <Gold.Chemscore.Hbond>
2.9159

> <Gold.Chemscore.Metal>
0.0000

> <Gold.Chemscore.Lipo>
79.3321

> <Gold.Chemscore.Internal_Hbond>
0.0000

> <Gold.Chemscore.DEClash>
0.4622

> <Gold.Chemscore.DEInternal>
1.3890

> <Gold.Chemscore.Rot>
1.7339

> <Gold.Chemscore.Internal.Correction>
   9.000000E+99

> <Gold.Chemscore.Hbonds>
donor molecule, donor type, donor heavy atom, donor atom, acceptor molecule, acceptor atom, score
      L1  H     7    26       P1  7948  1.00
      L1  H    10    27       P1  7948  0.93
      L1  H    18    40       P1 10186  0.98

> <Gold.Chemscore.Hbond.Weighted>
-9.7392

> <Gold.Chemscore.Metal.Weighted>
-0.0000

> <Gold.Chemscore.Lipo.Weighted>
-9.2819

> <Gold.Chemscore.Internal_Hbond.Weighted>
0.0000

> <Gold.Chemscore.DEClash.Weighted>
0.4622

> <Gold.Chemscore.DEInternal.Weighted>
1.3890

> <Gold.Chemscore.Rot.Weighted>
4.4387

> <Gold.Chemscore.Internal.Correction.Weighted>
   9.000000E+99

> <Gold.Protein.RotatedTorsions>
[ 6907 6896 6895 6894 ] final  178.56 input  -60.11 | X-H torsion
[ 7974 7965 7964 7962 ] final   91.90 input  175.53 | X-H torsion
[ 8008 7997 7996 7995 ] final  142.20 input   59.86 | X-H torsion
[ 10167 10162 10161 10158 ] final  125.63 input  -65.29 | X-H torsion
[ 10718 10713 10712 10709 ] final -114.73 input   66.30 | X-H torsion
[ 10763 10752 10751 10750 ] final  -84.18 input  -60.55 | X-H torsion
[ 11005 11000 10999 10996 ] final -150.40 input  -57.11 | X-H torsion

> <Gold.Protein.ActiveResidues>
 VAL166  LYS551  ARG553  GLY616  TRP617  ASP618  TYR619  PRO620  LYS621  CYS622 
 ASP623  PHE694  ASN695  SER759  ASP760  ASP761  ALA762  ILE779  LEU786  VAL792 
 PHE793  MET794  SER795  GLU796  ALA797  LYS798  CYS799  TRP800  GLU811  SER814 

> <Gold.Protein.RotatedAtoms>
  151.6858  133.3311  159.3230 H   0  0  0  0  0  0  0  0  0  0  0  0  # atno 6907 bound_to 6896
  150.7802  134.6741  159.6417 H   0  0  0  0  0  0  0  0  0  0  0  0  # atno 6908 bound_to 6896
  152.3856  134.6525  160.0179 H   0  0  0  0  0  0  0  0  0  0  0  0  # atno 6909 bound_to 6896
  145.4995  139.2276  143.2785 H   0  0  0  0  0  0  0  0  0  0  0  0  # atno 7974 bound_to 7965
  156.2953  140.2295  156.4690 H   0  0  0  0  0  0  0  0  0  0  0  0  # atno 8008 bound_to 7997
  154.7952  140.0452  157.1252 H   0  0  0  0  0  0  0  0  0  0  0  0  # atno 8009 bound_to 7997
  154.9598  140.3053  155.5039 H   0  0  0  0  0  0  0  0  0  0  0  0  # atno 8010 bound_to 7997
  139.5675  144.6920  151.3870 H   0  0  0  0  0  0  0  0  0  0  0  0  # atno 10167 bound_to 10162
  156.0849  130.6043  150.8814 H   0  0  0  0  0  0  0  0  0  0  0  0  # atno 10718 bound_to 10713
  154.5965  135.5530  153.7331 H   0  0  0  0  0  0  0  0  0  0  0  0  # atno 10763 bound_to 10752
  153.0137  135.6356  154.1775 H   0  0  0  0  0  0  0  0  0  0  0  0  # atno 10764 bound_to 10752
  154.1715  135.2892  155.3059 H   0  0  0  0  0  0  0  0  0  0  0  0  # atno 10765 bound_to 10752
  140.7406  134.3519  157.5148 H   0  0  0  0  0  0  0  0  0  0  0  0  # atno 11005 bound_to 11000
  146.2235  140.5795  142.9007 LP  0  0  0  0  0  0  0  0  0  0  0  0  # atno 17320 bound_to 7965
  144.7788  140.5796  143.6620 LP  0  0  0  0  0  0  0  0  0  0  0  0  # atno 17321 bound_to 7965
  140.6959  143.7750  150.7326 LP  0  0  0  0  0  0  0  0  0  0  0  0  # atno 17342 bound_to 10162
  140.1246  143.4580  152.2292 LP  0  0  0  0  0  0  0  0  0  0  0  0  # atno 17343 bound_to 10162
  157.5980  131.0942  150.9008 LP  0  0  0  0  0  0  0  0  0  0  0  0  # atno 17370 bound_to 10713
  156.9171  130.5301  149.5279 LP  0  0  0  0  0  0  0  0  0  0  0  0  # atno 17371 bound_to 10713
  139.8807  134.9078  156.2953 LP  0  0  0  0  0  0  0  0  0  0  0  0  # atno 17394 bound_to 11000
  140.9840  133.7249  156.0714 LP  0  0  0  0  0  0  0  0  0  0  0  0  # atno 17395 bound_to 11000

$$$$
