AV-unprocessed.smi:2061|AV-procd|sdf|8365|dock9
  -GOLD-   2272011 43D 1   1.00000     0.00000
 Structure written by MMmdl.
 45 46  0  0  0  0  0  0  0  0  1 V2000
  138.1197  137.2320  154.0394 C   0  0  0  0  0  0  0  0  0  0  0  0
  139.6076  137.2470  154.1195 C   0  0  0  0  0  0  0  0  0  0  0  0
  140.5574  138.0946  153.6224 C   0  0  0  0  0  0  0  0  0  0  0  0
  141.7722  137.5141  154.0748 C   0  0  0  0  0  0  0  0  0  0  0  0
  143.0226  138.1058  153.7617 N   0  0  0  0  0  0  0  0  0  0  0  0
  144.2220  137.8158  154.2942 C   0  0  0  0  0  0  0  0  0  0  0  0
  144.4225  136.9765  155.1723 O   0  0  0  0  0  0  0  0  0  0  0  0
  145.1896  138.5687  153.7499 N   0  0  0  0  0  0  0  0  0  0  0  0
  146.6083  138.5139  154.0974 C   0  0  0  0  0  0  0  0  0  0  0  0
  147.2791  139.9165  154.1391 C   0  0  1  0  0  0  0  0  0  0  0  0
  146.2687  140.9426  154.7140 C   0  0  0  0  0  0  0  0  0  0  0  0
  148.5747  139.9270  154.8604 N   0  0  0  0  0  0  0  0  0  0  0  0
  149.2263  141.2416  154.8207 C   0  0  0  0  0  0  0  0  0  0  0  0
  150.5892  141.2830  155.5398 C   0  0  1  0  0  0  0  0  0  0  0  0
  150.4710  141.2664  157.0735 C   0  0  0  0  0  0  0  0  0  0  0  0
  151.4367  140.2427  155.0590 O   0  0  0  0  0  0  0  0  0  0  0  0
  150.8647  138.9404  155.1057 C   0  0  2  0  0  0  0  0  0  0  0  0
  151.8745  137.9594  154.5008 C   0  0  0  0  0  0  0  0  0  0  0  0
  149.5262  138.9376  154.3448 C   0  0  0  0  0  0  0  0  0  0  0  0
  141.5812  136.4118  154.7831 N   0  0  0  0  0  0  0  0  0  0  0  0
  140.1931  136.2344  154.8147 O   0  0  0  0  0  0  0  0  0  0  0  0
  137.7406  138.1837  153.6666 H   0  0  0  0  0  0  0  0  0  0  0  0
  137.6801  137.0546  155.0211 H   0  0  0  0  0  0  0  0  0  0  0  0
  137.7775  136.4447  153.3675 H   0  0  0  0  0  0  0  0  0  0  0  0
  140.4042  138.9850  153.0310 H   0  0  0  0  0  0  0  0  0  0  0  0
  143.0017  138.8247  153.0538 H   0  0  0  0  0  0  0  0  0  0  0  0
  144.9266  139.2334  153.0370 H   0  0  0  0  0  0  0  0  0  0  0  0
  146.7709  137.9939  155.0430 H   0  0  0  0  0  0  0  0  0  0  0  0
  147.0502  137.8886  153.3241 H   0  0  0  0  0  0  0  0  0  0  0  0
  147.4702  140.2057  153.1045 H   0  0  0  0  0  0  0  0  0  0  0  0
  145.3102  140.9184  154.1976 H   0  0  0  0  0  0  0  0  0  0  0  0
  146.6114  141.9708  154.6115 H   0  0  0  0  0  0  0  0  0  0  0  0
  146.0753  140.7546  155.7707 H   0  0  0  0  0  0  0  0  0  0  0  0
  149.3675  141.5410  153.7810 H   0  0  0  0  0  0  0  0  0  0  0  0
  148.5988  142.0023  155.2807 H   0  0  0  0  0  0  0  0  0  0  0  0
  151.0777  142.2203  155.2718 H   0  0  0  0  0  0  0  0  0  0  0  0
  149.9205  142.1379  157.4284 H   0  0  0  0  0  0  0  0  0  0  0  0
  151.4563  141.2870  157.5394 H   0  0  0  0  0  0  0  0  0  0  0  0
  149.9469  140.3825  157.4361 H   0  0  0  0  0  0  0  0  0  0  0  0
  150.6933  138.6548  156.1440 H   0  0  0  0  0  0  0  0  0  0  0  0
  151.4932  136.9383  154.5243 H   0  0  0  0  0  0  0  0  0  0  0  0
  152.8128  137.9757  155.0558 H   0  0  0  0  0  0  0  0  0  0  0  0
  152.0969  138.2112  153.4635 H   0  0  0  0  0  0  0  0  0  0  0  0
  149.1209  137.9318  154.4338 H   0  0  0  0  0  0  0  0  0  0  0  0
  149.7050  139.1160  153.2833 H   0  0  0  0  0  0  0  0  0  0  0  0
  1  2  1  0  0  0  0
  1 22  1  0  0  0  0
  1 23  1  0  0  0  0
  1 24  1  0  0  0  0
  2 21  1  0  0  0  0
  2  3  2  0  0  0  0
  3  4  1  0  0  0  0
  3 25  1  0  0  0  0
  4  5  1  0  0  0  0
  4 20  2  0  0  0  0
  5  6  1  0  0  0  0
  5 26  1  0  0  0  0
  6  7  2  0  0  0  0
  6  8  1  0  0  0  0
  8  9  1  0  0  0  0
  8 27  1  0  0  0  0
  9 10  1  0  0  0  0
  9 28  1  0  0  0  0
  9 29  1  0  0  0  0
 10 11  1  0  0  0  0
 10 12  1  0  0  0  0
 10 30  1  0  0  0  0
 11 31  1  0  0  0  0
 11 32  1  0  0  0  0
 11 33  1  0  0  0  0
 12 19  1  0  0  0  0
 12 13  1  0  0  0  0
 13 14  1  0  0  0  0
 13 34  1  0  0  0  0
 13 35  1  0  0  0  0
 14 15  1  0  0  0  0
 14 16  1  0  0  0  0
 14 36  1  0  0  0  0
 15 37  1  0  0  0  0
 15 38  1  0  0  0  0
 15 39  1  0  0  0  0
 16 17  1  0  0  0  0
 17 18  1  0  0  0  0
 17 19  1  0  0  0  0
 17 40  1  0  0  0  0
 18 41  1  0  0  0  0
 18 42  1  0  0  0  0
 18 43  1  0  0  0  0
 19 44  1  0  0  0  0
 19 45  1  0  0  0  0
 20 21  1  0  0  0  0
M  END
> <s_m_source_file>
AV-unprocessed.smi

> <i_m_source_file_index>
2061

> <i_lp_mmshare_version>
43012

> <i_f3d_flags>
0

> <s_epik_input>
W0NIM11jMVtjSF1jKG5vMSlbTkhdQyg9TylbTkhdW0NIMl1bQ0BIXShbQ0gzXSlOMltDSDJdW0NAQEhdKFtDSDNdKU9bQ0BASF0oW0NIM10pW0NIMl0y

> <s_epik_cmdline>
J2VwaWtfcHl0aG9uJywgJy1waCcsICc3LjAnLCAnLXRuJywgJzgnLCAnLW1hJywgJzIwMCcsICctbWV0YWxfYmluZGluZycsICctaW1hZScsICc8aW5maWxlLm1hZT4nLCAnLW9tYWUnLCAnPG91dGZpbGUubWFlPic=

> <r_epik_Ionization_Penalty>
0.214073

> <r_epik_Ionization_Penalty_Charging>
0

> <r_epik_Ionization_Penalty_Neutral>
0.214073

> <r_epik_State_Penalty>
0.204211

> <r_epik_Charging_Adjusted_Penalty>
0.204211

> <i_epik_Tot_Q>
0

> <i_epik_Tot_abs_Q>
0

> <r_epik_Metal_State_Penalty>
0.217067

> <b_epik_Metal_Only>
0

> <s_lp_Force_Field>
OPLS_2005

> <r_lp_Energy>
29.5026

> <b_lp_Chiralities_Consistent>
1

> <s_lp_Variant>
AV-unprocessed.smi:2061-6

> <Gold.Version>
5.8.1

> <Gold.Id.Protein>
6NUR|6NUR_protein|mol2

> <Gold.PLP.Fitness>
45.6043

> <Gold.PLP.PLP>
-34.4811

> <Gold.PLP.part.hbond>
-4.1090

> <Gold.PLP.part.metal>
0.0000

> <Gold.PLP.part.buried>
-5.9128

> <Gold.PLP.part.nonpolar>
-24.9411

> <Gold.PLP.part.repulsive>
0.2420

> <Gold.PLP.ligand.clash>
0.0000

> <Gold.PLP.ligand.torsion>
0.3805

> <Gold.PLP.Chemscore.Hbond>
3.9520

> <Gold.PLP.Chemscore.CHOScore>
0.0000

> <Gold.PLP.Chemscore.Metal>
0.0000

> <Gold.Chemscore.Hbonds>
donor molecule, donor type, donor heavy atom, donor atom, acceptor molecule, acceptor atom, score
      L1  H     5    26       P1 10175  0.98
      L1  H     8    27       P1 10175  0.93
      P1  H  7989  7998       L1    16  0.80
      P1  H 11000 11005       L1    21  1.00

> <Gold.PLP.Chemscore.Internal.Correction>
0.0282

> <Gold.Rescore>
     Score         DG    S(hbond)    S(metal)    S(lipo)     H(rot)  DE(clash)    DE(int)     intcor
     18.64     -20.30       3.02        0.00      74.27       1.55       0.02       1.64       ----

> <Gold.Chemscore.Fitness>
18.6378

> <Gold.Chemscore.DG>
-20.3037

> <Gold.Chemscore.ZeroCoef>
-5.4800

> <Gold.Chemscore.Hbond>
3.0224

> <Gold.Chemscore.Metal>
0.0000

> <Gold.Chemscore.Lipo>
74.2741

> <Gold.Chemscore.Internal_Hbond>
0.0000

> <Gold.Chemscore.DEClash>
0.0239

> <Gold.Chemscore.DEInternal>
1.6419

> <Gold.Chemscore.Rot>
1.5474

> <Gold.Chemscore.Internal.Correction>
   9.000000E+99

> <Gold.Chemscore.Hbonds>
donor molecule, donor type, donor heavy atom, donor atom, acceptor molecule, acceptor atom, score
      L1  H     5    26       P1 10175  0.92
      L1  H     8    27       P1 10175  0.90
      P1  H  7989  7998       L1    16  0.10
      P1  H 11000 11005       L1    21  0.38

> <Gold.Chemscore.Hbond.Weighted>
-10.0948

> <Gold.Chemscore.Metal.Weighted>
-0.0000

> <Gold.Chemscore.Lipo.Weighted>
-8.6901

> <Gold.Chemscore.Internal_Hbond.Weighted>
0.0000

> <Gold.Chemscore.DEClash.Weighted>
0.0239

> <Gold.Chemscore.DEInternal.Weighted>
1.6419

> <Gold.Chemscore.Rot.Weighted>
3.9612

> <Gold.Chemscore.Internal.Correction.Weighted>
   9.000000E+99

> <Gold.Protein.RotatedTorsions>
[ 6907 6896 6895 6894 ] final   94.79 input  -60.11 | X-H torsion
[ 7974 7965 7964 7962 ] final  124.44 input  175.53 | X-H torsion
[ 8008 7997 7996 7995 ] final    2.96 input   59.86 | X-H torsion
[ 10167 10162 10161 10158 ] final -152.68 input  -65.29 | X-H torsion
[ 10718 10713 10712 10709 ] final   -0.63 input   66.30 | X-H torsion
[ 10763 10752 10751 10750 ] final  -57.56 input  -60.55 | X-H torsion
[ 11005 11000 10999 10996 ] final   66.09 input  -57.11 | X-H torsion

> <Gold.Protein.ActiveResidues>
 VAL166  LYS551  ARG553  GLY616  TRP617  ASP618  TYR619  PRO620  LYS621  CYS622 
 ASP623  PHE694  ASN695  SER759  ASP760  ASP761  ALA762  ILE779  LEU786  VAL792 
 PHE793  MET794  SER795  GLU796  ALA797  LYS798  CYS799  TRP800  GLU811  SER814 

> <Gold.Protein.RotatedAtoms>
  152.5447  134.1139  159.8370 H   0  0  0  0  0  0  0  0  0  0  0  0  # atno 6907 bound_to 6896
  151.1203  133.5102  159.2610 H   0  0  0  0  0  0  0  0  0  0  0  0  # atno 6908 bound_to 6896
  151.1787  135.0360  159.8837 H   0  0  0  0  0  0  0  0  0  0  0  0  # atno 6909 bound_to 6896
  145.0844  139.3633  143.4893 H   0  0  0  0  0  0  0  0  0  0  0  0  # atno 7974 bound_to 7965
  154.6978  140.2667  155.6749 H   0  0  0  0  0  0  0  0  0  0  0  0  # atno 8008 bound_to 7997
  156.2754  140.2778  156.1502 H   0  0  0  0  0  0  0  0  0  0  0  0  # atno 8009 bound_to 7997
  155.0806  140.0372  157.2628 H   0  0  0  0  0  0  0  0  0  0  0  0  # atno 8010 bound_to 7997
  139.7161  143.9032  152.2486 H   0  0  0  0  0  0  0  0  0  0  0  0  # atno 10167 bound_to 10162
  156.8176  130.5445  149.5701 H   0  0  0  0  0  0  0  0  0  0  0  0  # atno 10718 bound_to 10713
  154.2244  135.6372  153.5155 H   0  0  0  0  0  0  0  0  0  0  0  0  # atno 10763 bound_to 10752
  152.9962  135.5504  154.6079 H   0  0  0  0  0  0  0  0  0  0  0  0  # atno 10764 bound_to 10752
  154.5547  135.2904  155.0949 H   0  0  0  0  0  0  0  0  0  0  0  0  # atno 10765 bound_to 10752
  139.9853  134.6678  156.0187 H   0  0  0  0  0  0  0  0  0  0  0  0  # atno 11005 bound_to 11000
  146.3531  140.0649  142.8627 LP  0  0  0  0  0  0  0  0  0  0  0  0  # atno 17320 bound_to 7965
  145.1140  140.9422  143.4639 LP  0  0  0  0  0  0  0  0  0  0  0  0  # atno 17321 bound_to 7965
  139.8914  144.6963  150.8766 LP  0  0  0  0  0  0  0  0  0  0  0  0  # atno 17342 bound_to 10162
  140.7744  143.3583  151.1877 LP  0  0  0  0  0  0  0  0  0  0  0  0  # atno 17343 bound_to 10162
  156.1007  130.5967  150.9890 LP  0  0  0  0  0  0  0  0  0  0  0  0  # atno 17370 bound_to 10713
  157.6473  131.0902  150.8125 LP  0  0  0  0  0  0  0  0  0  0  0  0  # atno 17371 bound_to 10713
  141.1519  133.6547  156.4040 LP  0  0  0  0  0  0  0  0  0  0  0  0  # atno 17394 bound_to 11000
  140.5015  134.6481  157.5250 LP  0  0  0  0  0  0  0  0  0  0  0  0  # atno 17395 bound_to 11000

$$$$
