AV-unprocessed.smi:1965|AV-procd|sdf|7947|dock7
  -GOLD-   2272010113D 1   1.00000     0.00000
 Structure written by MMmdl.
 36 38  0  0  0  0  0  0  0  0  3 V2000
  149.1389  138.1664  159.2038 O   0  0  0  0  0  0  0  0  0  0  0  0
  149.2047  136.9893  158.8522 C   0  0  0  0  0  0  0  0  0  0  0  0
  149.1348  135.9443  159.7173 N   0  5  0  0  0  0  0  0  0  0  0  0
  148.3017  135.9329  160.7744 C   0  0  0  0  0  0  0  0  0  0  0  0
  147.8235  137.0460  161.3425 N   0  0  0  0  0  0  0  0  0  0  0  0
  146.9778  136.7973  162.4253 C   0  0  0  0  0  0  0  0  0  0  0  0
  146.8084  135.4636  162.6874 C   0  0  0  0  0  0  0  0  0  0  0  0
  147.7055  134.4742  161.5713 S   0  0  0  0  0  0  0  0  0  0  0  0
  149.3545  136.7094  157.5442 N   0  0  0  0  0  0  0  0  0  0  0  0
  149.4197  137.6840  156.4623 C   0  0  1  0  0  0  0  0  0  0  0  0
  150.8387  138.1826  156.1475 C   0  0  0  0  0  0  0  0  0  0  0  0
  150.8889  138.3259  154.6136 C   0  0  0  0  0  0  0  0  0  0  0  0
  149.5407  137.9778  154.1069 N   0  3  2  0  0  0  0  0  0  0  0  0
  148.7190  139.1870  153.8255 C   0  0  0  0  0  0  0  0  0  0  0  0
  147.2543  138.8361  153.5325 C   0  0  0  0  0  0  0  0  0  0  0  0
  146.6489  138.0710  154.7121 C   0  0  0  0  0  0  0  0  0  0  0  0
  147.4634  136.7985  154.9671 C   0  0  0  0  0  0  0  0  0  0  0  0
  148.9756  137.0696  155.1335 C   0  0  2  0  0  0  0  0  0  0  0  0
  146.5399  137.6311  162.9535 H   0  0  0  0  0  0  0  0  0  0  0  0
  146.2110  135.0047  163.4606 H   0  0  0  0  0  0  0  0  0  0  0  0
  149.4140  135.7354  157.2857 H   0  0  0  0  0  0  0  0  0  0  0  0
  148.7816  138.5359  156.7035 H   0  0  0  0  0  0  0  0  0  0  0  0
  151.0421  139.1281  156.6514 H   0  0  0  0  0  0  0  0  0  0  0  0
  151.5935  137.4671  156.4773 H   0  0  0  0  0  0  0  0  0  0  0  0
  151.2095  139.3205  154.3002 H   0  0  0  0  0  0  0  0  0  0  0  0
  151.6054  137.6133  154.2033 H   0  0  0  0  0  0  0  0  0  0  0  0
  148.7627  139.8718  154.6741 H   0  0  0  0  0  0  0  0  0  0  0  0
  149.1493  139.7176  152.9754 H   0  0  0  0  0  0  0  0  0  0  0  0
  146.6836  139.7469  153.3489 H   0  0  0  0  0  0  0  0  0  0  0  0
  147.1876  138.2372  152.6234 H   0  0  0  0  0  0  0  0  0  0  0  0
  146.6415  138.6995  155.6033 H   0  0  0  0  0  0  0  0  0  0  0  0
  145.6099  137.8149  154.5029 H   0  0  0  0  0  0  0  0  0  0  0  0
  147.0761  136.2721  155.8402 H   0  0  0  0  0  0  0  0  0  0  0  0
  147.3216  136.1221  154.1231 H   0  0  0  0  0  0  0  0  0  0  0  0
  149.4925  136.1141  155.0203 H   0  0  0  0  0  0  0  0  0  0  0  0
  149.6302  137.4678  153.2398 H   0  0  0  0  0  0  0  0  0  0  0  0
  1  2  2  0  0  0  0
  2  3  1  0  0  0  0
  2  9  1  0  0  0  0
  3  4  1  0  0  0  0
  4  8  1  0  0  0  0
  4  5  2  0  0  0  0
  5  6  1  0  0  0  0
  6  7  2  0  0  0  0
  6 19  1  0  0  0  0
  7  8  1  0  0  0  0
  7 20  1  0  0  0  0
  9 10  1  0  0  0  0
  9 21  1  0  0  0  0
 10 18  1  0  0  0  0
 10 11  1  0  0  0  0
 10 22  1  0  0  0  0
 11 12  1  0  0  0  0
 11 23  1  0  0  0  0
 11 24  1  0  0  0  0
 12 13  1  0  0  0  0
 12 25  1  0  0  0  0
 12 26  1  0  0  0  0
 13 18  1  0  0  0  0
 13 14  1  0  0  0  0
 13 36  1  0  0  0  0
 14 15  1  0  0  0  0
 14 27  1  0  0  0  0
 14 28  1  0  0  0  0
 15 16  1  0  0  0  0
 15 29  1  0  0  0  0
 15 30  1  0  0  0  0
 16 17  1  0  0  0  0
 16 31  1  0  0  0  0
 16 32  1  0  0  0  0
 17 18  1  0  0  0  0
 17 33  1  0  0  0  0
 17 34  1  0  0  0  0
 18 35  1  0  0  0  0
M  CHG  1   3  -1
M  CHG  1  13   1
M  END
> <s_m_source_file>
AV-unprocessed.smi

> <i_m_source_file_index>
1965

> <i_lp_mmshare_version>
43012

> <i_f3d_flags>
0

> <s_epik_input>
czFbY0hdW2NIXW5jMVtOSF1DKD1PKVtOSF1bQ0BIXShbQ0gyXVtDSDJdMilbQ0BASF0oTjIzKVtDSDJdW0NIMl1bQ0gyXVtDSDJdMw==

> <s_epik_cmdline>
J2VwaWtfcHl0aG9uJywgJy1waCcsICc3LjAnLCAnLXRuJywgJzgnLCAnLW1hJywgJzIwMCcsICctbWV0YWxfYmluZGluZycsICctaW1hZScsICc8aW5maWxlLm1hZT4nLCAnLW9tYWUnLCAnPG91dGZpbGUubWFlPic=

> <r_lp_tautomer_probability>
1

> <r_epik_Ionization_Penalty>
7.4116

> <r_epik_Ionization_Penalty_Charging>
6.13869

> <r_epik_Ionization_Penalty_Neutral>
1.27291

> <r_epik_State_Penalty>
6.13761

> <r_epik_Charging_Adjusted_Penalty>
12.2763

> <i_epik_Tot_Q>
0

> <i_epik_Tot_abs_Q>
2

> <r_epik_Metal_State_Penalty>
2.08142

> <b_epik_Metal_Only>
1

> <s_lp_Force_Field>
OPLS_2005

> <r_lp_Energy>
29.0908

> <b_lp_Chiralities_Consistent>
1

> <s_lp_Variant>
AV-unprocessed.smi:1965-16

> <Gold.Version>
5.8.1

> <Gold.Id.Protein>
6NUR|6NUR_protein|mol2

> <Gold.PLP.Fitness>
41.4371

> <Gold.PLP.PLP>
-26.2355

> <Gold.PLP.part.hbond>
-5.9907

> <Gold.PLP.part.metal>
0.0000

> <Gold.PLP.part.buried>
-1.9783

> <Gold.PLP.part.nonpolar>
-19.4370

> <Gold.PLP.part.repulsive>
0.0680

> <Gold.PLP.ligand.clash>
0.0000

> <Gold.PLP.ligand.torsion>
0.7817

> <Gold.PLP.Chemscore.Hbond>
5.5848

> <Gold.PLP.Chemscore.CHOScore>
0.0000

> <Gold.PLP.Chemscore.Metal>
0.0000

> <Gold.Chemscore.Hbonds>
donor molecule, donor type, donor heavy atom, donor atom, acceptor molecule, acceptor atom, score
      L1  H    13    36       P1  7948  2.00
      P1  H  6896  6908       L1     3  2.00
      P1  H  6931  6943       L1     5  1.00
      P1  H  6934  6947       L1     5  0.56

> <Gold.PLP.Chemscore.Internal.Correction>
0.0106

> <Gold.Rescore>
     Score         DG    S(hbond)    S(metal)    S(lipo)     H(rot)  DE(clash)    DE(int)     intcor
     15.81     -18.15       2.69        0.00      53.45       1.00       0.05       2.29       ----

> <Gold.Chemscore.Fitness>
15.8070

> <Gold.Chemscore.DG>
-18.1491

> <Gold.Chemscore.ZeroCoef>
-5.4800

> <Gold.Chemscore.Hbond>
2.6873

> <Gold.Chemscore.Metal>
0.0000

> <Gold.Chemscore.Lipo>
53.4491

> <Gold.Chemscore.Internal_Hbond>
0.0000

> <Gold.Chemscore.DEClash>
0.0473

> <Gold.Chemscore.DEInternal>
2.2949

> <Gold.Chemscore.Rot>
1.0000

> <Gold.Chemscore.Internal.Correction>
   9.000000E+99

> <Gold.Chemscore.Hbonds>
donor molecule, donor type, donor heavy atom, donor atom, acceptor molecule, acceptor atom, score
      L1  H    13    36       P1  7948  0.76
      P1  H  6896  6908       L1     3  0.81
      P1  H  6931  6943       L1     5  0.51
      P1  H  6934  6947       L1     5  0.11

> <Gold.Chemscore.Hbond.Weighted>
-8.9755

> <Gold.Chemscore.Metal.Weighted>
-0.0000

> <Gold.Chemscore.Lipo.Weighted>
-6.2535

> <Gold.Chemscore.Internal_Hbond.Weighted>
0.0000

> <Gold.Chemscore.DEClash.Weighted>
0.0473

> <Gold.Chemscore.DEInternal.Weighted>
2.2949

> <Gold.Chemscore.Rot.Weighted>
2.5600

> <Gold.Chemscore.Internal.Correction.Weighted>
   9.000000E+99

> <Gold.Protein.RotatedTorsions>
[ 6907 6896 6895 6894 ] final  175.58 input  -60.11 | X-H torsion
[ 7974 7965 7964 7962 ] final  -43.15 input  175.53 | X-H torsion
[ 8008 7997 7996 7995 ] final   12.07 input   59.86 | X-H torsion
[ 10167 10162 10161 10158 ] final  -39.84 input  -65.29 | X-H torsion
[ 10718 10713 10712 10709 ] final  -58.31 input   66.30 | X-H torsion
[ 10763 10752 10751 10750 ] final   36.16 input  -60.55 | X-H torsion
[ 11005 11000 10999 10996 ] final -140.31 input  -57.11 | X-H torsion

> <Gold.Protein.ActiveResidues>
 VAL166  LYS551  ARG553  GLY616  TRP617  ASP618  TYR619  PRO620  LYS621  CYS622 
 ASP623  PHE694  ASN695  SER759  ASP760  ASP761  ALA762  ILE779  LEU786  VAL792 
 PHE793  MET794  SER795  GLU796  ALA797  LYS798  CYS799  TRP800  GLU811  SER814 

> <Gold.Protein.RotatedAtoms>
  151.7339  133.3319  159.3347 H   0  0  0  0  0  0  0  0  0  0  0  0  # atno 6907 bound_to 6896
  150.7601  134.6338  159.6210 H   0  0  0  0  0  0  0  0  0  0  0  0  # atno 6908 bound_to 6896
  152.3574  134.6923  160.0269 H   0  0  0  0  0  0  0  0  0  0  0  0  # atno 6909 bound_to 6896
  146.0047  140.7034  142.9253 H   0  0  0  0  0  0  0  0  0  0  0  0  # atno 7974 bound_to 7965
  154.8156  140.2875  155.5823 H   0  0  0  0  0  0  0  0  0  0  0  0  # atno 8008 bound_to 7997
  156.2992  140.2560  156.2983 H   0  0  0  0  0  0  0  0  0  0  0  0  # atno 8009 bound_to 7997
  154.9398  140.0381  157.2080 H   0  0  0  0  0  0  0  0  0  0  0  0  # atno 8010 bound_to 7997
  140.7052  143.3190  151.2839 H   0  0  0  0  0  0  0  0  0  0  0  0  # atno 10167 bound_to 10162
  156.1145  130.4172  150.0560 H   0  0  0  0  0  0  0  0  0  0  0  0  # atno 10718 bound_to 10713
  153.0088  135.6313  154.1941 H   0  0  0  0  0  0  0  0  0  0  0  0  # atno 10763 bound_to 10752
  154.1683  135.2819  155.3090 H   0  0  0  0  0  0  0  0  0  0  0  0  # atno 10764 bound_to 10752
  154.5928  135.5612  153.7355 H   0  0  0  0  0  0  0  0  0  0  0  0  # atno 10765 bound_to 10752
  140.8435  134.2373  157.4798 H   0  0  0  0  0  0  0  0  0  0  0  0  # atno 11005 bound_to 11000
  144.6931  140.3294  143.7218 LP  0  0  0  0  0  0  0  0  0  0  0  0  # atno 17320 bound_to 7965
  145.7434  139.1771  143.2363 LP  0  0  0  0  0  0  0  0  0  0  0  0  # atno 17321 bound_to 7965
  139.6638  144.0142  152.2709 LP  0  0  0  0  0  0  0  0  0  0  0  0  # atno 17342 bound_to 10162
  139.9718  144.6488  150.7982 LP  0  0  0  0  0  0  0  0  0  0  0  0  # atno 17343 bound_to 10162
  156.8515  130.9460  151.3625 LP  0  0  0  0  0  0  0  0  0  0  0  0  # atno 17370 bound_to 10713
  157.6327  130.8742  149.9303 LP  0  0  0  0  0  0  0  0  0  0  0  0  # atno 17371 bound_to 10713
  139.8703  134.9647  156.4505 LP  0  0  0  0  0  0  0  0  0  0  0  0  # atno 17394 bound_to 11000
  140.8869  133.7876  155.9528 LP  0  0  0  0  0  0  0  0  0  0  0  0  # atno 17395 bound_to 11000

$$$$
