AV-unprocessed.smi:1643|AV-procd|sdf|6583|dock8
  -GOLD-   22720 7273D 1   1.00000     0.00000
 Structure written by MMmdl.
 54 56  0  0  0  0  0  0  0  0  2 V2000
  147.2543  134.9332  159.8915 C   0  0  0  0  0  0  0  0  0  0  0  0
  147.1093  136.4175  159.5464 C   0  0  0  0  0  0  0  0  0  0  0  0
  147.6411  137.2433  160.2891 O   0  0  0  0  0  0  0  0  0  0  0  0
  146.4009  136.7719  158.4474 N   0  0  0  0  0  0  0  0  0  0  0  0
  145.8136  135.7782  157.5416 C   0  0  0  0  0  0  0  0  0  0  0  0
  146.8028  135.4233  156.4195 C   0  0  0  0  0  0  0  0  0  0  0  0
  147.3179  136.6312  155.6088 C   0  0  0  0  0  0  0  0  0  0  0  0
  148.1865  137.5333  156.3777 N   0  0  0  0  0  0  0  0  0  0  0  0
  149.2423  138.1311  155.5587 C   0  0  0  0  0  0  0  0  0  0  0  0
  150.6611  138.0336  156.1563 C   0  0  1  0  0  0  0  0  0  0  0  0
  151.2344  136.8205  155.7129 O   0  0  0  0  0  0  0  0  0  0  0  0
  151.5575  139.2157  155.7320 C   0  0  0  0  0  0  0  0  0  0  0  0
  151.0670  140.5098  156.2256 N   0  0  0  0  0  0  0  0  0  0  0  0
  150.1367  141.3445  155.6886 C   0  0  0  0  0  0  0  0  0  0  0  0
  150.0290  142.4241  156.5114 N   0  3  0  0  0  0  0  0  0  0  0  0
  150.9033  142.2766  157.5901 C   0  0  0  0  0  0  0  0  0  0  0  0
  151.1520  143.1036  158.6790 C   0  0  0  0  0  0  0  0  0  0  0  0
  152.1125  142.6630  159.6174 C   0  0  0  0  0  0  0  0  0  0  0  0
  152.4086  143.5433  160.8198 C   0  0  0  0  0  0  0  0  0  0  0  0
  152.7861  141.4258  159.4461 C   0  0  0  0  0  0  0  0  0  0  0  0
  153.8126  140.9588  160.4640 C   0  0  0  0  0  0  0  0  0  0  0  0
  152.5197  140.5998  158.3309 C   0  0  0  0  0  0  0  0  0  0  0  0
  151.5724  141.0494  157.4142 C   0  0  0  0  0  0  0  0  0  0  0  0
  147.4253  138.5912  157.0593 C   0  0  0  0  0  0  0  0  0  0  0  0
  146.2536  138.1501  157.9654 C   0  0  0  0  0  0  0  0  0  0  0  0
  146.2785  134.4660  160.0242 H   0  0  0  0  0  0  0  0  0  0  0  0
  147.8095  134.8092  160.8221 H   0  0  0  0  0  0  0  0  0  0  0  0
  147.7976  134.4045  159.1082 H   0  0  0  0  0  0  0  0  0  0  0  0
  145.5285  134.8740  158.0818 H   0  0  0  0  0  0  0  0  0  0  0  0
  144.8836  136.1491  157.1094 H   0  0  0  0  0  0  0  0  0  0  0  0
  147.6544  134.8866  156.8398 H   0  0  0  0  0  0  0  0  0  0  0  0
  146.3174  134.7234  155.7390 H   0  0  0  0  0  0  0  0  0  0  0  0
  147.8578  136.2226  154.7569 H   0  0  0  0  0  0  0  0  0  0  0  0
  146.4847  137.1852  155.1736 H   0  0  0  0  0  0  0  0  0  0  0  0
  149.2254  137.6804  154.5650 H   0  0  0  0  0  0  0  0  0  0  0  0
  149.0253  139.1899  155.4074 H   0  0  0  0  0  0  0  0  0  0  0  0
  150.6217  137.9842  157.2436 H   0  0  0  0  0  0  0  0  0  0  0  0
  150.6431  136.1143  155.9248 H   0  0  0  0  0  0  0  0  0  0  0  0
  152.5890  139.0706  156.0540 H   0  0  0  0  0  0  0  0  0  0  0  0
  151.5876  139.2886  154.6440 H   0  0  0  0  0  0  0  0  0  0  0  0
  149.5854  141.1804  154.7738 H   0  0  0  0  0  0  0  0  0  0  0  0
  150.6330  144.0427  158.8040 H   0  0  0  0  0  0  0  0  0  0  0  0
  152.1505  143.0264  161.7445 H   0  0  0  0  0  0  0  0  0  0  0  0
  151.8375  144.4717  160.7854 H   0  0  0  0  0  0  0  0  0  0  0  0
  153.4664  143.8052  160.8523 H   0  0  0  0  0  0  0  0  0  0  0  0
  154.2163  139.9801  160.2024 H   0  0  0  0  0  0  0  0  0  0  0  0
  153.3626  140.8789  161.4540 H   0  0  0  0  0  0  0  0  0  0  0  0
  154.6459  141.6598  160.5167 H   0  0  0  0  0  0  0  0  0  0  0  0
  153.0287  139.6557  158.2044 H   0  0  0  0  0  0  0  0  0  0  0  0
  148.1196  139.1598  157.6789 H   0  0  0  0  0  0  0  0  0  0  0  0
  147.0454  139.3033  156.3251 H   0  0  0  0  0  0  0  0  0  0  0  0
  145.3273  138.2429  157.3976 H   0  0  0  0  0  0  0  0  0  0  0  0
  146.1278  138.8537  158.7885 H   0  0  0  0  0  0  0  0  0  0  0  0
  149.4047  143.2030  156.3457 H   0  0  0  0  0  0  0  0  0  0  0  0
  1  2  1  0  0  0  0
  1 26  1  0  0  0  0
  1 27  1  0  0  0  0
  1 28  1  0  0  0  0
  2  3  2  0  0  0  0
  2  4  1  0  0  0  0
  4 25  1  0  0  0  0
  4  5  1  0  0  0  0
  5  6  1  0  0  0  0
  5 29  1  0  0  0  0
  5 30  1  0  0  0  0
  6  7  1  0  0  0  0
  6 31  1  0  0  0  0
  6 32  1  0  0  0  0
  7  8  1  0  0  0  0
  7 33  1  0  0  0  0
  7 34  1  0  0  0  0
  8  9  1  0  0  0  0
  8 24  1  0  0  0  0
  9 10  1  0  0  0  0
  9 35  1  0  0  0  0
  9 36  1  0  0  0  0
 10 11  1  0  0  0  0
 10 12  1  0  0  0  0
 10 37  1  0  0  0  0
 11 38  1  0  0  0  0
 12 13  1  0  0  0  0
 12 39  1  0  0  0  0
 12 40  1  0  0  0  0
 13 23  1  0  0  0  0
 13 14  1  0  0  0  0
 14 15  2  0  0  0  0
 14 41  1  0  0  0  0
 15 16  1  0  0  0  0
 15 54  1  0  0  0  0
 16 23  2  0  0  0  0
 16 17  1  0  0  0  0
 17 18  2  0  0  0  0
 17 42  1  0  0  0  0
 18 19  1  0  0  0  0
 18 20  1  0  0  0  0
 19 43  1  0  0  0  0
 19 44  1  0  0  0  0
 19 45  1  0  0  0  0
 20 21  1  0  0  0  0
 20 22  2  0  0  0  0
 21 46  1  0  0  0  0
 21 47  1  0  0  0  0
 21 48  1  0  0  0  0
 22 23  1  0  0  0  0
 22 49  1  0  0  0  0
 24 25  1  0  0  0  0
 24 50  1  0  0  0  0
 24 51  1  0  0  0  0
 25 52  1  0  0  0  0
 25 53  1  0  0  0  0
M  CHG  1  15   1
M  END
> <s_m_source_file>
AV-unprocessed.smi

> <i_m_source_file_index>
1643

> <i_lp_mmshare_version>
43012

> <i_f3d_flags>
0

> <s_epik_input>
W0NIM11DKD1PKU4xW0NIMl1bQ0gyXVtDSDJdTihbQ0gyXVtDSDJdMSlbQ0gyXVtDQEhdKFtPSF0pW0NIMl1uKFtjSF1uMiljKGMyMylbY0hdYyhbQ0gzXSljKFtjSF0zKVtDSDNd

> <s_epik_cmdline>
J2VwaWtfcHl0aG9uJywgJy1waCcsICc3LjAnLCAnLXRuJywgJzgnLCAnLW1hJywgJzIwMCcsICctbWV0YWxfYmluZGluZycsICctaW1hZScsICc8aW5maWxlLm1hZT4nLCAnLW9tYWUnLCAnPG91dGZpbGUubWFlPic=

> <r_epik_Ionization_Penalty>
2.25269

> <r_epik_Ionization_Penalty_Charging>
1.20735

> <r_epik_Ionization_Penalty_Neutral>
1.04533

> <r_epik_State_Penalty>
2.37869

> <r_epik_Charging_Adjusted_Penalty>
3.58604

> <i_epik_Tot_Q>
1

> <i_epik_Tot_abs_Q>
1

> <r_epik_Metal_State_Penalty>
6.40045

> <b_epik_Metal_Only>
0

> <s_lp_Force_Field>
OPLS_2005

> <r_lp_Energy>
51.5531

> <b_lp_Chiralities_Consistent>
1

> <s_lp_Variant>
AV-unprocessed.smi:1643-12

> <Gold.Version>
5.8.1

> <Gold.Id.Protein>
6NUR|6NUR_protein|mol2

> <Gold.PLP.Fitness>
47.0982

> <Gold.PLP.PLP>
-37.6505

> <Gold.PLP.part.hbond>
-3.6989

> <Gold.PLP.part.metal>
0.0000

> <Gold.PLP.part.buried>
-5.0331

> <Gold.PLP.part.nonpolar>
-29.6553

> <Gold.PLP.part.repulsive>
0.0572

> <Gold.PLP.ligand.clash>
0.0000

> <Gold.PLP.ligand.torsion>
1.3831

> <Gold.PLP.Chemscore.Hbond>
4.0461

> <Gold.PLP.Chemscore.CHOScore>
0.0000

> <Gold.PLP.Chemscore.Metal>
0.0000

> <Gold.Chemscore.Hbonds>
donor molecule, donor type, donor heavy atom, donor atom, acceptor molecule, acceptor atom, score
      L1  H    15    54       P1  8028  2.00
      P1  H  6931  6943       L1     3  0.13
      P1  H  6934  6947       L1     3  0.93
      P1  H 10752 10764       L1    11  0.03

> <Gold.PLP.Chemscore.Internal.Correction>
0.0757

> <Gold.Rescore>
     Score         DG    S(hbond)    S(metal)    S(lipo)     H(rot)  DE(clash)    DE(int)     intcor
     19.00     -20.28       2.56        0.00      99.85       2.12       0.01       1.27       ----

> <Gold.Chemscore.Fitness>
19.0018

> <Gold.Chemscore.DG>
-20.2833

> <Gold.Chemscore.ZeroCoef>
-5.4800

> <Gold.Chemscore.Hbond>
2.5608

> <Gold.Chemscore.Metal>
0.0000

> <Gold.Chemscore.Lipo>
99.8487

> <Gold.Chemscore.Internal_Hbond>
0.0000

> <Gold.Chemscore.DEClash>
0.0093

> <Gold.Chemscore.DEInternal>
1.2722

> <Gold.Chemscore.Rot>
2.1220

> <Gold.Chemscore.Internal.Correction>
   9.000000E+99

> <Gold.Chemscore.Hbonds>
donor molecule, donor type, donor heavy atom, donor atom, acceptor molecule, acceptor atom, score
      L1  H    15    54       P1  8028  0.99
      P1  H  6931  6943       L1     3  0.14
      P1  H  6934  6947       L1     3  0.89
      P1  H 10752 10764       L1    11  0.01

> <Gold.Chemscore.Hbond.Weighted>
-8.5532

> <Gold.Chemscore.Metal.Weighted>
-0.0000

> <Gold.Chemscore.Lipo.Weighted>
-11.6823

> <Gold.Chemscore.Internal_Hbond.Weighted>
0.0000

> <Gold.Chemscore.DEClash.Weighted>
0.0093

> <Gold.Chemscore.DEInternal.Weighted>
1.2722

> <Gold.Chemscore.Rot.Weighted>
5.4322

> <Gold.Chemscore.Internal.Correction.Weighted>
   9.000000E+99

> <Gold.Protein.RotatedTorsions>
[ 6907 6896 6895 6894 ] final   71.81 input  -60.11 | X-H torsion
[ 7974 7965 7964 7962 ] final   72.66 input  175.53 | X-H torsion
[ 8008 7997 7996 7995 ] final  -60.25 input   59.86 | X-H torsion
[ 10167 10162 10161 10158 ] final -153.81 input  -65.29 | X-H torsion
[ 10718 10713 10712 10709 ] final  100.20 input   66.30 | X-H torsion
[ 10763 10752 10751 10750 ] final  -29.67 input  -60.55 | X-H torsion
[ 11005 11000 10999 10996 ] final    7.83 input  -57.11 | X-H torsion

> <Gold.Protein.ActiveResidues>
 VAL166  LYS551  ARG553  GLY616  TRP617  ASP618  TYR619  PRO620  LYS621  CYS622 
 ASP623  PHE694  ASN695  SER759  ASP760  ASP761  ALA762  ILE779  LEU786  VAL792 
 PHE793  MET794  SER795  GLU796  ALA797  LYS798  CYS799  TRP800  GLU811  SER814 

> <Gold.Protein.RotatedAtoms>
  152.4832  134.4664  159.9621 H   0  0  0  0  0  0  0  0  0  0  0  0  # atno 6907 bound_to 6896
  151.4666  133.3573  159.2825 H   0  0  0  0  0  0  0  0  0  0  0  0  # atno 6908 bound_to 6896
  150.8921  134.8351  159.7361 H   0  0  0  0  0  0  0  0  0  0  0  0  # atno 6909 bound_to 6896
  145.7506  139.2758  143.1433 H   0  0  0  0  0  0  0  0  0  0  0  0  # atno 7974 bound_to 7965
  154.4390  140.1043  156.6244 H   0  0  0  0  0  0  0  0  0  0  0  0  # atno 8008 bound_to 7997
  155.5672  140.3488  155.4487 H   0  0  0  0  0  0  0  0  0  0  0  0  # atno 8009 bound_to 7997
  156.0416  140.1283  157.0139 H   0  0  0  0  0  0  0  0  0  0  0  0  # atno 8010 bound_to 7997
  139.7066  143.9177  152.2451 H   0  0  0  0  0  0  0  0  0  0  0  0  # atno 10167 bound_to 10162
  157.6859  131.0691  150.5064 H   0  0  0  0  0  0  0  0  0  0  0  0  # atno 10718 bound_to 10713
  153.7684  135.6914  153.4911 H   0  0  0  0  0  0  0  0  0  0  0  0  # atno 10763 bound_to 10752
  153.1891  135.4478  155.0125 H   0  0  0  0  0  0  0  0  0  0  0  0  # atno 10764 bound_to 10752
  154.8127  135.3385  154.7195 H   0  0  0  0  0  0  0  0  0  0  0  0  # atno 10765 bound_to 10752
  140.5439  134.0348  155.7913 H   0  0  0  0  0  0  0  0  0  0  0  0  # atno 11005 bound_to 11000
  146.0360  140.8211  142.9852 LP  0  0  0  0  0  0  0  0  0  0  0  0  # atno 17320 bound_to 7965
  144.6850  140.2840  143.7288 LP  0  0  0  0  0  0  0  0  0  0  0  0  # atno 17321 bound_to 7965
  139.9034  144.6898  150.8640 LP  0  0  0  0  0  0  0  0  0  0  0  0  # atno 17342 bound_to 10162
  140.7723  143.3497  151.2040 LP  0  0  0  0  0  0  0  0  0  0  0  0  # atno 17343 bound_to 10162
  156.5383  130.4201  149.6167 LP  0  0  0  0  0  0  0  0  0  0  0  0  # atno 17370 bound_to 10713
  156.3008  130.7176  151.2047 LP  0  0  0  0  0  0  0  0  0  0  0  0  # atno 17371 bound_to 10713
  141.1211  133.9459  157.2727 LP  0  0  0  0  0  0  0  0  0  0  0  0  # atno 17394 bound_to 11000
  139.9490  135.0179  156.8937 LP  0  0  0  0  0  0  0  0  0  0  0  0  # atno 17395 bound_to 11000

$$$$
