AV-unprocessed.smi:2886|AV-procd|sdf|11094|dock9
  -GOLD-   2272015563D 1   1.00000     0.00000
 Structure written by MMmdl.
 28 30  0  0  0  0  0  0  0  0  3 V2000
  152.8006  136.1791  156.8564 O   0  0  0  0  0  0  0  0  0  0  0  0
  152.6799  136.9976  157.7658 C   0  0  0  0  0  0  0  0  0  0  0  0
  152.8136  136.6744  159.0867 N   0  5  0  0  0  0  0  0  0  0  0  0
  152.6791  137.5707  160.0388 N   0  3  0  0  0  0  0  0  0  0  0  0
  152.4055  138.8515  159.8106 C   0  0  0  0  0  0  0  0  0  0  0  0
  152.2354  139.3191  158.4776 C   0  0  0  0  0  0  0  0  0  0  0  0
  151.9516  140.6485  158.1904 N   0  0  0  0  0  0  0  0  0  0  0  0
  151.7804  141.7622  159.1132 C   0  0  1  0  0  0  0  0  0  0  0  0
  153.1122  142.2955  159.6473 C   0  0  0  0  0  0  0  0  0  0  0  0
  153.0320  143.7780  159.2610 C   0  0  2  0  0  0  0  0  0  0  0  0
  151.9649  144.5333  160.0662 C   0  0  0  0  0  0  0  0  0  0  0  0
  150.6719  144.0153  159.4360 C   0  0  0  0  0  0  0  0  0  0  0  0
  151.2034  143.0031  158.4125 C   0  0  1  0  0  0  0  0  0  0  0  0
  152.3868  143.6708  158.0044 O   0  0  0  0  0  0  0  0  0  0  0  0
  152.3755  138.4099  157.4701 C   0  0  0  0  0  0  0  0  0  0  0  0
  152.1926  138.8851  155.8138 Cl  0  0  0  0  0  0  0  0  0  0  0  0
  152.7904  137.3045  161.0297 H   0  0  0  0  0  0  0  0  0  0  0  0
  152.3271  139.4989  160.6746 H   0  0  0  0  0  0  0  0  0  0  0  0
  151.6862  140.8544  157.2372 H   0  0  0  0  0  0  0  0  0  0  0  0
  151.1167  141.4708  159.9272 H   0  0  0  0  0  0  0  0  0  0  0  0
  153.2233  142.1494  160.7221 H   0  0  0  0  0  0  0  0  0  0  0  0
  153.9609  141.8218  159.1517 H   0  0  0  0  0  0  0  0  0  0  0  0
  153.9999  144.2787  159.2280 H   0  0  0  0  0  0  0  0  0  0  0  0
  152.0288  144.3245  161.1347 H   0  0  0  0  0  0  0  0  0  0  0  0
  152.0559  145.6106  159.9214 H   0  0  0  0  0  0  0  0  0  0  0  0
  149.9962  143.5621  160.1620 H   0  0  0  0  0  0  0  0  0  0  0  0
  150.1406  144.8254  158.9352 H   0  0  0  0  0  0  0  0  0  0  0  0
  150.5010  142.7845  157.6073 H   0  0  0  0  0  0  0  0  0  0  0  0
  1  2  2  0  0  0  0
  2  3  1  0  0  0  0
  2 15  1  0  0  0  0
  3  4  1  0  0  0  0
  4  5  2  0  0  0  0
  4 17  1  0  0  0  0
  5  6  1  0  0  0  0
  5 18  1  0  0  0  0
  6 15  2  0  0  0  0
  6  7  1  0  0  0  0
  7  8  1  0  0  0  0
  7 19  1  0  0  0  0
  8 13  1  0  0  0  0
  8  9  1  0  0  0  0
  8 20  1  0  0  0  0
  9 10  1  0  0  0  0
  9 21  1  0  0  0  0
  9 22  1  0  0  0  0
 10 14  1  0  0  0  0
 10 11  1  0  0  0  0
 10 23  1  0  0  0  0
 11 12  1  0  0  0  0
 11 24  1  0  0  0  0
 11 25  1  0  0  0  0
 12 13  1  0  0  0  0
 12 26  1  0  0  0  0
 12 27  1  0  0  0  0
 13 14  1  0  0  0  0
 13 28  1  0  0  0  0
 15 16  1  0  0  0  0
M  CHG  1   3  -1
M  CHG  1   4   1
M  END
> <s_m_source_file>
AV-unprocessed.smi

> <i_m_source_file_index>
2886

> <i_lp_mmshare_version>
43012

> <i_f3d_flags>
0

> <s_epik_input>
Tz1jMVtuSF1uW2NIXWMoYzFDbClbTkhdW0NASF0oW0NIMl1bQ0BASF0yMylbQ0BASF0oTzMpW0NIMl1bQ0gyXTI=

> <s_epik_cmdline>
J2VwaWtfcHl0aG9uJywgJy1waCcsICc3LjAnLCAnLXRuJywgJzgnLCAnLW1hJywgJzIwMCcsICctbWV0YWxfYmluZGluZycsICctaW1hZScsICc8aW5maWxlLm1hZT4nLCAnLW9tYWUnLCAnPG91dGZpbGUubWFlPic=

> <r_lp_tautomer_probability>
0.0138196

> <r_epik_Ionization_Penalty>
2.43027

> <r_epik_Ionization_Penalty_Charging>
2.43027

> <r_epik_Ionization_Penalty_Neutral>
1.33267e-06

> <r_epik_State_Penalty>
2.7044

> <r_epik_Charging_Adjusted_Penalty>
5.13467

> <i_epik_Tot_Q>
0

> <i_epik_Tot_abs_Q>
2

> <r_epik_Metal_State_Penalty>
2.98589

> <b_epik_Metal_Only>
0

> <s_lp_Force_Field>
OPLS_2005

> <r_lp_Energy>
57.4962

> <b_lp_Chiralities_Consistent>
1

> <s_lp_Variant>
AV-unprocessed.smi:2886-8

> <Gold.Version>
5.8.1

> <Gold.Id.Protein>
6NUR|6NUR_protein|mol2

> <Gold.PLP.Fitness>
34.0372

> <Gold.PLP.PLP>
-25.5157

> <Gold.PLP.part.hbond>
-2.0000

> <Gold.PLP.part.metal>
0.0000

> <Gold.PLP.part.buried>
-4.1069

> <Gold.PLP.part.nonpolar>
-20.6226

> <Gold.PLP.part.repulsive>
0.2518

> <Gold.PLP.ligand.clash>
0.0000

> <Gold.PLP.ligand.torsion>
0.1767

> <Gold.PLP.Chemscore.Hbond>
2.9520

> <Gold.PLP.Chemscore.CHOScore>
0.0000

> <Gold.PLP.Chemscore.Metal>
0.0000

> <Gold.Chemscore.Hbonds>
donor molecule, donor type, donor heavy atom, donor atom, acceptor molecule, acceptor atom, score
      P1  H  6896  6907       L1     3  1.78
      P1  H 10752 10765       L1     1  1.00

> <Gold.PLP.Chemscore.Internal.Correction>
0.0188

> <Gold.Rescore>
     Score         DG    S(hbond)    S(metal)    S(lipo)     H(rot)  DE(clash)    DE(int)     intcor
     17.39     -17.66       1.38        0.00      86.48       1.00       0.07       0.20       ----

> <Gold.Chemscore.Fitness>
17.3905

> <Gold.Chemscore.DG>
-17.6568

> <Gold.Chemscore.ZeroCoef>
-5.4800

> <Gold.Chemscore.Hbond>
1.3828

> <Gold.Chemscore.Metal>
0.0000

> <Gold.Chemscore.Lipo>
86.4820

> <Gold.Chemscore.Internal_Hbond>
0.0000

> <Gold.Chemscore.DEClash>
0.0673

> <Gold.Chemscore.DEInternal>
0.1990

> <Gold.Chemscore.Rot>
1.0000

> <Gold.Chemscore.Internal.Correction>
   9.000000E+99

> <Gold.Chemscore.Hbonds>
donor molecule, donor type, donor heavy atom, donor atom, acceptor molecule, acceptor atom, score
      P1  H  6896  6907       L1     3  0.18
      P1  H 10752 10765       L1     1  1.00

> <Gold.Chemscore.Hbond.Weighted>
-4.6184

> <Gold.Chemscore.Metal.Weighted>
-0.0000

> <Gold.Chemscore.Lipo.Weighted>
-10.1184

> <Gold.Chemscore.Internal_Hbond.Weighted>
0.0000

> <Gold.Chemscore.DEClash.Weighted>
0.0673

> <Gold.Chemscore.DEInternal.Weighted>
0.1990

> <Gold.Chemscore.Rot.Weighted>
2.5600

> <Gold.Chemscore.Internal.Correction.Weighted>
   9.000000E+99

> <Gold.Protein.RotatedTorsions>
[ 6907 6896 6895 6894 ] final   24.24 input  -60.11 | X-H torsion
[ 7974 7965 7964 7962 ] final -136.67 input  175.53 | X-H torsion
[ 8008 7997 7996 7995 ] final  -38.99 input   59.86 | X-H torsion
[ 10167 10162 10161 10158 ] final  -82.52 input  -65.29 | X-H torsion
[ 10718 10713 10712 10709 ] final -113.10 input   66.30 | X-H torsion
[ 10763 10752 10751 10750 ] final -130.96 input  -60.55 | X-H torsion
[ 11005 11000 10999 10996 ] final  136.55 input  -57.11 | X-H torsion

> <Gold.Protein.ActiveResidues>
 VAL166  LYS551  ARG553  GLY616  TRP617  ASP618  TYR619  PRO620  LYS621  CYS622 
 ASP623  PHE694  ASN695  SER759  ASP760  ASP761  ALA762  ILE779  LEU786  VAL792 
 PHE793  MET794  SER795  GLU796  ALA797  LYS798  CYS799  TRP800  GLU811  SER814 

> <Gold.Protein.RotatedAtoms>
  151.9545  135.0153  160.0543 H   0  0  0  0  0  0  0  0  0  0  0  0  # atno 6907 bound_to 6896
  152.1924  133.4777  159.5023 H   0  0  0  0  0  0  0  0  0  0  0  0  # atno 6908 bound_to 6896
  150.6937  134.1613  159.4220 H   0  0  0  0  0  0  0  0  0  0  0  0  # atno 6909 bound_to 6896
  144.8907  140.6638  143.5147 H   0  0  0  0  0  0  0  0  0  0  0  0  # atno 7974 bound_to 7965
  154.4029  140.1563  156.2790 H   0  0  0  0  0  0  0  0  0  0  0  0  # atno 8008 bound_to 7997
  155.8886  140.3440  155.5918 H   0  0  0  0  0  0  0  0  0  0  0  0  # atno 8009 bound_to 7997
  155.7584  140.0814  157.2158 H   0  0  0  0  0  0  0  0  0  0  0  0  # atno 8010 bound_to 7997
  140.4312  143.2548  151.8757 H   0  0  0  0  0  0  0  0  0  0  0  0  # atno 10167 bound_to 10162
  156.0746  130.5955  150.8598 H   0  0  0  0  0  0  0  0  0  0  0  0  # atno 10718 bound_to 10713
  154.8753  135.3845  154.4168 H   0  0  0  0  0  0  0  0  0  0  0  0  # atno 10763 bound_to 10752
  153.4876  135.7030  153.5907 H   0  0  0  0  0  0  0  0  0  0  0  0  # atno 10764 bound_to 10752
  153.4295  135.3882  155.2129 H   0  0  0  0  0  0  0  0  0  0  0  0  # atno 10765 bound_to 10752
  140.0054  134.9461  157.0162 H   0  0  0  0  0  0  0  0  0  0  0  0  # atno 11005 bound_to 11000
  145.3788  139.1641  143.4291 LP  0  0  0  0  0  0  0  0  0  0  0  0  # atno 17320 bound_to 7965
  146.3052  140.3867  142.8690 LP  0  0  0  0  0  0  0  0  0  0  0  0  # atno 17321 bound_to 7965
  139.4785  144.5333  151.8636 LP  0  0  0  0  0  0  0  0  0  0  0  0  # atno 17342 bound_to 10162
  140.4425  144.1967  150.5892 LP  0  0  0  0  0  0  0  0  0  0  0  0  # atno 17343 bound_to 10162
  157.5835  131.0946  150.9233 LP  0  0  0  0  0  0  0  0  0  0  0  0  # atno 17370 bound_to 10713
  156.9424  130.5389  149.5280 LP  0  0  0  0  0  0  0  0  0  0  0  0  # atno 17371 bound_to 10713
  140.4652  134.1443  155.7196 LP  0  0  0  0  0  0  0  0  0  0  0  0  # atno 17394 bound_to 11000
  141.1672  133.8679  157.1678 LP  0  0  0  0  0  0  0  0  0  0  0  0  # atno 17395 bound_to 11000

$$$$
