AV-unprocessed.smi:1240|AV-procd|sdf|5212|dock6
  -GOLD-   22720 4303D 1   1.00000     0.00000
 Structure written by MMmdl.
 48 50  0  0  0  0  0  0  0  0  4 V2000
  147.8896  132.3478  152.6343 O   0  0  0  0  0  0  0  0  0  0  0  0
  148.2941  133.4879  152.3791 C   0  0  0  0  0  0  0  0  0  0  0  0
  149.5217  134.0101  152.6410 N   0  5  0  0  0  0  0  0  0  0  0  0
  150.1778  133.9750  153.9478 C   0  0  0  0  0  0  0  0  0  0  0  0
  149.6132  135.0980  154.8886 C   0  0  1  0  0  0  0  0  0  0  0  0
  150.0542  134.9826  156.3857 C   0  0  2  0  0  0  0  0  0  0  0  0
  149.9095  133.6142  157.0451 C   0  0  0  0  0  0  0  0  0  0  0  0
  149.9305  133.9505  158.5326 C   0  0  0  0  0  0  0  0  0  0  0  0
  149.3907  135.2621  158.6422 O   0  0  0  0  0  0  0  0  0  0  0  0
  149.1893  135.8104  157.3456 C   0  0  0  0  0  0  0  0  0  0  0  0
  149.8619  136.5000  154.3978 N   0  3  0  0  0  0  0  0  0  0  0  0
  148.9822  137.5896  154.9083 C   0  0  0  0  0  0  0  0  0  0  0  0
  149.1970  138.8639  154.0760 C   0  0  0  0  0  0  0  0  0  0  0  0
  150.5701  139.2359  154.1135 O   0  0  0  0  0  0  0  0  0  0  0  0
  151.4135  138.2358  153.5534 C   0  0  0  0  0  0  0  0  0  0  0  0
  151.2840  136.9344  154.3613 C   0  0  0  0  0  0  0  0  0  0  0  0
  147.4951  134.3667  151.7479 N   0  0  0  0  0  0  0  0  0  0  0  0
  146.1575  134.1951  151.3012 C   0  0  0  0  0  0  0  0  0  0  0  0
  145.3523  135.3490  151.1824 C   0  0  0  0  0  0  0  0  0  0  0  0
  144.0142  135.2214  150.7581 C   0  0  0  0  0  0  0  0  0  0  0  0
  143.5096  133.9993  150.4830 N   0  3  0  0  0  0  0  0  0  0  0  0
  144.2350  132.8663  150.6008 C   0  0  0  0  0  0  0  0  0  0  0  0
  145.5793  132.9316  151.0201 C   0  0  0  0  0  0  0  0  0  0  0  0
  150.0651  133.0073  154.4373 H   0  0  0  0  0  0  0  0  0  0  0  0
  151.2530  134.1187  153.8391 H   0  0  0  0  0  0  0  0  0  0  0  0
  148.5264  134.9967  154.8873 H   0  0  0  0  0  0  0  0  0  0  0  0
  151.0906  135.3051  156.5051 H   0  0  0  0  0  0  0  0  0  0  0  0
  148.9524  133.1631  156.7788 H   0  0  0  0  0  0  0  0  0  0  0  0
  150.7012  132.9151  156.7739 H   0  0  0  0  0  0  0  0  0  0  0  0
  149.3632  133.2344  159.1273 H   0  0  0  0  0  0  0  0  0  0  0  0
  150.9550  133.9658  158.9060 H   0  0  0  0  0  0  0  0  0  0  0  0
  149.4417  136.8709  157.3308 H   0  0  0  0  0  0  0  0  0  0  0  0
  148.1325  135.7131  157.0928 H   0  0  0  0  0  0  0  0  0  0  0  0
  147.9344  137.2960  154.8540 H   0  0  0  0  0  0  0  0  0  0  0  0
  149.2029  137.8044  155.9547 H   0  0  0  0  0  0  0  0  0  0  0  0
  148.8762  138.7133  153.0439 H   0  0  0  0  0  0  0  0  0  0  0  0
  148.5986  139.6809  154.4792 H   0  0  0  0  0  0  0  0  0  0  0  0
  151.1559  138.0709  152.5059 H   0  0  0  0  0  0  0  0  0  0  0  0
  152.4443  138.5900  153.5755 H   0  0  0  0  0  0  0  0  0  0  0  0
  151.6609  137.0956  155.3718 H   0  0  0  0  0  0  0  0  0  0  0  0
  151.9027  136.1600  153.9064 H   0  0  0  0  0  0  0  0  0  0  0  0
  147.9339  135.2378  151.4880 H   0  0  0  0  0  0  0  0  0  0  0  0
  145.7577  136.3255  151.4056 H   0  0  0  0  0  0  0  0  0  0  0  0
  143.3376  136.0540  150.6331 H   0  0  0  0  0  0  0  0  0  0  0  0
  143.7211  131.9463  150.3635 H   0  0  0  0  0  0  0  0  0  0  0  0
  146.1396  132.0152  151.1298 H   0  0  0  0  0  0  0  0  0  0  0  0
  149.6175  136.4333  153.4206 H   0  0  0  0  0  0  0  0  0  0  0  0
  142.5384  133.9284  150.1788 H   0  0  0  0  0  0  0  0  0  0  0  0
  1  2  2  0  0  0  0
  2  3  1  0  0  0  0
  2 17  1  0  0  0  0
  3  4  1  0  0  0  0
  4  5  1  0  0  0  0
  4 24  1  0  0  0  0
  4 25  1  0  0  0  0
  5  6  1  0  0  0  0
  5 11  1  0  0  0  0
  5 26  1  0  0  0  0
  6 10  1  0  0  0  0
  6  7  1  0  0  0  0
  6 27  1  0  0  0  0
  7  8  1  0  0  0  0
  7 28  1  0  0  0  0
  7 29  1  0  0  0  0
  8  9  1  0  0  0  0
  8 30  1  0  0  0  0
  8 31  1  0  0  0  0
  9 10  1  0  0  0  0
 10 32  1  0  0  0  0
 10 33  1  0  0  0  0
 11 16  1  0  0  0  0
 11 12  1  0  0  0  0
 11 47  1  0  0  0  0
 12 13  1  0  0  0  0
 12 34  1  0  0  0  0
 12 35  1  0  0  0  0
 13 14  1  0  0  0  0
 13 36  1  0  0  0  0
 13 37  1  0  0  0  0
 14 15  1  0  0  0  0
 15 16  1  0  0  0  0
 15 38  1  0  0  0  0
 15 39  1  0  0  0  0
 16 40  1  0  0  0  0
 16 41  1  0  0  0  0
 17 18  1  0  0  0  0
 17 42  1  0  0  0  0
 18 23  1  0  0  0  0
 18 19  2  0  0  0  0
 19 20  1  0  0  0  0
 19 43  1  0  0  0  0
 20 21  2  0  0  0  0
 20 44  1  0  0  0  0
 21 22  1  0  0  0  0
 21 48  1  0  0  0  0
 22 23  2  0  0  0  0
 22 45  1  0  0  0  0
 23 46  1  0  0  0  0
M  CHG  1   3  -1
M  CHG  1  11   1
M  CHG  1  21   1
M  END
> <s_m_source_file>
AV-unprocessed.smi

> <i_m_source_file_index>
1240

> <i_lp_mmshare_version>
43012

> <i_f3d_flags>
0

> <s_epik_input>
W2NIXTFbY0hdbltjSF1bY0hdYzFbTkhdQyg9TylbTkhdW0NIMl1bQ0BIXShbQ0BASF0yW0NIMl1bQ0gyXU9bQ0gyXTIpTjNbQ0gyXVtDSDJdT1tDSDJdW0NIMl0z

> <s_epik_cmdline>
J2VwaWtfcHl0aG9uJywgJy1waCcsICc3LjAnLCAnLXRuJywgJzgnLCAnLW1hJywgJzIwMCcsICctbWV0YWxfYmluZGluZycsICctaW1hZScsICc8aW5maWxlLm1hZT4nLCAnLW9tYWUnLCAnPG91dGZpbGUubWFlPic=

> <r_epik_Ionization_Penalty>
8.41087

> <r_epik_Ionization_Penalty_Charging>
8.41087

> <r_epik_Ionization_Penalty_Neutral>
3.12936e-06

> <r_epik_State_Penalty>
8.81894

> <r_epik_Charging_Adjusted_Penalty>
17.2298

> <i_epik_Tot_Q>
1

> <i_epik_Tot_abs_Q>
3

> <r_epik_Metal_State_Penalty>
4.82983

> <b_epik_Metal_Only>
1

> <s_lp_Force_Field>
OPLS_2005

> <r_lp_Energy>
48.6891

> <b_lp_Chiralities_Consistent>
1

> <s_lp_Variant>
AV-unprocessed.smi:1240-18

> <Gold.Version>
5.8.1

> <Gold.Id.Protein>
6NUR|6NUR_protein|mol2

> <Gold.PLP.Fitness>
45.3770

> <Gold.PLP.PLP>
-29.6347

> <Gold.PLP.part.hbond>
-3.9041

> <Gold.PLP.part.metal>
0.0000

> <Gold.PLP.part.buried>
-2.4085

> <Gold.PLP.part.nonpolar>
-24.0698

> <Gold.PLP.part.repulsive>
1.8503

> <Gold.PLP.ligand.clash>
0.0000

> <Gold.PLP.ligand.torsion>
1.0205

> <Gold.PLP.Chemscore.Hbond>
5.7950

> <Gold.PLP.Chemscore.CHOScore>
0.0000

> <Gold.PLP.Chemscore.Metal>
0.0000

> <Gold.Chemscore.Hbonds>
donor molecule, donor type, donor heavy atom, donor atom, acceptor molecule, acceptor atom, score
      L1  H    11    47       P1  7948  2.00
      L1  H    17    42       P1  7948  0.64
      L1  H    21    48       P1 10186  2.00
      P1  H  7989  7998       L1    14  0.84

> <Gold.PLP.Chemscore.Internal.Correction>
0.3984

> <Gold.Rescore>
     Score         DG    S(hbond)    S(metal)    S(lipo)     H(rot)  DE(clash)    DE(int)     intcor
     17.49     -20.90       3.50        0.00      69.05       1.70       0.85       2.57       ----

> <Gold.Chemscore.Fitness>
17.4881

> <Gold.Chemscore.DG>
-20.9044

> <Gold.Chemscore.ZeroCoef>
-5.4800

> <Gold.Chemscore.Hbond>
3.5040

> <Gold.Chemscore.Metal>
0.0000

> <Gold.Chemscore.Lipo>
69.0486

> <Gold.Chemscore.Internal_Hbond>
0.0000

> <Gold.Chemscore.DEClash>
0.8488

> <Gold.Chemscore.DEInternal>
2.5675

> <Gold.Chemscore.Rot>
1.7021

> <Gold.Chemscore.Internal.Correction>
   9.000000E+99

> <Gold.Chemscore.Hbonds>
donor molecule, donor type, donor heavy atom, donor atom, acceptor molecule, acceptor atom, score
      L1  H    11    47       P1  7948  0.45
      L1  H    17    42       P1  7948  0.21
      L1  H    21    48       P1 10186  0.98
      P1  H  7989  7998       L1    14  0.13

> <Gold.Chemscore.Hbond.Weighted>
-11.7032

> <Gold.Chemscore.Metal.Weighted>
-0.0000

> <Gold.Chemscore.Lipo.Weighted>
-8.0787

> <Gold.Chemscore.Internal_Hbond.Weighted>
0.0000

> <Gold.Chemscore.DEClash.Weighted>
0.8488

> <Gold.Chemscore.DEInternal.Weighted>
2.5675

> <Gold.Chemscore.Rot.Weighted>
4.3575

> <Gold.Chemscore.Internal.Correction.Weighted>
   9.000000E+99

> <Gold.Protein.RotatedTorsions>
[ 6907 6896 6895 6894 ] final  -59.72 input  -60.11 | X-H torsion
[ 7974 7965 7964 7962 ] final   69.37 input  175.53 | X-H torsion
[ 8008 7997 7996 7995 ] final   86.27 input   59.86 | X-H torsion
[ 10167 10162 10161 10158 ] final  -47.53 input  -65.29 | X-H torsion
[ 10718 10713 10712 10709 ] final   -3.03 input   66.30 | X-H torsion
[ 10763 10752 10751 10750 ] final   69.14 input  -60.55 | X-H torsion
[ 11005 11000 10999 10996 ] final -103.44 input  -57.11 | X-H torsion

> <Gold.Protein.ActiveResidues>
 VAL166  LYS551  ARG553  GLY616  TRP617  ASP618  TYR619  PRO620  LYS621  CYS622 
 ASP623  PHE694  ASN695  SER759  ASP760  ASP761  ALA762  ILE779  LEU786  VAL792 
 PHE793  MET794  SER795  GLU796  ALA797  LYS798  CYS799  TRP800  GLU811  SER814 

> <Gold.Protein.RotatedAtoms>
  150.7909  134.6932  159.6507 H   0  0  0  0  0  0  0  0  0  0  0  0  # atno 6907 bound_to 6896
  152.4014  134.6276  160.0077 H   0  0  0  0  0  0  0  0  0  0  0  0  # atno 6908 bound_to 6896
  151.6546  133.3282  159.3196 H   0  0  0  0  0  0  0  0  0  0  0  0  # atno 6909 bound_to 6896
  145.7913  139.2935  143.1209 H   0  0  0  0  0  0  0  0  0  0  0  0  # atno 7974 bound_to 7965
  155.9607  140.3393  155.6488 H   0  0  0  0  0  0  0  0  0  0  0  0  # atno 8008 bound_to 7997
  155.6802  140.0737  157.2506 H   0  0  0  0  0  0  0  0  0  0  0  0  # atno 8009 bound_to 7997
  154.4142  140.1676  156.1962 H   0  0  0  0  0  0  0  0  0  0  0  0  # atno 8010 bound_to 7997
  140.6771  143.2780  151.3939 H   0  0  0  0  0  0  0  0  0  0  0  0  # atno 10167 bound_to 10162
  156.7821  130.5334  149.5749 H   0  0  0  0  0  0  0  0  0  0  0  0  # atno 10718 bound_to 10713
  153.0272  135.5221  154.7243 H   0  0  0  0  0  0  0  0  0  0  0  0  # atno 10763 bound_to 10752
  154.6289  135.2898  155.0242 H   0  0  0  0  0  0  0  0  0  0  0  0  # atno 10764 bound_to 10752
  154.1201  135.6609  153.4954 H   0  0  0  0  0  0  0  0  0  0  0  0  # atno 10765 bound_to 10752
  141.1145  133.8640  157.1486 H   0  0  0  0  0  0  0  0  0  0  0  0  # atno 11005 bound_to 11000
  145.9974  140.8550  143.0036 LP  0  0  0  0  0  0  0  0  0  0  0  0  # atno 17320 bound_to 7965
  144.6781  140.2303  143.7356 LP  0  0  0  0  0  0  0  0  0  0  0  0  # atno 17321 bound_to 7965
  139.6070  144.1177  152.2259 LP  0  0  0  0  0  0  0  0  0  0  0  0  # atno 17342 bound_to 10162
  140.0579  144.5880  150.7286 LP  0  0  0  0  0  0  0  0  0  0  0  0  # atno 17343 bound_to 10162
  156.1211  130.6111  151.0195 LP  0  0  0  0  0  0  0  0  0  0  0  0  # atno 17370 bound_to 10713
  157.6641  131.0875  150.7769 LP  0  0  0  0  0  0  0  0  0  0  0  0  # atno 17371 bound_to 10713
  140.0059  135.0008  157.0292 LP  0  0  0  0  0  0  0  0  0  0  0  0  # atno 17394 bound_to 11000
  140.4683  134.1413  155.7200 LP  0  0  0  0  0  0  0  0  0  0  0  0  # atno 17395 bound_to 11000

$$$$
