AV-unprocessed.smi:3164|AV-procd|sdf|12083|dock9
  -GOLD-   2272017513D 1   1.00000     0.00000
 Structure written by MMmdl.
 39 40  0  0  0  0  0  0  0  0  2 V2000
  142.5290  135.8281  153.2527 C   0  0  0  0  0  0  0  0  0  0  0  0
  143.9084  135.8618  152.7896 N   0  0  0  0  0  0  0  0  0  0  0  0
  144.0483  135.2502  151.4748 C   0  0  0  0  0  0  0  0  0  0  0  0
  145.5033  135.2986  150.9790 C   0  0  0  0  0  0  0  0  0  0  0  0
  145.9647  136.6469  150.9846 O   0  0  0  0  0  0  0  0  0  0  0  0
  145.8966  137.2576  152.2719 C   0  0  1  0  0  0  0  0  0  0  0  0
  146.4292  138.6921  152.1543 C   0  0  0  0  0  0  0  0  0  0  0  0
  147.8340  138.7726  152.5993 N   0  3  0  0  0  0  0  0  0  0  0  0
  148.0017  139.2241  153.9956 C   0  0  0  0  0  0  0  0  0  0  0  0
  148.6685  140.6071  154.0660 C   0  0  0  0  0  0  0  0  0  0  0  0
  149.7598  140.6856  155.1193 C   0  0  0  0  0  0  0  0  0  0  0  0
  149.6191  141.5269  156.2439 C   0  0  0  0  0  0  0  0  0  0  0  0
  150.6658  141.5687  157.1856 C   0  0  0  0  0  0  0  0  0  0  0  0
  151.8069  140.7735  156.9664 C   0  0  0  0  0  0  0  0  0  0  0  0
  151.8510  139.9679  155.8111 C   0  0  0  0  0  0  0  0  0  0  0  0
  150.8534  139.9216  154.9017 N   0  0  0  0  0  0  0  0  0  0  0  0
  144.4329  137.2208  152.7563 C   0  0  0  0  0  0  0  0  0  0  0  0
  142.1613  134.8023  153.2976 H   0  0  0  0  0  0  0  0  0  0  0  0
  141.8752  136.3941  152.5877 H   0  0  0  0  0  0  0  0  0  0  0  0
  142.4465  136.2536  154.2534 H   0  0  0  0  0  0  0  0  0  0  0  0
  143.7097  134.2139  151.5100 H   0  0  0  0  0  0  0  0  0  0  0  0
  143.4065  135.7638  150.7571 H   0  0  0  0  0  0  0  0  0  0  0  0
  146.1474  134.6836  151.6095 H   0  0  0  0  0  0  0  0  0  0  0  0
  145.5730  134.9017  149.9662 H   0  0  0  0  0  0  0  0  0  0  0  0
  146.5215  136.6975  152.9705 H   0  0  0  0  0  0  0  0  0  0  0  0
  146.3476  139.0458  151.1256 H   0  0  0  0  0  0  0  0  0  0  0  0
  145.8282  139.3589  152.7740 H   0  0  0  0  0  0  0  0  0  0  0  0
  148.2526  137.8576  152.5092 H   0  0  0  0  0  0  0  0  0  0  0  0
  147.0243  139.2640  154.4776 H   0  0  0  0  0  0  0  0  0  0  0  0
  148.5980  138.4926  154.5428 H   0  0  0  0  0  0  0  0  0  0  0  0
  149.0831  140.8698  153.0919 H   0  0  0  0  0  0  0  0  0  0  0  0
  147.9154  141.3646  154.2874 H   0  0  0  0  0  0  0  0  0  0  0  0
  148.7315  142.1260  156.3859 H   0  0  0  0  0  0  0  0  0  0  0  0
  150.5948  142.1991  158.0598 H   0  0  0  0  0  0  0  0  0  0  0  0
  152.6284  140.7785  157.6677 H   0  0  0  0  0  0  0  0  0  0  0  0
  152.7105  139.3454  155.6119 H   0  0  0  0  0  0  0  0  0  0  0  0
  143.8171  137.8372  152.0991 H   0  0  0  0  0  0  0  0  0  0  0  0
  144.3671  137.6638  153.7509 H   0  0  0  0  0  0  0  0  0  0  0  0
  148.3245  139.4128  151.9907 H   0  0  0  0  0  0  0  0  0  0  0  0
  1  2  1  0  0  0  0
  1 18  1  0  0  0  0
  1 19  1  0  0  0  0
  1 20  1  0  0  0  0
  2 17  1  0  0  0  0
  2  3  1  0  0  0  0
  3  4  1  0  0  0  0
  3 21  1  0  0  0  0
  3 22  1  0  0  0  0
  4  5  1  0  0  0  0
  4 23  1  0  0  0  0
  4 24  1  0  0  0  0
  5  6  1  0  0  0  0
  6  7  1  0  0  0  0
  6 17  1  0  0  0  0
  6 25  1  0  0  0  0
  7  8  1  0  0  0  0
  7 26  1  0  0  0  0
  7 27  1  0  0  0  0
  8  9  1  0  0  0  0
  8 28  1  0  0  0  0
  8 39  1  0  0  0  0
  9 10  1  0  0  0  0
  9 29  1  0  0  0  0
  9 30  1  0  0  0  0
 10 11  1  0  0  0  0
 10 31  1  0  0  0  0
 10 32  1  0  0  0  0
 11 16  1  0  0  0  0
 11 12  2  0  0  0  0
 12 13  1  0  0  0  0
 12 33  1  0  0  0  0
 13 14  2  0  0  0  0
 13 34  1  0  0  0  0
 14 15  1  0  0  0  0
 14 35  1  0  0  0  0
 15 16  2  0  0  0  0
 15 36  1  0  0  0  0
 17 37  1  0  0  0  0
 17 38  1  0  0  0  0
M  CHG  1   8   1
M  END
> <s_m_source_file>
AV-unprocessed.smi

> <i_m_source_file_index>
3164

> <i_lp_mmshare_version>
43012

> <i_f3d_flags>
0

> <s_epik_input>
W0NIM11OMVtDSDJdW0NIMl1PW0NASF0oW0NIMl0xKVtDSDJdW05IXVtDSDJdW0NIMl1jMltjSF1bY0hdW2NIXVtjSF1uMg==

> <s_epik_cmdline>
J2VwaWtfcHl0aG9uJywgJy1waCcsICc3LjAnLCAnLXRuJywgJzgnLCAnLW1hJywgJzIwMCcsICctbWV0YWxfYmluZGluZycsICctaW1hZScsICc8aW5maWxlLm1hZT4nLCAnLW9tYWUnLCAnPG91dGZpbGUubWFlPic=

> <r_epik_Ionization_Penalty>
0.584284

> <r_epik_Ionization_Penalty_Charging>
0.00270218

> <r_epik_Ionization_Penalty_Neutral>
0.581582

> <r_epik_State_Penalty>
0.593163

> <r_epik_Charging_Adjusted_Penalty>
0.595865

> <i_epik_Tot_Q>
1

> <i_epik_Tot_abs_Q>
1

> <r_epik_Metal_State_Penalty>
0.593163

> <b_epik_Metal_Only>
0

> <s_lp_Force_Field>
OPLS_2005

> <r_lp_Energy>
22.7337

> <b_lp_Chiralities_Consistent>
1

> <s_lp_Variant>
AV-unprocessed.smi:3164-5

> <Gold.Version>
5.8.1

> <Gold.Id.Protein>
6NUR|6NUR_protein|mol2

> <Gold.PLP.Fitness>
41.0166

> <Gold.PLP.PLP>
-31.9912

> <Gold.PLP.part.hbond>
-3.0000

> <Gold.PLP.part.metal>
0.0000

> <Gold.PLP.part.buried>
-4.9379

> <Gold.PLP.part.nonpolar>
-26.4616

> <Gold.PLP.part.repulsive>
0.9692

> <Gold.PLP.ligand.clash>
0.0000

> <Gold.PLP.ligand.torsion>
1.5068

> <Gold.PLP.Chemscore.Hbond>
4.0000

> <Gold.PLP.Chemscore.CHOScore>
0.0000

> <Gold.PLP.Chemscore.Metal>
0.0000

> <Gold.Chemscore.Hbonds>
donor molecule, donor type, donor heavy atom, donor atom, acceptor molecule, acceptor atom, score
      L1  H     8    28       P1  7948  2.00
      L1  H     8    39       P1  7957  1.00
      P1  H  7989  7998       L1    16  1.00

> <Gold.PLP.Chemscore.Internal.Correction>
0.0389

> <Gold.Rescore>
     Score         DG    S(hbond)    S(metal)    S(lipo)     H(rot)  DE(clash)    DE(int)     intcor
     16.15     -18.14       2.29        0.00      77.13       1.57       0.46       1.52       ----

> <Gold.Chemscore.Fitness>
16.1542

> <Gold.Chemscore.DG>
-18.1389

> <Gold.Chemscore.ZeroCoef>
-5.4800

> <Gold.Chemscore.Hbond>
2.2936

> <Gold.Chemscore.Metal>
0.0000

> <Gold.Chemscore.Lipo>
77.1306

> <Gold.Chemscore.Internal_Hbond>
0.0000

> <Gold.Chemscore.DEClash>
0.4597

> <Gold.Chemscore.DEInternal>
1.5250

> <Gold.Chemscore.Rot>
1.5726

> <Gold.Chemscore.Internal.Correction>
   9.000000E+99

> <Gold.Chemscore.Hbonds>
donor molecule, donor type, donor heavy atom, donor atom, acceptor molecule, acceptor atom, score
      L1  H     8    28       P1  7948  1.00
      L1  H     8    39       P1  7957  0.98
      P1  H  7989  7998       L1    16  0.07

> <Gold.Chemscore.Hbond.Weighted>
-7.6605

> <Gold.Chemscore.Metal.Weighted>
-0.0000

> <Gold.Chemscore.Lipo.Weighted>
-9.0243

> <Gold.Chemscore.Internal_Hbond.Weighted>
0.0000

> <Gold.Chemscore.DEClash.Weighted>
0.4597

> <Gold.Chemscore.DEInternal.Weighted>
1.5250

> <Gold.Chemscore.Rot.Weighted>
4.0259

> <Gold.Chemscore.Internal.Correction.Weighted>
   9.000000E+99

> <Gold.Protein.RotatedTorsions>
[ 6907 6896 6895 6894 ] final  -78.03 input  -60.11 | X-H torsion
[ 7974 7965 7964 7962 ] final   63.06 input  175.53 | X-H torsion
[ 8008 7997 7996 7995 ] final -175.17 input   59.86 | X-H torsion
[ 10167 10162 10161 10158 ] final  167.83 input  -65.29 | X-H torsion
[ 10718 10713 10712 10709 ] final   35.92 input   66.30 | X-H torsion
[ 10763 10752 10751 10750 ] final  -39.05 input  -60.55 | X-H torsion
[ 11005 11000 10999 10996 ] final -172.84 input  -57.11 | X-H torsion

> <Gold.Protein.ActiveResidues>
 VAL166  LYS551  ARG553  GLY616  TRP617  ASP618  TYR619  PRO620  LYS621  CYS622 
 ASP623  PHE694  ASN695  SER759  ASP760  ASP761  ALA762  ILE779  LEU786  VAL792 
 PHE793  MET794  SER795  GLU796  ALA797  LYS798  CYS799  TRP800  GLU811  SER814 

> <Gold.Protein.RotatedAtoms>
  150.6983  134.4333  159.5258 H   0  0  0  0  0  0  0  0  0  0  0  0  # atno 6907 bound_to 6896
  152.2056  134.8545  160.0512 H   0  0  0  0  0  0  0  0  0  0  0  0  # atno 6908 bound_to 6896
  151.9450  133.3614  159.4016 H   0  0  0  0  0  0  0  0  0  0  0  0  # atno 6909 bound_to 6896
  145.8662  139.3347  143.0790 H   0  0  0  0  0  0  0  0  0  0  0  0  # atno 7974 bound_to 7965
  155.9793  140.1178  157.0741 H   0  0  0  0  0  0  0  0  0  0  0  0  # atno 8008 bound_to 7997
  154.4178  140.1148  156.5481 H   0  0  0  0  0  0  0  0  0  0  0  0  # atno 8009 bound_to 7997
  155.6493  140.3473  155.4744 H   0  0  0  0  0  0  0  0  0  0  0  0  # atno 8010 bound_to 7997
  139.4954  144.3879  151.9550 H   0  0  0  0  0  0  0  0  0  0  0  0  # atno 10167 bound_to 10162
  157.3286  130.7486  149.6832 H   0  0  0  0  0  0  0  0  0  0  0  0  # atno 10718 bound_to 10713
  153.9230  135.6780  153.4747 H   0  0  0  0  0  0  0  0  0  0  0  0  # atno 10763 bound_to 10752
  153.1018  135.4824  154.8878 H   0  0  0  0  0  0  0  0  0  0  0  0  # atno 10764 bound_to 10752
  154.7468  135.3174  154.8587 H   0  0  0  0  0  0  0  0  0  0  0  0  # atno 10765 bound_to 10752
  140.4925  134.5971  157.4959 H   0  0  0  0  0  0  0  0  0  0  0  0  # atno 11005 bound_to 11000
  145.9191  140.9128  143.0414 LP  0  0  0  0  0  0  0  0  0  0  0  0  # atno 17320 bound_to 7965
  144.6726  140.1264  143.7446 LP  0  0  0  0  0  0  0  0  0  0  0  0  # atno 17321 bound_to 7965
  140.3316  144.3309  150.5986 LP  0  0  0  0  0  0  0  0  0  0  0  0  # atno 17342 bound_to 10162
  140.5640  143.2188  151.7716 LP  0  0  0  0  0  0  0  0  0  0  0  0  # atno 17343 bound_to 10162
  155.9693  130.4202  150.4410 LP  0  0  0  0  0  0  0  0  0  0  0  0  # atno 17370 bound_to 10713
  157.2438  131.0531  151.2420 LP  0  0  0  0  0  0  0  0  0  0  0  0  # atno 17371 bound_to 10713
  139.9761  134.7214  155.9948 LP  0  0  0  0  0  0  0  0  0  0  0  0  # atno 17394 bound_to 11000
  141.1477  133.6553  156.3917 LP  0  0  0  0  0  0  0  0  0  0  0  0  # atno 17395 bound_to 11000

$$$$
