AV-unprocessed.smi:1558|AV-procd|sdf|6273|dock6
  -GOLD-   22720 6463D 1   1.00000     0.00000
 Structure written by MMmdl.
 36 37  0  0  0  0  0  0  0  0  1 V2000
  143.3617  133.8012  148.0871 N   0  0  0  0  0  0  0  0  0  0  0  0
  143.9843  132.8795  148.8269 C   0  0  0  0  0  0  0  0  0  0  0  0
  144.8963  132.1861  148.3822 O   0  0  0  0  0  0  0  0  0  0  0  0
  143.5163  132.7121  150.2738 C   0  0  0  0  0  0  0  0  0  0  0  0
  144.0589  133.7560  151.1249 N   0  0  0  0  0  0  0  0  0  0  0  0
  145.1668  134.5502  150.9002 C   0  0  0  0  0  0  0  0  0  0  0  0
  145.2598  135.3731  151.9867 C   0  0  0  0  0  0  0  0  0  0  0  0
  146.2128  136.3842  152.2696 N   0  0  0  0  0  0  0  0  0  0  0  0
  146.0106  137.5291  152.9417 C   0  0  0  0  0  0  0  0  0  0  0  0
  144.9359  137.8840  153.4268 O   0  0  0  0  0  0  0  0  0  0  0  0
  147.1379  138.2495  153.0253 N   0  0  0  0  0  0  0  0  0  0  0  0
  147.2677  139.5268  153.7175 C   0  0  0  0  0  0  0  0  0  0  0  0
  148.7329  139.8252  154.0743 C   0  0  1  0  0  0  0  0  0  0  0  0
  148.9572  141.2348  154.6160 C   0  0  0  0  0  0  0  0  0  0  0  0
  150.2614  141.0674  155.3621 C   0  0  0  0  0  0  0  0  0  0  0  0
  150.1140  139.6685  155.9570 C   0  0  0  0  0  0  0  0  0  0  0  0
  149.1931  138.9731  155.1196 O   0  0  0  0  0  0  0  0  0  0  0  0
  144.1776  135.0194  152.8337 C   0  0  0  0  0  0  0  0  0  0  0  0
  143.4562  134.0418  152.3064 N   0  0  0  0  0  0  0  0  0  0  0  0
  143.6384  133.9415  147.1262 H   0  0  0  0  0  0  0  0  0  0  0  0
  142.6164  134.3522  148.4873 H   0  0  0  0  0  0  0  0  0  0  0  0
  142.4260  132.7372  150.3145 H   0  0  0  0  0  0  0  0  0  0  0  0
  143.8282  131.7429  150.6653 H   0  0  0  0  0  0  0  0  0  0  0  0
  145.7674  134.4560  150.0077 H   0  0  0  0  0  0  0  0  0  0  0  0
  147.1488  136.2135  151.9324 H   0  0  0  0  0  0  0  0  0  0  0  0
  147.9726  137.8793  152.5950 H   0  0  0  0  0  0  0  0  0  0  0  0
  146.8903  140.3021  153.0505 H   0  0  0  0  0  0  0  0  0  0  0  0
  146.6389  139.5554  154.6090 H   0  0  0  0  0  0  0  0  0  0  0  0
  149.3733  139.6717  153.2041 H   0  0  0  0  0  0  0  0  0  0  0  0
  149.0067  141.9900  153.8313 H   0  0  0  0  0  0  0  0  0  0  0  0
  148.1625  141.5123  155.3104 H   0  0  0  0  0  0  0  0  0  0  0  0
  151.0963  141.0907  154.6606 H   0  0  0  0  0  0  0  0  0  0  0  0
  150.4277  141.8366  156.1166 H   0  0  0  0  0  0  0  0  0  0  0  0
  151.0689  139.1457  156.0133 H   0  0  0  0  0  0  0  0  0  0  0  0
  149.6958  139.7190  156.9628 H   0  0  0  0  0  0  0  0  0  0  0  0
  143.8961  135.4302  153.7920 H   0  0  0  0  0  0  0  0  0  0  0  0
  1  2  1  0  0  0  0
  1 20  1  0  0  0  0
  1 21  1  0  0  0  0
  2  3  2  0  0  0  0
  2  4  1  0  0  0  0
  4  5  1  0  0  0  0
  4 22  1  0  0  0  0
  4 23  1  0  0  0  0
  5 19  1  0  0  0  0
  5  6  1  0  0  0  0
  6  7  2  0  0  0  0
  6 24  1  0  0  0  0
  7  8  1  0  0  0  0
  7 18  1  0  0  0  0
  8  9  1  0  0  0  0
  8 25  1  0  0  0  0
  9 10  2  0  0  0  0
  9 11  1  0  0  0  0
 11 12  1  0  0  0  0
 11 26  1  0  0  0  0
 12 13  1  0  0  0  0
 12 27  1  0  0  0  0
 12 28  1  0  0  0  0
 13 17  1  0  0  0  0
 13 14  1  0  0  0  0
 13 29  1  0  0  0  0
 14 15  1  0  0  0  0
 14 30  1  0  0  0  0
 14 31  1  0  0  0  0
 15 16  1  0  0  0  0
 15 32  1  0  0  0  0
 15 33  1  0  0  0  0
 16 17  1  0  0  0  0
 16 34  1  0  0  0  0
 16 35  1  0  0  0  0
 18 19  2  0  0  0  0
 18 36  1  0  0  0  0
M  END
> <s_m_source_file>
AV-unprocessed.smi

> <i_m_source_file_index>
1558

> <i_lp_mmshare_version>
43012

> <i_f3d_flags>
0

> <s_epik_input>
W05IMl1DKD1PKVtDSDJdbjFbY0hdYyhbY0hdbjEpW05IXUMoPU8pW05IXVtDSDJdW0NAQEhdMltDSDJdW0NIMl1bQ0gyXU8y

> <s_epik_cmdline>
J2VwaWtfcHl0aG9uJywgJy1waCcsICc3LjAnLCAnLXRuJywgJzgnLCAnLW1hJywgJzIwMCcsICctbWV0YWxfYmluZGluZycsICctaW1hZScsICc8aW5maWxlLm1hZT4nLCAnLW9tYWUnLCAnPG91dGZpbGUubWFlPic=

> <r_lp_tautomer_probability>
1

> <r_epik_Ionization_Penalty>
4.01684e-05

> <r_epik_Ionization_Penalty_Charging>
0

> <r_epik_Ionization_Penalty_Neutral>
4.01684e-05

> <r_epik_State_Penalty>
-0

> <r_epik_Charging_Adjusted_Penalty>
0

> <i_epik_Tot_Q>
0

> <i_epik_Tot_abs_Q>
0

> <r_epik_Metal_State_Penalty>
-0

> <b_epik_Metal_Only>
0

> <s_lp_Force_Field>
OPLS_2005

> <r_lp_Energy>
20.8688

> <b_lp_Chiralities_Consistent>
1

> <s_lp_Variant>
AV-unprocessed.smi:1558-2

> <Gold.Version>
5.8.1

> <Gold.Id.Protein>
6NUR|6NUR_protein|mol2

> <Gold.PLP.Fitness>
43.9739

> <Gold.PLP.PLP>
-33.9145

> <Gold.PLP.part.hbond>
-6.8715

> <Gold.PLP.part.metal>
0.0000

> <Gold.PLP.part.buried>
-3.7824

> <Gold.PLP.part.nonpolar>
-24.3775

> <Gold.PLP.part.repulsive>
1.8445

> <Gold.PLP.ligand.clash>
0.0000

> <Gold.PLP.ligand.torsion>
0.9722

> <Gold.PLP.Chemscore.Hbond>
2.9920

> <Gold.PLP.Chemscore.CHOScore>
1.0000

> <Gold.PLP.Chemscore.Metal>
0.0000

> <Gold.Chemscore.Hbonds>
donor molecule, donor type, donor heavy atom, donor atom, acceptor molecule, acceptor atom, score
      L1  H     1    21       P1 10186  0.99
      L1  H     8    25       P1  7948  1.00
      L1  H    11    26       P1  7948  0.95
      L1  C     6    24       P1  7921  1.00

> <Gold.PLP.Chemscore.Internal.Correction>
0.0278

> <Gold.Rescore>
     Score         DG    S(hbond)    S(metal)    S(lipo)     H(rot)  DE(clash)    DE(int)     intcor
     15.55     -16.92       3.32        0.00      53.94       2.33       0.24       1.13       ----

> <Gold.Chemscore.Fitness>
15.5488

> <Gold.Chemscore.DG>
-16.9216

> <Gold.Chemscore.ZeroCoef>
-5.4800

> <Gold.Chemscore.Hbond>
3.3221

> <Gold.Chemscore.Metal>
0.0000

> <Gold.Chemscore.Lipo>
53.9425

> <Gold.Chemscore.Internal_Hbond>
0.0000

> <Gold.Chemscore.DEClash>
0.2382

> <Gold.Chemscore.DEInternal>
1.1346

> <Gold.Chemscore.Rot>
2.3303

> <Gold.Chemscore.Internal.Correction>
   9.000000E+99

> <Gold.Chemscore.Hbonds>
donor molecule, donor type, donor heavy atom, donor atom, acceptor molecule, acceptor atom, score
      L1  H     1    21       P1 10186  0.94
      L1  H     8    25       P1  7948  1.00
      L1  H    11    26       P1  7948  0.85

> <Gold.Chemscore.Hbond.Weighted>
-11.0959

> <Gold.Chemscore.Metal.Weighted>
-0.0000

> <Gold.Chemscore.Lipo.Weighted>
-6.3113

> <Gold.Chemscore.Internal_Hbond.Weighted>
0.0000

> <Gold.Chemscore.DEClash.Weighted>
0.2382

> <Gold.Chemscore.DEInternal.Weighted>
1.1346

> <Gold.Chemscore.Rot.Weighted>
5.9656

> <Gold.Chemscore.Internal.Correction.Weighted>
   9.000000E+99

> <Gold.Protein.RotatedTorsions>
[ 6907 6896 6895 6894 ] final -157.15 input  -60.11 | X-H torsion
[ 7974 7965 7964 7962 ] final -150.69 input  175.53 | X-H torsion
[ 8008 7997 7996 7995 ] final   88.04 input   59.86 | X-H torsion
[ 10167 10162 10161 10158 ] final  -38.07 input  -65.29 | X-H torsion
[ 10718 10713 10712 10709 ] final  176.93 input   66.30 | X-H torsion
[ 10763 10752 10751 10750 ] final -123.39 input  -60.55 | X-H torsion
[ 11005 11000 10999 10996 ] final -163.08 input  -57.11 | X-H torsion

> <Gold.Protein.ActiveResidues>
 VAL166  LYS551  ARG553  GLY616  TRP617  ASP618  TYR619  PRO620  LYS621  CYS622 
 ASP623  PHE694  ASN695  SER759  ASP760  ASP761  ALA762  ILE779  LEU786  VAL792 
 PHE793  MET794  SER795  GLU796  ALA797  LYS798  CYS799  TRP800  GLU811  SER814 

> <Gold.Protein.RotatedAtoms>
  151.2984  133.4133  159.2637 H   0  0  0  0  0  0  0  0  0  0  0  0  # atno 6907 bound_to 6896
  151.0216  134.9474  159.8073 H   0  0  0  0  0  0  0  0  0  0  0  0  # atno 6908 bound_to 6896
  152.5325  134.2947  159.9109 H   0  0  0  0  0  0  0  0  0  0  0  0  # atno 6909 bound_to 6896
  144.7893  140.4898  143.5784 H   0  0  0  0  0  0  0  0  0  0  0  0  # atno 7974 bound_to 7965
  155.9828  140.3376  155.6679 H   0  0  0  0  0  0  0  0  0  0  0  0  # atno 8008 bound_to 7997
  155.6525  140.0707  157.2600 H   0  0  0  0  0  0  0  0  0  0  0  0  # atno 8009 bound_to 7997
  154.4197  140.1723  156.1677 H   0  0  0  0  0  0  0  0  0  0  0  0  # atno 8010 bound_to 7997
  140.7102  143.3301  151.2589 H   0  0  0  0  0  0  0  0  0  0  0  0  # atno 10167 bound_to 10162
  156.9129  130.9915  151.3018 H   0  0  0  0  0  0  0  0  0  0  0  0  # atno 10718 bound_to 10713
  154.8707  135.4099  154.2936 H   0  0  0  0  0  0  0  0  0  0  0  0  # atno 10763 bound_to 10752
  153.3808  135.7011  153.6572 H   0  0  0  0  0  0  0  0  0  0  0  0  # atno 10764 bound_to 10752
  153.5395  135.3651  155.2684 H   0  0  0  0  0  0  0  0  0  0  0  0  # atno 10765 bound_to 10752
  140.6021  134.4937  157.5206 H   0  0  0  0  0  0  0  0  0  0  0  0  # atno 11005 bound_to 11000
  145.5837  139.1490  143.3221 LP  0  0  0  0  0  0  0  0  0  0  0  0  # atno 17320 bound_to 7965
  146.2138  140.5966  142.9047 LP  0  0  0  0  0  0  0  0  0  0  0  0  # atno 17321 bound_to 7965
  139.6780  143.9903  152.2792 LP  0  0  0  0  0  0  0  0  0  0  0  0  # atno 17342 bound_to 10162
  139.9524  144.6612  150.8159 LP  0  0  0  0  0  0  0  0  0  0  0  0  # atno 17343 bound_to 10162
  157.5956  130.8475  149.8724 LP  0  0  0  0  0  0  0  0  0  0  0  0  # atno 17370 bound_to 10713
  156.0527  130.3714  150.1162 LP  0  0  0  0  0  0  0  0  0  0  0  0  # atno 17371 bound_to 10713
  139.9228  134.8115  156.1159 LP  0  0  0  0  0  0  0  0  0  0  0  0  # atno 17394 bound_to 11000
  141.0865  133.6732  156.2448 LP  0  0  0  0  0  0  0  0  0  0  0  0  # atno 17395 bound_to 11000

$$$$
