AV-unprocessed.smi:3231|AV-procd|sdf|12334|dock8
  -GOLD-   2272018193D 1   1.00000     0.00000
 Structure written by MMmdl.
 41 42  0  0  0  0  0  0  0  0  2 V2000
  149.6259  138.4134  153.5978 O   0  0  0  0  0  0  0  0  0  0  0  0
  148.5298  139.1314  154.1312 C   0  0  1  0  0  0  0  0  0  0  0  0
  149.0141  140.5343  154.5449 C   0  0  0  0  0  0  0  0  0  0  0  0
  150.2510  140.4860  155.3200 N   0  0  0  0  0  0  0  0  0  0  0  0
  150.5133  141.7051  156.0792 C   0  0  0  0  0  0  0  0  0  0  0  0
  150.3579  141.4742  157.5911 C   0  0  0  0  0  0  0  0  0  0  0  0
  151.1399  142.4139  158.3753 N   0  0  0  0  0  0  0  0  0  0  0  0
  151.2102  143.7851  158.2458 C   0  0  0  0  0  0  0  0  0  0  0  0
  152.0672  144.2408  159.2063 C   0  0  0  0  0  0  0  0  0  0  0  0
  152.4760  143.0579  159.8832 C   0  0  0  0  0  0  0  0  0  0  0  0
  151.9191  141.9660  159.3844 N   0  0  0  0  0  0  0  0  0  0  0  0
  147.3493  139.1504  153.1341 C   0  0  0  0  0  0  0  0  0  0  0  0
  146.9436  137.7927  152.6879 N   0  3  0  0  0  0  0  0  0  0  0  0
  146.3737  136.9531  153.7718 C   0  0  0  0  0  0  0  0  0  0  0  0
  146.0129  135.5567  153.2377 C   0  0  0  0  0  0  0  0  0  0  0  0
  145.1067  135.6795  152.1487 O   0  0  0  0  0  0  0  0  0  0  0  0
  145.6723  136.4074  151.0662 C   0  0  0  0  0  0  0  0  0  0  0  0
  146.0198  137.8325  151.5289 C   0  0  0  0  0  0  0  0  0  0  0  0
  149.3021  137.6531  153.1405 H   0  0  0  0  0  0  0  0  0  0  0  0
  148.2352  138.6209  155.0470 H   0  0  0  0  0  0  0  0  0  0  0  0
  149.1724  141.1356  153.6490 H   0  0  0  0  0  0  0  0  0  0  0  0
  148.2314  141.0361  155.1156 H   0  0  0  0  0  0  0  0  0  0  0  0
  150.2245  139.6929  155.9542 H   0  0  0  0  0  0  0  0  0  0  0  0
  151.5244  142.0560  155.8705 H   0  0  0  0  0  0  0  0  0  0  0  0
  149.8371  142.5004  155.7623 H   0  0  0  0  0  0  0  0  0  0  0  0
  149.3099  141.5386  157.8887 H   0  0  0  0  0  0  0  0  0  0  0  0
  150.6909  140.4670  157.8436 H   0  0  0  0  0  0  0  0  0  0  0  0
  150.6500  144.3163  157.4904 H   0  0  0  0  0  0  0  0  0  0  0  0
  152.3580  145.2633  159.3964 H   0  0  0  0  0  0  0  0  0  0  0  0
  153.1559  142.9609  160.7165 H   0  0  0  0  0  0  0  0  0  0  0  0
  146.4871  139.6535  153.5747 H   0  0  0  0  0  0  0  0  0  0  0  0
  147.6348  139.7442  152.2640 H   0  0  0  0  0  0  0  0  0  0  0  0
  147.0822  136.8488  154.5924 H   0  0  0  0  0  0  0  0  0  0  0  0
  145.4834  137.4351  154.1790 H   0  0  0  0  0  0  0  0  0  0  0  0
  146.9074  135.0157  152.9244 H   0  0  0  0  0  0  0  0  0  0  0  0
  145.5421  134.9648  154.0228 H   0  0  0  0  0  0  0  0  0  0  0  0
  146.5574  135.8932  150.6880 H   0  0  0  0  0  0  0  0  0  0  0  0
  144.9515  136.4427  150.2491 H   0  0  0  0  0  0  0  0  0  0  0  0
  145.1098  138.3686  151.8036 H   0  0  0  0  0  0  0  0  0  0  0  0
  146.4798  138.3807  150.7057 H   0  0  0  0  0  0  0  0  0  0  0  0
  147.7820  137.3330  152.3627 H   0  0  0  0  0  0  0  0  0  0  0  0
  1  2  1  0  0  0  0
  1 19  1  0  0  0  0
  2  3  1  0  0  0  0
  2 12  1  0  0  0  0
  2 20  1  0  0  0  0
  3  4  1  0  0  0  0
  3 21  1  0  0  0  0
  3 22  1  0  0  0  0
  4  5  1  0  0  0  0
  4 23  1  0  0  0  0
  5  6  1  0  0  0  0
  5 24  1  0  0  0  0
  5 25  1  0  0  0  0
  6  7  1  0  0  0  0
  6 26  1  0  0  0  0
  6 27  1  0  0  0  0
  7 11  1  0  0  0  0
  7  8  1  0  0  0  0
  8  9  2  0  0  0  0
  8 28  1  0  0  0  0
  9 10  1  0  0  0  0
  9 29  1  0  0  0  0
 10 11  2  0  0  0  0
 10 30  1  0  0  0  0
 12 13  1  0  0  0  0
 12 31  1  0  0  0  0
 12 32  1  0  0  0  0
 13 18  1  0  0  0  0
 13 14  1  0  0  0  0
 13 41  1  0  0  0  0
 14 15  1  0  0  0  0
 14 33  1  0  0  0  0
 14 34  1  0  0  0  0
 15 16  1  0  0  0  0
 15 35  1  0  0  0  0
 15 36  1  0  0  0  0
 16 17  1  0  0  0  0
 17 18  1  0  0  0  0
 17 37  1  0  0  0  0
 17 38  1  0  0  0  0
 18 39  1  0  0  0  0
 18 40  1  0  0  0  0
M  CHG  1  13   1
M  END
> <s_m_source_file>
AV-unprocessed.smi

> <i_m_source_file_index>
3231

> <i_lp_mmshare_version>
43012

> <i_f3d_flags>
0

> <s_epik_input>
W0NIMl0xW0NIMl1PW0NIMl1bQ0gyXU4xW0NIMl1bQ0BIXShbT0hdKVtDSDJdW05IXVtDSDJdW0NIMl1uMltjSF1bY0hdW2NIXW4y

> <s_epik_cmdline>
J2VwaWtfcHl0aG9uJywgJy1waCcsICc3LjAnLCAnLXRuJywgJzgnLCAnLW1hJywgJzIwMCcsICctbWV0YWxfYmluZGluZycsICctaW1hZScsICc8aW5maWxlLm1hZT4nLCAnLW9tYWUnLCAnPG91dGZpbGUubWFlPic=

> <r_epik_Ionization_Penalty>
0.33973

> <r_epik_Ionization_Penalty_Charging>
0.202493

> <r_epik_Ionization_Penalty_Neutral>
0.137237

> <r_epik_State_Penalty>
0.943915

> <r_epik_Charging_Adjusted_Penalty>
1.14641

> <i_epik_Tot_Q>
1

> <i_epik_Tot_abs_Q>
1

> <r_epik_Metal_State_Penalty>
0.94313

> <b_epik_Metal_Only>
0

> <s_lp_Force_Field>
OPLS_2005

> <r_lp_Energy>
28.856

> <b_lp_Chiralities_Consistent>
1

> <s_lp_Variant>
AV-unprocessed.smi:3231-4

> <Gold.Version>
5.8.1

> <Gold.Id.Protein>
6NUR|6NUR_protein|mol2

> <Gold.PLP.Fitness>
50.6117

> <Gold.PLP.PLP>
-37.4756

> <Gold.PLP.part.hbond>
-4.0000

> <Gold.PLP.part.metal>
0.0000

> <Gold.PLP.part.buried>
-1.3711

> <Gold.PLP.part.nonpolar>
-31.7280

> <Gold.PLP.part.repulsive>
0.1358

> <Gold.PLP.ligand.clash>
0.0000

> <Gold.PLP.ligand.torsion>
0.8149

> <Gold.PLP.Chemscore.Hbond>
3.8512

> <Gold.PLP.Chemscore.CHOScore>
1.0000

> <Gold.PLP.Chemscore.Metal>
0.0000

> <Gold.Chemscore.Hbonds>
donor molecule, donor type, donor heavy atom, donor atom, acceptor molecule, acceptor atom, score
      L1  H     1    19       P1  7948  1.00
      L1  H    13    41       P1  7948  2.00
      P1  H  7989  7998       L1     4  0.20
      L1  C     8    28       P1  8028  0.97

> <Gold.PLP.Chemscore.Internal.Correction>
0.2123

> <Gold.Rescore>
     Score         DG    S(hbond)    S(metal)    S(lipo)     H(rot)  DE(clash)    DE(int)     intcor
     14.67     -15.57       2.18        0.00      86.01       2.84       0.13       0.77       ----

> <Gold.Chemscore.Fitness>
14.6668

> <Gold.Chemscore.DG>
-15.5676

> <Gold.Chemscore.ZeroCoef>
-5.4800

> <Gold.Chemscore.Hbond>
2.1837

> <Gold.Chemscore.Metal>
0.0000

> <Gold.Chemscore.Lipo>
86.0149

> <Gold.Chemscore.Internal_Hbond>
0.0000

> <Gold.Chemscore.DEClash>
0.1343

> <Gold.Chemscore.DEInternal>
0.7665

> <Gold.Chemscore.Rot>
2.8397

> <Gold.Chemscore.Internal.Correction>
   9.000000E+99

> <Gold.Chemscore.Hbonds>
donor molecule, donor type, donor heavy atom, donor atom, acceptor molecule, acceptor atom, score
      L1  H     1    19       P1  7948  0.97
      L1  H    13    41       P1  7948  1.00
      P1  H  7989  7998       L1     4  0.01

> <Gold.Chemscore.Hbond.Weighted>
-7.2934

> <Gold.Chemscore.Metal.Weighted>
-0.0000

> <Gold.Chemscore.Lipo.Weighted>
-10.0637

> <Gold.Chemscore.Internal_Hbond.Weighted>
0.0000

> <Gold.Chemscore.DEClash.Weighted>
0.1343

> <Gold.Chemscore.DEInternal.Weighted>
0.7665

> <Gold.Chemscore.Rot.Weighted>
7.2696

> <Gold.Chemscore.Internal.Correction.Weighted>
   9.000000E+99

> <Gold.Protein.RotatedTorsions>
[ 6907 6896 6895 6894 ] final  121.85 input  -60.11 | X-H torsion
[ 7974 7965 7964 7962 ] final   14.55 input  175.53 | X-H torsion
[ 8008 7997 7996 7995 ] final   -5.56 input   59.86 | X-H torsion
[ 10167 10162 10161 10158 ] final  -39.84 input  -65.29 | X-H torsion
[ 10718 10713 10712 10709 ] final -147.72 input   66.30 | X-H torsion
[ 10763 10752 10751 10750 ] final  -11.42 input  -60.55 | X-H torsion
[ 11005 11000 10999 10996 ] final  114.71 input  -57.11 | X-H torsion

> <Gold.Protein.ActiveResidues>
 VAL166  LYS551  ARG553  GLY616  TRP617  ASP618  TYR619  PRO620  LYS621  CYS622 
 ASP623  PHE694  ASN695  SER759  ASP760  ASP761  ALA762  ILE779  LEU786  VAL792 
 PHE793  MET794  SER795  GLU796  ALA797  LYS798  CYS799  TRP800  GLU811  SER814 

> <Gold.Protein.RotatedAtoms>
  152.4289  133.7243  159.6551 H   0  0  0  0  0  0  0  0  0  0  0  0  # atno 6907 bound_to 6896
  150.8167  133.8314  159.3163 H   0  0  0  0  0  0  0  0  0  0  0  0  # atno 6908 bound_to 6896
  151.6008  135.1049  160.0111 H   0  0  0  0  0  0  0  0  0  0  0  0  # atno 6909 bound_to 6896
  146.2302  139.9025  142.8537 H   0  0  0  0  0  0  0  0  0  0  0  0  # atno 7974 bound_to 7965
  154.6027  140.2455  155.7771 H   0  0  0  0  0  0  0  0  0  0  0  0  # atno 8008 bound_to 7997
  156.2321  140.2963  156.0167 H   0  0  0  0  0  0  0  0  0  0  0  0  # atno 8009 bound_to 7997
  155.2184  140.0399  157.2935 H   0  0  0  0  0  0  0  0  0  0  0  0  # atno 8010 bound_to 7997
  140.7052  143.3189  151.2840 H   0  0  0  0  0  0  0  0  0  0  0  0  # atno 10167 bound_to 10162
  156.4111  130.7982  151.2199 H   0  0  0  0  0  0  0  0  0  0  0  0  # atno 10718 bound_to 10713
  153.4835  135.7017  153.5924 H   0  0  0  0  0  0  0  0  0  0  0  0  # atno 10763 bound_to 10752
  153.4127  135.3844  155.2061 H   0  0  0  0  0  0  0  0  0  0  0  0  # atno 10764 bound_to 10752
  154.8720  135.3908  154.4287 H   0  0  0  0  0  0  0  0  0  0  0  0  # atno 10765 bound_to 10752
  139.8988  134.9572  156.6934 H   0  0  0  0  0  0  0  0  0  0  0  0  # atno 11005 bound_to 11000
  145.2309  140.9973  143.3991 LP  0  0  0  0  0  0  0  0  0  0  0  0  # atno 17320 bound_to 7965
  144.9531  139.4061  143.6393 LP  0  0  0  0  0  0  0  0  0  0  0  0  # atno 17321 bound_to 7965
  139.6637  144.0143  152.2709 LP  0  0  0  0  0  0  0  0  0  0  0  0  # atno 17342 bound_to 10162
  139.9719  144.6488  150.7981 LP  0  0  0  0  0  0  0  0  0  0  0  0  # atno 17343 bound_to 10162
  157.7507  131.0257  150.3932 LP  0  0  0  0  0  0  0  0  0  0  0  0  # atno 17370 bound_to 10713
  156.4230  130.3956  149.6812 LP  0  0  0  0  0  0  0  0  0  0  0  0  # atno 17371 bound_to 10713
  140.7207  133.9143  155.8145 LP  0  0  0  0  0  0  0  0  0  0  0  0  # atno 17394 bound_to 11000
  141.0229  134.0863  157.4100 LP  0  0  0  0  0  0  0  0  0  0  0  0  # atno 17395 bound_to 11000

$$$$
