AV-unprocessed.smi:2546|AV-procd|sdf|10000|dock5
  -GOLD-   2272014 43D 1   1.00000     0.00000
 Structure written by MMmdl.
 16 16  0  0  0  0  0  0  0  0  3 V2000
  148.0727  138.3709  152.5611 N   0  3  0  0  0  0  0  0  0  0  0  0
  148.0771  138.9738  153.9035 C   0  0  0  0  0  0  0  0  0  0  0  0
  149.3323  139.8243  154.1305 C   0  0  0  0  0  0  0  0  0  0  0  0
  150.5421  138.9626  154.4124 C   0  0  0  0  0  0  0  0  0  0  0  0
  150.5076  137.6238  154.5499 N   0  0  0  0  0  0  0  0  0  0  0  0
  151.7576  137.2464  154.7379 N   0  5  0  0  0  0  0  0  0  0  0  0
  152.5278  138.3426  154.7048 C   0  0  0  0  0  0  0  0  0  0  0  0
  151.7975  139.4276  154.4949 N   0  0  0  0  0  0  0  0  0  0  0  0
  148.6847  138.8989  151.9555 H   0  0  0  0  0  0  0  0  0  0  0  0
  147.1340  138.3870  152.1889 H   0  0  0  0  0  0  0  0  0  0  0  0
  147.1808  139.5844  154.0182 H   0  0  0  0  0  0  0  0  0  0  0  0
  148.0214  138.1768  154.6457 H   0  0  0  0  0  0  0  0  0  0  0  0
  149.5381  140.4416  153.2549 H   0  0  0  0  0  0  0  0  0  0  0  0
  149.1837  140.5056  154.9692 H   0  0  0  0  0  0  0  0  0  0  0  0
  153.6012  138.2773  154.8333 H   0  0  0  0  0  0  0  0  0  0  0  0
  148.3967  137.4161  152.6203 H   0  0  0  0  0  0  0  0  0  0  0  0
  1  2  1  0  0  0  0
  1  9  1  0  0  0  0
  1 10  1  0  0  0  0
  1 16  1  0  0  0  0
  2  3  1  0  0  0  0
  2 11  1  0  0  0  0
  2 12  1  0  0  0  0
  3 13  1  0  0  0  0
  3 14  1  0  0  0  0
  3  4  1  0  0  0  0
  4  8  1  0  0  0  0
  4  5  2  0  0  0  0
  5  6  1  0  0  0  0
  6  7  1  0  0  0  0
  7  8  2  0  0  0  0
  7 15  1  0  0  0  0
M  CHG  1   1   1
M  CHG  1   6  -1
M  END
> <s_m_source_file>
AV-unprocessed.smi

> <i_m_source_file_index>
2546

> <i_lp_mmshare_version>
43012

> <i_f3d_flags>
0

> <s_epik_input>
W05IMl1bQ0gyXVtDSDJdYzFubltjSF1bbkhdMQ==

> <s_epik_cmdline>
J2VwaWtfcHl0aG9uJywgJy1waCcsICc3LjAnLCAnLXRuJywgJzgnLCAnLW1hJywgJzIwMCcsICctbWV0YWxfYmluZGluZycsICctaW1hZScsICc8aW5maWxlLm1hZT4nLCAnLW9tYWUnLCAnPG91dGZpbGUubWFlPic=

> <r_lp_tautomer_probability>
0.948284

> <r_epik_Ionization_Penalty>
6.40664

> <r_epik_Ionization_Penalty_Charging>
6.40664

> <r_epik_Ionization_Penalty_Neutral>
1.41162e-13

> <r_epik_State_Penalty>
2.81126

> <r_epik_Charging_Adjusted_Penalty>
9.2179

> <i_epik_Tot_Q>
0

> <i_epik_Tot_abs_Q>
2

> <r_epik_Metal_State_Penalty>
0.674554

> <b_epik_Metal_Only>
1

> <s_lp_Force_Field>
OPLS_2005

> <r_lp_Energy>
-3.27829

> <b_lp_Chiralities_Consistent>
1

> <s_lp_Variant>
AV-unprocessed.smi:2546-4

> <Gold.Version>
5.8.1

> <Gold.Id.Protein>
6NUR|6NUR_protein|mol2

> <Gold.PLP.Fitness>
33.9754

> <Gold.PLP.PLP>
-16.1941

> <Gold.PLP.part.hbond>
-4.0000

> <Gold.PLP.part.metal>
0.0000

> <Gold.PLP.part.buried>
-4.6355

> <Gold.PLP.part.nonpolar>
-9.3564

> <Gold.PLP.part.repulsive>
0.5087

> <Gold.PLP.ligand.clash>
0.0000

> <Gold.PLP.ligand.torsion>
0.1121

> <Gold.PLP.Chemscore.Hbond>
6.0000

> <Gold.PLP.Chemscore.CHOScore>
0.0000

> <Gold.PLP.Chemscore.Metal>
0.0000

> <Gold.Chemscore.Hbonds>
donor molecule, donor type, donor heavy atom, donor atom, acceptor molecule, acceptor atom, score
      L1  H     1     9       P1  7957  1.00
      L1  H     1    16       P1  7948  1.66
      P1  H  7989  7998       L1     8  1.00
      P1  H 10752 10765       L1     6  2.00

> <Gold.PLP.Chemscore.Internal.Correction>
0.0056

> <Gold.Rescore>
     Score         DG    S(hbond)    S(metal)    S(lipo)     H(rot)  DE(clash)    DE(int)     intcor
     14.63     -15.05       3.81        0.00       9.38       1.66       0.06       0.36       ----

> <Gold.Chemscore.Fitness>
14.6298

> <Gold.Chemscore.DG>
-15.0465

> <Gold.Chemscore.ZeroCoef>
-5.4800

> <Gold.Chemscore.Hbond>
3.8076

> <Gold.Chemscore.Metal>
0.0000

> <Gold.Chemscore.Lipo>
9.3802

> <Gold.Chemscore.Internal_Hbond>
0.0000

> <Gold.Chemscore.DEClash>
0.0609

> <Gold.Chemscore.DEInternal>
0.3558

> <Gold.Chemscore.Rot>
1.6595

> <Gold.Chemscore.Internal.Correction>
   9.000000E+99

> <Gold.Chemscore.Hbonds>
donor molecule, donor type, donor heavy atom, donor atom, acceptor molecule, acceptor atom, score
      L1  H     1     9       P1  7957  0.88
      L1  H     1    16       P1  7948  0.78
      P1  H  7989  7998       L1     8  0.24
      P1  H 10752 10765       L1     6  0.54

> <Gold.Chemscore.Hbond.Weighted>
-12.7174

> <Gold.Chemscore.Metal.Weighted>
-0.0000

> <Gold.Chemscore.Lipo.Weighted>
-1.0975

> <Gold.Chemscore.Internal_Hbond.Weighted>
0.0000

> <Gold.Chemscore.DEClash.Weighted>
0.0609

> <Gold.Chemscore.DEInternal.Weighted>
0.3558

> <Gold.Chemscore.Rot.Weighted>
4.2484

> <Gold.Chemscore.Internal.Correction.Weighted>
   9.000000E+99

> <Gold.Protein.RotatedTorsions>
[ 6907 6896 6895 6894 ] final  -48.25 input  -60.11 | X-H torsion
[ 7974 7965 7964 7962 ] final  105.13 input  175.53 | X-H torsion
[ 8008 7997 7996 7995 ] final   58.90 input   59.86 | X-H torsion
[ 10167 10162 10161 10158 ] final -164.66 input  -65.29 | X-H torsion
[ 10718 10713 10712 10709 ] final   24.74 input   66.30 | X-H torsion
[ 10763 10752 10751 10750 ] final  164.31 input  -60.55 | X-H torsion
[ 11005 11000 10999 10996 ] final    0.69 input  -57.11 | X-H torsion

> <Gold.Protein.ActiveResidues>
 VAL166  LYS551  ARG553  GLY616  TRP617  ASP618  TYR619  PRO620  LYS621  CYS622 
 ASP623  PHE694  ASN695  SER759  ASP760  ASP761  ALA762  ILE779  LEU786  VAL792 
 PHE793  MET794  SER795  GLU796  ALA797  LYS798  CYS799  TRP800  GLU811  SER814 

> <Gold.Protein.RotatedAtoms>
  150.8924  134.8329  159.7302 H   0  0  0  0  0  0  0  0  0  0  0  0  # atno 6907 bound_to 6896
  152.4845  134.4627  159.9620 H   0  0  0  0  0  0  0  0  0  0  0  0  # atno 6908 bound_to 6896
  151.4688  133.3535  159.2855 H   0  0  0  0  0  0  0  0  0  0  0  0  # atno 6909 bound_to 6896
  145.3236  139.2506  143.3698 H   0  0  0  0  0  0  0  0  0  0  0  0  # atno 7974 bound_to 7965
  155.5576  140.3487  155.4483 H   0  0  0  0  0  0  0  0  0  0  0  0  # atno 8008 bound_to 7997
  156.0538  140.1324  157.0046 H   0  0  0  0  0  0  0  0  0  0  0  0  # atno 8009 bound_to 7997
  154.4447  140.0999  156.6400 H   0  0  0  0  0  0  0  0  0  0  0  0  # atno 8010 bound_to 7997
  139.6235  144.0577  152.1954 H   0  0  0  0  0  0  0  0  0  0  0  0  # atno 10167 bound_to 10162
  157.1839  130.6815  149.6124 H   0  0  0  0  0  0  0  0  0  0  0  0  # atno 10718 bound_to 10713
  154.3069  135.2758  155.2584 H   0  0  0  0  0  0  0  0  0  0  0  0  # atno 10763 bound_to 10752
  154.4996  135.5811  153.6524 H   0  0  0  0  0  0  0  0  0  0  0  0  # atno 10764 bound_to 10752
  152.9893  135.6154  154.3244 H   0  0  0  0  0  0  0  0  0  0  0  0  # atno 10765 bound_to 10752
  140.6238  133.9637  155.8238 H   0  0  0  0  0  0  0  0  0  0  0  0  # atno 11005 bound_to 11000
  146.3073  140.3799  142.8683 LP  0  0  0  0  0  0  0  0  0  0  0  0  # atno 17320 bound_to 7965
  144.8919  140.7535  143.5921 LP  0  0  0  0  0  0  0  0  0  0  0  0  # atno 17321 bound_to 7965
  140.0225  144.6142  150.7555 LP  0  0  0  0  0  0  0  0  0  0  0  0  # atno 17342 bound_to 10162
  140.7397  143.2794  151.3643 LP  0  0  0  0  0  0  0  0  0  0  0  0  # atno 17343 bound_to 10162
  155.9720  130.4637  150.6192 LP  0  0  0  0  0  0  0  0  0  0  0  0  # atno 17370 bound_to 10713
  157.3926  131.0798  151.1380 LP  0  0  0  0  0  0  0  0  0  0  0  0  # atno 17371 bound_to 10713
  141.0724  134.0186  157.3507 LP  0  0  0  0  0  0  0  0  0  0  0  0  # atno 17394 bound_to 11000
  139.9143  135.0195  156.7817 LP  0  0  0  0  0  0  0  0  0  0  0  0  # atno 17395 bound_to 11000

$$$$
