AV-unprocessed.smi:3303|AV-procd|sdf|12686|dock1
  -GOLD-   2272019 23D 1   1.00000     0.00000
 Structure written by MMmdl.
 44 45  0  0  0  0  0  0  0  0  2 V2000
  149.8043  143.2410  157.5677 C   0  0  0  0  0  0  0  0  0  0  0  0
  149.6406  141.7662  157.1441 C   0  0  1  0  0  0  0  0  0  0  0  0
  148.5315  141.6129  156.0829 C   0  0  0  0  0  0  0  0  0  0  0  0
  148.9576  142.1479  154.7635 N   0  3  2  0  0  0  0  0  0  0  0  0
  147.8473  142.2185  153.7870 C   0  0  0  0  0  0  0  0  0  0  0  0
  150.1984  141.5120  154.2336 C   0  0  2  0  0  0  0  0  0  0  0  0
  149.9967  140.0534  153.7684 C   0  0  0  0  0  0  0  0  0  0  0  0
  151.3428  141.6466  155.2585 C   0  0  0  0  0  0  0  0  0  0  0  0
  150.9477  141.0971  156.6422 C   0  0  1  0  0  0  0  0  0  0  0  0
  152.0718  141.2785  157.5549 N   0  0  0  0  0  0  0  0  0  0  0  0
  151.8683  140.5906  158.8218 C   0  0  0  0  0  0  0  0  0  0  0  0
  152.6574  141.3047  159.9273 C   0  0  0  0  0  0  0  0  0  0  0  0
  152.4405  142.8057  159.9011 C   0  0  0  0  0  0  0  0  0  0  0  0
  151.9169  143.4772  161.0266 C   0  0  0  0  0  0  0  0  0  0  0  0
  151.7442  144.8730  160.9547 C   0  0  0  0  0  0  0  0  0  0  0  0
  152.1007  145.5402  159.7671 C   0  0  0  0  0  0  0  0  0  0  0  0
  152.6168  144.7785  158.6997 C   0  0  0  0  0  0  0  0  0  0  0  0
  152.7871  143.4400  158.7582 N   0  0  0  0  0  0  0  0  0  0  0  0
  150.1359  143.8703  156.7422 H   0  0  0  0  0  0  0  0  0  0  0  0
  150.5270  143.3483  158.3769 H   0  0  0  0  0  0  0  0  0  0  0  0
  148.8601  143.6482  157.9295 H   0  0  0  0  0  0  0  0  0  0  0  0
  149.2977  141.2253  158.0263 H   0  0  0  0  0  0  0  0  0  0  0  0
  148.2505  140.5643  155.9818 H   0  0  0  0  0  0  0  0  0  0  0  0
  147.6331  142.1353  156.4148 H   0  0  0  0  0  0  0  0  0  0  0  0
  147.4129  141.2355  153.6031 H   0  0  0  0  0  0  0  0  0  0  0  0
  148.1911  142.6286  152.8369 H   0  0  0  0  0  0  0  0  0  0  0  0
  147.0562  142.8691  154.1611 H   0  0  0  0  0  0  0  0  0  0  0  0
  150.4951  142.0847  153.3538 H   0  0  0  0  0  0  0  0  0  0  0  0
  150.9330  139.6367  153.3969 H   0  0  0  0  0  0  0  0  0  0  0  0
  149.2775  139.9844  152.9524 H   0  0  0  0  0  0  0  0  0  0  0  0
  149.6517  139.4033  154.5717 H   0  0  0  0  0  0  0  0  0  0  0  0
  152.2309  141.1317  154.8891 H   0  0  0  0  0  0  0  0  0  0  0  0
  151.6243  142.6970  155.3443 H   0  0  0  0  0  0  0  0  0  0  0  0
  150.7755  140.0252  156.5363 H   0  0  0  0  0  0  0  0  0  0  0  0
  152.9124  140.9198  157.1239 H   0  0  0  0  0  0  0  0  0  0  0  0
  150.8101  140.5778  159.0815 H   0  0  0  0  0  0  0  0  0  0  0  0
  152.2001  139.5550  158.7364 H   0  0  0  0  0  0  0  0  0  0  0  0
  152.3655  140.9225  160.9069 H   0  0  0  0  0  0  0  0  0  0  0  0
  153.7231  141.0963  159.8212 H   0  0  0  0  0  0  0  0  0  0  0  0
  151.6551  142.9380  161.9251 H   0  0  0  0  0  0  0  0  0  0  0  0
  151.3462  145.4212  161.7958 H   0  0  0  0  0  0  0  0  0  0  0  0
  151.9823  146.6097  159.6766 H   0  0  0  0  0  0  0  0  0  0  0  0
  152.9011  145.2572  157.7744 H   0  0  0  0  0  0  0  0  0  0  0  0
  149.2139  143.1090  154.9400 H   0  0  0  0  0  0  0  0  0  0  0  0
  1  2  1  0  0  0  0
  1 19  1  0  0  0  0
  1 20  1  0  0  0  0
  1 21  1  0  0  0  0
  2  9  1  0  0  0  0
  2  3  1  0  0  0  0
  2 22  1  0  0  0  0
  3  4  1  0  0  0  0
  3 23  1  0  0  0  0
  3 24  1  0  0  0  0
  4  5  1  0  0  0  0
  4  6  1  0  0  0  0
  4 44  1  0  0  0  0
  5 25  1  0  0  0  0
  5 26  1  0  0  0  0
  5 27  1  0  0  0  0
  6  7  1  0  0  0  0
  6  8  1  0  0  0  0
  6 28  1  0  0  0  0
  7 29  1  0  0  0  0
  7 30  1  0  0  0  0
  7 31  1  0  0  0  0
  8  9  1  0  0  0  0
  8 32  1  0  0  0  0
  8 33  1  0  0  0  0
  9 10  1  0  0  0  0
  9 34  1  0  0  0  0
 10 11  1  0  0  0  0
 10 35  1  0  0  0  0
 11 12  1  0  0  0  0
 11 36  1  0  0  0  0
 11 37  1  0  0  0  0
 12 13  1  0  0  0  0
 12 38  1  0  0  0  0
 12 39  1  0  0  0  0
 13 18  1  0  0  0  0
 13 14  2  0  0  0  0
 14 15  1  0  0  0  0
 14 40  1  0  0  0  0
 15 16  2  0  0  0  0
 15 41  1  0  0  0  0
 16 17  1  0  0  0  0
 16 42  1  0  0  0  0
 17 18  2  0  0  0  0
 17 43  1  0  0  0  0
M  CHG  1   4   1
M  END
> <s_m_source_file>
AV-unprocessed.smi

> <i_m_source_file_index>
3303

> <i_lp_mmshare_version>
43012

> <i_f3d_flags>
0

> <s_epik_input>
W0NIM11bQ0BASF0xW0NIMl1OKFtDSDNdKVtDQEBIXShbQ0gzXSlbQ0gyXVtDQEhdMVtOSF1bQ0gyXVtDSDJdYzJbY0hdW2NIXVtjSF1bY0hdbjI=

> <s_epik_cmdline>
J2VwaWtfcHl0aG9uJywgJy1waCcsICc3LjAnLCAnLXRuJywgJzgnLCAnLW1hJywgJzIwMCcsICctbWV0YWxfYmluZGluZycsICctaW1hZScsICc8aW5maWxlLm1hZT4nLCAnLW9tYWUnLCAnPG91dGZpbGUubWFlPic=

> <r_epik_Ionization_Penalty>
2.31085

> <r_epik_Ionization_Penalty_Charging>
0.000313057

> <r_epik_Ionization_Penalty_Neutral>
2.31054

> <r_epik_State_Penalty>
2.4087

> <r_epik_Charging_Adjusted_Penalty>
2.40902

> <i_epik_Tot_Q>
1

> <i_epik_Tot_abs_Q>
1

> <r_epik_Metal_State_Penalty>
2.30979

> <b_epik_Metal_Only>
0

> <s_lp_Force_Field>
OPLS_2005

> <r_lp_Energy>
26.3275

> <b_lp_Chiralities_Consistent>
1

> <s_lp_Variant>
AV-unprocessed.smi:3303-30

> <Gold.Version>
5.8.1

> <Gold.Id.Protein>
6NUR|6NUR_protein|mol2

> <Gold.PLP.Fitness>
47.3953

> <Gold.PLP.PLP>
-41.8319

> <Gold.PLP.part.hbond>
-1.0000

> <Gold.PLP.part.metal>
0.0000

> <Gold.PLP.part.buried>
-4.1697

> <Gold.PLP.part.nonpolar>
-36.7802

> <Gold.PLP.part.repulsive>
0.0530

> <Gold.PLP.ligand.clash>
0.0000

> <Gold.PLP.ligand.torsion>
0.2270

> <Gold.PLP.Chemscore.Hbond>
2.0000

> <Gold.PLP.Chemscore.CHOScore>
0.0000

> <Gold.PLP.Chemscore.Metal>
0.0000

> <Gold.Chemscore.Hbonds>
donor molecule, donor type, donor heavy atom, donor atom, acceptor molecule, acceptor atom, score
      L1  H     4    44       P1  8028  2.00

> <Gold.PLP.Chemscore.Internal.Correction>
0.0174

> <Gold.Rescore>
     Score         DG    S(hbond)    S(metal)    S(lipo)     H(rot)  DE(clash)    DE(int)     intcor
     17.33     -19.51       0.92        0.00     122.69       1.33       0.34       1.83       ----

> <Gold.Chemscore.Fitness>
17.3323

> <Gold.Chemscore.DG>
-19.5065

> <Gold.Chemscore.ZeroCoef>
-5.4800

> <Gold.Chemscore.Hbond>
0.9190

> <Gold.Chemscore.Metal>
0.0000

> <Gold.Chemscore.Lipo>
122.6886

> <Gold.Chemscore.Internal_Hbond>
0.0000

> <Gold.Chemscore.DEClash>
0.3425

> <Gold.Chemscore.DEInternal>
1.8316

> <Gold.Chemscore.Rot>
1.3272

> <Gold.Chemscore.Internal.Correction>
   9.000000E+99

> <Gold.Chemscore.Hbonds>
donor molecule, donor type, donor heavy atom, donor atom, acceptor molecule, acceptor atom, score
      L1  H     4    44       P1  8028  0.96

> <Gold.Chemscore.Hbond.Weighted>
-3.0695

> <Gold.Chemscore.Metal.Weighted>
-0.0000

> <Gold.Chemscore.Lipo.Weighted>
-14.3546

> <Gold.Chemscore.Internal_Hbond.Weighted>
0.0000

> <Gold.Chemscore.DEClash.Weighted>
0.3425

> <Gold.Chemscore.DEInternal.Weighted>
1.8316

> <Gold.Chemscore.Rot.Weighted>
3.3976

> <Gold.Chemscore.Internal.Correction.Weighted>
   9.000000E+99

> <Gold.Protein.RotatedTorsions>
[ 6907 6896 6895 6894 ] final  109.12 input  -60.11 | X-H torsion
[ 7974 7965 7964 7962 ] final -103.91 input  175.53 | X-H torsion
[ 8008 7997 7996 7995 ] final  -83.60 input   59.86 | X-H torsion
[ 10167 10162 10161 10158 ] final   -0.27 input  -65.29 | X-H torsion
[ 10718 10713 10712 10709 ] final  -11.85 input   66.30 | X-H torsion
[ 10763 10752 10751 10750 ] final -138.43 input  -60.55 | X-H torsion
[ 11005 11000 10999 10996 ] final -168.09 input  -57.11 | X-H torsion

> <Gold.Protein.ActiveResidues>
 VAL166  LYS551  ARG553  GLY616  TRP617  ASP618  TYR619  PRO620  LYS621  CYS622 
 ASP623  PHE694  ASN695  SER759  ASP760  ASP761  ALA762  ILE779  LEU786  VAL792 
 PHE793  MET794  SER795  GLU796  ALA797  LYS798  CYS799  TRP800  GLU811  SER814 

> <Gold.Protein.RotatedAtoms>
  152.5082  133.8991  159.7431 H   0  0  0  0  0  0  0  0  0  0  0  0  # atno 6907 bound_to 6896
  150.9411  133.6647  159.2797 H   0  0  0  0  0  0  0  0  0  0  0  0  # atno 6908 bound_to 6896
  151.3958  135.0968  159.9593 H   0  0  0  0  0  0  0  0  0  0  0  0  # atno 6909 bound_to 6896
  145.2498  140.9234  143.3101 H   0  0  0  0  0  0  0  0  0  0  0  0  # atno 7974 bound_to 7965
  154.6208  140.0616  156.9612 H   0  0  0  0  0  0  0  0  0  0  0  0  # atno 8008 bound_to 7997
  155.1821  140.3300  155.4355 H   0  0  0  0  0  0  0  0  0  0  0  0  # atno 8009 bound_to 7997
  156.2430  140.1896  156.6917 H   0  0  0  0  0  0  0  0  0  0  0  0  # atno 8010 bound_to 7997
  140.6760  143.6915  150.8024 H   0  0  0  0  0  0  0  0  0  0  0  0  # atno 10167 bound_to 10162
  156.6531  130.4960  149.6055 H   0  0  0  0  0  0  0  0  0  0  0  0  # atno 10718 bound_to 10713
  154.8637  135.3612  154.5383 H   0  0  0  0  0  0  0  0  0  0  0  0  # atno 10763 bound_to 10752
  153.6006  135.7013  153.5391 H   0  0  0  0  0  0  0  0  0  0  0  0  # atno 10764 bound_to 10752
  153.3294  135.4128  155.1444 H   0  0  0  0  0  0  0  0  0  0  0  0  # atno 10765 bound_to 10752
  140.5459  134.5477  157.5111 H   0  0  0  0  0  0  0  0  0  0  0  0  # atno 11005 bound_to 11000
  144.9513  139.4080  143.6401 LP  0  0  0  0  0  0  0  0  0  0  0  0  # atno 17320 bound_to 7965
  146.3305  139.8521  142.8871 LP  0  0  0  0  0  0  0  0  0  0  0  0  # atno 17321 bound_to 7965
  140.0608  143.5157  152.2629 LP  0  0  0  0  0  0  0  0  0  0  0  0  # atno 17342 bound_to 10162
  139.6053  144.7594  151.3077 LP  0  0  0  0  0  0  0  0  0  0  0  0  # atno 17343 bound_to 10162
  156.2069  130.6655  151.1228 LP  0  0  0  0  0  0  0  0  0  0  0  0  # atno 17370 bound_to 10713
  157.7134  131.0722  150.6416 LP  0  0  0  0  0  0  0  0  0  0  0  0  # atno 17371 bound_to 10713
  139.9480  134.7667  156.0515 LP  0  0  0  0  0  0  0  0  0  0  0  0  # atno 17394 bound_to 11000
  141.1200  133.6616  156.3191 LP  0  0  0  0  0  0  0  0  0  0  0  0  # atno 17395 bound_to 11000

$$$$
