AV-unprocessed.smi:2562|AV-procd|sdf|10052|dock6
  -GOLD-   2272014 93D 1   1.00000     0.00000
 Structure written by MMmdl.
 30 31  0  0  0  0  0  0  0  0  3 V2000
  152.8635  143.4016  162.5463 C   0  0  0  0  0  0  0  0  0  0  0  0
  152.6097  142.8121  161.1547 C   0  0  0  0  0  0  0  0  0  0  0  0
  153.3945  141.5154  160.9119 C   0  0  0  0  0  0  0  0  0  0  0  0
  153.1123  140.9236  159.5476 C   0  0  0  0  0  0  0  0  0  0  0  0
  153.5886  139.7470  159.1130 N   0  0  0  0  0  0  0  0  0  0  0  0
  153.0893  139.5921  157.9037 N   0  5  0  0  0  0  0  0  0  0  0  0
  152.3003  140.6375  157.6001 C   0  0  0  0  0  0  0  0  0  0  0  0
  151.5766  140.8451  156.2866 C   0  0  2  0  0  0  0  0  0  0  0  0
  150.7671  142.1565  156.3034 C   0  0  0  0  0  0  0  0  0  0  0  0
  150.0524  142.3333  155.0247 N   0  3  0  0  0  0  0  0  0  0  0  0
  149.2136  141.1621  154.7050 C   0  0  0  0  0  0  0  0  0  0  0  0
  150.0658  139.8825  154.7330 C   0  0  0  0  0  0  0  0  0  0  0  0
  150.6971  139.7588  156.0019 O   0  0  0  0  0  0  0  0  0  0  0  0
  152.3153  141.4827  158.6262 N   0  0  0  0  0  0  0  0  0  0  0  0
  152.3044  144.3273  162.6835 H   0  0  0  0  0  0  0  0  0  0  0  0
  153.9206  143.6263  162.6910 H   0  0  0  0  0  0  0  0  0  0  0  0
  152.5569  142.7076  163.3294 H   0  0  0  0  0  0  0  0  0  0  0  0
  151.5426  142.6225  161.0324 H   0  0  0  0  0  0  0  0  0  0  0  0
  152.8811  143.5488  160.3973 H   0  0  0  0  0  0  0  0  0  0  0  0
  154.4654  141.7033  160.9960 H   0  0  0  0  0  0  0  0  0  0  0  0
  153.1447  140.7759  161.6738 H   0  0  0  0  0  0  0  0  0  0  0  0
  152.3361  140.8929  155.5039 H   0  0  0  0  0  0  0  0  0  0  0  0
  150.0436  142.1452  157.1200 H   0  0  0  0  0  0  0  0  0  0  0  0
  151.4239  143.0113  156.4675 H   0  0  0  0  0  0  0  0  0  0  0  0
  149.4738  143.1597  155.0759 H   0  0  0  0  0  0  0  0  0  0  0  0
  148.4035  141.0911  155.4320 H   0  0  0  0  0  0  0  0  0  0  0  0
  148.7569  141.2996  153.7248 H   0  0  0  0  0  0  0  0  0  0  0  0
  149.4369  139.0081  154.5641 H   0  0  0  0  0  0  0  0  0  0  0  0
  150.8152  139.8939  153.9400 H   0  0  0  0  0  0  0  0  0  0  0  0
  150.7352  142.4525  154.2901 H   0  0  0  0  0  0  0  0  0  0  0  0
  1  2  1  0  0  0  0
  1 15  1  0  0  0  0
  1 16  1  0  0  0  0
  1 17  1  0  0  0  0
  2  3  1  0  0  0  0
  2 18  1  0  0  0  0
  2 19  1  0  0  0  0
  3  4  1  0  0  0  0
  3 20  1  0  0  0  0
  3 21  1  0  0  0  0
  4 14  1  0  0  0  0
  4  5  2  0  0  0  0
  5  6  1  0  0  0  0
  6  7  1  0  0  0  0
  7  8  1  0  0  0  0
  7 14  2  0  0  0  0
  8 13  1  0  0  0  0
  8  9  1  0  0  0  0
  8 22  1  0  0  0  0
  9 10  1  0  0  0  0
  9 23  1  0  0  0  0
  9 24  1  0  0  0  0
 10 11  1  0  0  0  0
 10 25  1  0  0  0  0
 10 30  1  0  0  0  0
 11 12  1  0  0  0  0
 11 26  1  0  0  0  0
 11 27  1  0  0  0  0
 12 13  1  0  0  0  0
 12 28  1  0  0  0  0
 12 29  1  0  0  0  0
M  CHG  1   6  -1
M  CHG  1  10   1
M  END
> <s_m_source_file>
AV-unprocessed.smi

> <i_m_source_file_index>
2562

> <i_lp_mmshare_version>
43012

> <i_f3d_flags>
0

> <s_epik_input>
W0NIM11bQ0gyXVtDSDJdYzFuW25IXWMobjEpW0NAQEhdMltDSDJdW05IXVtDSDJdW0NIMl1PMg==

> <s_epik_cmdline>
J2VwaWtfcHl0aG9uJywgJy1waCcsICc3LjAnLCAnLXRuJywgJzgnLCAnLW1hJywgJzIwMCcsICctbWV0YWxfYmluZGluZycsICctaW1hZScsICc8aW5maWxlLm1hZT4nLCAnLW9tYWUnLCAnPG91dGZpbGUubWFlPic=

> <r_epik_Ionization_Penalty>
3.5188

> <r_epik_Ionization_Penalty_Charging>
3.5188

> <r_epik_Ionization_Penalty_Neutral>
2.11677e-13

> <r_epik_State_Penalty>
2.51144

> <r_epik_Charging_Adjusted_Penalty>
6.03025

> <i_epik_Tot_Q>
0

> <i_epik_Tot_abs_Q>
2

> <r_epik_Metal_State_Penalty>
0.975833

> <b_epik_Metal_Only>
0

> <s_lp_Force_Field>
OPLS_2005

> <r_lp_Energy>
5.22198

> <b_lp_Chiralities_Consistent>
1

> <s_lp_Variant>
AV-unprocessed.smi:2562-11

> <Gold.Version>
5.8.1

> <Gold.Id.Protein>
6NUR|6NUR_protein|mol2

> <Gold.PLP.Fitness>
40.1742

> <Gold.PLP.PLP>
-28.2766

> <Gold.PLP.part.hbond>
-2.4301

> <Gold.PLP.part.metal>
0.0000

> <Gold.PLP.part.buried>
-2.6615

> <Gold.PLP.part.nonpolar>
-23.3118

> <Gold.PLP.part.repulsive>
0.2161

> <Gold.PLP.ligand.clash>
0.0000

> <Gold.PLP.ligand.torsion>
0.0361

> <Gold.PLP.Chemscore.Hbond>
3.9840

> <Gold.PLP.Chemscore.CHOScore>
0.0000

> <Gold.PLP.Chemscore.Metal>
0.0000

> <Gold.Chemscore.Hbonds>
donor molecule, donor type, donor heavy atom, donor atom, acceptor molecule, acceptor atom, score
      L1  H    10    25       P1  8028  2.00
      P1  H  7997  8008       L1     6  1.70

> <Gold.PLP.Chemscore.Internal.Correction>
0.0178

> <Gold.Rescore>
     Score         DG    S(hbond)    S(metal)    S(lipo)     H(rot)  DE(clash)    DE(int)     intcor
     13.56     -13.80       1.45        0.00      62.02       1.48       0.19       0.05       ----

> <Gold.Chemscore.Fitness>
13.5603

> <Gold.Chemscore.DG>
-13.7963

> <Gold.Chemscore.ZeroCoef>
-5.4800

> <Gold.Chemscore.Hbond>
1.4522

> <Gold.Chemscore.Metal>
0.0000

> <Gold.Chemscore.Lipo>
62.0167

> <Gold.Chemscore.Internal_Hbond>
0.0000

> <Gold.Chemscore.DEClash>
0.1852

> <Gold.Chemscore.DEInternal>
0.0507

> <Gold.Chemscore.Rot>
1.4804

> <Gold.Chemscore.Internal.Correction>
   9.000000E+99

> <Gold.Chemscore.Hbonds>
donor molecule, donor type, donor heavy atom, donor atom, acceptor molecule, acceptor atom, score
      L1  H    10    25       P1  8028  0.99
      P1  H  7997  8008       L1     6  0.04

> <Gold.Chemscore.Hbond.Weighted>
-4.8502

> <Gold.Chemscore.Metal.Weighted>
-0.0000

> <Gold.Chemscore.Lipo.Weighted>
-7.2560

> <Gold.Chemscore.Internal_Hbond.Weighted>
0.0000

> <Gold.Chemscore.DEClash.Weighted>
0.1852

> <Gold.Chemscore.DEInternal.Weighted>
0.0507

> <Gold.Chemscore.Rot.Weighted>
3.7899

> <Gold.Chemscore.Internal.Correction.Weighted>
   9.000000E+99

> <Gold.Protein.RotatedTorsions>
[ 6907 6896 6895 6894 ] final    5.61 input  -60.11 | X-H torsion
[ 7974 7965 7964 7962 ] final  -25.88 input  175.53 | X-H torsion
[ 8008 7997 7996 7995 ] final  -75.59 input   59.86 | X-H torsion
[ 10167 10162 10161 10158 ] final  122.74 input  -65.29 | X-H torsion
[ 10718 10713 10712 10709 ] final  -81.23 input   66.30 | X-H torsion
[ 10763 10752 10751 10750 ] final  -87.27 input  -60.55 | X-H torsion
[ 11005 11000 10999 10996 ] final -159.65 input  -57.11 | X-H torsion

> <Gold.Protein.ActiveResidues>
 VAL166  LYS551  ARG553  GLY616  TRP617  ASP618  TYR619  PRO620  LYS621  CYS622 
 ASP623  PHE694  ASN695  SER759  ASP760  ASP761  ALA762  ILE779  LEU786  VAL792 
 PHE793  MET794  SER795  GLU796  ALA797  LYS798  CYS799  TRP800  GLU811  SER814 

> <Gold.Protein.RotatedAtoms>
  151.6603  135.0990  160.0177 H   0  0  0  0  0  0  0  0  0  0  0  0  # atno 6907 bound_to 6896
  152.3950  133.6730  159.6277 H   0  0  0  0  0  0  0  0  0  0  0  0  # atno 6908 bound_to 6896
  150.7859  133.8806  159.3326 H   0  0  0  0  0  0  0  0  0  0  0  0  # atno 6909 bound_to 6896
  146.1462  140.4945  142.8630 H   0  0  0  0  0  0  0  0  0  0  0  0  # atno 7974 bound_to 7965
  154.5430  140.0741  156.8542 H   0  0  0  0  0  0  0  0  0  0  0  0  # atno 8008 bound_to 7997
  155.3143  140.3392  155.4225 H   0  0  0  0  0  0  0  0  0  0  0  0  # atno 8009 bound_to 7997
  156.1892  140.1680  156.8111 H   0  0  0  0  0  0  0  0  0  0  0  0  # atno 8010 bound_to 7997
  139.5840  144.6999  151.3455 H   0  0  0  0  0  0  0  0  0  0  0  0  # atno 10167 bound_to 10162
  156.0054  130.4597  150.3921 H   0  0  0  0  0  0  0  0  0  0  0  0  # atno 10718 bound_to 10713
  154.6318  135.5419  153.7689 H   0  0  0  0  0  0  0  0  0  0  0  0  # atno 10763 bound_to 10752
  153.0288  135.6438  154.1290 H   0  0  0  0  0  0  0  0  0  0  0  0  # atno 10764 bound_to 10752
  154.1219  135.2920  155.3186 H   0  0  0  0  0  0  0  0  0  0  0  0  # atno 10765 bound_to 10752
  140.6402  134.4559  157.5233 H   0  0  0  0  0  0  0  0  0  0  0  0  # atno 11005 bound_to 11000
  144.7849  140.5917  143.6580 LP  0  0  0  0  0  0  0  0  0  0  0  0  # atno 17320 bound_to 7965
  145.4931  139.1487  143.3698 LP  0  0  0  0  0  0  0  0  0  0  0  0  # atno 17321 bound_to 7965
  140.7115  143.7378  150.7575 LP  0  0  0  0  0  0  0  0  0  0  0  0  # atno 17342 bound_to 10162
  140.0918  143.4870  152.2474 LP  0  0  0  0  0  0  0  0  0  0  0  0  # atno 17343 bound_to 10162
  157.1995  131.0434  151.2658 LP  0  0  0  0  0  0  0  0  0  0  0  0  # atno 17370 bound_to 10713
  157.3988  130.7322  149.6752 LP  0  0  0  0  0  0  0  0  0  0  0  0  # atno 17371 bound_to 10713
  139.9083  134.8400  156.1623 LP  0  0  0  0  0  0  0  0  0  0  0  0  # atno 17394 bound_to 11000
  141.0612  133.6841  156.1956 LP  0  0  0  0  0  0  0  0  0  0  0  0  # atno 17395 bound_to 11000

$$$$
