AV-unprocessed.smi:1033|AV-procd|sdf|4512|dock1
  -GOLD-   22720 2523D 1   1.00000     0.00000
 Structure written by MMmdl.
 57 59  0  0  0  0  0  0  0  0  3 V2000
  153.6274  142.3437  160.1748 C   0  0  0  0  0  0  0  0  0  0  0  0
  152.5352  142.0156  159.1720 C   0  0  0  0  0  0  0  0  0  0  0  0
  152.1795  140.6645  158.9620 C   0  0  0  0  0  0  0  0  0  0  0  0
  151.1677  140.3170  158.0410 C   0  0  0  0  0  0  0  0  0  0  0  0
  150.6660  139.0781  157.6826 N   0  0  0  0  0  0  0  0  0  0  0  0
  149.7446  139.4109  156.7840 C   0  0  0  0  0  0  0  0  0  0  0  0
  149.6013  140.7209  156.5042 N   0  0  0  0  0  0  0  0  0  0  0  0
  148.6782  141.3172  155.5555 C   0  0  0  0  0  0  0  0  0  0  0  0
  148.6033  140.5363  154.2275 C   0  0  2  0  0  0  0  0  0  0  0  0
  149.7588  140.8476  153.4762 O   0  0  0  0  0  0  0  0  0  0  0  0
  147.3539  140.8753  153.3831 C   0  0  0  0  0  0  0  0  0  0  0  0
  146.1172  140.9864  154.1993 N   0  3  2  0  0  0  0  0  0  0  0  0
  145.9541  142.3392  154.7878 C   0  0  0  0  0  0  0  0  0  0  0  0
  144.6161  142.4598  155.5410 C   0  0  0  0  0  0  0  0  0  0  0  0
  144.4778  141.4192  156.5903 N   0  3  2  0  0  0  0  0  0  0  0  0
  145.2780  141.6977  157.8136 C   0  0  0  0  0  0  0  0  0  0  0  0
  144.6225  141.1413  159.0938 C   0  0  1  0  0  0  0  0  0  0  0  0
  144.5191  139.6111  159.0610 C   0  0  0  0  0  0  0  0  0  0  0  0
  145.4051  141.4966  160.2159 O   0  0  0  0  0  0  0  0  0  0  0  0
  144.6686  140.0592  156.0200 C   0  0  0  0  0  0  0  0  0  0  0  0
  145.9926  139.9295  155.2373 C   0  0  0  0  0  0  0  0  0  0  0  0
  150.5189  141.3664  157.3264 C   0  0  0  0  0  0  0  0  0  0  0  0
  150.8622  142.7149  157.5284 C   0  0  0  0  0  0  0  0  0  0  0  0
  151.8740  143.0444  158.4543 C   0  0  0  0  0  0  0  0  0  0  0  0
  152.2366  144.5034  158.6682 C   0  0  0  0  0  0  0  0  0  0  0  0
  154.0321  141.4406  160.6326 H   0  0  0  0  0  0  0  0  0  0  0  0
  153.2367  142.9759  160.9724 H   0  0  0  0  0  0  0  0  0  0  0  0
  154.4493  142.8683  159.6874 H   0  0  0  0  0  0  0  0  0  0  0  0
  152.6816  139.8807  159.5103 H   0  0  0  0  0  0  0  0  0  0  0  0
  149.1468  138.6571  156.2925 H   0  0  0  0  0  0  0  0  0  0  0  0
  147.6923  141.3687  156.0204 H   0  0  0  0  0  0  0  0  0  0  0  0
  148.9926  142.3464  155.3756 H   0  0  0  0  0  0  0  0  0  0  0  0
  148.6295  139.4718  154.4553 H   0  0  0  0  0  0  0  0  0  0  0  0
  149.8441  140.2160  152.7772 H   0  0  0  0  0  0  0  0  0  0  0  0
  147.4915  141.8068  152.8322 H   0  0  0  0  0  0  0  0  0  0  0  0
  147.2281  140.0945  152.6311 H   0  0  0  0  0  0  0  0  0  0  0  0
  146.7894  142.5510  155.4573 H   0  0  0  0  0  0  0  0  0  0  0  0
  145.9869  143.0894  153.9970 H   0  0  0  0  0  0  0  0  0  0  0  0
  144.5044  143.4551  155.9730 H   0  0  0  0  0  0  0  0  0  0  0  0
  143.7929  142.3444  154.8345 H   0  0  0  0  0  0  0  0  0  0  0  0
  146.2828  141.2914  157.6976 H   0  0  0  0  0  0  0  0  0  0  0  0
  145.4065  142.7746  157.9352 H   0  0  0  0  0  0  0  0  0  0  0  0
  143.6210  141.5479  159.2296 H   0  0  0  0  0  0  0  0  0  0  0  0
  143.9032  139.2785  158.2253 H   0  0  0  0  0  0  0  0  0  0  0  0
  144.0652  139.2275  159.9755 H   0  0  0  0  0  0  0  0  0  0  0  0
  145.5002  139.1462  158.9574 H   0  0  0  0  0  0  0  0  0  0  0  0
  145.1749  142.3702  160.4920 H   0  0  0  0  0  0  0  0  0  0  0  0
  144.6130  139.2981  156.7974 H   0  0  0  0  0  0  0  0  0  0  0  0
  143.8351  139.8585  155.3453 H   0  0  0  0  0  0  0  0  0  0  0  0
  146.0279  138.9426  154.7777 H   0  0  0  0  0  0  0  0  0  0  0  0
  146.8447  139.9822  155.9159 H   0  0  0  0  0  0  0  0  0  0  0  0
  150.3493  143.4905  156.9794 H   0  0  0  0  0  0  0  0  0  0  0  0
  151.6303  145.1603  158.0440 H   0  0  0  0  0  0  0  0  0  0  0  0
  153.2836  144.6772  158.4196 H   0  0  0  0  0  0  0  0  0  0  0  0
  152.0755  144.7886  159.7080 H   0  0  0  0  0  0  0  0  0  0  0  0
  143.5161  141.4717  156.8957 H   0  0  0  0  0  0  0  0  0  0  0  0
  145.3479  140.8640  153.5555 H   0  0  0  0  0  0  0  0  0  0  0  0
  1  2  1  0  0  0  0
  1 26  1  0  0  0  0
  1 27  1  0  0  0  0
  1 28  1  0  0  0  0
  2 24  1  0  0  0  0
  2  3  2  0  0  0  0
  3  4  1  0  0  0  0
  3 29  1  0  0  0  0
  4 22  2  0  0  0  0
  4  5  1  0  0  0  0
  5  6  2  0  0  0  0
  6  7  1  0  0  0  0
  6 30  1  0  0  0  0
  7  8  1  0  0  0  0
  7 22  1  0  0  0  0
  8  9  1  0  0  0  0
  8 31  1  0  0  0  0
  8 32  1  0  0  0  0
  9 10  1  0  0  0  0
  9 11  1  0  0  0  0
  9 33  1  0  0  0  0
 10 34  1  0  0  0  0
 11 12  1  0  0  0  0
 11 35  1  0  0  0  0
 11 36  1  0  0  0  0
 12 21  1  0  0  0  0
 12 13  1  0  0  0  0
 12 57  1  0  0  0  0
 13 14  1  0  0  0  0
 13 37  1  0  0  0  0
 13 38  1  0  0  0  0
 14 15  1  0  0  0  0
 14 39  1  0  0  0  0
 14 40  1  0  0  0  0
 15 16  1  0  0  0  0
 15 20  1  0  0  0  0
 15 56  1  0  0  0  0
 16 17  1  0  0  0  0
 16 41  1  0  0  0  0
 16 42  1  0  0  0  0
 17 18  1  0  0  0  0
 17 19  1  0  0  0  0
 17 43  1  0  0  0  0
 18 44  1  0  0  0  0
 18 45  1  0  0  0  0
 18 46  1  0  0  0  0
 19 47  1  0  0  0  0
 20 21  1  0  0  0  0
 20 48  1  0  0  0  0
 20 49  1  0  0  0  0
 21 50  1  0  0  0  0
 21 51  1  0  0  0  0
 22 23  1  0  0  0  0
 23 24  2  0  0  0  0
 23 52  1  0  0  0  0
 24 25  1  0  0  0  0
 25 53  1  0  0  0  0
 25 54  1  0  0  0  0
 25 55  1  0  0  0  0
M  CHG  1  12   1
M  CHG  1  15   1
M  END
> <s_m_source_file>
AV-unprocessed.smi

> <i_m_source_file_index>
1033

> <i_lp_mmshare_version>
43012

> <i_f3d_flags>
0

> <s_epik_input>
W0NIM11jKFtjSF0xKWMoW0NIM10pW2NIXWMoYzEyKW4oW2NIXW4yKVtDSDJdW0NASF0oW09IXSlbQ0gyXU4zW0NIMl1bQ0gyXU4oW0NIMl1bQ0gyXTMpW0NIMl1bQ0BIXShbQ0gzXSlbT0hd

> <s_epik_cmdline>
J2VwaWtfcHl0aG9uJywgJy1waCcsICc3LjAnLCAnLXRuJywgJzgnLCAnLW1hJywgJzIwMCcsICctbWV0YWxfYmluZGluZycsICctaW1hZScsICc8aW5maWxlLm1hZT4nLCAnLW9tYWUnLCAnPG91dGZpbGUubWFlPic=

> <r_epik_Ionization_Penalty>
3.16016

> <r_epik_Ionization_Penalty_Charging>
3.07679

> <r_epik_Ionization_Penalty_Neutral>
0.083365

> <r_epik_State_Penalty>
2.09701

> <r_epik_Charging_Adjusted_Penalty>
5.1738

> <i_epik_Tot_Q>
2

> <i_epik_Tot_abs_Q>
2

> <r_epik_Metal_State_Penalty>
2.02534

> <b_epik_Metal_Only>
0

> <s_lp_Force_Field>
OPLS_2005

> <r_lp_Energy>
31.6916

> <b_lp_Chiralities_Consistent>
1

> <s_lp_Variant>
AV-unprocessed.smi:1033-23

> <Gold.Version>
5.8.1

> <Gold.Id.Protein>
6NUR|6NUR_protein|mol2

> <Gold.PLP.Fitness>
55.9267

> <Gold.PLP.PLP>
-42.9967

> <Gold.PLP.part.hbond>
-4.2816

> <Gold.PLP.part.metal>
0.0000

> <Gold.PLP.part.buried>
-4.4865

> <Gold.PLP.part.nonpolar>
-33.6887

> <Gold.PLP.part.repulsive>
0.0000

> <Gold.PLP.ligand.clash>
0.0000

> <Gold.PLP.ligand.torsion>
1.0553

> <Gold.PLP.Chemscore.Hbond>
4.8704

> <Gold.PLP.Chemscore.CHOScore>
0.0000

> <Gold.PLP.Chemscore.Metal>
0.0000

> <Gold.Chemscore.Hbonds>
donor molecule, donor type, donor heavy atom, donor atom, acceptor molecule, acceptor atom, score
      L1  H    10    34       P1  7957  0.83
      L1  H    12    57       P1 10175  2.00
      P1  H  6934  6946       L1    19  1.00
      P1  H  7989  7998       L1    10  0.08
      P1  H  8011  8017       L1    10  0.75

> <Gold.PLP.Chemscore.Internal.Correction>
0.4293

> <Gold.Rescore>
     Score         DG    S(hbond)    S(metal)    S(lipo)     H(rot)  DE(clash)    DE(int)     intcor
     17.71     -20.04       3.03        0.00     106.60       3.14       0.11       2.22       ----

> <Gold.Chemscore.Fitness>
17.7110

> <Gold.Chemscore.DG>
-20.0439

> <Gold.Chemscore.ZeroCoef>
-5.4800

> <Gold.Chemscore.Hbond>
3.0313

> <Gold.Chemscore.Metal>
0.0000

> <Gold.Chemscore.Lipo>
106.6036

> <Gold.Chemscore.Internal_Hbond>
0.0000

> <Gold.Chemscore.DEClash>
0.1113

> <Gold.Chemscore.DEInternal>
2.2217

> <Gold.Chemscore.Rot>
3.1380

> <Gold.Chemscore.Internal.Correction>
   9.000000E+99

> <Gold.Chemscore.Hbonds>
donor molecule, donor type, donor heavy atom, donor atom, acceptor molecule, acceptor atom, score
      L1  H    10    34       P1  7957  0.83
      L1  H    12    57       P1 10175  0.78
      P1  H  6934  6946       L1    19  0.93
      P1  H  8011  8017       L1    10  0.09

> <Gold.Chemscore.Hbond.Weighted>
-10.1245

> <Gold.Chemscore.Metal.Weighted>
-0.0000

> <Gold.Chemscore.Lipo.Weighted>
-12.4726

> <Gold.Chemscore.Internal_Hbond.Weighted>
0.0000

> <Gold.Chemscore.DEClash.Weighted>
0.1113

> <Gold.Chemscore.DEInternal.Weighted>
2.2217

> <Gold.Chemscore.Rot.Weighted>
8.0332

> <Gold.Chemscore.Internal.Correction.Weighted>
   9.000000E+99

> <Gold.Protein.RotatedTorsions>
[ 6907 6896 6895 6894 ] final  -37.81 input  -60.11 | X-H torsion
[ 7974 7965 7964 7962 ] final  -94.14 input  175.53 | X-H torsion
[ 8008 7997 7996 7995 ] final  -97.52 input   59.86 | X-H torsion
[ 10167 10162 10161 10158 ] final   18.83 input  -65.29 | X-H torsion
[ 10718 10713 10712 10709 ] final   24.06 input   66.30 | X-H torsion
[ 10763 10752 10751 10750 ] final  -73.56 input  -60.55 | X-H torsion
[ 11005 11000 10999 10996 ] final  -33.87 input  -57.11 | X-H torsion

> <Gold.Protein.ActiveResidues>
 VAL166  LYS551  ARG553  GLY616  TRP617  ASP618  TYR619  PRO620  LYS621  CYS622 
 ASP623  PHE694  ASN695  SER759  ASP760  ASP761  ALA762  ILE779  LEU786  VAL792 
 PHE793  MET794  SER795  GLU796  ALA797  LYS798  CYS799  TRP800  GLU811  SER814 

> <Gold.Protein.RotatedAtoms>
  151.0101  134.9390  159.8001 H   0  0  0  0  0  0  0  0  0  0  0  0  # atno 6907 bound_to 6896
  152.5300  134.3040  159.9099 H   0  0  0  0  0  0  0  0  0  0  0  0  # atno 6908 bound_to 6896
  151.3046  133.4065  159.2676 H   0  0  0  0  0  0  0  0  0  0  0  0  # atno 6909 bound_to 6896
  145.3772  140.9513  143.2414 H   0  0  0  0  0  0  0  0  0  0  0  0  # atno 7974 bound_to 7965
  154.7889  140.0462  157.1185 H   0  0  0  0  0  0  0  0  0  0  0  0  # atno 8008 bound_to 7997
  154.9615  140.3078  155.5009 H   0  0  0  0  0  0  0  0  0  0  0  0  # atno 8009 bound_to 7997
  156.2947  140.2270  156.4701 H   0  0  0  0  0  0  0  0  0  0  0  0  # atno 8010 bound_to 7997
  140.5625  143.9312  150.6652 H   0  0  0  0  0  0  0  0  0  0  0  0  # atno 10167 bound_to 10162
  157.1746  130.6775  149.6090 H   0  0  0  0  0  0  0  0  0  0  0  0  # atno 10718 bound_to 10713
  154.4611  135.5893  153.6256 H   0  0  0  0  0  0  0  0  0  0  0  0  # atno 10763 bound_to 10752
  152.9823  135.6044  154.3485 H   0  0  0  0  0  0  0  0  0  0  0  0  # atno 10764 bound_to 10752
  154.3357  135.2842  155.2428 H   0  0  0  0  0  0  0  0  0  0  0  0  # atno 10765 bound_to 10752
  140.9670  133.7131  156.1461 H   0  0  0  0  0  0  0  0  0  0  0  0  # atno 11005 bound_to 11000
  144.8534  139.5287  143.6846 LP  0  0  0  0  0  0  0  0  0  0  0  0  # atno 17320 bound_to 7965
  146.2859  139.7002  142.9196 LP  0  0  0  0  0  0  0  0  0  0  0  0  # atno 17321 bound_to 7965
  140.2766  143.3418  152.1189 LP  0  0  0  0  0  0  0  0  0  0  0  0  # atno 17342 bound_to 10162
  139.5077  144.6836  151.5945 LP  0  0  0  0  0  0  0  0  0  0  0  0  # atno 17343 bound_to 10162
  155.9733  130.4667  150.6300 LP  0  0  0  0  0  0  0  0  0  0  0  0  # atno 17370 bound_to 10713
  157.4011  131.0810  151.1307 LP  0  0  0  0  0  0  0  0  0  0  0  0  # atno 17371 bound_to 10713
  140.7385  134.4176  157.5557 LP  0  0  0  0  0  0  0  0  0  0  0  0  # atno 17394 bound_to 11000
  139.8898  134.8821  156.2402 LP  0  0  0  0  0  0  0  0  0  0  0  0  # atno 17395 bound_to 11000

$$$$
