AV-unprocessed.smi:93|AV-procd|sdf|849|dock4
  -GOLD-   2262017293D 1   1.00000     0.00000
 Structure written by MMmdl.
 50 52  0  0  0  0  0  0  0  0  1 V2000
  142.7454  135.0149  153.0068 C   0  0  0  0  0  0  0  0  0  0  0  0
  144.1946  135.1023  153.1504 N   0  0  0  0  0  0  0  0  0  0  0  0
  145.0386  134.0228  152.6215 C   0  0  0  0  0  0  0  0  0  0  0  0
  144.6679  133.5331  151.1885 C   0  0  0  0  0  0  0  0  0  0  0  0
  143.3762  132.6833  151.2104 C   0  0  0  0  0  0  0  0  0  0  0  0
  144.4508  134.7834  150.2945 C   0  0  0  0  0  0  0  0  0  0  0  0
  143.8336  134.4694  149.0610 O   0  0  0  0  0  0  0  0  0  0  0  0
  145.8331  132.6923  150.6014 C   0  0  0  0  0  0  0  0  0  0  0  0
  147.1055  133.1669  150.9966 O   0  0  0  0  0  0  0  0  0  0  0  0
  144.7347  136.1578  153.8213 C   0  0  0  0  0  0  0  0  0  0  0  0
  144.5714  136.2278  155.1692 N   0  0  0  0  0  0  0  0  0  0  0  0
  145.0894  137.2393  155.8700 C   0  0  0  0  0  0  0  0  0  0  0  0
  145.8037  138.2759  155.4319 N   0  0  0  0  0  0  0  0  0  0  0  0
  145.9818  138.2163  154.0817 C   0  0  0  0  0  0  0  0  0  0  0  0
  145.4822  137.2081  153.2062 C   0  0  0  0  0  0  0  0  0  0  0  0
  145.8759  137.4925  151.9024 N   0  0  0  0  0  0  0  0  0  0  0  0
  146.5584  138.5994  152.0011 C   0  0  0  0  0  0  0  0  0  0  0  0
  146.6840  139.0974  153.2773 N   0  0  0  0  0  0  0  0  0  0  0  0
  147.3990  140.3007  153.6758 C   0  0  0  0  0  0  0  0  0  0  0  0
  148.6748  140.0138  154.5027 C   0  0  1  0  0  0  0  0  0  0  0  0
  149.5682  139.2436  153.7162 O   0  0  0  0  0  0  0  0  0  0  0  0
  149.3966  141.2807  154.9428 C   0  0  0  0  0  0  0  0  0  0  0  0
  150.0964  140.8396  156.2211 C   0  0  0  0  0  0  0  0  0  0  0  0
  149.1329  140.0040  156.8401 O   0  0  0  0  0  0  0  0  0  0  0  0
  148.4342  139.2738  155.8354 C   0  0  0  0  0  0  0  0  0  0  0  0
  142.2467  135.2856  153.9380 H   0  0  0  0  0  0  0  0  0  0  0  0
  142.4353  134.0019  152.7504 H   0  0  0  0  0  0  0  0  0  0  0  0
  142.3931  135.6796  152.2183 H   0  0  0  0  0  0  0  0  0  0  0  0
  146.0889  134.3108  152.6623 H   0  0  0  0  0  0  0  0  0  0  0  0
  144.9652  133.1784  153.3074 H   0  0  0  0  0  0  0  0  0  0  0  0
  143.0394  132.4423  150.2019 H   0  0  0  0  0  0  0  0  0  0  0  0
  142.5595  133.2077  151.7070 H   0  0  0  0  0  0  0  0  0  0  0  0
  143.5243  131.7383  151.7329 H   0  0  0  0  0  0  0  0  0  0  0  0
  143.8310  135.5176  150.8101 H   0  0  0  0  0  0  0  0  0  0  0  0
  145.3979  135.2758  150.0717 H   0  0  0  0  0  0  0  0  0  0  0  0
  142.9073  134.3561  149.2091 H   0  0  0  0  0  0  0  0  0  0  0  0
  145.7449  131.6488  150.9058 H   0  0  0  0  0  0  0  0  0  0  0  0
  145.8113  132.7082  149.5119 H   0  0  0  0  0  0  0  0  0  0  0  0
  147.7451  132.4939  150.8202 H   0  0  0  0  0  0  0  0  0  0  0  0
  144.9067  137.2123  156.9341 H   0  0  0  0  0  0  0  0  0  0  0  0
  147.0011  139.0810  151.1411 H   0  0  0  0  0  0  0  0  0  0  0  0
  147.6499  140.8634  152.7756 H   0  0  0  0  0  0  0  0  0  0  0  0
  146.7158  140.9305  154.2470 H   0  0  0  0  0  0  0  0  0  0  0  0
  149.5195  139.5487  152.8232 H   0  0  0  0  0  0  0  0  0  0  0  0
  150.0812  141.6808  154.1935 H   0  0  0  0  0  0  0  0  0  0  0  0
  148.6754  142.0625  155.1849 H   0  0  0  0  0  0  0  0  0  0  0  0
  150.9938  140.2607  155.9974 H   0  0  0  0  0  0  0  0  0  0  0  0
  150.3748  141.6760  156.8621 H   0  0  0  0  0  0  0  0  0  0  0  0
  147.3809  139.2546  156.1125 H   0  0  0  0  0  0  0  0  0  0  0  0
  148.7824  138.2403  155.8056 H   0  0  0  0  0  0  0  0  0  0  0  0
  1  2  1  0  0  0  0
  1 26  1  0  0  0  0
  1 27  1  0  0  0  0
  1 28  1  0  0  0  0
  2  3  1  0  0  0  0
  2 10  1  0  0  0  0
  3  4  1  0  0  0  0
  3 29  1  0  0  0  0
  3 30  1  0  0  0  0
  4  5  1  0  0  0  0
  4  6  1  0  0  0  0
  4  8  1  0  0  0  0
  5 31  1  0  0  0  0
  5 32  1  0  0  0  0
  5 33  1  0  0  0  0
  6  7  1  0  0  0  0
  6 34  1  0  0  0  0
  6 35  1  0  0  0  0
  7 36  1  0  0  0  0
  8  9  1  0  0  0  0
  8 37  1  0  0  0  0
  8 38  1  0  0  0  0
  9 39  1  0  0  0  0
 10 15  1  0  0  0  0
 10 11  2  0  0  0  0
 11 12  1  0  0  0  0
 12 13  2  0  0  0  0
 12 40  1  0  0  0  0
 13 14  1  0  0  0  0
 14 18  1  0  0  0  0
 14 15  2  0  0  0  0
 15 16  1  0  0  0  0
 16 17  2  0  0  0  0
 17 18  1  0  0  0  0
 17 41  1  0  0  0  0
 18 19  1  0  0  0  0
 19 20  1  0  0  0  0
 19 42  1  0  0  0  0
 19 43  1  0  0  0  0
 20 25  1  0  0  0  0
 20 21  1  0  0  0  0
 20 22  1  0  0  0  0
 21 44  1  0  0  0  0
 22 23  1  0  0  0  0
 22 45  1  0  0  0  0
 22 46  1  0  0  0  0
 23 24  1  0  0  0  0
 23 47  1  0  0  0  0
 23 48  1  0  0  0  0
 24 25  1  0  0  0  0
 25 49  1  0  0  0  0
 25 50  1  0  0  0  0
M  END
> <s_m_source_file>
AV-unprocessed.smi

> <i_m_source_file_index>
93

> <i_lp_mmshare_version>
43012

> <i_f3d_flags>
0

> <s_epik_input>
W09IXVtDSDJdQyhbQ0gzXSkoW0NIMl1bT0hdKVtDSDJdTihbQ0gzXSljKG5bY0hdbjEpYyhjMTIpbltjSF1uMltDSDJdW0NAQF0zKFtPSF0pW0NIMl1bQ0gyXU9bQ0gyXTM=

> <s_epik_cmdline>
J2VwaWtfcHl0aG9uJywgJy1waCcsICc3LjAnLCAnLXRuJywgJzgnLCAnLW1hJywgJzIwMCcsICctbWV0YWxfYmluZGluZycsICctaW1hZScsICc8aW5maWxlLm1hZT4nLCAnLW9tYWUnLCAnPG91dGZpbGUubWFlPic=

> <r_lp_tautomer_probability>
1

> <r_epik_Ionization_Penalty>
0.00325397

> <r_epik_Ionization_Penalty_Charging>
0

> <r_epik_Ionization_Penalty_Neutral>
0.00325397

> <r_epik_State_Penalty>
0.00225047

> <r_epik_Charging_Adjusted_Penalty>
0.00225047

> <i_epik_Tot_Q>
0

> <i_epik_Tot_abs_Q>
0

> <r_epik_Metal_State_Penalty>
-0

> <b_epik_Metal_Only>
0

> <s_lp_Force_Field>
OPLS_2005

> <r_lp_Energy>
39.2325

> <b_lp_Chiralities_Consistent>
1

> <s_lp_Variant>
AV-unprocessed.smi:93-1

> <Gold.Version>
5.8.1

> <Gold.Id.Protein>
6NUR|6NUR_protein|mol2

> <Gold.PLP.Fitness>
43.4831

> <Gold.PLP.PLP>
-36.5848

> <Gold.PLP.part.hbond>
-4.0000

> <Gold.PLP.part.metal>
0.0000

> <Gold.PLP.part.buried>
-3.4663

> <Gold.PLP.part.nonpolar>
-29.9446

> <Gold.PLP.part.repulsive>
0.6889

> <Gold.PLP.ligand.clash>
0.0000

> <Gold.PLP.ligand.torsion>
2.2951

> <Gold.PLP.Chemscore.Hbond>
3.0000

> <Gold.PLP.Chemscore.CHOScore>
0.6451

> <Gold.PLP.Chemscore.Metal>
0.0000

> <Gold.Chemscore.Hbonds>
donor molecule, donor type, donor heavy atom, donor atom, acceptor molecule, acceptor atom, score
      L1  H     7    36       P1 10186  1.00
      L1  H     9    39       P1 10747  0.80
      L1  H    21    44       P1  7957  1.00
      L1  C    17    41       P1  7957  0.45

> <Gold.PLP.Chemscore.Internal.Correction>
0.5532

> <Gold.Rescore>
     Score         DG    S(hbond)    S(metal)    S(lipo)     H(rot)  DE(clash)    DE(int)     intcor
      7.12     -12.26       2.98        0.00      73.62       4.60       0.37       4.77       ----

> <Gold.Chemscore.Fitness>
7.1202

> <Gold.Chemscore.DG>
-12.2577

> <Gold.Chemscore.ZeroCoef>
-5.4800

> <Gold.Chemscore.Hbond>
2.9770

> <Gold.Chemscore.Metal>
0.0000

> <Gold.Chemscore.Lipo>
73.6178

> <Gold.Chemscore.Internal_Hbond>
0.0000

> <Gold.Chemscore.DEClash>
0.3724

> <Gold.Chemscore.DEInternal>
4.7651

> <Gold.Chemscore.Rot>
4.6010

> <Gold.Chemscore.Internal.Correction>
   9.000000E+99

> <Gold.Chemscore.Hbonds>
donor molecule, donor type, donor heavy atom, donor atom, acceptor molecule, acceptor atom, score
      L1  H     7    36       P1 10186  1.00
      L1  H     9    39       P1 10747  0.79
      L1  H    21    44       P1  7957  1.00

> <Gold.Chemscore.Hbond.Weighted>
-9.9431

> <Gold.Chemscore.Metal.Weighted>
-0.0000

> <Gold.Chemscore.Lipo.Weighted>
-8.6133

> <Gold.Chemscore.Internal_Hbond.Weighted>
0.0000

> <Gold.Chemscore.DEClash.Weighted>
0.3724

> <Gold.Chemscore.DEInternal.Weighted>
4.7651

> <Gold.Chemscore.Rot.Weighted>
11.7787

> <Gold.Chemscore.Internal.Correction.Weighted>
   9.000000E+99

> <Gold.Protein.RotatedTorsions>
[ 6907 6896 6895 6894 ] final -174.61 input  -60.11 | X-H torsion
[ 7974 7965 7964 7962 ] final   56.67 input  175.53 | X-H torsion
[ 8008 7997 7996 7995 ] final   79.05 input   59.86 | X-H torsion
[ 10167 10162 10161 10158 ] final  125.23 input  -65.29 | X-H torsion
[ 10718 10713 10712 10709 ] final  167.47 input   66.30 | X-H torsion
[ 10763 10752 10751 10750 ] final   43.82 input  -60.55 | X-H torsion
[ 11005 11000 10999 10996 ] final  161.95 input  -57.11 | X-H torsion

> <Gold.Protein.ActiveResidues>
 VAL166  LYS551  ARG553  GLY616  TRP617  ASP618  TYR619  PRO620  LYS621  CYS622 
 ASP623  PHE694  ASN695  SER759  ASP760  ASP761  ALA762  ILE779  LEU786  VAL792 
 PHE793  MET794  SER795  GLU796  ALA797  LYS798  CYS799  TRP800  GLU811  SER814 

> <Gold.Protein.RotatedAtoms>
  151.5752  133.3385  159.2997 H   0  0  0  0  0  0  0  0  0  0  0  0  # atno 6907 bound_to 6896
  150.8345  134.7615  159.6892 H   0  0  0  0  0  0  0  0  0  0  0  0  # atno 6908 bound_to 6896
  152.4423  134.5572  159.9935 H   0  0  0  0  0  0  0  0  0  0  0  0  # atno 6909 bound_to 6896
  145.9373  139.3858  143.0385 H   0  0  0  0  0  0  0  0  0  0  0  0  # atno 7974 bound_to 7965
  155.8642  140.3452  155.5777 H   0  0  0  0  0  0  0  0  0  0  0  0  # atno 8008 bound_to 7997
  155.7899  140.0870  157.2034 H   0  0  0  0  0  0  0  0  0  0  0  0  # atno 8009 bound_to 7997
  154.4013  140.1485  156.3138 H   0  0  0  0  0  0  0  0  0  0  0  0  # atno 8010 bound_to 7997
  139.5697  144.6932  151.3812 H   0  0  0  0  0  0  0  0  0  0  0  0  # atno 10167 bound_to 10162
  157.0510  131.0313  151.2680 H   0  0  0  0  0  0  0  0  0  0  0  0  # atno 10718 bound_to 10713
  152.9853  135.6089  154.3174 H   0  0  0  0  0  0  0  0  0  0  0  0  # atno 10763 bound_to 10752
  154.2886  135.2775  155.2667 H   0  0  0  0  0  0  0  0  0  0  0  0  # atno 10764 bound_to 10752
  154.4973  135.5876  153.6560 H   0  0  0  0  0  0  0  0  0  0  0  0  # atno 10765 bound_to 10752
  140.2209  134.8197  157.3219 H   0  0  0  0  0  0  0  0  0  0  0  0  # atno 11005 bound_to 11000
  145.8347  140.9612  143.0830 LP  0  0  0  0  0  0  0  0  0  0  0  0  # atno 17320 bound_to 7965
  144.6773  140.0207  143.7484 LP  0  0  0  0  0  0  0  0  0  0  0  0  # atno 17321 bound_to 7965
  140.6981  143.7698  150.7359 LP  0  0  0  0  0  0  0  0  0  0  0  0  # atno 17342 bound_to 10162
  140.1201  143.4620  152.2318 LP  0  0  0  0  0  0  0  0  0  0  0  0  # atno 17343 bound_to 10162
  157.5030  130.7891  149.7624 LP  0  0  0  0  0  0  0  0  0  0  0  0  # atno 17370 bound_to 10713
  156.0007  130.3881  150.2616 LP  0  0  0  0  0  0  0  0  0  0  0  0  # atno 17371 bound_to 10713
  140.1851  134.4442  155.7749 LP  0  0  0  0  0  0  0  0  0  0  0  0  # atno 17394 bound_to 11000
  141.2223  133.7001  156.7933 LP  0  0  0  0  0  0  0  0  0  0  0  0  # atno 17395 bound_to 11000

$$$$
