AV-unprocessed.smi:155|AV-procd|sdf|1275|dock2
  -GOLD-   2262018533D 1   1.00000     0.00000
 Structure written by MMmdl.
 63 66  0  0  0  0  0  0  0  0  2 V2000
  146.4206  130.3075  152.3150 C   0  0  0  0  0  0  0  0  0  0  0  0
  146.5335  131.6388  151.6768 N   0  3  0  0  0  0  0  0  0  0  0  0
  145.3171  131.9734  150.9036 C   0  0  0  0  0  0  0  0  0  0  0  0
  146.9063  132.7216  152.6224 C   0  0  0  0  0  0  0  0  0  0  0  0
  148.2732  132.4852  153.3061 C   0  0  0  0  0  0  0  0  0  0  0  0
  148.6250  133.5447  154.2550 N   0  0  0  0  0  0  0  0  0  0  0  0
  147.7899  133.4745  155.4614 C   0  0  0  0  0  0  0  0  0  0  0  0
  148.2342  134.3481  156.6554 C   0  0  0  0  0  0  0  0  0  0  0  0
  148.8374  135.7146  156.3008 C   0  0  0  0  0  0  0  0  0  0  0  0
  150.2479  135.5925  155.9443 N   0  0  0  0  0  0  0  0  0  0  0  0
  150.9497  136.7244  156.1629 C   0  0  0  0  0  0  0  0  0  0  0  0
  152.2733  136.6532  156.4627 N   0  0  0  0  0  0  0  0  0  0  0  0
  152.9680  137.7761  156.6717 C   0  0  0  0  0  0  0  0  0  0  0  0
  152.5437  139.0418  156.6290 N   0  0  0  0  0  0  0  0  0  0  0  0
  151.2150  139.1098  156.3253 C   0  0  0  0  0  0  0  0  0  0  0  0
  150.3505  138.0075  156.0809 C   0  0  0  0  0  0  0  0  0  0  0  0
  149.0665  138.4573  155.8025 N   0  0  0  0  0  0  0  0  0  0  0  0
  149.1676  139.7572  155.8700 C   0  0  0  0  0  0  0  0  0  0  0  0
  150.4245  140.2348  156.1676 N   0  0  0  0  0  0  0  0  0  0  0  0
  150.8209  141.6275  156.2907 C   0  0  0  0  0  0  0  0  0  0  0  0
  150.5003  142.2546  157.6661 C   0  0  2  0  0  0  0  0  0  0  0  0
  149.2385  142.8931  157.6461 O   0  0  0  0  0  0  0  0  0  0  0  0
  151.5779  143.2158  158.2171 C   0  0  2  0  0  0  0  0  0  0  0  0
  151.3036  143.8158  159.5955 C   0  0  0  0  0  0  0  0  0  0  0  0
  152.2121  145.0354  159.6212 C   0  0  0  0  0  0  0  0  0  0  0  0
  152.5507  145.2892  158.1469 C   0  0  0  0  0  0  0  0  0  0  0  0
  151.7629  144.3660  157.4077 O   0  0  0  0  0  0  0  0  0  0  0  0
  150.5719  134.9573  154.6723 C   0  0  0  0  0  0  0  0  0  0  0  0
  150.0534  133.5127  154.5693 C   0  0  0  0  0  0  0  0  0  0  0  0
  145.6676  130.3126  153.1043 H   0  0  0  0  0  0  0  0  0  0  0  0
  147.3700  129.9933  152.7453 H   0  0  0  0  0  0  0  0  0  0  0  0
  146.1374  129.5522  151.5810 H   0  0  0  0  0  0  0  0  0  0  0  0
  144.4531  132.0799  151.5609 H   0  0  0  0  0  0  0  0  0  0  0  0
  145.0964  131.1948  150.1726 H   0  0  0  0  0  0  0  0  0  0  0  0
  145.4491  132.9078  150.3569 H   0  0  0  0  0  0  0  0  0  0  0  0
  146.9732  133.6622  152.0734 H   0  0  0  0  0  0  0  0  0  0  0  0
  146.0998  132.8683  153.3419 H   0  0  0  0  0  0  0  0  0  0  0  0
  148.3196  131.5146  153.8017 H   0  0  0  0  0  0  0  0  0  0  0  0
  149.0217  132.4464  152.5134 H   0  0  0  0  0  0  0  0  0  0  0  0
  146.7730  133.7565  155.1909 H   0  0  0  0  0  0  0  0  0  0  0  0
  147.7422  132.4427  155.8103 H   0  0  0  0  0  0  0  0  0  0  0  0
  147.3621  134.5062  157.2905 H   0  0  0  0  0  0  0  0  0  0  0  0
  148.9406  133.7957  157.2768 H   0  0  0  0  0  0  0  0  0  0  0  0
  148.2781  136.1875  155.4922 H   0  0  0  0  0  0  0  0  0  0  0  0
  148.7475  136.3703  157.1687 H   0  0  0  0  0  0  0  0  0  0  0  0
  154.0136  137.6416  156.9056 H   0  0  0  0  0  0  0  0  0  0  0  0
  148.3237  140.4091  155.6961 H   0  0  0  0  0  0  0  0  0  0  0  0
  151.8907  141.6958  156.0890 H   0  0  0  0  0  0  0  0  0  0  0  0
  150.3274  142.1969  155.5022 H   0  0  0  0  0  0  0  0  0  0  0  0
  150.4070  141.4313  158.3751 H   0  0  0  0  0  0  0  0  0  0  0  0
  149.0978  143.2414  156.7789 H   0  0  0  0  0  0  0  0  0  0  0  0
  152.5303  142.6829  158.2534 H   0  0  0  0  0  0  0  0  0  0  0  0
  150.2654  144.1384  159.6813 H   0  0  0  0  0  0  0  0  0  0  0  0
  151.5070  143.1171  160.4073 H   0  0  0  0  0  0  0  0  0  0  0  0
  151.7125  145.8901  160.0784 H   0  0  0  0  0  0  0  0  0  0  0  0
  153.1213  144.8353  160.1893 H   0  0  0  0  0  0  0  0  0  0  0  0
  152.3358  146.3125  157.8386 H   0  0  0  0  0  0  0  0  0  0  0  0
  153.6066  145.0921  157.9560 H   0  0  0  0  0  0  0  0  0  0  0  0
  150.1939  135.5596  153.8444 H   0  0  0  0  0  0  0  0  0  0  0  0
  151.6582  134.9394  154.5688 H   0  0  0  0  0  0  0  0  0  0  0  0
  150.2731  132.9195  155.4584 H   0  0  0  0  0  0  0  0  0  0  0  0
  150.6025  133.0437  153.7524 H   0  0  0  0  0  0  0  0  0  0  0  0
  147.2831  131.5763  151.0025 H   0  0  0  0  0  0  0  0  0  0  0  0
  1  2  1  0  0  0  0
  1 30  1  0  0  0  0
  1 31  1  0  0  0  0
  1 32  1  0  0  0  0
  2  3  1  0  0  0  0
  2  4  1  0  0  0  0
  2 63  1  0  0  0  0
  3 33  1  0  0  0  0
  3 34  1  0  0  0  0
  3 35  1  0  0  0  0
  4  5  1  0  0  0  0
  4 36  1  0  0  0  0
  4 37  1  0  0  0  0
  5  6  1  0  0  0  0
  5 38  1  0  0  0  0
  5 39  1  0  0  0  0
  6 29  1  0  0  0  0
  6  7  1  0  0  0  0
  7  8  1  0  0  0  0
  7 40  1  0  0  0  0
  7 41  1  0  0  0  0
  8  9  1  0  0  0  0
  8 42  1  0  0  0  0
  8 43  1  0  0  0  0
  9 10  1  0  0  0  0
  9 44  1  0  0  0  0
  9 45  1  0  0  0  0
 10 11  1  0  0  0  0
 10 28  1  0  0  0  0
 11 16  1  0  0  0  0
 11 12  2  0  0  0  0
 12 13  1  0  0  0  0
 13 14  2  0  0  0  0
 13 46  1  0  0  0  0
 14 15  1  0  0  0  0
 15 19  1  0  0  0  0
 15 16  2  0  0  0  0
 16 17  1  0  0  0  0
 17 18  2  0  0  0  0
 18 19  1  0  0  0  0
 18 47  1  0  0  0  0
 19 20  1  0  0  0  0
 20 21  1  0  0  0  0
 20 48  1  0  0  0  0
 20 49  1  0  0  0  0
 21 22  1  0  0  0  0
 21 23  1  0  0  0  0
 21 50  1  0  0  0  0
 22 51  1  0  0  0  0
 23 27  1  0  0  0  0
 23 24  1  0  0  0  0
 23 52  1  0  0  0  0
 24 25  1  0  0  0  0
 24 53  1  0  0  0  0
 24 54  1  0  0  0  0
 25 26  1  0  0  0  0
 25 55  1  0  0  0  0
 25 56  1  0  0  0  0
 26 27  1  0  0  0  0
 26 57  1  0  0  0  0
 26 58  1  0  0  0  0
 28 29  1  0  0  0  0
 28 59  1  0  0  0  0
 28 60  1  0  0  0  0
 29 61  1  0  0  0  0
 29 62  1  0  0  0  0
M  CHG  1   2   1
M  END
> <s_m_source_file>
AV-unprocessed.smi

> <i_m_source_file_index>
155

> <i_lp_mmshare_version>
43012

> <i_f3d_flags>
0

> <s_epik_input>
W0NIM11OKFtDSDNdKVtDSDJdW0NIMl1OMVtDSDJdW0NIMl1bQ0gyXU4oW0NIMl1bQ0gyXTEpYyhuW2NIXW4yKWMoYzIzKW5bY0hdbjNbQ0gyXVtDQEhdKFtPSF0pW0NAQEhdNFtDSDJdW0NIMl1bQ0gyXU80

> <s_epik_cmdline>
J2VwaWtfcHl0aG9uJywgJy1waCcsICc3LjAnLCAnLXRuJywgJzgnLCAnLW1hJywgJzIwMCcsICctbWV0YWxfYmluZGluZycsICctaW1hZScsICc8aW5maWxlLm1hZT4nLCAnLW9tYWUnLCAnPG91dGZpbGUubWFlPic=

> <r_lp_tautomer_probability>
1

> <r_epik_Ionization_Penalty>
0.0599493

> <r_epik_Ionization_Penalty_Charging>
0.00816363

> <r_epik_Ionization_Penalty_Neutral>
0.0517857

> <r_epik_State_Penalty>
0.460607

> <r_epik_Charging_Adjusted_Penalty>
0.468771

> <i_epik_Tot_Q>
1

> <i_epik_Tot_abs_Q>
1

> <r_epik_Metal_State_Penalty>
0.45965

> <b_epik_Metal_Only>
0

> <s_lp_Force_Field>
OPLS_2005

> <r_lp_Energy>
61.9788

> <b_lp_Chiralities_Consistent>
1

> <s_lp_Variant>
AV-unprocessed.smi:155-9

> <Gold.Version>
5.8.1

> <Gold.Id.Protein>
6NUR|6NUR_protein|mol2

> <Gold.PLP.Fitness>
48.6986

> <Gold.PLP.PLP>
-39.6166

> <Gold.PLP.part.hbond>
-3.8308

> <Gold.PLP.part.metal>
0.0000

> <Gold.PLP.part.buried>
-7.8903

> <Gold.PLP.part.nonpolar>
-27.5404

> <Gold.PLP.part.repulsive>
0.3276

> <Gold.PLP.ligand.clash>
0.0000

> <Gold.PLP.ligand.torsion>
1.4503

> <Gold.PLP.Chemscore.Hbond>
3.8698

> <Gold.PLP.Chemscore.CHOScore>
0.0000

> <Gold.PLP.Chemscore.Metal>
0.0000

> <Gold.Chemscore.Hbonds>
donor molecule, donor type, donor heavy atom, donor atom, acceptor molecule, acceptor atom, score
      L1  H     2    63       P1 10747  1.00
      L1  H    22    51       P1  8028  0.98
      P1  H  7997  8009       L1    14  0.84
      P1  H 10752 10765       L1    12  0.99

> <Gold.PLP.Chemscore.Internal.Correction>
0.3733

> <Gold.Rescore>
     Score         DG    S(hbond)    S(metal)    S(lipo)     H(rot)  DE(clash)    DE(int)     intcor
     16.50     -19.59       2.54        0.00     113.37       2.99       0.25       2.84       ----

> <Gold.Chemscore.Fitness>
16.5031

> <Gold.Chemscore.DG>
-19.5897

> <Gold.Chemscore.ZeroCoef>
-5.4800

> <Gold.Chemscore.Hbond>
2.5421

> <Gold.Chemscore.Metal>
0.0000

> <Gold.Chemscore.Lipo>
113.3661

> <Gold.Chemscore.Internal_Hbond>
0.0000

> <Gold.Chemscore.DEClash>
0.2472

> <Gold.Chemscore.DEInternal>
2.8394

> <Gold.Chemscore.Rot>
2.9862

> <Gold.Chemscore.Internal.Correction>
   9.000000E+99

> <Gold.Chemscore.Hbonds>
donor molecule, donor type, donor heavy atom, donor atom, acceptor molecule, acceptor atom, score
      L1  H     2    63       P1 10747  0.96
      L1  H    22    51       P1  8028  0.88
      P1  H  7997  8009       L1    14  0.29
      P1  H 10752 10765       L1    12  0.43

> <Gold.Chemscore.Hbond.Weighted>
-8.4906

> <Gold.Chemscore.Metal.Weighted>
-0.0000

> <Gold.Chemscore.Lipo.Weighted>
-13.2638

> <Gold.Chemscore.Internal_Hbond.Weighted>
0.0000

> <Gold.Chemscore.DEClash.Weighted>
0.2472

> <Gold.Chemscore.DEInternal.Weighted>
2.8394

> <Gold.Chemscore.Rot.Weighted>
7.6448

> <Gold.Chemscore.Internal.Correction.Weighted>
   9.000000E+99

> <Gold.Protein.RotatedTorsions>
[ 6907 6896 6895 6894 ] final  -50.85 input  -60.11 | X-H torsion
[ 7974 7965 7964 7962 ] final  145.78 input  175.53 | X-H torsion
[ 8008 7997 7996 7995 ] final -171.51 input   59.86 | X-H torsion
[ 10167 10162 10161 10158 ] final  -14.73 input  -65.29 | X-H torsion
[ 10718 10713 10712 10709 ] final -155.73 input   66.30 | X-H torsion
[ 10763 10752 10751 10750 ] final -153.34 input  -60.55 | X-H torsion
[ 11005 11000 10999 10996 ] final   35.67 input  -57.11 | X-H torsion

> <Gold.Protein.ActiveResidues>
 VAL166  LYS551  ARG553  GLY616  TRP617  ASP618  TYR619  PRO620  LYS621  CYS622 
 ASP623  PHE694  ASN695  SER759  ASP760  ASP761  ALA762  ILE779  LEU786  VAL792 
 PHE793  MET794  SER795  GLU796  ALA797  LYS798  CYS799  TRP800  GLU811  SER814 

> <Gold.Protein.RotatedAtoms>
  150.8667  134.8032  159.7123 H   0  0  0  0  0  0  0  0  0  0  0  0  # atno 6907 bound_to 6896
  152.4686  134.5012  159.9735 H   0  0  0  0  0  0  0  0  0  0  0  0  # atno 6908 bound_to 6896
  151.5107  133.3447  159.2920 H   0  0  0  0  0  0  0  0  0  0  0  0  # atno 6909 bound_to 6896
  144.8724  139.5825  143.5880 H   0  0  0  0  0  0  0  0  0  0  0  0  # atno 7974 bound_to 7965
  155.9324  140.1093  157.1121 H   0  0  0  0  0  0  0  0  0  0  0  0  # atno 8008 bound_to 7997
  154.4073  140.1235  156.4886 H   0  0  0  0  0  0  0  0  0  0  0  0  # atno 8009 bound_to 7997
  155.7063  140.3471  155.4957 H   0  0  0  0  0  0  0  0  0  0  0  0  # atno 8010 bound_to 7997
  140.7206  143.5291  150.9541 H   0  0  0  0  0  0  0  0  0  0  0  0  # atno 10167 bound_to 10162
  156.5168  130.8460  151.2667 H   0  0  0  0  0  0  0  0  0  0  0  0  # atno 10718 bound_to 10713
  154.7934  135.3215  154.7724 H   0  0  0  0  0  0  0  0  0  0  0  0  # atno 10763 bound_to 10752
  153.8408  135.6871  153.4807 H   0  0  0  0  0  0  0  0  0  0  0  0  # atno 10764 bound_to 10752
  153.1614  135.4659  154.9719 H   0  0  0  0  0  0  0  0  0  0  0  0  # atno 10765 bound_to 10752
  140.2403  134.3422  155.7928 H   0  0  0  0  0  0  0  0  0  0  0  0  # atno 11005 bound_to 11000
  146.2940  139.7221  142.9140 LP  0  0  0  0  0  0  0  0  0  0  0  0  # atno 17320 bound_to 7965
  145.4105  141.0396  143.3020 LP  0  0  0  0  0  0  0  0  0  0  0  0  # atno 17321 bound_to 7965
  139.9011  143.6835  152.3131 LP  0  0  0  0  0  0  0  0  0  0  0  0  # atno 17342 bound_to 10162
  139.7185  144.7607  151.0995 LP  0  0  0  0  0  0  0  0  0  0  0  0  # atno 17343 bound_to 10162
  157.7443  130.9931  150.2659 LP  0  0  0  0  0  0  0  0  0  0  0  0  # atno 17370 bound_to 10713
  156.3187  130.3782  149.7594 LP  0  0  0  0  0  0  0  0  0  0  0  0  # atno 17371 bound_to 10713
  141.2211  133.7295  156.8875 LP  0  0  0  0  0  0  0  0  0  0  0  0  # atno 17394 bound_to 11000
  140.1660  134.9133  157.2774 LP  0  0  0  0  0  0  0  0  0  0  0  0  # atno 17395 bound_to 11000

$$$$
