AV-unprocessed.smi:3230|AV-procd|sdf|12330|dock2
  -GOLD-   2272018183D 1   1.00000     0.00000
 Structure written by MMmdl.
 40 40  0  0  0  0  0  0  0  0  1 V2000
  151.9304  138.1768  155.1944 C   0  0  0  0  0  0  0  0  0  0  0  0
  151.9850  139.7094  155.1076 C   0  0  0  0  0  0  0  0  0  0  0  0
  150.7430  140.4343  155.6861 C   0  0  0  0  0  0  0  0  0  0  0  0
  150.4873  140.0322  157.1619 C   0  0  0  0  0  0  0  0  0  0  0  0
  151.6828  140.2649  158.0981 C   0  0  0  0  0  0  0  0  0  0  0  0
  149.4824  140.2498  154.7943 C   0  0  1  0  0  0  0  0  0  0  0  0
  149.7480  140.7767  153.5081 O   0  0  0  0  0  0  0  0  0  0  0  0
  149.0406  138.7750  154.6496 C   0  0  0  0  0  0  0  0  0  0  0  0
  148.3201  138.5388  153.4032 N   0  0  0  0  0  0  0  0  0  0  0  0
  147.2318  139.2121  152.9987 C   0  0  0  0  0  0  0  0  0  0  0  0
  146.7118  140.1165  153.6519 O   0  0  0  0  0  0  0  0  0  0  0  0
  146.6330  138.7992  151.6538 C   0  0  0  0  0  0  0  0  0  0  0  0
  145.8913  137.4973  151.7920 C   0  0  0  0  0  0  0  0  0  0  0  0
  145.8928  136.3816  150.9094 C   0  0  0  0  0  0  0  0  0  0  0  0
  145.0550  135.4888  151.5148 C   0  0  0  0  0  0  0  0  0  0  0  0
  144.5955  134.1185  151.1516 C   0  0  0  0  0  0  0  0  0  0  0  0
  144.5735  136.0088  152.6729 O   0  0  0  0  0  0  0  0  0  0  0  0
  145.1106  137.2899  152.8410 N   0  0  0  0  0  0  0  0  0  0  0  0
  152.7681  137.7337  154.6558 H   0  0  0  0  0  0  0  0  0  0  0  0
  151.0124  137.7882  154.7533 H   0  0  0  0  0  0  0  0  0  0  0  0
  151.9895  137.8239  156.2233 H   0  0  0  0  0  0  0  0  0  0  0  0
  152.8922  140.0696  155.5937 H   0  0  0  0  0  0  0  0  0  0  0  0
  152.0969  139.9625  154.0545 H   0  0  0  0  0  0  0  0  0  0  0  0
  150.9724  141.5010  155.6836 H   0  0  0  0  0  0  0  0  0  0  0  0
  149.6538  140.6066  157.5642 H   0  0  0  0  0  0  0  0  0  0  0  0
  150.1808  138.9870  157.2168 H   0  0  0  0  0  0  0  0  0  0  0  0
  151.4059  140.0531  159.1310 H   0  0  0  0  0  0  0  0  0  0  0  0
  152.0225  141.3000  158.0543 H   0  0  0  0  0  0  0  0  0  0  0  0
  152.5271  139.6216  157.8535 H   0  0  0  0  0  0  0  0  0  0  0  0
  148.6557  140.8114  155.2279 H   0  0  0  0  0  0  0  0  0  0  0  0
  149.4820  140.1387  152.8630 H   0  0  0  0  0  0  0  0  0  0  0  0
  149.8792  138.0842  154.7559 H   0  0  0  0  0  0  0  0  0  0  0  0
  148.3409  138.5238  155.4473 H   0  0  0  0  0  0  0  0  0  0  0  0
  148.6799  137.8133  152.7995 H   0  0  0  0  0  0  0  0  0  0  0  0
  145.9756  139.5896  151.2884 H   0  0  0  0  0  0  0  0  0  0  0  0
  147.4331  138.7006  150.9193 H   0  0  0  0  0  0  0  0  0  0  0  0
  146.4269  136.2567  149.9793 H   0  0  0  0  0  0  0  0  0  0  0  0
  145.1330  133.7456  150.2796 H   0  0  0  0  0  0  0  0  0  0  0  0
  143.5309  134.1177  150.9182 H   0  0  0  0  0  0  0  0  0  0  0  0
  144.7631  133.4232  151.9744 H   0  0  0  0  0  0  0  0  0  0  0  0
  1  2  1  0  0  0  0
  1 19  1  0  0  0  0
  1 20  1  0  0  0  0
  1 21  1  0  0  0  0
  2  3  1  0  0  0  0
  2 22  1  0  0  0  0
  2 23  1  0  0  0  0
  3  4  1  0  0  0  0
  3  6  1  0  0  0  0
  3 24  1  0  0  0  0
  4  5  1  0  0  0  0
  4 25  1  0  0  0  0
  4 26  1  0  0  0  0
  5 27  1  0  0  0  0
  5 28  1  0  0  0  0
  5 29  1  0  0  0  0
  6  7  1  0  0  0  0
  6  8  1  0  0  0  0
  6 30  1  0  0  0  0
  7 31  1  0  0  0  0
  8  9  1  0  0  0  0
  8 32  1  0  0  0  0
  8 33  1  0  0  0  0
  9 10  1  0  0  0  0
  9 34  1  0  0  0  0
 10 11  2  0  0  0  0
 10 12  1  0  0  0  0
 12 13  1  0  0  0  0
 12 35  1  0  0  0  0
 12 36  1  0  0  0  0
 13 18  2  0  0  0  0
 13 14  1  0  0  0  0
 14 15  2  0  0  0  0
 14 37  1  0  0  0  0
 15 16  1  0  0  0  0
 15 17  1  0  0  0  0
 16 38  1  0  0  0  0
 16 39  1  0  0  0  0
 16 40  1  0  0  0  0
 17 18  1  0  0  0  0
M  END
> <s_m_source_file>
AV-unprocessed.smi

> <i_m_source_file_index>
3230

> <i_lp_mmshare_version>
43012

> <i_f3d_flags>
0

> <s_epik_input>
W0NIM11bQ0gyXVtDSF0oW0NIMl1bQ0gzXSlbQ0BIXShbT0hdKVtDSDJdW05IXUMoPU8pW0NIMl1jMVtjSF1jKFtDSDNdKW9uMQ==

> <s_epik_cmdline>
J2VwaWtfcHl0aG9uJywgJy1waCcsICc3LjAnLCAnLXRuJywgJzgnLCAnLW1hJywgJzIwMCcsICctbWV0YWxfYmluZGluZycsICctaW1hZScsICc8aW5maWxlLm1hZT4nLCAnLW9tYWUnLCAnPG91dGZpbGUubWFlPic=

> <r_lp_tautomer_probability>
1

> <r_epik_Ionization_Penalty>
2.40054e-07

> <r_epik_Ionization_Penalty_Charging>
0

> <r_epik_Ionization_Penalty_Neutral>
2.40054e-07

> <r_epik_State_Penalty>
-0

> <r_epik_Charging_Adjusted_Penalty>
0

> <i_epik_Tot_Q>
0

> <i_epik_Tot_abs_Q>
0

> <r_epik_Metal_State_Penalty>
-0

> <b_epik_Metal_Only>
0

> <s_lp_Force_Field>
OPLS_2005

> <r_lp_Energy>
9.12341

> <b_lp_Chiralities_Consistent>
1

> <s_lp_Variant>
AV-unprocessed.smi:3230-2

> <Gold.Version>
5.8.1

> <Gold.Id.Protein>
6NUR|6NUR_protein|mol2

> <Gold.PLP.Fitness>
41.4715

> <Gold.PLP.PLP>
-33.7075

> <Gold.PLP.part.hbond>
-4.3676

> <Gold.PLP.part.metal>
0.0000

> <Gold.PLP.part.buried>
3.4927

> <Gold.PLP.part.nonpolar>
-32.6556

> <Gold.PLP.part.repulsive>
0.5141

> <Gold.PLP.ligand.clash>
0.0000

> <Gold.PLP.ligand.torsion>
0.8190

> <Gold.PLP.Chemscore.Hbond>
3.0400

> <Gold.PLP.Chemscore.CHOScore>
0.0000

> <Gold.PLP.Chemscore.Metal>
0.0000

> <Gold.Chemscore.Hbonds>
donor molecule, donor type, donor heavy atom, donor atom, acceptor molecule, acceptor atom, score
      L1  H     7    31       P1  7957  0.67
      L1  H     9    34       P1  7948  1.00
      P1  H  7989  7998       L1     7  0.37
      P1  H  8011  8017       L1     7  0.95

> <Gold.PLP.Chemscore.Internal.Correction>
0.2821

> <Gold.Rescore>
     Score         DG    S(hbond)    S(metal)    S(lipo)     H(rot)  DE(clash)    DE(int)     intcor
     13.81     -15.26       2.17        0.00      77.95       2.57       0.69       0.75       ----

> <Gold.Chemscore.Fitness>
13.8147

> <Gold.Chemscore.DG>
-15.2558

> <Gold.Chemscore.ZeroCoef>
-5.4800

> <Gold.Chemscore.Hbond>
2.1673

> <Gold.Chemscore.Metal>
0.0000

> <Gold.Chemscore.Lipo>
77.9486

> <Gold.Chemscore.Internal_Hbond>
0.0000

> <Gold.Chemscore.DEClash>
0.6863

> <Gold.Chemscore.DEInternal>
0.7549

> <Gold.Chemscore.Rot>
2.5715

> <Gold.Chemscore.Internal.Correction>
   9.000000E+99

> <Gold.Chemscore.Hbonds>
donor molecule, donor type, donor heavy atom, donor atom, acceptor molecule, acceptor atom, score
      L1  H     7    31       P1  7957  0.68
      L1  H     9    34       P1  7948  1.00
      P1  H  7989  7998       L1     7  0.11
      P1  H  8011  8017       L1     7  0.20

> <Gold.Chemscore.Hbond.Weighted>
-7.2389

> <Gold.Chemscore.Metal.Weighted>
-0.0000

> <Gold.Chemscore.Lipo.Weighted>
-9.1200

> <Gold.Chemscore.Internal_Hbond.Weighted>
0.0000

> <Gold.Chemscore.DEClash.Weighted>
0.6863

> <Gold.Chemscore.DEInternal.Weighted>
0.7549

> <Gold.Chemscore.Rot.Weighted>
6.5831

> <Gold.Chemscore.Internal.Correction.Weighted>
   9.000000E+99

> <Gold.Protein.RotatedTorsions>
[ 6907 6896 6895 6894 ] final  129.49 input  -60.11 | X-H torsion
[ 7974 7965 7964 7962 ] final  -32.91 input  175.53 | X-H torsion
[ 8008 7997 7996 7995 ] final -152.56 input   59.86 | X-H torsion
[ 10167 10162 10161 10158 ] final  -24.92 input  -65.29 | X-H torsion
[ 10718 10713 10712 10709 ] final -178.75 input   66.30 | X-H torsion
[ 10763 10752 10751 10750 ] final -175.26 input  -60.55 | X-H torsion
[ 11005 11000 10999 10996 ] final  145.30 input  -57.11 | X-H torsion

> <Gold.Protein.ActiveResidues>
 VAL166  LYS551  ARG553  GLY616  TRP617  ASP618  TYR619  PRO620  LYS621  CYS622 
 ASP623  PHE694  ASN695  SER759  ASP760  ASP761  ALA762  ILE779  LEU786  VAL792 
 PHE793  MET794  SER795  GLU796  ALA797  LYS798  CYS799  TRP800  GLU811  SER814 

> <Gold.Protein.RotatedAtoms>
  152.3618  133.6307  159.6020 H   0  0  0  0  0  0  0  0  0  0  0  0  # atno 6907 bound_to 6896
  150.7606  133.9411  159.3465 H   0  0  0  0  0  0  0  0  0  0  0  0  # atno 6908 bound_to 6896
  151.7247  135.0888  160.0341 H   0  0  0  0  0  0  0  0  0  0  0  0  # atno 6909 bound_to 6896
  146.0953  140.5851  142.8846 H   0  0  0  0  0  0  0  0  0  0  0  0  # atno 7974 bound_to 7965
  155.6571  140.0718  157.2567 H   0  0  0  0  0  0  0  0  0  0  0  0  # atno 8008 bound_to 7997
  154.4150  140.1723  156.1787 H   0  0  0  0  0  0  0  0  0  0  0  0  # atno 8009 bound_to 7997
  155.9728  140.3360  155.6594 H   0  0  0  0  0  0  0  0  0  0  0  0  # atno 8010 bound_to 7997
  140.7287  143.4310  151.0802 H   0  0  0  0  0  0  0  0  0  0  0  0  # atno 10167 bound_to 10162
  156.8489  130.9712  151.3094 H   0  0  0  0  0  0  0  0  0  0  0  0  # atno 10718 bound_to 10713
  154.5865  135.2841  155.0680 H   0  0  0  0  0  0  0  0  0  0  0  0  # atno 10763 bound_to 10752
  154.1996  135.6426  153.5087 H   0  0  0  0  0  0  0  0  0  0  0  0  # atno 10764 bound_to 10752
  153.0106  135.5466  154.6536 H   0  0  0  0  0  0  0  0  0  0  0  0  # atno 10765 bound_to 10752
  140.0701  134.9156  157.1331 H   0  0  0  0  0  0  0  0  0  0  0  0  # atno 11005 bound_to 11000
  144.7390  140.4890  143.6882 LP  0  0  0  0  0  0  0  0  0  0  0  0  # atno 17320 bound_to 7965
  145.5961  139.1499  143.3155 LP  0  0  0  0  0  0  0  0  0  0  0  0  # atno 17321 bound_to 7965
  139.7967  143.8142  152.3158 LP  0  0  0  0  0  0  0  0  0  0  0  0  # atno 17342 bound_to 10162
  139.8144  144.7322  150.9655 LP  0  0  0  0  0  0  0  0  0  0  0  0  # atno 17343 bound_to 10162
  157.6314  130.8732  149.9281 LP  0  0  0  0  0  0  0  0  0  0  0  0  # atno 17370 bound_to 10713
  156.0839  130.3670  150.0525 LP  0  0  0  0  0  0  0  0  0  0  0  0  # atno 17371 bound_to 10713
  140.3640  134.2463  155.7184 LP  0  0  0  0  0  0  0  0  0  0  0  0  # atno 17394 bound_to 11000
  141.2008  133.7977  157.0470 LP  0  0  0  0  0  0  0  0  0  0  0  0  # atno 17395 bound_to 11000

$$$$
