AV-unprocessed.smi:3045|AV-procd|sdf|11612|dock6
  -GOLD-   2272016593D 1   1.00000     0.00000
 Structure written by MMmdl.
 36 37  0  0  0  0  0  0  0  0  2 V2000
  151.4967  145.4644  160.1935 C   0  0  0  0  0  0  0  0  0  0  0  0
  152.2315  144.2185  160.0225 N   0  0  0  0  0  0  0  0  0  0  0  0
  152.8663  143.8868  158.7579 C   0  0  0  0  0  0  0  0  0  0  0  0
  153.3567  142.4300  158.9135 C   0  0  2  0  0  0  0  0  0  0  0  0
  152.5294  141.4327  158.0883 C   0  0  0  0  0  0  0  0  0  0  0  0
  152.9712  140.3075  157.8518 O   0  0  0  0  0  0  0  0  0  0  0  0
  151.3428  141.8682  157.6355 N   0  0  0  0  0  0  0  0  0  0  0  0
  150.4299  141.1105  156.7823 C   0  0  0  0  0  0  0  0  0  0  0  0
  150.7759  141.2430  155.2849 C   0  0  0  0  0  0  0  0  0  0  0  0
  149.6910  140.7219  154.3571 C   0  0  0  0  0  0  0  0  0  0  0  0
  148.6029  141.5427  153.9846 C   0  0  0  0  0  0  0  0  0  0  0  0
  147.6323  141.0418  153.0922 C   0  0  0  0  0  0  0  0  0  0  0  0
  147.7706  139.7308  152.5926 C   0  0  0  0  0  0  0  0  0  0  0  0
  148.8216  138.9730  152.9754 N   0  3  0  0  0  0  0  0  0  0  0  0
  149.7705  139.4145  153.8297 C   0  0  0  0  0  0  0  0  0  0  0  0
  153.2381  142.1278  160.4210 C   0  0  0  0  0  0  0  0  0  0  0  0
  152.4358  143.2967  160.9674 C   0  0  0  0  0  0  0  0  0  0  0  0
  152.0335  143.3449  162.1287 O   0  0  0  0  0  0  0  0  0  0  0  0
  152.0099  146.1147  160.9026 H   0  0  0  0  0  0  0  0  0  0  0  0
  150.4917  145.2694  160.5701 H   0  0  0  0  0  0  0  0  0  0  0  0
  151.4044  145.9997  159.2481 H   0  0  0  0  0  0  0  0  0  0  0  0
  152.1685  144.0188  157.9291 H   0  0  0  0  0  0  0  0  0  0  0  0
  153.7067  144.5617  158.5900 H   0  0  0  0  0  0  0  0  0  0  0  0
  154.4012  142.3657  158.6033 H   0  0  0  0  0  0  0  0  0  0  0  0
  151.0581  142.8045  157.8851 H   0  0  0  0  0  0  0  0  0  0  0  0
  150.4165  140.0594  157.0755 H   0  0  0  0  0  0  0  0  0  0  0  0
  149.4202  141.4835  156.9547 H   0  0  0  0  0  0  0  0  0  0  0  0
  150.9619  142.2906  155.0457 H   0  0  0  0  0  0  0  0  0  0  0  0
  151.7083  140.7164  155.0774 H   0  0  0  0  0  0  0  0  0  0  0  0
  148.5171  142.5496  154.3663 H   0  0  0  0  0  0  0  0  0  0  0  0
  146.7972  141.6570  152.7908 H   0  0  0  0  0  0  0  0  0  0  0  0
  147.0789  139.2697  151.9026 H   0  0  0  0  0  0  0  0  0  0  0  0
  150.5681  138.7199  154.0497 H   0  0  0  0  0  0  0  0  0  0  0  0
  152.7365  141.1847  160.6431 H   0  0  0  0  0  0  0  0  0  0  0  0
  154.2192  142.1078  160.8963 H   0  0  0  0  0  0  0  0  0  0  0  0
  148.9046  138.0279  152.6000 H   0  0  0  0  0  0  0  0  0  0  0  0
  1  2  1  0  0  0  0
  1 19  1  0  0  0  0
  1 20  1  0  0  0  0
  1 21  1  0  0  0  0
  2 17  1  0  0  0  0
  2  3  1  0  0  0  0
  3  4  1  0  0  0  0
  3 22  1  0  0  0  0
  3 23  1  0  0  0  0
  4  5  1  0  0  0  0
  4 16  1  0  0  0  0
  4 24  1  0  0  0  0
  5  6  2  0  0  0  0
  5  7  1  0  0  0  0
  7  8  1  0  0  0  0
  7 25  1  0  0  0  0
  8  9  1  0  0  0  0
  8 26  1  0  0  0  0
  8 27  1  0  0  0  0
  9 10  1  0  0  0  0
  9 28  1  0  0  0  0
  9 29  1  0  0  0  0
 10 15  1  0  0  0  0
 10 11  2  0  0  0  0
 11 12  1  0  0  0  0
 11 30  1  0  0  0  0
 12 13  2  0  0  0  0
 12 31  1  0  0  0  0
 13 14  1  0  0  0  0
 13 32  1  0  0  0  0
 14 15  2  0  0  0  0
 14 36  1  0  0  0  0
 15 33  1  0  0  0  0
 16 17  1  0  0  0  0
 16 34  1  0  0  0  0
 16 35  1  0  0  0  0
 17 18  2  0  0  0  0
M  CHG  1  14   1
M  END
> <s_m_source_file>
AV-unprocessed.smi

> <i_m_source_file_index>
3045

> <i_lp_mmshare_version>
43012

> <i_f3d_flags>
0

> <s_epik_input>
W0NIM11OMVtDSDJdW0NASF0oW0NIMl1DMT1PKUMoPU8pW05IXVtDSDJdW0NIMl1jMltjSF1bY0hdW2NIXW5bY0hdMg==

> <s_epik_cmdline>
J2VwaWtfcHl0aG9uJywgJy1waCcsICc3LjAnLCAnLXRuJywgJzgnLCAnLW1hJywgJzIwMCcsICctbWV0YWxfYmluZGluZycsICctaW1hZScsICc8aW5maWxlLm1hZT4nLCAnLW9tYWUnLCAnPG91dGZpbGUubWFlPic=

> <r_epik_Ionization_Penalty>
2.26523

> <r_epik_Ionization_Penalty_Charging>
2.26523

> <r_epik_Ionization_Penalty_Neutral>
2.92809e-08

> <r_epik_State_Penalty>
2.41338

> <r_epik_Charging_Adjusted_Penalty>
4.67861

> <i_epik_Tot_Q>
1

> <i_epik_Tot_abs_Q>
1

> <r_epik_Metal_State_Penalty>
2.42626

> <b_epik_Metal_Only>
0

> <s_lp_Force_Field>
OPLS_2005

> <r_lp_Energy>
17.4324

> <b_lp_Chiralities_Consistent>
1

> <s_lp_Variant>
AV-unprocessed.smi:3045-4

> <Gold.Version>
5.8.1

> <Gold.Id.Protein>
6NUR|6NUR_protein|mol2

> <Gold.PLP.Fitness>
49.6212

> <Gold.PLP.PLP>
-42.8575

> <Gold.PLP.part.hbond>
-3.0000

> <Gold.PLP.part.metal>
0.0000

> <Gold.PLP.part.buried>
-3.6139

> <Gold.PLP.part.nonpolar>
-35.8350

> <Gold.PLP.part.repulsive>
0.8593

> <Gold.PLP.ligand.clash>
0.0000

> <Gold.PLP.ligand.torsion>
1.0330

> <Gold.PLP.Chemscore.Hbond>
2.9350

> <Gold.PLP.Chemscore.CHOScore>
0.0000

> <Gold.PLP.Chemscore.Metal>
0.0000

> <Gold.Chemscore.Hbonds>
donor molecule, donor type, donor heavy atom, donor atom, acceptor molecule, acceptor atom, score
      L1  H    14    36       P1  7948  2.00
      P1  H  7997  8009       L1     6  0.91

> <Gold.PLP.Chemscore.Internal.Correction>
0.0247

> <Gold.Rescore>
     Score         DG    S(hbond)    S(metal)    S(lipo)     H(rot)  DE(clash)    DE(int)     intcor
     17.14     -18.15       1.86        0.00      92.51       1.71       0.28       0.73       ----

> <Gold.Chemscore.Fitness>
17.1404

> <Gold.Chemscore.DG>
-18.1519

> <Gold.Chemscore.ZeroCoef>
-5.4800

> <Gold.Chemscore.Hbond>
1.8643

> <Gold.Chemscore.Metal>
0.0000

> <Gold.Chemscore.Lipo>
92.5121

> <Gold.Chemscore.Internal_Hbond>
0.0000

> <Gold.Chemscore.DEClash>
0.2801

> <Gold.Chemscore.DEInternal>
0.7313

> <Gold.Chemscore.Rot>
1.7105

> <Gold.Chemscore.Internal.Correction>
   9.000000E+99

> <Gold.Chemscore.Hbonds>
donor molecule, donor type, donor heavy atom, donor atom, acceptor molecule, acceptor atom, score
      L1  H    14    36       P1  7948  0.99
      P1  H  7997  8009       L1     6  0.88

> <Gold.Chemscore.Hbond.Weighted>
-6.2268

> <Gold.Chemscore.Metal.Weighted>
-0.0000

> <Gold.Chemscore.Lipo.Weighted>
-10.8239

> <Gold.Chemscore.Internal_Hbond.Weighted>
0.0000

> <Gold.Chemscore.DEClash.Weighted>
0.2801

> <Gold.Chemscore.DEInternal.Weighted>
0.7313

> <Gold.Chemscore.Rot.Weighted>
4.3789

> <Gold.Chemscore.Internal.Correction.Weighted>
   9.000000E+99

> <Gold.Protein.RotatedTorsions>
[ 6907 6896 6895 6894 ] final  -86.65 input  -60.11 | X-H torsion
[ 7974 7965 7964 7962 ] final   93.60 input  175.53 | X-H torsion
[ 8008 7997 7996 7995 ] final  166.93 input   59.86 | X-H torsion
[ 10167 10162 10161 10158 ] final  161.31 input  -65.29 | X-H torsion
[ 10718 10713 10712 10709 ] final   37.79 input   66.30 | X-H torsion
[ 10763 10752 10751 10750 ] final -134.11 input  -60.55 | X-H torsion
[ 11005 11000 10999 10996 ] final  155.84 input  -57.11 | X-H torsion

> <Gold.Protein.ActiveResidues>
 VAL166  LYS551  ARG553  GLY616  TRP617  ASP618  TYR619  PRO620  LYS621  CYS622 
 ASP623  PHE694  ASN695  SER759  ASP760  ASP761  ALA762  ILE779  LEU786  VAL792 
 PHE793  MET794  SER795  GLU796  ALA797  LYS798  CYS799  TRP800  GLU811  SER814 

> <Gold.Protein.RotatedAtoms>
  150.6866  134.3017  159.4709 H   0  0  0  0  0  0  0  0  0  0  0  0  # atno 6907 bound_to 6896
  152.0912  134.9403  160.0581 H   0  0  0  0  0  0  0  0  0  0  0  0  # atno 6908 bound_to 6896
  152.0718  133.4075  159.4499 H   0  0  0  0  0  0  0  0  0  0  0  0  # atno 6909 bound_to 6896
  145.4767  139.2280  143.2905 H   0  0  0  0  0  0  0  0  0  0  0  0  # atno 7974 bound_to 7965
  156.1677  140.1630  156.8502 H   0  0  0  0  0  0  0  0  0  0  0  0  # atno 8008 bound_to 7997
  154.5225  140.0775  156.8232 H   0  0  0  0  0  0  0  0  0  0  0  0  # atno 8009 bound_to 7997
  155.3577  140.3393  155.4242 H   0  0  0  0  0  0  0  0  0  0  0  0  # atno 8010 bound_to 7997
  139.4848  144.4549  151.8782 H   0  0  0  0  0  0  0  0  0  0  0  0  # atno 10167 bound_to 10162
  157.3511  130.7599  149.6979 H   0  0  0  0  0  0  0  0  0  0  0  0  # atno 10718 bound_to 10713
  154.8724  135.3745  154.4682 H   0  0  0  0  0  0  0  0  0  0  0  0  # atno 10763 bound_to 10752
  153.5345  135.7027  153.5672 H   0  0  0  0  0  0  0  0  0  0  0  0  # atno 10764 bound_to 10752
  153.3861  135.3984  155.1856 H   0  0  0  0  0  0  0  0  0  0  0  0  # atno 10765 bound_to 10752
  140.1619  134.8604  157.2584 H   0  0  0  0  0  0  0  0  0  0  0  0  # atno 11005 bound_to 11000
  146.2365  140.5550  142.8952 LP  0  0  0  0  0  0  0  0  0  0  0  0  # atno 17320 bound_to 7965
  144.7913  140.6037  143.6540 LP  0  0  0  0  0  0  0  0  0  0  0  0  # atno 17321 bound_to 7965
  140.4007  144.2496  150.5893 LP  0  0  0  0  0  0  0  0  0  0  0  0  # atno 17342 bound_to 10162
  140.5059  143.2304  151.8608 LP  0  0  0  0  0  0  0  0  0  0  0  0  # atno 17343 bound_to 10162
  155.9722  130.4140  150.4112 LP  0  0  0  0  0  0  0  0  0  0  0  0  # atno 17370 bound_to 10713
  157.2174  131.0474  151.2565 LP  0  0  0  0  0  0  0  0  0  0  0  0  # atno 17371 bound_to 10713
  140.2480  134.3717  155.7453 LP  0  0  0  0  0  0  0  0  0  0  0  0  # atno 17394 bound_to 11000
  141.2210  133.7301  156.8891 LP  0  0  0  0  0  0  0  0  0  0  0  0  # atno 17395 bound_to 11000

$$$$
