AV-unprocessed.smi:72|AV-procd|sdf|696|dock5
  -GOLD-   2262017 13D 1   1.00000     0.00000
 Structure written by MMmdl.
 30 31  0  0  0  0  0  0  0  0  2 V2000
  143.8817  139.1932  154.6119 N   0  0  0  0  0  0  0  0  0  0  0  0
  144.0046  137.8759  154.2220 C   0  0  0  0  0  0  0  0  0  0  0  0
  143.9961  137.6028  152.8658 N   0  3  0  0  0  0  0  0  0  0  0  0
  144.1017  136.3813  152.3250 C   0  0  0  0  0  0  0  0  0  0  0  0
  144.2226  135.3379  153.1203 N   0  0  0  0  0  0  0  0  0  0  0  0
  144.3623  133.9385  152.5730 C   0  0  1  0  0  0  0  0  0  0  0  0
  143.6646  133.8658  151.3649 O   0  0  0  0  0  0  0  0  0  0  0  0
  144.5745  133.7596  150.2723 C   0  0  2  0  0  0  0  0  0  0  0  0
  143.8834  133.0664  149.0886 C   0  0  0  0  0  0  0  0  0  0  0  0
  143.2642  131.8757  149.5259 O   0  0  0  0  0  0  0  0  0  0  0  0
  145.7079  132.9424  150.8901 C   0  0  1  0  0  0  0  0  0  0  0  0
  146.9108  132.9996  150.1463 O   0  0  0  0  0  0  0  0  0  0  0  0
  145.8300  133.5526  152.2818 C   0  0  1  0  0  0  0  0  0  0  0  0
  146.7176  134.6620  152.2986 O   0  0  0  0  0  0  0  0  0  0  0  0
  144.2557  135.5195  154.5265 C   0  0  0  0  0  0  0  0  0  0  0  0
  144.3937  134.5536  155.2764 O   0  0  0  0  0  0  0  0  0  0  0  0
  144.1318  136.8348  154.9975 N   0  0  0  0  0  0  0  0  0  0  0  0
  143.8662  133.2772  153.2852 H   0  0  0  0  0  0  0  0  0  0  0  0
  144.9475  134.7457  149.9898 H   0  0  0  0  0  0  0  0  0  0  0  0
  145.3971  131.9001  150.9801 H   0  0  0  0  0  0  0  0  0  0  0  0
  146.1718  132.8208  153.0146 H   0  0  0  0  0  0  0  0  0  0  0  0
  143.8789  139.4848  155.5793 H   0  0  0  0  0  0  0  0  0  0  0  0
  143.7919  139.9664  153.9686 H   0  0  0  0  0  0  0  0  0  0  0  0
  144.0870  136.2762  151.2488 H   0  0  0  0  0  0  0  0  0  0  0  0
  143.1042  133.7095  148.6786 H   0  0  0  0  0  0  0  0  0  0  0  0
  144.5878  132.8562  148.2834 H   0  0  0  0  0  0  0  0  0  0  0  0
  143.2748  131.8612  150.4710 H   0  0  0  0  0  0  0  0  0  0  0  0
  147.4692  132.2883  150.4210 H   0  0  0  0  0  0  0  0  0  0  0  0
  147.5039  134.4231  151.8309 H   0  0  0  0  0  0  0  0  0  0  0  0
  143.9044  138.3873  152.2363 H   0  0  0  0  0  0  0  0  0  0  0  0
  1  2  1  0  0  0  0
  1 22  1  0  0  0  0
  1 23  1  0  0  0  0
  2 17  2  0  0  0  0
  2  3  1  0  0  0  0
  3  4  2  0  0  0  0
  3 30  1  0  0  0  0
  4  5  1  0  0  0  0
  4 24  1  0  0  0  0
  5  6  1  0  0  0  0
  5 15  1  0  0  0  0
  6 18  1  0  0  0  0
  6 13  1  0  0  0  0
  6  7  1  0  0  0  0
  7  8  1  0  0  0  0
  8 19  1  0  0  0  0
  8  9  1  0  0  0  0
  8 11  1  0  0  0  0
  9 10  1  0  0  0  0
  9 25  1  0  0  0  0
  9 26  1  0  0  0  0
 10 27  1  0  0  0  0
 11 20  1  0  0  0  0
 11 12  1  0  0  0  0
 11 13  1  0  0  0  0
 12 28  1  0  0  0  0
 13 21  1  0  0  0  0
 13 14  1  0  0  0  0
 14 29  1  0  0  0  0
 15 16  2  0  0  0  0
 15 17  1  0  0  0  0
M  CHG  1   3   1
M  END
> <s_m_source_file>
AV-unprocessed.smi

> <i_m_source_file_index>
72

> <i_lp_mmshare_version>
43012

> <i_f3d_flags>
0

> <s_epik_input>
W05IMl1jMW5bY0hdbihjKD1PKW4xKVtDQEBIXTJPW0NASF0oW0NIMl1bT0hdKVtDQEBIXShbT0hdKVtDQEhdMltPSF0=

> <s_epik_cmdline>
J2VwaWtfcHl0aG9uJywgJy1waCcsICc3LjAnLCAnLXRuJywgJzgnLCAnLW1hJywgJzIwMCcsICctbWV0YWxfYmluZGluZycsICctaW1hZScsICc8aW5maWxlLm1hZT4nLCAnLW9tYWUnLCAnPG91dGZpbGUubWFlPic=

> <r_lp_tautomer_probability>
4.77166e-05

> <r_epik_Ionization_Penalty>
0.104979

> <r_epik_Ionization_Penalty_Charging>
0.0999619

> <r_epik_Ionization_Penalty_Neutral>
0.00501745

> <r_epik_State_Penalty>
2.51541

> <r_epik_Charging_Adjusted_Penalty>
2.61537

> <i_epik_Tot_Q>
1

> <i_epik_Tot_abs_Q>
1

> <r_epik_Metal_State_Penalty>
3.53763

> <b_epik_Metal_Only>
0

> <s_epik_Chemistry_Notes>
This compound contains an acetal/aminal-like group ( X-CH(R)-Y where X, Y are N, S, or O) that may be acid/base labile, releasing an aldehyde.

> <s_lp_Force_Field>
OPLS_2005

> <r_lp_Energy>
36.6563

> <b_lp_Chiralities_Consistent>
1

> <s_lp_Variant>
AV-unprocessed.smi:72-34

> <Gold.Version>
5.8.1

> <Gold.Id.Protein>
6NUR|6NUR_protein|mol2

> <Gold.PLP.Fitness>
35.2437

> <Gold.PLP.PLP>
-22.7604

> <Gold.PLP.part.hbond>
-7.6832

> <Gold.PLP.part.metal>
0.0000

> <Gold.PLP.part.buried>
-0.6559

> <Gold.PLP.part.nonpolar>
-12.9117

> <Gold.PLP.part.repulsive>
0.3040

> <Gold.PLP.ligand.clash>
0.0000

> <Gold.PLP.ligand.torsion>
0.7737

> <Gold.PLP.Chemscore.Hbond>
4.2948

> <Gold.PLP.Chemscore.CHOScore>
0.3431

> <Gold.PLP.Chemscore.Metal>
0.0000

> <Gold.Chemscore.Hbonds>
donor molecule, donor type, donor heavy atom, donor atom, acceptor molecule, acceptor atom, score
      L1  H     1    23       P1 10175  0.98
      L1  H     3    30       P1 10175  1.29
      L1  H    12    28       P1 10747  0.89
      L1  H    14    29       P1  7948  0.09
      P1  H 10785 10796       L1    10  1.00
      L1  C     4    24       P1 10171  0.39

> <Gold.PLP.Chemscore.Internal.Correction>
0.1170

> <Gold.Rescore>
     Score         DG    S(hbond)    S(metal)    S(lipo)     H(rot)  DE(clash)    DE(int)     intcor
      9.71     -10.51       3.60        0.00      29.50       4.08       0.01       0.80       ----

> <Gold.Chemscore.Fitness>
9.7079

> <Gold.Chemscore.DG>
-10.5138

> <Gold.Chemscore.ZeroCoef>
-5.4800

> <Gold.Chemscore.Hbond>
3.5997

> <Gold.Chemscore.Metal>
0.0000

> <Gold.Chemscore.Lipo>
29.4976

> <Gold.Chemscore.Internal_Hbond>
0.0000

> <Gold.Chemscore.DEClash>
0.0075

> <Gold.Chemscore.DEInternal>
0.7984

> <Gold.Chemscore.Rot>
4.0783

> <Gold.Chemscore.Internal.Correction>
   9.000000E+99

> <Gold.Chemscore.Hbonds>
donor molecule, donor type, donor heavy atom, donor atom, acceptor molecule, acceptor atom, score
      L1  H     1    23       P1 10175  0.90
      L1  H     3    30       P1 10175  0.63
      L1  H    12    28       P1 10747  0.85
      L1  H    14    29       P1  7948  0.03
      P1  H 10785 10796       L1    10  0.84

> <Gold.Chemscore.Hbond.Weighted>
-12.0229

> <Gold.Chemscore.Metal.Weighted>
-0.0000

> <Gold.Chemscore.Lipo.Weighted>
-3.4512

> <Gold.Chemscore.Internal_Hbond.Weighted>
0.0000

> <Gold.Chemscore.DEClash.Weighted>
0.0075

> <Gold.Chemscore.DEInternal.Weighted>
0.7984

> <Gold.Chemscore.Rot.Weighted>
10.4404

> <Gold.Chemscore.Internal.Correction.Weighted>
   9.000000E+99

> <Gold.Protein.RotatedTorsions>
[ 6907 6896 6895 6894 ] final  -33.18 input  -60.11 | X-H torsion
[ 7974 7965 7964 7962 ] final   48.15 input  175.53 | X-H torsion
[ 8008 7997 7996 7995 ] final -128.91 input   59.86 | X-H torsion
[ 10167 10162 10161 10158 ] final  128.77 input  -65.29 | X-H torsion
[ 10718 10713 10712 10709 ] final -115.46 input   66.30 | X-H torsion
[ 10763 10752 10751 10750 ] final -134.29 input  -60.55 | X-H torsion
[ 11005 11000 10999 10996 ] final   20.00 input  -57.11 | X-H torsion

> <Gold.Protein.ActiveResidues>
 VAL166  LYS551  ARG553  GLY616  TRP617  ASP618  TYR619  PRO620  LYS621  CYS622 
 ASP623  PHE694  ASN695  SER759  ASP760  ASP761  ALA762  ILE779  LEU786  VAL792 
 PHE793  MET794  SER795  GLU796  ALA797  LYS798  CYS799  TRP800  GLU811  SER814 

> <Gold.Protein.RotatedAtoms>
  151.0690  134.9786  159.8298 H   0  0  0  0  0  0  0  0  0  0  0  0  # atno 6907 bound_to 6896
  152.5406  134.2323  159.8839 H   0  0  0  0  0  0  0  0  0  0  0  0  # atno 6908 bound_to 6896
  151.2346  133.4388  159.2638 H   0  0  0  0  0  0  0  0  0  0  0  0  # atno 6909 bound_to 6896
  146.0231  139.4674  142.9885 H   0  0  0  0  0  0  0  0  0  0  0  0  # atno 7974 bound_to 7965
  155.2704  140.0440  157.3006 H   0  0  0  0  0  0  0  0  0  0  0  0  # atno 8008 bound_to 7997
  154.5657  140.2359  155.8237 H   0  0  0  0  0  0  0  0  0  0  0  0  # atno 8009 bound_to 7997
  156.2083  140.3006  155.9682 H   0  0  0  0  0  0  0  0  0  0  0  0  # atno 8010 bound_to 7997
  139.5510  144.6813  151.4323 H   0  0  0  0  0  0  0  0  0  0  0  0  # atno 10167 bound_to 10162
  156.0897  130.6082  150.8909 H   0  0  0  0  0  0  0  0  0  0  0  0  # atno 10718 bound_to 10713
  154.8721  135.3739  154.4712 H   0  0  0  0  0  0  0  0  0  0  0  0  # atno 10763 bound_to 10752
  153.5372  135.7027  153.5659 H   0  0  0  0  0  0  0  0  0  0  0  0  # atno 10764 bound_to 10752
  153.3837  135.3990  155.1839 H   0  0  0  0  0  0  0  0  0  0  0  0  # atno 10765 bound_to 10752
  140.4074  134.1654  155.7666 H   0  0  0  0  0  0  0  0  0  0  0  0  # atno 11005 bound_to 11000
  145.7161  141.0090  143.1427 LP  0  0  0  0  0  0  0  0  0  0  0  0  # atno 17320 bound_to 7965
  144.6998  139.8815  143.7447 LP  0  0  0  0  0  0  0  0  0  0  0  0  # atno 17321 bound_to 7965
  140.6773  143.8162  150.7074 LP  0  0  0  0  0  0  0  0  0  0  0  0  # atno 17342 bound_to 10162
  140.1604  143.4280  152.2071 LP  0  0  0  0  0  0  0  0  0  0  0  0  # atno 17343 bound_to 10162
  157.6043  131.0940  150.8906 LP  0  0  0  0  0  0  0  0  0  0  0  0  # atno 17370 bound_to 10713
  156.9058  130.5263  149.5281 LP  0  0  0  0  0  0  0  0  0  0  0  0  # atno 17371 bound_to 10713
  141.1834  133.8365  157.1176 LP  0  0  0  0  0  0  0  0  0  0  0  0  # atno 17394 bound_to 11000
  140.0292  134.9909  157.0746 LP  0  0  0  0  0  0  0  0  0  0  0  0  # atno 17395 bound_to 11000

$$$$
