AV-unprocessed.smi:1929|AV-procd|sdf|7808|dock6
  -GOLD-   22720 9553D 1   1.00000     0.00000
 Structure written by MMmdl.
 43 44  0  0  0  0  0  0  0  0  4 V2000
  148.7606  133.8825  157.4225 C   0  0  0  0  0  0  0  0  0  0  0  0
  150.1272  134.3820  157.5143 N   0  5  0  0  0  0  0  0  0  0  0  0
  150.8920  134.6807  156.4299 C   0  0  0  0  0  0  0  0  0  0  0  0
  152.1108  134.8540  156.3250 O   0  0  0  0  0  0  0  0  0  0  0  0
  150.0279  134.8354  155.1730 C   0  0  0  0  0  0  0  0  0  0  0  0
  150.0638  136.2375  154.6854 N   0  3  2  0  0  0  0  0  0  0  0  0
  151.4432  136.7388  154.4369 C   0  0  0  0  0  0  0  0  0  0  0  0
  151.4214  138.1506  153.8257 C   0  0  0  0  0  0  0  0  0  0  0  0
  150.6396  139.1459  154.7049 C   0  0  2  0  0  0  0  0  0  0  0  0
  151.3463  139.4390  155.9522 N   0  0  0  0  0  0  0  0  0  0  0  0
  151.1584  140.5293  156.7103 C   0  0  0  0  0  0  0  0  0  0  0  0
  150.3415  141.4091  156.4401 O   0  0  0  0  0  0  0  0  0  0  0  0
  151.9868  140.5368  157.7691 N   0  0  0  0  0  0  0  0  0  0  0  0
  152.1324  141.5360  158.7698 C   0  0  0  0  0  0  0  0  0  0  0  0
  152.9205  141.2201  159.8988 C   0  0  0  0  0  0  0  0  0  0  0  0
  153.0855  142.1759  160.9221 C   0  0  0  0  0  0  0  0  0  0  0  0
  152.4815  143.3793  160.8216 N   0  3  0  0  0  0  0  0  0  0  0  0
  151.7069  143.7216  159.7700 C   0  0  0  0  0  0  0  0  0  0  0  0
  151.5062  142.8075  158.7156 C   0  0  0  0  0  0  0  0  0  0  0  0
  149.2394  138.5795  154.9967 C   0  0  0  0  0  0  0  0  0  0  0  0
  149.2995  137.1522  155.5718 C   0  0  0  0  0  0  0  0  0  0  0  0
  148.3662  133.6008  158.3986 H   0  0  0  0  0  0  0  0  0  0  0  0
  148.6805  132.9973  156.7905 H   0  0  0  0  0  0  0  0  0  0  0  0
  148.0748  134.6254  157.0148 H   0  0  0  0  0  0  0  0  0  0  0  0
  150.4494  134.1706  154.4178 H   0  0  0  0  0  0  0  0  0  0  0  0
  148.9960  134.5110  155.3259 H   0  0  0  0  0  0  0  0  0  0  0  0
  152.0063  136.7387  155.3714 H   0  0  0  0  0  0  0  0  0  0  0  0
  151.9724  136.0734  153.7547 H   0  0  0  0  0  0  0  0  0  0  0  0
  152.4404  138.5006  153.6581 H   0  0  0  0  0  0  0  0  0  0  0  0
  150.9569  138.1030  152.8398 H   0  0  0  0  0  0  0  0  0  0  0  0
  150.5190  140.0826  154.1577 H   0  0  0  0  0  0  0  0  0  0  0  0
  152.0373  138.7663  156.2510 H   0  0  0  0  0  0  0  0  0  0  0  0
  152.6495  139.7766  157.8175 H   0  0  0  0  0  0  0  0  0  0  0  0
  153.4033  140.2568  159.9805 H   0  0  0  0  0  0  0  0  0  0  0  0
  153.6771  142.0146  161.8114 H   0  0  0  0  0  0  0  0  0  0  0  0
  151.2692  144.7086  159.8046 H   0  0  0  0  0  0  0  0  0  0  0  0
  150.8681  143.0966  157.8945 H   0  0  0  0  0  0  0  0  0  0  0  0
  148.6993  139.2365  155.6796 H   0  0  0  0  0  0  0  0  0  0  0  0
  148.6610  138.5643  154.0717 H   0  0  0  0  0  0  0  0  0  0  0  0
  148.2829  136.7767  155.6958 H   0  0  0  0  0  0  0  0  0  0  0  0
  149.7543  137.1612  156.5634 H   0  0  0  0  0  0  0  0  0  0  0  0
  149.5873  136.2333  153.7947 H   0  0  0  0  0  0  0  0  0  0  0  0
  152.6122  144.0567  161.5738 H   0  0  0  0  0  0  0  0  0  0  0  0
  1  2  1  0  0  0  0
  1 22  1  0  0  0  0
  1 23  1  0  0  0  0
  1 24  1  0  0  0  0
  2  3  1  0  0  0  0
  3  4  2  0  0  0  0
  3  5  1  0  0  0  0
  5  6  1  0  0  0  0
  5 25  1  0  0  0  0
  5 26  1  0  0  0  0
  6 21  1  0  0  0  0
  6  7  1  0  0  0  0
  6 42  1  0  0  0  0
  7  8  1  0  0  0  0
  7 27  1  0  0  0  0
  7 28  1  0  0  0  0
  8  9  1  0  0  0  0
  8 29  1  0  0  0  0
  8 30  1  0  0  0  0
  9 10  1  0  0  0  0
  9 20  1  0  0  0  0
  9 31  1  0  0  0  0
 10 11  1  0  0  0  0
 10 32  1  0  0  0  0
 11 12  2  0  0  0  0
 11 13  1  0  0  0  0
 13 14  1  0  0  0  0
 13 33  1  0  0  0  0
 14 19  1  0  0  0  0
 14 15  2  0  0  0  0
 15 16  1  0  0  0  0
 15 34  1  0  0  0  0
 16 17  2  0  0  0  0
 16 35  1  0  0  0  0
 17 18  1  0  0  0  0
 17 43  1  0  0  0  0
 18 19  2  0  0  0  0
 18 36  1  0  0  0  0
 19 37  1  0  0  0  0
 20 21  1  0  0  0  0
 20 38  1  0  0  0  0
 20 39  1  0  0  0  0
 21 40  1  0  0  0  0
 21 41  1  0  0  0  0
M  CHG  1   2  -1
M  CHG  1   6   1
M  CHG  1  17   1
M  END
> <s_m_source_file>
AV-unprocessed.smi

> <i_m_source_file_index>
1929

> <i_lp_mmshare_version>
43012

> <i_f3d_flags>
0

> <s_epik_input>
W0NIM11bTkhdQyg9TylbQ0gyXU4xW0NIMl1bQ0gyXVtDSF0oW0NIMl1bQ0gyXTEpW05IXUMoPU8pW05IXWMyW2NIXVtjSF1uW2NIXVtjSF0y

> <s_epik_cmdline>
J2VwaWtfcHl0aG9uJywgJy1waCcsICc3LjAnLCAnLXRuJywgJzgnLCAnLW1hJywgJzIwMCcsICctbWV0YWxfYmluZGluZycsICctaW1hZScsICc8aW5maWxlLm1hZT4nLCAnLW9tYWUnLCAnPG91dGZpbGUubWFlPic=

> <r_epik_Ionization_Penalty>
7.25133

> <r_epik_Ionization_Penalty_Charging>
7.25131

> <r_epik_Ionization_Penalty_Neutral>
1.84563e-05

> <r_epik_State_Penalty>
8.093

> <r_epik_Charging_Adjusted_Penalty>
15.3443

> <i_epik_Tot_Q>
1

> <i_epik_Tot_abs_Q>
3

> <r_epik_Metal_State_Penalty>
4.12368

> <b_epik_Metal_Only>
1

> <s_lp_Force_Field>
OPLS_2005

> <r_lp_Energy>
20.7097

> <b_lp_Chiralities_Consistent>
1

> <s_lp_Variant>
AV-unprocessed.smi:1929-10

> <Gold.Version>
5.8.1

> <Gold.Id.Protein>
6NUR|6NUR_protein|mol2

> <Gold.PLP.Fitness>
44.6458

> <Gold.PLP.PLP>
-30.6318

> <Gold.PLP.part.hbond>
-3.0000

> <Gold.PLP.part.metal>
0.0000

> <Gold.PLP.part.buried>
-0.7475

> <Gold.PLP.part.nonpolar>
-27.3018

> <Gold.PLP.part.repulsive>
0.3646

> <Gold.PLP.ligand.clash>
0.0000

> <Gold.PLP.ligand.torsion>
0.4432

> <Gold.PLP.Chemscore.Hbond>
4.9512

> <Gold.PLP.Chemscore.CHOScore>
0.0000

> <Gold.PLP.Chemscore.Metal>
0.0000

> <Gold.Chemscore.Hbonds>
donor molecule, donor type, donor heavy atom, donor atom, acceptor molecule, acceptor atom, score
      L1  H     6    42       P1  7948  2.00
      P1  H  6896  6909       L1     2  1.57
      P1  H 10752 10763       L1     4  0.93

> <Gold.PLP.Chemscore.Internal.Correction>
0.0469

> <Gold.Rescore>
     Score         DG    S(hbond)    S(metal)    S(lipo)     H(rot)  DE(clash)    DE(int)     intcor
     15.60     -20.14       2.52        0.00      89.67       1.66       1.46       3.08       ----

> <Gold.Chemscore.Fitness>
15.6011

> <Gold.Chemscore.DG>
-20.1375

> <Gold.Chemscore.ZeroCoef>
-5.4800

> <Gold.Chemscore.Hbond>
2.5177

> <Gold.Chemscore.Metal>
0.0000

> <Gold.Chemscore.Lipo>
89.6699

> <Gold.Chemscore.Internal_Hbond>
0.0000

> <Gold.Chemscore.DEClash>
1.4561

> <Gold.Chemscore.DEInternal>
3.0804

> <Gold.Chemscore.Rot>
1.6574

> <Gold.Chemscore.Internal.Correction>
   9.000000E+99

> <Gold.Chemscore.Hbonds>
donor molecule, donor type, donor heavy atom, donor atom, acceptor molecule, acceptor atom, score
      L1  H     6    42       P1  7948  0.53
      P1  H  6896  6909       L1     2  0.47
      P1  H 10752 10763       L1     4  0.91

> <Gold.Chemscore.Hbond.Weighted>
-8.4092

> <Gold.Chemscore.Metal.Weighted>
-0.0000

> <Gold.Chemscore.Lipo.Weighted>
-10.4914

> <Gold.Chemscore.Internal_Hbond.Weighted>
0.0000

> <Gold.Chemscore.DEClash.Weighted>
1.4561

> <Gold.Chemscore.DEInternal.Weighted>
3.0804

> <Gold.Chemscore.Rot.Weighted>
4.2430

> <Gold.Chemscore.Internal.Correction.Weighted>
   9.000000E+99

> <Gold.Protein.RotatedTorsions>
[ 6907 6896 6895 6894 ] final   24.08 input  -60.11 | X-H torsion
[ 7974 7965 7964 7962 ] final -132.52 input  175.53 | X-H torsion
[ 8008 7997 7996 7995 ] final   66.18 input   59.86 | X-H torsion
[ 10167 10162 10161 10158 ] final  146.98 input  -65.29 | X-H torsion
[ 10718 10713 10712 10709 ] final  -77.42 input   66.30 | X-H torsion
[ 10763 10752 10751 10750 ] final   98.30 input  -60.55 | X-H torsion
[ 11005 11000 10999 10996 ] final   30.40 input  -57.11 | X-H torsion

> <Gold.Protein.ActiveResidues>
 VAL166  LYS551  ARG553  GLY616  TRP617  ASP618  TYR619  PRO620  LYS621  CYS622 
 ASP623  PHE694  ASN695  SER759  ASP760  ASP761  ALA762  ILE779  LEU786  VAL792 
 PHE793  MET794  SER795  GLU796  ALA797  LYS798  CYS799  TRP800  GLU811  SER814 

> <Gold.Protein.RotatedAtoms>
  151.9520  135.0164  160.0542 H   0  0  0  0  0  0  0  0  0  0  0  0  # atno 6907 bound_to 6896
  152.1944  133.4791  159.5033 H   0  0  0  0  0  0  0  0  0  0  0  0  # atno 6908 bound_to 6896
  150.6941  134.1588  159.4211 H   0  0  0  0  0  0  0  0  0  0  0  0  # atno 6909 bound_to 6896
  144.9278  140.7092  143.4925 H   0  0  0  0  0  0  0  0  0  0  0  0  # atno 7974 bound_to 7965
  155.6733  140.3497  155.4827 H   0  0  0  0  0  0  0  0  0  0  0  0  # atno 8008 bound_to 7997
  155.9669  140.1148  157.0869 H   0  0  0  0  0  0  0  0  0  0  0  0  # atno 8009 bound_to 7997
  154.4156  140.1164  156.5240 H   0  0  0  0  0  0  0  0  0  0  0  0  # atno 8010 bound_to 7997
  139.4898  144.5789  151.6910 H   0  0  0  0  0  0  0  0  0  0  0  0  # atno 10167 bound_to 10162
  156.0145  130.4491  150.3342 H   0  0  0  0  0  0  0  0  0  0  0  0  # atno 10718 bound_to 10713
  153.2873  135.4153  155.1134 H   0  0  0  0  0  0  0  0  0  0  0  0  # atno 10763 bound_to 10752
  154.8509  135.3510  154.6029 H   0  0  0  0  0  0  0  0  0  0  0  0  # atno 10764 bound_to 10752
  153.6451  135.7055  153.5286 H   0  0  0  0  0  0  0  0  0  0  0  0  # atno 10765 bound_to 10752
  140.2948  134.2823  155.7767 H   0  0  0  0  0  0  0  0  0  0  0  0  # atno 11005 bound_to 11000
  145.3191  139.1794  143.4597 LP  0  0  0  0  0  0  0  0  0  0  0  0  # atno 17320 bound_to 7965
  146.3234  140.3206  142.8633 LP  0  0  0  0  0  0  0  0  0  0  0  0  # atno 17321 bound_to 7965
  140.5391  144.0608  150.6081 LP  0  0  0  0  0  0  0  0  0  0  0  0  # atno 17342 bound_to 10162
  140.3624  143.2901  152.0369 LP  0  0  0  0  0  0  0  0  0  0  0  0  # atno 17343 bound_to 10162
  157.1439  131.0303  151.2915 LP  0  0  0  0  0  0  0  0  0  0  0  0  # atno 17370 bound_to 10713
  157.4449  130.7565  149.7101 LP  0  0  0  0  0  0  0  0  0  0  0  0  # atno 17371 bound_to 10713
  141.2139  133.7608  156.9679 LP  0  0  0  0  0  0  0  0  0  0  0  0  # atno 17394 bound_to 11000
  140.1162  134.9445  157.2138 LP  0  0  0  0  0  0  0  0  0  0  0  0  # atno 17395 bound_to 11000

$$$$
