AV-unprocessed.smi:2853|AV-procd|sdf|10973|dock10
  -GOLD-   2272015423D 1   1.00000     0.00000
 Structure written by MMmdl.
 43 44  0  0  0  0  0  0  0  0  1 V2000
  141.3060  136.8011  153.5373 C   0  0  0  0  0  0  0  0  0  0  0  0
  142.7628  136.6632  153.2555 C   0  0  0  0  0  0  0  0  0  0  0  0
  143.2609  135.8872  152.2943 N   0  0  0  0  0  0  0  0  0  0  0  0
  144.6572  135.9248  152.2364 C   0  0  0  0  0  0  0  0  0  0  0  0
  145.3604  135.0912  151.2004 C   0  0  0  0  0  0  0  0  0  0  0  0
  145.1656  133.5736  151.3972 C   0  0  0  0  0  0  0  0  0  0  0  0
  145.9474  132.7421  150.3654 C   0  0  0  0  0  0  0  0  0  0  0  0
  143.6743  133.2065  151.3743 C   0  0  0  0  0  0  0  0  0  0  0  0
  145.2401  136.7469  153.1768 C   0  0  0  0  0  0  0  0  0  0  0  0
  146.5807  136.9169  153.3272 N   0  0  0  0  0  0  0  0  0  0  0  0
  147.2522  137.5848  154.2810 C   0  0  0  0  0  0  0  0  0  0  0  0
  146.7422  138.2775  155.1611 O   0  0  0  0  0  0  0  0  0  0  0  0
  148.5772  137.4097  154.1397 N   0  0  0  0  0  0  0  0  0  0  0  0
  149.6670  137.9547  154.9610 C   0  0  1  0  0  0  0  0  0  0  0  0
  149.2548  137.7976  156.4365 C   0  0  0  0  0  0  0  0  0  0  0  0
  151.0166  137.2622  154.7027 C   0  0  0  0  0  0  0  0  0  0  0  0
  151.9152  138.3742  154.1647 C   0  0  0  0  0  0  0  0  0  0  0  0
  151.3717  139.5470  154.7454 O   0  0  0  0  0  0  0  0  0  0  0  0
  149.9610  139.4372  154.6422 C   0  0  0  0  0  0  0  0  0  0  0  0
  144.0022  137.5054  154.1669 S   0  0  0  0  0  0  0  0  0  0  0  0
  140.7167  136.2842  152.7794 H   0  0  0  0  0  0  0  0  0  0  0  0
  141.0246  137.8542  153.5402 H   0  0  0  0  0  0  0  0  0  0  0  0
  141.0740  136.3734  154.5128 H   0  0  0  0  0  0  0  0  0  0  0  0
  144.9937  135.3710  150.2118 H   0  0  0  0  0  0  0  0  0  0  0  0
  146.4261  135.3224  151.1846 H   0  0  0  0  0  0  0  0  0  0  0  0
  145.5426  133.3129  152.3873 H   0  0  0  0  0  0  0  0  0  0  0  0
  145.6407  132.9841  149.3473 H   0  0  0  0  0  0  0  0  0  0  0  0
  145.7835  131.6747  150.5170 H   0  0  0  0  0  0  0  0  0  0  0  0
  147.0208  132.9164  150.4406 H   0  0  0  0  0  0  0  0  0  0  0  0
  143.2233  133.4398  150.4091 H   0  0  0  0  0  0  0  0  0  0  0  0
  143.1225  133.7521  152.1404 H   0  0  0  0  0  0  0  0  0  0  0  0
  143.5278  132.1423  151.5615 H   0  0  0  0  0  0  0  0  0  0  0  0
  147.1490  136.4431  152.6406 H   0  0  0  0  0  0  0  0  0  0  0  0
  148.8720  136.8222  153.3738 H   0  0  0  0  0  0  0  0  0  0  0  0
  150.0095  138.2125  157.1060 H   0  0  0  0  0  0  0  0  0  0  0  0
  149.1197  136.7482  156.7014 H   0  0  0  0  0  0  0  0  0  0  0  0
  148.3164  138.3136  156.6435 H   0  0  0  0  0  0  0  0  0  0  0  0
  151.4390  136.8803  155.6331 H   0  0  0  0  0  0  0  0  0  0  0  0
  150.9614  136.4180  154.0147 H   0  0  0  0  0  0  0  0  0  0  0  0
  152.9619  138.2375  154.4372 H   0  0  0  0  0  0  0  0  0  0  0  0
  151.8500  138.4403  153.0777 H   0  0  0  0  0  0  0  0  0  0  0  0
  149.6699  139.7187  153.6298 H   0  0  0  0  0  0  0  0  0  0  0  0
  149.4644  140.1284  155.3237 H   0  0  0  0  0  0  0  0  0  0  0  0
  1  2  1  0  0  0  0
  1 21  1  0  0  0  0
  1 22  1  0  0  0  0
  1 23  1  0  0  0  0
  2 20  1  0  0  0  0
  2  3  2  0  0  0  0
  3  4  1  0  0  0  0
  4  5  1  0  0  0  0
  4  9  2  0  0  0  0
  5  6  1  0  0  0  0
  5 24  1  0  0  0  0
  5 25  1  0  0  0  0
  6  7  1  0  0  0  0
  6  8  1  0  0  0  0
  6 26  1  0  0  0  0
  7 27  1  0  0  0  0
  7 28  1  0  0  0  0
  7 29  1  0  0  0  0
  8 30  1  0  0  0  0
  8 31  1  0  0  0  0
  8 32  1  0  0  0  0
  9 10  1  0  0  0  0
  9 20  1  0  0  0  0
 10 11  1  0  0  0  0
 10 33  1  0  0  0  0
 11 12  2  0  0  0  0
 11 13  1  0  0  0  0
 13 14  1  0  0  0  0
 13 34  1  0  0  0  0
 14 19  1  0  0  0  0
 14 15  1  0  0  0  0
 14 16  1  0  0  0  0
 15 35  1  0  0  0  0
 15 36  1  0  0  0  0
 15 37  1  0  0  0  0
 16 17  1  0  0  0  0
 16 38  1  0  0  0  0
 16 39  1  0  0  0  0
 17 18  1  0  0  0  0
 17 40  1  0  0  0  0
 17 41  1  0  0  0  0
 18 19  1  0  0  0  0
 19 42  1  0  0  0  0
 19 43  1  0  0  0  0
M  END
> <s_m_source_file>
AV-unprocessed.smi

> <i_m_source_file_index>
2853

> <i_lp_mmshare_version>
43012

> <i_f3d_flags>
0

> <s_epik_input>
W0NIM11jMW5jKFtDSDJdW0NIXShbQ0gzXSlbQ0gzXSljKHMxKVtOSF1DKD1PKVtOSF1bQ0BAXTIoW0NIM10pW0NIMl1bQ0gyXU9bQ0gyXTI=

> <s_epik_cmdline>
J2VwaWtfcHl0aG9uJywgJy1waCcsICc3LjAnLCAnLXRuJywgJzgnLCAnLW1hJywgJzIwMCcsICctbWV0YWxfYmluZGluZycsICctaW1hZScsICc8aW5maWxlLm1hZT4nLCAnLW9tYWUnLCAnPG91dGZpbGUubWFlPic=

> <r_epik_Ionization_Penalty>
0.000723394

> <r_epik_Ionization_Penalty_Charging>
0

> <r_epik_Ionization_Penalty_Neutral>
0.000723394

> <r_epik_State_Penalty>
0.000446791

> <r_epik_Charging_Adjusted_Penalty>
0.000446791

> <i_epik_Tot_Q>
0

> <i_epik_Tot_abs_Q>
0

> <r_epik_Metal_State_Penalty>
-0

> <b_epik_Metal_Only>
0

> <s_lp_Force_Field>
OPLS_2005

> <r_lp_Energy>
15.1609

> <b_lp_Chiralities_Consistent>
1

> <s_lp_Variant>
AV-unprocessed.smi:2853-1

> <Gold.Version>
5.8.1

> <Gold.Id.Protein>
6NUR|6NUR_protein|mol2

> <Gold.PLP.Fitness>
38.2877

> <Gold.PLP.PLP>
-30.0769

> <Gold.PLP.part.hbond>
-3.0000

> <Gold.PLP.part.metal>
0.0000

> <Gold.PLP.part.buried>
-7.3339

> <Gold.PLP.part.nonpolar>
-21.0568

> <Gold.PLP.part.repulsive>
0.2987

> <Gold.PLP.ligand.clash>
0.0000

> <Gold.PLP.ligand.torsion>
0.3442

> <Gold.PLP.Chemscore.Hbond>
2.9600

> <Gold.PLP.Chemscore.CHOScore>
0.0000

> <Gold.PLP.Chemscore.Metal>
0.0000

> <Gold.Chemscore.Hbonds>
donor molecule, donor type, donor heavy atom, donor atom, acceptor molecule, acceptor atom, score
      L1  H    10    33       P1  7948  0.94
      L1  H    13    34       P1  7948  1.00
      P1  H  7989  7998       L1    18  0.95

> <Gold.PLP.Chemscore.Internal.Correction>
0.0192

> <Gold.Rescore>
     Score         DG    S(hbond)    S(metal)    S(lipo)     H(rot)  DE(clash)    DE(int)     intcor
     13.67     -17.47       1.97        0.00      74.18       1.28       0.19       3.61       ----

> <Gold.Chemscore.Fitness>
13.6729

> <Gold.Chemscore.DG>
-17.4686

> <Gold.Chemscore.ZeroCoef>
-5.4800

> <Gold.Chemscore.Hbond>
1.9682

> <Gold.Chemscore.Metal>
0.0000

> <Gold.Chemscore.Lipo>
74.1823

> <Gold.Chemscore.Internal_Hbond>
0.0000

> <Gold.Chemscore.DEClash>
0.1898

> <Gold.Chemscore.DEInternal>
3.6059

> <Gold.Chemscore.Rot>
1.2753

> <Gold.Chemscore.Internal.Correction>
   9.000000E+99

> <Gold.Chemscore.Hbonds>
donor molecule, donor type, donor heavy atom, donor atom, acceptor molecule, acceptor atom, score
      L1  H    10    33       P1  7948  0.89
      L1  H    13    34       P1  7948  0.98
      P1  H  7989  7998       L1    18  0.11

> <Gold.Chemscore.Hbond.Weighted>
-6.5739

> <Gold.Chemscore.Metal.Weighted>
-0.0000

> <Gold.Chemscore.Lipo.Weighted>
-8.6793

> <Gold.Chemscore.Internal_Hbond.Weighted>
0.0000

> <Gold.Chemscore.DEClash.Weighted>
0.1898

> <Gold.Chemscore.DEInternal.Weighted>
3.6059

> <Gold.Chemscore.Rot.Weighted>
3.2646

> <Gold.Chemscore.Internal.Correction.Weighted>
   9.000000E+99

> <Gold.Protein.RotatedTorsions>
[ 6907 6896 6895 6894 ] final  100.89 input  -60.11 | X-H torsion
[ 7974 7965 7964 7962 ] final -144.81 input  175.53 | X-H torsion
[ 8008 7997 7996 7995 ] final   12.95 input   59.86 | X-H torsion
[ 10167 10162 10161 10158 ] final   67.00 input  -65.29 | X-H torsion
[ 10718 10713 10712 10709 ] final  152.20 input   66.30 | X-H torsion
[ 10763 10752 10751 10750 ] final   83.74 input  -60.55 | X-H torsion
[ 11005 11000 10999 10996 ] final   -9.15 input  -57.11 | X-H torsion

> <Gold.Protein.ActiveResidues>
 VAL166  LYS551  ARG553  GLY616  TRP617  ASP618  TYR619  PRO620  LYS621  CYS622 
 ASP623  PHE694  ASN695  SER759  ASP760  ASP761  ALA762  ILE779  LEU786  VAL792 
 PHE793  MET794  SER795  GLU796  ALA797  LYS798  CYS799  TRP800  GLU811  SER814 

> <Gold.Protein.RotatedAtoms>
  152.5362  134.0209  159.7980 H   0  0  0  0  0  0  0  0  0  0  0  0  # atno 6907 bound_to 6896
  151.0395  133.5711  159.2659 H   0  0  0  0  0  0  0  0  0  0  0  0  # atno 6908 bound_to 6896
  151.2686  135.0684  159.9179 H   0  0  0  0  0  0  0  0  0  0  0  0  # atno 6909 bound_to 6896
  144.8271  140.5662  143.5540 H   0  0  0  0  0  0  0  0  0  0  0  0  # atno 7974 bound_to 7965
  154.8276  140.2894  155.5744 H   0  0  0  0  0  0  0  0  0  0  0  0  # atno 8008 bound_to 7997
  156.3003  140.2538  156.3126 H   0  0  0  0  0  0  0  0  0  0  0  0  # atno 8009 bound_to 7997
  154.9267  140.0384  157.2016 H   0  0  0  0  0  0  0  0  0  0  0  0  # atno 8010 bound_to 7997
  140.0943  144.4960  150.7078 H   0  0  0  0  0  0  0  0  0  0  0  0  # atno 10167 bound_to 10162
  157.2608  131.0798  151.1667 H   0  0  0  0  0  0  0  0  0  0  0  0  # atno 10718 bound_to 10713
  153.1318  135.4680  154.9361 H   0  0  0  0  0  0  0  0  0  0  0  0  # atno 10763 bound_to 10752
  154.7671  135.3148  154.8266 H   0  0  0  0  0  0  0  0  0  0  0  0  # atno 10764 bound_to 10752
  153.8807  135.6894  153.4821 H   0  0  0  0  0  0  0  0  0  0  0  0  # atno 10765 bound_to 10752
  140.7311  133.8748  155.8894 H   0  0  0  0  0  0  0  0  0  0  0  0  # atno 11005 bound_to 11000
  145.4977  139.1485  143.3675 LP  0  0  0  0  0  0  0  0  0  0  0  0  # atno 17320 bound_to 7965
  146.2576  140.5116  142.8867 LP  0  0  0  0  0  0  0  0  0  0  0  0  # atno 17321 bound_to 7965
  140.7012  143.2436  151.4859 LP  0  0  0  0  0  0  0  0  0  0  0  0  # atno 17342 bound_to 10162
  139.5707  144.1936  152.1832 LP  0  0  0  0  0  0  0  0  0  0  0  0  # atno 17343 bound_to 10162
  157.3177  130.6921  149.6251 LP  0  0  0  0  0  0  0  0  0  0  0  0  # atno 17370 bound_to 10713
  155.9664  130.4344  150.5050 LP  0  0  0  0  0  0  0  0  0  0  0  0  # atno 17371 bound_to 10713
  140.9920  134.1266  157.4399 LP  0  0  0  0  0  0  0  0  0  0  0  0  # atno 17394 bound_to 11000
  139.8826  135.0043  156.6241 LP  0  0  0  0  0  0  0  0  0  0  0  0  # atno 17395 bound_to 11000

$$$$
