AV-unprocessed.smi:703|AV-procd|sdf|3430|dock6
  -GOLD-   22720 0413D 1   1.00000     0.00000
 Structure written by MMmdl.
 38 39  0  0  0  0  0  0  0  0  2 V2000
  144.4476  135.9063  152.3646 C   0  0  0  0  0  0  0  0  0  0  0  0
  145.3967  135.9038  153.5704 C   0  0  0  0  0  0  0  0  0  0  0  0
  146.5440  136.8222  153.3820 N   0  3  1  0  0  0  0  0  0  0  0  0
  146.1892  138.2004  152.9941 C   0  0  0  0  0  0  0  0  0  0  0  0
  147.4598  139.0161  153.2435 C   0  0  1  0  0  0  0  0  0  0  0  0
  147.1963  140.5055  153.5025 C   0  0  0  0  0  0  0  0  0  0  0  0
  148.1548  138.2910  154.4112 C   0  0  2  0  0  0  0  0  0  0  0  0
  149.5720  138.0719  154.1062 N   0  0  0  0  0  0  0  0  0  0  0  0
  150.6812  137.9392  155.4191 S   0  0  0  0  0  0  0  0  0  0  0  0
  149.8933  137.8862  156.6601 O   0  0  0  0  0  0  0  0  0  0  0  0
  151.6145  136.8497  155.0947 O   0  0  0  0  0  0  0  0  0  0  0  0
  151.5777  139.5478  155.3552 C   0  0  0  0  0  0  0  0  0  0  0  0
  151.8570  140.0253  156.7520 C   0  0  0  0  0  0  0  0  0  0  0  0
  151.2390  141.0911  157.4630 C   0  0  0  0  0  0  0  0  0  0  0  0
  151.8724  141.0767  158.6722 C   0  0  0  0  0  0  0  0  0  0  0  0
  152.7990  140.0862  158.7117 O   0  0  0  0  0  0  0  0  0  0  0  0
  152.7805  139.4195  157.4813 N   0  0  0  0  0  0  0  0  0  0  0  0
  147.4157  136.9517  154.5669 C   0  0  0  0  0  0  0  0  0  0  0  0
  143.6522  135.1731  152.5000 H   0  0  0  0  0  0  0  0  0  0  0  0
  144.9765  135.6540  151.4449 H   0  0  0  0  0  0  0  0  0  0  0  0
  143.9743  136.8784  152.2253 H   0  0  0  0  0  0  0  0  0  0  0  0
  144.8548  136.1608  154.4817 H   0  0  0  0  0  0  0  0  0  0  0  0
  145.7820  134.8929  153.7093 H   0  0  0  0  0  0  0  0  0  0  0  0
  145.8604  138.2610  151.9563 H   0  0  0  0  0  0  0  0  0  0  0  0
  145.3769  138.5591  153.6288 H   0  0  0  0  0  0  0  0  0  0  0  0
  148.0789  138.9299  152.3484 H   0  0  0  0  0  0  0  0  0  0  0  0
  146.5679  140.6527  154.3816 H   0  0  0  0  0  0  0  0  0  0  0  0
  146.6943  140.9680  152.6523 H   0  0  0  0  0  0  0  0  0  0  0  0
  148.1309  141.0421  153.6682 H   0  0  0  0  0  0  0  0  0  0  0  0
  148.0615  138.8612  155.3371 H   0  0  0  0  0  0  0  0  0  0  0  0
  149.6988  137.3112  153.4388 H   0  0  0  0  0  0  0  0  0  0  0  0
  152.5030  139.4080  154.7970 H   0  0  0  0  0  0  0  0  0  0  0  0
  150.9616  140.2616  154.8074 H   0  0  0  0  0  0  0  0  0  0  0  0
  150.4584  141.7618  157.1361 H   0  0  0  0  0  0  0  0  0  0  0  0
  151.7807  141.6765  159.5656 H   0  0  0  0  0  0  0  0  0  0  0  0
  146.8008  136.9846  155.4681 H   0  0  0  0  0  0  0  0  0  0  0  0
  148.0843  136.0945  154.6586 H   0  0  0  0  0  0  0  0  0  0  0  0
  147.1212  136.4491  152.6419 H   0  0  0  0  0  0  0  0  0  0  0  0
  1  2  1  0  0  0  0
  1 19  1  0  0  0  0
  1 20  1  0  0  0  0
  1 21  1  0  0  0  0
  2  3  1  0  0  0  0
  2 22  1  0  0  0  0
  2 23  1  0  0  0  0
  3 18  1  0  0  0  0
  3  4  1  0  0  0  0
  3 38  1  0  0  0  0
  4  5  1  0  0  0  0
  4 24  1  0  0  0  0
  4 25  1  0  0  0  0
  5  6  1  0  0  0  0
  5  7  1  0  0  0  0
  5 26  1  0  0  0  0
  6 27  1  0  0  0  0
  6 28  1  0  0  0  0
  6 29  1  0  0  0  0
  7  8  1  0  0  0  0
  7 18  1  0  0  0  0
  7 30  1  0  0  0  0
  8  9  1  0  0  0  0
  8 31  1  0  0  0  0
  9 10  2  0  0  0  0
  9 11  2  0  0  0  0
  9 12  1  0  0  0  0
 12 13  1  0  0  0  0
 12 32  1  0  0  0  0
 12 33  1  0  0  0  0
 13 17  2  0  0  0  0
 13 14  1  0  0  0  0
 14 15  2  0  0  0  0
 14 34  1  0  0  0  0
 15 16  1  0  0  0  0
 15 35  1  0  0  0  0
 16 17  1  0  0  0  0
 18 36  1  0  0  0  0
 18 37  1  0  0  0  0
M  CHG  1   3   1
M  END
> <s_m_source_file>
AV-unprocessed.smi

> <i_m_source_file_index>
703

> <i_lp_mmshare_version>
43012

> <i_f3d_flags>
0

> <s_epik_input>
W0NIM11bQ0gyXU4xW0NIMl1bQ0BASF0oW0NIM10pW0NASF0oW0NIMl0xKVtOSF1TKD1PKSg9TylbQ0gyXWMyW2NIXVtjSF1vbjI=

> <s_epik_cmdline>
J2VwaWtfcHl0aG9uJywgJy1waCcsICc3LjAnLCAnLXRuJywgJzgnLCAnLW1hJywgJzIwMCcsICctbWV0YWxfYmluZGluZycsICctaW1hZScsICc8aW5maWxlLm1hZT4nLCAnLW9tYWUnLCAnPG91dGZpbGUubWFlPic=

> <r_epik_Ionization_Penalty>
0.00324529

> <r_epik_Ionization_Penalty_Charging>
0.0019384

> <r_epik_Ionization_Penalty_Neutral>
0.00130689

> <r_epik_State_Penalty>
0.00218682

> <r_epik_Charging_Adjusted_Penalty>
0.00412522

> <i_epik_Tot_Q>
1

> <i_epik_Tot_abs_Q>
1

> <r_epik_Metal_State_Penalty>
0.310831

> <b_epik_Metal_Only>
0

> <s_lp_Force_Field>
OPLS_2005

> <r_lp_Energy>
19.0456

> <b_lp_Chiralities_Consistent>
1

> <s_lp_Variant>
AV-unprocessed.smi:703-5

> <Gold.Version>
5.8.1

> <Gold.Id.Protein>
6NUR|6NUR_protein|mol2

> <Gold.PLP.Fitness>
36.3473

> <Gold.PLP.PLP>
-23.7262

> <Gold.PLP.part.hbond>
-4.6325

> <Gold.PLP.part.metal>
0.0000

> <Gold.PLP.part.buried>
-2.0933

> <Gold.PLP.part.nonpolar>
-17.7808

> <Gold.PLP.part.repulsive>
0.1141

> <Gold.PLP.ligand.clash>
0.0000

> <Gold.PLP.ligand.torsion>
1.1972

> <Gold.PLP.Chemscore.Hbond>
4.9520

> <Gold.PLP.Chemscore.CHOScore>
0.0000

> <Gold.PLP.Chemscore.Metal>
0.0000

> <Gold.Chemscore.Hbonds>
donor molecule, donor type, donor heavy atom, donor atom, acceptor molecule, acceptor atom, score
      L1  H     3    38       P1  7948  1.95
      L1  H     8    31       P1  7948  0.99
      P1  H  7997  8009       L1    17  0.90
      P1  H 10752 10763       L1    11  1.00

> <Gold.PLP.Chemscore.Internal.Correction>
0.1596

> <Gold.Rescore>
     Score         DG    S(hbond)    S(metal)    S(lipo)     H(rot)  DE(clash)    DE(int)     intcor
     16.31     -17.99       3.35        0.00      53.80       1.94       0.05       1.63       ----

> <Gold.Chemscore.Fitness>
16.3116

> <Gold.Chemscore.DG>
-17.9930

> <Gold.Chemscore.ZeroCoef>
-5.4800

> <Gold.Chemscore.Hbond>
3.3488

> <Gold.Chemscore.Metal>
0.0000

> <Gold.Chemscore.Lipo>
53.7978

> <Gold.Chemscore.Internal_Hbond>
0.0000

> <Gold.Chemscore.DEClash>
0.0515

> <Gold.Chemscore.DEInternal>
1.6299

> <Gold.Chemscore.Rot>
1.9400

> <Gold.Chemscore.Internal.Correction>
   9.000000E+99

> <Gold.Chemscore.Hbonds>
donor molecule, donor type, donor heavy atom, donor atom, acceptor molecule, acceptor atom, score
      L1  H     3    38       P1  7948  0.90
      L1  H     8    31       P1  7948  0.66
      P1  H  7997  8009       L1    17  0.08
      P1  H 10752 10763       L1    11  0.99

> <Gold.Chemscore.Hbond.Weighted>
-11.1851

> <Gold.Chemscore.Metal.Weighted>
-0.0000

> <Gold.Chemscore.Lipo.Weighted>
-6.2943

> <Gold.Chemscore.Internal_Hbond.Weighted>
0.0000

> <Gold.Chemscore.DEClash.Weighted>
0.0515

> <Gold.Chemscore.DEInternal.Weighted>
1.6299

> <Gold.Chemscore.Rot.Weighted>
4.9665

> <Gold.Chemscore.Internal.Correction.Weighted>
   9.000000E+99

> <Gold.Protein.RotatedTorsions>
[ 6907 6896 6895 6894 ] final  -56.24 input  -60.11 | X-H torsion
[ 7974 7965 7964 7962 ] final  -61.79 input  175.53 | X-H torsion
[ 8008 7997 7996 7995 ] final -172.43 input   59.86 | X-H torsion
[ 10167 10162 10161 10158 ] final  107.27 input  -65.29 | X-H torsion
[ 10718 10713 10712 10709 ] final   73.31 input   66.30 | X-H torsion
[ 10763 10752 10751 10750 ] final   56.48 input  -60.55 | X-H torsion
[ 11005 11000 10999 10996 ] final  128.31 input  -57.11 | X-H torsion

> <Gold.Protein.ActiveResidues>
 VAL166  LYS551  ARG553  GLY616  TRP617  ASP618  TYR619  PRO620  LYS621  CYS622 
 ASP623  PHE694  ASN695  SER759  ASP760  ASP761  ALA762  ILE779  LEU786  VAL792 
 PHE793  MET794  SER795  GLU796  ALA797  LYS798  CYS799  TRP800  GLU811  SER814 

> <Gold.Protein.RotatedAtoms>
  150.8184  134.7378  159.6749 H   0  0  0  0  0  0  0  0  0  0  0  0  # atno 6907 bound_to 6896
  152.4301  134.5791  159.9952 H   0  0  0  0  0  0  0  0  0  0  0  0  # atno 6908 bound_to 6896
  151.5981  133.3322  159.3077 H   0  0  0  0  0  0  0  0  0  0  0  0  # atno 6909 bound_to 6896
  145.7992  140.8665  143.0240 H   0  0  0  0  0  0  0  0  0  0  0  0  # atno 7974 bound_to 7965
  155.9444  140.1114  157.1029 H   0  0  0  0  0  0  0  0  0  0  0  0  # atno 8008 bound_to 7997
  154.4096  140.1212  156.5036 H   0  0  0  0  0  0  0  0  0  0  0  0  # atno 8009 bound_to 7997
  155.6921  140.3472  155.4900 H   0  0  0  0  0  0  0  0  0  0  0  0  # atno 8010 bound_to 7997
  139.6940  144.7104  151.1298 H   0  0  0  0  0  0  0  0  0  0  0  0  # atno 10167 bound_to 10162
  157.6542  130.9622  150.1051 H   0  0  0  0  0  0  0  0  0  0  0  0  # atno 10718 bound_to 10713
  152.9833  135.5675  154.5235 H   0  0  0  0  0  0  0  0  0  0  0  0  # atno 10763 bound_to 10752
  154.4719  135.2785  155.1638 H   0  0  0  0  0  0  0  0  0  0  0  0  # atno 10764 bound_to 10752
  154.3182  135.6274  153.5549 H   0  0  0  0  0  0  0  0  0  0  0  0  # atno 10765 bound_to 10752
  139.9554  134.9614  156.8984 H   0  0  0  0  0  0  0  0  0  0  0  0  # atno 11005 bound_to 11000
  144.6771  140.0234  143.7483 LP  0  0  0  0  0  0  0  0  0  0  0  0  # atno 17320 bound_to 7965
  145.9896  139.3004  143.0993 LP  0  0  0  0  0  0  0  0  0  0  0  0  # atno 17321 bound_to 7965
  140.7691  143.5518  150.9196 LP  0  0  0  0  0  0  0  0  0  0  0  0  # atno 17342 bound_to 10162
  139.9196  143.6621  152.3099 LP  0  0  0  0  0  0  0  0  0  0  0  0  # atno 17343 bound_to 10162
  156.1963  130.3657  149.8845 LP  0  0  0  0  0  0  0  0  0  0  0  0  # atno 17370 bound_to 10713
  156.6761  130.8839  151.3569 LP  0  0  0  0  0  0  0  0  0  0  0  0  # atno 17371 bound_to 10713
  140.5622  134.0524  155.7402 LP  0  0  0  0  0  0  0  0  0  0  0  0  # atno 17394 bound_to 11000
  141.1224  133.9439  157.2702 LP  0  0  0  0  0  0  0  0  0  0  0  0  # atno 17395 bound_to 11000

$$$$
