AV-unprocessed.smi:1033|AV-procd|sdf|4507|dock4
  -GOLD-   22720 2513D 1   1.00000     0.00000
 Structure written by MMmdl.
 57 59  0  0  0  0  0  0  0  0  3 V2000
  150.5122  145.3475  160.2560 C   0  0  0  0  0  0  0  0  0  0  0  0
  151.4843  144.1923  160.4215 C   0  0  0  0  0  0  0  0  0  0  0  0
  152.0319  143.9330  161.6981 C   0  0  0  0  0  0  0  0  0  0  0  0
  152.9419  142.8714  161.8936 C   0  0  0  0  0  0  0  0  0  0  0  0
  153.5905  142.4428  163.0389 N   0  0  0  0  0  0  0  0  0  0  0  0
  154.3015  141.4185  162.5778 C   0  0  0  0  0  0  0  0  0  0  0  0
  154.1769  141.1210  161.2698 N   0  0  0  0  0  0  0  0  0  0  0  0
  154.8371  140.0484  160.5483 C   0  0  0  0  0  0  0  0  0  0  0  0
  154.5689  138.6634  161.1705 C   0  0  1  0  0  0  0  0  0  0  0  0
  155.0959  137.6859  160.2969 O   0  0  0  0  0  0  0  0  0  0  0  0
  155.2018  138.4771  162.5672 C   0  0  0  0  0  0  0  0  0  0  0  0
  154.9304  137.1318  163.1355 N   0  3  2  0  0  0  0  0  0  0  0  0
  154.7425  137.1382  164.6092 C   0  0  0  0  0  0  0  0  0  0  0  0
  154.3807  135.7352  165.1279 C   0  0  0  0  0  0  0  0  0  0  0  0
  155.4007  134.7345  164.7283 N   0  3  1  0  0  0  0  0  0  0  0  0
  155.1279  133.3891  165.2973 C   0  0  0  0  0  0  0  0  0  0  0  0
  156.3958  132.5172  165.3869 C   0  0  2  0  0  0  0  0  0  0  0  0
  156.0911  131.1059  165.9054 C   0  0  0  0  0  0  0  0  0  0  0  0
  157.3127  133.1252  166.2740 O   0  0  0  0  0  0  0  0  0  0  0  0
  155.5900  134.7289  163.2548 C   0  0  0  0  0  0  0  0  0  0  0  0
  155.9512  136.1323  162.7359 C   0  0  0  0  0  0  0  0  0  0  0  0
  153.2904  142.0682  160.7685 C   0  0  0  0  0  0  0  0  0  0  0  0
  152.7535  142.3171  159.4929 C   0  0  0  0  0  0  0  0  0  0  0  0
  151.8454  143.3817  159.3152 C   0  0  0  0  0  0  0  0  0  0  0  0
  151.2709  143.6430  157.9341 C   0  0  0  0  0  0  0  0  0  0  0  0
  150.3670  145.8838  161.1942 H   0  0  0  0  0  0  0  0  0  0  0  0
  149.5396  144.9834  159.9244 H   0  0  0  0  0  0  0  0  0  0  0  0
  150.8861  146.0595  159.5198 H   0  0  0  0  0  0  0  0  0  0  0  0
  151.7586  144.5514  162.5407 H   0  0  0  0  0  0  0  0  0  0  0  0
  154.9419  140.8444  163.2317 H   0  0  0  0  0  0  0  0  0  0  0  0
  154.4935  140.0730  159.5132 H   0  0  0  0  0  0  0  0  0  0  0  0
  155.9085  140.2544  160.5271 H   0  0  0  0  0  0  0  0  0  0  0  0
  153.4914  138.5139  161.2227 H   0  0  0  0  0  0  0  0  0  0  0  0
  154.5296  137.6147  159.5430 H   0  0  0  0  0  0  0  0  0  0  0  0
  156.2782  138.6344  162.4805 H   0  0  0  0  0  0  0  0  0  0  0  0
  154.8424  139.2305  163.2693 H   0  0  0  0  0  0  0  0  0  0  0  0
  155.6568  137.4881  165.0917 H   0  0  0  0  0  0  0  0  0  0  0  0
  153.9534  137.8346  164.8907 H   0  0  0  0  0  0  0  0  0  0  0  0
  154.2997  135.7649  166.2153 H   0  0  0  0  0  0  0  0  0  0  0  0
  153.4045  135.4331  164.7444 H   0  0  0  0  0  0  0  0  0  0  0  0
  154.7085  133.4913  166.2997 H   0  0  0  0  0  0  0  0  0  0  0  0
  154.3625  132.8928  164.6983 H   0  0  0  0  0  0  0  0  0  0  0  0
  156.8728  132.4278  164.4116 H   0  0  0  0  0  0  0  0  0  0  0  0
  155.4075  130.5827  165.2361 H   0  0  0  0  0  0  0  0  0  0  0  0
  155.6316  131.1337  166.8942 H   0  0  0  0  0  0  0  0  0  0  0  0
  157.0003  130.5080  165.9779 H   0  0  0  0  0  0  0  0  0  0  0  0
  156.8654  133.8060  166.7542 H   0  0  0  0  0  0  0  0  0  0  0  0
  156.3806  134.0340  162.9739 H   0  0  0  0  0  0  0  0  0  0  0  0
  154.6768  134.3781  162.7713 H   0  0  0  0  0  0  0  0  0  0  0  0
  156.0317  136.1026  161.6485 H   0  0  0  0  0  0  0  0  0  0  0  0
  156.9271  136.4353  163.1192 H   0  0  0  0  0  0  0  0  0  0  0  0
  153.0405  141.6967  158.6567 H   0  0  0  0  0  0  0  0  0  0  0  0
  151.6292  142.9125  157.2082 H   0  0  0  0  0  0  0  0  0  0  0  0
  151.5605  144.6335  157.5822 H   0  0  0  0  0  0  0  0  0  0  0  0
  150.1824  143.5866  157.9554 H   0  0  0  0  0  0  0  0  0  0  0  0
  156.2724  135.0379  165.1400 H   0  0  0  0  0  0  0  0  0  0  0  0
  154.0585  136.8271  162.7251 H   0  0  0  0  0  0  0  0  0  0  0  0
  1  2  1  0  0  0  0
  1 26  1  0  0  0  0
  1 27  1  0  0  0  0
  1 28  1  0  0  0  0
  2 24  1  0  0  0  0
  2  3  2  0  0  0  0
  3  4  1  0  0  0  0
  3 29  1  0  0  0  0
  4 22  2  0  0  0  0
  4  5  1  0  0  0  0
  5  6  2  0  0  0  0
  6  7  1  0  0  0  0
  6 30  1  0  0  0  0
  7  8  1  0  0  0  0
  7 22  1  0  0  0  0
  8  9  1  0  0  0  0
  8 31  1  0  0  0  0
  8 32  1  0  0  0  0
  9 10  1  0  0  0  0
  9 11  1  0  0  0  0
  9 33  1  0  0  0  0
 10 34  1  0  0  0  0
 11 12  1  0  0  0  0
 11 35  1  0  0  0  0
 11 36  1  0  0  0  0
 12 21  1  0  0  0  0
 12 13  1  0  0  0  0
 12 57  1  0  0  0  0
 13 14  1  0  0  0  0
 13 37  1  0  0  0  0
 13 38  1  0  0  0  0
 14 15  1  0  0  0  0
 14 39  1  0  0  0  0
 14 40  1  0  0  0  0
 15 16  1  0  0  0  0
 15 20  1  0  0  0  0
 15 56  1  0  0  0  0
 16 17  1  0  0  0  0
 16 41  1  0  0  0  0
 16 42  1  0  0  0  0
 17 18  1  0  0  0  0
 17 19  1  0  0  0  0
 17 43  1  0  0  0  0
 18 44  1  0  0  0  0
 18 45  1  0  0  0  0
 18 46  1  0  0  0  0
 19 47  1  0  0  0  0
 20 21  1  0  0  0  0
 20 48  1  0  0  0  0
 20 49  1  0  0  0  0
 21 50  1  0  0  0  0
 21 51  1  0  0  0  0
 22 23  1  0  0  0  0
 23 24  2  0  0  0  0
 23 52  1  0  0  0  0
 24 25  1  0  0  0  0
 25 53  1  0  0  0  0
 25 54  1  0  0  0  0
 25 55  1  0  0  0  0
M  CHG  1  12   1
M  CHG  1  15   1
M  END
> <s_m_source_file>
AV-unprocessed.smi

> <i_m_source_file_index>
1033

> <i_lp_mmshare_version>
43012

> <i_f3d_flags>
0

> <s_epik_input>
W0NIM11jKFtjSF0xKWMoW0NIM10pW2NIXWMoYzEyKW4oW2NIXW4yKVtDSDJdW0NASF0oW09IXSlbQ0gyXU4zW0NIMl1bQ0gyXU4oW0NIMl1bQ0gyXTMpW0NIMl1bQ0BIXShbQ0gzXSlbT0hd

> <s_epik_cmdline>
J2VwaWtfcHl0aG9uJywgJy1waCcsICc3LjAnLCAnLXRuJywgJzgnLCAnLW1hJywgJzIwMCcsICctbWV0YWxfYmluZGluZycsICctaW1hZScsICc8aW5maWxlLm1hZT4nLCAnLW9tYWUnLCAnPG91dGZpbGUubWFlPic=

> <r_epik_Ionization_Penalty>
3.16016

> <r_epik_Ionization_Penalty_Charging>
3.07679

> <r_epik_Ionization_Penalty_Neutral>
0.083365

> <r_epik_State_Penalty>
2.09701

> <r_epik_Charging_Adjusted_Penalty>
5.1738

> <i_epik_Tot_Q>
2

> <i_epik_Tot_abs_Q>
2

> <r_epik_Metal_State_Penalty>
2.02534

> <b_epik_Metal_Only>
0

> <s_lp_Force_Field>
OPLS_2005

> <r_lp_Energy>
25.863

> <b_lp_Chiralities_Consistent>
1

> <s_lp_Variant>
AV-unprocessed.smi:1033-18

> <Gold.Version>
5.8.1

> <Gold.Id.Protein>
6NUR|6NUR_protein|mol2

> <Gold.PLP.Fitness>
53.0319

> <Gold.PLP.PLP>
-54.1931

> <Gold.PLP.part.hbond>
0.0000

> <Gold.PLP.part.metal>
0.0000

> <Gold.PLP.part.buried>
-2.4285

> <Gold.PLP.part.nonpolar>
-51.9405

> <Gold.PLP.part.repulsive>
0.0735

> <Gold.PLP.ligand.clash>
0.0000

> <Gold.PLP.ligand.torsion>
0.6404

> <Gold.PLP.Chemscore.Hbond>
0.0000

> <Gold.PLP.Chemscore.CHOScore>
0.0000

> <Gold.PLP.Chemscore.Metal>
0.0000

> <Gold.PLP.Chemscore.Internal.Correction>
0.1194

> <Gold.Rescore>
     Score         DG    S(hbond)    S(metal)    S(lipo)     H(rot)  DE(clash)    DE(int)     intcor
     13.91     -16.49       0.00        0.00     162.73       3.14       1.10       1.48       ----

> <Gold.Chemscore.Fitness>
13.9083

> <Gold.Chemscore.DG>
-16.4864

> <Gold.Chemscore.ZeroCoef>
-5.4800

> <Gold.Chemscore.Hbond>
0.0000

> <Gold.Chemscore.Metal>
0.0000

> <Gold.Chemscore.Lipo>
162.7319

> <Gold.Chemscore.Internal_Hbond>
0.0000

> <Gold.Chemscore.DEClash>
1.1006

> <Gold.Chemscore.DEInternal>
1.4775

> <Gold.Chemscore.Rot>
3.1380

> <Gold.Chemscore.Internal.Correction>
   9.000000E+99

> <Gold.Chemscore.Hbond.Weighted>
-0.0000

> <Gold.Chemscore.Metal.Weighted>
-0.0000

> <Gold.Chemscore.Lipo.Weighted>
-19.0396

> <Gold.Chemscore.Internal_Hbond.Weighted>
0.0000

> <Gold.Chemscore.DEClash.Weighted>
1.1006

> <Gold.Chemscore.DEInternal.Weighted>
1.4775

> <Gold.Chemscore.Rot.Weighted>
8.0332

> <Gold.Chemscore.Internal.Correction.Weighted>
   9.000000E+99

> <Gold.Protein.RotatedTorsions>
[ 6907 6896 6895 6894 ] final -159.97 input  -60.11 | X-H torsion
[ 7974 7965 7964 7962 ] final   50.15 input  175.53 | X-H torsion
[ 8008 7997 7996 7995 ] final   89.70 input   59.86 | X-H torsion
[ 10167 10162 10161 10158 ] final -114.70 input  -65.29 | X-H torsion
[ 10718 10713 10712 10709 ] final -136.21 input   66.30 | X-H torsion
[ 10763 10752 10751 10750 ] final   20.44 input  -60.55 | X-H torsion
[ 11005 11000 10999 10996 ] final    3.92 input  -57.11 | X-H torsion

> <Gold.Protein.ActiveResidues>
 VAL166  LYS551  ARG553  GLY616  TRP617  ASP618  TYR619  PRO620  LYS621  CYS622 
 ASP623  PHE694  ASN695  SER759  ASP760  ASP761  ALA762  ILE779  LEU786  VAL792 
 PHE793  MET794  SER795  GLU796  ALA797  LYS798  CYS799  TRP800  GLU811  SER814 

> <Gold.Protein.RotatedAtoms>
  151.3418  133.3959  159.2671 H   0  0  0  0  0  0  0  0  0  0  0  0  # atno 6907 bound_to 6896
  150.9872  134.9215  159.7889 H   0  0  0  0  0  0  0  0  0  0  0  0  # atno 6908 bound_to 6896
  152.5236  134.3382  159.9260 H   0  0  0  0  0  0  0  0  0  0  0  0  # atno 6909 bound_to 6896
  146.0039  139.4469  142.9998 H   0  0  0  0  0  0  0  0  0  0  0  0  # atno 7974 bound_to 7965
  156.0031  140.3358  155.6865 H   0  0  0  0  0  0  0  0  0  0  0  0  # atno 8008 bound_to 7997
  155.6262  140.0680  157.2681 H   0  0  0  0  0  0  0  0  0  0  0  0  # atno 8009 bound_to 7997
  154.4256  140.1767  156.1412 H   0  0  0  0  0  0  0  0  0  0  0  0  # atno 8010 bound_to 7997
  140.0981  143.4638  152.1829 H   0  0  0  0  0  0  0  0  0  0  0  0  # atno 10167 bound_to 10162
  156.2745  130.7285  151.1263 H   0  0  0  0  0  0  0  0  0  0  0  0  # atno 10718 bound_to 10713
  153.1077  135.6689  153.9556 H   0  0  0  0  0  0  0  0  0  0  0  0  # atno 10763 bound_to 10752
  153.9109  135.3025  155.3450 H   0  0  0  0  0  0  0  0  0  0  0  0  # atno 10764 bound_to 10752
  154.7498  135.5040  153.9345 H   0  0  0  0  0  0  0  0  0  0  0  0  # atno 10765 bound_to 10752
  140.5877  133.9953  155.8075 H   0  0  0  0  0  0  0  0  0  0  0  0  # atno 11005 bound_to 11000
  145.7445  140.9996  143.1283 LP  0  0  0  0  0  0  0  0  0  0  0  0  # atno 17320 bound_to 7965
  144.6929  139.9139  143.7465 LP  0  0  0  0  0  0  0  0  0  0  0  0  # atno 17321 bound_to 7965
  139.5686  144.7450  151.3952 LP  0  0  0  0  0  0  0  0  0  0  0  0  # atno 17342 bound_to 10162
  140.6992  143.7673  150.7376 LP  0  0  0  0  0  0  0  0  0  0  0  0  # atno 17343 bound_to 10162
  157.7295  131.0624  150.5771 LP  0  0  0  0  0  0  0  0  0  0  0  0  # atno 17370 bound_to 10713
  156.5871  130.4319  149.5952 LP  0  0  0  0  0  0  0  0  0  0  0  0  # atno 17371 bound_to 10713
  141.0955  133.9850  157.3167 LP  0  0  0  0  0  0  0  0  0  0  0  0  # atno 17394 bound_to 11000
  139.9288  135.0201  156.8328 LP  0  0  0  0  0  0  0  0  0  0  0  0  # atno 17395 bound_to 11000

$$$$
