AV-unprocessed.smi:877|AV-procd|sdf|4028|dock4
  -GOLD-   22720 1523D 1   1.00000     0.00000
 Structure written by MMmdl.
 43 45  0  0  0  0  0  0  0  0  1 V2000
  156.4743  138.0584  165.7608 C   0  0  0  0  0  0  0  0  0  0  0  0
  156.7197  139.0095  164.7352 O   0  0  0  0  0  0  0  0  0  0  0  0
  155.9365  138.9574  163.6021 C   0  0  0  0  0  0  0  0  0  0  0  0
  154.9281  137.9869  163.3746 C   0  0  0  0  0  0  0  0  0  0  0  0
  154.1742  138.0072  162.1852 C   0  0  0  0  0  0  0  0  0  0  0  0
  154.4144  138.9928  161.2073 C   0  0  0  0  0  0  0  0  0  0  0  0
  153.6008  139.0043  159.9243 C   0  0  0  0  0  0  0  0  0  0  0  0
  153.0925  140.3687  159.5437 C   0  0  0  0  0  0  0  0  0  0  0  0
  153.5032  141.4801  160.1602 N   0  0  0  0  0  0  0  0  0  0  0  0
  152.7971  142.4728  159.5117 C   0  0  0  0  0  0  0  0  0  0  0  0
  152.7970  143.8733  159.6999 C   0  0  0  0  0  0  0  0  0  0  0  0
  151.9765  144.7003  158.9051 C   0  0  0  0  0  0  0  0  0  0  0  0
  151.1451  144.1396  157.9140 C   0  0  0  0  0  0  0  0  0  0  0  0
  151.1301  142.7462  157.7109 C   0  0  0  0  0  0  0  0  0  0  0  0
  151.9525  141.9257  158.5062 C   0  0  0  0  0  0  0  0  0  0  0  0
  152.1708  140.5527  158.5624 N   0  0  0  0  0  0  0  0  0  0  0  0
  151.5188  139.5574  157.7208 C   0  0  0  0  0  0  0  0  0  0  0  0
  151.7871  139.7858  156.2194 C   0  0  1  0  0  0  0  0  0  0  0  0
  153.0653  139.2807  155.8855 O   0  0  0  0  0  0  0  0  0  0  0  0
  150.7382  139.0869  155.3386 C   0  0  0  0  0  0  0  0  0  0  0  0
  150.9010  139.4697  153.9886 O   0  0  0  0  0  0  0  0  0  0  0  0
  155.4148  139.9608  161.4275 C   0  0  0  0  0  0  0  0  0  0  0  0
  156.1680  139.9394  162.6169 C   0  0  0  0  0  0  0  0  0  0  0  0
  157.1683  138.2293  166.5837 H   0  0  0  0  0  0  0  0  0  0  0  0
  156.6296  137.0387  165.4057 H   0  0  0  0  0  0  0  0  0  0  0  0
  155.4625  138.1535  166.1575 H   0  0  0  0  0  0  0  0  0  0  0  0
  154.7136  137.2142  164.0967 H   0  0  0  0  0  0  0  0  0  0  0  0
  153.4112  137.2596  162.0231 H   0  0  0  0  0  0  0  0  0  0  0  0
  154.2329  138.5998  159.1349 H   0  0  0  0  0  0  0  0  0  0  0  0
  152.7493  138.3296  160.0185 H   0  0  0  0  0  0  0  0  0  0  0  0
  153.4297  144.3117  160.4573 H   0  0  0  0  0  0  0  0  0  0  0  0
  151.9849  145.7695  159.0575 H   0  0  0  0  0  0  0  0  0  0  0  0
  150.5190  144.7798  157.3099 H   0  0  0  0  0  0  0  0  0  0  0  0
  150.4954  142.3132  156.9521 H   0  0  0  0  0  0  0  0  0  0  0  0
  151.8214  138.5562  158.0266 H   0  0  0  0  0  0  0  0  0  0  0  0
  150.4465  139.6110  157.9130 H   0  0  0  0  0  0  0  0  0  0  0  0
  151.7762  140.8586  156.0198 H   0  0  0  0  0  0  0  0  0  0  0  0
  153.0182  138.3366  155.8817 H   0  0  0  0  0  0  0  0  0  0  0  0
  150.7969  138.0015  155.4318 H   0  0  0  0  0  0  0  0  0  0  0  0
  149.7337  139.3818  155.6439 H   0  0  0  0  0  0  0  0  0  0  0  0
  151.2746  138.7434  153.5132 H   0  0  0  0  0  0  0  0  0  0  0  0
  155.6114  140.7188  160.6832 H   0  0  0  0  0  0  0  0  0  0  0  0
  156.9335  140.6853  162.7741 H   0  0  0  0  0  0  0  0  0  0  0  0
  1  2  1  0  0  0  0
  1 24  1  0  0  0  0
  1 25  1  0  0  0  0
  1 26  1  0  0  0  0
  2  3  1  0  0  0  0
  3 23  1  0  0  0  0
  3  4  2  0  0  0  0
  4  5  1  0  0  0  0
  4 27  1  0  0  0  0
  5  6  2  0  0  0  0
  5 28  1  0  0  0  0
  6  7  1  0  0  0  0
  6 22  1  0  0  0  0
  7  8  1  0  0  0  0
  7 29  1  0  0  0  0
  7 30  1  0  0  0  0
  8 16  1  0  0  0  0
  8  9  2  0  0  0  0
  9 10  1  0  0  0  0
 10 15  2  0  0  0  0
 10 11  1  0  0  0  0
 11 12  2  0  0  0  0
 11 31  1  0  0  0  0
 12 13  1  0  0  0  0
 12 32  1  0  0  0  0
 13 14  2  0  0  0  0
 13 33  1  0  0  0  0
 14 15  1  0  0  0  0
 14 34  1  0  0  0  0
 15 16  1  0  0  0  0
 16 17  1  0  0  0  0
 17 18  1  0  0  0  0
 17 35  1  0  0  0  0
 17 36  1  0  0  0  0
 18 19  1  0  0  0  0
 18 20  1  0  0  0  0
 18 37  1  0  0  0  0
 19 38  1  0  0  0  0
 20 21  1  0  0  0  0
 20 39  1  0  0  0  0
 20 40  1  0  0  0  0
 21 41  1  0  0  0  0
 22 23  2  0  0  0  0
 22 42  1  0  0  0  0
 23 43  1  0  0  0  0
M  END
> <s_m_source_file>
AV-unprocessed.smi

> <i_m_source_file_index>
877

> <i_lp_mmshare_version>
43012

> <i_f3d_flags>
0

> <s_epik_input>
W0NIM11PYzFbY0hdW2NIXWMoW2NIXVtjSF0xKVtDSDJdYyhuMiluKFtDSDJdW0NASF0oW09IXSlbQ0gyXVtPSF0pYyhjMjMpW2NIXVtjSF1bY0hdW2NIXTM=

> <s_epik_cmdline>
J2VwaWtfcHl0aG9uJywgJy1waCcsICc3LjAnLCAnLXRuJywgJzgnLCAnLW1hJywgJzIwMCcsICctbWV0YWxfYmluZGluZycsICctaW1hZScsICc8aW5maWxlLm1hZT4nLCAnLW9tYWUnLCAnPG91dGZpbGUubWFlPic=

> <r_lp_tautomer_probability>
1

> <r_epik_Ionization_Penalty>
0.0616669

> <r_epik_Ionization_Penalty_Charging>
0

> <r_epik_Ionization_Penalty_Neutral>
0.0616669

> <r_epik_State_Penalty>
0.0535415

> <r_epik_Charging_Adjusted_Penalty>
0.0535415

> <i_epik_Tot_Q>
0

> <i_epik_Tot_abs_Q>
0

> <r_epik_Metal_State_Penalty>
5.60326e-05

> <b_epik_Metal_Only>
0

> <s_lp_Force_Field>
OPLS_2005

> <r_lp_Energy>
19.9882

> <b_lp_Chiralities_Consistent>
1

> <s_lp_Variant>
AV-unprocessed.smi:877-2

> <Gold.Version>
5.8.1

> <Gold.Id.Protein>
6NUR|6NUR_protein|mol2

> <Gold.PLP.Fitness>
50.7122

> <Gold.PLP.PLP>
-45.6003

> <Gold.PLP.part.hbond>
-3.0000

> <Gold.PLP.part.metal>
0.0000

> <Gold.PLP.part.buried>
-4.3080

> <Gold.PLP.part.nonpolar>
-38.5626

> <Gold.PLP.part.repulsive>
0.0022

> <Gold.PLP.ligand.clash>
0.0000

> <Gold.PLP.ligand.torsion>
0.4986

> <Gold.PLP.Chemscore.Hbond>
2.0000

> <Gold.PLP.Chemscore.CHOScore>
0.0000

> <Gold.PLP.Chemscore.Metal>
0.0000

> <Gold.Chemscore.Hbonds>
donor molecule, donor type, donor heavy atom, donor atom, acceptor molecule, acceptor atom, score
      P1  H  7989  7998       L1    21  1.00
      P1  H  7997  8009       L1    19  1.00

> <Gold.PLP.Chemscore.Internal.Correction>
0.1091

> <Gold.Rescore>
     Score         DG    S(hbond)    S(metal)    S(lipo)     H(rot)  DE(clash)    DE(int)     intcor
     17.43     -19.20       1.94        0.00     130.70       3.15       0.04       1.72       ----

> <Gold.Chemscore.Fitness>
17.4279

> <Gold.Chemscore.DG>
-19.1954

> <Gold.Chemscore.ZeroCoef>
-5.4800

> <Gold.Chemscore.Hbond>
1.9413

> <Gold.Chemscore.Metal>
0.0000

> <Gold.Chemscore.Lipo>
130.7033

> <Gold.Chemscore.Internal_Hbond>
0.0000

> <Gold.Chemscore.DEClash>
0.0436

> <Gold.Chemscore.DEInternal>
1.7239

> <Gold.Chemscore.Rot>
3.1488

> <Gold.Chemscore.Internal.Correction>
   9.000000E+99

> <Gold.Chemscore.Hbonds>
donor molecule, donor type, donor heavy atom, donor atom, acceptor molecule, acceptor atom, score
      P1  H  7989  7998       L1    21  0.64
      P1  H  7997  8009       L1    19  0.88

> <Gold.Chemscore.Hbond.Weighted>
-6.4840

> <Gold.Chemscore.Metal.Weighted>
-0.0000

> <Gold.Chemscore.Lipo.Weighted>
-15.2923

> <Gold.Chemscore.Internal_Hbond.Weighted>
0.0000

> <Gold.Chemscore.DEClash.Weighted>
0.0436

> <Gold.Chemscore.DEInternal.Weighted>
1.7239

> <Gold.Chemscore.Rot.Weighted>
8.0608

> <Gold.Chemscore.Internal.Correction.Weighted>
   9.000000E+99

> <Gold.Protein.RotatedTorsions>
[ 6907 6896 6895 6894 ] final  105.02 input  -60.11 | X-H torsion
[ 7974 7965 7964 7962 ] final   88.64 input  175.53 | X-H torsion
[ 8008 7997 7996 7995 ] final -174.09 input   59.86 | X-H torsion
[ 10167 10162 10161 10158 ] final  -48.87 input  -65.29 | X-H torsion
[ 10718 10713 10712 10709 ] final   -8.22 input   66.30 | X-H torsion
[ 10763 10752 10751 10750 ] final   29.02 input  -60.55 | X-H torsion
[ 11005 11000 10999 10996 ] final   26.95 input  -57.11 | X-H torsion

> <Gold.Protein.ActiveResidues>
 VAL166  LYS551  ARG553  GLY616  TRP617  ASP618  TYR619  PRO620  LYS621  CYS622 
 ASP623  PHE694  ASN695  SER759  ASP760  ASP761  ALA762  ILE779  LEU786  VAL792 
 PHE793  MET794  SER795  GLU796  ALA797  LYS798  CYS799  TRP800  GLU811  SER814 

> <Gold.Protein.RotatedAtoms>
  152.5245  133.9591  159.7708 H   0  0  0  0  0  0  0  0  0  0  0  0  # atno 6907 bound_to 6896
  150.9885  133.6165  159.2719 H   0  0  0  0  0  0  0  0  0  0  0  0  # atno 6908 bound_to 6896
  151.3317  135.0849  159.9394 H   0  0  0  0  0  0  0  0  0  0  0  0  # atno 6909 bound_to 6896
  145.5430  139.2290  143.2555 H   0  0  0  0  0  0  0  0  0  0  0  0  # atno 7974 bound_to 7965
  155.9657  140.1153  157.0857 H   0  0  0  0  0  0  0  0  0  0  0  0  # atno 8008 bound_to 7997
  154.4143  140.1173  156.5305 H   0  0  0  0  0  0  0  0  0  0  0  0  # atno 8009 bound_to 7997
  155.6663  140.3473  155.4803 H   0  0  0  0  0  0  0  0  0  0  0  0  # atno 8010 bound_to 7997
  140.6711  143.2721  151.4133 H   0  0  0  0  0  0  0  0  0  0  0  0  # atno 10167 bound_to 10162
  156.7058  130.5107  149.5905 H   0  0  0  0  0  0  0  0  0  0  0  0  # atno 10718 bound_to 10713
  153.0456  135.6499  154.0826 H   0  0  0  0  0  0  0  0  0  0  0  0  # atno 10763 bound_to 10752
  154.0525  135.2894  155.3339 H   0  0  0  0  0  0  0  0  0  0  0  0  # atno 10764 bound_to 10752
  154.6711  135.5356  153.8205 H   0  0  0  0  0  0  0  0  0  0  0  0  # atno 10765 bound_to 10752
  140.3315  134.2433  155.7702 H   0  0  0  0  0  0  0  0  0  0  0  0  # atno 11005 bound_to 11000
  146.1968  140.6251  142.9120 LP  0  0  0  0  0  0  0  0  0  0  0  0  # atno 17320 bound_to 7965
  144.7567  140.5324  143.6764 LP  0  0  0  0  0  0  0  0  0  0  0  0  # atno 17321 bound_to 7965
  139.5980  144.1355  152.2166 LP  0  0  0  0  0  0  0  0  0  0  0  0  # atno 17342 bound_to 10162
  140.0731  144.5763  150.7177 LP  0  0  0  0  0  0  0  0  0  0  0  0  # atno 17343 bound_to 10162
  156.1696  130.6428  151.0821 LP  0  0  0  0  0  0  0  0  0  0  0  0  # atno 17370 bound_to 10713
  157.6955  131.0795  150.6981 LP  0  0  0  0  0  0  0  0  0  0  0  0  # atno 17371 bound_to 10713
  141.2062  133.7839  157.0189 LP  0  0  0  0  0  0  0  0  0  0  0  0  # atno 17394 bound_to 11000
  140.0857  134.9622  157.1696 LP  0  0  0  0  0  0  0  0  0  0  0  0  # atno 17395 bound_to 11000

$$$$
