AV-unprocessed.smi:148|AV-procd|sdf|1232|dock1
  -GOLD-   2262018433D 1   1.00000     0.00000
 Structure written by MMmdl.
 63 67  0  0  0  0  0  0  0  0  1 V2000
  155.6740  141.5369  159.9929 O   0  0  0  0  0  0  0  0  0  0  0  0
  154.8026  140.6830  160.7034 C   0  0  0  0  0  0  0  0  0  0  0  0
  153.4549  140.4836  159.9636 C   0  0  2  0  0  0  0  0  0  0  0  0
  153.6556  139.6747  158.6567 C   0  0  0  0  0  0  0  0  0  0  0  0
  152.9965  138.3804  158.6706 N   0  0  0  0  0  0  0  0  0  0  0  0
  153.1389  137.3867  159.6138 C   0  0  0  0  0  0  0  0  0  0  0  0
  152.4405  136.3058  159.3936 N   0  0  0  0  0  0  0  0  0  0  0  0
  151.7768  136.5730  158.2031 C   0  0  0  0  0  0  0  0  0  0  0  0
  150.8759  135.8380  157.3897 C   0  0  0  0  0  0  0  0  0  0  0  0
  150.4752  134.5876  157.7163 N   0  0  0  0  0  0  0  0  0  0  0  0
  149.8368  134.6078  159.0327 C   0  0  0  0  0  0  0  0  0  0  0  0
  149.5577  133.1897  159.5443 C   0  0  0  0  0  0  0  0  0  0  0  0
  148.7197  132.4177  158.5220 C   0  0  0  0  0  0  0  0  0  0  0  0
  149.4375  132.3992  157.1662 C   0  0  0  0  0  0  0  0  0  0  0  0
  149.7723  133.8289  156.6636 C   0  0  2  0  0  0  0  0  0  0  0  0
  150.5459  133.8344  155.3062 C   0  0  1  0  0  0  0  0  0  0  0  0
  151.9721  133.2468  155.3390 C   0  0  0  0  0  0  0  0  0  0  0  0
  152.2137  132.6107  153.9605 C   0  0  0  0  0  0  0  0  0  0  0  0
  150.9905  132.9622  153.1098 C   0  0  0  0  0  0  0  0  0  0  0  0
  149.8629  133.1217  154.1282 C   0  0  2  0  0  0  0  0  0  0  0  0
  148.7906  133.8728  153.5973 O   0  0  0  0  0  0  0  0  0  0  0  0
  150.4073  136.4314  156.2595 N   0  0  0  0  0  0  0  0  0  0  0  0
  150.8116  137.6641  155.9379 C   0  0  0  0  0  0  0  0  0  0  0  0
  151.6556  138.4641  156.5941 N   0  0  0  0  0  0  0  0  0  0  0  0
  152.1155  137.8718  157.7335 C   0  0  0  0  0  0  0  0  0  0  0  0
  152.7415  141.8311  159.6629 C   0  0  1  0  0  0  0  0  0  0  0  0
  151.4212  141.7031  158.9195 C   0  0  0  0  0  0  0  0  0  0  0  0
  150.7656  143.0563  159.1712 C   0  0  0  0  0  0  0  0  0  0  0  0
  151.2272  143.4767  160.4490 O   0  0  0  0  0  0  0  0  0  0  0  0
  152.2763  142.6220  160.8914 C   0  0  0  0  0  0  0  0  0  0  0  0
  156.5569  141.3841  160.2936 H   0  0  0  0  0  0  0  0  0  0  0  0
  155.2923  139.7250  160.8798 H   0  0  0  0  0  0  0  0  0  0  0  0
  154.6585  141.1453  161.6787 H   0  0  0  0  0  0  0  0  0  0  0  0
  152.8034  139.8937  160.6102 H   0  0  0  0  0  0  0  0  0  0  0  0
  153.2623  140.2175  157.7977 H   0  0  0  0  0  0  0  0  0  0  0  0
  154.7192  139.5240  158.4672 H   0  0  0  0  0  0  0  0  0  0  0  0
  153.7781  137.4911  160.4785 H   0  0  0  0  0  0  0  0  0  0  0  0
  150.4748  135.1298  159.7478 H   0  0  0  0  0  0  0  0  0  0  0  0
  148.9024  135.1681  158.9733 H   0  0  0  0  0  0  0  0  0  0  0  0
  150.4995  132.6688  159.7215 H   0  0  0  0  0  0  0  0  0  0  0  0
  149.0379  133.2329  160.5017 H   0  0  0  0  0  0  0  0  0  0  0  0
  148.5455  131.3990  158.8691 H   0  0  0  0  0  0  0  0  0  0  0  0
  147.7400  132.8855  158.4163 H   0  0  0  0  0  0  0  0  0  0  0  0
  150.3446  131.8033  157.2611 H   0  0  0  0  0  0  0  0  0  0  0  0
  148.7990  131.8789  156.4542 H   0  0  0  0  0  0  0  0  0  0  0  0
  148.8193  134.3329  156.4955 H   0  0  0  0  0  0  0  0  0  0  0  0
  150.6592  134.8698  154.9811 H   0  0  0  0  0  0  0  0  0  0  0  0
  152.7023  134.0304  155.5430 H   0  0  0  0  0  0  0  0  0  0  0  0
  152.0941  132.4947  156.1169 H   0  0  0  0  0  0  0  0  0  0  0  0
  153.1400  132.9575  153.5019 H   0  0  0  0  0  0  0  0  0  0  0  0
  152.2883  131.5276  154.0679 H   0  0  0  0  0  0  0  0  0  0  0  0
  151.1691  133.9078  152.5949 H   0  0  0  0  0  0  0  0  0  0  0  0
  150.7726  132.2079  152.3530 H   0  0  0  0  0  0  0  0  0  0  0  0
  149.5084  132.1306  154.4070 H   0  0  0  0  0  0  0  0  0  0  0  0
  149.1442  134.6269  153.1506 H   0  0  0  0  0  0  0  0  0  0  0  0
  150.4008  138.0666  155.0236 H   0  0  0  0  0  0  0  0  0  0  0  0
  153.4048  142.4671  159.0741 H   0  0  0  0  0  0  0  0  0  0  0  0
  151.5396  141.4985  157.8553 H   0  0  0  0  0  0  0  0  0  0  0  0
  150.8156  140.9069  159.3556 H   0  0  0  0  0  0  0  0  0  0  0  0
  151.0959  143.7830  158.4279 H   0  0  0  0  0  0  0  0  0  0  0  0
  149.6772  143.0051  159.1357 H   0  0  0  0  0  0  0  0  0  0  0  0
  151.8707  141.9525  161.6513 H   0  0  0  0  0  0  0  0  0  0  0  0
  153.0801  143.2026  161.3446 H   0  0  0  0  0  0  0  0  0  0  0  0
  1  2  1  0  0  0  0
  1 31  1  0  0  0  0
  2  3  1  0  0  0  0
  2 32  1  0  0  0  0
  2 33  1  0  0  0  0
  3  4  1  0  0  0  0
  3 26  1  0  0  0  0
  3 34  1  0  0  0  0
  4  5  1  0  0  0  0
  4 35  1  0  0  0  0
  4 36  1  0  0  0  0
  5 25  1  0  0  0  0
  5  6  1  0  0  0  0
  6  7  2  0  0  0  0
  6 37  1  0  0  0  0
  7  8  1  0  0  0  0
  8 25  2  0  0  0  0
  8  9  1  0  0  0  0
  9 10  1  0  0  0  0
  9 22  2  0  0  0  0
 10 15  1  0  0  0  0
 10 11  1  0  0  0  0
 11 12  1  0  0  0  0
 11 38  1  0  0  0  0
 11 39  1  0  0  0  0
 12 13  1  0  0  0  0
 12 40  1  0  0  0  0
 12 41  1  0  0  0  0
 13 14  1  0  0  0  0
 13 42  1  0  0  0  0
 13 43  1  0  0  0  0
 14 15  1  0  0  0  0
 14 44  1  0  0  0  0
 14 45  1  0  0  0  0
 15 16  1  0  0  0  0
 15 46  1  0  0  0  0
 16 20  1  0  0  0  0
 16 17  1  0  0  0  0
 16 47  1  0  0  0  0
 17 18  1  0  0  0  0
 17 48  1  0  0  0  0
 17 49  1  0  0  0  0
 18 19  1  0  0  0  0
 18 50  1  0  0  0  0
 18 51  1  0  0  0  0
 19 20  1  0  0  0  0
 19 52  1  0  0  0  0
 19 53  1  0  0  0  0
 20 21  1  0  0  0  0
 20 54  1  0  0  0  0
 21 55  1  0  0  0  0
 22 23  1  0  0  0  0
 23 24  2  0  0  0  0
 23 56  1  0  0  0  0
 24 25  1  0  0  0  0
 26 30  1  0  0  0  0
 26 27  1  0  0  0  0
 26 57  1  0  0  0  0
 27 28  1  0  0  0  0
 27 58  1  0  0  0  0
 27 59  1  0  0  0  0
 28 29  1  0  0  0  0
 28 60  1  0  0  0  0
 28 61  1  0  0  0  0
 29 30  1  0  0  0  0
 30 62  1  0  0  0  0
 30 63  1  0  0  0  0
M  END
> <s_m_source_file>
AV-unprocessed.smi

> <i_m_source_file_index>
148

> <i_lp_mmshare_version>
43012

> <i_f3d_flags>
0

> <s_epik_input>
W0NIMl0xT1tDSDJdW0NIMl1bQ0BIXTFbQ0BIXShbQ0gyXVtPSF0pW0NIMl1uKFtjSF1uMiljKGMyMyluW2NIXW5jM040W0NIMl1bQ0gyXVtDSDJdW0NIMl1bQ0BIXTRbQ0BASF01W0NIMl1bQ0gyXVtDSDJdW0NASF01W09IXQ==

> <s_epik_cmdline>
J2VwaWtfcHl0aG9uJywgJy1waCcsICc3LjAnLCAnLXRuJywgJzgnLCAnLW1hJywgJzIwMCcsICctbWV0YWxfYmluZGluZycsICctaW1hZScsICc8aW5maWxlLm1hZT4nLCAnLW9tYWUnLCAnPG91dGZpbGUubWFlPic=

> <r_lp_tautomer_probability>
1

> <r_epik_Ionization_Penalty>
0.00556303

> <r_epik_Ionization_Penalty_Charging>
0

> <r_epik_Ionization_Penalty_Neutral>
0.00556303

> <r_epik_State_Penalty>
0.00401767

> <r_epik_Charging_Adjusted_Penalty>
0.00401767

> <i_epik_Tot_Q>
0

> <i_epik_Tot_abs_Q>
0

> <r_epik_Metal_State_Penalty>
-0

> <b_epik_Metal_Only>
0

> <s_lp_Force_Field>
OPLS_2005

> <r_lp_Energy>
68.3277

> <b_lp_Chiralities_Consistent>
1

> <s_lp_Variant>
AV-unprocessed.smi:148-31

> <Gold.Version>
5.8.1

> <Gold.Id.Protein>
6NUR|6NUR_protein|mol2

> <Gold.PLP.Fitness>
44.5619

> <Gold.PLP.PLP>
-39.7845

> <Gold.PLP.part.hbond>
-2.9875

> <Gold.PLP.part.metal>
0.0000

> <Gold.PLP.part.buried>
-6.5760

> <Gold.PLP.part.nonpolar>
-30.8067

> <Gold.PLP.part.repulsive>
0.0386

> <Gold.PLP.ligand.clash>
0.0000

> <Gold.PLP.ligand.torsion>
1.0030

> <Gold.PLP.Chemscore.Hbond>
2.0000

> <Gold.PLP.Chemscore.CHOScore>
0.0000

> <Gold.PLP.Chemscore.Metal>
0.0000

> <Gold.Chemscore.Hbonds>
donor molecule, donor type, donor heavy atom, donor atom, acceptor molecule, acceptor atom, score
      L1  H    21    55       P1  7948  0.50
      P1  H  6896  6907       L1     7  0.09

> <Gold.PLP.Chemscore.Internal.Correction>
0.7834

> <Gold.Rescore>
     Score         DG    S(hbond)    S(metal)    S(lipo)     H(rot)  DE(clash)    DE(int)     intcor
     14.25     -16.75       2.75        0.00      90.58       3.32       0.13       2.36       ----

> <Gold.Chemscore.Fitness>
14.2536

> <Gold.Chemscore.DG>
-16.7507

> <Gold.Chemscore.ZeroCoef>
-5.4800

> <Gold.Chemscore.Hbond>
2.7465

> <Gold.Chemscore.Metal>
0.0000

> <Gold.Chemscore.Lipo>
90.5757

> <Gold.Chemscore.Internal_Hbond>
0.0000

> <Gold.Chemscore.DEClash>
0.1334

> <Gold.Chemscore.DEInternal>
2.3637

> <Gold.Chemscore.Rot>
3.3203

> <Gold.Chemscore.Internal.Correction>
   9.000000E+99

> <Gold.Chemscore.Hbonds>
donor molecule, donor type, donor heavy atom, donor atom, acceptor molecule, acceptor atom, score
      L1  H    21    55       P1  7948  0.02
      P1  H  6896  6908       L1     7  0.01

> <Gold.Chemscore.Hbond.Weighted>
-9.1734

> <Gold.Chemscore.Metal.Weighted>
-0.0000

> <Gold.Chemscore.Lipo.Weighted>
-10.5974

> <Gold.Chemscore.Internal_Hbond.Weighted>
0.0000

> <Gold.Chemscore.DEClash.Weighted>
0.1334

> <Gold.Chemscore.DEInternal.Weighted>
2.3637

> <Gold.Chemscore.Rot.Weighted>
8.5000

> <Gold.Chemscore.Internal.Correction.Weighted>
   9.000000E+99

> <Gold.Protein.RotatedTorsions>
[ 6907 6896 6895 6894 ] final  -31.05 input  -60.11 | X-H torsion
[ 7974 7965 7964 7962 ] final  -28.31 input  175.53 | X-H torsion
[ 8008 7997 7996 7995 ] final  -51.48 input   59.86 | X-H torsion
[ 10167 10162 10161 10158 ] final  145.70 input  -65.29 | X-H torsion
[ 10718 10713 10712 10709 ] final  174.05 input   66.30 | X-H torsion
[ 10763 10752 10751 10750 ] final  179.29 input  -60.55 | X-H torsion
[ 11005 11000 10999 10996 ] final   33.01 input  -57.11 | X-H torsion

> <Gold.Protein.ActiveResidues>
 VAL166  LYS551  ARG553  GLY616  TRP617  ASP618  TYR619  PRO620  LYS621  CYS622 
 ASP623  PHE694  ASN695  SER759  ASP760  ASP761  ALA762  ILE779  LEU786  VAL792 
 PHE793  MET794  SER795  GLU796  ALA797  LYS798  CYS799  TRP800  GLU811  SER814 

> <Gold.Protein.RotatedAtoms>
  151.0973  134.9952  159.8431 H   0  0  0  0  0  0  0  0  0  0  0  0  # atno 6907 bound_to 6896
  152.5434  134.1992  159.8715 H   0  0  0  0  0  0  0  0  0  0  0  0  # atno 6908 bound_to 6896
  151.2033  133.4554  159.2630 H   0  0  0  0  0  0  0  0  0  0  0  0  # atno 6909 bound_to 6896
  146.1297  140.5266  142.8699 H   0  0  0  0  0  0  0  0  0  0  0  0  # atno 7974 bound_to 7965
  154.4084  140.1247  156.4835 H   0  0  0  0  0  0  0  0  0  0  0  0  # atno 8008 bound_to 7997
  155.7061  140.3494  155.4934 H   0  0  0  0  0  0  0  0  0  0  0  0  # atno 8009 bound_to 7997
  155.9342  140.1075  157.1098 H   0  0  0  0  0  0  0  0  0  0  0  0  # atno 8010 bound_to 7997
  139.4921  144.5883  151.6734 H   0  0  0  0  0  0  0  0  0  0  0  0  # atno 10167 bound_to 10162
  156.9553  131.0044  151.2940 H   0  0  0  0  0  0  0  0  0  0  0  0  # atno 10718 bound_to 10713
  154.5187  135.2792  155.1281 H   0  0  0  0  0  0  0  0  0  0  0  0  # atno 10763 bound_to 10752
  154.2847  135.6278  153.5365 H   0  0  0  0  0  0  0  0  0  0  0  0  # atno 10764 bound_to 10752
  152.9932  135.5659  154.5671 H   0  0  0  0  0  0  0  0  0  0  0  0  # atno 10765 bound_to 10752
  140.2675  134.3121  155.7838 H   0  0  0  0  0  0  0  0  0  0  0  0  # atno 11005 bound_to 11000
  144.7678  140.5569  143.6691 LP  0  0  0  0  0  0  0  0  0  0  0  0  # atno 17320 bound_to 7965
  145.5288  139.1475  143.3511 LP  0  0  0  0  0  0  0  0  0  0  0  0  # atno 17321 bound_to 7965
  140.5504  144.0435  150.6124 LP  0  0  0  0  0  0  0  0  0  0  0  0  # atno 17342 bound_to 10162
  140.3487  143.2976  152.0510 LP  0  0  0  0  0  0  0  0  0  0  0  0  # atno 17343 bound_to 10162
  157.5695  130.8300  149.8372 LP  0  0  0  0  0  0  0  0  0  0  0  0  # atno 17370 bound_to 10713
  156.0345  130.3755  150.1597 LP  0  0  0  0  0  0  0  0  0  0  0  0  # atno 17371 bound_to 10713
  141.2182  133.7446  156.9283 LP  0  0  0  0  0  0  0  0  0  0  0  0  # atno 17394 bound_to 11000
  140.1405  134.9297  157.2460 LP  0  0  0  0  0  0  0  0  0  0  0  0  # atno 17395 bound_to 11000

$$$$
