AV-unprocessed.smi:985|AV-procd|sdf|4318|dock4
  -GOLD-   22720 2223D 1   1.00000     0.00000
 Structure written by MMmdl.
 26 27  0  0  0  0  0  0  0  0  2 V2000
  154.0318  138.4316  154.5059 C   0  0  0  0  0  0  0  0  0  0  0  0
  152.5447  138.5016  154.5703 C   0  0  0  0  0  0  0  0  0  0  0  0
  151.7950  139.5888  154.7345 N   0  0  0  0  0  0  0  0  0  0  0  0
  150.5432  139.0510  154.7104 C   0  0  0  0  0  0  0  0  0  0  0  0
  149.2991  139.8720  154.8613 C   0  0  2  0  0  0  0  0  0  0  0  0
  148.3252  139.6742  153.6842 C   0  0  0  0  0  0  0  0  0  0  0  0
  147.0716  140.5422  153.8737 C   0  0  0  0  0  0  0  0  0  0  0  0
  147.4502  142.0157  154.0998 C   0  0  0  0  0  0  0  0  0  0  0  0
  148.3691  142.1491  155.2514 N   0  3  0  0  0  0  0  0  0  0  0  0
  149.6137  141.3638  155.0941 C   0  0  0  0  0  0  0  0  0  0  0  0
  150.4837  137.7340  154.5520 N   0  0  0  0  0  0  0  0  0  0  0  0
  151.8309  137.3566  154.4553 O   0  0  0  0  0  0  0  0  0  0  0  0
  154.4653  139.4254  154.6217 H   0  0  0  0  0  0  0  0  0  0  0  0
  154.3453  138.0227  153.5452 H   0  0  0  0  0  0  0  0  0  0  0  0
  154.4105  137.7894  155.3011 H   0  0  0  0  0  0  0  0  0  0  0  0
  148.7858  139.5154  155.7567 H   0  0  0  0  0  0  0  0  0  0  0  0
  148.8133  139.9442  152.7465 H   0  0  0  0  0  0  0  0  0  0  0  0
  148.0426  138.6243  153.5980 H   0  0  0  0  0  0  0  0  0  0  0  0
  146.4215  140.4528  153.0030 H   0  0  0  0  0  0  0  0  0  0  0  0
  146.4979  140.1767  154.7265 H   0  0  0  0  0  0  0  0  0  0  0  0
  147.9258  142.4277  153.2087 H   0  0  0  0  0  0  0  0  0  0  0  0
  146.5562  142.6106  154.2880 H   0  0  0  0  0  0  0  0  0  0  0  0
  148.6090  143.1233  155.3683 H   0  0  0  0  0  0  0  0  0  0  0  0
  150.2245  141.4897  155.9888 H   0  0  0  0  0  0  0  0  0  0  0  0
  150.1846  141.7708  154.2581 H   0  0  0  0  0  0  0  0  0  0  0  0
  147.8901  141.8300  156.0815 H   0  0  0  0  0  0  0  0  0  0  0  0
  1  2  1  0  0  0  0
  1 13  1  0  0  0  0
  1 14  1  0  0  0  0
  1 15  1  0  0  0  0
  2 12  1  0  0  0  0
  2  3  2  0  0  0  0
  3  4  1  0  0  0  0
  4  5  1  0  0  0  0
  4 11  2  0  0  0  0
  5 10  1  0  0  0  0
  5  6  1  0  0  0  0
  5 16  1  0  0  0  0
  6  7  1  0  0  0  0
  6 17  1  0  0  0  0
  6 18  1  0  0  0  0
  7  8  1  0  0  0  0
  7 19  1  0  0  0  0
  7 20  1  0  0  0  0
  8  9  1  0  0  0  0
  8 21  1  0  0  0  0
  8 22  1  0  0  0  0
  9 10  1  0  0  0  0
  9 23  1  0  0  0  0
  9 26  1  0  0  0  0
 10 24  1  0  0  0  0
 10 25  1  0  0  0  0
 11 12  1  0  0  0  0
M  CHG  1   9   1
M  END
> <s_m_source_file>
AV-unprocessed.smi

> <i_m_source_file_index>
985

> <i_lp_mmshare_version>
43012

> <i_f3d_flags>
0

> <s_epik_input>
W0NIM11jMW5jKG5vMSlbQ0BASF0yW0NIMl1bQ0gyXVtDSDJdW05IXVtDSDJdMg==

> <s_epik_cmdline>
J2VwaWtfcHl0aG9uJywgJy1waCcsICc3LjAnLCAnLXRuJywgJzgnLCAnLW1hJywgJzIwMCcsICctbWV0YWxfYmluZGluZycsICctaW1hZScsICc8aW5maWxlLm1hZT4nLCAnLW9tYWUnLCAnPG91dGZpbGUubWFlPic=

> <r_lp_tautomer_probability>
1

> <r_epik_Ionization_Penalty>
0.000532935

> <r_epik_Ionization_Penalty_Charging>
0.000532935

> <r_epik_Ionization_Penalty_Neutral>
3.88228e-13

> <r_epik_State_Penalty>
0.000332992

> <r_epik_Charging_Adjusted_Penalty>
0.000865928

> <i_epik_Tot_Q>
1

> <i_epik_Tot_abs_Q>
1

> <r_epik_Metal_State_Penalty>
-0

> <b_epik_Metal_Only>
0

> <s_lp_Force_Field>
OPLS_2005

> <r_lp_Energy>
6.62541

> <b_lp_Chiralities_Consistent>
1

> <s_lp_Variant>
AV-unprocessed.smi:985-1

> <Gold.Version>
5.8.1

> <Gold.Id.Protein>
6NUR|6NUR_protein|mol2

> <Gold.PLP.Fitness>
34.9619

> <Gold.PLP.PLP>
-22.9898

> <Gold.PLP.part.hbond>
-3.0000

> <Gold.PLP.part.metal>
0.0000

> <Gold.PLP.part.buried>
-0.6322

> <Gold.PLP.part.nonpolar>
-20.2719

> <Gold.PLP.part.repulsive>
0.5673

> <Gold.PLP.ligand.clash>
0.0000

> <Gold.PLP.ligand.torsion>
0.0236

> <Gold.PLP.Chemscore.Hbond>
3.9920

> <Gold.PLP.Chemscore.CHOScore>
0.0000

> <Gold.PLP.Chemscore.Metal>
0.0000

> <Gold.Chemscore.Hbonds>
donor molecule, donor type, donor heavy atom, donor atom, acceptor molecule, acceptor atom, score
      L1  H     9    23       P1  8028  2.00
      P1  H  7989  7998       L1     3  1.00
      P1  H 10752 10763       L1    12  0.98

> <Gold.PLP.Chemscore.Internal.Correction>
0.0432

> <Gold.Rescore>
     Score         DG    S(hbond)    S(metal)    S(lipo)     H(rot)  DE(clash)    DE(int)     intcor
     16.54     -16.61       2.65        0.00      41.40       1.00       0.05       0.02       ----

> <Gold.Chemscore.Fitness>
16.5364

> <Gold.Chemscore.DG>
-16.6093

> <Gold.Chemscore.ZeroCoef>
-5.4800

> <Gold.Chemscore.Hbond>
2.6484

> <Gold.Chemscore.Metal>
0.0000

> <Gold.Chemscore.Lipo>
41.3988

> <Gold.Chemscore.Internal_Hbond>
0.0000

> <Gold.Chemscore.DEClash>
0.0481

> <Gold.Chemscore.DEInternal>
0.0249

> <Gold.Chemscore.Rot>
1.0000

> <Gold.Chemscore.Internal.Correction>
   9.000000E+99

> <Gold.Chemscore.Hbonds>
donor molecule, donor type, donor heavy atom, donor atom, acceptor molecule, acceptor atom, score
      L1  H     9    23       P1  8028  1.00
      P1  H  7989  7998       L1     3  0.33
      P1  H 10752 10763       L1    12  0.79

> <Gold.Chemscore.Hbond.Weighted>
-8.8457

> <Gold.Chemscore.Metal.Weighted>
-0.0000

> <Gold.Chemscore.Lipo.Weighted>
-4.8437

> <Gold.Chemscore.Internal_Hbond.Weighted>
0.0000

> <Gold.Chemscore.DEClash.Weighted>
0.0481

> <Gold.Chemscore.DEInternal.Weighted>
0.0249

> <Gold.Chemscore.Rot.Weighted>
2.5600

> <Gold.Chemscore.Internal.Correction.Weighted>
   9.000000E+99

> <Gold.Protein.RotatedTorsions>
[ 6907 6896 6895 6894 ] final -147.73 input  -60.11 | X-H torsion
[ 7974 7965 7964 7962 ] final  -15.74 input  175.53 | X-H torsion
[ 8008 7997 7996 7995 ] final   28.49 input   59.86 | X-H torsion
[ 10167 10162 10161 10158 ] final   47.83 input  -65.29 | X-H torsion
[ 10718 10713 10712 10709 ] final   30.86 input   66.30 | X-H torsion
[ 10763 10752 10751 10750 ] final   41.36 input  -60.55 | X-H torsion
[ 11005 11000 10999 10996 ] final  -30.33 input  -57.11 | X-H torsion

> <Gold.Protein.ActiveResidues>
 VAL166  LYS551  ARG553  GLY616  TRP617  ASP618  TYR619  PRO620  LYS621  CYS622 
 ASP623  PHE694  ASN695  SER759  ASP760  ASP761  ALA762  ILE779  LEU786  VAL792 
 PHE793  MET794  SER795  GLU796  ALA797  LYS798  CYS799  TRP800  GLU811  SER814 

> <Gold.Protein.RotatedAtoms>
  151.1598  133.4853  159.2594 H   0  0  0  0  0  0  0  0  0  0  0  0  # atno 6907 bound_to 6896
  151.1466  135.0206  159.8660 H   0  0  0  0  0  0  0  0  0  0  0  0  # atno 6908 bound_to 6896
  152.5463  134.1486  159.8562 H   0  0  0  0  0  0  0  0  0  0  0  0  # atno 6909 bound_to 6896
  146.2019  140.3536  142.8420 H   0  0  0  0  0  0  0  0  0  0  0  0  # atno 7974 bound_to 7965
  155.0595  140.3188  155.4665 H   0  0  0  0  0  0  0  0  0  0  0  0  # atno 8008 bound_to 7997
  156.2816  140.2131  156.5667 H   0  0  0  0  0  0  0  0  0  0  0  0  # atno 8009 bound_to 7997
  154.7143  140.0495  157.0568 H   0  0  0  0  0  0  0  0  0  0  0  0  # atno 8010 bound_to 7997
  140.2995  144.2950  150.6222 H   0  0  0  0  0  0  0  0  0  0  0  0  # atno 10167 bound_to 10162
  157.2651  130.7180  149.6474 H   0  0  0  0  0  0  0  0  0  0  0  0  # atno 10718 bound_to 10713
  152.9910  135.6164  154.2775 H   0  0  0  0  0  0  0  0  0  0  0  0  # atno 10763 bound_to 10752
  154.2506  135.2785  155.2820 H   0  0  0  0  0  0  0  0  0  0  0  0  # atno 10764 bound_to 10752
  154.5291  135.5793  153.6802 H   0  0  0  0  0  0  0  0  0  0  0  0  # atno 10765 bound_to 10752
  140.9373  133.7300  156.1024 H   0  0  0  0  0  0  0  0  0  0  0  0  # atno 11005 bound_to 11000
  144.8702  140.7262  143.6051 LP  0  0  0  0  0  0  0  0  0  0  0  0  # atno 17320 bound_to 7965
  145.3455  139.1720  143.4463 LP  0  0  0  0  0  0  0  0  0  0  0  0  # atno 17321 bound_to 7965
  140.5663  143.2186  151.7678 LP  0  0  0  0  0  0  0  0  0  0  0  0  # atno 17342 bound_to 10162
  139.4918  144.4279  151.9905 LP  0  0  0  0  0  0  0  0  0  0  0  0  # atno 17343 bound_to 10162
  155.9663  130.4385  150.5220 LP  0  0  0  0  0  0  0  0  0  0  0  0  # atno 17370 bound_to 10713
  157.3133  131.0668  151.1985 LP  0  0  0  0  0  0  0  0  0  0  0  0  # atno 17371 bound_to 10713
  140.7781  134.3756  157.5493 LP  0  0  0  0  0  0  0  0  0  0  0  0  # atno 17394 bound_to 11000
  139.8811  134.9065  156.2923 LP  0  0  0  0  0  0  0  0  0  0  0  0  # atno 17395 bound_to 11000

$$$$
