AV-unprocessed.smi:49|AV-procd|sdf|475|dock4
  -GOLD-   2262016343D 1   1.00000     0.00000
 Structure written by MMmdl.
 27 28  0  0  0  0  0  0  0  0  1 V2000
  152.4538  143.2338  161.5919 C   0  0  0  0  0  0  0  0  0  0  0  0
  152.2019  144.3623  160.5855 C   0  0  0  0  0  0  0  0  0  0  0  0
  151.4502  143.8908  159.3847 C   0  0  0  0  0  0  0  0  0  0  0  0
  151.0527  142.5927  159.2254 N   0  0  0  0  0  0  0  0  0  0  0  0
  150.4881  142.6640  158.0228 C   0  0  0  0  0  0  0  0  0  0  0  0
  149.8379  141.5293  157.2924 C   0  0  2  0  0  0  0  0  0  0  0  0
  150.5244  141.2316  155.9458 C   0  0  0  0  0  0  0  0  0  0  0  0
  149.4989  141.6595  154.9003 C   0  0  1  0  0  0  0  0  0  0  0  0
  149.6090  140.9364  153.6929 O   0  0  0  0  0  0  0  0  0  0  0  0
  148.1801  141.3979  155.6150 C   0  0  0  0  0  0  0  0  0  0  0  0
  148.4275  141.8002  156.9923 N   0  0  0  0  0  0  0  0  0  0  0  0
  150.5465  143.8936  157.5069 N   0  0  0  0  0  0  0  0  0  0  0  0
  151.1797  144.7134  158.3722 N   0  0  0  0  0  0  0  0  0  0  0  0
  149.9067  140.6396  157.9199 H   0  0  0  0  0  0  0  0  0  0  0  0
  149.6015  142.7265  154.6955 H   0  0  0  0  0  0  0  0  0  0  0  0
  150.1940  144.2018  156.6121 H   0  0  0  0  0  0  0  0  0  0  0  0
  153.0017  143.6019  162.4594 H   0  0  0  0  0  0  0  0  0  0  0  0
  153.0394  142.4299  161.1446 H   0  0  0  0  0  0  0  0  0  0  0  0
  151.5148  142.8078  161.9467 H   0  0  0  0  0  0  0  0  0  0  0  0
  151.6404  145.1653  161.0642 H   0  0  0  0  0  0  0  0  0  0  0  0
  153.1516  144.7955  160.2689 H   0  0  0  0  0  0  0  0  0  0  0  0
  151.4869  141.7307  155.8228 H   0  0  0  0  0  0  0  0  0  0  0  0
  150.7020  140.1576  155.8711 H   0  0  0  0  0  0  0  0  0  0  0  0
  148.7746  140.5327  153.5082 H   0  0  0  0  0  0  0  0  0  0  0  0
  147.3450  141.9423  155.1735 H   0  0  0  0  0  0  0  0  0  0  0  0
  147.9424  140.3336  155.5808 H   0  0  0  0  0  0  0  0  0  0  0  0
  147.8306  141.2553  157.6061 H   0  0  0  0  0  0  0  0  0  0  0  0
  1  2  1  0  0  0  0
  1 17  1  0  0  0  0
  1 18  1  0  0  0  0
  1 19  1  0  0  0  0
  2 20  1  0  0  0  0
  2 21  1  0  0  0  0
  2  3  1  0  0  0  0
  3  4  1  0  0  0  0
  3 13  2  0  0  0  0
  4  5  2  0  0  0  0
  5  6  1  0  0  0  0
  5 12  1  0  0  0  0
  6 14  1  0  0  0  0
  6 11  1  0  0  0  0
  6  7  1  0  0  0  0
  7  8  1  0  0  0  0
  7 22  1  0  0  0  0
  7 23  1  0  0  0  0
  8 15  1  0  0  0  0
  8  9  1  0  0  0  0
  8 10  1  0  0  0  0
  9 24  1  0  0  0  0
 10 11  1  0  0  0  0
 10 25  1  0  0  0  0
 10 26  1  0  0  0  0
 11 27  1  0  0  0  0
 12 13  1  0  0  0  0
 12 16  1  0  0  0  0
M  END
> <s_m_source_file>
AV-unprocessed.smi

> <i_m_source_file_index>
49

> <i_lp_mmshare_version>
43012

> <i_f3d_flags>
0

> <s_epik_input>
W0NIM11bQ0gyXWMxbmMobltuSF0xKVtDQEBIXTJbQ0gyXVtDQEBIXShbT0hdKVtDSDJdW05IXTI=

> <s_epik_cmdline>
J2VwaWtfcHl0aG9uJywgJy1waCcsICc3LjAnLCAnLXRuJywgJzgnLCAnLW1hJywgJzIwMCcsICctbWV0YWxfYmluZGluZycsICctaW1hZScsICc8aW5maWxlLm1hZT4nLCAnLW9tYWUnLCAnPG91dGZpbGUubWFlPic=

> <r_epik_Ionization_Penalty>
1.31544

> <r_epik_Ionization_Penalty_Charging>
0

> <r_epik_Ionization_Penalty_Neutral>
1.31544

> <r_epik_State_Penalty>
2.06074

> <r_epik_Charging_Adjusted_Penalty>
2.06074

> <i_epik_Tot_Q>
0

> <i_epik_Tot_abs_Q>
0

> <r_epik_Metal_State_Penalty>
2.32913

> <b_epik_Metal_Only>
0

> <s_lp_Force_Field>
OPLS_2005

> <r_lp_Energy>
18.0734

> <b_lp_Chiralities_Consistent>
1

> <s_lp_Variant>
AV-unprocessed.smi:49-13

> <Gold.Version>
5.8.1

> <Gold.Id.Protein>
6NUR|6NUR_protein|mol2

> <Gold.PLP.Fitness>
34.8897

> <Gold.PLP.PLP>
-27.8157

> <Gold.PLP.part.hbond>
-4.3615

> <Gold.PLP.part.metal>
0.0000

> <Gold.PLP.part.buried>
-4.1753

> <Gold.PLP.part.nonpolar>
-19.2824

> <Gold.PLP.part.repulsive>
0.1755

> <Gold.PLP.ligand.clash>
0.0000

> <Gold.PLP.ligand.torsion>
0.0055

> <Gold.PLP.Chemscore.Hbond>
2.3600

> <Gold.PLP.Chemscore.CHOScore>
0.0000

> <Gold.PLP.Chemscore.Metal>
0.0000

> <Gold.Chemscore.Hbonds>
donor molecule, donor type, donor heavy atom, donor atom, acceptor molecule, acceptor atom, score
      L1  H    12    16       P1  8028  0.99
      P1  H  7989  7998       L1     9  0.37
      P1  H  8011  8017       L1     9  1.00

> <Gold.PLP.Chemscore.Internal.Correction>
0.0050

> <Gold.Rescore>
     Score         DG    S(hbond)    S(metal)    S(lipo)     H(rot)  DE(clash)    DE(int)     intcor
     12.56     -12.66       1.88        0.00      48.37       1.86       0.01       0.08       ----

> <Gold.Chemscore.Fitness>
12.5647

> <Gold.Chemscore.DG>
-12.6577

> <Gold.Chemscore.ZeroCoef>
-5.4800

> <Gold.Chemscore.Hbond>
1.8771

> <Gold.Chemscore.Metal>
0.0000

> <Gold.Chemscore.Lipo>
48.3666

> <Gold.Chemscore.Internal_Hbond>
0.0000

> <Gold.Chemscore.DEClash>
0.0144

> <Gold.Chemscore.DEInternal>
0.0785

> <Gold.Chemscore.Rot>
1.8558

> <Gold.Chemscore.Internal.Correction>
   9.000000E+99

> <Gold.Chemscore.Hbonds>
donor molecule, donor type, donor heavy atom, donor atom, acceptor molecule, acceptor atom, score
      L1  H    12    16       P1  8028  0.93
      P1  H  7989  7998       L1     9  0.10
      P1  H  8011  8017       L1     9  0.17

> <Gold.Chemscore.Hbond.Weighted>
-6.2695

> <Gold.Chemscore.Metal.Weighted>
-0.0000

> <Gold.Chemscore.Lipo.Weighted>
-5.6589

> <Gold.Chemscore.Internal_Hbond.Weighted>
0.0000

> <Gold.Chemscore.DEClash.Weighted>
0.0144

> <Gold.Chemscore.DEInternal.Weighted>
0.0785

> <Gold.Chemscore.Rot.Weighted>
4.7507

> <Gold.Chemscore.Internal.Correction.Weighted>
   9.000000E+99

> <Gold.Protein.RotatedTorsions>
[ 6907 6896 6895 6894 ] final   44.43 input  -60.11 | X-H torsion
[ 7974 7965 7964 7962 ] final   32.78 input  175.53 | X-H torsion
[ 8008 7997 7996 7995 ] final -176.34 input   59.86 | X-H torsion
[ 10167 10162 10161 10158 ] final  -67.93 input  -65.29 | X-H torsion
[ 10718 10713 10712 10709 ] final  -85.49 input   66.30 | X-H torsion
[ 10763 10752 10751 10750 ] final  -39.04 input  -60.55 | X-H torsion
[ 11005 11000 10999 10996 ] final   -3.54 input  -57.11 | X-H torsion

> <Gold.Protein.ActiveResidues>
 VAL166  LYS551  ARG553  GLY616  TRP617  ASP618  TYR619  PRO620  LYS621  CYS622 
 ASP623  PHE694  ASN695  SER759  ASP760  ASP761  ALA762  ILE779  LEU786  VAL792 
 PHE793  MET794  SER795  GLU796  ALA797  LYS798  CYS799  TRP800  GLU811  SER814 

> <Gold.Protein.RotatedAtoms>
  152.2325  134.8308  160.0471 H   0  0  0  0  0  0  0  0  0  0  0  0  # atno 6907 bound_to 6896
  151.9052  133.3542  159.3852 H   0  0  0  0  0  0  0  0  0  0  0  0  # atno 6908 bound_to 6896
  150.7029  134.4713  159.5471 H   0  0  0  0  0  0  0  0  0  0  0  0  # atno 6909 bound_to 6896
  146.1464  139.6482  142.9128 H   0  0  0  0  0  0  0  0  0  0  0  0  # atno 7974 bound_to 7965
  155.9937  140.1206  157.0614 H   0  0  0  0  0  0  0  0  0  0  0  0  # atno 8008 bound_to 7997
  154.4219  140.1120  156.5669 H   0  0  0  0  0  0  0  0  0  0  0  0  # atno 8009 bound_to 7997
  155.6308  140.3473  155.4684 H   0  0  0  0  0  0  0  0  0  0  0  0  # atno 8010 bound_to 7997
  140.5546  143.2312  151.6846 H   0  0  0  0  0  0  0  0  0  0  0  0  # atno 10167 bound_to 10162
  155.9996  130.4733  150.4571 H   0  0  0  0  0  0  0  0  0  0  0  0  # atno 10718 bound_to 10713
  153.9228  135.6780  153.4747 H   0  0  0  0  0  0  0  0  0  0  0  0  # atno 10763 bound_to 10752
  153.1020  135.4823  154.8881 H   0  0  0  0  0  0  0  0  0  0  0  0  # atno 10764 bound_to 10752
  154.7469  135.3175  154.8585 H   0  0  0  0  0  0  0  0  0  0  0  0  # atno 10765 bound_to 10752
  140.6705  133.9241  155.8491 H   0  0  0  0  0  0  0  0  0  0  0  0  # atno 11005 bound_to 11000
  145.4927  141.0438  143.2584 LP  0  0  0  0  0  0  0  0  0  0  0  0  # atno 17320 bound_to 7965
  144.7851  139.6443  143.7137 LP  0  0  0  0  0  0  0  0  0  0  0  0  # atno 17321 bound_to 7965
  139.5042  144.3762  152.0421 LP  0  0  0  0  0  0  0  0  0  0  0  0  # atno 17342 bound_to 10162
  140.2882  144.3783  150.6097 LP  0  0  0  0  0  0  0  0  0  0  0  0  # atno 17343 bound_to 10162
  157.2599  131.0564  151.2327 LP  0  0  0  0  0  0  0  0  0  0  0  0  # atno 17370 bound_to 10713
  157.3445  130.7050  149.6402 LP  0  0  0  0  0  0  0  0  0  0  0  0  # atno 17371 bound_to 10713
  141.0396  134.0640  157.3918 LP  0  0  0  0  0  0  0  0  0  0  0  0  # atno 17394 bound_to 11000
  139.8983  135.0154  156.7143 LP  0  0  0  0  0  0  0  0  0  0  0  0  # atno 17395 bound_to 11000

$$$$
