AV-unprocessed.smi:64|AV-procd|sdf|610|dock4
  -GOLD-   2262016503D 1   1.00000     0.00000
 Structure written by MMmdl.
 31 32  0  0  0  0  0  0  0  0  2 V2000
  153.4348  141.7943  161.4408 C   0  0  0  0  0  0  0  0  0  0  0  0
  152.5227  143.0132  161.3806 C   0  0  0  0  0  0  0  0  0  0  0  0
  152.5074  143.8469  162.2864 O   0  0  0  0  0  0  0  0  0  0  0  0
  151.7779  143.0476  160.2643 O   0  0  0  0  0  0  0  0  0  0  0  0
  151.3693  144.2982  159.7335 C   0  0  0  0  0  0  0  0  0  0  0  0
  150.9590  144.1268  158.2679 C   0  0  0  0  0  0  0  0  0  0  0  0
  150.7017  142.7553  158.0162 O   0  0  0  0  0  0  0  0  0  0  0  0
  151.2579  142.3140  156.8233 C   0  0  0  0  0  0  0  0  0  0  0  0
  151.6249  140.9228  156.9942 N   0  0  0  0  0  0  0  0  0  0  0  0
  152.3330  140.3867  158.0071 C   0  0  0  0  0  0  0  0  0  0  0  0
  152.5392  139.0727  157.9265 N   0  0  0  0  0  0  0  0  0  0  0  0
  151.8907  138.7492  156.7396 C   0  0  0  0  0  0  0  0  0  0  0  0
  151.7169  137.4585  156.0297 C   0  0  0  0  0  0  0  0  0  0  0  0
  152.2064  136.4389  156.5123 O   0  0  0  0  0  0  0  0  0  0  0  0
  151.0049  137.5206  154.8631 N   0  5  0  0  0  0  0  0  0  0  0  0
  150.4913  138.7436  154.4085 C   0  0  0  0  0  0  0  0  0  0  0  0
  149.7994  138.6238  153.2229 N   0  0  0  0  0  0  0  0  0  0  0  0
  150.6071  139.9173  154.9803 N   0  0  0  0  0  0  0  0  0  0  0  0
  151.3283  139.8533  156.1582 C   0  0  0  0  0  0  0  0  0  0  0  0
  153.2900  141.1543  160.5699 H   0  0  0  0  0  0  0  0  0  0  0  0
  153.2221  141.2102  162.3362 H   0  0  0  0  0  0  0  0  0  0  0  0
  154.4789  142.1058  161.4714 H   0  0  0  0  0  0  0  0  0  0  0  0
  150.5450  144.7143  160.3144 H   0  0  0  0  0  0  0  0  0  0  0  0
  152.2037  144.9978  159.8000 H   0  0  0  0  0  0  0  0  0  0  0  0
  150.0517  144.7025  158.0799 H   0  0  0  0  0  0  0  0  0  0  0  0
  151.7345  144.5108  157.6031 H   0  0  0  0  0  0  0  0  0  0  0  0
  150.5396  142.3914  156.0053 H   0  0  0  0  0  0  0  0  0  0  0  0
  152.1533  142.8872  156.5779 H   0  0  0  0  0  0  0  0  0  0  0  0
  152.7096  140.9785  158.8284 H   0  0  0  0  0  0  0  0  0  0  0  0
  149.6760  137.7491  152.7350 H   0  0  0  0  0  0  0  0  0  0  0  0
  149.3684  139.4078  152.7555 H   0  0  0  0  0  0  0  0  0  0  0  0
  1  2  1  0  0  0  0
  1 20  1  0  0  0  0
  1 21  1  0  0  0  0
  1 22  1  0  0  0  0
  2  3  2  0  0  0  0
  2  4  1  0  0  0  0
  4  5  1  0  0  0  0
  5  6  1  0  0  0  0
  5 23  1  0  0  0  0
  5 24  1  0  0  0  0
  6  7  1  0  0  0  0
  6 25  1  0  0  0  0
  6 26  1  0  0  0  0
  7  8  1  0  0  0  0
  8  9  1  0  0  0  0
  8 27  1  0  0  0  0
  8 28  1  0  0  0  0
  9 19  1  0  0  0  0
  9 10  1  0  0  0  0
 10 11  2  0  0  0  0
 10 29  1  0  0  0  0
 11 12  1  0  0  0  0
 12 19  2  0  0  0  0
 12 13  1  0  0  0  0
 13 14  2  0  0  0  0
 13 15  1  0  0  0  0
 15 16  1  0  0  0  0
 16 17  1  0  0  0  0
 16 18  2  0  0  0  0
 17 30  1  0  0  0  0
 17 31  1  0  0  0  0
 18 19  1  0  0  0  0
M  CHG  1  15  -1
M  END
> <s_m_source_file>
AV-unprocessed.smi

> <i_m_source_file_index>
64

> <i_lp_mmshare_version>
43012

> <i_f3d_flags>
0

> <s_epik_input>
W0NIM11DKD1PKU9bQ0gyXVtDSDJdT1tDSDJdbihbY0hdbjEpYyhjMTIpbmMoW05IMl0pW25IXWMyPU8=

> <s_epik_cmdline>
J2VwaWtfcHl0aG9uJywgJy1waCcsICc3LjAnLCAnLXRuJywgJzgnLCAnLW1hJywgJzIwMCcsICctbWV0YWxfYmluZGluZycsICctaW1hZScsICc8aW5maWxlLm1hZT4nLCAnLW9tYWUnLCAnPG91dGZpbGUubWFlPic=

> <r_lp_tautomer_probability>
1

> <r_epik_Ionization_Penalty>
3.5586

> <r_epik_Ionization_Penalty_Charging>
1.23364e-10

> <r_epik_Ionization_Penalty_Neutral>
3.5586

> <r_epik_State_Penalty>
3.54828

> <r_epik_Charging_Adjusted_Penalty>
3.54828

> <i_epik_Tot_Q>
-1

> <i_epik_Tot_abs_Q>
1

> <r_epik_Metal_State_Penalty>
0.517613

> <b_epik_Metal_Only>
1

> <s_epik_Chemistry_Notes>
This compound has an ester and may undergo hydrolysis at high or low pH. This compound contains an acetal/aminal-like group ( X-CH(R)-Y where X, Y are N, S, or O) that may be acid/base labile, releasing an aldehyde.

> <s_lp_Force_Field>
OPLS_2005

> <r_lp_Energy>
20.1337

> <b_lp_Chiralities_Consistent>
1

> <s_lp_Variant>
AV-unprocessed.smi:64-2

> <Gold.Version>
5.8.1

> <Gold.Id.Protein>
6NUR|6NUR_protein|mol2

> <Gold.PLP.Fitness>
40.7489

> <Gold.PLP.PLP>
-32.7585

> <Gold.PLP.part.hbond>
-3.8157

> <Gold.PLP.part.metal>
0.0000

> <Gold.PLP.part.buried>
-5.8677

> <Gold.PLP.part.nonpolar>
-22.7698

> <Gold.PLP.part.repulsive>
0.6417

> <Gold.PLP.ligand.clash>
0.0000

> <Gold.PLP.ligand.torsion>
1.3747

> <Gold.PLP.Chemscore.Hbond>
3.5580

> <Gold.PLP.Chemscore.CHOScore>
0.0000

> <Gold.PLP.Chemscore.Metal>
0.0000

> <Gold.Chemscore.Hbonds>
donor molecule, donor type, donor heavy atom, donor atom, acceptor molecule, acceptor atom, score
      L1  H    17    30       P1  7948  1.00
      L1  H    17    31       P1  7957  0.59
      P1  H  7989  7998       L1    18  0.88
      P1  H 10752 10764       L1    14  1.00

> <Gold.PLP.Chemscore.Internal.Correction>
0.0658

> <Gold.Rescore>
     Score         DG    S(hbond)    S(metal)    S(lipo)     H(rot)  DE(clash)    DE(int)     intcor
      6.13      -7.57       2.35        0.00      36.72       3.93       0.09       1.34       ----

> <Gold.Chemscore.Fitness>
6.1283

> <Gold.Chemscore.DG>
-7.5663

> <Gold.Chemscore.ZeroCoef>
-5.4800

> <Gold.Chemscore.Hbond>
2.3537

> <Gold.Chemscore.Metal>
0.0000

> <Gold.Chemscore.Lipo>
36.7230

> <Gold.Chemscore.Internal_Hbond>
0.0000

> <Gold.Chemscore.DEClash>
0.0946

> <Gold.Chemscore.DEInternal>
1.3434

> <Gold.Chemscore.Rot>
3.9343

> <Gold.Chemscore.Internal.Correction>
   9.000000E+99

> <Gold.Chemscore.Hbonds>
donor molecule, donor type, donor heavy atom, donor atom, acceptor molecule, acceptor atom, score
      L1  H    17    30       P1  7948  0.55
      L1  H    17    31       P1  7957  0.60
      P1  H  7989  7998       L1    18  0.14
      P1  H 10752 10764       L1    14  0.73

> <Gold.Chemscore.Hbond.Weighted>
-7.8614

> <Gold.Chemscore.Metal.Weighted>
-0.0000

> <Gold.Chemscore.Lipo.Weighted>
-4.2966

> <Gold.Chemscore.Internal_Hbond.Weighted>
0.0000

> <Gold.Chemscore.DEClash.Weighted>
0.0946

> <Gold.Chemscore.DEInternal.Weighted>
1.3434

> <Gold.Chemscore.Rot.Weighted>
10.0717

> <Gold.Chemscore.Internal.Correction.Weighted>
   9.000000E+99

> <Gold.Protein.RotatedTorsions>
[ 6907 6896 6895 6894 ] final  141.47 input  -60.11 | X-H torsion
[ 7974 7965 7964 7962 ] final  105.60 input  175.53 | X-H torsion
[ 8008 7997 7996 7995 ] final   33.33 input   59.86 | X-H torsion
[ 10167 10162 10161 10158 ] final   54.72 input  -65.29 | X-H torsion
[ 10718 10713 10712 10709 ] final  -20.55 input   66.30 | X-H torsion
[ 10763 10752 10751 10750 ] final  -23.94 input  -60.55 | X-H torsion
[ 11005 11000 10999 10996 ] final   39.92 input  -57.11 | X-H torsion

> <Gold.Protein.ActiveResidues>
 VAL166  LYS551  ARG553  GLY616  TRP617  ASP618  TYR619  PRO620  LYS621  CYS622 
 ASP623  PHE694  ASN695  SER759  ASP760  ASP761  ALA762  ILE779  LEU786  VAL792 
 PHE793  MET794  SER795  GLU796  ALA797  LYS798  CYS799  TRP800  GLU811  SER814 

> <Gold.Protein.RotatedAtoms>
  152.2305  133.5055  159.5213 H   0  0  0  0  0  0  0  0  0  0  0  0  # atno 6907 bound_to 6896
  150.7036  134.1222  159.4048 H   0  0  0  0  0  0  0  0  0  0  0  0  # atno 6908 bound_to 6896
  151.9143  135.0325  160.0567 H   0  0  0  0  0  0  0  0  0  0  0  0  # atno 6909 bound_to 6896
  145.3176  139.2522  143.3729 H   0  0  0  0  0  0  0  0  0  0  0  0  # atno 7974 bound_to 7965
  155.1369  140.3262  155.4461 H   0  0  0  0  0  0  0  0  0  0  0  0  # atno 8008 bound_to 7997
  156.2617  140.2000  156.6435 H   0  0  0  0  0  0  0  0  0  0  0  0  # atno 8009 bound_to 7997
  154.6571  140.0551  157.0007 H   0  0  0  0  0  0  0  0  0  0  0  0  # atno 8010 bound_to 7997
  140.2271  144.3726  150.6428 H   0  0  0  0  0  0  0  0  0  0  0  0  # atno 10167 bound_to 10162
  156.5304  130.4653  149.6550 H   0  0  0  0  0  0  0  0  0  0  0  0  # atno 10718 bound_to 10713
  153.6758  135.6969  153.5133 H   0  0  0  0  0  0  0  0  0  0  0  0  # atno 10763 bound_to 10752
  153.2523  135.4271  155.0809 H   0  0  0  0  0  0  0  0  0  0  0  0  # atno 10764 bound_to 10752
  154.8414  135.3534  154.6301 H   0  0  0  0  0  0  0  0  0  0  0  0  # atno 10765 bound_to 10752
  140.1980  134.3905  155.8111 H   0  0  0  0  0  0  0  0  0  0  0  0  # atno 11005 bound_to 11000
  146.3094  140.3726  142.8675 LP  0  0  0  0  0  0  0  0  0  0  0  0  # atno 17320 bound_to 7965
  144.8965  140.7590  143.5894 LP  0  0  0  0  0  0  0  0  0  0  0  0  # atno 17321 bound_to 7965
  140.6212  143.2176  151.6689 LP  0  0  0  0  0  0  0  0  0  0  0  0  # atno 17342 bound_to 10162
  139.5123  144.3480  152.0679 LP  0  0  0  0  0  0  0  0  0  0  0  0  # atno 17343 bound_to 10162
  156.3065  130.7205  151.2089 LP  0  0  0  0  0  0  0  0  0  0  0  0  # atno 17370 bound_to 10713
  157.7422  131.0492  150.5037 LP  0  0  0  0  0  0  0  0  0  0  0  0  # atno 17371 bound_to 10713
  141.2227  133.7080  156.8210 LP  0  0  0  0  0  0  0  0  0  0  0  0  # atno 17394 bound_to 11000
  140.2085  134.8845  157.3248 LP  0  0  0  0  0  0  0  0  0  0  0  0  # atno 17395 bound_to 11000

$$$$
