AV-unprocessed.smi:1431|AV-procd|sdf|5829|dock10
  -GOLD-   22720 5493D 1   1.00000     0.00000
 Structure written by MMmdl.
 33 34  0  0  0  0  0  0  0  0  1 V2000
  144.7790  137.3295  152.1605 O   0  0  0  0  0  0  0  0  0  0  0  0
  145.9644  137.0199  152.0360 C   0  0  0  0  0  0  0  0  0  0  0  0
  146.9737  137.8880  152.1958 N   0  0  0  0  0  0  0  0  0  0  0  0
  146.8186  139.2899  152.5705 C   0  0  0  0  0  0  0  0  0  0  0  0
  147.6272  139.6443  153.8342 C   0  0  2  0  0  0  0  0  0  0  0  0
  148.1796  141.0821  153.8003 C   0  0  0  0  0  0  0  0  0  0  0  0
  149.1732  141.2499  154.9546 C   0  0  0  0  0  0  0  0  0  0  0  0
  149.9851  139.6193  155.1484 S   0  0  0  0  0  0  0  0  0  0  0  0
  151.3000  139.6431  154.4906 O   0  0  0  0  0  0  0  0  0  0  0  0
  149.8443  139.1771  156.5439 O   0  0  0  0  0  0  0  0  0  0  0  0
  148.8092  138.6940  154.0906 C   0  0  0  0  0  0  0  0  0  0  0  0
  146.4214  135.7913  151.7364 N   0  0  0  0  0  0  0  0  0  0  0  0
  145.6716  134.6025  151.5317 C   0  0  0  0  0  0  0  0  0  0  0  0
  146.4399  133.4214  151.4216 C   0  0  0  0  0  0  0  0  0  0  0  0
  145.7900  132.1883  151.2203 C   0  0  0  0  0  0  0  0  0  0  0  0
  144.3867  132.1682  151.1332 C   0  0  0  0  0  0  0  0  0  0  0  0
  143.6973  133.3890  151.2527 C   0  0  0  0  0  0  0  0  0  0  0  0
  144.3182  134.5716  151.4463 N   0  0  0  0  0  0  0  0  0  0  0  0
  147.9173  137.5519  152.0705 H   0  0  0  0  0  0  0  0  0  0  0  0
  147.1498  139.9013  151.7306 H   0  0  0  0  0  0  0  0  0  0  0  0
  145.7618  139.5181  152.7194 H   0  0  0  0  0  0  0  0  0  0  0  0
  146.9664  139.5822  154.7001 H   0  0  0  0  0  0  0  0  0  0  0  0
  148.7038  141.2438  152.8576 H   0  0  0  0  0  0  0  0  0  0  0  0
  147.3816  141.8233  153.8525 H   0  0  0  0  0  0  0  0  0  0  0  0
  149.9172  142.0251  154.7712 H   0  0  0  0  0  0  0  0  0  0  0  0
  148.6504  141.4785  155.8836 H   0  0  0  0  0  0  0  0  0  0  0  0
  148.5117  137.7677  154.5823 H   0  0  0  0  0  0  0  0  0  0  0  0
  149.3231  138.4455  153.1617 H   0  0  0  0  0  0  0  0  0  0  0  0
  147.4227  135.6897  151.6651 H   0  0  0  0  0  0  0  0  0  0  0  0
  147.5176  133.4549  151.4915 H   0  0  0  0  0  0  0  0  0  0  0  0
  146.3587  131.2741  151.1350 H   0  0  0  0  0  0  0  0  0  0  0  0
  143.8524  131.2423  150.9791 H   0  0  0  0  0  0  0  0  0  0  0  0
  142.6196  133.4175  151.1915 H   0  0  0  0  0  0  0  0  0  0  0  0
  1  2  2  0  0  0  0
  2  3  1  0  0  0  0
  2 12  1  0  0  0  0
  3  4  1  0  0  0  0
  3 19  1  0  0  0  0
  4  5  1  0  0  0  0
  4 20  1  0  0  0  0
  4 21  1  0  0  0  0
  5 11  1  0  0  0  0
  5  6  1  0  0  0  0
  5 22  1  0  0  0  0
  6  7  1  0  0  0  0
  6 23  1  0  0  0  0
  6 24  1  0  0  0  0
  7  8  1  0  0  0  0
  7 25  1  0  0  0  0
  7 26  1  0  0  0  0
  8  9  2  0  0  0  0
  8 10  2  0  0  0  0
  8 11  1  0  0  0  0
 11 27  1  0  0  0  0
 11 28  1  0  0  0  0
 12 13  1  0  0  0  0
 12 29  1  0  0  0  0
 13 18  1  0  0  0  0
 13 14  2  0  0  0  0
 14 15  1  0  0  0  0
 14 30  1  0  0  0  0
 15 16  2  0  0  0  0
 15 31  1  0  0  0  0
 16 17  1  0  0  0  0
 16 32  1  0  0  0  0
 17 18  2  0  0  0  0
 17 33  1  0  0  0  0
M  END
> <s_m_source_file>
AV-unprocessed.smi

> <i_m_source_file_index>
1431

> <i_lp_mmshare_version>
43012

> <i_f3d_flags>
0

> <s_epik_input>
bjFbY0hdW2NIXVtjSF1bY0hdYzFbTkhdQyg9TylbTkhdW0NIMl1bQ0BASF0oW0NIMl0yKVtDSDJdW0NIMl1TMig9Tyk9Tw==

> <s_epik_cmdline>
J2VwaWtfcHl0aG9uJywgJy1waCcsICc3LjAnLCAnLXRuJywgJzgnLCAnLW1hJywgJzIwMCcsICctbWV0YWxfYmluZGluZycsICctaW1hZScsICc8aW5maWxlLm1hZT4nLCAnLW9tYWUnLCAnPG91dGZpbGUubWFlPic=

> <r_lp_tautomer_probability>
1

> <r_epik_Ionization_Penalty>
4.47006e-05

> <r_epik_Ionization_Penalty_Charging>
0

> <r_epik_Ionization_Penalty_Neutral>
4.47006e-05

> <r_epik_State_Penalty>
-0

> <r_epik_Charging_Adjusted_Penalty>
0

> <i_epik_Tot_Q>
0

> <i_epik_Tot_abs_Q>
0

> <r_epik_Metal_State_Penalty>
-0

> <b_epik_Metal_Only>
0

> <s_lp_Force_Field>
OPLS_2005

> <r_lp_Energy>
3.66515

> <b_lp_Chiralities_Consistent>
1

> <s_lp_Variant>
AV-unprocessed.smi:1431-1

> <Gold.Version>
5.8.1

> <Gold.Id.Protein>
6NUR|6NUR_protein|mol2

> <Gold.PLP.Fitness>
41.1480

> <Gold.PLP.PLP>
-30.2298

> <Gold.PLP.part.hbond>
-3.0000

> <Gold.PLP.part.metal>
0.0000

> <Gold.PLP.part.buried>
-4.2689

> <Gold.PLP.part.nonpolar>
-25.6492

> <Gold.PLP.part.repulsive>
2.4605

> <Gold.PLP.ligand.clash>
0.0000

> <Gold.PLP.ligand.torsion>
0.5064

> <Gold.PLP.Chemscore.Hbond>
2.9760

> <Gold.PLP.Chemscore.CHOScore>
1.0000

> <Gold.PLP.Chemscore.Metal>
0.0000

> <Gold.Chemscore.Hbonds>
donor molecule, donor type, donor heavy atom, donor atom, acceptor molecule, acceptor atom, score
      L1  H     3    19       P1  7948  0.98
      L1  H    12    29       P1  7948  1.00
      P1  H  7989  7998       L1     9  1.00
      L1  C    17    33       P1 10186  1.00

> <Gold.PLP.Chemscore.Internal.Correction>
0.0030

> <Gold.Rescore>
     Score         DG    S(hbond)    S(metal)    S(lipo)     H(rot)  DE(clash)    DE(int)     intcor
     17.25     -19.06       2.95        0.00      60.85       1.33       0.10       1.71       ----

> <Gold.Chemscore.Fitness>
17.2455

> <Gold.Chemscore.DG>
-19.0589

> <Gold.Chemscore.ZeroCoef>
-5.4800

> <Gold.Chemscore.Hbond>
2.9517

> <Gold.Chemscore.Metal>
0.0000

> <Gold.Chemscore.Lipo>
60.8520

> <Gold.Chemscore.Internal_Hbond>
0.0000

> <Gold.Chemscore.DEClash>
0.1009

> <Gold.Chemscore.DEInternal>
1.7125

> <Gold.Chemscore.Rot>
1.3280

> <Gold.Chemscore.Internal.Correction>
   9.000000E+99

> <Gold.Chemscore.Hbonds>
donor molecule, donor type, donor heavy atom, donor atom, acceptor molecule, acceptor atom, score
      L1  H     3    19       P1  7948  0.93
      L1  H    12    29       P1  7948  0.96
      P1  H  7989  7998       L1     9  0.96

> <Gold.Chemscore.Hbond.Weighted>
-9.8587

> <Gold.Chemscore.Metal.Weighted>
-0.0000

> <Gold.Chemscore.Lipo.Weighted>
-7.1197

> <Gold.Chemscore.Internal_Hbond.Weighted>
0.0000

> <Gold.Chemscore.DEClash.Weighted>
0.1009

> <Gold.Chemscore.DEInternal.Weighted>
1.7125

> <Gold.Chemscore.Rot.Weighted>
3.3996

> <Gold.Chemscore.Internal.Correction.Weighted>
   9.000000E+99

> <Gold.Protein.RotatedTorsions>
[ 6907 6896 6895 6894 ] final  -74.92 input  -60.11 | X-H torsion
[ 7974 7965 7964 7962 ] final -101.96 input  175.53 | X-H torsion
[ 8008 7997 7996 7995 ] final  -82.09 input   59.86 | X-H torsion
[ 10167 10162 10161 10158 ] final  -70.92 input  -65.29 | X-H torsion
[ 10718 10713 10712 10709 ] final  -90.21 input   66.30 | X-H torsion
[ 10763 10752 10751 10750 ] final -175.37 input  -60.55 | X-H torsion
[ 11005 11000 10999 10996 ] final  -71.59 input  -57.11 | X-H torsion

> <Gold.Protein.ActiveResidues>
 VAL166  LYS551  ARG553  GLY616  TRP617  ASP618  TYR619  PRO620  LYS621  CYS622 
 ASP623  PHE694  ASN695  SER759  ASP760  ASP761  ALA762  ILE779  LEU786  VAL792 
 PHE793  MET794  SER795  GLU796  ALA797  LYS798  CYS799  TRP800  GLU811  SER814 

> <Gold.Protein.RotatedAtoms>
  150.7076  134.4797  159.5464 H   0  0  0  0  0  0  0  0  0  0  0  0  # atno 6907 bound_to 6896
  152.2437  134.8200  160.0465 H   0  0  0  0  0  0  0  0  0  0  0  0  # atno 6908 bound_to 6896
  151.8972  133.3494  159.3855 H   0  0  0  0  0  0  0  0  0  0  0  0  # atno 6909 bound_to 6896
  145.2749  140.9309  143.2965 H   0  0  0  0  0  0  0  0  0  0  0  0  # atno 7974 bound_to 7965
  154.6050  140.0638  156.9419 H   0  0  0  0  0  0  0  0  0  0  0  0  # atno 8008 bound_to 7997
  155.2068  140.3319  155.4316 H   0  0  0  0  0  0  0  0  0  0  0  0  # atno 8009 bound_to 7997
  156.2342  140.1855  156.7147 H   0  0  0  0  0  0  0  0  0  0  0  0  # atno 8010 bound_to 7997
  140.5314  143.2321  151.7254 H   0  0  0  0  0  0  0  0  0  0  0  0  # atno 10167 bound_to 10162
  155.9987  130.4901  150.5289 H   0  0  0  0  0  0  0  0  0  0  0  0  # atno 10718 bound_to 10713
  154.5851  135.2840  155.0693 H   0  0  0  0  0  0  0  0  0  0  0  0  # atno 10763 bound_to 10752
  154.2014  135.6424  153.5092 H   0  0  0  0  0  0  0  0  0  0  0  0  # atno 10764 bound_to 10752
  153.0102  135.5470  154.6519 H   0  0  0  0  0  0  0  0  0  0  0  0  # atno 10765 bound_to 10752
  141.1595  133.6822  156.6928 H   0  0  0  0  0  0  0  0  0  0  0  0  # atno 11005 bound_to 11000
  144.9303  139.4306  143.6498 LP  0  0  0  0  0  0  0  0  0  0  0  0  # atno 17320 bound_to 7965
  146.3235  139.8210  142.8927 LP  0  0  0  0  0  0  0  0  0  0  0  0  # atno 17321 bound_to 7965
  139.4956  144.4108  152.0083 LP  0  0  0  0  0  0  0  0  0  0  0  0  # atno 17342 bound_to 10162
  140.3210  144.3427  150.6009 LP  0  0  0  0  0  0  0  0  0  0  0  0  # atno 17343 bound_to 10162
  157.3240  131.0687  151.1910 LP  0  0  0  0  0  0  0  0  0  0  0  0  # atno 17370 bound_to 10713
  157.2814  130.6752  149.6068 LP  0  0  0  0  0  0  0  0  0  0  0  0  # atno 17371 bound_to 10713
  140.3017  134.8158  157.4103 LP  0  0  0  0  0  0  0  0  0  0  0  0  # atno 17394 bound_to 11000
  140.1256  134.5162  155.8147 LP  0  0  0  0  0  0  0  0  0  0  0  0  # atno 17395 bound_to 11000

$$$$
