AV-unprocessed.smi:1005|AV-procd|sdf|4377|dock6
  -GOLD-   22720 2293D 1   1.00000     0.00000
 Structure written by MMmdl.
 57 59  0  0  0  0  0  0  0  0  3 V2000
  151.9104  144.5651  161.2435 C   0  0  0  0  0  0  0  0  0  0  0  0
  151.8264  143.5346  160.1304 C   0  0  0  0  0  0  0  0  0  0  0  0
  151.1107  143.8655  158.9577 C   0  0  0  0  0  0  0  0  0  0  0  0
  151.0503  142.9019  157.9582 C   0  0  0  0  0  0  0  0  0  0  0  0
  150.4295  142.9214  156.7076 N   0  3  0  0  0  0  0  0  0  0  0  0
  150.6439  141.7348  156.0755 C   0  0  0  0  0  0  0  0  0  0  0  0
  151.3922  140.9567  156.9039 N   0  0  0  0  0  0  0  0  0  0  0  0
  151.8956  139.5912  156.6977 C   0  0  0  0  0  0  0  0  0  0  0  0
  151.9890  139.2068  155.2080 C   0  0  1  0  0  0  0  0  0  0  0  0
  153.2340  139.6701  154.7275 O   0  0  0  0  0  0  0  0  0  0  0  0
  151.8952  137.6850  154.9567 C   0  0  0  0  0  0  0  0  0  0  0  0
  150.6173  137.0630  155.3062 N   0  0  0  0  0  0  0  0  0  0  0  0
  150.5789  135.6365  154.9902 C   0  0  0  0  0  0  0  0  0  0  0  0
  149.2156  135.0106  155.3290 C   0  0  0  0  0  0  0  0  0  0  0  0
  148.1829  135.7195  154.6524 O   0  0  0  0  0  0  0  0  0  0  0  0
  148.1478  137.1046  154.9864 C   0  0  2  0  0  0  0  0  0  0  0  0
  146.9949  137.7593  154.2044 C   0  0  0  0  0  0  0  0  0  0  0  0
  146.9787  137.3710  152.7708 N   0  3  0  0  0  0  0  0  0  0  0  0
  146.0288  136.2761  152.4648 C   0  0  0  0  0  0  0  0  0  0  0  0
  146.7666  138.5353  151.8827 C   0  0  0  0  0  0  0  0  0  0  0  0
  149.5113  137.7272  154.6248 C   0  0  0  0  0  0  0  0  0  0  0  0
  151.6726  141.6450  158.0911 C   0  0  0  0  0  0  0  0  0  0  0  0
  152.3826  141.3038  159.2406 C   0  0  0  0  0  0  0  0  0  0  0  0
  152.4537  142.2696  160.2699 C   0  0  0  0  0  0  0  0  0  0  0  0
  153.2180  141.9229  161.5366 C   0  0  0  0  0  0  0  0  0  0  0  0
  151.3698  145.4762  160.9855 H   0  0  0  0  0  0  0  0  0  0  0  0
  152.9486  144.8372  161.4359 H   0  0  0  0  0  0  0  0  0  0  0  0
  151.4784  144.1715  162.1638 H   0  0  0  0  0  0  0  0  0  0  0  0
  150.6299  144.8263  158.8445 H   0  0  0  0  0  0  0  0  0  0  0  0
  150.2845  141.4602  155.0940 H   0  0  0  0  0  0  0  0  0  0  0  0
  152.8862  139.5492  157.1532 H   0  0  0  0  0  0  0  0  0  0  0  0
  151.2774  138.8860  157.2531 H   0  0  0  0  0  0  0  0  0  0  0  0
  151.2023  139.7375  154.6733 H   0  0  0  0  0  0  0  0  0  0  0  0
  153.7007  138.9428  154.3454 H   0  0  0  0  0  0  0  0  0  0  0  0
  152.1053  137.5070  153.9009 H   0  0  0  0  0  0  0  0  0  0  0  0
  152.6876  137.1746  155.5042 H   0  0  0  0  0  0  0  0  0  0  0  0
  150.7913  135.4856  153.9308 H   0  0  0  0  0  0  0  0  0  0  0  0
  151.3495  135.1011  155.5429 H   0  0  0  0  0  0  0  0  0  0  0  0
  149.1917  133.9652  155.0213 H   0  0  0  0  0  0  0  0  0  0  0  0
  149.0367  135.0321  156.4052 H   0  0  0  0  0  0  0  0  0  0  0  0
  147.9886  137.2151  156.0594 H   0  0  0  0  0  0  0  0  0  0  0  0
  146.0342  137.5117  154.6584 H   0  0  0  0  0  0  0  0  0  0  0  0
  147.1022  138.8422  154.2841 H   0  0  0  0  0  0  0  0  0  0  0  0
  145.0055  136.5666  152.7061 H   0  0  0  0  0  0  0  0  0  0  0  0
  146.2677  135.3692  153.0187 H   0  0  0  0  0  0  0  0  0  0  0  0
  146.0672  136.0226  151.4048 H   0  0  0  0  0  0  0  0  0  0  0  0
  145.7864  138.9827  152.0532 H   0  0  0  0  0  0  0  0  0  0  0  0
  146.8298  138.2391  150.8350 H   0  0  0  0  0  0  0  0  0  0  0  0
  147.5267  139.2986  152.0538 H   0  0  0  0  0  0  0  0  0  0  0  0
  149.5020  138.7859  154.8879 H   0  0  0  0  0  0  0  0  0  0  0  0
  149.6603  137.6763  153.5448 H   0  0  0  0  0  0  0  0  0  0  0  0
  152.8590  140.3413  159.3519 H   0  0  0  0  0  0  0  0  0  0  0  0
  153.6441  140.9205  161.4847 H   0  0  0  0  0  0  0  0  0  0  0  0
  152.5585  141.9594  162.4038 H   0  0  0  0  0  0  0  0  0  0  0  0
  154.0376  142.6245  161.6941 H   0  0  0  0  0  0  0  0  0  0  0  0
  147.9043  137.0248  152.5594 H   0  0  0  0  0  0  0  0  0  0  0  0
  149.8985  143.6868  156.3118 H   0  0  0  0  0  0  0  0  0  0  0  0
  1  2  1  0  0  0  0
  1 26  1  0  0  0  0
  1 27  1  0  0  0  0
  1 28  1  0  0  0  0
  2 24  1  0  0  0  0
  2  3  2  0  0  0  0
  3  4  1  0  0  0  0
  3 29  1  0  0  0  0
  4 22  2  0  0  0  0
  4  5  1  0  0  0  0
  5  6  2  0  0  0  0
  5 57  1  0  0  0  0
  6  7  1  0  0  0  0
  6 30  1  0  0  0  0
  7  8  1  0  0  0  0
  7 22  1  0  0  0  0
  8  9  1  0  0  0  0
  8 31  1  0  0  0  0
  8 32  1  0  0  0  0
  9 10  1  0  0  0  0
  9 11  1  0  0  0  0
  9 33  1  0  0  0  0
 10 34  1  0  0  0  0
 11 12  1  0  0  0  0
 11 35  1  0  0  0  0
 11 36  1  0  0  0  0
 12 21  1  0  0  0  0
 12 13  1  0  0  0  0
 13 14  1  0  0  0  0
 13 37  1  0  0  0  0
 13 38  1  0  0  0  0
 14 15  1  0  0  0  0
 14 39  1  0  0  0  0
 14 40  1  0  0  0  0
 15 16  1  0  0  0  0
 16 17  1  0  0  0  0
 16 21  1  0  0  0  0
 16 41  1  0  0  0  0
 17 18  1  0  0  0  0
 17 42  1  0  0  0  0
 17 43  1  0  0  0  0
 18 19  1  0  0  0  0
 18 20  1  0  0  0  0
 18 56  1  0  0  0  0
 19 44  1  0  0  0  0
 19 45  1  0  0  0  0
 19 46  1  0  0  0  0
 20 47  1  0  0  0  0
 20 48  1  0  0  0  0
 20 49  1  0  0  0  0
 21 50  1  0  0  0  0
 21 51  1  0  0  0  0
 22 23  1  0  0  0  0
 23 24  2  0  0  0  0
 23 52  1  0  0  0  0
 24 25  1  0  0  0  0
 25 53  1  0  0  0  0
 25 54  1  0  0  0  0
 25 55  1  0  0  0  0
M  CHG  1   5   1
M  CHG  1  18   1
M  END
> <s_m_source_file>
AV-unprocessed.smi

> <i_m_source_file_index>
1005

> <i_lp_mmshare_version>
43012

> <i_f3d_flags>
0

> <s_epik_input>
W0NIM11jKFtjSF0xKWMoW0NIM10pW2NIXWMoYzEyKW4oW2NIXW4yKVtDSDJdW0NASF0oW09IXSlbQ0gyXU4zW0NIMl1bQ0gyXU9bQ0BIXShbQ0gyXTMpW0NIMl1OKFtDSDNdKVtDSDNd

> <s_epik_cmdline>
J2VwaWtfcHl0aG9uJywgJy1waCcsICc3LjAnLCAnLXRuJywgJzgnLCAnLW1hJywgJzIwMCcsICctbWV0YWxfYmluZGluZycsICctaW1hZScsICc8aW5maWxlLm1hZT4nLCAnLW9tYWUnLCAnPG91dGZpbGUubWFlPic=

> <r_epik_Ionization_Penalty>
1.3281

> <r_epik_Ionization_Penalty_Charging>
1.21988

> <r_epik_Ionization_Penalty_Neutral>
0.10822

> <r_epik_State_Penalty>
1.32886

> <r_epik_Charging_Adjusted_Penalty>
2.54875

> <i_epik_Tot_Q>
2

> <i_epik_Tot_abs_Q>
2

> <r_epik_Metal_State_Penalty>
5.33912

> <b_epik_Metal_Only>
0

> <s_lp_Force_Field>
OPLS_2005

> <r_lp_Energy>
45.9182

> <b_lp_Chiralities_Consistent>
1

> <s_lp_Variant>
AV-unprocessed.smi:1005-16

> <Gold.Version>
5.8.1

> <Gold.Id.Protein>
6NUR|6NUR_protein|mol2

> <Gold.PLP.Fitness>
62.6772

> <Gold.PLP.PLP>
-50.1169

> <Gold.PLP.part.hbond>
-4.0000

> <Gold.PLP.part.metal>
0.0000

> <Gold.PLP.part.buried>
-6.2816

> <Gold.PLP.part.nonpolar>
-41.5350

> <Gold.PLP.part.repulsive>
0.5827

> <Gold.PLP.ligand.clash>
0.0000

> <Gold.PLP.ligand.torsion>
1.2950

> <Gold.PLP.Chemscore.Hbond>
5.0000

> <Gold.PLP.Chemscore.CHOScore>
0.0000

> <Gold.PLP.Chemscore.Metal>
0.0000

> <Gold.Chemscore.Hbonds>
donor molecule, donor type, donor heavy atom, donor atom, acceptor molecule, acceptor atom, score
      L1  H     5    57       P1  8028  2.00
      L1  H    18    56       P1  7948  1.76
      P1  H  7997  8009       L1    10  0.85

> <Gold.PLP.Chemscore.Internal.Correction>
0.1503

> <Gold.Rescore>
     Score         DG    S(hbond)    S(metal)    S(lipo)     H(rot)  DE(clash)    DE(int)     intcor
     22.94     -24.42       2.86        0.00     134.69       2.49       0.15       1.32       ----

> <Gold.Chemscore.Fitness>
22.9437

> <Gold.Chemscore.DG>
-24.4166

> <Gold.Chemscore.ZeroCoef>
-5.4800

> <Gold.Chemscore.Hbond>
2.8598

> <Gold.Chemscore.Metal>
0.0000

> <Gold.Chemscore.Lipo>
134.6894

> <Gold.Chemscore.Internal_Hbond>
0.0000

> <Gold.Chemscore.DEClash>
0.1541

> <Gold.Chemscore.DEInternal>
1.3188

> <Gold.Chemscore.Rot>
2.4897

> <Gold.Chemscore.Internal.Correction>
   9.000000E+99

> <Gold.Chemscore.Hbonds>
donor molecule, donor type, donor heavy atom, donor atom, acceptor molecule, acceptor atom, score
      L1  H     5    57       P1  8028  0.98
      L1  H    18    56       P1  7948  0.85
      P1  H  7997  8009       L1    10  0.14

> <Gold.Chemscore.Hbond.Weighted>
-9.5516

> <Gold.Chemscore.Metal.Weighted>
-0.0000

> <Gold.Chemscore.Lipo.Weighted>
-15.7587

> <Gold.Chemscore.Internal_Hbond.Weighted>
0.0000

> <Gold.Chemscore.DEClash.Weighted>
0.1541

> <Gold.Chemscore.DEInternal.Weighted>
1.3188

> <Gold.Chemscore.Rot.Weighted>
6.3737

> <Gold.Chemscore.Internal.Correction.Weighted>
   9.000000E+99

> <Gold.Protein.RotatedTorsions>
[ 6907 6896 6895 6894 ] final   83.09 input  -60.11 | X-H torsion
[ 7974 7965 7964 7962 ] final  150.22 input  175.53 | X-H torsion
[ 8008 7997 7996 7995 ] final -129.89 input   59.86 | X-H torsion
[ 10167 10162 10161 10158 ] final  -29.32 input  -65.29 | X-H torsion
[ 10718 10713 10712 10709 ] final  -85.21 input   66.30 | X-H torsion
[ 10763 10752 10751 10750 ] final  -36.23 input  -60.55 | X-H torsion
[ 11005 11000 10999 10996 ] final  -33.32 input  -57.11 | X-H torsion

> <Gold.Protein.ActiveResidues>
 VAL166  LYS551  ARG553  GLY616  TRP617  ASP618  TYR619  PRO620  LYS621  CYS622 
 ASP623  PHE694  ASN695  SER759  ASP760  ASP761  ALA762  ILE779  LEU786  VAL792 
 PHE793  MET794  SER795  GLU796  ALA797  LYS798  CYS799  TRP800  GLU811  SER814 

> <Gold.Protein.RotatedAtoms>
  152.5317  134.2949  159.9056 H   0  0  0  0  0  0  0  0  0  0  0  0  # atno 6907 bound_to 6896
  151.2901  133.4163  159.2640 H   0  0  0  0  0  0  0  0  0  0  0  0  # atno 6908 bound_to 6896
  151.0208  134.9484  159.8115 H   0  0  0  0  0  0  0  0  0  0  0  0  # atno 6909 bound_to 6896
  144.8380  139.6381  143.6029 H   0  0  0  0  0  0  0  0  0  0  0  0  # atno 7974 bound_to 7965
  155.2868  140.0446  157.3020 H   0  0  0  0  0  0  0  0  0  0  0  0  # atno 8008 bound_to 7997
  154.5565  140.2333  155.8370 H   0  0  0  0  0  0  0  0  0  0  0  0  # atno 8009 bound_to 7997
  156.2011  140.3025  155.9536 H   0  0  0  0  0  0  0  0  0  0  0  0  # atno 8010 bound_to 7997
  140.7261  143.3938  151.1383 H   0  0  0  0  0  0  0  0  0  0  0  0  # atno 10167 bound_to 10162
  155.9999  130.4723  150.4527 H   0  0  0  0  0  0  0  0  0  0  0  0  # atno 10718 bound_to 10713
  153.8764  135.6826  153.4770 H   0  0  0  0  0  0  0  0  0  0  0  0  # atno 10763 bound_to 10752
  153.1258  135.4719  154.9268 H   0  0  0  0  0  0  0  0  0  0  0  0  # atno 10764 bound_to 10752
  154.7690  135.3233  154.8180 H   0  0  0  0  0  0  0  0  0  0  0  0  # atno 10765 bound_to 10752
  140.9625  133.7156  156.1392 H   0  0  0  0  0  0  0  0  0  0  0  0  # atno 11005 bound_to 11000
  146.2676  139.6558  142.9318 LP  0  0  0  0  0  0  0  0  0  0  0  0  # atno 17320 bound_to 7965
  145.4754  141.0437  143.2675 LP  0  0  0  0  0  0  0  0  0  0  0  0  # atno 17321 bound_to 7965
  139.7547  143.8725  152.3086 LP  0  0  0  0  0  0  0  0  0  0  0  0  # atno 17342 bound_to 10162
  139.8591  144.7126  150.9121 LP  0  0  0  0  0  0  0  0  0  0  0  0  # atno 17343 bound_to 10162
  157.2559  131.0556  151.2351 LP  0  0  0  0  0  0  0  0  0  0  0  0  # atno 17370 bound_to 10713
  157.3483  130.7069  149.6424 LP  0  0  0  0  0  0  0  0  0  0  0  0  # atno 17371 bound_to 10713
  140.7447  134.4111  157.5550 LP  0  0  0  0  0  0  0  0  0  0  0  0  # atno 17394 bound_to 11000
  139.8883  134.8860  156.2482 LP  0  0  0  0  0  0  0  0  0  0  0  0  # atno 17395 bound_to 11000

$$$$
