AV-unprocessed.smi:285|AV-procd|sdf|2166|dock2
  -GOLD-   2262021523D 1   1.00000     0.00000
 Structure written by MMmdl.
 31 33  0  0  0  0  0  0  0  0  1 V2000
  155.5711  140.9467  160.8599 N   0  0  0  0  0  0  0  0  0  0  0  0
  154.3354  141.3502  160.5333 C   0  0  0  0  0  0  0  0  0  0  0  0
  153.7928  142.3812  161.2223 N   0  0  0  0  0  0  0  0  0  0  0  0
  152.5613  142.8026  160.9165 C   0  0  0  0  0  0  0  0  0  0  0  0
  151.7281  142.3401  159.9807 N   0  0  0  0  0  0  0  0  0  0  0  0
  152.2760  141.3014  159.2842 C   0  0  0  0  0  0  0  0  0  0  0  0
  153.5722  140.7480  159.5014 C   0  0  0  0  0  0  0  0  0  0  0  0
  153.8020  139.7013  158.6175 N   0  0  0  0  0  0  0  0  0  0  0  0
  152.6956  139.6594  157.9291 C   0  0  0  0  0  0  0  0  0  0  0  0
  152.4668  138.3619  156.5535 Br  0  0  0  0  0  0  0  0  0  0  0  0
  151.7194  140.5763  158.2488 N   0  0  0  0  0  0  0  0  0  0  0  0
  150.3701  140.7657  157.6338 C   0  0  1  0  0  0  0  0  0  0  0  0
  150.3500  141.9478  156.6810 C   0  0  0  0  0  0  0  0  0  0  0  0
  149.1354  141.5777  155.8583 C   0  0  1  0  0  0  0  0  0  0  0  0
  149.1124  142.2713  154.6263 O   0  0  0  0  0  0  0  0  0  0  0  0
  149.2368  140.0375  155.7542 C   0  0  1  0  0  0  0  0  0  0  0  0
  149.9199  139.5067  154.4773 C   0  0  0  0  0  0  0  0  0  0  0  0
  151.2892  139.8495  154.4871 O   0  0  0  0  0  0  0  0  0  0  0  0
  150.0558  139.6501  156.8645 O   0  0  0  0  0  0  0  0  0  0  0  0
  155.9981  140.1796  160.3606 H   0  0  0  0  0  0  0  0  0  0  0  0
  156.0739  141.4125  161.6014 H   0  0  0  0  0  0  0  0  0  0  0  0
  152.1899  143.6285  161.5052 H   0  0  0  0  0  0  0  0  0  0  0  0
  149.6648  140.8618  158.4592 H   0  0  0  0  0  0  0  0  0  0  0  0
  150.2580  142.8929  157.2169 H   0  0  0  0  0  0  0  0  0  0  0  0
  151.2561  141.9546  156.0732 H   0  0  0  0  0  0  0  0  0  0  0  0
  148.2365  141.8396  156.4189 H   0  0  0  0  0  0  0  0  0  0  0  0
  149.1447  143.1994  154.8024 H   0  0  0  0  0  0  0  0  0  0  0  0
  148.2400  139.6050  155.8517 H   0  0  0  0  0  0  0  0  0  0  0  0
  149.8760  138.4188  154.4334 H   0  0  0  0  0  0  0  0  0  0  0  0
  149.4387  139.8848  153.5759 H   0  0  0  0  0  0  0  0  0  0  0  0
  151.7958  139.0574  154.5797 H   0  0  0  0  0  0  0  0  0  0  0  0
  1  2  1  0  0  0  0
  1 20  1  0  0  0  0
  1 21  1  0  0  0  0
  2  7  1  0  0  0  0
  2  3  2  0  0  0  0
  3  4  1  0  0  0  0
  4  5  2  0  0  0  0
  4 22  1  0  0  0  0
  5  6  1  0  0  0  0
  6 11  1  0  0  0  0
  6  7  2  0  0  0  0
  7  8  1  0  0  0  0
  8  9  2  0  0  0  0
  9 10  1  0  0  0  0
  9 11  1  0  0  0  0
 11 12  1  0  0  0  0
 12 19  1  0  0  0  0
 12 13  1  0  0  0  0
 12 23  1  0  0  0  0
 13 14  1  0  0  0  0
 13 24  1  0  0  0  0
 13 25  1  0  0  0  0
 14 15  1  0  0  0  0
 14 16  1  0  0  0  0
 14 26  1  0  0  0  0
 15 27  1  0  0  0  0
 16 17  1  0  0  0  0
 16 19  1  0  0  0  0
 16 28  1  0  0  0  0
 17 18  1  0  0  0  0
 17 29  1  0  0  0  0
 17 30  1  0  0  0  0
 18 31  1  0  0  0  0
M  END
> <s_m_source_file>
AV-unprocessed.smi

> <i_m_source_file_index>
285

> <i_lp_mmshare_version>
43012

> <i_f3d_flags>
0

> <s_epik_input>
bjFbY0hdbmMoW05IMl0pYyhjMTIpbmMoQnIpbjJbQ0BASF0zW0NIMl1bQ0BASF0oW09IXSlbQ0BIXShPMylbQ0gyXVtPSF0=

> <s_epik_cmdline>
J2VwaWtfcHl0aG9uJywgJy1waCcsICc3LjAnLCAnLXRuJywgJzgnLCAnLW1hJywgJzIwMCcsICctbWV0YWxfYmluZGluZycsICctaW1hZScsICc8aW5maWxlLm1hZT4nLCAnLW9tYWUnLCAnPG91dGZpbGUubWFlPic=

> <r_lp_tautomer_probability>
1

> <r_epik_Ionization_Penalty>
0.000103242

> <r_epik_Ionization_Penalty_Charging>
0

> <r_epik_Ionization_Penalty_Neutral>
0.000103242

> <r_epik_State_Penalty>
-0

> <r_epik_Charging_Adjusted_Penalty>
0

> <i_epik_Tot_Q>
0

> <i_epik_Tot_abs_Q>
0

> <r_epik_Metal_State_Penalty>
-0

> <b_epik_Metal_Only>
0

> <s_epik_Chemistry_Notes>
This compound contains an acetal/aminal-like group ( X-CH(R)-Y where X, Y are N, S, or O) that may be acid/base labile, releasing an aldehyde.

> <s_lp_Force_Field>
OPLS_2005

> <r_lp_Energy>
35.0354

> <b_lp_Chiralities_Consistent>
1

> <s_lp_Variant>
AV-unprocessed.smi:285-2

> <Gold.Version>
5.8.1

> <Gold.Id.Protein>
6NUR|6NUR_protein|mol2

> <Gold.PLP.Fitness>
40.2460

> <Gold.PLP.PLP>
-32.0881

> <Gold.PLP.part.hbond>
-5.8519

> <Gold.PLP.part.metal>
0.0000

> <Gold.PLP.part.buried>
-3.3367

> <Gold.PLP.part.nonpolar>
-21.9348

> <Gold.PLP.part.repulsive>
0.0374

> <Gold.PLP.ligand.clash>
0.0000

> <Gold.PLP.ligand.torsion>
0.4734

> <Gold.PLP.Chemscore.Hbond>
3.0300

> <Gold.PLP.Chemscore.CHOScore>
0.0000

> <Gold.PLP.Chemscore.Metal>
0.0000

> <Gold.Chemscore.Hbonds>
donor molecule, donor type, donor heavy atom, donor atom, acceptor molecule, acceptor atom, score
      L1  H    15    27       P1  8028  1.00
      P1  H  7989  7998       L1    18  0.81
      P1  H  7997  8010       L1     8  0.98
      P1  H  8011  8017       L1    15  0.02

> <Gold.PLP.Chemscore.Internal.Correction>
0.0147

> <Gold.Rescore>
     Score         DG    S(hbond)    S(metal)    S(lipo)     H(rot)  DE(clash)    DE(int)     intcor
      6.13      -9.20       2.22        0.00      35.35       3.06       0.01       3.06       ----

> <Gold.Chemscore.Fitness>
6.1286

> <Gold.Chemscore.DG>
-9.2004

> <Gold.Chemscore.ZeroCoef>
-5.4800

> <Gold.Chemscore.Hbond>
2.2214

> <Gold.Chemscore.Metal>
0.0000

> <Gold.Chemscore.Lipo>
35.3522

> <Gold.Chemscore.Internal_Hbond>
0.0000

> <Gold.Chemscore.DEClash>
0.0103

> <Gold.Chemscore.DEInternal>
3.0614

> <Gold.Chemscore.Rot>
3.0607

> <Gold.Chemscore.Internal.Correction>
   9.000000E+99

> <Gold.Chemscore.Hbonds>
donor molecule, donor type, donor heavy atom, donor atom, acceptor molecule, acceptor atom, score
      L1  H    15    27       P1  8028  1.00
      P1  H  7989  7998       L1    18  0.70
      P1  H  7997  8010       L1     8  0.30

> <Gold.Chemscore.Hbond.Weighted>
-7.4195

> <Gold.Chemscore.Metal.Weighted>
-0.0000

> <Gold.Chemscore.Lipo.Weighted>
-4.1362

> <Gold.Chemscore.Internal_Hbond.Weighted>
0.0000

> <Gold.Chemscore.DEClash.Weighted>
0.0103

> <Gold.Chemscore.DEInternal.Weighted>
3.0614

> <Gold.Chemscore.Rot.Weighted>
7.8354

> <Gold.Chemscore.Internal.Correction.Weighted>
   9.000000E+99

> <Gold.Protein.RotatedTorsions>
[ 6907 6896 6895 6894 ] final -170.03 input  -60.11 | X-H torsion
[ 7974 7965 7964 7962 ] final   45.82 input  175.53 | X-H torsion
[ 8008 7997 7996 7995 ] final    2.77 input   59.86 | X-H torsion
[ 10167 10162 10161 10158 ] final -117.69 input  -65.29 | X-H torsion
[ 10718 10713 10712 10709 ] final   98.32 input   66.30 | X-H torsion
[ 10763 10752 10751 10750 ] final  173.18 input  -60.55 | X-H torsion
[ 11005 11000 10999 10996 ] final -108.44 input  -57.11 | X-H torsion

> <Gold.Protein.ActiveResidues>
 VAL166  LYS551  ARG553  GLY616  TRP617  ASP618  TYR619  PRO620  LYS621  CYS622 
 ASP623  PHE694  ASN695  SER759  ASP760  ASP761  ALA762  ILE779  LEU786  VAL792 
 PHE793  MET794  SER795  GLU796  ALA797  LYS798  CYS799  TRP800  GLU811  SER814 

> <Gold.Protein.RotatedAtoms>
  151.5012  133.3504  159.2869 H   0  0  0  0  0  0  0  0  0  0  0  0  # atno 6907 bound_to 6896
  150.8772  134.8158  159.7209 H   0  0  0  0  0  0  0  0  0  0  0  0  # atno 6908 bound_to 6896
  152.4738  134.4905  159.9745 H   0  0  0  0  0  0  0  0  0  0  0  0  # atno 6909 bound_to 6896
  146.0446  139.4923  142.9757 H   0  0  0  0  0  0  0  0  0  0  0  0  # atno 7974 bound_to 7965
  154.6956  140.2662  155.6769 H   0  0  0  0  0  0  0  0  0  0  0  0  # atno 8008 bound_to 7997
  156.2747  140.2782  156.1473 H   0  0  0  0  0  0  0  0  0  0  0  0  # atno 8009 bound_to 7997
  155.0835  140.0373  157.2636 H   0  0  0  0  0  0  0  0  0  0  0  0  # atno 8010 bound_to 7997
  140.0656  143.4926  152.2008 H   0  0  0  0  0  0  0  0  0  0  0  0  # atno 10167 bound_to 10162
  157.6897  131.0636  150.4778 H   0  0  0  0  0  0  0  0  0  0  0  0  # atno 10718 bound_to 10713
  154.4364  135.2761  155.1877 H   0  0  0  0  0  0  0  0  0  0  0  0  # atno 10763 bound_to 10752
  154.3762  135.6097  153.5770 H   0  0  0  0  0  0  0  0  0  0  0  0  # atno 10764 bound_to 10752
  152.9838  135.5869  154.4684 H   0  0  0  0  0  0  0  0  0  0  0  0  # atno 10765 bound_to 10752
  141.0901  133.9069  157.2094 H   0  0  0  0  0  0  0  0  0  0  0  0  # atno 11005 bound_to 11000
  145.6828  141.0186  143.1597 LP  0  0  0  0  0  0  0  0  0  0  0  0  # atno 17320 bound_to 7965
  144.7091  139.8441  143.7420 LP  0  0  0  0  0  0  0  0  0  0  0  0  # atno 17321 bound_to 7965
  139.5867  144.7534  151.3503 LP  0  0  0  0  0  0  0  0  0  0  0  0  # atno 17342 bound_to 10162
  140.7150  143.7289  150.7639 LP  0  0  0  0  0  0  0  0  0  0  0  0  # atno 17343 bound_to 10162
  156.5112  130.4140  149.6300 LP  0  0  0  0  0  0  0  0  0  0  0  0  # atno 17370 bound_to 10713
  156.3239  130.7295  151.2212 LP  0  0  0  0  0  0  0  0  0  0  0  0  # atno 17371 bound_to 10713
  139.9726  135.0123  156.9550 LP  0  0  0  0  0  0  0  0  0  0  0  0  # atno 17394 bound_to 11000
  140.5271  134.0850  155.7306 LP  0  0  0  0  0  0  0  0  0  0  0  0  # atno 17395 bound_to 11000

$$$$
