AV-unprocessed.smi:2339|AV-procd|sdf|9342|dock1
  -GOLD-   2272012563D 1   1.00000     0.00000
 Structure written by MMmdl.
 49 52  0  0  0  0  0  0  0  0  1 V2000
  145.3226  142.3763  155.2004 C   0  0  0  0  0  0  0  0  0  0  0  0
  146.3438  142.4173  154.0583 C   0  0  0  0  0  0  0  0  0  0  0  0
  147.3255  141.3486  154.1731 N   0  0  0  0  0  0  0  0  0  0  0  0
  148.6322  141.6093  154.5726 C   0  0  0  0  0  0  0  0  0  0  0  0
  149.6040  140.6783  154.6315 C   0  0  0  0  0  0  0  0  0  0  0  0
  149.2955  139.2857  154.2489 C   0  0  0  0  0  0  0  0  0  0  0  0
  150.1589  138.4090  154.2896 O   0  0  0  0  0  0  0  0  0  0  0  0
  147.9007  139.0085  153.8160 C   0  0  0  0  0  0  0  0  0  0  0  0
  147.6184  137.6811  153.4585 N   0  0  0  0  0  0  0  0  0  0  0  0
  146.6282  136.8682  153.8795 C   0  0  0  0  0  0  0  0  0  0  0  0
  145.7559  137.1683  154.6914 O   0  0  0  0  0  0  0  0  0  0  0  0
  146.6341  135.6636  153.2823 N   0  0  0  0  0  0  0  0  0  0  0  0
  145.7032  134.5494  153.5059 C   0  0  2  0  0  0  0  0  0  0  0  0
  146.2716  133.4227  154.4043 C   0  0  2  0  0  0  0  0  0  0  0  0
  147.5378  133.5614  155.2155 C   0  0  0  0  0  0  0  0  0  0  0  0
  148.5963  132.9244  154.3105 C   0  0  0  0  0  0  0  0  0  0  0  0
  148.0255  132.9530  153.0042 O   0  0  0  0  0  0  0  0  0  0  0  0
  146.6341  132.6731  153.1323 C   0  0  2  0  0  0  0  0  0  0  0  0
  145.6768  133.5627  152.3140 C   0  0  0  0  0  0  0  0  0  0  0  0
  146.1346  134.0092  150.9250 C   0  0  0  0  0  0  0  0  0  0  0  0
  145.6660  132.9383  149.9379 C   0  0  0  0  0  0  0  0  0  0  0  0
  144.4654  132.2619  150.6063 C   0  0  0  0  0  0  0  0  0  0  0  0
  144.3291  132.9230  151.9818 C   0  0  0  0  0  0  0  0  0  0  0  0
  147.0180  140.0396  153.8070 C   0  0  0  0  0  0  0  0  0  0  0  0
  144.6016  143.1880  155.1037 H   0  0  0  0  0  0  0  0  0  0  0  0
  145.8109  142.4786  156.1698 H   0  0  0  0  0  0  0  0  0  0  0  0
  144.7692  141.4367  155.2000 H   0  0  0  0  0  0  0  0  0  0  0  0
  145.8308  142.3391  153.0990 H   0  0  0  0  0  0  0  0  0  0  0  0
  146.8548  143.3810  154.0531 H   0  0  0  0  0  0  0  0  0  0  0  0
  148.8174  142.6380  154.8460 H   0  0  0  0  0  0  0  0  0  0  0  0
  150.6052  140.9274  154.9513 H   0  0  0  0  0  0  0  0  0  0  0  0
  148.2330  137.2999  152.7538 H   0  0  0  0  0  0  0  0  0  0  0  0
  147.3153  135.5249  152.5497 H   0  0  0  0  0  0  0  0  0  0  0  0
  144.7005  134.8639  153.8006 H   0  0  0  0  0  0  0  0  0  0  0  0
  145.4654  132.9166  154.9379 H   0  0  0  0  0  0  0  0  0  0  0  0
  147.7806  134.5996  155.4354 H   0  0  0  0  0  0  0  0  0  0  0  0
  147.4736  133.0377  156.1696 H   0  0  0  0  0  0  0  0  0  0  0  0
  149.5494  133.4527  154.3418 H   0  0  0  0  0  0  0  0  0  0  0  0
  148.7710  131.8867  154.5983 H   0  0  0  0  0  0  0  0  0  0  0  0
  146.4027  131.6072  153.1595 H   0  0  0  0  0  0  0  0  0  0  0  0
  145.6678  134.9616  150.6695 H   0  0  0  0  0  0  0  0  0  0  0  0
  147.2126  134.1607  150.8617 H   0  0  0  0  0  0  0  0  0  0  0  0
  145.4124  133.3665  148.9678 H   0  0  0  0  0  0  0  0  0  0  0  0
  146.4584  132.2062  149.7776 H   0  0  0  0  0  0  0  0  0  0  0  0
  143.5533  132.3770  150.0198 H   0  0  0  0  0  0  0  0  0  0  0  0
  144.6540  131.1931  150.7143 H   0  0  0  0  0  0  0  0  0  0  0  0
  144.0097  132.2039  152.7371 H   0  0  0  0  0  0  0  0  0  0  0  0
  143.5556  133.6911  151.9355 H   0  0  0  0  0  0  0  0  0  0  0  0
  145.9833  139.9252  153.5258 H   0  0  0  0  0  0  0  0  0  0  0  0
  1  2  1  0  0  0  0
  1 25  1  0  0  0  0
  1 26  1  0  0  0  0
  1 27  1  0  0  0  0
  2  3  1  0  0  0  0
  2 28  1  0  0  0  0
  2 29  1  0  0  0  0
  3 24  1  0  0  0  0
  3  4  1  0  0  0  0
  4  5  2  0  0  0  0
  4 30  1  0  0  0  0
  5  6  1  0  0  0  0
  5 31  1  0  0  0  0
  6  7  2  0  0  0  0
  6  8  1  0  0  0  0
  8  9  1  0  0  0  0
  8 24  2  0  0  0  0
  9 10  1  0  0  0  0
  9 32  1  0  0  0  0
 10 11  2  0  0  0  0
 10 12  1  0  0  0  0
 12 13  1  0  0  0  0
 12 33  1  0  0  0  0
 13 19  1  0  0  0  0
 13 14  1  0  0  0  0
 13 34  1  0  0  0  0
 14 18  1  0  0  0  0
 14 15  1  0  0  0  0
 14 35  1  0  0  0  0
 15 16  1  0  0  0  0
 15 36  1  0  0  0  0
 15 37  1  0  0  0  0
 16 17  1  0  0  0  0
 16 38  1  0  0  0  0
 16 39  1  0  0  0  0
 17 18  1  0  0  0  0
 18 19  1  0  0  0  0
 18 40  1  0  0  0  0
 19 23  1  0  0  0  0
 19 20  1  0  0  0  0
 20 21  1  0  0  0  0
 20 41  1  0  0  0  0
 20 42  1  0  0  0  0
 21 22  1  0  0  0  0
 21 43  1  0  0  0  0
 21 44  1  0  0  0  0
 22 23  1  0  0  0  0
 22 45  1  0  0  0  0
 22 46  1  0  0  0  0
 23 47  1  0  0  0  0
 23 48  1  0  0  0  0
 24 49  1  0  0  0  0
M  END
> <s_m_source_file>
AV-unprocessed.smi

> <i_m_source_file_index>
2339

> <i_lp_mmshare_version>
43012

> <i_f3d_flags>
0

> <s_epik_input>
W0NIM11bQ0gyXW4xW2NIXVtjSF1jKD1PKWMoW2NIXTEpW05IXUMoPU8pW05IXVtDQEBIXTJbQ0BASF0oW0NIMl1bQ0gyXU8zKVtDQEBIXTNDMjRbQ0gyXVtDSDJdW0NIMl1bQ0gyXTQ=

> <s_epik_cmdline>
J2VwaWtfcHl0aG9uJywgJy1waCcsICc3LjAnLCAnLXRuJywgJzgnLCAnLW1hJywgJzIwMCcsICctbWV0YWxfYmluZGluZycsICctaW1hZScsICc8aW5maWxlLm1hZT4nLCAnLW9tYWUnLCAnPG91dGZpbGUubWFlPic=

> <r_lp_tautomer_probability>
1

> <r_epik_Ionization_Penalty>
0.00145966

> <r_epik_Ionization_Penalty_Charging>
0.00143969

> <r_epik_Ionization_Penalty_Neutral>
1.99697e-05

> <r_epik_State_Penalty>
0.000961843

> <r_epik_Charging_Adjusted_Penalty>
0.00240153

> <i_epik_Tot_Q>
0

> <i_epik_Tot_abs_Q>
0

> <r_epik_Metal_State_Penalty>
-0

> <b_epik_Metal_Only>
0

> <s_lp_Force_Field>
OPLS_2005

> <r_lp_Energy>
59.2385

> <b_lp_Chiralities_Consistent>
1

> <s_lp_Variant>
AV-unprocessed.smi:2339-7

> <Gold.Version>
5.8.1

> <Gold.Id.Protein>
6NUR|6NUR_protein|mol2

> <Gold.PLP.Fitness>
47.0854

> <Gold.PLP.PLP>
-37.0587

> <Gold.PLP.part.hbond>
-2.0000

> <Gold.PLP.part.metal>
0.0000

> <Gold.PLP.part.buried>
-2.8645

> <Gold.PLP.part.nonpolar>
-31.5381

> <Gold.PLP.part.repulsive>
0.4574

> <Gold.PLP.ligand.clash>
0.0000

> <Gold.PLP.ligand.torsion>
0.9347

> <Gold.PLP.Chemscore.Hbond>
1.8960

> <Gold.PLP.Chemscore.CHOScore>
2.0000

> <Gold.PLP.Chemscore.Metal>
0.0000

> <Gold.Chemscore.Hbonds>
donor molecule, donor type, donor heavy atom, donor atom, acceptor molecule, acceptor atom, score
      L1  H     9    32       P1  7948  1.00
      L1  H    12    33       P1  7948  0.86
      L1  C     4    30       P1  8028  1.00
      L1  C    24    49       P1 10175  0.85

> <Gold.PLP.Chemscore.Internal.Correction>
0.2081

> <Gold.Rescore>
     Score         DG    S(hbond)    S(metal)    S(lipo)     H(rot)  DE(clash)    DE(int)     intcor
     18.05     -19.12       1.91        0.00      87.45       1.17       0.33       0.74       ----

> <Gold.Chemscore.Fitness>
18.0520

> <Gold.Chemscore.DG>
-19.1157

> <Gold.Chemscore.ZeroCoef>
-5.4800

> <Gold.Chemscore.Hbond>
1.9137

> <Gold.Chemscore.Metal>
0.0000

> <Gold.Chemscore.Lipo>
87.4479

> <Gold.Chemscore.Internal_Hbond>
0.0000

> <Gold.Chemscore.DEClash>
0.3273

> <Gold.Chemscore.DEInternal>
0.7363

> <Gold.Chemscore.Rot>
1.1670

> <Gold.Chemscore.Internal.Correction>
   9.000000E+99

> <Gold.Chemscore.Hbonds>
donor molecule, donor type, donor heavy atom, donor atom, acceptor molecule, acceptor atom, score
      L1  H     9    32       P1  7948  0.96
      L1  H    12    33       P1  7948  0.85

> <Gold.Chemscore.Hbond.Weighted>
-6.3917

> <Gold.Chemscore.Metal.Weighted>
-0.0000

> <Gold.Chemscore.Lipo.Weighted>
-10.2314

> <Gold.Chemscore.Internal_Hbond.Weighted>
0.0000

> <Gold.Chemscore.DEClash.Weighted>
0.3273

> <Gold.Chemscore.DEInternal.Weighted>
0.7363

> <Gold.Chemscore.Rot.Weighted>
2.9874

> <Gold.Chemscore.Internal.Correction.Weighted>
   9.000000E+99

> <Gold.Protein.RotatedTorsions>
[ 6907 6896 6895 6894 ] final   57.32 input  -60.11 | X-H torsion
[ 7974 7965 7964 7962 ] final    4.67 input  175.53 | X-H torsion
[ 8008 7997 7996 7995 ] final -133.33 input   59.86 | X-H torsion
[ 10167 10162 10161 10158 ] final  173.17 input  -65.29 | X-H torsion
[ 10718 10713 10712 10709 ] final  136.32 input   66.30 | X-H torsion
[ 10763 10752 10751 10750 ] final  -12.78 input  -60.55 | X-H torsion
[ 11005 11000 10999 10996 ] final   37.47 input  -57.11 | X-H torsion

> <Gold.Protein.ActiveResidues>
 VAL166  LYS551  ARG553  GLY616  TRP617  ASP618  TYR619  PRO620  LYS621  CYS622 
 ASP623  PHE694  ASN695  SER759  ASP760  ASP761  ALA762  ILE779  LEU786  VAL792 
 PHE793  MET794  SER795  GLU796  ALA797  LYS798  CYS799  TRP800  GLU811  SER814 

> <Gold.Protein.RotatedAtoms>
  152.3720  134.6720  160.0172 H   0  0  0  0  0  0  0  0  0  0  0  0  # atno 6907 bound_to 6896
  151.7010  133.3306  159.3274 H   0  0  0  0  0  0  0  0  0  0  0  0  # atno 6908 bound_to 6896
  150.7680  134.6550  159.6353 H   0  0  0  0  0  0  0  0  0  0  0  0  # atno 6909 bound_to 6896
  146.2443  140.0499  142.8376 H   0  0  0  0  0  0  0  0  0  0  0  0  # atno 7974 bound_to 7965
  155.3437  140.0473  157.3045 H   0  0  0  0  0  0  0  0  0  0  0  0  # atno 8008 bound_to 7997
  154.5263  140.2242  155.8848 H   0  0  0  0  0  0  0  0  0  0  0  0  # atno 8009 bound_to 7997
  156.1743  140.3088  155.9037 H   0  0  0  0  0  0  0  0  0  0  0  0  # atno 8010 bound_to 7997
  139.5100  144.3291  152.0129 H   0  0  0  0  0  0  0  0  0  0  0  0  # atno 10167 bound_to 10162
  157.4479  131.1063  151.0068 H   0  0  0  0  0  0  0  0  0  0  0  0  # atno 10718 bound_to 10713
  153.5035  135.7017  153.5819 H   0  0  0  0  0  0  0  0  0  0  0  0  # atno 10763 bound_to 10752
  153.3940  135.3889  155.1942 H   0  0  0  0  0  0  0  0  0  0  0  0  # atno 10764 bound_to 10752
  154.8709  135.3865  154.4508 H   0  0  0  0  0  0  0  0  0  0  0  0  # atno 10765 bound_to 10752
  140.2222  134.3627  155.8000 H   0  0  0  0  0  0  0  0  0  0  0  0  # atno 11005 bound_to 11000
  145.0994  140.9336  143.4722 LP  0  0  0  0  0  0  0  0  0  0  0  0  # atno 17320 bound_to 7965
  145.0688  139.3047  143.5842 LP  0  0  0  0  0  0  0  0  0  0  0  0  # atno 17321 bound_to 7965
  140.2731  144.3942  150.6144 LP  0  0  0  0  0  0  0  0  0  0  0  0  # atno 17342 bound_to 10162
  140.6074  143.2168  151.6954 LP  0  0  0  0  0  0  0  0  0  0  0  0  # atno 17343 bound_to 10162
  157.0908  130.5941  149.5439 LP  0  0  0  0  0  0  0  0  0  0  0  0  # atno 17370 bound_to 10713
  155.9975  130.5047  150.7536 LP  0  0  0  0  0  0  0  0  0  0  0  0  # atno 17371 bound_to 10713
  141.2222  133.7200  156.8594 LP  0  0  0  0  0  0  0  0  0  0  0  0  # atno 17394 bound_to 11000
  140.1838  134.9014  157.2980 LP  0  0  0  0  0  0  0  0  0  0  0  0  # atno 17395 bound_to 11000

$$$$
