AV-unprocessed.smi:2559|AV-procd|sdf|10037|dock2
  -GOLD-   2272014 83D 1   1.00000     0.00000
 Structure written by MMmdl.
 43 45  0  0  0  0  0  0  0  0  2 V2000
  150.6853  144.6968  158.5842 C   0  0  0  0  0  0  0  0  0  0  0  0
  151.3561  143.3936  158.5412 N   0  0  0  0  0  0  0  0  0  0  0  0
  152.5425  143.1409  159.1811 C   0  0  0  0  0  0  0  0  0  0  0  0
  153.0689  144.0440  159.8315 O   0  0  0  0  0  0  0  0  0  0  0  0
  153.1189  141.8925  159.0840 N   0  5  0  0  0  0  0  0  0  0  0  0
  152.6210  140.8252  158.3833 C   0  0  0  0  0  0  0  0  0  0  0  0
  153.1458  139.7200  158.2631 O   0  0  0  0  0  0  0  0  0  0  0  0
  151.3271  141.1378  157.7342 C   0  0  0  0  0  0  0  0  0  0  0  0
  150.7326  142.3589  157.7958 C   0  0  0  0  0  0  0  0  0  0  0  0
  149.5583  142.3877  157.0612 N   0  0  0  0  0  0  0  0  0  0  0  0
  149.4723  141.1428  156.5888 C   0  0  0  0  0  0  0  0  0  0  0  0
  148.4301  140.7136  155.7655 N   0  0  0  0  0  0  0  0  0  0  0  0
  147.5262  141.6287  155.0704 C   0  0  0  0  0  0  0  0  0  0  0  0
  147.3578  141.2404  153.5904 C   0  0  0  0  0  0  0  0  0  0  0  0
  146.8406  139.8014  153.4607 C   0  0  0  0  0  0  0  0  0  0  0  0
  147.7291  138.8516  154.2749 C   0  0  0  0  0  0  0  0  0  0  0  0
  147.8788  139.3587  155.7201 C   0  0  0  0  0  0  0  0  0  0  0  0
  150.5059  140.3287  156.9388 N   0  0  0  0  0  0  0  0  0  0  0  0
  150.7382  138.9426  156.5300 C   0  0  0  0  0  0  0  0  0  0  0  0
  151.1267  138.8167  155.0413 C   0  0  1  0  0  0  0  0  0  0  0  0
  152.2983  139.5649  154.7823 O   0  0  0  0  0  0  0  0  0  0  0  0
  151.3936  137.3628  154.6176 C   0  0  0  0  0  0  0  0  0  0  0  0
  152.1444  137.3165  153.4228 O   0  0  0  0  0  0  0  0  0  0  0  0
  151.1659  145.4302  159.2323 H   0  0  0  0  0  0  0  0  0  0  0  0
  149.6614  144.5766  158.9394 H   0  0  0  0  0  0  0  0  0  0  0  0
  150.6439  145.1235  157.5817 H   0  0  0  0  0  0  0  0  0  0  0  0
  146.5590  141.6334  155.5747 H   0  0  0  0  0  0  0  0  0  0  0  0
  147.9163  142.6450  155.1363 H   0  0  0  0  0  0  0  0  0  0  0  0
  146.6722  141.9303  153.0978 H   0  0  0  0  0  0  0  0  0  0  0  0
  148.3158  141.3343  153.0772 H   0  0  0  0  0  0  0  0  0  0  0  0
  145.8149  139.7476  153.8275 H   0  0  0  0  0  0  0  0  0  0  0  0
  146.8167  139.4973  152.4140 H   0  0  0  0  0  0  0  0  0  0  0  0
  147.3049  137.8474  154.2717 H   0  0  0  0  0  0  0  0  0  0  0  0
  148.7095  138.7763  153.8053 H   0  0  0  0  0  0  0  0  0  0  0  0
  148.4963  138.6780  156.3050 H   0  0  0  0  0  0  0  0  0  0  0  0
  146.9040  139.3635  156.2098 H   0  0  0  0  0  0  0  0  0  0  0  0
  151.4997  138.4956  157.1644 H   0  0  0  0  0  0  0  0  0  0  0  0
  149.8494  138.3522  156.7323 H   0  0  0  0  0  0  0  0  0  0  0  0
  150.3327  139.2335  154.4203 H   0  0  0  0  0  0  0  0  0  0  0  0
  152.9883  139.2468  155.3459 H   0  0  0  0  0  0  0  0  0  0  0  0
  151.9559  136.8381  155.3910 H   0  0  0  0  0  0  0  0  0  0  0  0
  150.4581  136.8206  154.4753 H   0  0  0  0  0  0  0  0  0  0  0  0
  151.5951  136.9669  152.7380 H   0  0  0  0  0  0  0  0  0  0  0  0
  1  2  1  0  0  0  0
  1 24  1  0  0  0  0
  1 25  1  0  0  0  0
  1 26  1  0  0  0  0
  2  9  1  0  0  0  0
  2  3  1  0  0  0  0
  3  4  2  0  0  0  0
  3  5  1  0  0  0  0
  5  6  1  0  0  0  0
  6  7  2  0  0  0  0
  6  8  1  0  0  0  0
  8 18  1  0  0  0  0
  8  9  2  0  0  0  0
  9 10  1  0  0  0  0
 10 11  2  0  0  0  0
 11 12  1  0  0  0  0
 11 18  1  0  0  0  0
 12 17  1  0  0  0  0
 12 13  1  0  0  0  0
 13 14  1  0  0  0  0
 13 27  1  0  0  0  0
 13 28  1  0  0  0  0
 14 15  1  0  0  0  0
 14 29  1  0  0  0  0
 14 30  1  0  0  0  0
 15 16  1  0  0  0  0
 15 31  1  0  0  0  0
 15 32  1  0  0  0  0
 16 17  1  0  0  0  0
 16 33  1  0  0  0  0
 16 34  1  0  0  0  0
 17 35  1  0  0  0  0
 17 36  1  0  0  0  0
 18 19  1  0  0  0  0
 19 20  1  0  0  0  0
 19 37  1  0  0  0  0
 19 38  1  0  0  0  0
 20 21  1  0  0  0  0
 20 22  1  0  0  0  0
 20 39  1  0  0  0  0
 21 40  1  0  0  0  0
 22 23  1  0  0  0  0
 22 41  1  0  0  0  0
 22 42  1  0  0  0  0
 23 43  1  0  0  0  0
M  CHG  1   5  -1
M  END
> <s_m_source_file>
AV-unprocessed.smi

> <i_m_source_file_index>
2559

> <i_lp_mmshare_version>
43012

> <i_f3d_flags>
0

> <s_epik_input>
Tz1jMVtuSF1jKD1PKW4oW0NIM10pYyhjMTIpbmMobjJbQ0gyXVtDQEhdKFtPSF0pW0NIMl1bT0hdKU4zW0NIMl1bQ0gyXVtDSDJdW0NIMl1bQ0gyXTM=

> <s_epik_cmdline>
J2VwaWtfcHl0aG9uJywgJy1waCcsICc3LjAnLCAnLXRuJywgJzgnLCAnLW1hJywgJzIwMCcsICctbWV0YWxfYmluZGluZycsICctaW1hZScsICc8aW5maWxlLm1hZT4nLCAnLW9tYWUnLCAnPG91dGZpbGUubWFlPic=

> <r_lp_tautomer_probability>
1

> <r_epik_Ionization_Penalty>
5.90509

> <r_epik_Ionization_Penalty_Charging>
0.0759636

> <r_epik_Ionization_Penalty_Neutral>
5.82913

> <r_epik_State_Penalty>
5.18635

> <r_epik_Charging_Adjusted_Penalty>
5.26231

> <i_epik_Tot_Q>
-1

> <i_epik_Tot_abs_Q>
1

> <r_epik_Metal_State_Penalty>
1.25614

> <b_epik_Metal_Only>
1

> <s_lp_Force_Field>
OPLS_2005

> <r_lp_Energy>
39.3002

> <b_lp_Chiralities_Consistent>
1

> <s_lp_Variant>
AV-unprocessed.smi:2559-4

> <Gold.Version>
5.8.1

> <Gold.Id.Protein>
6NUR|6NUR_protein|mol2

> <Gold.PLP.Fitness>
43.2998

> <Gold.PLP.PLP>
-32.4986

> <Gold.PLP.part.hbond>
-3.9522

> <Gold.PLP.part.metal>
0.0000

> <Gold.PLP.part.buried>
-3.1847

> <Gold.PLP.part.nonpolar>
-27.0378

> <Gold.PLP.part.repulsive>
2.1639

> <Gold.PLP.ligand.clash>
0.0000

> <Gold.PLP.ligand.torsion>
0.5866

> <Gold.PLP.Chemscore.Hbond>
3.7590

> <Gold.PLP.Chemscore.CHOScore>
0.0000

> <Gold.PLP.Chemscore.Metal>
0.0000

> <Gold.Chemscore.Hbonds>
donor molecule, donor type, donor heavy atom, donor atom, acceptor molecule, acceptor atom, score
      L1  H    23    43       P1  7949  1.00
      P1  H  7989  7998       L1    21  0.75
      P1  H  7997  8009       L1     7  1.00
      P1  H 10752 10763       L1    23  0.76

> <Gold.PLP.Chemscore.Internal.Correction>
0.6974

> <Gold.Rescore>
     Score         DG    S(hbond)    S(metal)    S(lipo)     H(rot)  DE(clash)    DE(int)     intcor
      9.00     -11.65       2.10        0.00      57.07       2.93       1.59       1.06       ----

> <Gold.Chemscore.Fitness>
8.9962

> <Gold.Chemscore.DG>
-11.6518

> <Gold.Chemscore.ZeroCoef>
-5.4800

> <Gold.Chemscore.Hbond>
2.0968

> <Gold.Chemscore.Metal>
0.0000

> <Gold.Chemscore.Lipo>
57.0658

> <Gold.Chemscore.Internal_Hbond>
0.0000

> <Gold.Chemscore.DEClash>
1.5949

> <Gold.Chemscore.DEInternal>
1.0608

> <Gold.Chemscore.Rot>
2.9330

> <Gold.Chemscore.Internal.Correction>
   9.000000E+99

> <Gold.Chemscore.Hbonds>
donor molecule, donor type, donor heavy atom, donor atom, acceptor molecule, acceptor atom, score
      L1  H    23    43       P1  7949  0.96
      P1  H  7989  7998       L1    21  0.26
      P1  H  7997  8009       L1     7  0.39
      P1  H 10752 10763       L1    23  0.02

> <Gold.Chemscore.Hbond.Weighted>
-7.0035

> <Gold.Chemscore.Metal.Weighted>
-0.0000

> <Gold.Chemscore.Lipo.Weighted>
-6.6767

> <Gold.Chemscore.Internal_Hbond.Weighted>
0.0000

> <Gold.Chemscore.DEClash.Weighted>
1.5949

> <Gold.Chemscore.DEInternal.Weighted>
1.0608

> <Gold.Chemscore.Rot.Weighted>
7.5084

> <Gold.Chemscore.Internal.Correction.Weighted>
   9.000000E+99

> <Gold.Protein.RotatedTorsions>
[ 6907 6896 6895 6894 ] final  166.94 input  -60.11 | X-H torsion
[ 7974 7965 7964 7962 ] final   53.60 input  175.53 | X-H torsion
[ 8008 7997 7996 7995 ] final  154.01 input   59.86 | X-H torsion
[ 10167 10162 10161 10158 ] final  -20.42 input  -65.29 | X-H torsion
[ 10718 10713 10712 10709 ] final  164.42 input   66.30 | X-H torsion
[ 10763 10752 10751 10750 ] final   14.91 input  -60.55 | X-H torsion
[ 11005 11000 10999 10996 ] final   41.17 input  -57.11 | X-H torsion

> <Gold.Protein.ActiveResidues>
 VAL166  LYS551  ARG553  GLY616  TRP617  ASP618  TYR619  PRO620  LYS621  CYS622 
 ASP623  PHE694  ASN695  SER759  ASP760  ASP761  ALA762  ILE779  LEU786  VAL792 
 PHE793  MET794  SER795  GLU796  ALA797  LYS798  CYS799  TRP800  GLU811  SER814 

> <Gold.Protein.RotatedAtoms>
  151.8710  133.3476  159.3734 H   0  0  0  0  0  0  0  0  0  0  0  0  # atno 6907 bound_to 6896
  150.7152  134.5112  159.5617 H   0  0  0  0  0  0  0  0  0  0  0  0  # atno 6908 bound_to 6896
  152.2645  134.7999  160.0476 H   0  0  0  0  0  0  0  0  0  0  0  0  # atno 6909 bound_to 6896
  145.9694  139.4135  143.0199 H   0  0  0  0  0  0  0  0  0  0  0  0  # atno 7974 bound_to 7965
  156.2553  140.1978  156.6579 H   0  0  0  0  0  0  0  0  0  0  0  0  # atno 8008 bound_to 7997
  154.6486  140.0574  156.9955 H   0  0  0  0  0  0  0  0  0  0  0  0  # atno 8009 bound_to 7997
  155.1452  140.3246  155.4446 H   0  0  0  0  0  0  0  0  0  0  0  0  # atno 8010 bound_to 7997
  140.7276  143.4724  151.0229 H   0  0  0  0  0  0  0  0  0  0  0  0  # atno 10167 bound_to 10162
  157.0945  131.0426  151.2523 H   0  0  0  0  0  0  0  0  0  0  0  0  # atno 10718 bound_to 10713
  153.1576  135.6790  153.8790 H   0  0  0  0  0  0  0  0  0  0  0  0  # atno 10763 bound_to 10752
  153.8196  135.3132  155.3410 H   0  0  0  0  0  0  0  0  0  0  0  0  # atno 10764 bound_to 10752
  154.7909  135.4835  154.0138 H   0  0  0  0  0  0  0  0  0  0  0  0  # atno 10765 bound_to 10752
  140.1860  134.4045  155.8173 H   0  0  0  0  0  0  0  0  0  0  0  0  # atno 11005 bound_to 11000
  145.7927  140.9807  143.1040 LP  0  0  0  0  0  0  0  0  0  0  0  0  # atno 17320 bound_to 7965
  144.6833  139.9703  143.7482 LP  0  0  0  0  0  0  0  0  0  0  0  0  # atno 17321 bound_to 7965
  139.8417  143.7555  152.3180 LP  0  0  0  0  0  0  0  0  0  0  0  0  # atno 17342 bound_to 10162
  139.7706  144.7477  151.0230 LP  0  0  0  0  0  0  0  0  0  0  0  0  # atno 17343 bound_to 10162
  157.4693  130.7699  149.7308 LP  0  0  0  0  0  0  0  0  0  0  0  0  # atno 17370 bound_to 10713
  155.9889  130.3955  150.3096 LP  0  0  0  0  0  0  0  0  0  0  0  0  # atno 17371 bound_to 10713
  141.2225  133.7023  156.8013 LP  0  0  0  0  0  0  0  0  0  0  0  0  # atno 17394 bound_to 11000
  140.2213  134.8755  157.3380 LP  0  0  0  0  0  0  0  0  0  0  0  0  # atno 17395 bound_to 11000

$$$$
