AV-unprocessed.smi:3150|AV-procd|sdf|12009|dock1
  -GOLD-   2272017413D 1   1.00000     0.00000
 Structure written by MMmdl.
 33 34  0  0  0  0  0  0  0  0  3 V2000
  151.4988  138.2504  154.5792 C   0  0  0  0  0  0  0  0  0  0  0  0
  150.6195  139.3167  155.2489 C   0  0  2  0  0  0  0  0  0  0  0  0
  150.0381  140.1039  154.2129 O   0  0  0  0  0  0  0  0  0  0  0  0
  148.6273  139.9867  154.0757 C   0  0  0  0  0  0  0  0  0  0  0  0
  147.9705  141.1230  154.8289 C   0  0  0  0  0  0  0  0  0  0  0  0
  146.4692  141.3017  154.8033 C   0  0  0  0  0  0  0  0  0  0  0  0
  147.3554  142.2819  154.0778 C   0  0  0  0  0  0  0  0  0  0  0  0
  151.4442  140.2020  156.1968 C   0  0  0  0  0  0  0  0  0  0  0  0
  152.6049  139.8902  156.4678 O   0  0  0  0  0  0  0  0  0  0  0  0
  150.8174  141.2977  156.6638 N   0  0  0  0  0  0  0  0  0  0  0  0
  151.3089  142.2966  157.5491 C   0  0  0  0  0  0  0  0  0  0  0  0
  151.0546  143.6162  157.3625 N   0  3  0  0  0  0  0  0  0  0  0  0
  151.5078  144.5880  158.1834 C   0  0  0  0  0  0  0  0  0  0  0  0
  152.2900  144.2494  159.3041 C   0  0  0  0  0  0  0  0  0  0  0  0
  152.5834  142.8929  159.5464 C   0  0  0  0  0  0  0  0  0  0  0  0
  152.0901  141.9078  158.6644 C   0  0  0  0  0  0  0  0  0  0  0  0
  152.3756  140.5918  158.9001 O   0  5  0  0  0  0  0  0  0  0  0  0
  151.9836  137.6135  155.3199 H   0  0  0  0  0  0  0  0  0  0  0  0
  152.2775  138.7002  153.9620 H   0  0  0  0  0  0  0  0  0  0  0  0
  150.9004  137.6068  153.9343 H   0  0  0  0  0  0  0  0  0  0  0  0
  149.8281  138.8095  155.8044 H   0  0  0  0  0  0  0  0  0  0  0  0
  148.3424  140.0520  153.0249 H   0  0  0  0  0  0  0  0  0  0  0  0
  148.2640  139.0343  154.4635 H   0  0  0  0  0  0  0  0  0  0  0  0
  148.4702  141.3783  155.7617 H   0  0  0  0  0  0  0  0  0  0  0  0
  145.8856  140.6097  154.1993 H   0  0  0  0  0  0  0  0  0  0  0  0
  145.9891  141.6395  155.7194 H   0  0  0  0  0  0  0  0  0  0  0  0
  147.4667  143.2748  154.5090 H   0  0  0  0  0  0  0  0  0  0  0  0
  147.3609  142.2430  152.9903 H   0  0  0  0  0  0  0  0  0  0  0  0
  149.8644  141.4348  156.3578 H   0  0  0  0  0  0  0  0  0  0  0  0
  151.2318  145.5986  157.9200 H   0  0  0  0  0  0  0  0  0  0  0  0
  152.6592  145.0165  159.9685 H   0  0  0  0  0  0  0  0  0  0  0  0
  153.1817  142.6126  160.4012 H   0  0  0  0  0  0  0  0  0  0  0  0
  150.4903  143.8871  156.5565 H   0  0  0  0  0  0  0  0  0  0  0  0
  1  2  1  0  0  0  0
  1 18  1  0  0  0  0
  1 19  1  0  0  0  0
  1 20  1  0  0  0  0
  2  3  1  0  0  0  0
  2  8  1  0  0  0  0
  2 21  1  0  0  0  0
  3  4  1  0  0  0  0
  4  5  1  0  0  0  0
  4 22  1  0  0  0  0
  4 23  1  0  0  0  0
  5  7  1  0  0  0  0
  5  6  1  0  0  0  0
  5 24  1  0  0  0  0
  6  7  1  0  0  0  0
  6 25  1  0  0  0  0
  6 26  1  0  0  0  0
  7 27  1  0  0  0  0
  7 28  1  0  0  0  0
  8  9  2  0  0  0  0
  8 10  1  0  0  0  0
 10 29  1  0  0  0  0
 10 11  1  0  0  0  0
 11 16  2  0  0  0  0
 11 12  1  0  0  0  0
 12 33  1  0  0  0  0
 12 13  2  0  0  0  0
 13 30  1  0  0  0  0
 13 14  1  0  0  0  0
 14 31  1  0  0  0  0
 14 15  2  0  0  0  0
 15 16  1  0  0  0  0
 15 32  1  0  0  0  0
 16 17  1  0  0  0  0
M  CHG  1  12   1
M  CHG  1  17  -1
M  END
> <s_m_source_file>
AV-unprocessed.smi

> <i_m_source_file_index>
3150

> <i_lp_mmshare_version>
43012

> <i_f3d_flags>
0

> <s_epik_input>
W0NIMl0xW0NIMl1bQ0hdMVtDSDJdT1tDQEBIXShbQ0gzXSlDKD1PKVtOSF1jMm5bY0hdW2NIXVtjSF1jMltPSF0=

> <s_epik_cmdline>
J2VwaWtfcHl0aG9uJywgJy1waCcsICc3LjAnLCAnLXRuJywgJzgnLCAnLW1hJywgJzIwMCcsICctbWV0YWxfYmluZGluZycsICctaW1hZScsICc8aW5maWxlLm1hZT4nLCAnLW9tYWUnLCAnPG91dGZpbGUubWFlPic=

> <r_lp_tautomer_probability>
0.56342

> <r_epik_Ionization_Penalty>
0.213151

> <r_epik_Ionization_Penalty_Charging>
0.0249427

> <r_epik_Ionization_Penalty_Neutral>
0.188209

> <r_epik_State_Penalty>
0.538305

> <r_epik_Charging_Adjusted_Penalty>
0.563248

> <i_epik_Tot_Q>
0

> <i_epik_Tot_abs_Q>
2

> <r_epik_Metal_State_Penalty>
2.57454

> <b_epik_Metal_Only>
0

> <s_lp_Force_Field>
OPLS_2005

> <r_lp_Energy>
15.508

> <b_lp_Chiralities_Consistent>
1

> <s_lp_Variant>
AV-unprocessed.smi:3150-3

> <Gold.Version>
5.8.1

> <Gold.Id.Protein>
6NUR|6NUR_protein|mol2

> <Gold.PLP.Fitness>
47.4594

> <Gold.PLP.PLP>
-37.9779

> <Gold.PLP.part.hbond>
-3.0000

> <Gold.PLP.part.metal>
0.0000

> <Gold.PLP.part.buried>
-4.6554

> <Gold.PLP.part.nonpolar>
-31.1228

> <Gold.PLP.part.repulsive>
0.4901

> <Gold.PLP.ligand.clash>
0.0000

> <Gold.PLP.ligand.torsion>
1.8087

> <Gold.PLP.Chemscore.Hbond>
3.9760

> <Gold.PLP.Chemscore.CHOScore>
0.0000

> <Gold.PLP.Chemscore.Metal>
0.0000

> <Gold.Chemscore.Hbonds>
donor molecule, donor type, donor heavy atom, donor atom, acceptor molecule, acceptor atom, score
      L1  H    12    33       P1  8028  2.00
      P1  H  7989  7998       L1     3  0.96
      P1  H  7997  8008       L1     9  1.00

> <Gold.PLP.Chemscore.Internal.Correction>
1.1710

> <Gold.Rescore>
     Score         DG    S(hbond)    S(metal)    S(lipo)     H(rot)  DE(clash)    DE(int)     intcor
     15.45     -19.83       2.64        0.00      84.13       1.68       0.04       4.33       ----

> <Gold.Chemscore.Fitness>
15.4535

> <Gold.Chemscore.DG>
-19.8282

> <Gold.Chemscore.ZeroCoef>
-5.4800

> <Gold.Chemscore.Hbond>
2.6392

> <Gold.Chemscore.Metal>
0.0000

> <Gold.Chemscore.Lipo>
84.1266

> <Gold.Chemscore.Internal_Hbond>
0.0000

> <Gold.Chemscore.DEClash>
0.0442

> <Gold.Chemscore.DEInternal>
4.3305

> <Gold.Chemscore.Rot>
1.6833

> <Gold.Chemscore.Internal.Correction>
   9.000000E+99

> <Gold.Chemscore.Hbonds>
donor molecule, donor type, donor heavy atom, donor atom, acceptor molecule, acceptor atom, score
      L1  H    12    33       P1  8028  0.94
      P1  H  7989  7998       L1     3  0.24
      P1  H  7997  8008       L1     9  1.00

> <Gold.Chemscore.Hbond.Weighted>
-8.8148

> <Gold.Chemscore.Metal.Weighted>
-0.0000

> <Gold.Chemscore.Lipo.Weighted>
-9.8428

> <Gold.Chemscore.Internal_Hbond.Weighted>
0.0000

> <Gold.Chemscore.DEClash.Weighted>
0.0442

> <Gold.Chemscore.DEInternal.Weighted>
4.3305

> <Gold.Chemscore.Rot.Weighted>
4.3094

> <Gold.Chemscore.Internal.Correction.Weighted>
   9.000000E+99

> <Gold.Protein.RotatedTorsions>
[ 6907 6896 6895 6894 ] final   44.32 input  -60.11 | X-H torsion
[ 7974 7965 7964 7962 ] final  -96.23 input  175.53 | X-H torsion
[ 8008 7997 7996 7995 ] final  -50.24 input   59.86 | X-H torsion
[ 10167 10162 10161 10158 ] final   68.03 input  -65.29 | X-H torsion
[ 10718 10713 10712 10709 ] final  147.66 input   66.30 | X-H torsion
[ 10763 10752 10751 10750 ] final  147.07 input  -60.55 | X-H torsion
[ 11005 11000 10999 10996 ] final  -52.12 input  -57.11 | X-H torsion

> <Gold.Protein.ActiveResidues>
 VAL166  LYS551  ARG553  GLY616  TRP617  ASP618  TYR619  PRO620  LYS621  CYS622 
 ASP623  PHE694  ASN695  SER759  ASP760  ASP761  ALA762  ILE779  LEU786  VAL792 
 PHE793  MET794  SER795  GLU796  ALA797  LYS798  CYS799  TRP800  GLU811  SER814 

> <Gold.Protein.RotatedAtoms>
  152.2310  134.8321  160.0473 H   0  0  0  0  0  0  0  0  0  0  0  0  # atno 6907 bound_to 6896
  151.9070  133.3547  159.3858 H   0  0  0  0  0  0  0  0  0  0  0  0  # atno 6908 bound_to 6896
  150.7026  134.4696  159.5463 H   0  0  0  0  0  0  0  0  0  0  0  0  # atno 6909 bound_to 6896
  145.3496  140.9474  143.2562 H   0  0  0  0  0  0  0  0  0  0  0  0  # atno 7974 bound_to 7965
  154.4058  140.1277  156.4634 H   0  0  0  0  0  0  0  0  0  0  0  0  # atno 8008 bound_to 7997
  155.7250  140.3492  155.5013 H   0  0  0  0  0  0  0  0  0  0  0  0  # atno 8009 bound_to 7997
  155.9179  140.1047  157.1219 H   0  0  0  0  0  0  0  0  0  0  0  0  # atno 8010 bound_to 7997
  140.0831  144.5053  150.7148 H   0  0  0  0  0  0  0  0  0  0  0  0  # atno 10167 bound_to 10162
  157.3182  131.0899  151.1262 H   0  0  0  0  0  0  0  0  0  0  0  0  # atno 10718 bound_to 10713
  154.0323  135.2896  155.3367 H   0  0  0  0  0  0  0  0  0  0  0  0  # atno 10763 bound_to 10752
  154.6981  135.5200  153.8490 H   0  0  0  0  0  0  0  0  0  0  0  0  # atno 10764 bound_to 10752
  153.0635  135.6622  154.0534 H   0  0  0  0  0  0  0  0  0  0  0  0  # atno 10765 bound_to 10752
  141.0908  133.6633  156.3978 H   0  0  0  0  0  0  0  0  0  0  0  0  # atno 11005 bound_to 11000
  144.8728  139.5014  143.6760 LP  0  0  0  0  0  0  0  0  0  0  0  0  # atno 17320 bound_to 7965
  146.2973  139.7318  142.9117 LP  0  0  0  0  0  0  0  0  0  0  0  0  # atno 17321 bound_to 7965
  140.7067  143.2473  151.4704 LP  0  0  0  0  0  0  0  0  0  0  0  0  # atno 17342 bound_to 10162
  139.5768  144.1801  152.1914 LP  0  0  0  0  0  0  0  0  0  0  0  0  # atno 17343 bound_to 10162
  157.2557  130.6635  149.5951 LP  0  0  0  0  0  0  0  0  0  0  0  0  # atno 17370 bound_to 10713
  155.9683  130.4524  150.5773 LP  0  0  0  0  0  0  0  0  0  0  0  0  # atno 17371 bound_to 10713
  140.5257  134.6261  157.5333 LP  0  0  0  0  0  0  0  0  0  0  0  0  # atno 17394 bound_to 11000
  139.9733  134.7256  155.9998 LP  0  0  0  0  0  0  0  0  0  0  0  0  # atno 17395 bound_to 11000

$$$$
