AV-unprocessed.smi:1207|AV-procd|sdf|5058|dock5
  -GOLD-   22720 4 93D 1   1.00000     0.00000
 Structure written by MMmdl.
 53 55  0  0  0  0  0  0  0  0  3 V2000
  152.8710  141.7141  159.9573 C   0  0  0  0  0  0  0  0  0  0  0  0
  152.1769  141.2434  158.6904 C   0  0  0  0  0  0  0  0  0  0  0  0
  151.3929  142.1703  157.9671 C   0  0  0  0  0  0  0  0  0  0  0  0
  150.7681  141.7092  156.8145 C   0  0  0  0  0  0  0  0  0  0  0  0
  149.9413  142.3617  155.8976 N   0  3  0  0  0  0  0  0  0  0  0  0
  149.5662  141.4888  154.9217 C   0  0  0  0  0  0  0  0  0  0  0  0
  150.1402  140.2871  155.2038 N   0  0  0  0  0  0  0  0  0  0  0  0
  150.0621  139.0081  154.4850 C   0  0  0  0  0  0  0  0  0  0  0  0
  148.6230  138.4648  154.3881 C   0  0  1  0  0  0  0  0  0  0  0  0
  148.2887  138.2685  153.0276 O   0  0  0  0  0  0  0  0  0  0  0  0
  148.4514  137.1305  155.1411 C   0  0  0  0  0  0  0  0  0  0  0  0
  149.2710  136.0486  154.5385 N   0  3  1  0  0  0  0  0  0  0  0  0
  150.6747  136.0745  155.0106 C   0  0  0  0  0  0  0  0  0  0  0  0
  148.6516  134.7043  154.6649 C   0  0  0  0  0  0  0  0  0  0  0  0
  149.0840  134.0326  155.9407 C   0  0  0  0  0  0  0  0  0  0  0  0
  148.8085  134.4502  157.2743 C   0  0  0  0  0  0  0  0  0  0  0  0
  148.0220  135.6447  157.7336 C   0  0  0  0  0  0  0  0  0  0  0  0
  149.3348  133.6303  158.1672 N   0  0  0  0  0  0  0  0  0  0  0  0
  149.9897  132.6358  157.4348 O   0  0  0  0  0  0  0  0  0  0  0  0
  149.8272  132.8965  156.1131 C   0  0  0  0  0  0  0  0  0  0  0  0
  150.4624  131.9348  155.1665 C   0  0  0  0  0  0  0  0  0  0  0  0
  150.9026  140.3786  156.3732 C   0  0  0  0  0  0  0  0  0  0  0  0
  151.6744  139.4532  157.0717 C   0  0  0  0  0  0  0  0  0  0  0  0
  152.3159  139.9020  158.2482 C   0  0  0  0  0  0  0  0  0  0  0  0
  153.1613  138.9141  159.0343 C   0  0  0  0  0  0  0  0  0  0  0  0
  152.6702  142.7674  160.1550 H   0  0  0  0  0  0  0  0  0  0  0  0
  153.9509  141.5920  159.8713 H   0  0  0  0  0  0  0  0  0  0  0  0
  152.5244  141.1421  160.8183 H   0  0  0  0  0  0  0  0  0  0  0  0
  151.2838  143.1931  158.2973 H   0  0  0  0  0  0  0  0  0  0  0  0
  148.9262  141.7101  154.0797 H   0  0  0  0  0  0  0  0  0  0  0  0
  150.4788  139.1647  153.4889 H   0  0  0  0  0  0  0  0  0  0  0  0
  150.7168  138.2943  154.9869 H   0  0  0  0  0  0  0  0  0  0  0  0
  147.9401  139.2119  154.7901 H   0  0  0  0  0  0  0  0  0  0  0  0
  148.7208  138.9310  152.5096 H   0  0  0  0  0  0  0  0  0  0  0  0
  148.7309  137.2810  156.1853 H   0  0  0  0  0  0  0  0  0  0  0  0
  147.4045  136.8222  155.1505 H   0  0  0  0  0  0  0  0  0  0  0  0
  150.7315  135.8731  156.0810 H   0  0  0  0  0  0  0  0  0  0  0  0
  151.1280  137.0480  154.8214 H   0  0  0  0  0  0  0  0  0  0  0  0
  151.2778  135.3309  154.4895 H   0  0  0  0  0  0  0  0  0  0  0  0
  147.5665  134.7951  154.6008 H   0  0  0  0  0  0  0  0  0  0  0  0
  148.9333  134.0808  153.8168 H   0  0  0  0  0  0  0  0  0  0  0  0
  148.3439  136.5483  157.2155 H   0  0  0  0  0  0  0  0  0  0  0  0
  148.1409  135.8201  158.8033 H   0  0  0  0  0  0  0  0  0  0  0  0
  146.9586  135.5094  157.5360 H   0  0  0  0  0  0  0  0  0  0  0  0
  150.0974  132.0809  154.1502 H   0  0  0  0  0  0  0  0  0  0  0  0
  150.2446  130.9069  155.4568 H   0  0  0  0  0  0  0  0  0  0  0  0
  151.5451  132.0612  155.1584 H   0  0  0  0  0  0  0  0  0  0  0  0
  151.7816  138.4331  156.7345 H   0  0  0  0  0  0  0  0  0  0  0  0
  153.1598  137.9279  158.5691 H   0  0  0  0  0  0  0  0  0  0  0  0
  152.7779  138.8039  160.0490 H   0  0  0  0  0  0  0  0  0  0  0  0
  154.1957  139.2544  159.0898 H   0  0  0  0  0  0  0  0  0  0  0  0
  149.3054  136.2590  153.5508 H   0  0  0  0  0  0  0  0  0  0  0  0
  149.6531  143.3317  155.9323 H   0  0  0  0  0  0  0  0  0  0  0  0
  1  2  1  0  0  0  0
  1 26  1  0  0  0  0
  1 27  1  0  0  0  0
  1 28  1  0  0  0  0
  2 24  1  0  0  0  0
  2  3  2  0  0  0  0
  3  4  1  0  0  0  0
  3 29  1  0  0  0  0
  4 22  2  0  0  0  0
  4  5  1  0  0  0  0
  5  6  2  0  0  0  0
  5 53  1  0  0  0  0
  6  7  1  0  0  0  0
  6 30  1  0  0  0  0
  7  8  1  0  0  0  0
  7 22  1  0  0  0  0
  8  9  1  0  0  0  0
  8 31  1  0  0  0  0
  8 32  1  0  0  0  0
  9 10  1  0  0  0  0
  9 11  1  0  0  0  0
  9 33  1  0  0  0  0
 10 34  1  0  0  0  0
 11 12  1  0  0  0  0
 11 35  1  0  0  0  0
 11 36  1  0  0  0  0
 12 13  1  0  0  0  0
 12 14  1  0  0  0  0
 12 52  1  0  0  0  0
 13 37  1  0  0  0  0
 13 38  1  0  0  0  0
 13 39  1  0  0  0  0
 14 15  1  0  0  0  0
 14 40  1  0  0  0  0
 14 41  1  0  0  0  0
 15 20  2  0  0  0  0
 15 16  1  0  0  0  0
 16 17  1  0  0  0  0
 16 18  2  0  0  0  0
 17 42  1  0  0  0  0
 17 43  1  0  0  0  0
 17 44  1  0  0  0  0
 18 19  1  0  0  0  0
 19 20  1  0  0  0  0
 20 21  1  0  0  0  0
 21 45  1  0  0  0  0
 21 46  1  0  0  0  0
 21 47  1  0  0  0  0
 22 23  1  0  0  0  0
 23 24  2  0  0  0  0
 23 48  1  0  0  0  0
 24 25  1  0  0  0  0
 25 49  1  0  0  0  0
 25 50  1  0  0  0  0
 25 51  1  0  0  0  0
M  CHG  1   5   1
M  CHG  1  12   1
M  END
> <s_m_source_file>
AV-unprocessed.smi

> <i_m_source_file_index>
1207

> <i_lp_mmshare_version>
43012

> <i_f3d_flags>
0

> <s_epik_input>
W0NIM11jKFtjSF0xKWMoW0NIM10pW2NIXWMoYzEyKW4oW2NIXW4yKVtDSDJdW0NASF0oW09IXSlbQ0gyXU4oW0NIM10pW0NIMl1jM2MoW0NIM10pbm9jM1tDSDNd

> <s_epik_cmdline>
J2VwaWtfcHl0aG9uJywgJy1waCcsICc3LjAnLCAnLXRuJywgJzgnLCAnLW1hJywgJzIwMCcsICctbWV0YWxfYmluZGluZycsICctaW1hZScsICc8aW5maWxlLm1hZT4nLCAnLW9tYWUnLCAnPG91dGZpbGUubWFlPic=

> <r_epik_Ionization_Penalty>
1.77463

> <r_epik_Ionization_Penalty_Charging>
1.77463

> <r_epik_Ionization_Penalty_Neutral>
3.70885e-06

> <r_epik_State_Penalty>
1.85225

> <r_epik_Charging_Adjusted_Penalty>
3.62688

> <i_epik_Tot_Q>
2

> <i_epik_Tot_abs_Q>
2

> <r_epik_Metal_State_Penalty>
1.92674

> <b_epik_Metal_Only>
0

> <s_lp_Force_Field>
OPLS_2005

> <r_lp_Energy>
18.8212

> <b_lp_Chiralities_Consistent>
1

> <s_lp_Variant>
AV-unprocessed.smi:1207-10

> <Gold.Version>
5.8.1

> <Gold.Id.Protein>
6NUR|6NUR_protein|mol2

> <Gold.PLP.Fitness>
55.5821

> <Gold.PLP.PLP>
-40.1162

> <Gold.PLP.part.hbond>
-5.5595

> <Gold.PLP.part.metal>
0.0000

> <Gold.PLP.part.buried>
-4.5167

> <Gold.PLP.part.nonpolar>
-31.7385

> <Gold.PLP.part.repulsive>
0.1757

> <Gold.PLP.ligand.clash>
0.0000

> <Gold.PLP.ligand.torsion>
1.3844

> <Gold.PLP.Chemscore.Hbond>
6.0000

> <Gold.PLP.Chemscore.CHOScore>
0.0000

> <Gold.PLP.Chemscore.Metal>
0.0000

> <Gold.Chemscore.Hbonds>
donor molecule, donor type, donor heavy atom, donor atom, acceptor molecule, acceptor atom, score
      L1  H     5    53       P1  8028  2.00
      L1  H    10    34       P1  7957  1.00
      L1  H    12    52       P1  7948  2.00
      P1  H  6896  6907       L1    18  1.00

> <Gold.PLP.Chemscore.Internal.Correction>
0.2348

> <Gold.Rescore>
     Score         DG    S(hbond)    S(metal)    S(lipo)     H(rot)  DE(clash)    DE(int)     intcor
     22.32     -23.88       3.94        0.00     100.22       2.54       0.01       1.55       ----

> <Gold.Chemscore.Fitness>
22.3233

> <Gold.Chemscore.DG>
-23.8815

> <Gold.Chemscore.ZeroCoef>
-5.4800

> <Gold.Chemscore.Hbond>
3.9418

> <Gold.Chemscore.Metal>
0.0000

> <Gold.Chemscore.Lipo>
100.2211

> <Gold.Chemscore.Internal_Hbond>
0.0000

> <Gold.Chemscore.DEClash>
0.0128

> <Gold.Chemscore.DEInternal>
1.5455

> <Gold.Chemscore.Rot>
2.5351

> <Gold.Chemscore.Internal.Correction>
   9.000000E+99

> <Gold.Chemscore.Hbonds>
donor molecule, donor type, donor heavy atom, donor atom, acceptor molecule, acceptor atom, score
      L1  H     5    53       P1  8028  0.99
      L1  H    10    34       P1  7957  0.99
      L1  H    12    52       P1  7948  0.85
      P1  H  6896  6907       L1    18  0.30

> <Gold.Chemscore.Hbond.Weighted>
-13.1656

> <Gold.Chemscore.Metal.Weighted>
-0.0000

> <Gold.Chemscore.Lipo.Weighted>
-11.7259

> <Gold.Chemscore.Internal_Hbond.Weighted>
0.0000

> <Gold.Chemscore.DEClash.Weighted>
0.0128

> <Gold.Chemscore.DEInternal.Weighted>
1.5455

> <Gold.Chemscore.Rot.Weighted>
6.4900

> <Gold.Chemscore.Internal.Correction.Weighted>
   9.000000E+99

> <Gold.Protein.RotatedTorsions>
[ 6907 6896 6895 6894 ] final  -97.83 input  -60.11 | X-H torsion
[ 7974 7965 7964 7962 ] final  -83.31 input  175.53 | X-H torsion
[ 8008 7997 7996 7995 ] final  -32.34 input   59.86 | X-H torsion
[ 10167 10162 10161 10158 ] final -151.25 input  -65.29 | X-H torsion
[ 10718 10713 10712 10709 ] final  135.42 input   66.30 | X-H torsion
[ 10763 10752 10751 10750 ] final   95.24 input  -60.55 | X-H torsion
[ 11005 11000 10999 10996 ] final -113.35 input  -57.11 | X-H torsion

> <Gold.Protein.ActiveResidues>
 VAL166  LYS551  ARG553  GLY616  TRP617  ASP618  TYR619  PRO620  LYS621  CYS622 
 ASP623  PHE694  ASN695  SER759  ASP760  ASP761  ALA762  ILE779  LEU786  VAL792 
 PHE793  MET794  SER795  GLU796  ALA797  LYS798  CYS799  TRP800  GLU811  SER814 

> <Gold.Protein.RotatedAtoms>
  150.7028  134.1288  159.4061 H   0  0  0  0  0  0  0  0  0  0  0  0  # atno 6907 bound_to 6896
  151.9274  135.0269  160.0536 H   0  0  0  0  0  0  0  0  0  0  0  0  # atno 6908 bound_to 6896
  152.2205  133.4944  159.5196 H   0  0  0  0  0  0  0  0  0  0  0  0  # atno 6909 bound_to 6896
  145.5217  140.9530  143.1651 H   0  0  0  0  0  0  0  0  0  0  0  0  # atno 7974 bound_to 7965
  154.4183  140.1740  156.1712 H   0  0  0  0  0  0  0  0  0  0  0  0  # atno 8008 bound_to 7997
  155.9759  140.3381  155.6594 H   0  0  0  0  0  0  0  0  0  0  0  0  # atno 8009 bound_to 7997
  155.6564  140.0696  157.2560 H   0  0  0  0  0  0  0  0  0  0  0  0  # atno 8010 bound_to 7997
  139.7283  143.8848  152.2526 H   0  0  0  0  0  0  0  0  0  0  0  0  # atno 10167 bound_to 10162
  157.4572  131.1071  150.9963 H   0  0  0  0  0  0  0  0  0  0  0  0  # atno 10718 bound_to 10713
  153.2509  135.4261  155.0796 H   0  0  0  0  0  0  0  0  0  0  0  0  # atno 10763 bound_to 10752
  154.8381  135.3425  154.6514 H   0  0  0  0  0  0  0  0  0  0  0  0  # atno 10764 bound_to 10752
  153.6936  135.7032  153.5140 H   0  0  0  0  0  0  0  0  0  0  0  0  # atno 10765 bound_to 10752
  141.0619  133.9521  157.2650 H   0  0  0  0  0  0  0  0  0  0  0  0  # atno 11005 bound_to 11000
  144.7672  139.6817  143.7210 LP  0  0  0  0  0  0  0  0  0  0  0  0  # atno 17320 bound_to 7965
  146.2101  139.5452  142.9686 LP  0  0  0  0  0  0  0  0  0  0  0  0  # atno 17321 bound_to 7965
  139.8764  144.7041  150.8928 LP  0  0  0  0  0  0  0  0  0  0  0  0  # atno 17342 bound_to 10162
  140.7767  143.3697  151.1673 LP  0  0  0  0  0  0  0  0  0  0  0  0  # atno 17343 bound_to 10162
  157.0772  130.5888  149.5413 LP  0  0  0  0  0  0  0  0  0  0  0  0  # atno 17370 bound_to 10713
  156.0013  130.5092  150.7671 LP  0  0  0  0  0  0  0  0  0  0  0  0  # atno 17371 bound_to 10713
  139.9441  135.0187  156.8798 LP  0  0  0  0  0  0  0  0  0  0  0  0  # atno 17394 bound_to 11000
  140.5851  134.0315  155.7478 LP  0  0  0  0  0  0  0  0  0  0  0  0  # atno 17395 bound_to 11000

$$$$
