AV-unprocessed.smi:112|AV-procd|sdf|1084|dock7
  -GOLD-   2262018183D 1   1.00000     0.00000
 Structure written by MMmdl.
 54 57  0  0  0  0  0  0  0  0  3 V2000
  146.9899  139.6210  152.5424 C   0  0  0  0  0  0  0  0  0  0  0  0
  147.2211  140.3777  153.8408 C   0  0  0  0  0  0  0  0  0  0  0  0
  146.2392  140.5557  154.7535 C   0  0  0  0  0  0  0  0  0  0  0  0
  146.4099  141.2399  155.9418 N   0  0  0  0  0  0  0  0  0  0  0  0
  145.2696  141.3409  156.9303 C   0  0  1  0  0  0  0  0  0  0  0  0
  145.6126  140.7525  158.2933 C   0  0  0  0  0  0  0  0  0  0  0  0
  144.6426  141.5320  159.1542 C   0  0  1  0  0  0  0  0  0  0  0  0
  145.0237  141.5151  160.5156 O   0  0  0  0  0  0  0  0  0  0  0  0
  144.6183  142.9279  158.4924 C   0  0  1  0  0  0  0  0  0  0  0  0
  145.6343  143.9418  159.0586 C   0  0  0  0  0  0  0  0  0  0  0  0
  145.5147  145.1722  158.3772 O   0  0  0  0  0  0  0  0  0  0  0  0
  144.9714  142.6875  157.1253 O   0  0  0  0  0  0  0  0  0  0  0  0
  147.6824  141.7536  156.2714 C   0  0  0  0  0  0  0  0  0  0  0  0
  147.8746  142.3527  157.3317 O   0  0  0  0  0  0  0  0  0  0  0  0
  148.7333  141.5793  155.3415 N   0  0  0  0  0  0  0  0  0  0  0  0
  150.0656  142.1407  155.6639 C   0  0  0  0  0  0  0  0  0  0  0  0
  150.8764  141.2865  156.6633 C   0  0  0  0  0  0  0  0  0  0  0  0
  150.8743  140.0614  156.5369 O   0  0  0  0  0  0  0  0  0  0  0  0
  151.5591  141.9323  157.6415 N   0  0  0  0  0  0  0  0  0  0  0  0
  151.5925  143.3989  157.7773 C   0  0  0  0  0  0  0  0  0  0  0  0
  152.4853  143.7010  159.0008 C   0  0  0  0  0  0  0  0  0  0  0  0
  152.8848  142.3352  159.4750 C   0  0  0  0  0  0  0  0  0  0  0  0
  153.7013  142.0360  160.5787 C   0  0  0  0  0  0  0  0  0  0  0  0
  153.9702  140.6786  160.8834 C   0  0  0  0  0  0  0  0  0  0  0  0
  154.8231  140.3264  162.0358 N   0  3  0  0  0  0  0  0  0  0  0  0
  155.1114  139.1463  162.2071 O   0  0  0  0  0  0  0  0  0  0  0  0
  155.2064  141.2295  162.7724 O   0  5  0  0  0  0  0  0  0  0  0  0
  153.4072  139.6630  160.0655 C   0  0  0  0  0  0  0  0  0  0  0  0
  152.5896  139.9820  158.9592 C   0  0  0  0  0  0  0  0  0  0  0  0
  152.3361  141.3413  158.6731 C   0  0  0  0  0  0  0  0  0  0  0  0
  148.5584  140.9136  154.1030 C   0  0  0  0  0  0  0  0  0  0  0  0
  149.4950  140.8077  153.3087 O   0  0  0  0  0  0  0  0  0  0  0  0
  145.9604  139.2724  152.4546 H   0  0  0  0  0  0  0  0  0  0  0  0
  147.6433  138.7496  152.4869 H   0  0  0  0  0  0  0  0  0  0  0  0
  147.1987  140.2611  151.6845 H   0  0  0  0  0  0  0  0  0  0  0  0
  145.2688  140.1330  154.5430 H   0  0  0  0  0  0  0  0  0  0  0  0
  144.3893  140.8633  156.5007 H   0  0  0  0  0  0  0  0  0  0  0  0
  145.4582  139.6733  158.3099 H   0  0  0  0  0  0  0  0  0  0  0  0
  146.6441  140.9754  158.5661 H   0  0  0  0  0  0  0  0  0  0  0  0
  143.6527  141.0812  159.0676 H   0  0  0  0  0  0  0  0  0  0  0  0
  144.2426  141.4776  161.0462 H   0  0  0  0  0  0  0  0  0  0  0  0
  143.6100  143.3395  158.5561 H   0  0  0  0  0  0  0  0  0  0  0  0
  145.4338  144.1509  160.1091 H   0  0  0  0  0  0  0  0  0  0  0  0
  146.6567  143.5713  158.9944 H   0  0  0  0  0  0  0  0  0  0  0  0
  146.2612  145.2734  157.8066 H   0  0  0  0  0  0  0  0  0  0  0  0
  150.6491  142.2746  154.7521 H   0  0  0  0  0  0  0  0  0  0  0  0
  149.9658  143.1498  156.0660 H   0  0  0  0  0  0  0  0  0  0  0  0
  152.0102  143.8621  156.8824 H   0  0  0  0  0  0  0  0  0  0  0  0
  150.5885  143.7963  157.9329 H   0  0  0  0  0  0  0  0  0  0  0  0
  153.3663  144.2818  158.7266 H   0  0  0  0  0  0  0  0  0  0  0  0
  151.9397  144.2318  159.7815 H   0  0  0  0  0  0  0  0  0  0  0  0
  154.1089  142.8378  161.1764 H   0  0  0  0  0  0  0  0  0  0  0  0
  153.5974  138.6219  160.2805 H   0  0  0  0  0  0  0  0  0  0  0  0
  152.1804  139.1801  158.3655 H   0  0  0  0  0  0  0  0  0  0  0  0
  1  2  1  0  0  0  0
  1 33  1  0  0  0  0
  1 34  1  0  0  0  0
  1 35  1  0  0  0  0
  2 31  1  0  0  0  0
  2  3  2  0  0  0  0
  3  4  1  0  0  0  0
  3 36  1  0  0  0  0
  4  5  1  0  0  0  0
  4 13  1  0  0  0  0
  5 12  1  0  0  0  0
  5  6  1  0  0  0  0
  5 37  1  0  0  0  0
  6  7  1  0  0  0  0
  6 38  1  0  0  0  0
  6 39  1  0  0  0  0
  7  8  1  0  0  0  0
  7  9  1  0  0  0  0
  7 40  1  0  0  0  0
  8 41  1  0  0  0  0
  9 10  1  0  0  0  0
  9 12  1  0  0  0  0
  9 42  1  0  0  0  0
 10 11  1  0  0  0  0
 10 43  1  0  0  0  0
 10 44  1  0  0  0  0
 11 45  1  0  0  0  0
 13 14  2  0  0  0  0
 13 15  1  0  0  0  0
 15 16  1  0  0  0  0
 15 31  1  0  0  0  0
 16 17  1  0  0  0  0
 16 46  1  0  0  0  0
 16 47  1  0  0  0  0
 17 18  2  0  0  0  0
 17 19  1  0  0  0  0
 19 30  1  0  0  0  0
 19 20  1  0  0  0  0
 20 21  1  0  0  0  0
 20 48  1  0  0  0  0
 20 49  1  0  0  0  0
 21 22  1  0  0  0  0
 21 50  1  0  0  0  0
 21 51  1  0  0  0  0
 22 30  2  0  0  0  0
 22 23  1  0  0  0  0
 23 24  2  0  0  0  0
 23 52  1  0  0  0  0
 24 25  1  0  0  0  0
 24 28  1  0  0  0  0
 25 26  2  0  0  0  0
 25 27  1  0  0  0  0
 28 29  2  0  0  0  0
 28 53  1  0  0  0  0
 29 30  1  0  0  0  0
 29 54  1  0  0  0  0
 31 32  2  0  0  0  0
M  CHG  1  25   1
M  CHG  1  27  -1
M  END
> <s_m_source_file>
AV-unprocessed.smi

> <i_m_source_file_index>
112

> <i_lp_mmshare_version>
43012

> <i_f3d_flags>
0

> <s_epik_input>
W09IXVtDSDJdW0NAQEhdKE8xKVtDQEhdKFtPSF0pW0NIMl1bQ0BIXTFuKFtjSF1jMltDSDNdKWMoPU8pbihjMj1PKVtDSDJdQyg9TylOKFtDSDJdW0NIMl0zKWMoYzM0KVtjSF1bY0hdYyhbY0hdNClbTitdKD1PKVtPLV0=

> <s_epik_cmdline>
J2VwaWtfcHl0aG9uJywgJy1waCcsICc3LjAnLCAnLXRuJywgJzgnLCAnLW1hJywgJzIwMCcsICctbWV0YWxfYmluZGluZycsICctaW1hZScsICc8aW5maWxlLm1hZT4nLCAnLW9tYWUnLCAnPG91dGZpbGUubWFlPic=

> <r_lp_tautomer_probability>
1

> <r_epik_Ionization_Penalty>
2.5696e-07

> <r_epik_Ionization_Penalty_Charging>
1.04886e-08

> <r_epik_Ionization_Penalty_Neutral>
2.46472e-07

> <r_epik_State_Penalty>
-0

> <r_epik_Charging_Adjusted_Penalty>
1.04886e-08

> <i_epik_Tot_Q>
0

> <i_epik_Tot_abs_Q>
2

> <r_epik_Metal_State_Penalty>
-0

> <b_epik_Metal_Only>
0

> <s_epik_Chemistry_Notes>
This compound contains an acetal/aminal-like group ( X-CH(R)-Y where X, Y are N, S, or O) that may be acid/base labile, releasing an aldehyde.

> <s_lp_Force_Field>
OPLS_2005

> <r_lp_Energy>
61.1797

> <b_lp_Chiralities_Consistent>
1

> <s_lp_Variant>
AV-unprocessed.smi:112-2

> <Gold.Version>
5.8.1

> <Gold.Id.Protein>
6NUR|6NUR_protein|mol2

> <Gold.PLP.Fitness>
55.6716

> <Gold.PLP.PLP>
-44.8361

> <Gold.PLP.part.hbond>
-4.8704

> <Gold.PLP.part.metal>
0.0000

> <Gold.PLP.part.buried>
-2.2723

> <Gold.PLP.part.nonpolar>
-42.2767

> <Gold.PLP.part.repulsive>
6.2972

> <Gold.PLP.ligand.clash>
0.0000

> <Gold.PLP.ligand.torsion>
0.5329

> <Gold.PLP.Chemscore.Hbond>
3.1694

> <Gold.PLP.Chemscore.CHOScore>
0.7861

> <Gold.PLP.Chemscore.Metal>
0.0000

> <Gold.Chemscore.Hbonds>
donor molecule, donor type, donor heavy atom, donor atom, acceptor molecule, acceptor atom, score
      L1  H    11    45       P1  8029  1.00
      P1  H  6934  6946       L1     8  0.91
      P1  H  7989  7998       L1    32  0.22
      P1  H  8011  8017       L1    32  1.00
      L1  C     3    36       P1 10175  0.77

> <Gold.PLP.Chemscore.Internal.Correction>
0.0349

> <Gold.Rescore>
     Score         DG    S(hbond)    S(metal)    S(lipo)     H(rot)  DE(clash)    DE(int)     intcor
     10.84     -18.32       2.72        0.00     104.05       3.29       3.61       3.87       ----

> <Gold.Chemscore.Fitness>
10.8417

> <Gold.Chemscore.DG>
-18.3225

> <Gold.Chemscore.ZeroCoef>
-5.4800

> <Gold.Chemscore.Hbond>
2.7233

> <Gold.Chemscore.Metal>
0.0000

> <Gold.Chemscore.Lipo>
104.0458

> <Gold.Chemscore.Internal_Hbond>
0.0000

> <Gold.Chemscore.DEClash>
3.6085

> <Gold.Chemscore.DEInternal>
3.8723

> <Gold.Chemscore.Rot>
3.2916

> <Gold.Chemscore.Internal.Correction>
   9.000000E+99

> <Gold.Chemscore.Hbonds>
donor molecule, donor type, donor heavy atom, donor atom, acceptor molecule, acceptor atom, score
      L1  H    11    45       P1  8029  0.69
      P1  H  6934  6946       L1     8  0.68
      P1  H  7989  7998       L1    32  0.21
      P1  H  8011  8017       L1    32  0.85

> <Gold.Chemscore.Hbond.Weighted>
-9.0957

> <Gold.Chemscore.Metal.Weighted>
-0.0000

> <Gold.Chemscore.Lipo.Weighted>
-12.1734

> <Gold.Chemscore.Internal_Hbond.Weighted>
0.0000

> <Gold.Chemscore.DEClash.Weighted>
3.6085

> <Gold.Chemscore.DEInternal.Weighted>
3.8723

> <Gold.Chemscore.Rot.Weighted>
8.4265

> <Gold.Chemscore.Internal.Correction.Weighted>
   9.000000E+99

> <Gold.Protein.RotatedTorsions>
[ 6907 6896 6895 6894 ] final   90.94 input  -60.11 | X-H torsion
[ 7974 7965 7964 7962 ] final -151.69 input  175.53 | X-H torsion
[ 8008 7997 7996 7995 ] final  -17.98 input   59.86 | X-H torsion
[ 10167 10162 10161 10158 ] final  -17.54 input  -65.29 | X-H torsion
[ 10718 10713 10712 10709 ] final   35.55 input   66.30 | X-H torsion
[ 10763 10752 10751 10750 ] final  -39.25 input  -60.55 | X-H torsion
[ 11005 11000 10999 10996 ] final -103.81 input  -57.11 | X-H torsion

> <Gold.Protein.ActiveResidues>
 VAL166  LYS551  ARG553  GLY616  TRP617  ASP618  TYR619  PRO620  LYS621  CYS622 
 ASP623  PHE694  ASN695  SER759  ASP760  ASP761  ALA762  ILE779  LEU786  VAL792 
 PHE793  MET794  SER795  GLU796  ALA797  LYS798  CYS799  TRP800  GLU811  SER814 

> <Gold.Protein.RotatedAtoms>
  152.5447  134.1733  159.8605 H   0  0  0  0  0  0  0  0  0  0  0  0  # atno 6907 bound_to 6896
  151.1741  133.4758  159.2601 H   0  0  0  0  0  0  0  0  0  0  0  0  # atno 6908 bound_to 6896
  151.1244  135.0108  159.8609 H   0  0  0  0  0  0  0  0  0  0  0  0  # atno 6909 bound_to 6896
  144.7836  140.4764  143.5822 H   0  0  0  0  0  0  0  0  0  0  0  0  # atno 7974 bound_to 7965
  154.4939  140.2128  155.9489 H   0  0  0  0  0  0  0  0  0  0  0  0  # atno 8008 bound_to 7997
  156.1344  140.3191  155.8366 H   0  0  0  0  0  0  0  0  0  0  0  0  # atno 8009 bound_to 7997
  155.4238  140.0498  157.3014 H   0  0  0  0  0  0  0  0  0  0  0  0  # atno 8010 bound_to 7997
  140.7248  143.5005  150.9875 H   0  0  0  0  0  0  0  0  0  0  0  0  # atno 10167 bound_to 10162
  157.3241  130.7463  149.6804 H   0  0  0  0  0  0  0  0  0  0  0  0  # atno 10718 bound_to 10713
  153.9263  135.6777  153.4746 H   0  0  0  0  0  0  0  0  0  0  0  0  # atno 10763 bound_to 10752
  153.1002  135.4831  154.8850 H   0  0  0  0  0  0  0  0  0  0  0  0  # atno 10764 bound_to 10752
  154.7451  135.3170  154.8616 H   0  0  0  0  0  0  0  0  0  0  0  0  # atno 10765 bound_to 10752
  141.1129  133.8671  157.1533 H   0  0  0  0  0  0  0  0  0  0  0  0  # atno 11005 bound_to 11000
  145.5983  139.1501  143.3143 LP  0  0  0  0  0  0  0  0  0  0  0  0  # atno 17320 bound_to 7965
  146.2056  140.6106  142.9082 LP  0  0  0  0  0  0  0  0  0  0  0  0  # atno 17321 bound_to 7965
  139.8715  143.7187  152.3166 LP  0  0  0  0  0  0  0  0  0  0  0  0  # atno 17342 bound_to 10162
  139.7437  144.7553  151.0612 LP  0  0  0  0  0  0  0  0  0  0  0  0  # atno 17343 bound_to 10162
  155.9689  130.4214  150.4470 LP  0  0  0  0  0  0  0  0  0  0  0  0  # atno 17370 bound_to 10713
  157.2490  131.0542  151.2390 LP  0  0  0  0  0  0  0  0  0  0  0  0  # atno 17371 bound_to 10713
  140.0033  135.0019  157.0238 LP  0  0  0  0  0  0  0  0  0  0  0  0  # atno 17394 bound_to 11000
  140.4726  134.1371  155.7205 LP  0  0  0  0  0  0  0  0  0  0  0  0  # atno 17395 bound_to 11000

$$$$
