AV-unprocessed.smi:1452|AV-procd|sdf|5907|dock4
  -GOLD-   22720 5593D 1   1.00000     0.00000
 Structure written by MMmdl.
 40 42  0  0  0  0  0  0  0  0  2 V2000
  150.1632  134.2622  155.7253 O   0  0  0  0  0  0  0  0  0  0  0  0
  149.7549  134.7622  154.6786 C   0  0  0  0  0  0  0  0  0  0  0  0
  150.1367  135.9988  154.2959 N   0  0  0  0  0  0  0  0  0  0  0  0
  151.0026  136.9446  154.9192 C   0  0  0  0  0  0  0  0  0  0  0  0
  150.8793  138.2656  154.4325 C   0  0  0  0  0  0  0  0  0  0  0  0
  151.6970  139.2821  154.9630 C   0  0  0  0  0  0  0  0  0  0  0  0
  152.6243  138.9513  155.9664 C   0  0  0  0  0  0  0  0  0  0  0  0
  152.6906  137.6119  156.3912 C   0  0  0  0  0  0  0  0  0  0  0  0
  151.9070  136.6365  155.8842 N   0  0  0  0  0  0  0  0  0  0  0  0
  148.9140  134.1219  153.8501 N   0  0  0  0  0  0  0  0  0  0  0  0
  148.3365  132.8042  154.0909 C   0  0  2  0  0  0  0  0  0  0  0  0
  149.2076  131.6628  153.5831 C   0  0  0  0  0  0  0  0  0  0  0  0
  148.2232  130.4927  153.4887 C   0  0  0  0  0  0  0  0  0  0  0  0
  146.8760  131.0795  153.2810 N   0  3  2  0  0  0  0  0  0  0  0  0
  146.1755  130.5717  152.0707 C   0  0  0  0  0  0  0  0  0  0  0  0
  144.9992  131.4836  151.6918 C   0  0  0  0  0  0  0  0  0  0  0  0
  145.4772  132.9067  151.3458 C   0  0  0  0  0  0  0  0  0  0  0  0
  146.8291  133.2500  151.9998 C   0  0  0  0  0  0  0  0  0  0  0  0
  146.9927  132.5626  153.3784 C   0  0  2  0  0  0  0  0  0  0  0  0
  149.8119  136.2733  153.3800 H   0  0  0  0  0  0  0  0  0  0  0  0
  150.1631  138.5043  153.6594 H   0  0  0  0  0  0  0  0  0  0  0  0
  151.6134  140.2975  154.6047 H   0  0  0  0  0  0  0  0  0  0  0  0
  153.2685  139.7032  156.3976 H   0  0  0  0  0  0  0  0  0  0  0  0
  153.3911  137.3146  157.1576 H   0  0  0  0  0  0  0  0  0  0  0  0
  148.6275  134.6028  153.0085 H   0  0  0  0  0  0  0  0  0  0  0  0
  148.1977  132.6629  155.1651 H   0  0  0  0  0  0  0  0  0  0  0  0
  149.5994  131.8968  152.5920 H   0  0  0  0  0  0  0  0  0  0  0  0
  150.0538  131.4503  154.2374 H   0  0  0  0  0  0  0  0  0  0  0  0
  148.5118  129.7893  152.7064 H   0  0  0  0  0  0  0  0  0  0  0  0
  148.2065  129.9418  154.4296 H   0  0  0  0  0  0  0  0  0  0  0  0
  146.8689  130.5155  151.2297 H   0  0  0  0  0  0  0  0  0  0  0  0
  145.8286  129.5557  152.2619 H   0  0  0  0  0  0  0  0  0  0  0  0
  144.4430  131.0636  150.8533 H   0  0  0  0  0  0  0  0  0  0  0  0
  144.3007  131.5266  152.5289 H   0  0  0  0  0  0  0  0  0  0  0  0
  145.5686  133.0194  150.2649 H   0  0  0  0  0  0  0  0  0  0  0  0
  144.7169  133.6223  151.6612 H   0  0  0  0  0  0  0  0  0  0  0  0
  147.6395  132.9338  151.3412 H   0  0  0  0  0  0  0  0  0  0  0  0
  146.9155  134.3336  152.0847 H   0  0  0  0  0  0  0  0  0  0  0  0
  146.1873  132.9218  154.0207 H   0  0  0  0  0  0  0  0  0  0  0  0
  146.3203  130.7974  154.0759 H   0  0  0  0  0  0  0  0  0  0  0  0
  1  2  2  0  0  0  0
  2  3  1  0  0  0  0
  2 10  1  0  0  0  0
  3  4  1  0  0  0  0
  3 20  1  0  0  0  0
  4  9  1  0  0  0  0
  4  5  2  0  0  0  0
  5  6  1  0  0  0  0
  5 21  1  0  0  0  0
  6  7  2  0  0  0  0
  6 22  1  0  0  0  0
  7  8  1  0  0  0  0
  7 23  1  0  0  0  0
  8  9  2  0  0  0  0
  8 24  1  0  0  0  0
 10 11  1  0  0  0  0
 10 25  1  0  0  0  0
 11 19  1  0  0  0  0
 11 12  1  0  0  0  0
 11 26  1  0  0  0  0
 12 13  1  0  0  0  0
 12 27  1  0  0  0  0
 12 28  1  0  0  0  0
 13 14  1  0  0  0  0
 13 29  1  0  0  0  0
 13 30  1  0  0  0  0
 14 19  1  0  0  0  0
 14 15  1  0  0  0  0
 14 40  1  0  0  0  0
 15 16  1  0  0  0  0
 15 31  1  0  0  0  0
 15 32  1  0  0  0  0
 16 17  1  0  0  0  0
 16 33  1  0  0  0  0
 16 34  1  0  0  0  0
 17 18  1  0  0  0  0
 17 35  1  0  0  0  0
 17 36  1  0  0  0  0
 18 19  1  0  0  0  0
 18 37  1  0  0  0  0
 18 38  1  0  0  0  0
 19 39  1  0  0  0  0
M  CHG  1  14   1
M  END
> <s_m_source_file>
AV-unprocessed.smi

> <i_m_source_file_index>
1452

> <i_lp_mmshare_version>
43012

> <i_f3d_flags>
0

> <s_epik_input>
W0NIMl0xW0NIMl1bQ0gyXVtDSDJdW0NASF0oTjEyKVtDQEBIXShbQ0gyXVtDSDJdMilbTkhdQyg9TylbTkhdYzNbY0hdW2NIXVtjSF1bY0hdbjM=

> <s_epik_cmdline>
J2VwaWtfcHl0aG9uJywgJy1waCcsICc3LjAnLCAnLXRuJywgJzgnLCAnLW1hJywgJzIwMCcsICctbWV0YWxfYmluZGluZycsICctaW1hZScsICc8aW5maWxlLm1hZT4nLCAnLW9tYWUnLCAnPG91dGZpbGUubWFlPic=

> <r_epik_Ionization_Penalty>
0.00100813

> <r_epik_Ionization_Penalty_Charging>
0.000974069

> <r_epik_Ionization_Penalty_Neutral>
3.40643e-05

> <r_epik_State_Penalty>
0.000633842

> <r_epik_Charging_Adjusted_Penalty>
0.00160791

> <i_epik_Tot_Q>
1

> <i_epik_Tot_abs_Q>
1

> <r_epik_Metal_State_Penalty>
-0

> <b_epik_Metal_Only>
0

> <s_lp_Force_Field>
OPLS_2005

> <r_lp_Energy>
44.9795

> <b_lp_Chiralities_Consistent>
1

> <s_lp_Variant>
AV-unprocessed.smi:1452-5

> <Gold.Version>
5.8.1

> <Gold.Id.Protein>
6NUR|6NUR_protein|mol2

> <Gold.PLP.Fitness>
40.9254

> <Gold.PLP.PLP>
-33.3010

> <Gold.PLP.part.hbond>
-4.0000

> <Gold.PLP.part.metal>
0.0000

> <Gold.PLP.part.buried>
-1.4379

> <Gold.PLP.part.nonpolar>
-26.7799

> <Gold.PLP.part.repulsive>
0.1234

> <Gold.PLP.ligand.clash>
0.0000

> <Gold.PLP.ligand.torsion>
0.4343

> <Gold.PLP.Chemscore.Hbond>
2.8300

> <Gold.PLP.Chemscore.CHOScore>
0.0000

> <Gold.PLP.Chemscore.Metal>
0.0000

> <Gold.Chemscore.Hbonds>
donor molecule, donor type, donor heavy atom, donor atom, acceptor molecule, acceptor atom, score
      L1  H     3    20       P1  7948  0.85
      L1  H    10    25       P1  7948  0.85
      P1  H 10752 10764       L1     9  1.00

> <Gold.PLP.Chemscore.Internal.Correction>
0.0029

> <Gold.Rescore>
     Score         DG    S(hbond)    S(metal)    S(lipo)     H(rot)  DE(clash)    DE(int)     intcor
     16.88     -18.35       2.11        0.00      71.58       1.00       0.04       1.42       ----

> <Gold.Chemscore.Fitness>
16.8835

> <Gold.Chemscore.DG>
-18.3472

> <Gold.Chemscore.ZeroCoef>
-5.4800

> <Gold.Chemscore.Hbond>
2.1115

> <Gold.Chemscore.Metal>
0.0000

> <Gold.Chemscore.Lipo>
71.5810

> <Gold.Chemscore.Internal_Hbond>
0.0000

> <Gold.Chemscore.DEClash>
0.0435

> <Gold.Chemscore.DEInternal>
1.4203

> <Gold.Chemscore.Rot>
1.0000

> <Gold.Chemscore.Internal.Correction>
   9.000000E+99

> <Gold.Chemscore.Hbonds>
donor molecule, donor type, donor heavy atom, donor atom, acceptor molecule, acceptor atom, score
      L1  H     3    20       P1  7948  0.15
      L1  H    10    25       P1  7948  0.18
      P1  H 10752 10764       L1     9  0.19

> <Gold.Chemscore.Hbond.Weighted>
-7.0522

> <Gold.Chemscore.Metal.Weighted>
-0.0000

> <Gold.Chemscore.Lipo.Weighted>
-8.3750

> <Gold.Chemscore.Internal_Hbond.Weighted>
0.0000

> <Gold.Chemscore.DEClash.Weighted>
0.0435

> <Gold.Chemscore.DEInternal.Weighted>
1.4203

> <Gold.Chemscore.Rot.Weighted>
2.5600

> <Gold.Chemscore.Internal.Correction.Weighted>
   9.000000E+99

> <Gold.Protein.RotatedTorsions>
[ 6907 6896 6895 6894 ] final   37.95 input  -60.11 | X-H torsion
[ 7974 7965 7964 7962 ] final   18.91 input  175.53 | X-H torsion
[ 8008 7997 7996 7995 ] final  -26.67 input   59.86 | X-H torsion
[ 10167 10162 10161 10158 ] final  174.55 input  -65.29 | X-H torsion
[ 10718 10713 10712 10709 ] final  165.06 input   66.30 | X-H torsion
[ 10763 10752 10751 10750 ] final  -22.79 input  -60.55 | X-H torsion
[ 11005 11000 10999 10996 ] final  106.69 input  -57.11 | X-H torsion

> <Gold.Protein.ActiveResidues>
 VAL166  LYS551  ARG553  GLY616  TRP617  ASP618  TYR619  PRO620  LYS621  CYS622 
 ASP623  PHE694  ASN695  SER759  ASP760  ASP761  ALA762  ILE779  LEU786  VAL792 
 PHE793  MET794  SER795  GLU796  ALA797  LYS798  CYS799  TRP800  GLU811  SER814 

> <Gold.Protein.RotatedAtoms>
  152.1500  134.8996  160.0548 H   0  0  0  0  0  0  0  0  0  0  0  0  # atno 6907 bound_to 6896
  152.0031  133.3828  159.4198 H   0  0  0  0  0  0  0  0  0  0  0  0  # atno 6908 bound_to 6896
  150.6874  134.3734  159.5046 H   0  0  0  0  0  0  0  0  0  0  0  0  # atno 6909 bound_to 6896
  146.2168  139.8389  142.8645 H   0  0  0  0  0  0  0  0  0  0  0  0  # atno 7974 bound_to 7965
  154.4414  140.1893  156.0812 H   0  0  0  0  0  0  0  0  0  0  0  0  # atno 8008 bound_to 7997
  156.0437  140.3316  155.7246 H   0  0  0  0  0  0  0  0  0  0  0  0  # atno 8009 bound_to 7997
  155.5661  140.0608  157.2808 H   0  0  0  0  0  0  0  0  0  0  0  0  # atno 8010 bound_to 7997
  139.5146  144.3133  152.0271 H   0  0  0  0  0  0  0  0  0  0  0  0  # atno 10167 bound_to 10162
  157.0855  131.0403  151.2558 H   0  0  0  0  0  0  0  0  0  0  0  0  # atno 10718 bound_to 10713
  153.6575  135.6978  153.5188 H   0  0  0  0  0  0  0  0  0  0  0  0  # atno 10763 bound_to 10752
  153.2657  135.4230  155.0938 H   0  0  0  0  0  0  0  0  0  0  0  0  # atno 10764 bound_to 10752
  154.8460  135.3566  154.6120 H   0  0  0  0  0  0  0  0  0  0  0  0  # atno 10765 bound_to 10752
  139.8817  134.9377  156.5705 H   0  0  0  0  0  0  0  0  0  0  0  0  # atno 11005 bound_to 11000
  145.2919  141.0169  143.3658 LP  0  0  0  0  0  0  0  0  0  0  0  0  # atno 17320 bound_to 7965
  144.9071  139.4576  143.6605 LP  0  0  0  0  0  0  0  0  0  0  0  0  # atno 17321 bound_to 7965
  140.2577  144.4101  150.6197 LP  0  0  0  0  0  0  0  0  0  0  0  0  # atno 17342 bound_to 10162
  140.6179  143.2174  151.6753 LP  0  0  0  0  0  0  0  0  0  0  0  0  # atno 17343 bound_to 10162
  157.4765  130.7739  149.7373 LP  0  0  0  0  0  0  0  0  0  0  0  0  # atno 17370 bound_to 10713
  155.9912  130.3939  150.2995 LP  0  0  0  0  0  0  0  0  0  0  0  0  # atno 17371 bound_to 10713
  140.8101  133.8435  155.8803 LP  0  0  0  0  0  0  0  0  0  0  0  0  # atno 17394 bound_to 11000
  140.9513  134.1774  157.4725 LP  0  0  0  0  0  0  0  0  0  0  0  0  # atno 17395 bound_to 11000

$$$$
