AV-unprocessed.smi:3161|AV-procd|sdf|12062|dock9
  -GOLD-   2272017493D 1   1.00000     0.00000
 Structure written by MMmdl.
 40 41  0  0  0  0  0  0  0  0  1 V2000
  147.0790  141.3997  153.6251 C   0  0  0  0  0  0  0  0  0  0  0  0
  148.3518  140.7851  154.1320 C   0  0  0  0  0  0  0  0  0  0  0  0
  149.5004  141.4501  154.6475 C   0  0  0  0  0  0  0  0  0  0  0  0
  150.4580  140.6144  155.0132 N   0  0  0  0  0  0  0  0  0  0  0  0
  149.9617  139.3891  154.7379 N   0  0  0  0  0  0  0  0  0  0  0  0
  150.7575  138.2044  155.0183 C   0  0  0  0  0  0  0  0  0  0  0  0
  152.1360  138.5091  155.6589 C   0  0  1  0  0  0  0  0  0  0  0  0
  153.2015  138.8715  154.6124 C   0  0  0  0  0  0  0  0  0  0  0  0
  152.0793  139.5634  156.6776 N   0  0  0  0  0  0  0  0  0  0  0  0
  152.4798  139.1623  158.0251 C   0  0  0  0  0  0  0  0  0  0  0  0
  153.1216  140.3366  158.7769 C   0  0  1  0  0  0  0  0  0  0  0  0
  152.1006  141.4565  159.0564 C   0  0  0  0  0  0  0  0  0  0  0  0
  152.7377  142.5728  159.8919 C   0  0  0  0  0  0  0  0  0  0  0  0
  153.3708  141.9756  161.1527 C   0  0  0  0  0  0  0  0  0  0  0  0
  154.3198  140.8260  160.7792 C   0  0  0  0  0  0  0  0  0  0  0  0
  153.6177  139.8457  160.0214 O   0  0  0  0  0  0  0  0  0  0  0  0
  148.6892  139.4636  154.2114 C   0  0  0  0  0  0  0  0  0  0  0  0
  147.1016  142.4881  153.6855 H   0  0  0  0  0  0  0  0  0  0  0  0
  146.2146  141.0646  154.1985 H   0  0  0  0  0  0  0  0  0  0  0  0
  146.8948  141.1402  152.5824 H   0  0  0  0  0  0  0  0  0  0  0  0
  149.6644  142.5109  154.7676 H   0  0  0  0  0  0  0  0  0  0  0  0
  150.1719  137.5203  155.6323 H   0  0  0  0  0  0  0  0  0  0  0  0
  150.9124  137.6810  154.0741 H   0  0  0  0  0  0  0  0  0  0  0  0
  152.4715  137.5905  156.1419 H   0  0  0  0  0  0  0  0  0  0  0  0
  153.2713  138.1035  153.8418 H   0  0  0  0  0  0  0  0  0  0  0  0
  154.1855  138.9638  155.0728 H   0  0  0  0  0  0  0  0  0  0  0  0
  152.9793  139.8192  154.1208 H   0  0  0  0  0  0  0  0  0  0  0  0
  152.6441  140.3532  156.3812 H   0  0  0  0  0  0  0  0  0  0  0  0
  151.6081  138.8239  158.5844 H   0  0  0  0  0  0  0  0  0  0  0  0
  153.1760  138.3235  157.9860 H   0  0  0  0  0  0  0  0  0  0  0  0
  153.9449  140.7405  158.1841 H   0  0  0  0  0  0  0  0  0  0  0  0
  151.7208  141.8645  158.1191 H   0  0  0  0  0  0  0  0  0  0  0  0
  151.2417  141.0469  159.5895 H   0  0  0  0  0  0  0  0  0  0  0  0
  153.5015  143.0827  159.3034 H   0  0  0  0  0  0  0  0  0  0  0  0
  151.9924  143.3228  160.1580 H   0  0  0  0  0  0  0  0  0  0  0  0
  153.9078  142.7454  161.7076 H   0  0  0  0  0  0  0  0  0  0  0  0
  152.5877  141.6008  161.8132 H   0  0  0  0  0  0  0  0  0  0  0  0
  155.1762  141.1950  160.2128 H   0  0  0  0  0  0  0  0  0  0  0  0
  154.7131  140.3573  161.6813 H   0  0  0  0  0  0  0  0  0  0  0  0
  148.1360  138.5778  153.9357 H   0  0  0  0  0  0  0  0  0  0  0  0
  1  2  1  0  0  0  0
  1 18  1  0  0  0  0
  1 19  1  0  0  0  0
  1 20  1  0  0  0  0
  2 17  2  0  0  0  0
  2  3  1  0  0  0  0
  3  4  2  0  0  0  0
  3 21  1  0  0  0  0
  4  5  1  0  0  0  0
  5  6  1  0  0  0  0
  5 17  1  0  0  0  0
  6  7  1  0  0  0  0
  6 22  1  0  0  0  0
  6 23  1  0  0  0  0
  7  8  1  0  0  0  0
  7  9  1  0  0  0  0
  7 24  1  0  0  0  0
  8 25  1  0  0  0  0
  8 26  1  0  0  0  0
  8 27  1  0  0  0  0
  9 10  1  0  0  0  0
  9 28  1  0  0  0  0
 10 11  1  0  0  0  0
 10 29  1  0  0  0  0
 10 30  1  0  0  0  0
 11 16  1  0  0  0  0
 11 12  1  0  0  0  0
 11 31  1  0  0  0  0
 12 13  1  0  0  0  0
 12 32  1  0  0  0  0
 12 33  1  0  0  0  0
 13 14  1  0  0  0  0
 13 34  1  0  0  0  0
 13 35  1  0  0  0  0
 14 15  1  0  0  0  0
 14 36  1  0  0  0  0
 14 37  1  0  0  0  0
 15 16  1  0  0  0  0
 15 38  1  0  0  0  0
 15 39  1  0  0  0  0
 17 40  1  0  0  0  0
M  END
> <s_m_source_file>
AV-unprocessed.smi

> <i_m_source_file_index>
3161

> <i_lp_mmshare_version>
43012

> <i_f3d_flags>
0

> <s_epik_input>
W0NIM11jMVtjSF1ubihbY0hdMSlbQ0gyXVtDQEhdKFtDSDNdKVtOSF1bQ0gyXVtDQEBIXTJbQ0gyXVtDSDJdW0NIMl1bQ0gyXU8y

> <s_epik_cmdline>
J2VwaWtfcHl0aG9uJywgJy1waCcsICc3LjAnLCAnLXRuJywgJzgnLCAnLW1hJywgJzIwMCcsICctbWV0YWxfYmluZGluZycsICctaW1hZScsICc8aW5maWxlLm1hZT4nLCAnLW9tYWUnLCAnPG91dGZpbGUubWFlPic=

> <r_lp_tautomer_probability>
1

> <r_epik_Ionization_Penalty>
2.51986

> <r_epik_Ionization_Penalty_Charging>
0

> <r_epik_Ionization_Penalty_Neutral>
2.51986

> <r_epik_State_Penalty>
2.68614

> <r_epik_Charging_Adjusted_Penalty>
2.68614

> <i_epik_Tot_Q>
0

> <i_epik_Tot_abs_Q>
0

> <r_epik_Metal_State_Penalty>
2.68606

> <b_epik_Metal_Only>
0

> <s_lp_Force_Field>
OPLS_2005

> <r_lp_Energy>
14.0123

> <b_lp_Chiralities_Consistent>
1

> <s_lp_Variant>
AV-unprocessed.smi:3161-8

> <Gold.Version>
5.8.1

> <Gold.Id.Protein>
6NUR|6NUR_protein|mol2

> <Gold.PLP.Fitness>
40.6543

> <Gold.PLP.PLP>
-37.3053

> <Gold.PLP.part.hbond>
-1.0000

> <Gold.PLP.part.metal>
0.0000

> <Gold.PLP.part.buried>
-2.5670

> <Gold.PLP.part.nonpolar>
-33.6127

> <Gold.PLP.part.repulsive>
0.0823

> <Gold.PLP.ligand.clash>
0.0000

> <Gold.PLP.ligand.torsion>
1.1739

> <Gold.PLP.Chemscore.Hbond>
0.8816

> <Gold.PLP.Chemscore.CHOScore>
1.0000

> <Gold.PLP.Chemscore.Metal>
0.0000

> <Gold.Chemscore.Hbonds>
donor molecule, donor type, donor heavy atom, donor atom, acceptor molecule, acceptor atom, score
      P1  H  7989  7998       L1     4  0.80
      L1  C     3    21       P1  8028  1.00

> <Gold.PLP.Chemscore.Internal.Correction>
0.0521

> <Gold.Rescore>
     Score         DG    S(hbond)    S(metal)    S(lipo)     H(rot)  DE(clash)    DE(int)     intcor
     12.98     -14.26       0.11        0.00     104.86       1.50       0.12       1.16       ----

> <Gold.Chemscore.Fitness>
12.9827

> <Gold.Chemscore.DG>
-14.2598

> <Gold.Chemscore.ZeroCoef>
-5.4800

> <Gold.Chemscore.Hbond>
0.1073

> <Gold.Chemscore.Metal>
0.0000

> <Gold.Chemscore.Lipo>
104.8645

> <Gold.Chemscore.Internal_Hbond>
0.0000

> <Gold.Chemscore.DEClash>
0.1190

> <Gold.Chemscore.DEInternal>
1.1581

> <Gold.Chemscore.Rot>
1.5030

> <Gold.Chemscore.Internal.Correction>
   9.000000E+99

> <Gold.Chemscore.Hbonds>
donor molecule, donor type, donor heavy atom, donor atom, acceptor molecule, acceptor atom, score
      P1  H  7989  7998       L1     4  0.04

> <Gold.Chemscore.Hbond.Weighted>
-0.3584

> <Gold.Chemscore.Metal.Weighted>
-0.0000

> <Gold.Chemscore.Lipo.Weighted>
-12.2691

> <Gold.Chemscore.Internal_Hbond.Weighted>
0.0000

> <Gold.Chemscore.DEClash.Weighted>
0.1190

> <Gold.Chemscore.DEInternal.Weighted>
1.1581

> <Gold.Chemscore.Rot.Weighted>
3.8477

> <Gold.Chemscore.Internal.Correction.Weighted>
   9.000000E+99

> <Gold.Protein.RotatedTorsions>
[ 6907 6896 6895 6894 ] final  -89.16 input  -60.11 | X-H torsion
[ 7974 7965 7964 7962 ] final  179.75 input  175.53 | X-H torsion
[ 8008 7997 7996 7995 ] final  133.65 input   59.86 | X-H torsion
[ 10167 10162 10161 10158 ] final   17.94 input  -65.29 | X-H torsion
[ 10718 10713 10712 10709 ] final   67.09 input   66.30 | X-H torsion
[ 10763 10752 10751 10750 ] final -119.24 input  -60.55 | X-H torsion
[ 11005 11000 10999 10996 ] final  -54.08 input  -57.11 | X-H torsion

> <Gold.Protein.ActiveResidues>
 VAL166  LYS551  ARG553  GLY616  TRP617  ASP618  TYR619  PRO620  LYS621  CYS622 
 ASP623  PHE694  ASN695  SER759  ASP760  ASP761  ALA762  ILE779  LEU786  VAL792 
 PHE793  MET794  SER795  GLU796  ALA797  LYS798  CYS799  TRP800  GLU811  SER814 

> <Gold.Protein.RotatedAtoms>
  150.6872  134.2629  159.4556 H   0  0  0  0  0  0  0  0  0  0  0  0  # atno 6907 bound_to 6896
  152.0558  134.9623  160.0584 H   0  0  0  0  0  0  0  0  0  0  0  0  # atno 6908 bound_to 6896
  152.1069  133.4245  159.4650 H   0  0  0  0  0  0  0  0  0  0  0  0  # atno 6909 bound_to 6896
  144.7143  140.0596  143.6433 H   0  0  0  0  0  0  0  0  0  0  0  0  # atno 7974 bound_to 7965
  156.2994  140.2516  156.3288 H   0  0  0  0  0  0  0  0  0  0  0  0  # atno 8008 bound_to 7997
  154.9165  140.0402  157.1994 H   0  0  0  0  0  0  0  0  0  0  0  0  # atno 8009 bound_to 7997
  154.8353  140.2882  155.5699 H   0  0  0  0  0  0  0  0  0  0  0  0  # atno 8010 bound_to 7997
  140.5689  143.9198  150.6698 H   0  0  0  0  0  0  0  0  0  0  0  0  # atno 10167 bound_to 10162
  157.6209  130.9303  150.0196 H   0  0  0  0  0  0  0  0  0  0  0  0  # atno 10718 bound_to 10713
  154.8611  135.4245  154.2267 H   0  0  0  0  0  0  0  0  0  0  0  0  # atno 10763 bound_to 10752
  153.3261  135.6985  153.6994 H   0  0  0  0  0  0  0  0  0  0  0  0  # atno 10764 bound_to 10752
  153.6030  135.3533  155.2925 H   0  0  0  0  0  0  0  0  0  0  0  0  # atno 10765 bound_to 10752
  141.1008  133.6618  156.4268 H   0  0  0  0  0  0  0  0  0  0  0  0  # atno 11005 bound_to 11000
  145.9875  139.2989  143.1004 LP  0  0  0  0  0  0  0  0  0  0  0  0  # atno 17320 bound_to 7965
  145.8940  140.9285  143.0537 LP  0  0  0  0  0  0  0  0  0  0  0  0  # atno 17321 bound_to 7965
  140.2668  143.3484  152.1273 LP  0  0  0  0  0  0  0  0  0  0  0  0  # atno 17342 bound_to 10162
  139.5107  144.6889  151.5814 LP  0  0  0  0  0  0  0  0  0  0  0  0  # atno 17343 bound_to 10162
  156.1355  130.3643  149.9664 LP  0  0  0  0  0  0  0  0  0  0  0  0  # atno 17370 bound_to 10713
  156.7717  130.9188  151.3644 LP  0  0  0  0  0  0  0  0  0  0  0  0  # atno 17371 bound_to 10713
  140.5026  134.6471  157.5254 LP  0  0  0  0  0  0  0  0  0  0  0  0  # atno 17394 bound_to 11000
  139.9859  134.7062  155.9775 LP  0  0  0  0  0  0  0  0  0  0  0  0  # atno 17395 bound_to 11000

$$$$
