AV-unprocessed.smi:157|AV-procd|sdf|1292|dock3
  -GOLD-   2262018573D 1   1.00000     0.00000
 Structure written by MMmdl.
 35 37  0  0  0  0  0  0  0  0  1 V2000
  151.4543  138.9828  154.3198 O   0  0  0  0  0  0  0  0  0  0  0  0
  152.4455  139.0554  155.3225 C   0  0  0  0  0  0  0  0  0  0  0  0
  151.8501  139.6109  156.6280 C   0  0  2  0  0  0  0  0  0  0  0  0
  152.8792  139.9481  157.5533 O   0  0  0  0  0  0  0  0  0  0  0  0
  152.4267  139.7839  158.8656 C   0  0  1  0  0  0  0  0  0  0  0  0
  152.4878  141.1080  159.5629 N   0  0  0  0  0  0  0  0  0  0  0  0
  153.1251  141.3721  160.7114 C   0  0  0  0  0  0  0  0  0  0  0  0
  153.0348  142.6283  161.1141 N   0  0  0  0  0  0  0  0  0  0  0  0
  152.2612  143.2414  160.1302 C   0  0  0  0  0  0  0  0  0  0  0  0
  151.9136  142.3158  159.1564 C   0  0  0  0  0  0  0  0  0  0  0  0
  151.2003  142.3379  157.9733 N   0  0  0  0  0  0  0  0  0  0  0  0
  150.3756  143.3184  157.7803 C   0  0  0  0  0  0  0  0  0  0  0  0
  150.1399  144.4519  158.5450 N   0  0  0  0  0  0  0  0  0  0  0  0
  151.2023  145.3088  159.0432 C   0  0  0  0  0  0  0  0  0  0  0  0
  151.9673  144.7108  160.2307 C   0  0  1  0  0  0  0  0  0  0  0  0
  151.2153  144.9015  161.4118 O   0  0  0  0  0  0  0  0  0  0  0  0
  150.9787  139.2872  158.8012 C   0  0  0  0  0  0  0  0  0  0  0  0
  150.9100  138.6851  157.4130 C   0  0  2  0  0  0  0  0  0  0  0  0
  151.3588  137.3428  157.4239 O   0  0  0  0  0  0  0  0  0  0  0  0
  151.3166  140.5377  156.4096 H   0  0  0  0  0  0  0  0  0  0  0  0
  153.1010  139.1190  159.4060 H   0  0  0  0  0  0  0  0  0  0  0  0
  152.8970  145.2663  160.3566 H   0  0  0  0  0  0  0  0  0  0  0  0
  149.8961  138.7053  157.0122 H   0  0  0  0  0  0  0  0  0  0  0  0
  151.4255  138.0972  153.9910 H   0  0  0  0  0  0  0  0  0  0  0  0
  152.8930  138.0725  155.4713 H   0  0  0  0  0  0  0  0  0  0  0  0
  153.2396  139.7136  154.9694 H   0  0  0  0  0  0  0  0  0  0  0  0
  153.6746  140.6255  161.2655 H   0  0  0  0  0  0  0  0  0  0  0  0
  149.7497  143.3010  156.8869 H   0  0  0  0  0  0  0  0  0  0  0  0
  149.2942  144.9774  158.3779 H   0  0  0  0  0  0  0  0  0  0  0  0
  151.9010  145.4673  158.2204 H   0  0  0  0  0  0  0  0  0  0  0  0
  150.8013  146.2913  159.2942 H   0  0  0  0  0  0  0  0  0  0  0  0
  150.5780  144.2060  161.4705 H   0  0  0  0  0  0  0  0  0  0  0  0
  150.7593  138.5888  159.6098 H   0  0  0  0  0  0  0  0  0  0  0  0
  150.2941  140.1341  158.8727 H   0  0  0  0  0  0  0  0  0  0  0  0
  150.7376  136.8173  156.9431 H   0  0  0  0  0  0  0  0  0  0  0  0
  1  2  1  0  0  0  0
  1 24  1  0  0  0  0
  2  3  1  0  0  0  0
  2 25  1  0  0  0  0
  2 26  1  0  0  0  0
  3 20  1  0  0  0  0
  3 18  1  0  0  0  0
  3  4  1  0  0  0  0
  4  5  1  0  0  0  0
  5 21  1  0  0  0  0
  5  6  1  0  0  0  0
  5 17  1  0  0  0  0
  6 10  1  0  0  0  0
  6  7  1  0  0  0  0
  7  8  2  0  0  0  0
  7 27  1  0  0  0  0
  8  9  1  0  0  0  0
  9 15  1  0  0  0  0
  9 10  2  0  0  0  0
 10 11  1  0  0  0  0
 11 12  2  0  0  0  0
 12 13  1  0  0  0  0
 12 28  1  0  0  0  0
 13 14  1  0  0  0  0
 13 29  1  0  0  0  0
 14 15  1  0  0  0  0
 14 30  1  0  0  0  0
 14 31  1  0  0  0  0
 15 22  1  0  0  0  0
 15 16  1  0  0  0  0
 16 32  1  0  0  0  0
 17 18  1  0  0  0  0
 17 33  1  0  0  0  0
 17 34  1  0  0  0  0
 18 23  1  0  0  0  0
 18 19  1  0  0  0  0
 19 35  1  0  0  0  0
M  END
> <s_m_source_file>
AV-unprocessed.smi

> <i_m_source_file_index>
157

> <i_lp_mmshare_version>
43012

> <i_f3d_flags>
0

> <s_epik_input>
W09IXVtDSDJdW0NASF0xT1tDQEhdKFtDSDJdW0NAQEhdMVtPSF0pbihbY0hdbjIpYyhjMjMpTj1bQ0hdW05IXVtDSDJdW0NASF0zW09IXQ==

> <s_epik_cmdline>
J2VwaWtfcHl0aG9uJywgJy1waCcsICc3LjAnLCAnLXRuJywgJzgnLCAnLW1hJywgJzIwMCcsICctbWV0YWxfYmluZGluZycsICctaW1hZScsICc8aW5maWxlLm1hZT4nLCAnLW9tYWUnLCAnPG91dGZpbGUubWFlPic=

> <r_lp_tautomer_probability>
1

> <r_epik_Ionization_Penalty>
0.0357149

> <r_epik_Ionization_Penalty_Charging>
0.0355056

> <r_epik_Ionization_Penalty_Neutral>
0.000209255

> <r_epik_State_Penalty>
0.0296046

> <r_epik_Charging_Adjusted_Penalty>
0.0651102

> <i_epik_Tot_Q>
0

> <i_epik_Tot_abs_Q>
0

> <r_epik_Metal_State_Penalty>
3.03559e-05

> <b_epik_Metal_Only>
0

> <s_epik_Chemistry_Notes>
This compound has an imine and may undergo hydrolysis. This compound contains an acetal/aminal-like group ( X-CH(R)-Y where X, Y are N, S, or O) that may be acid/base labile, releasing an aldehyde.

> <s_lp_Force_Field>
OPLS_2005

> <r_lp_Energy>
45.9661

> <b_lp_Chiralities_Consistent>
1

> <s_lp_Variant>
AV-unprocessed.smi:157-2

> <Gold.Version>
5.8.1

> <Gold.Id.Protein>
6NUR|6NUR_protein|mol2

> <Gold.PLP.Fitness>
45.8726

> <Gold.PLP.PLP>
-34.1683

> <Gold.PLP.part.hbond>
-4.5511

> <Gold.PLP.part.metal>
0.0000

> <Gold.PLP.part.buried>
-2.2637

> <Gold.PLP.part.nonpolar>
-27.6643

> <Gold.PLP.part.repulsive>
0.2102

> <Gold.PLP.ligand.clash>
0.0000

> <Gold.PLP.ligand.torsion>
0.1131

> <Gold.PLP.Chemscore.Hbond>
2.9750

> <Gold.PLP.Chemscore.CHOScore>
1.0000

> <Gold.PLP.Chemscore.Metal>
0.0000

> <Gold.Chemscore.Hbonds>
donor molecule, donor type, donor heavy atom, donor atom, acceptor molecule, acceptor atom, score
      L1  H    13    29       P1  8029  1.00
      P1  H  7989  7998       L1     1  0.94
      P1  H  7997  8008       L1     4  1.00
      L1  C    12    28       P1  8028  1.00

> <Gold.PLP.Chemscore.Internal.Correction>
0.0055

> <Gold.Rescore>
     Score         DG    S(hbond)    S(metal)    S(lipo)     H(rot)  DE(clash)    DE(int)     intcor
      5.29      -8.16       1.60        0.00      56.74       3.64       1.75       1.13       ----

> <Gold.Chemscore.Fitness>
5.2883

> <Gold.Chemscore.DG>
-8.1623

> <Gold.Chemscore.ZeroCoef>
-5.4800

> <Gold.Chemscore.Hbond>
1.6026

> <Gold.Chemscore.Metal>
0.0000

> <Gold.Chemscore.Lipo>
56.7367

> <Gold.Chemscore.Internal_Hbond>
0.0000

> <Gold.Chemscore.DEClash>
1.7465

> <Gold.Chemscore.DEInternal>
1.1276

> <Gold.Chemscore.Rot>
3.6362

> <Gold.Chemscore.Internal.Correction>
   9.000000E+99

> <Gold.Chemscore.Hbonds>
donor molecule, donor type, donor heavy atom, donor atom, acceptor molecule, acceptor atom, score
      L1  H    13    29       P1  8029  0.56
      P1  H  7989  7998       L1     1  0.22
      P1  H  7997  8008       L1     4  0.78

> <Gold.Chemscore.Hbond.Weighted>
-5.3528

> <Gold.Chemscore.Metal.Weighted>
-0.0000

> <Gold.Chemscore.Lipo.Weighted>
-6.6382

> <Gold.Chemscore.Internal_Hbond.Weighted>
0.0000

> <Gold.Chemscore.DEClash.Weighted>
1.7465

> <Gold.Chemscore.DEInternal.Weighted>
1.1276

> <Gold.Chemscore.Rot.Weighted>
9.3087

> <Gold.Chemscore.Internal.Correction.Weighted>
   9.000000E+99

> <Gold.Protein.RotatedTorsions>
[ 6907 6896 6895 6894 ] final -152.58 input  -60.11 | X-H torsion
[ 7974 7965 7964 7962 ] final  -27.97 input  175.53 | X-H torsion
[ 8008 7997 7996 7995 ] final  -66.91 input   59.86 | X-H torsion
[ 10167 10162 10161 10158 ] final -120.46 input  -65.29 | X-H torsion
[ 10718 10713 10712 10709 ] final   23.08 input   66.30 | X-H torsion
[ 10763 10752 10751 10750 ] final  102.51 input  -60.55 | X-H torsion
[ 11005 11000 10999 10996 ] final  115.02 input  -57.11 | X-H torsion

> <Gold.Protein.ActiveResidues>
 VAL166  LYS551  ARG553  GLY616  TRP617  ASP618  TYR619  PRO620  LYS621  CYS622 
 ASP623  PHE694  ASN695  SER759  ASP760  ASP761  ALA762  ILE779  LEU786  VAL792 
 PHE793  MET794  SER795  GLU796  ALA797  LYS798  CYS799  TRP800  GLU811  SER814 

> <Gold.Protein.RotatedAtoms>
  151.2299  133.4456  159.2603 H   0  0  0  0  0  0  0  0  0  0  0  0  # atno 6907 bound_to 6896
  151.0804  134.9855  159.8363 H   0  0  0  0  0  0  0  0  0  0  0  0  # atno 6908 bound_to 6896
  152.5423  134.2239  159.8851 H   0  0  0  0  0  0  0  0  0  0  0  0  # atno 6909 bound_to 6896
  146.1320  140.5222  142.8689 H   0  0  0  0  0  0  0  0  0  0  0  0  # atno 7974 bound_to 7965
  154.4765  140.0903  156.7274 H   0  0  0  0  0  0  0  0  0  0  0  0  # atno 8008 bound_to 7997
  155.4583  140.3460  155.4291 H   0  0  0  0  0  0  0  0  0  0  0  0  # atno 8009 bound_to 7997
  156.1124  140.1451  156.9308 H   0  0  0  0  0  0  0  0  0  0  0  0  # atno 8010 bound_to 7997
  140.0356  143.5204  152.2155 H   0  0  0  0  0  0  0  0  0  0  0  0  # atno 10167 bound_to 10162
  157.1612  130.6717  149.6044 H   0  0  0  0  0  0  0  0  0  0  0  0  # atno 10718 bound_to 10713
  153.3405  135.4008  155.1568 H   0  0  0  0  0  0  0  0  0  0  0  0  # atno 10763 bound_to 10752
  154.8642  135.3632  154.5352 H   0  0  0  0  0  0  0  0  0  0  0  0  # atno 10764 bound_to 10752
  153.5796  135.7077  153.5528 H   0  0  0  0  0  0  0  0  0  0  0  0  # atno 10765 bound_to 10752
  139.8997  134.9577  156.6982 H   0  0  0  0  0  0  0  0  0  0  0  0  # atno 11005 bound_to 11000
  144.7701  140.5618  143.6676 LP  0  0  0  0  0  0  0  0  0  0  0  0  # atno 17320 bound_to 7965
  145.5239  139.1476  143.3537 LP  0  0  0  0  0  0  0  0  0  0  0  0  # atno 17321 bound_to 7965
  139.6047  144.7593  151.3089 LP  0  0  0  0  0  0  0  0  0  0  0  0  # atno 17342 bound_to 10162
  140.7283  143.6940  150.7899 LP  0  0  0  0  0  0  0  0  0  0  0  0  # atno 17343 bound_to 10162
  155.9753  130.4711  150.6453 LP  0  0  0  0  0  0  0  0  0  0  0  0  # atno 17370 bound_to 10713
  157.4131  131.0826  151.1202 LP  0  0  0  0  0  0  0  0  0  0  0  0  # atno 17371 bound_to 10713
  140.7172  133.9172  155.8122 LP  0  0  0  0  0  0  0  0  0  0  0  0  # atno 17394 bound_to 11000
  141.0255  134.0829  157.4073 LP  0  0  0  0  0  0  0  0  0  0  0  0  # atno 17395 bound_to 11000

$$$$
