AV-unprocessed.smi:61|AV-procd|sdf|597|dock8
  -GOLD-   2262016493D 1   1.00000     0.00000
 Structure written by MMmdl.
 28 29  0  0  0  0  0  0  0  0  1 V2000
  146.0325  136.2845  151.0341 N   0  0  0  0  0  0  0  0  0  0  0  0
  145.4982  135.0237  151.1372 C   0  0  0  0  0  0  0  0  0  0  0  0
  144.2014  134.9000  150.8532 N   0  0  0  0  0  0  0  0  0  0  0  0
  143.6785  133.6597  150.9539 C   0  0  0  0  0  0  0  0  0  0  0  0
  144.4602  132.5518  151.3391 C   0  0  0  0  0  0  0  0  0  0  0  0
  145.8258  132.7975  151.6184 C   0  0  0  0  0  0  0  0  0  0  0  0
  146.6787  131.7461  152.0160 N   0  0  0  0  0  0  0  0  0  0  0  0
  146.1946  130.3859  151.8024 C   0  0  0  0  0  0  0  0  0  0  0  0
  146.6873  129.5624  152.9953 C   0  0  0  0  0  0  0  0  0  0  0  0
  147.8697  130.3666  153.5241 C   0  0  0  0  0  0  0  0  0  0  0  0
  147.4438  131.8150  153.2604 C   0  0  1  0  0  0  0  0  0  0  0  0
  148.6353  132.7914  153.1847 C   0  0  0  0  0  0  0  0  0  0  0  0
  148.1853  134.1186  153.3545 O   0  0  0  0  0  0  0  0  0  0  0  0
  146.3313  134.0509  151.5106 N   0  0  0  0  0  0  0  0  0  0  0  0
  147.0091  136.4431  151.2358 H   0  0  0  0  0  0  0  0  0  0  0  0
  145.4465  137.0690  150.7892 H   0  0  0  0  0  0  0  0  0  0  0  0
  142.6293  133.5491  150.7242 H   0  0  0  0  0  0  0  0  0  0  0  0
  144.0266  131.5653  151.4085 H   0  0  0  0  0  0  0  0  0  0  0  0
  145.1080  130.3351  151.7190 H   0  0  0  0  0  0  0  0  0  0  0  0
  146.6230  130.0076  150.8736 H   0  0  0  0  0  0  0  0  0  0  0  0
  145.9075  129.5168  153.7568 H   0  0  0  0  0  0  0  0  0  0  0  0
  146.9530  128.5405  152.7242 H   0  0  0  0  0  0  0  0  0  0  0  0
  148.0789  130.1714  154.5762 H   0  0  0  0  0  0  0  0  0  0  0  0
  148.7647  130.1205  152.9507 H   0  0  0  0  0  0  0  0  0  0  0  0
  146.7657  132.1275  154.0563 H   0  0  0  0  0  0  0  0  0  0  0  0
  149.3768  132.5609  153.9505 H   0  0  0  0  0  0  0  0  0  0  0  0
  149.1429  132.7306  152.2227 H   0  0  0  0  0  0  0  0  0  0  0  0
  148.5179  134.6414  152.6411 H   0  0  0  0  0  0  0  0  0  0  0  0
  1  2  1  0  0  0  0
  1 15  1  0  0  0  0
  1 16  1  0  0  0  0
  2 14  1  0  0  0  0
  2  3  2  0  0  0  0
  3  4  1  0  0  0  0
  4  5  2  0  0  0  0
  4 17  1  0  0  0  0
  5  6  1  0  0  0  0
  5 18  1  0  0  0  0
  6  7  1  0  0  0  0
  6 14  2  0  0  0  0
  7 11  1  0  0  0  0
  7  8  1  0  0  0  0
  8  9  1  0  0  0  0
  8 19  1  0  0  0  0
  8 20  1  0  0  0  0
  9 10  1  0  0  0  0
  9 21  1  0  0  0  0
  9 22  1  0  0  0  0
 10 11  1  0  0  0  0
 10 23  1  0  0  0  0
 10 24  1  0  0  0  0
 11 12  1  0  0  0  0
 11 25  1  0  0  0  0
 12 13  1  0  0  0  0
 12 26  1  0  0  0  0
 12 27  1  0  0  0  0
 13 28  1  0  0  0  0
M  END
> <s_m_source_file>
AV-unprocessed.smi

> <i_m_source_file_index>
61

> <i_lp_mmshare_version>
43012

> <i_f3d_flags>
0

> <s_epik_input>
W05IMl1jMW5bY0hdW2NIXWMobjEpTjJbQ0gyXVtDSDJdW0NIMl1bQ0BIXTJbQ0gyXVtPSF0=

> <s_epik_cmdline>
J2VwaWtfcHl0aG9uJywgJy1waCcsICc3LjAnLCAnLXRuJywgJzgnLCAnLW1hJywgJzIwMCcsICctbWV0YWxfYmluZGluZycsICctaW1hZScsICc8aW5maWxlLm1hZT4nLCAnLW9tYWUnLCAnPG91dGZpbGUubWFlPic=

> <r_lp_tautomer_probability>
1

> <r_epik_Ionization_Penalty>
0.76024

> <r_epik_Ionization_Penalty_Charging>
0

> <r_epik_Ionization_Penalty_Neutral>
0.76024

> <r_epik_State_Penalty>
0.587668

> <r_epik_Charging_Adjusted_Penalty>
0.587668

> <i_epik_Tot_Q>
0

> <i_epik_Tot_abs_Q>
0

> <r_epik_Metal_State_Penalty>
0.307814

> <b_epik_Metal_Only>
0

> <s_lp_Force_Field>
OPLS_2005

> <r_lp_Energy>
20.8196

> <b_lp_Chiralities_Consistent>
1

> <s_lp_Variant>
AV-unprocessed.smi:61-3

> <Gold.Version>
5.8.1

> <Gold.Id.Protein>
6NUR|6NUR_protein|mol2

> <Gold.PLP.Fitness>
31.4788

> <Gold.PLP.PLP>
-22.6283

> <Gold.PLP.part.hbond>
-2.0000

> <Gold.PLP.part.metal>
0.0000

> <Gold.PLP.part.buried>
-3.3921

> <Gold.PLP.part.nonpolar>
-18.3329

> <Gold.PLP.part.repulsive>
1.1677

> <Gold.PLP.ligand.clash>
0.0000

> <Gold.PLP.ligand.torsion>
0.3742

> <Gold.PLP.Chemscore.Hbond>
2.0812

> <Gold.PLP.Chemscore.CHOScore>
1.0000

> <Gold.PLP.Chemscore.Metal>
0.0000

> <Gold.Chemscore.Hbonds>
donor molecule, donor type, donor heavy atom, donor atom, acceptor molecule, acceptor atom, score
      L1  H     1    15       P1  7948  1.00
      L1  H     1    16       P1 10171  0.10
      L1  H    13    28       P1  7948  0.85
      L1  C     4    17       P1 10186  1.00

> <Gold.PLP.Chemscore.Internal.Correction>
0.3552

> <Gold.Rescore>
     Score         DG    S(hbond)    S(metal)    S(lipo)     H(rot)  DE(clash)    DE(int)     intcor
     11.54     -13.55       2.47        0.00      41.42       1.96       0.10       1.91       ----

> <Gold.Chemscore.Fitness>
11.5408

> <Gold.Chemscore.DG>
-13.5542

> <Gold.Chemscore.ZeroCoef>
-5.4800

> <Gold.Chemscore.Hbond>
2.4659

> <Gold.Chemscore.Metal>
0.0000

> <Gold.Chemscore.Lipo>
41.4160

> <Gold.Chemscore.Internal_Hbond>
0.0000

> <Gold.Chemscore.DEClash>
0.0998

> <Gold.Chemscore.DEInternal>
1.9136

> <Gold.Chemscore.Rot>
1.9561

> <Gold.Chemscore.Internal.Correction>
   9.000000E+99

> <Gold.Chemscore.Hbonds>
donor molecule, donor type, donor heavy atom, donor atom, acceptor molecule, acceptor atom, score
      L1  H     1    15       P1  7948  0.95
      L1  H     1    16       P1 10171  0.13
      L1  H    13    28       P1  7948  0.14

> <Gold.Chemscore.Hbond.Weighted>
-8.2362

> <Gold.Chemscore.Metal.Weighted>
-0.0000

> <Gold.Chemscore.Lipo.Weighted>
-4.8457

> <Gold.Chemscore.Internal_Hbond.Weighted>
0.0000

> <Gold.Chemscore.DEClash.Weighted>
0.0998

> <Gold.Chemscore.DEInternal.Weighted>
1.9136

> <Gold.Chemscore.Rot.Weighted>
5.0077

> <Gold.Chemscore.Internal.Correction.Weighted>
   9.000000E+99

> <Gold.Protein.RotatedTorsions>
[ 6907 6896 6895 6894 ] final  -50.22 input  -60.11 | X-H torsion
[ 7974 7965 7964 7962 ] final  167.22 input  175.53 | X-H torsion
[ 8008 7997 7996 7995 ] final -169.05 input   59.86 | X-H torsion
[ 10167 10162 10161 10158 ] final  166.18 input  -65.29 | X-H torsion
[ 10718 10713 10712 10709 ] final  163.71 input   66.30 | X-H torsion
[ 10763 10752 10751 10750 ] final -107.76 input  -60.55 | X-H torsion
[ 11005 11000 10999 10996 ] final  -94.92 input  -57.11 | X-H torsion

> <Gold.Protein.ActiveResidues>
 VAL166  LYS551  ARG553  GLY616  TRP617  ASP618  TYR619  PRO620  LYS621  CYS622 
 ASP623  PHE694  ASN695  SER759  ASP760  ASP761  ALA762  ILE779  LEU786  VAL792 
 PHE793  MET794  SER795  GLU796  ALA797  LYS798  CYS799  TRP800  GLU811  SER814 

> <Gold.Protein.RotatedAtoms>
  150.8729  134.8106  159.7167 H   0  0  0  0  0  0  0  0  0  0  0  0  # atno 6907 bound_to 6896
  152.4726  134.4919  159.9707 H   0  0  0  0  0  0  0  0  0  0  0  0  # atno 6908 bound_to 6896
  151.5004  133.3467  159.2903 H   0  0  0  0  0  0  0  0  0  0  0  0  # atno 6909 bound_to 6896
  144.7432  139.8729  143.6390 H   0  0  0  0  0  0  0  0  0  0  0  0  # atno 7974 bound_to 7965
  155.8997  140.1039  157.1359 H   0  0  0  0  0  0  0  0  0  0  0  0  # atno 8008 bound_to 7997
  154.4025  140.1295  156.4484 H   0  0  0  0  0  0  0  0  0  0  0  0  # atno 8009 bound_to 7997
  155.7437  140.3466  155.5119 H   0  0  0  0  0  0  0  0  0  0  0  0  # atno 8010 bound_to 7997
  139.4920  144.4054  151.9361 H   0  0  0  0  0  0  0  0  0  0  0  0  # atno 10167 bound_to 10162
  157.1047  131.0452  151.2483 H   0  0  0  0  0  0  0  0  0  0  0  0  # atno 10718 bound_to 10713
  154.8094  135.4663  154.0478 H   0  0  0  0  0  0  0  0  0  0  0  0  # atno 10763 bound_to 10752
  153.1920  135.6856  153.8347 H   0  0  0  0  0  0  0  0  0  0  0  0  # atno 10764 bound_to 10752
  153.7861  135.3249  155.3349 H   0  0  0  0  0  0  0  0  0  0  0  0  # atno 10765 bound_to 10752
  141.1457  133.7990  157.0364 H   0  0  0  0  0  0  0  0  0  0  0  0  # atno 11005 bound_to 11000
  146.1267  139.4294  143.0194 LP  0  0  0  0  0  0  0  0  0  0  0  0  # atno 17320 bound_to 7965
  145.7224  141.0070  143.1395 LP  0  0  0  0  0  0  0  0  0  0  0  0  # atno 17321 bound_to 7965
  140.3494  144.3107  150.5952 LP  0  0  0  0  0  0  0  0  0  0  0  0  # atno 17342 bound_to 10162
  140.5498  143.2208  151.7946 LP  0  0  0  0  0  0  0  0  0  0  0  0  # atno 17343 bound_to 10162
  157.4611  130.7653  149.7236 LP  0  0  0  0  0  0  0  0  0  0  0  0  # atno 17370 bound_to 10713
  155.9865  130.3974  150.3210 LP  0  0  0  0  0  0  0  0  0  0  0  0  # atno 17371 bound_to 10713
  140.0720  134.9696  157.1484 LP  0  0  0  0  0  0  0  0  0  0  0  0  # atno 17394 bound_to 11000
  140.3697  134.2404  155.7179 LP  0  0  0  0  0  0  0  0  0  0  0  0  # atno 17395 bound_to 11000

$$$$
