AV-unprocessed.smi:3162|AV-procd|sdf|12065|dock3
  -GOLD-   2272017493D 1   1.00000     0.00000
 Structure written by MMmdl.
 37 37  0  0  0  0  0  0  0  0  2 V2000
  147.4616  141.3186  154.5382 C   0  0  0  0  0  0  0  0  0  0  0  0
  147.0452  140.6365  153.2256 C   0  0  0  0  0  0  0  0  0  0  0  0
  147.0884  139.0930  153.2611 C   0  0  2  0  0  0  0  0  0  0  0  0
  148.5024  138.6478  153.2894 N   0  3  0  0  0  0  0  0  0  0  0  0
  149.2351  138.8459  154.5626 C   0  0  1  0  0  0  0  0  0  0  0  0
  149.9133  137.5452  155.0372 C   0  0  0  0  0  0  0  0  0  0  0  0
  150.2372  140.0054  154.3893 C   0  0  0  0  0  0  0  0  0  0  0  0
  150.6599  140.5827  155.6529 N   0  0  0  0  0  0  0  0  0  0  0  0
  150.4608  141.8662  156.1150 C   0  0  0  0  0  0  0  0  0  0  0  0
  151.0374  141.9529  157.3501 C   0  0  0  0  0  0  0  0  0  0  0  0
  151.0982  143.1346  158.2747 C   0  0  0  0  0  0  0  0  0  0  0  0
  151.5734  140.6498  157.5572 C   0  0  0  0  0  0  0  0  0  0  0  0
  151.3479  139.8335  156.5404 N   0  0  0  0  0  0  0  0  0  0  0  0
  146.3612  138.4839  152.0514 C   0  0  0  0  0  0  0  0  0  0  0  0
  145.1639  137.9328  152.2683 N   0  0  0  0  0  0  0  0  0  0  0  0
  146.8723  138.5150  150.9335 O   0  0  0  0  0  0  0  0  0  0  0  0
  147.4830  142.4021  154.4188 H   0  0  0  0  0  0  0  0  0  0  0  0
  148.4571  141.0008  154.8488 H   0  0  0  0  0  0  0  0  0  0  0  0
  146.7679  141.0954  155.3489 H   0  0  0  0  0  0  0  0  0  0  0  0
  146.0481  140.9778  152.9421 H   0  0  0  0  0  0  0  0  0  0  0  0
  147.7144  140.9888  152.4390 H   0  0  0  0  0  0  0  0  0  0  0  0
  146.5951  138.7645  154.1778 H   0  0  0  0  0  0  0  0  0  0  0  0
  148.5418  137.6740  153.0227 H   0  0  0  0  0  0  0  0  0  0  0  0
  148.5082  139.1511  155.3170 H   0  0  0  0  0  0  0  0  0  0  0  0
  150.4403  137.6881  155.9805 H   0  0  0  0  0  0  0  0  0  0  0  0
  150.6373  137.1865  154.3048 H   0  0  0  0  0  0  0  0  0  0  0  0
  149.1873  136.7505  155.2064 H   0  0  0  0  0  0  0  0  0  0  0  0
  151.1190  139.6674  153.8417 H   0  0  0  0  0  0  0  0  0  0  0  0
  149.7900  140.8024  153.7936 H   0  0  0  0  0  0  0  0  0  0  0  0
  149.9304  142.6049  155.5322 H   0  0  0  0  0  0  0  0  0  0  0  0
  151.7054  142.9294  159.1567 H   0  0  0  0  0  0  0  0  0  0  0  0
  150.1070  143.4210  158.6266 H   0  0  0  0  0  0  0  0  0  0  0  0
  151.5304  144.0069  157.7842 H   0  0  0  0  0  0  0  0  0  0  0  0
  152.1181  140.2757  158.4118 H   0  0  0  0  0  0  0  0  0  0  0  0
  144.6507  137.5128  151.5068 H   0  0  0  0  0  0  0  0  0  0  0  0
  144.7765  137.9309  153.2014 H   0  0  0  0  0  0  0  0  0  0  0  0
  148.9901  139.1857  152.5878 H   0  0  0  0  0  0  0  0  0  0  0  0
  1  2  1  0  0  0  0
  1 17  1  0  0  0  0
  1 18  1  0  0  0  0
  1 19  1  0  0  0  0
  2  3  1  0  0  0  0
  2 20  1  0  0  0  0
  2 21  1  0  0  0  0
  3  4  1  0  0  0  0
  3 14  1  0  0  0  0
  3 22  1  0  0  0  0
  4  5  1  0  0  0  0
  4 23  1  0  0  0  0
  4 37  1  0  0  0  0
  5  6  1  0  0  0  0
  5  7  1  0  0  0  0
  5 24  1  0  0  0  0
  6 25  1  0  0  0  0
  6 26  1  0  0  0  0
  6 27  1  0  0  0  0
  7  8  1  0  0  0  0
  7 28  1  0  0  0  0
  7 29  1  0  0  0  0
  8 13  1  0  0  0  0
  8  9  1  0  0  0  0
  9 10  2  0  0  0  0
  9 30  1  0  0  0  0
 10 11  1  0  0  0  0
 10 12  1  0  0  0  0
 11 31  1  0  0  0  0
 11 32  1  0  0  0  0
 11 33  1  0  0  0  0
 12 13  2  0  0  0  0
 12 34  1  0  0  0  0
 14 15  1  0  0  0  0
 14 16  2  0  0  0  0
 15 35  1  0  0  0  0
 15 36  1  0  0  0  0
M  CHG  1   4   1
M  END
> <s_m_source_file>
AV-unprocessed.smi

> <i_m_source_file_index>
3162

> <i_lp_mmshare_version>
43012

> <i_f3d_flags>
0

> <s_epik_input>
W0NIM11bQ0gyXVtDQEBIXShDKD1PKVtOSDJdKVtOSF1bQ0BIXShbQ0gzXSlbQ0gyXW4xW2NIXWMoW0NIM10pW2NIXW4x

> <s_epik_cmdline>
J2VwaWtfcHl0aG9uJywgJy1waCcsICc3LjAnLCAnLXRuJywgJzgnLCAnLW1hJywgJzIwMCcsICctbWV0YWxfYmluZGluZycsICctaW1hZScsICc8aW5maWxlLm1hZT4nLCAnLW9tYWUnLCAnPG91dGZpbGUubWFlPic=

> <r_lp_tautomer_probability>
1

> <r_epik_Ionization_Penalty>
0.112112

> <r_epik_Ionization_Penalty_Charging>
0.112102

> <r_epik_Ionization_Penalty_Neutral>
9.73799e-06

> <r_epik_State_Penalty>
0.101811

> <r_epik_Charging_Adjusted_Penalty>
0.213914

> <i_epik_Tot_Q>
1

> <i_epik_Tot_abs_Q>
1

> <r_epik_Metal_State_Penalty>
0.101821

> <b_epik_Metal_Only>
0

> <s_lp_Force_Field>
OPLS_2005

> <r_lp_Energy>
6.55783

> <b_lp_Chiralities_Consistent>
1

> <s_lp_Variant>
AV-unprocessed.smi:3162-3

> <Gold.Version>
5.8.1

> <Gold.Id.Protein>
6NUR|6NUR_protein|mol2

> <Gold.PLP.Fitness>
46.5698

> <Gold.PLP.PLP>
-32.2678

> <Gold.PLP.part.hbond>
-5.0000

> <Gold.PLP.part.metal>
0.0000

> <Gold.PLP.part.buried>
-2.3560

> <Gold.PLP.part.nonpolar>
-27.2244

> <Gold.PLP.part.repulsive>
1.0126

> <Gold.PLP.ligand.clash>
0.0000

> <Gold.PLP.ligand.torsion>
1.3479

> <Gold.PLP.Chemscore.Hbond>
4.5840

> <Gold.PLP.Chemscore.CHOScore>
1.0000

> <Gold.PLP.Chemscore.Metal>
0.0000

> <Gold.Chemscore.Hbonds>
donor molecule, donor type, donor heavy atom, donor atom, acceptor molecule, acceptor atom, score
      L1  H     4    23       P1  7948  2.00
      L1  H     4    37       P1  7957  1.00
      L1  H    15    35       P1 10171  0.35
      P1  H  7954  7966       L1    16  1.00
      L1  C     9    30       P1  8028  1.00

> <Gold.PLP.Chemscore.Internal.Correction>
0.2458

> <Gold.Rescore>
     Score         DG    S(hbond)    S(metal)    S(lipo)     H(rot)  DE(clash)    DE(int)     intcor
     16.60     -18.88       3.70        0.00      63.78       2.51       0.47       1.81       ----

> <Gold.Chemscore.Fitness>
16.5987

> <Gold.Chemscore.DG>
-18.8803

> <Gold.Chemscore.ZeroCoef>
-5.4800

> <Gold.Chemscore.Hbond>
3.6987

> <Gold.Chemscore.Metal>
0.0000

> <Gold.Chemscore.Lipo>
63.7815

> <Gold.Chemscore.Internal_Hbond>
0.0000

> <Gold.Chemscore.DEClash>
0.4729

> <Gold.Chemscore.DEInternal>
1.8087

> <Gold.Chemscore.Rot>
2.5062

> <Gold.Chemscore.Internal.Correction>
   9.000000E+99

> <Gold.Chemscore.Hbonds>
donor molecule, donor type, donor heavy atom, donor atom, acceptor molecule, acceptor atom, score
      L1  H     4    23       P1  7948  0.97
      L1  H     4    37       P1  7957  1.00
      L1  H    15    35       P1 10171  0.34
      P1  H  7954  7966       L1    16  0.95

> <Gold.Chemscore.Hbond.Weighted>
-12.3538

> <Gold.Chemscore.Metal.Weighted>
-0.0000

> <Gold.Chemscore.Lipo.Weighted>
-7.4624

> <Gold.Chemscore.Internal_Hbond.Weighted>
0.0000

> <Gold.Chemscore.DEClash.Weighted>
0.4729

> <Gold.Chemscore.DEInternal.Weighted>
1.8087

> <Gold.Chemscore.Rot.Weighted>
6.4159

> <Gold.Chemscore.Internal.Correction.Weighted>
   9.000000E+99

> <Gold.Protein.RotatedTorsions>
[ 6907 6896 6895 6894 ] final   59.50 input  -60.11 | X-H torsion
[ 7974 7965 7964 7962 ] final   28.84 input  175.53 | X-H torsion
[ 8008 7997 7996 7995 ] final   -8.57 input   59.86 | X-H torsion
[ 10167 10162 10161 10158 ] final  -82.58 input  -65.29 | X-H torsion
[ 10718 10713 10712 10709 ] final -178.96 input   66.30 | X-H torsion
[ 10763 10752 10751 10750 ] final -152.94 input  -60.55 | X-H torsion
[ 11005 11000 10999 10996 ] final -131.70 input  -57.11 | X-H torsion

> <Gold.Protein.ActiveResidues>
 VAL166  LYS551  ARG553  GLY616  TRP617  ASP618  TYR619  PRO620  LYS621  CYS622 
 ASP623  PHE694  ASN695  SER759  ASP760  ASP761  ALA762  ILE779  LEU786  VAL792 
 PHE793  MET794  SER795  GLU796  ALA797  LYS798  CYS799  TRP800  GLU811  SER814 

> <Gold.Protein.RotatedAtoms>
  152.3920  134.6426  160.0103 H   0  0  0  0  0  0  0  0  0  0  0  0  # atno 6907 bound_to 6896
  151.6657  133.3310  159.3192 H   0  0  0  0  0  0  0  0  0  0  0  0  # atno 6908 bound_to 6896
  150.7834  134.6842  159.6505 H   0  0  0  0  0  0  0  0  0  0  0  0  # atno 6909 bound_to 6896
  146.1706  139.7002  142.8970 H   0  0  0  0  0  0  0  0  0  0  0  0  # atno 7974 bound_to 7965
  154.5729  140.2377  155.8166 H   0  0  0  0  0  0  0  0  0  0  0  0  # atno 8008 bound_to 7997
  156.2120  140.3023  155.9712 H   0  0  0  0  0  0  0  0  0  0  0  0  # atno 8009 bound_to 7997
  155.2680  140.0417  157.2994 H   0  0  0  0  0  0  0  0  0  0  0  0  # atno 8010 bound_to 7997
  140.4306  143.2550  151.8764 H   0  0  0  0  0  0  0  0  0  0  0  0  # atno 10167 bound_to 10162
  156.8521  130.9722  151.3091 H   0  0  0  0  0  0  0  0  0  0  0  0  # atno 10718 bound_to 10713
  154.7961  135.3224  154.7664 H   0  0  0  0  0  0  0  0  0  0  0  0  # atno 10763 bound_to 10752
  153.8342  135.6876  153.4815 H   0  0  0  0  0  0  0  0  0  0  0  0  # atno 10764 bound_to 10752
  153.1653  135.4644  154.9770 H   0  0  0  0  0  0  0  0  0  0  0  0  # atno 10765 bound_to 10752
  140.9235  134.1413  157.4294 H   0  0  0  0  0  0  0  0  0  0  0  0  # atno 11005 bound_to 11000
  145.4350  141.0418  143.2889 LP  0  0  0  0  0  0  0  0  0  0  0  0  # atno 17320 bound_to 7965
  144.8157  139.5881  143.7009 LP  0  0  0  0  0  0  0  0  0  0  0  0  # atno 17321 bound_to 7965
  139.4785  144.5338  151.8627 LP  0  0  0  0  0  0  0  0  0  0  0  0  # atno 17342 bound_to 10162
  140.4431  144.1959  150.5892 LP  0  0  0  0  0  0  0  0  0  0  0  0  # atno 17343 bound_to 10162
  157.6298  130.8720  149.9253 LP  0  0  0  0  0  0  0  0  0  0  0  0  # atno 17370 bound_to 10713
  156.0823  130.3672  150.0557 LP  0  0  0  0  0  0  0  0  0  0  0  0  # atno 17371 bound_to 10713
  139.8780  134.9980  156.5876 LP  0  0  0  0  0  0  0  0  0  0  0  0  # atno 17394 bound_to 11000
  140.7957  133.8546  155.8683 LP  0  0  0  0  0  0  0  0  0  0  0  0  # atno 17395 bound_to 11000

$$$$
