AV-unprocessed.smi:1165|AV-procd|sdf|4930|dock10
  -GOLD-   22720 3513D 1   1.00000     0.00000
 Structure written by MMmdl.
 41 42  0  0  0  0  0  0  0  0  1 V2000
  152.7309  142.5741  161.9074 C   0  0  0  0  0  0  0  0  0  0  0  0
  153.3911  142.8478  160.5436 C   0  0  1  0  0  0  0  0  0  0  0  0
  153.6407  141.5711  159.7185 C   0  0  0  0  0  0  0  0  0  0  0  0
  152.3943  141.0661  159.1182 N   0  0  0  0  0  0  0  0  0  0  0  0
  152.4078  139.4694  158.4454 S   0  0  0  0  0  0  0  0  0  0  0  0
  153.7999  138.9984  158.3795 O   0  0  0  0  0  0  0  0  0  0  0  0
  151.3644  138.6787  159.1152 O   0  0  0  0  0  0  0  0  0  0  0  0
  151.8823  139.8249  156.8405 N   0  0  0  0  0  0  0  0  0  0  0  0
  150.7827  139.0611  156.2530 C   0  0  0  0  0  0  0  0  0  0  0  0
  150.6866  139.3408  154.7486 C   0  0  0  0  0  0  0  0  0  0  0  0
  149.3529  139.9527  154.3694 C   0  0  0  0  0  0  0  0  0  0  0  0
  149.0777  141.3115  154.6266 C   0  0  0  0  0  0  0  0  0  0  0  0
  147.8209  141.8296  154.2588 C   0  0  0  0  0  0  0  0  0  0  0  0
  146.8908  140.9641  153.6489 C   0  0  0  0  0  0  0  0  0  0  0  0
  147.1433  139.6610  153.3992 N   0  0  0  0  0  0  0  0  0  0  0  0
  148.3507  139.1723  153.7546 C   0  0  0  0  0  0  0  0  0  0  0  0
  151.6535  142.0990  158.3816 C   0  0  0  0  0  0  0  0  0  0  0  0
  151.4255  143.3405  159.2616 C   0  0  2  0  0  0  0  0  0  0  0  0
  150.7785  144.4873  158.4769 C   0  0  0  0  0  0  0  0  0  0  0  0
  152.6679  143.8073  159.7762 O   0  0  0  0  0  0  0  0  0  0  0  0
  153.3677  141.9398  162.5245 H   0  0  0  0  0  0  0  0  0  0  0  0
  151.7714  142.0673  161.8104 H   0  0  0  0  0  0  0  0  0  0  0  0
  152.5654  143.5039  162.4522 H   0  0  0  0  0  0  0  0  0  0  0  0
  154.3611  143.2999  160.7517 H   0  0  0  0  0  0  0  0  0  0  0  0
  154.3477  141.7846  158.9156 H   0  0  0  0  0  0  0  0  0  0  0  0
  154.1008  140.8062  160.3434 H   0  0  0  0  0  0  0  0  0  0  0  0
  152.6551  140.0025  156.1994 H   0  0  0  0  0  0  0  0  0  0  0  0
  150.9513  137.9982  156.4255 H   0  0  0  0  0  0  0  0  0  0  0  0
  149.8516  139.3277  156.7540 H   0  0  0  0  0  0  0  0  0  0  0  0
  151.4904  140.0103  154.4394 H   0  0  0  0  0  0  0  0  0  0  0  0
  150.8205  138.4160  154.1854 H   0  0  0  0  0  0  0  0  0  0  0  0
  149.8136  141.9463  155.0981 H   0  0  0  0  0  0  0  0  0  0  0  0
  147.5748  142.8655  154.4401 H   0  0  0  0  0  0  0  0  0  0  0  0
  145.9178  141.3281  153.3540 H   0  0  0  0  0  0  0  0  0  0  0  0
  148.5213  138.1264  153.5445 H   0  0  0  0  0  0  0  0  0  0  0  0
  152.2153  142.3613  157.4841 H   0  0  0  0  0  0  0  0  0  0  0  0
  150.6935  141.7005  158.0532 H   0  0  0  0  0  0  0  0  0  0  0  0
  150.7594  143.0835  160.0852 H   0  0  0  0  0  0  0  0  0  0  0  0
  149.8108  144.1893  158.0726 H   0  0  0  0  0  0  0  0  0  0  0  0
  151.4078  144.8012  157.6437 H   0  0  0  0  0  0  0  0  0  0  0  0
  150.6170  145.3548  159.1171 H   0  0  0  0  0  0  0  0  0  0  0  0
  1  2  1  0  0  0  0
  1 21  1  0  0  0  0
  1 22  1  0  0  0  0
  1 23  1  0  0  0  0
  2 20  1  0  0  0  0
  2  3  1  0  0  0  0
  2 24  1  0  0  0  0
  3  4  1  0  0  0  0
  3 25  1  0  0  0  0
  3 26  1  0  0  0  0
  4  5  1  0  0  0  0
  4 17  1  0  0  0  0
  5  6  2  0  0  0  0
  5  7  2  0  0  0  0
  5  8  1  0  0  0  0
  8  9  1  0  0  0  0
  8 27  1  0  0  0  0
  9 10  1  0  0  0  0
  9 28  1  0  0  0  0
  9 29  1  0  0  0  0
 10 11  1  0  0  0  0
 10 30  1  0  0  0  0
 10 31  1  0  0  0  0
 11 16  1  0  0  0  0
 11 12  2  0  0  0  0
 12 13  1  0  0  0  0
 12 32  1  0  0  0  0
 13 14  2  0  0  0  0
 13 33  1  0  0  0  0
 14 15  1  0  0  0  0
 14 34  1  0  0  0  0
 15 16  2  0  0  0  0
 16 35  1  0  0  0  0
 17 18  1  0  0  0  0
 17 36  1  0  0  0  0
 17 37  1  0  0  0  0
 18 19  1  0  0  0  0
 18 20  1  0  0  0  0
 18 38  1  0  0  0  0
 19 39  1  0  0  0  0
 19 40  1  0  0  0  0
 19 41  1  0  0  0  0
M  END
> <s_m_source_file>
AV-unprocessed.smi

> <i_m_source_file_index>
1165

> <i_lp_mmshare_version>
43012

> <i_f3d_flags>
0

> <s_epik_input>
W0NIM11bQ0BASF0xW0NIMl1OKFtDSDJdW0NASF0oTzEpW0NIM10pUyg9TykoPU8pW05IXVtDSDJdW0NIMl1jMltjSF1bY0hdW2NIXW5bY0hdMg==

> <s_epik_cmdline>
J2VwaWtfcHl0aG9uJywgJy1waCcsICc3LjAnLCAnLXRuJywgJzgnLCAnLW1hJywgJzIwMCcsICctbWV0YWxfYmluZGluZycsICctaW1hZScsICc8aW5maWxlLm1hZT4nLCAnLW9tYWUnLCAnPG91dGZpbGUubWFlPic=

> <r_epik_Ionization_Penalty>
0.0861056

> <r_epik_Ionization_Penalty_Charging>
0

> <r_epik_Ionization_Penalty_Neutral>
0.0861056

> <r_epik_State_Penalty>
0.0574425

> <r_epik_Charging_Adjusted_Penalty>
0.0574425

> <i_epik_Tot_Q>
0

> <i_epik_Tot_abs_Q>
0

> <r_epik_Metal_State_Penalty>
0.317425

> <b_epik_Metal_Only>
0

> <s_lp_Force_Field>
OPLS_2005

> <r_lp_Energy>
8.11282

> <b_lp_Chiralities_Consistent>
1

> <s_lp_Variant>
AV-unprocessed.smi:1165-3

> <Gold.Version>
5.8.1

> <Gold.Id.Protein>
6NUR|6NUR_protein|mol2

> <Gold.PLP.Fitness>
45.9445

> <Gold.PLP.PLP>
-38.5527

> <Gold.PLP.part.hbond>
-1.0000

> <Gold.PLP.part.metal>
0.0000

> <Gold.PLP.part.buried>
-4.7957

> <Gold.PLP.part.nonpolar>
-33.3469

> <Gold.PLP.part.repulsive>
0.2046

> <Gold.PLP.ligand.clash>
0.0000

> <Gold.PLP.ligand.torsion>
1.1677

> <Gold.PLP.Chemscore.Hbond>
1.0000

> <Gold.PLP.Chemscore.CHOScore>
1.9878

> <Gold.PLP.Chemscore.Metal>
0.0000

> <Gold.Chemscore.Hbonds>
donor molecule, donor type, donor heavy atom, donor atom, acceptor molecule, acceptor atom, score
      P1  H  7997  8009       L1     6  1.00
      L1  C    14    34       P1 10175  0.97
      L1  C    16    35       P1  7948  0.94

> <Gold.PLP.Chemscore.Internal.Correction>
0.7637

> <Gold.Rescore>
     Score         DG    S(hbond)    S(metal)    S(lipo)     H(rot)  DE(clash)    DE(int)     intcor
     15.87     -17.00       0.95        0.00     108.55       1.71       0.04       1.09       ----

> <Gold.Chemscore.Fitness>
15.8694

> <Gold.Chemscore.DG>
-16.9969

> <Gold.Chemscore.ZeroCoef>
-5.4800

> <Gold.Chemscore.Hbond>
0.9532

> <Gold.Chemscore.Metal>
0.0000

> <Gold.Chemscore.Lipo>
108.5530

> <Gold.Chemscore.Internal_Hbond>
0.0000

> <Gold.Chemscore.DEClash>
0.0385

> <Gold.Chemscore.DEInternal>
1.0890

> <Gold.Chemscore.Rot>
1.7060

> <Gold.Chemscore.Internal.Correction>
   9.000000E+99

> <Gold.Chemscore.Hbonds>
donor molecule, donor type, donor heavy atom, donor atom, acceptor molecule, acceptor atom, score
      P1  H  7997  8009       L1     6  0.44

> <Gold.Chemscore.Hbond.Weighted>
-3.1836

> <Gold.Chemscore.Metal.Weighted>
-0.0000

> <Gold.Chemscore.Lipo.Weighted>
-12.7007

> <Gold.Chemscore.Internal_Hbond.Weighted>
0.0000

> <Gold.Chemscore.DEClash.Weighted>
0.0385

> <Gold.Chemscore.DEInternal.Weighted>
1.0890

> <Gold.Chemscore.Rot.Weighted>
4.3674

> <Gold.Chemscore.Internal.Correction.Weighted>
   9.000000E+99

> <Gold.Protein.RotatedTorsions>
[ 6907 6896 6895 6894 ] final   60.28 input  -60.11 | X-H torsion
[ 7974 7965 7964 7962 ] final  -70.35 input  175.53 | X-H torsion
[ 8008 7997 7996 7995 ] final  160.44 input   59.86 | X-H torsion
[ 10167 10162 10161 10158 ] final   41.68 input  -65.29 | X-H torsion
[ 10718 10713 10712 10709 ] final   13.82 input   66.30 | X-H torsion
[ 10763 10752 10751 10750 ] final  175.32 input  -60.55 | X-H torsion
[ 11005 11000 10999 10996 ] final  -88.09 input  -57.11 | X-H torsion

> <Gold.Protein.ActiveResidues>
 VAL166  LYS551  ARG553  GLY616  TRP617  ASP618  TYR619  PRO620  LYS621  CYS622 
 ASP623  PHE694  ASN695  SER759  ASP760  ASP761  ALA762  ILE779  LEU786  VAL792 
 PHE793  MET794  SER795  GLU796  ALA797  LYS798  CYS799  TRP800  GLU811  SER814 

> <Gold.Protein.RotatedAtoms>
  152.3989  134.6320  160.0077 H   0  0  0  0  0  0  0  0  0  0  0  0  # atno 6907 bound_to 6896
  151.6531  133.3314  159.3164 H   0  0  0  0  0  0  0  0  0  0  0  0  # atno 6908 bound_to 6896
  150.7892  134.6945  159.6560 H   0  0  0  0  0  0  0  0  0  0  0  0  # atno 6909 bound_to 6896
  145.6921  140.9149  143.0776 H   0  0  0  0  0  0  0  0  0  0  0  0  # atno 7974 bound_to 7965
  156.2172  140.1804  156.7562 H   0  0  0  0  0  0  0  0  0  0  0  0  # atno 8008 bound_to 7997
  154.5809  140.0666  156.9132 H   0  0  0  0  0  0  0  0  0  0  0  0  # atno 8009 bound_to 7997
  155.2504  140.3328  155.4285 H   0  0  0  0  0  0  0  0  0  0  0  0  # atno 8010 bound_to 7997
  140.3619  144.2217  150.6137 H   0  0  0  0  0  0  0  0  0  0  0  0  # atno 10167 bound_to 10162
  157.0302  130.6189  149.5734 H   0  0  0  0  0  0  0  0  0  0  0  0  # atno 10718 bound_to 10713
  154.4660  135.2769  155.1677 H   0  0  0  0  0  0  0  0  0  0  0  0  # atno 10763 bound_to 10752
  154.3446  135.6163  153.5616 H   0  0  0  0  0  0  0  0  0  0  0  0  # atno 10764 bound_to 10752
  152.9859  135.5796  154.5032 H   0  0  0  0  0  0  0  0  0  0  0  0  # atno 10765 bound_to 10752
  141.1607  133.7549  156.9401 H   0  0  0  0  0  0  0  0  0  0  0  0  # atno 11005 bound_to 11000
  144.6993  139.8835  143.7448 LP  0  0  0  0  0  0  0  0  0  0  0  0  # atno 17320 bound_to 7965
  146.0873  139.3862  143.0427 LP  0  0  0  0  0  0  0  0  0  0  0  0  # atno 17321 bound_to 7965
  140.5119  143.2288  151.8523 LP  0  0  0  0  0  0  0  0  0  0  0  0  # atno 17342 bound_to 10162
  139.4813  144.4940  151.9148 LP  0  0  0  0  0  0  0  0  0  0  0  0  # atno 17343 bound_to 10162
  156.0072  130.5160  150.7870 LP  0  0  0  0  0  0  0  0  0  0  0  0  # atno 17370 bound_to 10713
  157.5184  131.0930  151.0110 LP  0  0  0  0  0  0  0  0  0  0  0  0  # atno 17371 bound_to 10713
  140.1327  134.9345  157.2359 LP  0  0  0  0  0  0  0  0  0  0  0  0  # atno 17394 bound_to 11000
  140.2933  134.3216  155.7309 LP  0  0  0  0  0  0  0  0  0  0  0  0  # atno 17395 bound_to 11000

$$$$
