AV-unprocessed.smi:1352|AV-procd|sdf|5528|dock1
  -GOLD-   22720 5113D 1   1.00000     0.00000
 Structure written by MMmdl.
 47 48  0  0  0  0  0  0  0  0  2 V2000
  147.5290  141.0567  153.9216 C   0  0  0  0  0  0  0  0  0  0  0  0
  148.5503  140.4873  154.9165 C   0  0  2  0  0  0  0  0  0  0  0  0
  149.8179  141.3586  154.9774 C   0  0  0  0  0  0  0  0  0  0  0  0
  150.8742  140.7611  155.9249 C   0  0  1  0  0  0  0  0  0  0  0  0
  150.5144  140.9364  157.4110 C   0  0  0  0  0  0  0  0  0  0  0  0
  151.1551  139.2893  155.5620 C   0  0  0  0  0  0  0  0  0  0  0  0
  149.9086  138.4798  155.5364 N   0  3  2  0  0  0  0  0  0  0  0  0
  150.1826  137.0348  155.3325 C   0  0  0  0  0  0  0  0  0  0  0  0
  148.9868  136.1484  155.7313 C   0  0  0  0  0  0  0  0  0  0  0  0
  148.3970  136.5790  156.9933 N   0  0  0  0  0  0  0  0  0  0  0  0
  148.9435  136.3843  158.2031 C   0  0  0  0  0  0  0  0  0  0  0  0
  150.0082  135.7877  158.3706 O   0  0  0  0  0  0  0  0  0  0  0  0
  148.1487  136.9311  159.3976 C   0  0  0  0  0  0  0  0  0  0  0  0
  147.8080  135.9009  160.3932 N   0  0  0  0  0  0  0  0  0  0  0  0
  147.9228  134.5553  159.9905 C   0  0  0  0  0  0  0  0  0  0  0  0
  147.6376  133.5393  160.8203 C   0  0  0  0  0  0  0  0  0  0  0  0
  147.2014  133.8540  162.1599 C   0  0  0  0  0  0  0  0  0  0  0  0
  147.0914  135.1376  162.5566 C   0  0  0  0  0  0  0  0  0  0  0  0
  147.4056  136.2511  161.6540 C   0  0  0  0  0  0  0  0  0  0  0  0
  147.3136  137.4268  162.0089 O   0  0  0  0  0  0  0  0  0  0  0  0
  148.9189  139.0312  154.5731 C   0  0  0  0  0  0  0  0  0  0  0  0
  147.9308  141.0789  152.9081 H   0  0  0  0  0  0  0  0  0  0  0  0
  147.2459  142.0752  154.1889 H   0  0  0  0  0  0  0  0  0  0  0  0
  146.6187  140.4567  153.9056 H   0  0  0  0  0  0  0  0  0  0  0  0
  148.0791  140.4941  155.8999 H   0  0  0  0  0  0  0  0  0  0  0  0
  150.2454  141.4409  153.9768 H   0  0  0  0  0  0  0  0  0  0  0  0
  149.5674  142.3748  155.2847 H   0  0  0  0  0  0  0  0  0  0  0  0
  151.7993  141.3174  155.7682 H   0  0  0  0  0  0  0  0  0  0  0  0
  149.6159  140.3829  157.6830 H   0  0  0  0  0  0  0  0  0  0  0  0
  150.3428  141.9858  157.6515 H   0  0  0  0  0  0  0  0  0  0  0  0
  151.3229  140.5834  158.0516 H   0  0  0  0  0  0  0  0  0  0  0  0
  151.6349  139.2328  154.5835 H   0  0  0  0  0  0  0  0  0  0  0  0
  151.8610  138.8682  156.2795 H   0  0  0  0  0  0  0  0  0  0  0  0
  150.4723  136.8546  154.2961 H   0  0  0  0  0  0  0  0  0  0  0  0
  151.0390  136.7479  155.9442 H   0  0  0  0  0  0  0  0  0  0  0  0
  148.2288  136.1525  154.9459 H   0  0  0  0  0  0  0  0  0  0  0  0
  149.2950  135.1115  155.8583 H   0  0  0  0  0  0  0  0  0  0  0  0
  147.5190  137.0759  156.9436 H   0  0  0  0  0  0  0  0  0  0  0  0
  148.7144  137.7348  159.8728 H   0  0  0  0  0  0  0  0  0  0  0  0
  147.2451  137.4067  159.0140 H   0  0  0  0  0  0  0  0  0  0  0  0
  148.2611  134.4046  158.9757 H   0  0  0  0  0  0  0  0  0  0  0  0
  147.7350  132.5139  160.4956 H   0  0  0  0  0  0  0  0  0  0  0  0
  146.9629  133.0564  162.8481 H   0  0  0  0  0  0  0  0  0  0  0  0
  146.7645  135.3536  163.5631 H   0  0  0  0  0  0  0  0  0  0  0  0
  148.0116  138.4284  154.5817 H   0  0  0  0  0  0  0  0  0  0  0  0
  149.3250  138.9721  153.5617 H   0  0  0  0  0  0  0  0  0  0  0  0
  149.5033  138.5644  156.4579 H   0  0  0  0  0  0  0  0  0  0  0  0
  1  2  1  0  0  0  0
  1 22  1  0  0  0  0
  1 23  1  0  0  0  0
  1 24  1  0  0  0  0
  2 21  1  0  0  0  0
  2  3  1  0  0  0  0
  2 25  1  0  0  0  0
  3  4  1  0  0  0  0
  3 26  1  0  0  0  0
  3 27  1  0  0  0  0
  4  5  1  0  0  0  0
  4  6  1  0  0  0  0
  4 28  1  0  0  0  0
  5 29  1  0  0  0  0
  5 30  1  0  0  0  0
  5 31  1  0  0  0  0
  6  7  1  0  0  0  0
  6 32  1  0  0  0  0
  6 33  1  0  0  0  0
  7  8  1  0  0  0  0
  7 21  1  0  0  0  0
  7 47  1  0  0  0  0
  8  9  1  0  0  0  0
  8 34  1  0  0  0  0
  8 35  1  0  0  0  0
  9 10  1  0  0  0  0
  9 36  1  0  0  0  0
  9 37  1  0  0  0  0
 10 11  1  0  0  0  0
 10 38  1  0  0  0  0
 11 12  2  0  0  0  0
 11 13  1  0  0  0  0
 13 14  1  0  0  0  0
 13 39  1  0  0  0  0
 13 40  1  0  0  0  0
 14 19  1  0  0  0  0
 14 15  1  0  0  0  0
 15 16  2  0  0  0  0
 15 41  1  0  0  0  0
 16 17  1  0  0  0  0
 16 42  1  0  0  0  0
 17 18  2  0  0  0  0
 17 43  1  0  0  0  0
 18 19  1  0  0  0  0
 18 44  1  0  0  0  0
 19 20  2  0  0  0  0
 21 45  1  0  0  0  0
 21 46  1  0  0  0  0
M  CHG  1   7   1
M  END
> <s_m_source_file>
AV-unprocessed.smi

> <i_m_source_file_index>
1352

> <i_lp_mmshare_version>
43012

> <i_f3d_flags>
0

> <s_epik_input>
W0NIM11bQ0BASF0xW0NIMl1bQ0BASF0oW0NIM10pW0NIMl1OKFtDSDJdMSlbQ0gyXVtDSDJdW05IXUMoPU8pW0NIMl1uMltjSF1bY0hdW2NIXVtjSF1jMj1P

> <s_epik_cmdline>
J2VwaWtfcHl0aG9uJywgJy1waCcsICc3LjAnLCAnLXRuJywgJzgnLCAnLW1hJywgJzIwMCcsICctbWV0YWxfYmluZGluZycsICctaW1hZScsICc8aW5maWxlLm1hZT4nLCAnLW9tYWUnLCAnPG91dGZpbGUubWFlPic=

> <r_lp_tautomer_probability>
1

> <r_epik_Ionization_Penalty>
0.00156146

> <r_epik_Ionization_Penalty_Charging>
0.00156138

> <r_epik_Ionization_Penalty_Neutral>
8.12891e-08

> <r_epik_State_Penalty>
0.00104868

> <r_epik_Charging_Adjusted_Penalty>
0.00261006

> <i_epik_Tot_Q>
1

> <i_epik_Tot_abs_Q>
1

> <r_epik_Metal_State_Penalty>
-0

> <b_epik_Metal_Only>
0

> <s_lp_Force_Field>
OPLS_2005

> <r_lp_Energy>
27.9536

> <b_lp_Chiralities_Consistent>
1

> <s_lp_Variant>
AV-unprocessed.smi:1352-1

> <Gold.Version>
5.8.1

> <Gold.Id.Protein>
6NUR|6NUR_protein|mol2

> <Gold.PLP.Fitness>
45.1705

> <Gold.PLP.PLP>
-38.6848

> <Gold.PLP.part.hbond>
-3.0000

> <Gold.PLP.part.metal>
0.0000

> <Gold.PLP.part.buried>
-3.8965

> <Gold.PLP.part.nonpolar>
-32.0009

> <Gold.PLP.part.repulsive>
0.0215

> <Gold.PLP.ligand.clash>
0.0000

> <Gold.PLP.ligand.torsion>
0.4707

> <Gold.PLP.Chemscore.Hbond>
2.4480

> <Gold.PLP.Chemscore.CHOScore>
0.0000

> <Gold.PLP.Chemscore.Metal>
0.0000

> <Gold.Chemscore.Hbonds>
donor molecule, donor type, donor heavy atom, donor atom, acceptor molecule, acceptor atom, score
      P1  H  6896  6908       L1    12  1.00
      P1  H  6931  6943       L1    20  0.75
      P1  H  6934  6947       L1    20  0.67

> <Gold.PLP.Chemscore.Internal.Correction>
0.0831

> <Gold.Rescore>
     Score         DG    S(hbond)    S(metal)    S(lipo)     H(rot)  DE(clash)    DE(int)     intcor
     16.55     -18.34       2.37        0.00      82.23       1.83       0.12       1.67       ----

> <Gold.Chemscore.Fitness>
16.5464

> <Gold.Chemscore.DG>
-18.3405

> <Gold.Chemscore.ZeroCoef>
-5.4800

> <Gold.Chemscore.Hbond>
2.3749

> <Gold.Chemscore.Metal>
0.0000

> <Gold.Chemscore.Lipo>
82.2255

> <Gold.Chemscore.Internal_Hbond>
0.0000

> <Gold.Chemscore.DEClash>
0.1214

> <Gold.Chemscore.DEInternal>
1.6727

> <Gold.Chemscore.Rot>
1.8329

> <Gold.Chemscore.Internal.Correction>
   9.000000E+99

> <Gold.Chemscore.Hbonds>
donor molecule, donor type, donor heavy atom, donor atom, acceptor molecule, acceptor atom, score
      P1  H  6896  6908       L1    12  0.95
      P1  H  6931  6943       L1    20  0.56
      P1  H  6934  6947       L1    20  0.68

> <Gold.Chemscore.Hbond.Weighted>
-7.9323

> <Gold.Chemscore.Metal.Weighted>
-0.0000

> <Gold.Chemscore.Lipo.Weighted>
-9.6204

> <Gold.Chemscore.Internal_Hbond.Weighted>
0.0000

> <Gold.Chemscore.DEClash.Weighted>
0.1214

> <Gold.Chemscore.DEInternal.Weighted>
1.6727

> <Gold.Chemscore.Rot.Weighted>
4.6922

> <Gold.Chemscore.Internal.Correction.Weighted>
   9.000000E+99

> <Gold.Protein.RotatedTorsions>
[ 6907 6896 6895 6894 ] final  174.96 input  -60.11 | X-H torsion
[ 7974 7965 7964 7962 ] final   65.29 input  175.53 | X-H torsion
[ 8008 7997 7996 7995 ] final  177.77 input   59.86 | X-H torsion
[ 10167 10162 10161 10158 ] final   71.61 input  -65.29 | X-H torsion
[ 10718 10713 10712 10709 ] final -159.30 input   66.30 | X-H torsion
[ 10763 10752 10751 10750 ] final  112.80 input  -60.55 | X-H torsion
[ 11005 11000 10999 10996 ] final   58.85 input  -57.11 | X-H torsion

> <Gold.Protein.ActiveResidues>
 VAL166  LYS551  ARG553  GLY616  TRP617  ASP618  TYR619  PRO620  LYS621  CYS622 
 ASP623  PHE694  ASN695  SER759  ASP760  ASP761  ALA762  ILE779  LEU786  VAL792 
 PHE793  MET794  SER795  GLU796  ALA797  LYS798  CYS799  TRP800  GLU811  SER814 

> <Gold.Protein.RotatedAtoms>
  151.7439  133.3323  159.3372 H   0  0  0  0  0  0  0  0  0  0  0  0  # atno 6907 bound_to 6896
  150.7562  134.6253  159.6167 H   0  0  0  0  0  0  0  0  0  0  0  0  # atno 6908 bound_to 6896
  152.3512  134.7004  160.0287 H   0  0  0  0  0  0  0  0  0  0  0  0  # atno 6909 bound_to 6896
  145.8402  139.3191  143.0936 H   0  0  0  0  0  0  0  0  0  0  0  0  # atno 7974 bound_to 7965
  156.0620  140.1350  156.9930 H   0  0  0  0  0  0  0  0  0  0  0  0  # atno 8008 bound_to 7997
  154.4487  140.0989  156.6602 H   0  0  0  0  0  0  0  0  0  0  0  0  # atno 8009 bound_to 7997
  155.5362  140.3460  155.4439 H   0  0  0  0  0  0  0  0  0  0  0  0  # atno 8010 bound_to 7997
  140.0443  144.5364  150.7411 H   0  0  0  0  0  0  0  0  0  0  0  0  # atno 10167 bound_to 10162
  156.5662  130.8668  151.2824 H   0  0  0  0  0  0  0  0  0  0  0  0  # atno 10718 bound_to 10713
  153.4831  135.3675  155.2452 H   0  0  0  0  0  0  0  0  0  0  0  0  # atno 10763 bound_to 10752
  154.8754  135.3959  154.3677 H   0  0  0  0  0  0  0  0  0  0  0  0  # atno 10764 bound_to 10752
  153.4284  135.7082  153.6312 H   0  0  0  0  0  0  0  0  0  0  0  0  # atno 10765 bound_to 10752
  140.0347  134.5960  155.9460 H   0  0  0  0  0  0  0  0  0  0  0  0  # atno 11005 bound_to 11000
  145.9473  140.8935  143.0277 LP  0  0  0  0  0  0  0  0  0  0  0  0  # atno 17320 bound_to 7965
  144.6734  140.1631  143.7420 LP  0  0  0  0  0  0  0  0  0  0  0  0  # atno 17321 bound_to 7965
  140.7246  143.2623  151.4164 LP  0  0  0  0  0  0  0  0  0  0  0  0  # atno 17342 bound_to 10162
  139.5994  144.1328  152.2181 LP  0  0  0  0  0  0  0  0  0  0  0  0  # atno 17343 bound_to 10162
  157.7358  130.9768  150.2101 LP  0  0  0  0  0  0  0  0  0  0  0  0  # atno 17370 bound_to 10713
  156.2755  130.3727  149.7988 LP  0  0  0  0  0  0  0  0  0  0  0  0  # atno 17371 bound_to 10713
  141.1851  133.6554  156.5182 LP  0  0  0  0  0  0  0  0  0  0  0  0  # atno 17394 bound_to 11000
  140.4167  134.7224  157.4867 LP  0  0  0  0  0  0  0  0  0  0  0  0  # atno 17395 bound_to 11000

$$$$
