AV-unprocessed.smi:2538|AV-procd|sdf|9981|dock2
  -GOLD-   2272014 23D 1   1.00000     0.00000
 Structure written by MMmdl.
 48 49  0  0  0  0  0  0  0  0  1 V2000
  153.4805  142.2592  161.7019 C   0  0  0  0  0  0  0  0  0  0  0  0
  152.8144  142.1011  160.3464 C   0  0  0  0  0  0  0  0  0  0  0  0
  153.0915  140.9497  159.5753 C   0  0  0  0  0  0  0  0  0  0  0  0
  152.4936  140.7644  158.3095 C   0  0  0  0  0  0  0  0  0  0  0  0
  152.6198  139.7301  157.3979 N   0  0  0  0  0  0  0  0  0  0  0  0
  151.8166  140.1363  156.4189 C   0  0  0  0  0  0  0  0  0  0  0  0
  151.1834  141.3127  156.5898 N   0  0  0  0  0  0  0  0  0  0  0  0
  150.2622  141.9574  155.6715 C   0  0  0  0  0  0  0  0  0  0  0  0
  149.3479  140.9455  154.9542 C   0  0  2  0  0  0  0  0  0  0  0  0
  149.5760  141.0540  153.5625 O   0  0  0  0  0  0  0  0  0  0  0  0
  147.8544  141.2175  155.2358 C   0  0  0  0  0  0  0  0  0  0  0  0
  147.4042  140.6994  156.5420 N   0  0  0  0  0  0  0  0  0  0  0  0
  147.0933  139.2646  156.5932 C   0  0  0  0  0  0  0  0  0  0  0  0
  146.6433  141.7568  157.6917 S   0  0  0  0  0  0  0  0  0  0  0  0
  146.1797  140.9130  158.8043 O   0  0  0  0  0  0  0  0  0  0  0  0
  147.5736  142.8654  157.9575 O   0  0  0  0  0  0  0  0  0  0  0  0
  145.1571  142.4056  156.7813 C   0  0  0  0  0  0  0  0  0  0  0  0
  144.1930  141.2618  156.4356 C   0  0  0  0  0  0  0  0  0  0  0  0
  145.5833  143.1803  155.5260 C   0  0  0  0  0  0  0  0  0  0  0  0
  151.6042  141.7710  157.8328 C   0  0  0  0  0  0  0  0  0  0  0  0
  151.3204  142.9211  158.5902 C   0  0  0  0  0  0  0  0  0  0  0  0
  151.9249  143.0896  159.8535 C   0  0  0  0  0  0  0  0  0  0  0  0
  151.6101  144.3335  160.6652 C   0  0  0  0  0  0  0  0  0  0  0  0
  154.1796  141.4460  161.8993 H   0  0  0  0  0  0  0  0  0  0  0  0
  152.7334  142.2599  162.4960 H   0  0  0  0  0  0  0  0  0  0  0  0
  154.0374  143.1953  161.7490 H   0  0  0  0  0  0  0  0  0  0  0  0
  153.7677  140.1960  159.9508 H   0  0  0  0  0  0  0  0  0  0  0  0
  151.6776  139.5431  155.5270 H   0  0  0  0  0  0  0  0  0  0  0  0
  149.6629  142.6672  156.2432 H   0  0  0  0  0  0  0  0  0  0  0  0
  150.8338  142.5411  154.9482 H   0  0  0  0  0  0  0  0  0  0  0  0
  149.6297  139.9447  155.2787 H   0  0  0  0  0  0  0  0  0  0  0  0
  149.2985  140.2513  153.1485 H   0  0  0  0  0  0  0  0  0  0  0  0
  147.6774  142.2937  155.2378 H   0  0  0  0  0  0  0  0  0  0  0  0
  147.2203  140.8324  154.4366 H   0  0  0  0  0  0  0  0  0  0  0  0
  146.0791  139.0791  156.2400 H   0  0  0  0  0  0  0  0  0  0  0  0
  147.1711  138.8977  157.6165 H   0  0  0  0  0  0  0  0  0  0  0  0
  147.7881  138.6930  155.9776 H   0  0  0  0  0  0  0  0  0  0  0  0
  144.6370  143.0933  157.4442 H   0  0  0  0  0  0  0  0  0  0  0  0
  143.3130  141.6368  155.9129 H   0  0  0  0  0  0  0  0  0  0  0  0
  143.8452  140.7504  157.3330 H   0  0  0  0  0  0  0  0  0  0  0  0
  144.6725  140.5222  155.7939 H   0  0  0  0  0  0  0  0  0  0  0  0
  144.7188  143.6056  155.0158 H   0  0  0  0  0  0  0  0  0  0  0  0
  146.1030  142.5345  154.8174 H   0  0  0  0  0  0  0  0  0  0  0  0
  146.2508  144.0037  155.7816 H   0  0  0  0  0  0  0  0  0  0  0  0
  150.6416  143.6663  158.2019 H   0  0  0  0  0  0  0  0  0  0  0  0
  150.8664  144.9560  160.1671 H   0  0  0  0  0  0  0  0  0  0  0  0
  152.5094  144.9332  160.8069 H   0  0  0  0  0  0  0  0  0  0  0  0
  151.2161  144.0626  161.6449 H   0  0  0  0  0  0  0  0  0  0  0  0
  1  2  1  0  0  0  0
  1 24  1  0  0  0  0
  1 25  1  0  0  0  0
  1 26  1  0  0  0  0
  2 22  1  0  0  0  0
  2  3  2  0  0  0  0
  3  4  1  0  0  0  0
  3 27  1  0  0  0  0
  4 20  2  0  0  0  0
  4  5  1  0  0  0  0
  5  6  2  0  0  0  0
  6  7  1  0  0  0  0
  6 28  1  0  0  0  0
  7  8  1  0  0  0  0
  7 20  1  0  0  0  0
  8  9  1  0  0  0  0
  8 29  1  0  0  0  0
  8 30  1  0  0  0  0
  9 10  1  0  0  0  0
  9 11  1  0  0  0  0
  9 31  1  0  0  0  0
 10 32  1  0  0  0  0
 11 12  1  0  0  0  0
 11 33  1  0  0  0  0
 11 34  1  0  0  0  0
 12 13  1  0  0  0  0
 12 14  1  0  0  0  0
 13 35  1  0  0  0  0
 13 36  1  0  0  0  0
 13 37  1  0  0  0  0
 14 15  2  0  0  0  0
 14 16  2  0  0  0  0
 14 17  1  0  0  0  0
 17 18  1  0  0  0  0
 17 19  1  0  0  0  0
 17 38  1  0  0  0  0
 18 39  1  0  0  0  0
 18 40  1  0  0  0  0
 18 41  1  0  0  0  0
 19 42  1  0  0  0  0
 19 43  1  0  0  0  0
 19 44  1  0  0  0  0
 20 21  1  0  0  0  0
 21 22  2  0  0  0  0
 21 45  1  0  0  0  0
 22 23  1  0  0  0  0
 23 46  1  0  0  0  0
 23 47  1  0  0  0  0
 23 48  1  0  0  0  0
M  END
> <s_m_source_file>
AV-unprocessed.smi

> <i_m_source_file_index>
2538

> <i_lp_mmshare_version>
43012

> <i_f3d_flags>
0

> <s_epik_input>
W0NIM11jKFtjSF0xKWMoW0NIM10pW2NIXWMoYzEyKW4oW2NIXW4yKVtDSDJdW0NASF0oW09IXSlbQ0gyXU4oW0NIM10pUyg9TykoPU8pW0NIXShbQ0gzXSlbQ0gzXQ==

> <s_epik_cmdline>
J2VwaWtfcHl0aG9uJywgJy1waCcsICc3LjAnLCAnLXRuJywgJzgnLCAnLW1hJywgJzIwMCcsICctbWV0YWxfYmluZGluZycsICctaW1hZScsICc8aW5maWxlLm1hZT4nLCAnLW9tYWUnLCAnPG91dGZpbGUubWFlPic=

> <r_epik_Ionization_Penalty>
0.105018

> <r_epik_Ionization_Penalty_Charging>
0

> <r_epik_Ionization_Penalty_Neutral>
0.105018

> <r_epik_State_Penalty>
0.094904

> <r_epik_Charging_Adjusted_Penalty>
0.094904

> <i_epik_Tot_Q>
0

> <i_epik_Tot_abs_Q>
0

> <r_epik_Metal_State_Penalty>
0.000102919

> <b_epik_Metal_Only>
0

> <s_lp_Force_Field>
OPLS_2005

> <r_lp_Energy>
2.81525

> <b_lp_Chiralities_Consistent>
1

> <s_lp_Variant>
AV-unprocessed.smi:2538-1

> <Gold.Version>
5.8.1

> <Gold.Id.Protein>
6NUR|6NUR_protein|mol2

> <Gold.PLP.Fitness>
49.7326

> <Gold.PLP.PLP>
-42.9072

> <Gold.PLP.part.hbond>
-5.0000

> <Gold.PLP.part.metal>
0.0000

> <Gold.PLP.part.buried>
-4.8173

> <Gold.PLP.part.nonpolar>
-32.6788

> <Gold.PLP.part.repulsive>
0.3311

> <Gold.PLP.ligand.clash>
0.0000

> <Gold.PLP.ligand.torsion>
2.5549

> <Gold.PLP.Chemscore.Hbond>
3.1200

> <Gold.PLP.Chemscore.CHOScore>
0.0000

> <Gold.PLP.Chemscore.Metal>
0.0000

> <Gold.Chemscore.Hbonds>
donor molecule, donor type, donor heavy atom, donor atom, acceptor molecule, acceptor atom, score
      L1  H    10    32       P1  7957  0.37
      P1  H  6934  6946       L1    15  0.46
      P1  H  7989  7998       L1    10  0.27
      P1  H  7997  8009       L1     5  1.00
      P1  H  8011  8017       L1    10  1.00

> <Gold.PLP.Chemscore.Internal.Correction>
2.5752

> <Gold.Rescore>
     Score         DG    S(hbond)    S(metal)    S(lipo)     H(rot)  DE(clash)    DE(int)     intcor
     15.90     -19.35       2.33        0.00     102.23       2.29       1.00       2.45       ----

> <Gold.Chemscore.Fitness>
15.8993

> <Gold.Chemscore.DG>
-19.3458

> <Gold.Chemscore.ZeroCoef>
-5.4800

> <Gold.Chemscore.Hbond>
2.3270

> <Gold.Chemscore.Metal>
0.0000

> <Gold.Chemscore.Lipo>
102.2272

> <Gold.Chemscore.Internal_Hbond>
0.0000

> <Gold.Chemscore.DEClash>
0.9992

> <Gold.Chemscore.DEInternal>
2.4474

> <Gold.Chemscore.Rot>
2.2917

> <Gold.Chemscore.Internal.Correction>
   9.000000E+99

> <Gold.Chemscore.Hbonds>
donor molecule, donor type, donor heavy atom, donor atom, acceptor molecule, acceptor atom, score
      L1  H    10    32       P1  7957  0.34
      P1  H  6934  6946       L1    15  0.43
      P1  H  7989  7998       L1    10  0.03
      P1  H  7997  8009       L1     5  0.10
      P1  H  8011  8017       L1    10  0.78

> <Gold.Chemscore.Hbond.Weighted>
-7.7721

> <Gold.Chemscore.Metal.Weighted>
-0.0000

> <Gold.Chemscore.Lipo.Weighted>
-11.9606

> <Gold.Chemscore.Internal_Hbond.Weighted>
0.0000

> <Gold.Chemscore.DEClash.Weighted>
0.9992

> <Gold.Chemscore.DEInternal.Weighted>
2.4474

> <Gold.Chemscore.Rot.Weighted>
5.8669

> <Gold.Chemscore.Internal.Correction.Weighted>
   9.000000E+99

> <Gold.Protein.RotatedTorsions>
[ 6907 6896 6895 6894 ] final  -58.03 input  -60.11 | X-H torsion
[ 7974 7965 7964 7962 ] final -134.99 input  175.53 | X-H torsion
[ 8008 7997 7996 7995 ] final -178.67 input   59.86 | X-H torsion
[ 10167 10162 10161 10158 ] final  121.19 input  -65.29 | X-H torsion
[ 10718 10713 10712 10709 ] final  163.10 input   66.30 | X-H torsion
[ 10763 10752 10751 10750 ] final  -51.65 input  -60.55 | X-H torsion
[ 11005 11000 10999 10996 ] final   78.66 input  -57.11 | X-H torsion

> <Gold.Protein.ActiveResidues>
 VAL166  LYS551  ARG553  GLY616  TRP617  ASP618  TYR619  PRO620  LYS621  CYS622 
 ASP623  PHE694  ASN695  SER759  ASP760  ASP761  ALA762  ILE779  LEU786  VAL792 
 PHE793  MET794  SER795  GLU796  ALA797  LYS798  CYS799  TRP800  GLU811  SER814 

> <Gold.Protein.RotatedAtoms>
  150.8039  134.7151  159.6625 H   0  0  0  0  0  0  0  0  0  0  0  0  # atno 6907 bound_to 6896
  152.4157  134.6042  160.0018 H   0  0  0  0  0  0  0  0  0  0  0  0  # atno 6908 bound_to 6896
  151.6272  133.3297  159.3137 H   0  0  0  0  0  0  0  0  0  0  0  0  # atno 6909 bound_to 6896
  144.9053  140.6825  143.5059 H   0  0  0  0  0  0  0  0  0  0  0  0  # atno 7974 bound_to 7965
  156.0216  140.1262  157.0352 H   0  0  0  0  0  0  0  0  0  0  0  0  # atno 8008 bound_to 7997
  154.4314  140.1067  156.6041 H   0  0  0  0  0  0  0  0  0  0  0  0  # atno 8009 bound_to 7997
  155.5937  140.3469  155.4576 H   0  0  0  0  0  0  0  0  0  0  0  0  # atno 8010 bound_to 7997
  139.5935  144.7033  151.3233 H   0  0  0  0  0  0  0  0  0  0  0  0  # atno 10167 bound_to 10162
  157.1132  131.0473  151.2448 H   0  0  0  0  0  0  0  0  0  0  0  0  # atno 10718 bound_to 10713
  154.1300  135.6521  153.4920 H   0  0  0  0  0  0  0  0  0  0  0  0  # atno 10763 bound_to 10752
  153.0198  135.5290  154.7011 H   0  0  0  0  0  0  0  0  0  0  0  0  # atno 10764 bound_to 10752
  154.6243  135.2968  155.0261 H   0  0  0  0  0  0  0  0  0  0  0  0  # atno 10765 bound_to 10752
  139.9204  134.7781  156.1678 H   0  0  0  0  0  0  0  0  0  0  0  0  # atno 11005 bound_to 11000
  145.3546  139.1697  143.4416 LP  0  0  0  0  0  0  0  0  0  0  0  0  # atno 17320 bound_to 7965
  146.3130  140.3602  142.8664 LP  0  0  0  0  0  0  0  0  0  0  0  0  # atno 17321 bound_to 7965
  140.7193  143.7181  150.7717 LP  0  0  0  0  0  0  0  0  0  0  0  0  # atno 17342 bound_to 10162
  140.0742  143.5031  152.2564 LP  0  0  0  0  0  0  0  0  0  0  0  0  # atno 17343 bound_to 10162
  157.4541  130.7615  149.7177 LP  0  0  0  0  0  0  0  0  0  0  0  0  # atno 17370 bound_to 10713
  155.9845  130.3990  150.3306 LP  0  0  0  0  0  0  0  0  0  0  0  0  # atno 17371 bound_to 10713
  141.0719  133.6793  156.2157 LP  0  0  0  0  0  0  0  0  0  0  0  0  # atno 17394 bound_to 11000
  140.6493  134.5084  157.5576 LP  0  0  0  0  0  0  0  0  0  0  0  0  # atno 17395 bound_to 11000

$$$$
