AV-unprocessed.smi:1368|AV-procd|sdf|5576|dock5
  -GOLD-   22720 5173D 1   1.00000     0.00000
 Structure written by MMmdl.
 46 48  0  0  0  0  0  0  0  0  1 V2000
  141.0581  147.1664  154.9744 C   0  0  0  0  0  0  0  0  0  0  0  0
  142.0522  146.2446  154.2747 C   0  0  0  0  0  0  0  0  0  0  0  0
  141.8034  145.8445  153.1384 O   0  0  0  0  0  0  0  0  0  0  0  0
  143.1681  145.9547  154.9699 N   0  0  0  0  0  0  0  0  0  0  0  0
  144.2637  145.1263  154.6009 C   0  0  0  0  0  0  0  0  0  0  0  0
  144.8268  144.3175  155.6083 C   0  0  0  0  0  0  0  0  0  0  0  0
  145.9029  143.4578  155.3177 C   0  0  0  0  0  0  0  0  0  0  0  0
  146.4341  143.3803  154.0150 C   0  0  0  0  0  0  0  0  0  0  0  0
  147.4884  142.5142  153.8185 O   0  0  0  0  0  0  0  0  0  0  0  0
  147.5863  141.3725  154.6599 C   0  0  0  0  0  0  0  0  0  0  0  0
  148.6774  141.6181  155.7139 C   0  0  1  0  0  0  0  0  0  0  0  0
  148.2930  140.9736  156.9127 O   0  0  0  0  0  0  0  0  0  0  0  0
  150.0443  141.0681  155.2576 C   0  0  0  0  0  0  0  0  0  0  0  0
  151.0101  140.9686  156.3442 N   0  0  0  0  0  0  0  0  0  0  0  0
  151.7021  139.8750  156.7477 C   0  0  0  0  0  0  0  0  0  0  0  0
  151.5431  138.5474  156.0771 C   0  0  0  0  0  0  0  0  0  0  0  0
  152.5263  140.0557  157.7797 N   0  0  0  0  0  0  0  0  0  0  0  0
  152.3515  141.3938  158.0759 C   0  0  0  0  0  0  0  0  0  0  0  0
  152.9444  142.1984  159.0753 C   0  0  0  0  0  0  0  0  0  0  0  0
  152.6049  143.5627  159.1880 C   0  0  0  0  0  0  0  0  0  0  0  0
  151.6703  144.1411  158.3048 C   0  0  0  0  0  0  0  0  0  0  0  0
  151.0667  143.3569  157.3031 C   0  0  0  0  0  0  0  0  0  0  0  0
  151.4082  141.9955  157.1951 C   0  0  0  0  0  0  0  0  0  0  0  0
  145.8583  144.1814  152.9977 C   0  0  0  0  0  0  0  0  0  0  0  0
  144.7816  145.0423  153.2865 C   0  0  0  0  0  0  0  0  0  0  0  0
  141.1175  147.0619  156.0584 H   0  0  0  0  0  0  0  0  0  0  0  0
  140.0383  146.9313  154.6679 H   0  0  0  0  0  0  0  0  0  0  0  0
  141.2623  148.2059  154.7164 H   0  0  0  0  0  0  0  0  0  0  0  0
  143.2669  146.4288  155.8557 H   0  0  0  0  0  0  0  0  0  0  0  0
  144.4377  144.3558  156.6156 H   0  0  0  0  0  0  0  0  0  0  0  0
  146.3257  142.8501  156.1045 H   0  0  0  0  0  0  0  0  0  0  0  0
  146.6326  141.1391  155.1372 H   0  0  0  0  0  0  0  0  0  0  0  0
  147.8684  140.5174  154.0431 H   0  0  0  0  0  0  0  0  0  0  0  0
  148.7670  142.6881  155.9036 H   0  0  0  0  0  0  0  0  0  0  0  0
  149.0616  140.5880  157.3048 H   0  0  0  0  0  0  0  0  0  0  0  0
  149.9223  140.0804  154.8114 H   0  0  0  0  0  0  0  0  0  0  0  0
  150.4637  141.7002  154.4746 H   0  0  0  0  0  0  0  0  0  0  0  0
  152.2036  137.8084  156.5320 H   0  0  0  0  0  0  0  0  0  0  0  0
  151.7925  138.6230  155.0190 H   0  0  0  0  0  0  0  0  0  0  0  0
  150.5165  138.1950  156.1758 H   0  0  0  0  0  0  0  0  0  0  0  0
  153.6619  141.7650  159.7564 H   0  0  0  0  0  0  0  0  0  0  0  0
  153.0642  144.1685  159.9554 H   0  0  0  0  0  0  0  0  0  0  0  0
  151.4174  145.1872  158.3961 H   0  0  0  0  0  0  0  0  0  0  0  0
  150.3525  143.7968  156.6231 H   0  0  0  0  0  0  0  0  0  0  0  0
  146.2212  144.1521  151.9818 H   0  0  0  0  0  0  0  0  0  0  0  0
  144.3625  145.6177  152.4760 H   0  0  0  0  0  0  0  0  0  0  0  0
  1  2  1  0  0  0  0
  1 26  1  0  0  0  0
  1 27  1  0  0  0  0
  1 28  1  0  0  0  0
  2  3  2  0  0  0  0
  2  4  1  0  0  0  0
  4  5  1  0  0  0  0
  4 29  1  0  0  0  0
  5 25  1  0  0  0  0
  5  6  2  0  0  0  0
  6  7  1  0  0  0  0
  6 30  1  0  0  0  0
  7  8  2  0  0  0  0
  7 31  1  0  0  0  0
  8  9  1  0  0  0  0
  8 24  1  0  0  0  0
  9 10  1  0  0  0  0
 10 11  1  0  0  0  0
 10 32  1  0  0  0  0
 10 33  1  0  0  0  0
 11 12  1  0  0  0  0
 11 13  1  0  0  0  0
 11 34  1  0  0  0  0
 12 35  1  0  0  0  0
 13 14  1  0  0  0  0
 13 36  1  0  0  0  0
 13 37  1  0  0  0  0
 14 23  1  0  0  0  0
 14 15  1  0  0  0  0
 15 16  1  0  0  0  0
 15 17  2  0  0  0  0
 16 38  1  0  0  0  0
 16 39  1  0  0  0  0
 16 40  1  0  0  0  0
 17 18  1  0  0  0  0
 18 23  2  0  0  0  0
 18 19  1  0  0  0  0
 19 20  2  0  0  0  0
 19 41  1  0  0  0  0
 20 21  1  0  0  0  0
 20 42  1  0  0  0  0
 21 22  2  0  0  0  0
 21 43  1  0  0  0  0
 22 23  1  0  0  0  0
 22 44  1  0  0  0  0
 24 25  2  0  0  0  0
 24 45  1  0  0  0  0
 25 46  1  0  0  0  0
M  END
> <s_m_source_file>
AV-unprocessed.smi

> <i_m_source_file_index>
1368

> <i_lp_mmshare_version>
43012

> <i_f3d_flags>
0

> <s_epik_input>
W0NIM11DKD1PKVtOSF1jMVtjSF1bY0hdYyhbY0hdW2NIXTEpT1tDSDJdW0NASF0oW09IXSlbQ0gyXW4oYyhuMilbQ0gzXSljKGMyMylbY0hdW2NIXVtjSF1bY0hdMw==

> <s_epik_cmdline>
J2VwaWtfcHl0aG9uJywgJy1waCcsICc3LjAnLCAnLXRuJywgJzgnLCAnLW1hJywgJzIwMCcsICctbWV0YWxfYmluZGluZycsICctaW1hZScsICc8aW5maWxlLm1hZT4nLCAnLW9tYWUnLCAnPG91dGZpbGUubWFlPic=

> <r_lp_tautomer_probability>
1

> <r_epik_Ionization_Penalty>
0.119634

> <r_epik_Ionization_Penalty_Charging>
0

> <r_epik_Ionization_Penalty_Neutral>
0.119634

> <r_epik_State_Penalty>
0.10919

> <r_epik_Charging_Adjusted_Penalty>
0.10919

> <i_epik_Tot_Q>
0

> <i_epik_Tot_abs_Q>
0

> <r_epik_Metal_State_Penalty>
0.0906856

> <b_epik_Metal_Only>
0

> <s_lp_Force_Field>
OPLS_2005

> <r_lp_Energy>
21.7849

> <b_lp_Chiralities_Consistent>
1

> <s_lp_Variant>
AV-unprocessed.smi:1368-2

> <Gold.Version>
5.8.1

> <Gold.Id.Protein>
6NUR|6NUR_protein|mol2

> <Gold.PLP.Fitness>
47.8046

> <Gold.PLP.PLP>
-47.7446

> <Gold.PLP.part.hbond>
-3.2912

> <Gold.PLP.part.metal>
0.0000

> <Gold.PLP.part.buried>
-2.0757

> <Gold.PLP.part.nonpolar>
-42.5694

> <Gold.PLP.part.repulsive>
0.3209

> <Gold.PLP.ligand.clash>
0.0000

> <Gold.PLP.ligand.torsion>
1.5373

> <Gold.PLP.Chemscore.Hbond>
1.0177

> <Gold.PLP.Chemscore.CHOScore>
0.0000

> <Gold.PLP.Chemscore.Metal>
0.0000

> <Gold.Chemscore.Hbonds>
donor molecule, donor type, donor heavy atom, donor atom, acceptor molecule, acceptor atom, score
      P1  H  7997  8009       L1    17  0.71

> <Gold.PLP.Chemscore.Internal.Correction>
0.0816

> <Gold.Rescore>
     Score         DG    S(hbond)    S(metal)    S(lipo)     H(rot)  DE(clash)    DE(int)     intcor
     13.70     -16.55       0.78        0.00     124.79       2.39       1.22       1.64       ----

> <Gold.Chemscore.Fitness>
13.6959

> <Gold.Chemscore.DG>
-16.5536

> <Gold.Chemscore.ZeroCoef>
-5.4800

> <Gold.Chemscore.Hbond>
0.7769

> <Gold.Chemscore.Metal>
0.0000

> <Gold.Chemscore.Lipo>
124.7926

> <Gold.Chemscore.Internal_Hbond>
0.0000

> <Gold.Chemscore.DEClash>
1.2165

> <Gold.Chemscore.DEInternal>
1.6412

> <Gold.Chemscore.Rot>
2.3914

> <Gold.Chemscore.Internal.Correction>
   9.000000E+99

> <Gold.Chemscore.Hbonds>
donor molecule, donor type, donor heavy atom, donor atom, acceptor molecule, acceptor atom, score
      P1  H  7997  8009       L1    17  0.07

> <Gold.Chemscore.Hbond.Weighted>
-2.5949

> <Gold.Chemscore.Metal.Weighted>
-0.0000

> <Gold.Chemscore.Lipo.Weighted>
-14.6007

> <Gold.Chemscore.Internal_Hbond.Weighted>
0.0000

> <Gold.Chemscore.DEClash.Weighted>
1.2165

> <Gold.Chemscore.DEInternal.Weighted>
1.6412

> <Gold.Chemscore.Rot.Weighted>
6.1220

> <Gold.Chemscore.Internal.Correction.Weighted>
   9.000000E+99

> <Gold.Protein.RotatedTorsions>
[ 6907 6896 6895 6894 ] final  111.09 input  -60.11 | X-H torsion
[ 7974 7965 7964 7962 ] final  -37.16 input  175.53 | X-H torsion
[ 8008 7997 7996 7995 ] final  169.27 input   59.86 | X-H torsion
[ 10167 10162 10161 10158 ] final -147.65 input  -65.29 | X-H torsion
[ 10718 10713 10712 10709 ] final  116.79 input   66.30 | X-H torsion
[ 10763 10752 10751 10750 ] final  163.19 input  -60.55 | X-H torsion
[ 11005 11000 10999 10996 ] final   86.46 input  -57.11 | X-H torsion

> <Gold.Protein.ActiveResidues>
 VAL166  LYS551  ARG553  GLY616  TRP617  ASP618  TYR619  PRO620  LYS621  CYS622 
 ASP623  PHE694  ASN695  SER759  ASP760  ASP761  ALA762  ILE779  LEU786  VAL792 
 PHE793  MET794  SER795  GLU796  ALA797  LYS798  CYS799  TRP800  GLU811  SER814 

> <Gold.Protein.RotatedAtoms>
  152.4987  133.8708  159.7296 H   0  0  0  0  0  0  0  0  0  0  0  0  # atno 6907 bound_to 6896
  150.9195  133.6889  159.2842 H   0  0  0  0  0  0  0  0  0  0  0  0  # atno 6908 bound_to 6896
  151.4271  135.1009  159.9683 H   0  0  0  0  0  0  0  0  0  0  0  0  # atno 6909 bound_to 6896
  146.0599  140.6364  142.9002 H   0  0  0  0  0  0  0  0  0  0  0  0  # atno 7974 bound_to 7965
  156.1473  140.1568  156.8827 H   0  0  0  0  0  0  0  0  0  0  0  0  # atno 8008 bound_to 7997
  154.5039  140.0818  156.7892 H   0  0  0  0  0  0  0  0  0  0  0  0  # atno 8009 bound_to 7997
  155.3965  140.3412  155.4256 H   0  0  0  0  0  0  0  0  0  0  0  0  # atno 8010 bound_to 7997
  139.7602  143.8388  152.2605 H   0  0  0  0  0  0  0  0  0  0  0  0  # atno 10167 bound_to 10162
  157.6138  131.1029  150.7522 H   0  0  0  0  0  0  0  0  0  0  0  0  # atno 10718 bound_to 10713
  154.2900  135.2761  155.2659 H   0  0  0  0  0  0  0  0  0  0  0  0  # atno 10763 bound_to 10752
  154.5142  135.5774  153.6632 H   0  0  0  0  0  0  0  0  0  0  0  0  # atno 10764 bound_to 10752
  152.9916  135.6188  154.3064 H   0  0  0  0  0  0  0  0  0  0  0  0  # atno 10765 bound_to 10752
  139.8944  134.8356  156.2723 H   0  0  0  0  0  0  0  0  0  0  0  0  # atno 11005 bound_to 11000
  144.7169  140.4239  143.7038 LP  0  0  0  0  0  0  0  0  0  0  0  0  # atno 17320 bound_to 7965
  145.6579  139.1576  143.2825 LP  0  0  0  0  0  0  0  0  0  0  0  0  # atno 17321 bound_to 7965
  139.8392  144.7218  150.9353 LP  0  0  0  0  0  0  0  0  0  0  0  0  # atno 17342 bound_to 10162
  140.7806  143.3999  151.1167 LP  0  0  0  0  0  0  0  0  0  0  0  0  # atno 17343 bound_to 10162
  156.7894  130.4885  149.5387 LP  0  0  0  0  0  0  0  0  0  0  0  0  # atno 17370 bound_to 10713
  156.1252  130.6138  151.0252 LP  0  0  0  0  0  0  0  0  0  0  0  0  # atno 17371 bound_to 10713
  141.0093  133.7105  156.1085 LP  0  0  0  0  0  0  0  0  0  0  0  0  # atno 17394 bound_to 11000
  140.7390  134.4171  157.5557 LP  0  0  0  0  0  0  0  0  0  0  0  0  # atno 17395 bound_to 11000

$$$$
