AV-unprocessed.smi:54|AV-procd|sdf|560|dock2
  -GOLD-   2262016463D 1   1.00000     0.00000
 Structure written by MMmdl.
 43 45  0  0  0  0  0  0  0  0  2 V2000
  145.7009  136.7711  161.5068 C   0  0  0  0  0  0  0  0  0  0  0  0
  146.6484  135.8104  160.7699 C   0  0  0  0  0  0  0  0  0  0  0  0
  146.7955  134.4804  161.5274 C   0  0  0  0  0  0  0  0  0  0  0  0
  148.0195  136.4641  160.5466 C   0  0  0  0  0  0  0  0  0  0  0  0
  148.6854  136.8116  161.5243 O   0  0  0  0  0  0  0  0  0  0  0  0
  148.3801  136.6182  159.2536 N   0  0  0  0  0  0  0  0  0  0  0  0
  149.5401  137.1935  158.7232 C   0  0  0  0  0  0  0  0  0  0  0  0
  149.3293  137.8217  157.5928 N   0  0  0  0  0  0  0  0  0  0  0  0
  150.4791  138.3782  157.0667 C   0  0  0  0  0  0  0  0  0  0  0  0
  151.7445  138.3218  157.5843 C   0  0  0  0  0  0  0  0  0  0  0  0
  152.6544  138.9958  156.7791 N   0  0  0  0  0  0  0  0  0  0  0  0
  151.8778  139.4379  155.7916 C   0  0  0  0  0  0  0  0  0  0  0  0
  150.5727  139.1162  155.8890 N   0  0  0  0  0  0  0  0  0  0  0  0
  149.4960  139.4902  154.9192 C   0  0  1  0  0  0  0  0  0  0  0  0
  148.2662  139.1455  155.4826 O   0  0  0  0  0  0  0  0  0  0  0  0
  147.3468  140.2231  155.3515 C   0  0  1  0  0  0  0  0  0  0  0  0
  146.3056  140.1368  156.4791 C   0  0  0  0  0  0  0  0  0  0  0  0
  145.4177  141.2334  156.4253 O   0  0  0  0  0  0  0  0  0  0  0  0
  148.2392  141.4661  155.3926 C   0  0  2  0  0  0  0  0  0  0  0  0
  147.6308  142.5993  154.8017 O   0  0  0  0  0  0  0  0  0  0  0  0
  149.4988  141.0060  154.6619 C   0  0  2  0  0  0  0  0  0  0  0  0
  149.4480  141.2765  153.2725 O   0  0  0  0  0  0  0  0  0  0  0  0
  151.9168  137.5830  158.8576 C   0  0  0  0  0  0  0  0  0  0  0  0
  153.0375  137.5048  159.3573 O   0  0  0  0  0  0  0  0  0  0  0  0
  150.7775  137.0363  159.3779 N   0  5  0  0  0  0  0  0  0  0  0  0
  149.7013  138.8907  154.0311 H   0  0  0  0  0  0  0  0  0  0  0  0
  146.8689  140.1298  154.3742 H   0  0  0  0  0  0  0  0  0  0  0  0
  148.4899  141.7088  156.4252 H   0  0  0  0  0  0  0  0  0  0  0  0
  150.3961  141.4728  155.0713 H   0  0  0  0  0  0  0  0  0  0  0  0
  145.6049  137.7183  160.9747 H   0  0  0  0  0  0  0  0  0  0  0  0
  146.0550  136.9896  162.5150 H   0  0  0  0  0  0  0  0  0  0  0  0
  144.7023  136.3425  161.5934 H   0  0  0  0  0  0  0  0  0  0  0  0
  146.2084  135.5914  159.7954 H   0  0  0  0  0  0  0  0  0  0  0  0
  147.4740  133.8021  161.0086 H   0  0  0  0  0  0  0  0  0  0  0  0
  145.8338  133.9748  161.6173 H   0  0  0  0  0  0  0  0  0  0  0  0
  147.1834  134.6330  162.5353 H   0  0  0  0  0  0  0  0  0  0  0  0
  147.6794  136.3369  158.5842 H   0  0  0  0  0  0  0  0  0  0  0  0
  152.2713  140.0184  154.9701 H   0  0  0  0  0  0  0  0  0  0  0  0
  145.7220  139.2218  156.3770 H   0  0  0  0  0  0  0  0  0  0  0  0
  146.7873  140.1029  157.4569 H   0  0  0  0  0  0  0  0  0  0  0  0
  145.8569  141.9920  156.7785 H   0  0  0  0  0  0  0  0  0  0  0  0
  147.8869  143.3636  155.2954 H   0  0  0  0  0  0  0  0  0  0  0  0
  149.5302  140.4585  152.8065 H   0  0  0  0  0  0  0  0  0  0  0  0
  1  2  1  0  0  0  0
  1 30  1  0  0  0  0
  1 31  1  0  0  0  0
  1 32  1  0  0  0  0
  2  3  1  0  0  0  0
  2  4  1  0  0  0  0
  2 33  1  0  0  0  0
  3 34  1  0  0  0  0
  3 35  1  0  0  0  0
  3 36  1  0  0  0  0
  4  5  2  0  0  0  0
  4  6  1  0  0  0  0
  6 37  1  0  0  0  0
  6  7  1  0  0  0  0
  7 25  1  0  0  0  0
  7  8  2  0  0  0  0
  8  9  1  0  0  0  0
  9 13  1  0  0  0  0
  9 10  2  0  0  0  0
 10 11  1  0  0  0  0
 10 23  1  0  0  0  0
 11 12  2  0  0  0  0
 12 13  1  0  0  0  0
 12 38  1  0  0  0  0
 13 14  1  0  0  0  0
 14 26  1  0  0  0  0
 14 21  1  0  0  0  0
 14 15  1  0  0  0  0
 15 16  1  0  0  0  0
 16 27  1  0  0  0  0
 16 17  1  0  0  0  0
 16 19  1  0  0  0  0
 17 18  1  0  0  0  0
 17 39  1  0  0  0  0
 17 40  1  0  0  0  0
 18 41  1  0  0  0  0
 19 28  1  0  0  0  0
 19 20  1  0  0  0  0
 19 21  1  0  0  0  0
 20 42  1  0  0  0  0
 21 29  1  0  0  0  0
 21 22  1  0  0  0  0
 22 43  1  0  0  0  0
 23 24  2  0  0  0  0
 23 25  1  0  0  0  0
M  CHG  1  25  -1
M  END
> <s_m_source_file>
AV-unprocessed.smi

> <i_m_source_file_index>
54

> <i_lp_mmshare_version>
43012

> <i_f3d_flags>
0

> <s_epik_input>
W0NIM11bQ0hdKFtDSDNdKUMoPU8pW05IXWMobjEpW25IXWMoPU8pYyhjMTIpbltjSF1uMltDQEBIXTNPW0NASF0oW0NIMl1bT0hdKVtDQEBIXShbT0hdKVtDQEhdM1tPSF0=

> <s_epik_cmdline>
J2VwaWtfcHl0aG9uJywgJy1waCcsICc3LjAnLCAnLXRuJywgJzgnLCAnLW1hJywgJzIwMCcsICctbWV0YWxfYmluZGluZycsICctaW1hZScsICc8aW5maWxlLm1hZT4nLCAnLW9tYWUnLCAnPG91dGZpbGUubWFlPic=

> <r_lp_tautomer_probability>
0.85571

> <r_epik_Ionization_Penalty>
1.75936

> <r_epik_Ionization_Penalty_Charging>
4.55893e-11

> <r_epik_Ionization_Penalty_Neutral>
1.75936

> <r_epik_State_Penalty>
1.72072

> <r_epik_Charging_Adjusted_Penalty>
1.72072

> <i_epik_Tot_Q>
-1

> <i_epik_Tot_abs_Q>
1

> <r_epik_Metal_State_Penalty>
0.400338

> <b_epik_Metal_Only>
1

> <s_epik_Chemistry_Notes>
This compound contains an acetal/aminal-like group ( X-CH(R)-Y where X, Y are N, S, or O) that may be acid/base labile, releasing an aldehyde.

> <s_lp_Force_Field>
OPLS_2005

> <r_lp_Energy>
61.5682

> <b_lp_Chiralities_Consistent>
1

> <s_lp_Variant>
AV-unprocessed.smi:54-32

> <Gold.Version>
5.8.1

> <Gold.Id.Protein>
6NUR|6NUR_protein|mol2

> <Gold.PLP.Fitness>
48.8302

> <Gold.PLP.PLP>
-29.8528

> <Gold.PLP.part.hbond>
-6.6873

> <Gold.PLP.part.metal>
0.0000

> <Gold.PLP.part.buried>
-4.3678

> <Gold.PLP.part.nonpolar>
-19.3921

> <Gold.PLP.part.repulsive>
0.1986

> <Gold.PLP.ligand.clash>
0.0000

> <Gold.PLP.ligand.torsion>
0.3902

> <Gold.PLP.Chemscore.Hbond>
6.5745

> <Gold.PLP.Chemscore.CHOScore>
0.0000

> <Gold.PLP.Chemscore.Metal>
0.0000

> <Gold.Chemscore.Hbonds>
donor molecule, donor type, donor heavy atom, donor atom, acceptor molecule, acceptor atom, score
      L1  H    20    42       P1  8028  1.00
      L1  H    22    43       P1  7957  0.67
      P1  H  6896  6907       L1    25  1.98
      P1  H  6931  6943       L1     5  0.98
      P1  H  7997  8010       L1    11  0.96
      P1  H  8011  8017       L1    22  0.96

> <Gold.PLP.Chemscore.Internal.Correction>
0.0343

> <Gold.Rescore>
     Score         DG    S(hbond)    S(metal)    S(lipo)     H(rot)  DE(clash)    DE(int)     intcor
     11.33     -14.55       4.44        0.00      38.76       4.02       0.01       3.21       ----

> <Gold.Chemscore.Fitness>
11.3336

> <Gold.Chemscore.DG>
-14.5495

> <Gold.Chemscore.ZeroCoef>
-5.4800

> <Gold.Chemscore.Hbond>
4.4384

> <Gold.Chemscore.Metal>
0.0000

> <Gold.Chemscore.Lipo>
38.7565

> <Gold.Chemscore.Internal_Hbond>
0.0000

> <Gold.Chemscore.DEClash>
0.0069

> <Gold.Chemscore.DEInternal>
3.2089

> <Gold.Chemscore.Rot>
4.0192

> <Gold.Chemscore.Internal.Correction>
   9.000000E+99

> <Gold.Chemscore.Hbonds>
donor molecule, donor type, donor heavy atom, donor atom, acceptor molecule, acceptor atom, score
      L1  H    20    42       P1  8028  0.54
      L1  H    22    43       P1  7957  0.66
      P1  H  6896  6907       L1    25  0.53
      P1  H  6931  6943       L1     5  0.91
      P1  H  7997  8010       L1    11  0.55
      P1  H  8011  8017       L1    22  0.62

> <Gold.Chemscore.Hbond.Weighted>
-14.8242

> <Gold.Chemscore.Metal.Weighted>
-0.0000

> <Gold.Chemscore.Lipo.Weighted>
-4.5345

> <Gold.Chemscore.Internal_Hbond.Weighted>
0.0000

> <Gold.Chemscore.DEClash.Weighted>
0.0069

> <Gold.Chemscore.DEInternal.Weighted>
3.2089

> <Gold.Chemscore.Rot.Weighted>
10.2893

> <Gold.Chemscore.Internal.Correction.Weighted>
   9.000000E+99

> <Gold.Protein.RotatedTorsions>
[ 6907 6896 6895 6894 ] final  -26.94 input  -60.11 | X-H torsion
[ 7974 7965 7964 7962 ] final -107.39 input  175.53 | X-H torsion
[ 8008 7997 7996 7995 ] final   56.13 input   59.86 | X-H torsion
[ 10167 10162 10161 10158 ] final -109.80 input  -65.29 | X-H torsion
[ 10718 10713 10712 10709 ] final -113.57 input   66.30 | X-H torsion
[ 10763 10752 10751 10750 ] final  149.99 input  -60.55 | X-H torsion
[ 11005 11000 10999 10996 ] final   82.93 input  -57.11 | X-H torsion

> <Gold.Protein.ActiveResidues>
 VAL166  LYS551  ARG553  GLY616  TRP617  ASP618  TYR619  PRO620  LYS621  CYS622 
 ASP623  PHE694  ASN695  SER759  ASP760  ASP761  ALA762  ILE779  LEU786  VAL792 
 PHE793  MET794  SER795  GLU796  ALA797  LYS798  CYS799  TRP800  GLU811  SER814 

> <Gold.Protein.RotatedAtoms>
  151.1539  135.0241  159.8680 H   0  0  0  0  0  0  0  0  0  0  0  0  # atno 6907 bound_to 6896
  152.5452  134.1357  159.8468 H   0  0  0  0  0  0  0  0  0  0  0  0  # atno 6908 bound_to 6896
  151.1445  133.4903  159.2629 H   0  0  0  0  0  0  0  0  0  0  0  0  # atno 6909 bound_to 6896
  145.2059  140.9076  143.3342 H   0  0  0  0  0  0  0  0  0  0  0  0  # atno 7974 bound_to 7965
  155.5124  140.3477  155.4391 H   0  0  0  0  0  0  0  0  0  0  0  0  # atno 8008 bound_to 7997
  156.0840  140.1394  156.9703 H   0  0  0  0  0  0  0  0  0  0  0  0  # atno 8009 bound_to 7997
  154.4596  140.0940  156.6832 H   0  0  0  0  0  0  0  0  0  0  0  0  # atno 8010 bound_to 7997
  140.1514  143.4196  152.1492 H   0  0  0  0  0  0  0  0  0  0  0  0  # atno 10167 bound_to 10162
  156.0775  130.5980  150.8660 H   0  0  0  0  0  0  0  0  0  0  0  0  # atno 10718 bound_to 10713
  154.0801  135.2860  155.3292 H   0  0  0  0  0  0  0  0  0  0  0  0  # atno 10763 bound_to 10752
  154.6689  135.5307  153.8116 H   0  0  0  0  0  0  0  0  0  0  0  0  # atno 10764 bound_to 10752
  153.0452  135.6553  154.0977 H   0  0  0  0  0  0  0  0  0  0  0  0  # atno 10765 bound_to 10752
  139.9047  134.8107  156.2240 H   0  0  0  0  0  0  0  0  0  0  0  0  # atno 11005 bound_to 11000
  144.9902  139.3696  143.6218 LP  0  0  0  0  0  0  0  0  0  0  0  0  # atno 17320 bound_to 7965
  146.3408  139.9082  142.8784 LP  0  0  0  0  0  0  0  0  0  0  0  0  # atno 17321 bound_to 7965
  139.5424  144.7268  151.4691 LP  0  0  0  0  0  0  0  0  0  0  0  0  # atno 17342 bound_to 10162
  140.6700  143.8314  150.6988 LP  0  0  0  0  0  0  0  0  0  0  0  0  # atno 17343 bound_to 10162
  157.5877  131.0945  150.9170 LP  0  0  0  0  0  0  0  0  0  0  0  0  # atno 17370 bound_to 10713
  156.9352  130.5364  149.5279 LP  0  0  0  0  0  0  0  0  0  0  0  0  # atno 17371 bound_to 10713
  141.0387  133.6949  156.1559 LP  0  0  0  0  0  0  0  0  0  0  0  0  # atno 17394 bound_to 11000
  140.6987  134.4587  157.5587 LP  0  0  0  0  0  0  0  0  0  0  0  0  # atno 17395 bound_to 11000

$$$$
