AV-unprocessed.smi:1292|AV-procd|sdf|5396|dock4
  -GOLD-   22720 4553D 1   1.00000     0.00000
 Structure written by MMmdl.
 40 41  0  0  0  0  0  0  0  0  1 V2000
  154.3838  140.5319  160.0185 C   0  0  0  0  0  0  0  0  0  0  0  0
  153.3341  141.5682  160.4423 C   0  0  1  0  0  0  0  0  0  0  0  0
  153.4298  141.8836  161.9434 C   0  0  0  0  0  0  0  0  0  0  0  0
  152.3569  142.9039  162.3433 C   0  0  0  0  0  0  0  0  0  0  0  0
  152.4215  144.1747  161.4784 C   0  0  0  0  0  0  0  0  0  0  0  0
  152.4625  143.8667  160.0336 N   0  0  0  0  0  0  0  0  0  0  0  0
  151.1412  144.2628  158.9736 S   0  0  0  0  0  0  0  0  0  0  0  0
  150.1130  143.2140  159.0573 O   0  0  0  0  0  0  0  0  0  0  0  0
  150.8027  145.6777  159.1890 O   0  0  0  0  0  0  0  0  0  0  0  0
  151.9277  144.1535  157.4407 N   0  0  0  0  0  0  0  0  0  0  0  0
  151.2607  143.6274  156.2485 C   0  0  0  0  0  0  0  0  0  0  0  0
  150.9792  142.1249  156.4040 C   0  0  0  0  0  0  0  0  0  0  0  0
  149.8908  141.6327  155.4656 C   0  0  0  0  0  0  0  0  0  0  0  0
  148.6565  142.3111  155.3726 C   0  0  0  0  0  0  0  0  0  0  0  0
  147.6917  141.8279  154.4679 C   0  0  0  0  0  0  0  0  0  0  0  0
  147.9962  140.6910  153.6948 C   0  0  0  0  0  0  0  0  0  0  0  0
  149.2566  140.0841  153.8632 C   0  0  0  0  0  0  0  0  0  0  0  0
  150.1890  140.5393  154.7277 N   0  0  0  0  0  0  0  0  0  0  0  0
  153.4630  142.8651  159.6202 C   0  0  0  0  0  0  0  0  0  0  0  0
  155.3960  140.9003  160.1874 H   0  0  0  0  0  0  0  0  0  0  0  0
  154.2894  140.2892  158.9596 H   0  0  0  0  0  0  0  0  0  0  0  0
  154.2684  139.6044  160.5800 H   0  0  0  0  0  0  0  0  0  0  0  0
  152.3540  141.1335  160.2453 H   0  0  0  0  0  0  0  0  0  0  0  0
  153.3084  140.9729  162.5308 H   0  0  0  0  0  0  0  0  0  0  0  0
  154.4191  142.2784  162.1789 H   0  0  0  0  0  0  0  0  0  0  0  0
  151.3708  142.4521  162.2704 H   0  0  0  0  0  0  0  0  0  0  0  0
  152.4806  143.1721  163.3927 H   0  0  0  0  0  0  0  0  0  0  0  0
  151.5817  144.8292  161.7084 H   0  0  0  0  0  0  0  0  0  0  0  0
  153.3230  144.7345  161.7291 H   0  0  0  0  0  0  0  0  0  0  0  0
  152.9325  143.9862  157.4904 H   0  0  0  0  0  0  0  0  0  0  0  0
  150.3257  144.1615  156.0942 H   0  0  0  0  0  0  0  0  0  0  0  0
  151.8859  143.7990  155.3724 H   0  0  0  0  0  0  0  0  0  0  0  0
  151.8916  141.5603  156.2073 H   0  0  0  0  0  0  0  0  0  0  0  0
  150.7021  141.9010  157.4351 H   0  0  0  0  0  0  0  0  0  0  0  0
  148.4559  143.1858  155.9738 H   0  0  0  0  0  0  0  0  0  0  0  0
  146.7370  142.3227  154.3665 H   0  0  0  0  0  0  0  0  0  0  0  0
  147.2814  140.2943  152.9891 H   0  0  0  0  0  0  0  0  0  0  0  0
  149.5240  139.2112  153.2864 H   0  0  0  0  0  0  0  0  0  0  0  0
  154.4570  143.2948  159.7504 H   0  0  0  0  0  0  0  0  0  0  0  0
  153.3549  142.6509  158.5567 H   0  0  0  0  0  0  0  0  0  0  0  0
  1  2  1  0  0  0  0
  1 20  1  0  0  0  0
  1 21  1  0  0  0  0
  1 22  1  0  0  0  0
  2 19  1  0  0  0  0
  2  3  1  0  0  0  0
  2 23  1  0  0  0  0
  3  4  1  0  0  0  0
  3 24  1  0  0  0  0
  3 25  1  0  0  0  0
  4  5  1  0  0  0  0
  4 26  1  0  0  0  0
  4 27  1  0  0  0  0
  5  6  1  0  0  0  0
  5 28  1  0  0  0  0
  5 29  1  0  0  0  0
  6  7  1  0  0  0  0
  6 19  1  0  0  0  0
  7  8  2  0  0  0  0
  7  9  2  0  0  0  0
  7 10  1  0  0  0  0
 10 11  1  0  0  0  0
 10 30  1  0  0  0  0
 11 12  1  0  0  0  0
 11 31  1  0  0  0  0
 11 32  1  0  0  0  0
 12 13  1  0  0  0  0
 12 33  1  0  0  0  0
 12 34  1  0  0  0  0
 13 18  1  0  0  0  0
 13 14  2  0  0  0  0
 14 15  1  0  0  0  0
 14 35  1  0  0  0  0
 15 16  2  0  0  0  0
 15 36  1  0  0  0  0
 16 17  1  0  0  0  0
 16 37  1  0  0  0  0
 17 18  2  0  0  0  0
 17 38  1  0  0  0  0
 19 39  1  0  0  0  0
 19 40  1  0  0  0  0
M  END
> <s_m_source_file>
AV-unprocessed.smi

> <i_m_source_file_index>
1292

> <i_lp_mmshare_version>
43012

> <i_f3d_flags>
0

> <s_epik_input>
W0NIM11bQ0BASF0xW0NIMl1bQ0gyXVtDSDJdTihbQ0gyXTEpUyg9TykoPU8pW05IXVtDSDJdW0NIMl1jMltjSF1bY0hdW2NIXVtjSF1uMg==

> <s_epik_cmdline>
J2VwaWtfcHl0aG9uJywgJy1waCcsICc3LjAnLCAnLXRuJywgJzgnLCAnLW1hJywgJzIwMCcsICctbWV0YWxfYmluZGluZycsICctaW1hZScsICc8aW5maWxlLm1hZT4nLCAnLW9tYWUnLCAnPG91dGZpbGUubWFlPic=

> <r_epik_Ionization_Penalty>
0.0252758

> <r_epik_Ionization_Penalty_Charging>
0

> <r_epik_Ionization_Penalty_Neutral>
0.0252758

> <r_epik_State_Penalty>
0.0138562

> <r_epik_Charging_Adjusted_Penalty>
0.0138562

> <i_epik_Tot_Q>
0

> <i_epik_Tot_abs_Q>
0

> <r_epik_Metal_State_Penalty>
0.204365

> <b_epik_Metal_Only>
0

> <s_lp_Force_Field>
OPLS_2005

> <r_lp_Energy>
8.19125

> <b_lp_Chiralities_Consistent>
1

> <s_lp_Variant>
AV-unprocessed.smi:1292-2

> <Gold.Version>
5.8.1

> <Gold.Id.Protein>
6NUR|6NUR_protein|mol2

> <Gold.PLP.Fitness>
43.8899

> <Gold.PLP.PLP>
-40.4653

> <Gold.PLP.part.hbond>
-2.3320

> <Gold.PLP.part.metal>
0.0000

> <Gold.PLP.part.buried>
4.0720

> <Gold.PLP.part.nonpolar>
-43.1749

> <Gold.PLP.part.repulsive>
0.3804

> <Gold.PLP.ligand.clash>
0.0000

> <Gold.PLP.ligand.torsion>
2.0074

> <Gold.PLP.Chemscore.Hbond>
1.0000

> <Gold.PLP.Chemscore.CHOScore>
0.4812

> <Gold.PLP.Chemscore.Metal>
0.0000

> <Gold.Chemscore.Hbonds>
donor molecule, donor type, donor heavy atom, donor atom, acceptor molecule, acceptor atom, score
      P1  H  7989  7998       L1    18  0.88
      L1  C    17    38       P1  7957  0.46

> <Gold.PLP.Chemscore.Internal.Correction>
2.9957

> <Gold.Rescore>
     Score         DG    S(hbond)    S(metal)    S(lipo)     H(rot)  DE(clash)    DE(int)     intcor
      9.81     -17.87       0.29        0.00     126.05       1.30       5.33       2.73       ----

> <Gold.Chemscore.Fitness>
9.8130

> <Gold.Chemscore.DG>
-17.8653

> <Gold.Chemscore.ZeroCoef>
-5.4800

> <Gold.Chemscore.Hbond>
0.2921

> <Gold.Chemscore.Metal>
0.0000

> <Gold.Chemscore.Lipo>
126.0476

> <Gold.Chemscore.Internal_Hbond>
0.0000

> <Gold.Chemscore.DEClash>
5.3270

> <Gold.Chemscore.DEInternal>
2.7254

> <Gold.Chemscore.Rot>
1.3039

> <Gold.Chemscore.Internal.Correction>
   9.000000E+99

> <Gold.Chemscore.Hbonds>
donor molecule, donor type, donor heavy atom, donor atom, acceptor molecule, acceptor atom, score
      P1  H  7989  7998       L1    18  0.16

> <Gold.Chemscore.Hbond.Weighted>
-0.9757

> <Gold.Chemscore.Metal.Weighted>
-0.0000

> <Gold.Chemscore.Lipo.Weighted>
-14.7476

> <Gold.Chemscore.Internal_Hbond.Weighted>
0.0000

> <Gold.Chemscore.DEClash.Weighted>
5.3270

> <Gold.Chemscore.DEInternal.Weighted>
2.7254

> <Gold.Chemscore.Rot.Weighted>
3.3379

> <Gold.Chemscore.Internal.Correction.Weighted>
   9.000000E+99

> <Gold.Protein.RotatedTorsions>
[ 6907 6896 6895 6894 ] final  138.70 input  -60.11 | X-H torsion
[ 7974 7965 7964 7962 ] final  -93.18 input  175.53 | X-H torsion
[ 8008 7997 7996 7995 ] final   64.72 input   59.86 | X-H torsion
[ 10167 10162 10161 10158 ] final  109.90 input  -65.29 | X-H torsion
[ 10718 10713 10712 10709 ] final -137.82 input   66.30 | X-H torsion
[ 10763 10752 10751 10750 ] final  -69.22 input  -60.55 | X-H torsion
[ 11005 11000 10999 10996 ] final    4.39 input  -57.11 | X-H torsion

> <Gold.Protein.ActiveResidues>
 VAL166  LYS551  ARG553  GLY616  TRP617  ASP618  TYR619  PRO620  LYS621  CYS622 
 ASP623  PHE694  ASN695  SER759  ASP760  ASP761  ALA762  ILE779  LEU786  VAL792 
 PHE793  MET794  SER795  GLU796  ALA797  LYS798  CYS799  TRP800  GLU811  SER814 

> <Gold.Protein.RotatedAtoms>
  152.2636  133.5319  159.5396 H   0  0  0  0  0  0  0  0  0  0  0  0  # atno 6907 bound_to 6896
  150.7134  134.0796  159.3902 H   0  0  0  0  0  0  0  0  0  0  0  0  # atno 6908 bound_to 6896
  151.8713  135.0488  160.0530 H   0  0  0  0  0  0  0  0  0  0  0  0  # atno 6909 bound_to 6896
  145.3900  140.9527  143.2346 H   0  0  0  0  0  0  0  0  0  0  0  0  # atno 7974 bound_to 7965
  155.6504  140.3497  155.4746 H   0  0  0  0  0  0  0  0  0  0  0  0  # atno 8008 bound_to 7997
  155.9852  140.1182  157.0712 H   0  0  0  0  0  0  0  0  0  0  0  0  # atno 8009 bound_to 7997
  154.4203  140.1130  156.5476 H   0  0  0  0  0  0  0  0  0  0  0  0  # atno 8010 bound_to 7997
  139.6730  144.7124  151.1653 H   0  0  0  0  0  0  0  0  0  0  0  0  # atno 10167 bound_to 10162
  156.2924  130.7383  151.1412 H   0  0  0  0  0  0  0  0  0  0  0  0  # atno 10718 bound_to 10713
  154.4003  135.6032  153.5893 H   0  0  0  0  0  0  0  0  0  0  0  0  # atno 10763 bound_to 10752
  152.9788  135.5905  154.4192 H   0  0  0  0  0  0  0  0  0  0  0  0  # atno 10764 bound_to 10752
  154.3990  135.2842  155.2087 H   0  0  0  0  0  0  0  0  0  0  0  0  # atno 10765 bound_to 10752
  140.5824  134.0000  155.8053 H   0  0  0  0  0  0  0  0  0  0  0  0  # atno 11005 bound_to 11000
  144.8447  139.5416  143.6884 LP  0  0  0  0  0  0  0  0  0  0  0  0  # atno 17320 bound_to 7965
  146.2802  139.6857  142.9234 LP  0  0  0  0  0  0  0  0  0  0  0  0  # atno 17321 bound_to 7965
  140.7625  143.5815  150.8890 LP  0  0  0  0  0  0  0  0  0  0  0  0  # atno 17342 bound_to 10162
  139.9481  143.6303  152.3036 LP  0  0  0  0  0  0  0  0  0  0  0  0  # atno 17343 bound_to 10162
  157.7346  131.0580  150.5515 LP  0  0  0  0  0  0  0  0  0  0  0  0  # atno 17370 bound_to 10713
  156.5633  130.4261  149.6053 LP  0  0  0  0  0  0  0  0  0  0  0  0  # atno 17371 bound_to 10713
  141.0987  133.9802  157.3115 LP  0  0  0  0  0  0  0  0  0  0  0  0  # atno 17394 bound_to 11000
  139.9311  135.0200  156.8402 LP  0  0  0  0  0  0  0  0  0  0  0  0  # atno 17395 bound_to 11000

$$$$
