AV-unprocessed.smi:965|AV-procd|sdf|4282|dock7
  -GOLD-   22720 2193D 1   1.00000     0.00000
 Structure written by MMmdl.
 29 30  0  0  0  0  0  0  0  0  2 V2000
  149.6879  133.4060  154.6723 C   0  0  0  0  0  0  0  0  0  0  0  0
  148.4302  134.1240  155.1724 C   0  0  0  0  0  0  0  0  0  0  0  0
  147.3551  134.1810  154.1393 C   0  0  0  0  0  0  0  0  0  0  0  0
  147.4208  133.7394  152.8857 N   0  0  0  0  0  0  0  0  0  0  0  0
  146.1984  134.1104  152.4118 C   0  0  0  0  0  0  0  0  0  0  0  0
  145.7496  133.8357  151.0093 C   0  0  1  0  0  0  0  0  0  0  0  0
  145.8149  132.3364  150.6614 C   0  0  0  0  0  0  0  0  0  0  0  0
  145.3361  132.0992  149.2208 C   0  0  0  0  0  0  0  0  0  0  0  0
  143.9413  132.7074  148.9974 C   0  0  0  0  0  0  0  0  0  0  0  0
  143.9398  134.1495  149.3276 N   0  3  0  0  0  0  0  0  0  0  0  0
  144.3539  134.4251  150.7213 C   0  0  0  0  0  0  0  0  0  0  0  0
  145.4122  134.7433  153.2744 N   0  0  0  0  0  0  0  0  0  0  0  0
  146.1913  134.8064  154.4385 O   0  0  0  0  0  0  0  0  0  0  0  0
  150.4556  133.3822  155.4457 H   0  0  0  0  0  0  0  0  0  0  0  0
  150.1078  133.9097  153.8011 H   0  0  0  0  0  0  0  0  0  0  0  0
  149.4665  132.3761  154.3904 H   0  0  0  0  0  0  0  0  0  0  0  0
  148.0408  133.6194  156.0572 H   0  0  0  0  0  0  0  0  0  0  0  0
  148.6788  135.1415  155.4757 H   0  0  0  0  0  0  0  0  0  0  0  0
  146.4500  134.3438  150.3431 H   0  0  0  0  0  0  0  0  0  0  0  0
  146.8323  131.9626  150.7832 H   0  0  0  0  0  0  0  0  0  0  0  0
  145.1881  131.7664  151.3488 H   0  0  0  0  0  0  0  0  0  0  0  0
  146.0459  132.5422  148.5207 H   0  0  0  0  0  0  0  0  0  0  0  0
  145.3163  131.0304  149.0058 H   0  0  0  0  0  0  0  0  0  0  0  0
  143.6348  132.5797  147.9588 H   0  0  0  0  0  0  0  0  0  0  0  0
  143.2004  132.1965  149.6139 H   0  0  0  0  0  0  0  0  0  0  0  0
  144.5777  134.6218  148.7029 H   0  0  0  0  0  0  0  0  0  0  0  0
  143.6113  134.0021  151.3995 H   0  0  0  0  0  0  0  0  0  0  0  0
  144.3551  135.5037  150.8818 H   0  0  0  0  0  0  0  0  0  0  0  0
  143.0105  134.5183  149.1835 H   0  0  0  0  0  0  0  0  0  0  0  0
  1  2  1  0  0  0  0
  1 14  1  0  0  0  0
  1 15  1  0  0  0  0
  1 16  1  0  0  0  0
  2  3  1  0  0  0  0
  2 17  1  0  0  0  0
  2 18  1  0  0  0  0
  3 13  1  0  0  0  0
  3  4  2  0  0  0  0
  4  5  1  0  0  0  0
  5  6  1  0  0  0  0
  5 12  2  0  0  0  0
  6 11  1  0  0  0  0
  6  7  1  0  0  0  0
  6 19  1  0  0  0  0
  7  8  1  0  0  0  0
  7 20  1  0  0  0  0
  7 21  1  0  0  0  0
  8  9  1  0  0  0  0
  8 22  1  0  0  0  0
  8 23  1  0  0  0  0
  9 10  1  0  0  0  0
  9 24  1  0  0  0  0
  9 25  1  0  0  0  0
 10 11  1  0  0  0  0
 10 26  1  0  0  0  0
 10 29  1  0  0  0  0
 11 27  1  0  0  0  0
 11 28  1  0  0  0  0
 12 13  1  0  0  0  0
M  CHG  1  10   1
M  END
> <s_m_source_file>
AV-unprocessed.smi

> <i_m_source_file_index>
965

> <i_lp_mmshare_version>
43012

> <i_f3d_flags>
0

> <s_epik_input>
W0NIM11bQ0gyXWMxbmMobm8xKVtDQEBIXTJbQ0gyXVtDSDJdW0NIMl1bTkhdW0NIMl0y

> <s_epik_cmdline>
J2VwaWtfcHl0aG9uJywgJy1waCcsICc3LjAnLCAnLXRuJywgJzgnLCAnLW1hJywgJzIwMCcsICctbWV0YWxfYmluZGluZycsICctaW1hZScsICc8aW5maWxlLm1hZT4nLCAnLW9tYWUnLCAnPG91dGZpbGUubWFlPic=

> <r_lp_tautomer_probability>
1

> <r_epik_Ionization_Penalty>
0.000532935

> <r_epik_Ionization_Penalty_Charging>
0.000532935

> <r_epik_Ionization_Penalty_Neutral>
3.47051e-13

> <r_epik_State_Penalty>
0.000332992

> <r_epik_Charging_Adjusted_Penalty>
0.000865928

> <i_epik_Tot_Q>
1

> <i_epik_Tot_abs_Q>
1

> <r_epik_Metal_State_Penalty>
-0

> <b_epik_Metal_Only>
0

> <s_lp_Force_Field>
OPLS_2005

> <r_lp_Energy>
5.49554

> <b_lp_Chiralities_Consistent>
1

> <s_lp_Variant>
AV-unprocessed.smi:965-2

> <Gold.Version>
5.8.1

> <Gold.Id.Protein>
6NUR|6NUR_protein|mol2

> <Gold.PLP.Fitness>
32.0934

> <Gold.PLP.PLP>
-23.0961

> <Gold.PLP.part.hbond>
-2.0000

> <Gold.PLP.part.metal>
0.0000

> <Gold.PLP.part.buried>
-4.1746

> <Gold.PLP.part.nonpolar>
-18.0584

> <Gold.PLP.part.repulsive>
0.8718

> <Gold.PLP.ligand.clash>
0.0000

> <Gold.PLP.ligand.torsion>
0.0266

> <Gold.PLP.Chemscore.Hbond>
3.0000

> <Gold.PLP.Chemscore.CHOScore>
0.0000

> <Gold.PLP.Chemscore.Metal>
0.0000

> <Gold.Chemscore.Hbonds>
donor molecule, donor type, donor heavy atom, donor atom, acceptor molecule, acceptor atom, score
      L1  H    10    26       P1  7921  1.00
      L1  H    10    29       P1 10186  2.00

> <Gold.PLP.Chemscore.Internal.Correction>
0.0505

> <Gold.Rescore>
     Score         DG    S(hbond)    S(metal)    S(lipo)     H(rot)  DE(clash)    DE(int)     intcor
     15.95     -16.09       1.93        0.00      62.67       1.24       0.10       0.04       ----

> <Gold.Chemscore.Fitness>
15.9515

> <Gold.Chemscore.DG>
-16.0935

> <Gold.Chemscore.ZeroCoef>
-5.4800

> <Gold.Chemscore.Hbond>
1.9322

> <Gold.Chemscore.Metal>
0.0000

> <Gold.Chemscore.Lipo>
62.6689

> <Gold.Chemscore.Internal_Hbond>
0.0000

> <Gold.Chemscore.DEClash>
0.0996

> <Gold.Chemscore.DEInternal>
0.0425

> <Gold.Chemscore.Rot>
1.2392

> <Gold.Chemscore.Internal.Correction>
   9.000000E+99

> <Gold.Chemscore.Hbonds>
donor molecule, donor type, donor heavy atom, donor atom, acceptor molecule, acceptor atom, score
      L1  H    10    26       P1  7921  0.98
      L1  H    10    29       P1 10186  0.89

> <Gold.Chemscore.Hbond.Weighted>
-6.4536

> <Gold.Chemscore.Metal.Weighted>
-0.0000

> <Gold.Chemscore.Lipo.Weighted>
-7.3323

> <Gold.Chemscore.Internal_Hbond.Weighted>
0.0000

> <Gold.Chemscore.DEClash.Weighted>
0.0996

> <Gold.Chemscore.DEInternal.Weighted>
0.0425

> <Gold.Chemscore.Rot.Weighted>
3.1723

> <Gold.Chemscore.Internal.Correction.Weighted>
   9.000000E+99

> <Gold.Protein.RotatedTorsions>
[ 6907 6896 6895 6894 ] final  169.20 input  -60.11 | X-H torsion
[ 7974 7965 7964 7962 ] final   47.46 input  175.53 | X-H torsion
[ 8008 7997 7996 7995 ] final  173.63 input   59.86 | X-H torsion
[ 10167 10162 10161 10158 ] final  143.77 input  -65.29 | X-H torsion
[ 10718 10713 10712 10709 ] final   97.13 input   66.30 | X-H torsion
[ 10763 10752 10751 10750 ] final  105.79 input  -60.55 | X-H torsion
[ 11005 11000 10999 10996 ] final  170.14 input  -57.11 | X-H torsion

> <Gold.Protein.ActiveResidues>
 VAL166  LYS551  ARG553  GLY616  TRP617  ASP618  TYR619  PRO620  LYS621  CYS622 
 ASP623  PHE694  ASN695  SER759  ASP760  ASP761  ALA762  ILE779  LEU786  VAL792 
 PHE793  MET794  SER795  GLU796  ALA797  LYS798  CYS799  TRP800  GLU811  SER814 

> <Gold.Protein.RotatedAtoms>
  151.8357  133.3415  159.3626 H   0  0  0  0  0  0  0  0  0  0  0  0  # atno 6907 bound_to 6896
  150.7250  134.5440  159.5771 H   0  0  0  0  0  0  0  0  0  0  0  0  # atno 6908 bound_to 6896
  152.2903  134.7730  160.0430 H   0  0  0  0  0  0  0  0  0  0  0  0  # atno 6909 bound_to 6896
  146.0296  139.4747  142.9846 H   0  0  0  0  0  0  0  0  0  0  0  0  # atno 7974 bound_to 7965
  156.1056  140.1455  156.9409 H   0  0  0  0  0  0  0  0  0  0  0  0  # atno 8008 bound_to 7997
  154.4731  140.0903  156.7240 H   0  0  0  0  0  0  0  0  0  0  0  0  # atno 8009 bound_to 7997
  155.4685  140.3441  155.4324 H   0  0  0  0  0  0  0  0  0  0  0  0  # atno 8010 bound_to 7997
  139.4962  144.6018  151.6465 H   0  0  0  0  0  0  0  0  0  0  0  0  # atno 10167 bound_to 10162
  157.6917  131.0600  150.4597 H   0  0  0  0  0  0  0  0  0  0  0  0  # atno 10718 bound_to 10713
  153.3841  135.3898  155.1878 H   0  0  0  0  0  0  0  0  0  0  0  0  # atno 10763 bound_to 10752
  154.8711  135.3732  154.4819 H   0  0  0  0  0  0  0  0  0  0  0  0  # atno 10764 bound_to 10752
  153.5299  135.7086  153.5749 H   0  0  0  0  0  0  0  0  0  0  0  0  # atno 10765 bound_to 10752
  140.3052  134.7563  157.3947 H   0  0  0  0  0  0  0  0  0  0  0  0  # atno 11005 bound_to 11000
  145.7063  141.0120  143.1477 LP  0  0  0  0  0  0  0  0  0  0  0  0  # atno 17320 bound_to 7965
  144.7024  139.8704  143.7440 LP  0  0  0  0  0  0  0  0  0  0  0  0  # atno 17321 bound_to 7965
  140.5669  144.0174  150.6197 LP  0  0  0  0  0  0  0  0  0  0  0  0  # atno 17342 bound_to 10162
  140.3279  143.3096  152.0717 LP  0  0  0  0  0  0  0  0  0  0  0  0  # atno 17343 bound_to 10162
  156.4942  130.4102  149.6389 LP  0  0  0  0  0  0  0  0  0  0  0  0  # atno 17370 bound_to 10713
  156.3389  130.7371  151.2313 LP  0  0  0  0  0  0  0  0  0  0  0  0  # atno 17371 bound_to 10713
  140.1074  134.5391  155.8297 LP  0  0  0  0  0  0  0  0  0  0  0  0  # atno 17394 bound_to 11000
  141.2120  133.6713  156.6624 LP  0  0  0  0  0  0  0  0  0  0  0  0  # atno 17395 bound_to 11000

$$$$
