AV-unprocessed.smi:840|AV-procd|sdf|3914|dock9
  -GOLD-   22720 1373D 1   1.00000     0.00000
 Structure written by MMmdl.
 36 37  0  0  0  0  0  0  0  0  2 V2000
  146.5057  138.9516  151.3244 C   0  0  0  0  0  0  0  0  0  0  0  0
  146.0625  137.9911  152.4408 C   0  0  1  0  0  0  0  0  0  0  0  0
  146.4698  136.6379  152.0643 N   0  0  0  0  0  0  0  0  0  0  0  0
  145.6546  135.6597  151.6404 C   0  0  0  0  0  0  0  0  0  0  0  0
  144.4445  135.8726  151.5302 O   0  0  0  0  0  0  0  0  0  0  0  0
  146.2912  134.4970  151.3717 N   0  5  0  0  0  0  0  0  0  0  0  0
  145.5854  133.3653  151.2156 C   0  0  0  0  0  0  0  0  0  0  0  0
  145.9443  132.2013  151.7688 N   0  0  0  0  0  0  0  0  0  0  0  0
  145.0651  131.1555  151.4826 C   0  0  0  0  0  0  0  0  0  0  0  0
  144.0070  131.5337  150.6998 C   0  0  0  0  0  0  0  0  0  0  0  0
  144.0829  133.2257  150.2978 S   0  0  0  0  0  0  0  0  0  0  0  0
  146.7568  138.4125  153.7453 C   0  0  0  0  0  0  0  0  0  0  0  0
  146.1018  138.8507  154.6927 O   0  0  0  0  0  0  0  0  0  0  0  0
  148.0894  138.2633  153.7805 N   0  0  0  0  0  0  0  0  0  0  0  0
  148.9433  138.6104  154.9127 C   0  0  0  0  0  0  0  0  0  0  0  0
  148.7555  140.0822  155.3344 C   0  0  0  0  0  0  0  0  0  0  0  0
  150.0408  140.8053  154.9309 C   0  0  0  0  0  0  0  0  0  0  0  0
  151.1207  139.7330  155.0314 C   0  0  0  0  0  0  0  0  0  0  0  0
  150.4317  138.4569  154.5452 C   0  0  0  0  0  0  0  0  0  0  0  0
  146.2232  139.9801  151.5520 H   0  0  0  0  0  0  0  0  0  0  0  0
  146.0347  138.6885  150.3768 H   0  0  0  0  0  0  0  0  0  0  0  0
  147.5859  138.9286  151.1714 H   0  0  0  0  0  0  0  0  0  0  0  0
  144.9772  138.0385  152.5513 H   0  0  0  0  0  0  0  0  0  0  0  0
  147.4516  136.4190  152.1455 H   0  0  0  0  0  0  0  0  0  0  0  0
  145.2706  130.1723  151.8790 H   0  0  0  0  0  0  0  0  0  0  0  0
  143.1916  130.9258  150.3386 H   0  0  0  0  0  0  0  0  0  0  0  0
  148.5459  137.9013  152.9558 H   0  0  0  0  0  0  0  0  0  0  0  0
  148.7107  137.9588  155.7571 H   0  0  0  0  0  0  0  0  0  0  0  0
  147.8721  140.5516  154.8987 H   0  0  0  0  0  0  0  0  0  0  0  0
  148.6396  140.1315  156.4178 H   0  0  0  0  0  0  0  0  0  0  0  0
  149.9598  141.1501  153.8993 H   0  0  0  0  0  0  0  0  0  0  0  0
  150.2489  141.6729  155.5578 H   0  0  0  0  0  0  0  0  0  0  0  0
  152.0111  139.9767  154.4514 H   0  0  0  0  0  0  0  0  0  0  0  0
  151.4222  139.6138  156.0728 H   0  0  0  0  0  0  0  0  0  0  0  0
  150.8743  137.5623  154.9843 H   0  0  0  0  0  0  0  0  0  0  0  0
  150.5551  138.3789  153.4637 H   0  0  0  0  0  0  0  0  0  0  0  0
  1  2  1  0  0  0  0
  1 20  1  0  0  0  0
  1 21  1  0  0  0  0
  1 22  1  0  0  0  0
  2  3  1  0  0  0  0
  2 12  1  0  0  0  0
  2 23  1  0  0  0  0
  3  4  1  0  0  0  0
  3 24  1  0  0  0  0
  4  5  2  0  0  0  0
  4  6  1  0  0  0  0
  6  7  1  0  0  0  0
  7 11  1  0  0  0  0
  7  8  2  0  0  0  0
  8  9  1  0  0  0  0
  9 10  2  0  0  0  0
  9 25  1  0  0  0  0
 10 11  1  0  0  0  0
 10 26  1  0  0  0  0
 12 13  2  0  0  0  0
 12 14  1  0  0  0  0
 14 15  1  0  0  0  0
 14 27  1  0  0  0  0
 15 19  1  0  0  0  0
 15 16  1  0  0  0  0
 15 28  1  0  0  0  0
 16 17  1  0  0  0  0
 16 29  1  0  0  0  0
 16 30  1  0  0  0  0
 17 18  1  0  0  0  0
 17 31  1  0  0  0  0
 17 32  1  0  0  0  0
 18 19  1  0  0  0  0
 18 33  1  0  0  0  0
 18 34  1  0  0  0  0
 19 35  1  0  0  0  0
 19 36  1  0  0  0  0
M  CHG  1   6  -1
M  END
> <s_m_source_file>
AV-unprocessed.smi

> <i_m_source_file_index>
840

> <i_lp_mmshare_version>
43012

> <i_f3d_flags>
0

> <s_epik_input>
W0NIMl0xW0NIMl1bQ0gyXVtDSDJdW0NIXTFbTkhdQyg9TylbQ0BIXShbQ0gzXSlbTkhdQyg9TylbTkhdYzJuW2NIXVtjSF1zMg==

> <s_epik_cmdline>
J2VwaWtfcHl0aG9uJywgJy1waCcsICc3LjAnLCAnLXRuJywgJzgnLCAnLW1hJywgJzIwMCcsICctbWV0YWxfYmluZGluZycsICctaW1hZScsICc8aW5maWxlLm1hZT4nLCAnLW9tYWUnLCAnPG91dGZpbGUubWFlPic=

> <r_lp_tautomer_probability>
1

> <r_epik_Ionization_Penalty>
6.35467

> <r_epik_Ionization_Penalty_Charging>
5.47395

> <r_epik_Ionization_Penalty_Neutral>
0.880717

> <r_epik_State_Penalty>
5.4739

> <r_epik_Charging_Adjusted_Penalty>
10.9479

> <i_epik_Tot_Q>
-1

> <i_epik_Tot_abs_Q>
1

> <r_epik_Metal_State_Penalty>
1.48639

> <b_epik_Metal_Only>
1

> <s_lp_Force_Field>
OPLS_2005

> <r_lp_Energy>
13.1034

> <b_lp_Chiralities_Consistent>
1

> <s_lp_Variant>
AV-unprocessed.smi:840-4

> <Gold.Version>
5.8.1

> <Gold.Id.Protein>
6NUR|6NUR_protein|mol2

> <Gold.PLP.Fitness>
38.1206

> <Gold.PLP.PLP>
-30.6975

> <Gold.PLP.part.hbond>
-1.9339

> <Gold.PLP.part.metal>
0.0000

> <Gold.PLP.part.buried>
-1.4436

> <Gold.PLP.part.nonpolar>
-29.2965

> <Gold.PLP.part.repulsive>
0.6547

> <Gold.PLP.ligand.clash>
0.0000

> <Gold.PLP.ligand.torsion>
0.7162

> <Gold.PLP.Chemscore.Hbond>
1.9440

> <Gold.PLP.Chemscore.CHOScore>
1.0000

> <Gold.PLP.Chemscore.Metal>
0.0000

> <Gold.Chemscore.Hbonds>
donor molecule, donor type, donor heavy atom, donor atom, acceptor molecule, acceptor atom, score
      L1  H     3    24       P1  7948  0.99
      L1  H    14    27       P1  7948  0.93
      L1  C    10    26       P1 10952  0.93

> <Gold.PLP.Chemscore.Internal.Correction>
0.0235

> <Gold.Rescore>
     Score         DG    S(hbond)    S(metal)    S(lipo)     H(rot)  DE(clash)    DE(int)     intcor
     14.49     -16.21       1.96        0.00      71.10       1.62       0.04       1.69       ----

> <Gold.Chemscore.Fitness>
14.4870

> <Gold.Chemscore.DG>
-16.2078

> <Gold.Chemscore.ZeroCoef>
-5.4800

> <Gold.Chemscore.Hbond>
1.9631

> <Gold.Chemscore.Metal>
0.0000

> <Gold.Chemscore.Lipo>
71.1028

> <Gold.Chemscore.Internal_Hbond>
0.0000

> <Gold.Chemscore.DEClash>
0.0354

> <Gold.Chemscore.DEInternal>
1.6854

> <Gold.Chemscore.Rot>
1.6204

> <Gold.Chemscore.Internal.Correction>
   9.000000E+99

> <Gold.Chemscore.Hbonds>
donor molecule, donor type, donor heavy atom, donor atom, acceptor molecule, acceptor atom, score
      L1  H     3    24       P1  7948  0.92
      L1  H    14    27       P1  7948  0.86

> <Gold.Chemscore.Hbond.Weighted>
-6.5569

> <Gold.Chemscore.Metal.Weighted>
-0.0000

> <Gold.Chemscore.Lipo.Weighted>
-8.3190

> <Gold.Chemscore.Internal_Hbond.Weighted>
0.0000

> <Gold.Chemscore.DEClash.Weighted>
0.0354

> <Gold.Chemscore.DEInternal.Weighted>
1.6854

> <Gold.Chemscore.Rot.Weighted>
4.1481

> <Gold.Chemscore.Internal.Correction.Weighted>
   9.000000E+99

> <Gold.Protein.RotatedTorsions>
[ 6907 6896 6895 6894 ] final  107.34 input  -60.11 | X-H torsion
[ 7974 7965 7964 7962 ] final -165.66 input  175.53 | X-H torsion
[ 8008 7997 7996 7995 ] final   72.25 input   59.86 | X-H torsion
[ 10167 10162 10161 10158 ] final   73.42 input  -65.29 | X-H torsion
[ 10718 10713 10712 10709 ] final   26.10 input   66.30 | X-H torsion
[ 10763 10752 10751 10750 ] final  -65.95 input  -60.55 | X-H torsion
[ 11005 11000 10999 10996 ] final  130.14 input  -57.11 | X-H torsion

> <Gold.Protein.ActiveResidues>
 VAL166  LYS551  ARG553  GLY616  TRP617  ASP618  TYR619  PRO620  LYS621  CYS622 
 ASP623  PHE694  ASN695  SER759  ASP760  ASP761  ALA762  ILE779  LEU786  VAL792 
 PHE793  MET794  SER795  GLU796  ALA797  LYS798  CYS799  TRP800  GLU811  SER814 

> <Gold.Protein.RotatedAtoms>
  152.5158  133.9248  159.7551 H   0  0  0  0  0  0  0  0  0  0  0  0  # atno 6907 bound_to 6896
  150.9612  133.6435  159.2761 H   0  0  0  0  0  0  0  0  0  0  0  0  # atno 6908 bound_to 6896
  151.3680  135.0922  159.9509 H   0  0  0  0  0  0  0  0  0  0  0  0  # atno 6909 bound_to 6896
  144.7264  140.2782  143.6240 H   0  0  0  0  0  0  0  0  0  0  0  0  # atno 7974 bound_to 7965
  155.7661  140.3485  155.5223 H   0  0  0  0  0  0  0  0  0  0  0  0  # atno 8008 bound_to 7997
  155.8867  140.1011  157.1468 H   0  0  0  0  0  0  0  0  0  0  0  0  # atno 8009 bound_to 7997
  154.4029  140.1312  156.4251 H   0  0  0  0  0  0  0  0  0  0  0  0  # atno 8010 bound_to 7997
  140.0247  144.5513  150.7554 H   0  0  0  0  0  0  0  0  0  0  0  0  # atno 10167 bound_to 10162
  157.2024  130.6896  149.6194 H   0  0  0  0  0  0  0  0  0  0  0  0  # atno 10718 bound_to 10713
  154.3526  135.6133  153.5650 H   0  0  0  0  0  0  0  0  0  0  0  0  # atno 10763 bound_to 10752
  152.9797  135.5796  154.4726 H   0  0  0  0  0  0  0  0  0  0  0  0  # atno 10764 bound_to 10752
  154.4449  135.2851  155.1799 H   0  0  0  0  0  0  0  0  0  0  0  0  # atno 10765 bound_to 10752
  139.9655  134.9591  156.9250 H   0  0  0  0  0  0  0  0  0  0  0  0  # atno 11005 bound_to 11000
  145.7976  139.1951  143.2067 LP  0  0  0  0  0  0  0  0  0  0  0  0  # atno 17320 bound_to 7965
  146.0704  140.7875  142.9691 LP  0  0  0  0  0  0  0  0  0  0  0  0  # atno 17321 bound_to 7965
  140.7327  143.2709  151.3891 LP  0  0  0  0  0  0  0  0  0  0  0  0  # atno 17342 bound_to 10162
  139.6116  144.1087  152.2304 LP  0  0  0  0  0  0  0  0  0  0  0  0  # atno 17343 bound_to 10162
  155.9699  130.4578  150.5977 LP  0  0  0  0  0  0  0  0  0  0  0  0  # atno 17370 bound_to 10713
  157.3754  131.0772  151.1522 LP  0  0  0  0  0  0  0  0  0  0  0  0  # atno 17371 bound_to 10713
  140.5406  134.0724  155.7340 LP  0  0  0  0  0  0  0  0  0  0  0  0  # atno 17394 bound_to 11000
  141.1334  133.9262  157.2486 LP  0  0  0  0  0  0  0  0  0  0  0  0  # atno 17395 bound_to 11000

$$$$
