AV-unprocessed.smi:249|AV-procd|sdf|1907|dock6
  -GOLD-   2262020593D 1   1.00000     0.00000
 Structure written by MMmdl.
 64 67  0  0  0  0  0  0  0  0  2 V2000
  148.1323  126.4406  151.0133 C   0  0  0  0  0  0  0  0  0  0  0  0
  147.8473  127.9062  151.3757 C   0  0  0  0  0  0  0  0  0  0  0  0
  147.3041  128.0748  152.7558 N   0  3  1  0  0  0  0  0  0  0  0  0
  148.0812  127.3595  153.8077 C   0  0  0  0  0  0  0  0  0  0  0  0
  149.4279  128.0497  154.0988 C   0  0  0  0  0  0  0  0  0  0  0  0
  149.2129  129.5249  154.4861 C   0  0  1  0  0  0  0  0  0  0  0  0
  150.4763  130.2173  154.7521 N   0  0  0  0  0  0  0  0  0  0  0  0
  151.7434  129.7113  154.2294 C   0  0  0  0  0  0  0  0  0  0  0  0
  150.5095  131.2491  155.6359 C   0  0  0  0  0  0  0  0  0  0  0  0
  151.6236  132.0264  155.6811 N   0  0  0  0  0  0  0  0  0  0  0  0
  151.7076  133.0423  156.5446 C   0  0  0  0  0  0  0  0  0  0  0  0
  150.8050  133.4567  157.4343 N   0  0  0  0  0  0  0  0  0  0  0  0
  149.6745  132.6969  157.3821 C   0  0  0  0  0  0  0  0  0  0  0  0
  149.4437  131.5838  156.5233 C   0  0  0  0  0  0  0  0  0  0  0  0
  148.1711  131.0715  156.7550 N   0  0  0  0  0  0  0  0  0  0  0  0
  147.6869  131.8252  157.7036 C   0  0  0  0  0  0  0  0  0  0  0  0
  148.5161  132.8384  158.1269 N   0  0  0  0  0  0  0  0  0  0  0  0
  148.2340  133.8101  159.1693 C   0  0  0  0  0  0  0  0  0  0  0  0
  146.7254  134.0423  159.4646 C   0  0  2  0  0  0  0  0  0  0  0  0
  145.9779  134.2674  158.1277 C   0  0  0  0  0  0  0  0  0  0  0  0
  144.5845  134.3869  158.3294 O   0  0  0  0  0  0  0  0  0  0  0  0
  146.4683  135.2086  160.4655 C   0  0  1  0  0  0  0  0  0  0  0  0
  147.1476  135.0588  161.8193 C   0  0  0  0  0  0  0  0  0  0  0  0
  147.1144  136.4801  162.3603 C   0  0  0  0  0  0  0  0  0  0  0  0
  147.3603  137.2939  161.2252 O   0  0  0  0  0  0  0  0  0  0  0  0
  147.0076  136.5857  160.0406 C   0  0  0  0  0  0  0  0  0  0  0  0
  148.3654  130.2482  153.4218 C   0  0  0  0  0  0  0  0  0  0  0  0
  147.0465  129.4889  153.1689 C   0  0  1  0  0  0  0  0  0  0  0  0
  146.1002  130.2469  152.2210 C   0  0  0  0  0  0  0  0  0  0  0  0
  148.3756  126.3516  149.9542 H   0  0  0  0  0  0  0  0  0  0  0  0
  147.2646  125.8087  151.2048 H   0  0  0  0  0  0  0  0  0  0  0  0
  148.9790  126.0359  151.5667 H   0  0  0  0  0  0  0  0  0  0  0  0
  148.7439  128.5086  151.2318 H   0  0  0  0  0  0  0  0  0  0  0  0
  147.1216  128.2654  150.6488 H   0  0  0  0  0  0  0  0  0  0  0  0
  147.4840  127.3417  154.7204 H   0  0  0  0  0  0  0  0  0  0  0  0
  148.2364  126.3139  153.5472 H   0  0  0  0  0  0  0  0  0  0  0  0
  149.9374  127.5275  154.9095 H   0  0  0  0  0  0  0  0  0  0  0  0
  150.0800  127.9669  153.2294 H   0  0  0  0  0  0  0  0  0  0  0  0
  148.6278  129.4960  155.4043 H   0  0  0  0  0  0  0  0  0  0  0  0
  152.3981  130.5341  153.9399 H   0  0  0  0  0  0  0  0  0  0  0  0
  151.5909  129.0849  153.3511 H   0  0  0  0  0  0  0  0  0  0  0  0
  152.2550  129.1129  154.9841 H   0  0  0  0  0  0  0  0  0  0  0  0
  152.6300  133.6034  156.5184 H   0  0  0  0  0  0  0  0  0  0  0  0
  146.6999  131.6689  158.1143 H   0  0  0  0  0  0  0  0  0  0  0  0
  148.7441  133.4966  160.0812 H   0  0  0  0  0  0  0  0  0  0  0  0
  148.7110  134.7411  158.8627 H   0  0  0  0  0  0  0  0  0  0  0  0
  146.3133  133.1344  159.9067 H   0  0  0  0  0  0  0  0  0  0  0  0
  146.2959  135.1881  157.6403 H   0  0  0  0  0  0  0  0  0  0  0  0
  146.1732  133.4514  157.4313 H   0  0  0  0  0  0  0  0  0  0  0  0
  144.2939  133.6637  158.8640 H   0  0  0  0  0  0  0  0  0  0  0  0
  145.3948  135.2966  160.6419 H   0  0  0  0  0  0  0  0  0  0  0  0
  146.6399  134.3585  162.4830 H   0  0  0  0  0  0  0  0  0  0  0  0
  148.1810  134.7305  161.6961 H   0  0  0  0  0  0  0  0  0  0  0  0
  146.1266  136.7155  162.7587 H   0  0  0  0  0  0  0  0  0  0  0  0
  147.8511  136.6519  163.1451 H   0  0  0  0  0  0  0  0  0  0  0  0
  147.9062  136.4886  159.4308 H   0  0  0  0  0  0  0  0  0  0  0  0
  146.2735  137.1576  159.4745 H   0  0  0  0  0  0  0  0  0  0  0  0
  148.1458  131.2616  153.7604 H   0  0  0  0  0  0  0  0  0  0  0  0
  148.9202  130.3539  152.4895 H   0  0  0  0  0  0  0  0  0  0  0  0
  146.5197  129.4301  154.1230 H   0  0  0  0  0  0  0  0  0  0  0  0
  145.7780  131.1854  152.6731 H   0  0  0  0  0  0  0  0  0  0  0  0
  145.2040  129.6642  152.0060 H   0  0  0  0  0  0  0  0  0  0  0  0
  146.5780  130.5007  151.2748 H   0  0  0  0  0  0  0  0  0  0  0  0
  146.3967  127.6315  152.7351 H   0  0  0  0  0  0  0  0  0  0  0  0
  1  2  1  0  0  0  0
  1 30  1  0  0  0  0
  1 31  1  0  0  0  0
  1 32  1  0  0  0  0
  2  3  1  0  0  0  0
  2 33  1  0  0  0  0
  2 34  1  0  0  0  0
  3 28  1  0  0  0  0
  3  4  1  0  0  0  0
  3 64  1  0  0  0  0
  4  5  1  0  0  0  0
  4 35  1  0  0  0  0
  4 36  1  0  0  0  0
  5  6  1  0  0  0  0
  5 37  1  0  0  0  0
  5 38  1  0  0  0  0
  6  7  1  0  0  0  0
  6 27  1  0  0  0  0
  6 39  1  0  0  0  0
  7  8  1  0  0  0  0
  7  9  1  0  0  0  0
  8 40  1  0  0  0  0
  8 41  1  0  0  0  0
  8 42  1  0  0  0  0
  9 14  1  0  0  0  0
  9 10  2  0  0  0  0
 10 11  1  0  0  0  0
 11 12  2  0  0  0  0
 11 43  1  0  0  0  0
 12 13  1  0  0  0  0
 13 17  1  0  0  0  0
 13 14  2  0  0  0  0
 14 15  1  0  0  0  0
 15 16  2  0  0  0  0
 16 17  1  0  0  0  0
 16 44  1  0  0  0  0
 17 18  1  0  0  0  0
 18 19  1  0  0  0  0
 18 45  1  0  0  0  0
 18 46  1  0  0  0  0
 19 20  1  0  0  0  0
 19 22  1  0  0  0  0
 19 47  1  0  0  0  0
 20 21  1  0  0  0  0
 20 48  1  0  0  0  0
 20 49  1  0  0  0  0
 21 50  1  0  0  0  0
 22 26  1  0  0  0  0
 22 23  1  0  0  0  0
 22 51  1  0  0  0  0
 23 24  1  0  0  0  0
 23 52  1  0  0  0  0
 23 53  1  0  0  0  0
 24 25  1  0  0  0  0
 24 54  1  0  0  0  0
 24 55  1  0  0  0  0
 25 26  1  0  0  0  0
 26 56  1  0  0  0  0
 26 57  1  0  0  0  0
 27 28  1  0  0  0  0
 27 58  1  0  0  0  0
 27 59  1  0  0  0  0
 28 29  1  0  0  0  0
 28 60  1  0  0  0  0
 29 61  1  0  0  0  0
 29 62  1  0  0  0  0
 29 63  1  0  0  0  0
M  CHG  1   3   1
M  END
> <s_m_source_file>
AV-unprocessed.smi

> <i_m_source_file_index>
249

> <i_lp_mmshare_version>
43012

> <i_f3d_flags>
0

> <s_epik_input>
W0NIM11bQ0gyXU4xW0NIMl1bQ0gyXVtDQEhdKFtDSDJdW0NASF0xW0NIM10pTihbQ0gzXSljKG5bY0hdbjIpYyhjMjMpbltjSF1uM1tDSDJdW0NASF0oW0NIMl1bT0hdKVtDQEBIXTRbQ0gyXVtDSDJdT1tDSDJdNA==

> <s_epik_cmdline>
J2VwaWtfcHl0aG9uJywgJy1waCcsICc3LjAnLCAnLXRuJywgJzgnLCAnLW1hJywgJzIwMCcsICctbWV0YWxfYmluZGluZycsICctaW1hZScsICc8aW5maWxlLm1hZT4nLCAnLW9tYWUnLCAnPG91dGZpbGUubWFlPic=

> <r_lp_tautomer_probability>
1

> <r_epik_Ionization_Penalty>
0.00294688

> <r_epik_Ionization_Penalty_Charging>
0.00169971

> <r_epik_Ionization_Penalty_Neutral>
0.00124717

> <r_epik_State_Penalty>
-0

> <r_epik_Charging_Adjusted_Penalty>
0.00169971

> <i_epik_Tot_Q>
1

> <i_epik_Tot_abs_Q>
1

> <r_epik_Metal_State_Penalty>
-0

> <b_epik_Metal_Only>
0

> <s_lp_Force_Field>
OPLS_2005

> <r_lp_Energy>
54.7906

> <b_lp_Chiralities_Consistent>
1

> <s_lp_Variant>
AV-unprocessed.smi:249-10

> <Gold.Version>
5.8.1

> <Gold.Id.Protein>
6NUR|6NUR_protein|mol2

> <Gold.PLP.Fitness>
47.2050

> <Gold.PLP.PLP>
-40.4825

> <Gold.PLP.part.hbond>
-2.9549

> <Gold.PLP.part.metal>
0.0000

> <Gold.PLP.part.buried>
-4.1205

> <Gold.PLP.part.nonpolar>
-33.8439

> <Gold.PLP.part.repulsive>
0.0496

> <Gold.PLP.ligand.clash>
0.0000

> <Gold.PLP.ligand.torsion>
1.1229

> <Gold.PLP.Chemscore.Hbond>
2.8880

> <Gold.PLP.Chemscore.CHOScore>
0.0000

> <Gold.PLP.Chemscore.Metal>
0.0000

> <Gold.Chemscore.Hbonds>
donor molecule, donor type, donor heavy atom, donor atom, acceptor molecule, acceptor atom, score
      P1  H  6896  6907       L1    12  0.82
      P1  H  6931  6943       L1    25  0.76
      P1  H  6934  6947       L1    25  1.00

> <Gold.PLP.Chemscore.Internal.Correction>
0.3044

> <Gold.Rescore>
     Score         DG    S(hbond)    S(metal)    S(lipo)     H(rot)  DE(clash)    DE(int)     intcor
     13.69     -16.00       2.19        0.00      85.32       2.65       0.00       2.31       ----

> <Gold.Chemscore.Fitness>
13.6871

> <Gold.Chemscore.DG>
-16.0021

> <Gold.Chemscore.ZeroCoef>
-5.4800

> <Gold.Chemscore.Hbond>
2.1940

> <Gold.Chemscore.Metal>
0.0000

> <Gold.Chemscore.Lipo>
85.3162

> <Gold.Chemscore.Internal_Hbond>
0.0000

> <Gold.Chemscore.DEClash>
0.0022

> <Gold.Chemscore.DEInternal>
2.3128

> <Gold.Chemscore.Rot>
2.6515

> <Gold.Chemscore.Internal.Correction>
   9.000000E+99

> <Gold.Chemscore.Hbonds>
donor molecule, donor type, donor heavy atom, donor atom, acceptor molecule, acceptor atom, score
      P1  H  6896  6907       L1    12  0.27
      P1  H  6931  6943       L1    25  0.16
      P1  H  6934  6947       L1    25  0.66

> <Gold.Chemscore.Hbond.Weighted>
-7.3281

> <Gold.Chemscore.Metal.Weighted>
-0.0000

> <Gold.Chemscore.Lipo.Weighted>
-9.9820

> <Gold.Chemscore.Internal_Hbond.Weighted>
0.0000

> <Gold.Chemscore.DEClash.Weighted>
0.0022

> <Gold.Chemscore.DEInternal.Weighted>
2.3128

> <Gold.Chemscore.Rot.Weighted>
6.7880

> <Gold.Chemscore.Internal.Correction.Weighted>
   9.000000E+99

> <Gold.Protein.RotatedTorsions>
[ 6907 6896 6895 6894 ] final -146.93 input  -60.11 | X-H torsion
[ 7974 7965 7964 7962 ] final   68.41 input  175.53 | X-H torsion
[ 8008 7997 7996 7995 ] final   90.77 input   59.86 | X-H torsion
[ 10167 10162 10161 10158 ] final   93.04 input  -65.29 | X-H torsion
[ 10718 10713 10712 10709 ] final    4.63 input   66.30 | X-H torsion
[ 10763 10752 10751 10750 ] final -177.20 input  -60.55 | X-H torsion
[ 11005 11000 10999 10996 ] final  115.09 input  -57.11 | X-H torsion

> <Gold.Protein.ActiveResidues>
 VAL166  LYS551  ARG553  GLY616  TRP617  ASP618  TYR619  PRO620  LYS621  CYS622 
 ASP623  PHE694  ASN695  SER759  ASP760  ASP761  ALA762  ILE779  LEU786  VAL792 
 PHE793  MET794  SER795  GLU796  ALA797  LYS798  CYS799  TRP800  GLU811  SER814 

> <Gold.Protein.RotatedAtoms>
  151.1485  133.4923  159.2595 H   0  0  0  0  0  0  0  0  0  0  0  0  # atno 6907 bound_to 6896
  151.1579  135.0259  159.8707 H   0  0  0  0  0  0  0  0  0  0  0  0  # atno 6908 bound_to 6896
  152.5463  134.1362  159.8513 H   0  0  0  0  0  0  0  0  0  0  0  0  # atno 6909 bound_to 6896
  145.8029  139.2991  143.1144 H   0  0  0  0  0  0  0  0  0  0  0  0  # atno 7974 bound_to 7965
  156.0159  140.3345  155.6989 H   0  0  0  0  0  0  0  0  0  0  0  0  # atno 8008 bound_to 7997
  155.6091  140.0663  157.2729 H   0  0  0  0  0  0  0  0  0  0  0  0  # atno 8009 bound_to 7997
  154.4298  140.1796  156.1241 H   0  0  0  0  0  0  0  0  0  0  0  0  # atno 8010 bound_to 7997
  139.8218  144.6728  150.9509 H   0  0  0  0  0  0  0  0  0  0  0  0  # atno 10167 bound_to 10162
  156.8955  130.5702  149.5649 H   0  0  0  0  0  0  0  0  0  0  0  0  # atno 10718 bound_to 10713
  154.5631  135.2821  155.0900 H   0  0  0  0  0  0  0  0  0  0  0  0  # atno 10763 bound_to 10752
  154.2302  135.6375  153.5176 H   0  0  0  0  0  0  0  0  0  0  0  0  # atno 10764 bound_to 10752
  153.0035  135.5535  154.6231 H   0  0  0  0  0  0  0  0  0  0  0  0  # atno 10765 bound_to 10752
  139.8999  134.9578  156.6991 H   0  0  0  0  0  0  0  0  0  0  0  0  # atno 11005 bound_to 11000
  145.9859  140.8644  143.0091 LP  0  0  0  0  0  0  0  0  0  0  0  0  # atno 17320 bound_to 7965
  144.6766  140.2146  143.7373 LP  0  0  0  0  0  0  0  0  0  0  0  0  # atno 17321 bound_to 7965
  140.7813  143.4084  151.1032 LP  0  0  0  0  0  0  0  0  0  0  0  0  # atno 17342 bound_to 10162
  139.7744  143.8446  152.3126 LP  0  0  0  0  0  0  0  0  0  0  0  0  # atno 17343 bound_to 10162
  156.0608  130.5661  150.9188 LP  0  0  0  0  0  0  0  0  0  0  0  0  # atno 17370 bound_to 10713
  157.6058  131.0939  150.8881 LP  0  0  0  0  0  0  0  0  0  0  0  0  # atno 17371 bound_to 10713
  140.7164  133.9178  155.8118 LP  0  0  0  0  0  0  0  0  0  0  0  0  # atno 17394 bound_to 11000
  141.0261  134.0822  157.4067 LP  0  0  0  0  0  0  0  0  0  0  0  0  # atno 17395 bound_to 11000

$$$$
