AV-unprocessed.smi:467|AV-procd|sdf|2646|dock4
  -GOLD-   2262023 53D 1   1.00000     0.00000
 Structure written by MMmdl.
 45 47  0  0  0  0  0  0  0  0  2 V2000
  153.2538  142.4438  161.8820 C   0  0  0  0  0  0  0  0  0  0  0  0
  152.6925  142.1538  160.5011 C   0  0  0  0  0  0  0  0  0  0  0  0
  153.0653  140.9592  159.8449 C   0  0  0  0  0  0  0  0  0  0  0  0
  152.5679  140.6536  158.5591 C   0  0  0  0  0  0  0  0  0  0  0  0
  152.7993  139.5595  157.7431 N   0  0  0  0  0  0  0  0  0  0  0  0
  152.0586  139.8569  156.6797 C   0  0  0  0  0  0  0  0  0  0  0  0
  151.3695  141.0138  156.7114 N   0  0  0  0  0  0  0  0  0  0  0  0
  150.5015  141.5414  155.6733 C   0  0  0  0  0  0  0  0  0  0  0  0
  149.6138  140.4557  155.0352 C   0  0  1  0  0  0  0  0  0  0  0  0
  150.3878  139.6800  154.1391 O   0  0  0  0  0  0  0  0  0  0  0  0
  149.0011  139.5216  156.0971 C   0  0  0  0  0  0  0  0  0  0  0  0
  147.7791  140.0930  156.7187 N   0  3  0  0  0  0  0  0  0  0  0  0
  147.0371  139.1002  157.5316 C   0  0  0  0  0  0  0  0  0  0  0  0
  145.7524  139.7240  158.1025 C   0  0  0  0  0  0  0  0  0  0  0  0
  146.0810  140.8764  158.8681 O   0  0  0  0  0  0  0  0  0  0  0  0
  146.7152  141.8756  158.0796 C   0  0  0  0  0  0  0  0  0  0  0  0
  148.0328  141.3234  157.5093 C   0  0  0  0  0  0  0  0  0  0  0  0
  151.6784  141.5823  157.9432 C   0  0  0  0  0  0  0  0  0  0  0  0
  151.2975  142.7727  158.5879 C   0  0  0  0  0  0  0  0  0  0  0  0
  151.8056  143.0634  159.8714 C   0  0  0  0  0  0  0  0  0  0  0  0
  151.3919  144.3535  160.5576 C   0  0  0  0  0  0  0  0  0  0  0  0
  153.9540  141.6701  162.1981 H   0  0  0  0  0  0  0  0  0  0  0  0
  152.4507  142.4900  162.6180 H   0  0  0  0  0  0  0  0  0  0  0  0
  153.7847  143.3961  161.8876 H   0  0  0  0  0  0  0  0  0  0  0  0
  153.7402  140.2656  160.3246 H   0  0  0  0  0  0  0  0  0  0  0  0
  152.0122  139.1943  155.8278 H   0  0  0  0  0  0  0  0  0  0  0  0
  149.8876  142.3360  156.0992 H   0  0  0  0  0  0  0  0  0  0  0  0
  151.1286  142.0090  154.9129 H   0  0  0  0  0  0  0  0  0  0  0  0
  148.8264  140.9464  154.4637 H   0  0  0  0  0  0  0  0  0  0  0  0
  149.9368  139.6333  153.3095 H   0  0  0  0  0  0  0  0  0  0  0  0
  148.7639  138.5672  155.6239 H   0  0  0  0  0  0  0  0  0  0  0  0
  149.7289  139.2973  156.8787 H   0  0  0  0  0  0  0  0  0  0  0  0
  146.7812  138.2354  156.9180 H   0  0  0  0  0  0  0  0  0  0  0  0
  147.6726  138.7423  158.3433 H   0  0  0  0  0  0  0  0  0  0  0  0
  145.0578  139.9887  157.3036 H   0  0  0  0  0  0  0  0  0  0  0  0
  145.2403  139.0072  158.7446 H   0  0  0  0  0  0  0  0  0  0  0  0
  146.0501  142.2026  157.2788 H   0  0  0  0  0  0  0  0  0  0  0  0
  146.9121  142.7466  158.7051 H   0  0  0  0  0  0  0  0  0  0  0  0
  148.7238  141.1011  158.3241 H   0  0  0  0  0  0  0  0  0  0  0  0
  148.5047  142.0863  156.8910 H   0  0  0  0  0  0  0  0  0  0  0  0
  150.6213  143.4580  158.0990 H   0  0  0  0  0  0  0  0  0  0  0  0
  150.6899  144.9220  159.9470 H   0  0  0  0  0  0  0  0  0  0  0  0
  152.2629  144.9832  160.7406 H   0  0  0  0  0  0  0  0  0  0  0  0
  150.9099  144.1422  161.5123 H   0  0  0  0  0  0  0  0  0  0  0  0
  147.1664  140.3497  155.9573 H   0  0  0  0  0  0  0  0  0  0  0  0
  1  2  1  0  0  0  0
  1 22  1  0  0  0  0
  1 23  1  0  0  0  0
  1 24  1  0  0  0  0
  2 20  1  0  0  0  0
  2  3  2  0  0  0  0
  3  4  1  0  0  0  0
  3 25  1  0  0  0  0
  4 18  2  0  0  0  0
  4  5  1  0  0  0  0
  5  6  2  0  0  0  0
  6  7  1  0  0  0  0
  6 26  1  0  0  0  0
  7  8  1  0  0  0  0
  7 18  1  0  0  0  0
  8  9  1  0  0  0  0
  8 27  1  0  0  0  0
  8 28  1  0  0  0  0
  9 10  1  0  0  0  0
  9 11  1  0  0  0  0
  9 29  1  0  0  0  0
 10 30  1  0  0  0  0
 11 12  1  0  0  0  0
 11 31  1  0  0  0  0
 11 32  1  0  0  0  0
 12 17  1  0  0  0  0
 12 13  1  0  0  0  0
 12 45  1  0  0  0  0
 13 14  1  0  0  0  0
 13 33  1  0  0  0  0
 13 34  1  0  0  0  0
 14 15  1  0  0  0  0
 14 35  1  0  0  0  0
 14 36  1  0  0  0  0
 15 16  1  0  0  0  0
 16 17  1  0  0  0  0
 16 37  1  0  0  0  0
 16 38  1  0  0  0  0
 17 39  1  0  0  0  0
 17 40  1  0  0  0  0
 18 19  1  0  0  0  0
 19 20  2  0  0  0  0
 19 41  1  0  0  0  0
 20 21  1  0  0  0  0
 21 42  1  0  0  0  0
 21 43  1  0  0  0  0
 21 44  1  0  0  0  0
M  CHG  1  12   1
M  END
> <s_m_source_file>
AV-unprocessed.smi

> <i_m_source_file_index>
467

> <i_lp_mmshare_version>
43012

> <i_f3d_flags>
0

> <s_epik_input>
W0NIM11jKFtjSF0xKWMoW0NIM10pW2NIXWMoYzEyKW4oW2NIXW4yKVtDSDJdW0NASF0oW09IXSlbQ0gyXU4zW0NIMl1bQ0gyXU9bQ0gyXVtDSDJdMw==

> <s_epik_cmdline>
J2VwaWtfcHl0aG9uJywgJy1waCcsICc3LjAnLCAnLXRuJywgJzgnLCAnLW1hJywgJzIwMCcsICctbWV0YWxfYmluZGluZycsICctaW1hZScsICc8aW5maWxlLm1hZT4nLCAnLW9tYWUnLCAnPG91dGZpbGUubWFlPic=

> <r_epik_Ionization_Penalty>
0.695168

> <r_epik_Ionization_Penalty_Charging>
0.608065

> <r_epik_Ionization_Penalty_Neutral>
0.0871028

> <r_epik_State_Penalty>
0.731876

> <r_epik_Charging_Adjusted_Penalty>
1.33994

> <i_epik_Tot_Q>
1

> <i_epik_Tot_abs_Q>
1

> <r_epik_Metal_State_Penalty>
0.652189

> <b_epik_Metal_Only>
0

> <s_lp_Force_Field>
OPLS_2005

> <r_lp_Energy>
21.2169

> <b_lp_Chiralities_Consistent>
1

> <s_lp_Variant>
AV-unprocessed.smi:467-4

> <Gold.Version>
5.8.1

> <Gold.Id.Protein>
6NUR|6NUR_protein|mol2

> <Gold.PLP.Fitness>
49.0147

> <Gold.PLP.PLP>
-39.4550

> <Gold.PLP.part.hbond>
-4.0000

> <Gold.PLP.part.metal>
0.0000

> <Gold.PLP.part.buried>
-5.2159

> <Gold.PLP.part.nonpolar>
-29.6805

> <Gold.PLP.part.repulsive>
0.0324

> <Gold.PLP.ligand.clash>
0.0000

> <Gold.PLP.ligand.torsion>
0.6614

> <Gold.PLP.Chemscore.Hbond>
3.6160

> <Gold.PLP.Chemscore.CHOScore>
0.0000

> <Gold.PLP.Chemscore.Metal>
0.0000

> <Gold.Chemscore.Hbonds>
donor molecule, donor type, donor heavy atom, donor atom, acceptor molecule, acceptor atom, score
      L1  H    10    30       P1  7957  0.55
      P1  H  6934  6946       L1    15  0.48
      P1  H  7989  7998       L1    10  0.60
      P1  H  7997  8010       L1     5  0.55

> <Gold.PLP.Chemscore.Internal.Correction>
0.0346

> <Gold.Rescore>
     Score         DG    S(hbond)    S(metal)    S(lipo)     H(rot)  DE(clash)    DE(int)     intcor
     17.69     -19.36       2.33        0.00      98.05       2.10       0.15       1.52       ----

> <Gold.Chemscore.Fitness>
17.6949

> <Gold.Chemscore.DG>
-19.3633

> <Gold.Chemscore.ZeroCoef>
-5.4800

> <Gold.Chemscore.Hbond>
2.3325

> <Gold.Chemscore.Metal>
0.0000

> <Gold.Chemscore.Lipo>
98.0494

> <Gold.Chemscore.Internal_Hbond>
0.0000

> <Gold.Chemscore.DEClash>
0.1502

> <Gold.Chemscore.DEInternal>
1.5182

> <Gold.Chemscore.Rot>
2.1011

> <Gold.Chemscore.Internal.Correction>
   9.000000E+99

> <Gold.Chemscore.Hbonds>
donor molecule, donor type, donor heavy atom, donor atom, acceptor molecule, acceptor atom, score
      L1  H    10    30       P1  7957  0.55
      P1  H  6934  6946       L1    15  0.34
      P1  H  7989  7998       L1    10  0.02
      P1  H  7997  8010       L1     5  0.01

> <Gold.Chemscore.Hbond.Weighted>
-7.7904

> <Gold.Chemscore.Metal.Weighted>
-0.0000

> <Gold.Chemscore.Lipo.Weighted>
-11.4718

> <Gold.Chemscore.Internal_Hbond.Weighted>
0.0000

> <Gold.Chemscore.DEClash.Weighted>
0.1502

> <Gold.Chemscore.DEInternal.Weighted>
1.5182

> <Gold.Chemscore.Rot.Weighted>
5.3789

> <Gold.Chemscore.Internal.Correction.Weighted>
   9.000000E+99

> <Gold.Protein.RotatedTorsions>
[ 6907 6896 6895 6894 ] final -176.83 input  -60.11 | X-H torsion
[ 7974 7965 7964 7962 ] final  168.87 input  175.53 | X-H torsion
[ 8008 7997 7996 7995 ] final   50.97 input   59.86 | X-H torsion
[ 10167 10162 10161 10158 ] final   69.13 input  -65.29 | X-H torsion
[ 10718 10713 10712 10709 ] final -123.79 input   66.30 | X-H torsion
[ 10763 10752 10751 10750 ] final  110.68 input  -60.55 | X-H torsion
[ 11005 11000 10999 10996 ] final   56.33 input  -57.11 | X-H torsion

> <Gold.Protein.ActiveResidues>
 VAL166  LYS551  ARG553  GLY616  TRP617  ASP618  TYR619  PRO620  LYS621  CYS622 
 ASP623  PHE694  ASN695  SER759  ASP760  ASP761  ALA762  ILE779  LEU786  VAL792 
 PHE793  MET794  SER795  GLU796  ALA797  LYS798  CYS799  TRP800  GLU811  SER814 

> <Gold.Protein.RotatedAtoms>
  151.6112  133.3347  159.3067 H   0  0  0  0  0  0  0  0  0  0  0  0  # atno 6907 bound_to 6896
  150.8155  134.7338  159.6738 H   0  0  0  0  0  0  0  0  0  0  0  0  # atno 6908 bound_to 6896
  152.4251  134.5888  160.0020 H   0  0  0  0  0  0  0  0  0  0  0  0  # atno 6909 bound_to 6896
  144.7374  139.8971  143.6407 H   0  0  0  0  0  0  0  0  0  0  0  0  # atno 7974 bound_to 7965
  155.4275  140.3449  155.4277 H   0  0  0  0  0  0  0  0  0  0  0  0  # atno 8008 bound_to 7997
  156.1356  140.1527  156.9030 H   0  0  0  0  0  0  0  0  0  0  0  0  # atno 8009 bound_to 7997
  154.4929  140.0836  156.7614 H   0  0  0  0  0  0  0  0  0  0  0  0  # atno 8010 bound_to 7997
  140.0712  144.5151  150.7226 H   0  0  0  0  0  0  0  0  0  0  0  0  # atno 10167 bound_to 10162
  156.1532  130.6549  150.9943 H   0  0  0  0  0  0  0  0  0  0  0  0  # atno 10718 bound_to 10713
  153.4524  135.3741  155.2292 H   0  0  0  0  0  0  0  0  0  0  0  0  # atno 10763 bound_to 10752
  154.8756  135.3889  154.4022 H   0  0  0  0  0  0  0  0  0  0  0  0  # atno 10764 bound_to 10752
  153.4583  135.7086  153.6130 H   0  0  0  0  0  0  0  0  0  0  0  0  # atno 10765 bound_to 10752
  140.0537  134.5700  155.9233 H   0  0  0  0  0  0  0  0  0  0  0  0  # atno 11005 bound_to 11000
  146.1099  139.4103  143.0294 LP  0  0  0  0  0  0  0  0  0  0  0  0  # atno 17320 bound_to 7965
  145.7458  140.9991  143.1277 LP  0  0  0  0  0  0  0  0  0  0  0  0  # atno 17321 bound_to 7965
  140.7125  143.2516  151.4538 LP  0  0  0  0  0  0  0  0  0  0  0  0  # atno 17342 bound_to 10162
  139.5835  144.1656  152.1999 LP  0  0  0  0  0  0  0  0  0  0  0  0  # atno 17343 bound_to 10162
  157.6674  131.0869  150.7696 LP  0  0  0  0  0  0  0  0  0  0  0  0  # atno 17370 bound_to 10713
  156.7763  130.4845  149.5409 LP  0  0  0  0  0  0  0  0  0  0  0  0  # atno 17371 bound_to 10713
  141.1942  133.6582  156.5585 LP  0  0  0  0  0  0  0  0  0  0  0  0  # atno 17394 bound_to 11000
  140.3877  134.7468  157.4701 LP  0  0  0  0  0  0  0  0  0  0  0  0  # atno 17395 bound_to 11000

$$$$
