AV-unprocessed.smi:977|AV-procd|sdf|4305|dock8
  -GOLD-   22720 2213D 1   1.00000     0.00000
 Structure written by MMmdl.
 37 38  0  0  0  0  0  0  0  0  1 V2000
  149.5332  130.8301  153.4016 C   0  0  0  0  0  0  0  0  0  0  0  0
  150.1132  131.9118  154.2702 C   0  0  0  0  0  0  0  0  0  0  0  0
  151.0745  131.6039  155.1286 N   0  0  0  0  0  0  0  0  0  0  0  0
  151.4661  132.8040  155.7424 O   0  0  0  0  0  0  0  0  0  0  0  0
  150.7219  133.8212  155.2347 C   0  0  0  0  0  0  0  0  0  0  0  0
  151.0028  135.1913  155.7523 C   0  0  0  0  0  0  0  0  0  0  0  0
  149.8392  133.3096  154.3304 C   0  0  0  0  0  0  0  0  0  0  0  0
  148.9158  134.0765  153.5772 N   0  0  0  0  0  0  0  0  0  0  0  0
  147.6369  133.7620  153.3225 C   0  0  0  0  0  0  0  0  0  0  0  0
  147.0557  132.7734  153.7703 O   0  0  0  0  0  0  0  0  0  0  0  0
  147.0555  134.6748  152.5309 N   0  0  0  0  0  0  0  0  0  0  0  0
  145.6731  134.6291  152.0586 C   0  0  1  0  0  0  0  0  0  0  0  0
  145.2142  136.0642  151.7561 C   0  0  0  0  0  0  0  0  0  0  0  0
  145.5596  133.7051  150.8260 C   0  0  2  0  0  0  0  0  0  0  0  0
  144.1446  133.5924  150.2490 C   0  0  0  0  0  0  0  0  0  0  0  0
  144.1568  132.2117  149.6353 C   0  0  0  0  0  0  0  0  0  0  0  0
  144.9718  131.4382  150.6630 C   0  0  0  0  0  0  0  0  0  0  0  0
  145.9321  132.3656  151.1556 O   0  0  0  0  0  0  0  0  0  0  0  0
  149.2481  131.2193  152.4241 H   0  0  0  0  0  0  0  0  0  0  0  0
  148.6469  130.3919  153.8606 H   0  0  0  0  0  0  0  0  0  0  0  0
  150.2501  130.0259  153.2331 H   0  0  0  0  0  0  0  0  0  0  0  0
  150.4784  135.9473  155.1678 H   0  0  0  0  0  0  0  0  0  0  0  0
  152.0696  135.4108  155.7073 H   0  0  0  0  0  0  0  0  0  0  0  0
  150.6815  135.2835  156.7897 H   0  0  0  0  0  0  0  0  0  0  0  0
  149.2366  134.9816  153.2660 H   0  0  0  0  0  0  0  0  0  0  0  0
  147.6145  135.4549  152.2179 H   0  0  0  0  0  0  0  0  0  0  0  0
  145.0335  134.2377  152.8518 H   0  0  0  0  0  0  0  0  0  0  0  0
  144.1661  136.0928  151.4580 H   0  0  0  0  0  0  0  0  0  0  0  0
  145.8014  136.5077  150.9511 H   0  0  0  0  0  0  0  0  0  0  0  0
  145.3180  136.7021  152.6343 H   0  0  0  0  0  0  0  0  0  0  0  0
  146.2369  134.0433  150.0400 H   0  0  0  0  0  0  0  0  0  0  0  0
  143.3987  133.6334  151.0443 H   0  0  0  0  0  0  0  0  0  0  0  0
  143.9159  134.3771  149.5273 H   0  0  0  0  0  0  0  0  0  0  0  0
  143.1593  131.7986  149.4830 H   0  0  0  0  0  0  0  0  0  0  0  0
  144.6747  132.2293  148.6753 H   0  0  0  0  0  0  0  0  0  0  0  0
  144.3374  131.1232  151.4921 H   0  0  0  0  0  0  0  0  0  0  0  0
  145.4483  130.5524  150.2432 H   0  0  0  0  0  0  0  0  0  0  0  0
  1  2  1  0  0  0  0
  1 19  1  0  0  0  0
  1 20  1  0  0  0  0
  1 21  1  0  0  0  0
  2  7  1  0  0  0  0
  2  3  2  0  0  0  0
  3  4  1  0  0  0  0
  4  5  1  0  0  0  0
  5  6  1  0  0  0  0
  5  7  2  0  0  0  0
  6 22  1  0  0  0  0
  6 23  1  0  0  0  0
  6 24  1  0  0  0  0
  7  8  1  0  0  0  0
  8  9  1  0  0  0  0
  8 25  1  0  0  0  0
  9 10  2  0  0  0  0
  9 11  1  0  0  0  0
 11 12  1  0  0  0  0
 11 26  1  0  0  0  0
 12 13  1  0  0  0  0
 12 14  1  0  0  0  0
 12 27  1  0  0  0  0
 13 28  1  0  0  0  0
 13 29  1  0  0  0  0
 13 30  1  0  0  0  0
 14 18  1  0  0  0  0
 14 15  1  0  0  0  0
 14 31  1  0  0  0  0
 15 16  1  0  0  0  0
 15 32  1  0  0  0  0
 15 33  1  0  0  0  0
 16 17  1  0  0  0  0
 16 34  1  0  0  0  0
 16 35  1  0  0  0  0
 17 18  1  0  0  0  0
 17 36  1  0  0  0  0
 17 37  1  0  0  0  0
M  END
> <s_m_source_file>
AV-unprocessed.smi

> <i_m_source_file_index>
977

> <i_lp_mmshare_version>
43012

> <i_f3d_flags>
0

> <s_epik_input>
W0NIM11jMW5vYyhbQ0gzXSljMVtOSF1DKD1PKVtOSF1bQ0BIXShbQ0gzXSlbQ0BASF0yW0NIMl1bQ0gyXVtDSDJdTzI=

> <s_epik_cmdline>
J2VwaWtfcHl0aG9uJywgJy1waCcsICc3LjAnLCAnLXRuJywgJzgnLCAnLW1hJywgJzIwMCcsICctbWV0YWxfYmluZGluZycsICctaW1hZScsICc8aW5maWxlLm1hZT4nLCAnLW9tYWUnLCAnPG91dGZpbGUubWFlPic=

> <r_lp_tautomer_probability>
1

> <r_epik_Ionization_Penalty>
3.41601e-05

> <r_epik_Ionization_Penalty_Charging>
0

> <r_epik_Ionization_Penalty_Neutral>
3.41601e-05

> <r_epik_State_Penalty>
-0

> <r_epik_Charging_Adjusted_Penalty>
0

> <i_epik_Tot_Q>
0

> <i_epik_Tot_abs_Q>
0

> <r_epik_Metal_State_Penalty>
-0

> <b_epik_Metal_Only>
0

> <s_lp_Force_Field>
OPLS_2005

> <r_lp_Energy>
19.7508

> <b_lp_Chiralities_Consistent>
1

> <s_lp_Variant>
AV-unprocessed.smi:977-2

> <Gold.Version>
5.8.1

> <Gold.Id.Protein>
6NUR|6NUR_protein|mol2

> <Gold.PLP.Fitness>
34.9516

> <Gold.PLP.PLP>
-30.5521

> <Gold.PLP.part.hbond>
-2.0000

> <Gold.PLP.part.metal>
0.0000

> <Gold.PLP.part.buried>
-4.6761

> <Gold.PLP.part.nonpolar>
-24.4714

> <Gold.PLP.part.repulsive>
0.1774

> <Gold.PLP.ligand.clash>
0.0000

> <Gold.PLP.ligand.torsion>
0.7004

> <Gold.PLP.Chemscore.Hbond>
1.8480

> <Gold.PLP.Chemscore.CHOScore>
0.0000

> <Gold.PLP.Chemscore.Metal>
0.0000

> <Gold.Chemscore.Hbonds>
donor molecule, donor type, donor heavy atom, donor atom, acceptor molecule, acceptor atom, score
      L1  H     8    25       P1  7948  0.56
      L1  H    11    26       P1  7948  1.00

> <Gold.PLP.Chemscore.Internal.Correction>
0.2562

> <Gold.Rescore>
     Score         DG    S(hbond)    S(metal)    S(lipo)     H(rot)  DE(clash)    DE(int)     intcor
     15.54     -16.31       1.56        0.00      74.66       1.22       0.06       0.71       ----

> <Gold.Chemscore.Fitness>
15.5394

> <Gold.Chemscore.DG>
-16.3058

> <Gold.Chemscore.ZeroCoef>
-5.4800

> <Gold.Chemscore.Hbond>
1.5610

> <Gold.Chemscore.Metal>
0.0000

> <Gold.Chemscore.Lipo>
74.6601

> <Gold.Chemscore.Internal_Hbond>
0.0000

> <Gold.Chemscore.DEClash>
0.0581

> <Gold.Chemscore.DEInternal>
0.7083

> <Gold.Chemscore.Rot>
1.2200

> <Gold.Chemscore.Internal.Correction>
   9.000000E+99

> <Gold.Chemscore.Hbonds>
donor molecule, donor type, donor heavy atom, donor atom, acceptor molecule, acceptor atom, score
      L1  H     8    25       P1  7948  0.06
      L1  H    11    26       P1  7948  0.94

> <Gold.Chemscore.Hbond.Weighted>
-5.2137

> <Gold.Chemscore.Metal.Weighted>
-0.0000

> <Gold.Chemscore.Lipo.Weighted>
-8.7352

> <Gold.Chemscore.Internal_Hbond.Weighted>
0.0000

> <Gold.Chemscore.DEClash.Weighted>
0.0581

> <Gold.Chemscore.DEInternal.Weighted>
0.7083

> <Gold.Chemscore.Rot.Weighted>
3.1232

> <Gold.Chemscore.Internal.Correction.Weighted>
   9.000000E+99

> <Gold.Protein.RotatedTorsions>
[ 6907 6896 6895 6894 ] final   66.83 input  -60.11 | X-H torsion
[ 7974 7965 7964 7962 ] final  -47.07 input  175.53 | X-H torsion
[ 8008 7997 7996 7995 ] final  158.50 input   59.86 | X-H torsion
[ 10167 10162 10161 10158 ] final  -47.60 input  -65.29 | X-H torsion
[ 10718 10713 10712 10709 ] final  133.82 input   66.30 | X-H torsion
[ 10763 10752 10751 10750 ] final   -5.52 input  -60.55 | X-H torsion
[ 11005 11000 10999 10996 ] final  -69.59 input  -57.11 | X-H torsion

> <Gold.Protein.ActiveResidues>
 VAL166  LYS551  ARG553  GLY616  TRP617  ASP618  TYR619  PRO620  LYS621  CYS622 
 ASP623  PHE694  ASN695  SER759  ASP760  ASP761  ALA762  ILE779  LEU786  VAL792 
 PHE793  MET794  SER795  GLU796  ALA797  LYS798  CYS799  TRP800  GLU811  SER814 

> <Gold.Protein.RotatedAtoms>
  152.4509  134.5396  159.9834 H   0  0  0  0  0  0  0  0  0  0  0  0  # atno 6907 bound_to 6896
  151.5468  133.3418  159.2953 H   0  0  0  0  0  0  0  0  0  0  0  0  # atno 6908 bound_to 6896
  150.8438  134.7771  159.7017 H   0  0  0  0  0  0  0  0  0  0  0  0  # atno 6909 bound_to 6896
  145.9654  140.7437  142.9437 H   0  0  0  0  0  0  0  0  0  0  0  0  # atno 7974 bound_to 7965
  156.2298  140.1856  156.7270 H   0  0  0  0  0  0  0  0  0  0  0  0  # atno 8008 bound_to 7997
  154.6003  140.0637  156.9387 H   0  0  0  0  0  0  0  0  0  0  0  0  # atno 8009 bound_to 7997
  155.2185  140.3305  155.4321 H   0  0  0  0  0  0  0  0  0  0  0  0  # atno 8010 bound_to 7997
  140.6768  143.2777  151.3950 H   0  0  0  0  0  0  0  0  0  0  0  0  # atno 10167 bound_to 10162
  157.4734  131.1081  150.9774 H   0  0  0  0  0  0  0  0  0  0  0  0  # atno 10718 bound_to 10713
  153.3997  135.7004  153.6435 H   0  0  0  0  0  0  0  0  0  0  0  0  # atno 10763 bound_to 10752
  153.4973  135.3660  155.2523 H   0  0  0  0  0  0  0  0  0  0  0  0  # atno 10764 bound_to 10752
  154.8709  135.4103  154.3329 H   0  0  0  0  0  0  0  0  0  0  0  0  # atno 10765 bound_to 10752
  141.1557  133.6768  156.6622 H   0  0  0  0  0  0  0  0  0  0  0  0  # atno 11005 bound_to 11000
  144.6824  140.2660  143.7312 LP  0  0  0  0  0  0  0  0  0  0  0  0  # atno 17320 bound_to 7965
  145.7981  139.1953  143.2064 LP  0  0  0  0  0  0  0  0  0  0  0  0  # atno 17321 bound_to 7965
  139.6065  144.1187  152.2254 LP  0  0  0  0  0  0  0  0  0  0  0  0  # atno 17342 bound_to 10162
  140.0587  144.5874  150.7279 LP  0  0  0  0  0  0  0  0  0  0  0  0  # atno 17343 bound_to 10162
  157.0531  130.5795  149.5373 LP  0  0  0  0  0  0  0  0  0  0  0  0  # atno 17370 bound_to 10713
  156.0085  130.5174  150.7909 LP  0  0  0  0  0  0  0  0  0  0  0  0  # atno 17371 bound_to 10713
  140.3239  134.7985  157.4273 LP  0  0  0  0  0  0  0  0  0  0  0  0  # atno 17394 bound_to 11000
  140.1074  134.5391  155.8297 LP  0  0  0  0  0  0  0  0  0  0  0  0  # atno 17395 bound_to 11000

$$$$
