AV-unprocessed.smi:1662|AV-procd|sdf|6662|dock5
  -GOLD-   22720 7373D 1   1.00000     0.00000
 Structure written by MMmdl.
 47 48  0  0  0  0  0  0  0  0  1 V2000
  155.6614  139.3301  163.8020 C   0  0  0  0  0  0  0  0  0  0  0  0
  155.2254  138.2745  162.8219 C   0  0  0  0  0  0  0  0  0  0  0  0
  154.3374  138.6235  161.9500 N   0  0  0  0  0  0  0  0  0  0  0  0
  153.8643  137.7303  161.0083 N   0  0  0  0  0  0  0  0  0  0  0  0
  152.8396  138.2869  160.1130 C   0  0  0  0  0  0  0  0  0  0  0  0
  153.2488  139.6348  159.5030 C   0  0  0  0  0  0  0  0  0  0  0  0
  154.4214  139.8528  159.1952 O   0  0  0  0  0  0  0  0  0  0  0  0
  152.2605  140.5232  159.3203 N   0  0  0  0  0  0  0  0  0  0  0  0
  152.4214  141.8747  158.7874 C   0  0  1  0  0  0  0  0  0  0  0  0
  151.4253  142.0843  157.6314 C   0  0  0  0  0  0  0  0  0  0  0  0
  151.5229  143.5032  157.0638 C   0  0  0  0  0  0  0  0  0  0  0  0
  151.2967  144.5425  158.1673 C   0  0  0  0  0  0  0  0  0  0  0  0
  152.2945  144.3724  159.3306 C   0  0  1  0  0  0  0  0  0  0  0  0
  152.0414  145.4620  160.3888 C   0  0  0  0  0  0  0  0  0  0  0  0
  152.2376  142.9305  159.9113 C   0  0  2  0  0  0  0  0  0  0  0  0
  153.2698  142.7221  161.0419 C   0  0  0  0  0  0  0  0  0  0  0  0
  154.2783  136.4357  160.8886 C   0  0  0  0  0  0  0  0  0  0  0  0
  153.8378  135.6765  160.0237 O   0  0  0  0  0  0  0  0  0  0  0  0
  155.2832  136.0470  161.8806 C   0  0  0  0  0  0  0  0  0  0  0  0
  155.7369  134.6962  161.7969 C   0  0  0  0  0  0  0  0  0  0  0  0
  156.0861  133.5948  161.7259 N   0  0  0  0  0  0  0  0  0  0  0  0
  155.7483  136.9120  162.8163 C   0  0  0  0  0  0  0  0  0  0  0  0
  156.7907  136.5578  163.8680 C   0  0  0  0  0  0  0  0  0  0  0  0
  156.7428  139.4651  163.7725 H   0  0  0  0  0  0  0  0  0  0  0  0
  155.3825  139.0509  164.8181 H   0  0  0  0  0  0  0  0  0  0  0  0
  155.2040  140.2975  163.5887 H   0  0  0  0  0  0  0  0  0  0  0  0
  152.6332  137.5958  159.2938 H   0  0  0  0  0  0  0  0  0  0  0  0
  151.8958  138.3925  160.6518 H   0  0  0  0  0  0  0  0  0  0  0  0
  151.3266  140.2533  159.5941 H   0  0  0  0  0  0  0  0  0  0  0  0
  153.4332  141.9862  158.3920 H   0  0  0  0  0  0  0  0  0  0  0  0
  151.6142  141.3619  156.8362 H   0  0  0  0  0  0  0  0  0  0  0  0
  150.4075  141.9016  157.9796 H   0  0  0  0  0  0  0  0  0  0  0  0
  152.5032  143.6530  156.6097 H   0  0  0  0  0  0  0  0  0  0  0  0
  150.7881  143.6376  156.2696 H   0  0  0  0  0  0  0  0  0  0  0  0
  151.3867  145.5426  157.7414 H   0  0  0  0  0  0  0  0  0  0  0  0
  150.2755  144.4582  158.5415 H   0  0  0  0  0  0  0  0  0  0  0  0
  153.2963  144.5342  158.9293 H   0  0  0  0  0  0  0  0  0  0  0  0
  151.0899  145.3074  160.8983 H   0  0  0  0  0  0  0  0  0  0  0  0
  152.0147  146.4516  159.9317 H   0  0  0  0  0  0  0  0  0  0  0  0
  152.8274  145.4881  161.1428 H   0  0  0  0  0  0  0  0  0  0  0  0
  151.2458  142.7860  160.3432 H   0  0  0  0  0  0  0  0  0  0  0  0
  154.2839  142.9124  160.6897 H   0  0  0  0  0  0  0  0  0  0  0  0
  153.2444  141.7066  161.4369 H   0  0  0  0  0  0  0  0  0  0  0  0
  153.0810  143.3804  161.8888 H   0  0  0  0  0  0  0  0  0  0  0  0
  157.0705  135.5052  163.8341 H   0  0  0  0  0  0  0  0  0  0  0  0
  156.4111  136.7608  164.8699 H   0  0  0  0  0  0  0  0  0  0  0  0
  157.6974  137.1448  163.7178 H   0  0  0  0  0  0  0  0  0  0  0  0
  1  2  1  0  0  0  0
  1 24  1  0  0  0  0
  1 25  1  0  0  0  0
  1 26  1  0  0  0  0
  2 22  1  0  0  0  0
  2  3  2  0  0  0  0
  3  4  1  0  0  0  0
  4  5  1  0  0  0  0
  4 17  1  0  0  0  0
  5  6  1  0  0  0  0
  5 27  1  0  0  0  0
  5 28  1  0  0  0  0
  6  7  2  0  0  0  0
  6  8  1  0  0  0  0
  8  9  1  0  0  0  0
  8 29  1  0  0  0  0
  9 15  1  0  0  0  0
  9 10  1  0  0  0  0
  9 30  1  0  0  0  0
 10 11  1  0  0  0  0
 10 31  1  0  0  0  0
 10 32  1  0  0  0  0
 11 12  1  0  0  0  0
 11 33  1  0  0  0  0
 11 34  1  0  0  0  0
 12 13  1  0  0  0  0
 12 35  1  0  0  0  0
 12 36  1  0  0  0  0
 13 14  1  0  0  0  0
 13 15  1  0  0  0  0
 13 37  1  0  0  0  0
 14 38  1  0  0  0  0
 14 39  1  0  0  0  0
 14 40  1  0  0  0  0
 15 16  1  0  0  0  0
 15 41  1  0  0  0  0
 16 42  1  0  0  0  0
 16 43  1  0  0  0  0
 16 44  1  0  0  0  0
 17 18  2  0  0  0  0
 17 19  1  0  0  0  0
 19 20  1  0  0  0  0
 19 22  2  0  0  0  0
 20 21  3  0  0  0  0
 22 23  1  0  0  0  0
 23 45  1  0  0  0  0
 23 46  1  0  0  0  0
 23 47  1  0  0  0  0
M  END
> <s_m_source_file>
AV-unprocessed.smi

> <i_m_source_file_index>
1662

> <i_lp_mmshare_version>
43012

> <i_f3d_flags>
0

> <s_epik_input>
TiNDYyhjMVtDSDNdKWMoPU8pbihuYzFbQ0gzXSlbQ0gyXUMoPU8pW05IXVtDQEBIXTJbQ0gyXVtDSDJdW0NIMl1bQ0BASF0oW0NIM10pW0NASF0yW0NIM10=

> <s_epik_cmdline>
J2VwaWtfcHl0aG9uJywgJy1waCcsICc3LjAnLCAnLXRuJywgJzgnLCAnLW1hJywgJzIwMCcsICctbWV0YWxfYmluZGluZycsICctaW1hZScsICc8aW5maWxlLm1hZT4nLCAnLW9tYWUnLCAnPG91dGZpbGUubWFlPic=

> <r_lp_tautomer_probability>
1

> <r_epik_Ionization_Penalty>
1.90709e-08

> <r_epik_Ionization_Penalty_Charging>
2.37982e-11

> <r_epik_Ionization_Penalty_Neutral>
1.90471e-08

> <r_epik_State_Penalty>
-0

> <r_epik_Charging_Adjusted_Penalty>
2.37982e-11

> <i_epik_Tot_Q>
0

> <i_epik_Tot_abs_Q>
0

> <r_epik_Metal_State_Penalty>
-0

> <b_epik_Metal_Only>
0

> <s_lp_Force_Field>
OPLS_2005

> <r_lp_Energy>
26.9998

> <b_lp_Chiralities_Consistent>
1

> <s_lp_Variant>
AV-unprocessed.smi:1662-6

> <Gold.Version>
5.8.1

> <Gold.Id.Protein>
6NUR|6NUR_protein|mol2

> <Gold.PLP.Fitness>
44.7297

> <Gold.PLP.PLP>
-39.8191

> <Gold.PLP.part.hbond>
-2.0000

> <Gold.PLP.part.metal>
0.0000

> <Gold.PLP.part.buried>
-5.4942

> <Gold.PLP.part.nonpolar>
-31.7282

> <Gold.PLP.part.repulsive>
0.1367

> <Gold.PLP.ligand.clash>
0.0000

> <Gold.PLP.ligand.torsion>
0.5494

> <Gold.PLP.Chemscore.Hbond>
2.0000

> <Gold.PLP.Chemscore.CHOScore>
0.0000

> <Gold.PLP.Chemscore.Metal>
0.0000

> <Gold.Chemscore.Hbonds>
donor molecule, donor type, donor heavy atom, donor atom, acceptor molecule, acceptor atom, score
      P1  H  6896  6907       L1    18  1.00
      P1  H  7997  8009       L1     7  1.00

> <Gold.PLP.Chemscore.Internal.Correction>
0.0094

> <Gold.Rescore>
     Score         DG    S(hbond)    S(metal)    S(lipo)     H(rot)  DE(clash)    DE(int)     intcor
     20.83     -21.41       1.94        0.00     112.39       1.45       0.07       0.51       ----

> <Gold.Chemscore.Fitness>
20.8314

> <Gold.Chemscore.DG>
-21.4060

> <Gold.Chemscore.ZeroCoef>
-5.4800

> <Gold.Chemscore.Hbond>
1.9428

> <Gold.Chemscore.Metal>
0.0000

> <Gold.Chemscore.Lipo>
112.3926

> <Gold.Chemscore.Internal_Hbond>
0.0000

> <Gold.Chemscore.DEClash>
0.0692

> <Gold.Chemscore.DEInternal>
0.5053

> <Gold.Chemscore.Rot>
1.4504

> <Gold.Chemscore.Internal.Correction>
   9.000000E+99

> <Gold.Chemscore.Hbonds>
donor molecule, donor type, donor heavy atom, donor atom, acceptor molecule, acceptor atom, score
      P1  H  6896  6907       L1    18  1.00
      P1  H  7997  8009       L1     7  0.92

> <Gold.Chemscore.Hbond.Weighted>
-6.4890

> <Gold.Chemscore.Metal.Weighted>
-0.0000

> <Gold.Chemscore.Lipo.Weighted>
-13.1499

> <Gold.Chemscore.Internal_Hbond.Weighted>
0.0000

> <Gold.Chemscore.DEClash.Weighted>
0.0692

> <Gold.Chemscore.DEInternal.Weighted>
0.5053

> <Gold.Chemscore.Rot.Weighted>
3.7129

> <Gold.Chemscore.Internal.Correction.Weighted>
   9.000000E+99

> <Gold.Protein.RotatedTorsions>
[ 6907 6896 6895 6894 ] final   50.96 input  -60.11 | X-H torsion
[ 7974 7965 7964 7962 ] final    2.56 input  175.53 | X-H torsion
[ 8008 7997 7996 7995 ] final  131.77 input   59.86 | X-H torsion
[ 10167 10162 10161 10158 ] final   70.34 input  -65.29 | X-H torsion
[ 10718 10713 10712 10709 ] final  -48.71 input   66.30 | X-H torsion
[ 10763 10752 10751 10750 ] final  -25.64 input  -60.55 | X-H torsion
[ 11005 11000 10999 10996 ] final  177.29 input  -57.11 | X-H torsion

> <Gold.Protein.ActiveResidues>
 VAL166  LYS551  ARG553  GLY616  TRP617  ASP618  TYR619  PRO620  LYS621  CYS622 
 ASP623  PHE694  ASN695  SER759  ASP760  ASP761  ALA762  ILE779  LEU786  VAL792 
 PHE793  MET794  SER795  GLU796  ALA797  LYS798  CYS799  TRP800  GLU811  SER814 

> <Gold.Protein.RotatedAtoms>
  152.3075  134.7538  160.0343 H   0  0  0  0  0  0  0  0  0  0  0  0  # atno 6907 bound_to 6896
  151.8030  133.3367  159.3540 H   0  0  0  0  0  0  0  0  0  0  0  0  # atno 6908 bound_to 6896
  150.7303  134.5666  159.5913 H   0  0  0  0  0  0  0  0  0  0  0  0  # atno 6909 bound_to 6896
  146.2444  140.0817  142.8356 H   0  0  0  0  0  0  0  0  0  0  0  0  # atno 7974 bound_to 7965
  156.2974  140.2563  156.2980 H   0  0  0  0  0  0  0  0  0  0  0  0  # atno 8008 bound_to 7997
  154.9445  140.0395  157.2132 H   0  0  0  0  0  0  0  0  0  0  0  0  # atno 8009 bound_to 7997
  154.8095  140.2842  155.5868 H   0  0  0  0  0  0  0  0  0  0  0  0  # atno 8010 bound_to 7997
  140.0580  144.5257  150.7315 H   0  0  0  0  0  0  0  0  0  0  0  0  # atno 10167 bound_to 10162
  156.1962  130.4154  149.9304 H   0  0  0  0  0  0  0  0  0  0  0  0  # atno 10718 bound_to 10713
  153.7030  135.6955  153.5058 H   0  0  0  0  0  0  0  0  0  0  0  0  # atno 10763 bound_to 10752
  153.2328  135.4332  155.0613 H   0  0  0  0  0  0  0  0  0  0  0  0  # atno 10764 bound_to 10752
  154.8338  135.3488  154.6569 H   0  0  0  0  0  0  0  0  0  0  0  0  # atno 10765 bound_to 10752
  140.3825  134.6934  157.4459 H   0  0  0  0  0  0  0  0  0  0  0  0  # atno 11005 bound_to 11000
  145.0727  140.9166  143.4872 LP  0  0  0  0  0  0  0  0  0  0  0  0  # atno 17320 bound_to 7965
  145.0954  139.2860  143.5713 LP  0  0  0  0  0  0  0  0  0  0  0  0  # atno 17321 bound_to 7965
  140.7185  143.2567  151.4354 LP  0  0  0  0  0  0  0  0  0  0  0  0  # atno 17342 bound_to 10162
  139.5912  144.1496  152.2090 LP  0  0  0  0  0  0  0  0  0  0  0  0  # atno 17343 bound_to 10162
  156.7028  130.8940  151.3601 LP  0  0  0  0  0  0  0  0  0  0  0  0  # atno 17370 bound_to 10713
  157.6959  130.9281  150.0642 LP  0  0  0  0  0  0  0  0  0  0  0  0  # atno 17371 bound_to 10713
  140.0467  134.6189  155.8912 LP  0  0  0  0  0  0  0  0  0  0  0  0  # atno 17394 bound_to 11000
  141.1918  133.6573  156.5475 LP  0  0  0  0  0  0  0  0  0  0  0  0  # atno 17395 bound_to 11000

$$$$
