AV-unprocessed.smi:508|AV-procd|sdf|2758|dock9
  -GOLD-   2262023223D 1   1.00000     0.00000
 Structure written by MMmdl.
 49 51  0  0  0  0  0  0  0  0  1 V2000
  147.1226  141.8816  154.3400 C   0  0  0  0  0  0  0  0  0  0  0  0
  147.4384  141.5948  155.8097 C   0  0  0  0  0  0  0  0  0  0  0  0
  147.3172  140.2017  156.0413 O   0  0  0  0  0  0  0  0  0  0  0  0
  147.5823  139.8426  157.3865 C   0  0  0  0  0  0  0  0  0  0  0  0
  147.7589  138.3170  157.4559 C   0  0  0  0  0  0  0  0  0  0  0  0
  148.8584  137.9174  158.3289 N   0  0  0  0  0  0  0  0  0  0  0  0
  148.8539  137.1109  159.4339 C   0  0  0  0  0  0  0  0  0  0  0  0
  147.7137  136.4547  159.9315 N   0  0  0  0  0  0  0  0  0  0  0  0
  146.3118  136.7543  159.6344 C   0  0  0  0  0  0  0  0  0  0  0  0
  145.4547  137.1069  160.8684 C   0  0  0  0  0  0  0  0  0  0  0  0
  145.0680  135.8795  161.7063 C   0  0  0  0  0  0  0  0  0  0  0  0
  146.1432  135.4125  162.7036 C   0  0  0  0  0  0  0  0  0  0  0  0
  147.6018  135.4796  162.2148 C   0  0  0  0  0  0  0  0  0  0  0  0
  147.8008  135.2180  160.7129 C   0  0  0  0  0  0  0  0  0  0  0  0
  150.0457  137.0165  160.0350 N   0  0  0  0  0  0  0  0  0  0  0  0
  150.8748  137.8020  159.2545 C   0  0  0  0  0  0  0  0  0  0  0  0
  150.1822  138.3555  158.2295 C   0  0  0  0  0  0  0  0  0  0  0  0
  150.8131  139.2608  157.2568 C   0  0  0  0  0  0  0  0  0  0  0  0
  150.2060  139.7938  156.3307 O   0  0  0  0  0  0  0  0  0  0  0  0
  152.1355  139.4507  157.4848 N   0  0  0  0  0  0  0  0  0  0  0  0
  152.8907  138.9160  158.4918 C   0  0  0  0  0  0  0  0  0  0  0  0
  154.0912  139.1775  158.5662 O   0  0  0  0  0  0  0  0  0  0  0  0
  152.2613  138.0957  159.3922 N   0  0  0  0  0  0  0  0  0  0  0  0
  153.0171  137.5012  160.4965 C   0  0  0  0  0  0  0  0  0  0  0  0
  152.6178  140.0583  156.8388 H   0  0  0  0  0  0  0  0  0  0  0  0
  147.2061  142.9466  154.1240 H   0  0  0  0  0  0  0  0  0  0  0  0
  146.1090  141.5675  154.0894 H   0  0  0  0  0  0  0  0  0  0  0  0
  147.8111  141.3517  153.6813 H   0  0  0  0  0  0  0  0  0  0  0  0
  148.4501  141.9290  156.0439 H   0  0  0  0  0  0  0  0  0  0  0  0
  146.7502  142.1445  156.4534 H   0  0  0  0  0  0  0  0  0  0  0  0
  148.4755  140.3570  157.7406 H   0  0  0  0  0  0  0  0  0  0  0  0
  146.7598  140.1643  158.0256 H   0  0  0  0  0  0  0  0  0  0  0  0
  146.8411  137.8518  157.8148 H   0  0  0  0  0  0  0  0  0  0  0  0
  147.9070  137.8994  156.4653 H   0  0  0  0  0  0  0  0  0  0  0  0
  146.2608  137.5682  158.9185 H   0  0  0  0  0  0  0  0  0  0  0  0
  145.8707  135.9060  159.1093 H   0  0  0  0  0  0  0  0  0  0  0  0
  145.9320  137.8606  161.4940 H   0  0  0  0  0  0  0  0  0  0  0  0
  144.5338  137.5630  160.5045 H   0  0  0  0  0  0  0  0  0  0  0  0
  144.1596  136.1015  162.2672 H   0  0  0  0  0  0  0  0  0  0  0  0
  144.8023  135.0576  161.0402 H   0  0  0  0  0  0  0  0  0  0  0  0
  146.0642  136.0003  163.6189 H   0  0  0  0  0  0  0  0  0  0  0  0
  145.9102  134.3876  162.9950 H   0  0  0  0  0  0  0  0  0  0  0  0
  148.0362  136.4463  162.4749 H   0  0  0  0  0  0  0  0  0  0  0  0
  148.1776  134.7468  162.7810 H   0  0  0  0  0  0  0  0  0  0  0  0
  147.0963  134.4685  160.3496 H   0  0  0  0  0  0  0  0  0  0  0  0
  148.7852  134.7722  160.5725 H   0  0  0  0  0  0  0  0  0  0  0  0
  153.7315  136.7710  160.1148 H   0  0  0  0  0  0  0  0  0  0  0  0
  152.3759  136.9908  161.2153 H   0  0  0  0  0  0  0  0  0  0  0  0
  153.5698  138.2646  161.0462 H   0  0  0  0  0  0  0  0  0  0  0  0
  1  2  1  0  0  0  0
  1 26  1  0  0  0  0
  1 27  1  0  0  0  0
  1 28  1  0  0  0  0
  2  3  1  0  0  0  0
  2 29  1  0  0  0  0
  2 30  1  0  0  0  0
  3  4  1  0  0  0  0
  4  5  1  0  0  0  0
  4 31  1  0  0  0  0
  4 32  1  0  0  0  0
  5  6  1  0  0  0  0
  5 33  1  0  0  0  0
  5 34  1  0  0  0  0
  6 17  1  0  0  0  0
  6  7  1  0  0  0  0
  7  8  1  0  0  0  0
  7 15  2  0  0  0  0
  8 14  1  0  0  0  0
  8  9  1  0  0  0  0
  9 10  1  0  0  0  0
  9 35  1  0  0  0  0
  9 36  1  0  0  0  0
 10 11  1  0  0  0  0
 10 37  1  0  0  0  0
 10 38  1  0  0  0  0
 11 12  1  0  0  0  0
 11 39  1  0  0  0  0
 11 40  1  0  0  0  0
 12 13  1  0  0  0  0
 12 41  1  0  0  0  0
 12 42  1  0  0  0  0
 13 14  1  0  0  0  0
 13 43  1  0  0  0  0
 13 44  1  0  0  0  0
 14 45  1  0  0  0  0
 14 46  1  0  0  0  0
 15 16  1  0  0  0  0
 16 23  1  0  0  0  0
 16 17  2  0  0  0  0
 17 18  1  0  0  0  0
 18 19  2  0  0  0  0
 18 20  1  0  0  0  0
 20 25  1  0  0  0  0
 20 21  1  0  0  0  0
 21 22  2  0  0  0  0
 21 23  1  0  0  0  0
 23 24  1  0  0  0  0
 24 47  1  0  0  0  0
 24 48  1  0  0  0  0
 24 49  1  0  0  0  0
M  END
> <s_m_source_file>
AV-unprocessed.smi

> <i_m_source_file_index>
508

> <i_lp_mmshare_version>
43012

> <i_f3d_flags>
0

> <s_epik_input>
W0NIM11uMWMoPU8pW25IXWMoPU8pYyhjMTIpbihbQ0gyXVtDSDJdT1tDSDJdW0NIM10pYyhuMilOM1tDSDJdW0NIMl1bQ0gyXVtDSDJdW0NIMl1bQ0gyXTM=

> <s_epik_cmdline>
J2VwaWtfcHl0aG9uJywgJy1waCcsICc3LjAnLCAnLXRuJywgJzgnLCAnLW1hJywgJzIwMCcsICctbWV0YWxfYmluZGluZycsICctaW1hZScsICc8aW5maWxlLm1hZT4nLCAnLW9tYWUnLCAnPG91dGZpbGUubWFlPic=

> <r_lp_tautomer_probability>
1

> <r_epik_Ionization_Penalty>
0.000193589

> <r_epik_Ionization_Penalty_Charging>
2.00901e-05

> <r_epik_Ionization_Penalty_Neutral>
0.000173499

> <r_epik_State_Penalty>
-0

> <r_epik_Charging_Adjusted_Penalty>
2.00901e-05

> <i_epik_Tot_Q>
0

> <i_epik_Tot_abs_Q>
0

> <r_epik_Metal_State_Penalty>
0.0191145

> <b_epik_Metal_Only>
0

> <s_lp_Force_Field>
OPLS_2005

> <r_lp_Energy>
44.1417

> <b_lp_Chiralities_Consistent>
1

> <s_lp_Variant>
AV-unprocessed.smi:508-1

> <Gold.Version>
5.8.1

> <Gold.Id.Protein>
6NUR|6NUR_protein|mol2

> <Gold.PLP.Fitness>
36.4360

> <Gold.PLP.PLP>
-31.6445

> <Gold.PLP.part.hbond>
-2.6958

> <Gold.PLP.part.metal>
0.0000

> <Gold.PLP.part.buried>
-5.9170

> <Gold.PLP.part.nonpolar>
-24.4315

> <Gold.PLP.part.repulsive>
0.0980

> <Gold.PLP.ligand.clash>
0.0000

> <Gold.PLP.ligand.torsion>
0.5824

> <Gold.PLP.Chemscore.Hbond>
1.9750

> <Gold.PLP.Chemscore.CHOScore>
0.0000

> <Gold.PLP.Chemscore.Metal>
0.0000

> <Gold.Chemscore.Hbonds>
donor molecule, donor type, donor heavy atom, donor atom, acceptor molecule, acceptor atom, score
      P1  H  6896  6908       L1    15  0.54
      P1  H  7997  8010       L1    22  1.00

> <Gold.PLP.Chemscore.Internal.Correction>
0.0313

> <Gold.Rescore>
     Score         DG    S(hbond)    S(metal)    S(lipo)     H(rot)  DE(clash)    DE(int)     intcor
     11.63     -13.02       1.88        0.00      45.38       1.58       0.00       1.38       ----

> <Gold.Chemscore.Fitness>
11.6313

> <Gold.Chemscore.DG>
-13.0184

> <Gold.Chemscore.ZeroCoef>
-5.4800

> <Gold.Chemscore.Hbond>
1.8788

> <Gold.Chemscore.Metal>
0.0000

> <Gold.Chemscore.Lipo>
45.3788

> <Gold.Chemscore.Internal_Hbond>
0.0000

> <Gold.Chemscore.DEClash>
0.0044

> <Gold.Chemscore.DEInternal>
1.3827

> <Gold.Chemscore.Rot>
1.5806

> <Gold.Chemscore.Internal.Correction>
   9.000000E+99

> <Gold.Chemscore.Hbonds>
donor molecule, donor type, donor heavy atom, donor atom, acceptor molecule, acceptor atom, score
      P1  H  6896  6908       L1    15  0.13
      P1  H  7997  8010       L1    22  0.99

> <Gold.Chemscore.Hbond.Weighted>
-6.2753

> <Gold.Chemscore.Metal.Weighted>
-0.0000

> <Gold.Chemscore.Lipo.Weighted>
-5.3093

> <Gold.Chemscore.Internal_Hbond.Weighted>
0.0000

> <Gold.Chemscore.DEClash.Weighted>
0.0044

> <Gold.Chemscore.DEInternal.Weighted>
1.3827

> <Gold.Chemscore.Rot.Weighted>
4.0463

> <Gold.Chemscore.Internal.Correction.Weighted>
   9.000000E+99

> <Gold.Protein.RotatedTorsions>
[ 6907 6896 6895 6894 ] final -148.60 input  -60.11 | X-H torsion
[ 7974 7965 7964 7962 ] final  127.99 input  175.53 | X-H torsion
[ 8008 7997 7996 7995 ] final    9.11 input   59.86 | X-H torsion
[ 10167 10162 10161 10158 ] final  -15.28 input  -65.29 | X-H torsion
[ 10718 10713 10712 10709 ] final   42.75 input   66.30 | X-H torsion
[ 10763 10752 10751 10750 ] final  136.50 input  -60.55 | X-H torsion
[ 11005 11000 10999 10996 ] final -168.23 input  -57.11 | X-H torsion

> <Gold.Protein.ActiveResidues>
 VAL166  LYS551  ARG553  GLY616  TRP617  ASP618  TYR619  PRO620  LYS621  CYS622 
 ASP623  PHE694  ASN695  SER759  ASP760  ASP761  ALA762  ILE779  LEU786  VAL792 
 PHE793  MET794  SER795  GLU796  ALA797  LYS798  CYS799  TRP800  GLU811  SER814 

> <Gold.Protein.RotatedAtoms>
  151.1721  133.4777  159.2593 H   0  0  0  0  0  0  0  0  0  0  0  0  # atno 6907 bound_to 6896
  151.1345  135.0147  159.8607 H   0  0  0  0  0  0  0  0  0  0  0  0  # atno 6908 bound_to 6896
  152.5461  134.1621  159.8615 H   0  0  0  0  0  0  0  0  0  0  0  0  # atno 6909 bound_to 6896
  145.0444  139.3935  143.5085 H   0  0  0  0  0  0  0  0  0  0  0  0  # atno 7974 bound_to 7965
  154.7757  140.2810  155.6103 H   0  0  0  0  0  0  0  0  0  0  0  0  # atno 8008 bound_to 7997
  156.2941  140.2633  156.2498 H   0  0  0  0  0  0  0  0  0  0  0  0  # atno 8009 bound_to 7997
  154.9846  140.0374  157.2282 H   0  0  0  0  0  0  0  0  0  0  0  0  # atno 8010 bound_to 7997
  140.7216  143.5234  150.9605 H   0  0  0  0  0  0  0  0  0  0  0  0  # atno 10167 bound_to 10162
  157.4083  130.7899  149.7408 H   0  0  0  0  0  0  0  0  0  0  0  0  # atno 10718 bound_to 10713
  153.8576  135.3071  155.3436 H   0  0  0  0  0  0  0  0  0  0  0  0  # atno 10763 bound_to 10752
  154.7863  135.4807  153.9957 H   0  0  0  0  0  0  0  0  0  0  0  0  # atno 10764 bound_to 10752
  153.1481  135.6837  153.9018 H   0  0  0  0  0  0  0  0  0  0  0  0  # atno 10765 bound_to 10752
  140.5443  134.5491  157.5107 H   0  0  0  0  0  0  0  0  0  0  0  0  # atno 11005 bound_to 11000
  146.3512  140.0062  142.8671 LP  0  0  0  0  0  0  0  0  0  0  0  0  # atno 17320 bound_to 7965
  145.1606  140.9671  143.4379 LP  0  0  0  0  0  0  0  0  0  0  0  0  # atno 17321 bound_to 7965
  139.8952  143.6903  152.3139 LP  0  0  0  0  0  0  0  0  0  0  0  0  # atno 17342 bound_to 10162
  139.7233  144.7598  151.0919 LP  0  0  0  0  0  0  0  0  0  0  0  0  # atno 17343 bound_to 10162
  155.9843  130.3993  150.3319 LP  0  0  0  0  0  0  0  0  0  0  0  0  # atno 17370 bound_to 10713
  157.1455  131.0307  151.2909 LP  0  0  0  0  0  0  0  0  0  0  0  0  # atno 17371 bound_to 10713
  139.9488  134.7654  156.0498 LP  0  0  0  0  0  0  0  0  0  0  0  0  # atno 17394 bound_to 11000
  141.1209  133.6613  156.3212 LP  0  0  0  0  0  0  0  0  0  0  0  0  # atno 17395 bound_to 11000

$$$$
