AV-unprocessed.smi:861|AV-procd|sdf|3967|dock3
  -GOLD-   22720 1443D 1   1.00000     0.00000
 Structure written by MMmdl.
 44 45  0  0  0  0  0  0  0  0  2 V2000
  152.2659  144.8139  158.8909 C   0  0  0  0  0  0  0  0  0  0  0  0
  151.6622  143.7914  159.8656 C   0  0  0  0  0  0  0  0  0  0  0  0
  152.2222  144.0075  161.2817 C   0  0  0  0  0  0  0  0  0  0  0  0
  151.8884  142.3527  159.3568 C   0  0  0  0  0  0  0  0  0  0  0  0
  151.0802  142.0059  158.0915 C   0  0  0  0  0  0  0  0  0  0  0  0
  151.5697  140.7682  157.4273 N   0  3  2  0  0  0  0  0  0  0  0  0
  151.0134  140.5673  156.0672 C   0  0  0  0  0  0  0  0  0  0  0  0
  149.5724  140.0306  156.1310 C   0  0  0  0  0  0  0  0  0  0  0  0
  149.5516  138.8235  156.8823 O   0  0  0  0  0  0  0  0  0  0  0  0
  149.9685  139.0104  158.2317 C   0  0  1  0  0  0  0  0  0  0  0  0
  149.8498  137.6637  158.9583 C   0  0  0  0  0  0  0  0  0  0  0  0
  148.4607  137.2514  159.1056 N   0  0  0  0  0  0  0  0  0  0  0  0
  148.0342  136.5809  160.2597 C   0  0  0  0  0  0  0  0  0  0  0  0
  147.9647  135.1736  160.2455 C   0  0  0  0  0  0  0  0  0  0  0  0
  147.5317  134.5302  161.4179 C   0  0  0  0  0  0  0  0  0  0  0  0
  147.2011  135.3444  162.5165 C   0  0  0  0  0  0  0  0  0  0  0  0
  147.2860  136.6932  162.4745 N   0  0  0  0  0  0  0  0  0  0  0  0
  147.6975  137.3038  161.3576 N   0  0  0  0  0  0  0  0  0  0  0  0
  151.4244  139.5272  158.2319 C   0  0  0  0  0  0  0  0  0  0  0  0
  153.3458  144.6901  158.8043 H   0  0  0  0  0  0  0  0  0  0  0  0
  152.0740  145.8348  159.2228 H   0  0  0  0  0  0  0  0  0  0  0  0
  151.8376  144.7095  157.8938 H   0  0  0  0  0  0  0  0  0  0  0  0
  150.5876  143.9756  159.8990 H   0  0  0  0  0  0  0  0  0  0  0  0
  153.2922  143.8009  161.3207 H   0  0  0  0  0  0  0  0  0  0  0  0
  151.7310  143.3671  162.0136 H   0  0  0  0  0  0  0  0  0  0  0  0
  152.0731  145.0372  161.6081 H   0  0  0  0  0  0  0  0  0  0  0  0
  152.9477  142.2222  159.1313 H   0  0  0  0  0  0  0  0  0  0  0  0
  151.6628  141.6533  160.1616 H   0  0  0  0  0  0  0  0  0  0  0  0
  150.0179  141.9212  158.3155 H   0  0  0  0  0  0  0  0  0  0  0  0
  151.1784  142.8392  157.3946 H   0  0  0  0  0  0  0  0  0  0  0  0
  151.0597  141.4904  155.4884 H   0  0  0  0  0  0  0  0  0  0  0  0
  151.6420  139.8467  155.5423 H   0  0  0  0  0  0  0  0  0  0  0  0
  148.8935  140.7628  156.5706 H   0  0  0  0  0  0  0  0  0  0  0  0
  149.2062  139.8236  155.1254 H   0  0  0  0  0  0  0  0  0  0  0  0
  149.3153  139.7327  158.7237 H   0  0  0  0  0  0  0  0  0  0  0  0
  150.4092  136.8956  158.4225 H   0  0  0  0  0  0  0  0  0  0  0  0
  150.2896  137.7477  159.9530 H   0  0  0  0  0  0  0  0  0  0  0  0
  147.8281  137.3649  158.3268 H   0  0  0  0  0  0  0  0  0  0  0  0
  148.2331  134.6037  159.3679 H   0  0  0  0  0  0  0  0  0  0  0  0
  147.4556  133.4545  161.4739 H   0  0  0  0  0  0  0  0  0  0  0  0
  146.8625  134.9083  163.4446 H   0  0  0  0  0  0  0  0  0  0  0  0
  152.0753  138.7679  157.7960 H   0  0  0  0  0  0  0  0  0  0  0  0
  151.7796  139.6766  159.2506 H   0  0  0  0  0  0  0  0  0  0  0  0
  152.5612  140.9142  157.2997 H   0  0  0  0  0  0  0  0  0  0  0  0
  1  2  1  0  0  0  0
  1 20  1  0  0  0  0
  1 21  1  0  0  0  0
  1 22  1  0  0  0  0
  2  3  1  0  0  0  0
  2  4  1  0  0  0  0
  2 23  1  0  0  0  0
  3 24  1  0  0  0  0
  3 25  1  0  0  0  0
  3 26  1  0  0  0  0
  4  5  1  0  0  0  0
  4 27  1  0  0  0  0
  4 28  1  0  0  0  0
  5  6  1  0  0  0  0
  5 29  1  0  0  0  0
  5 30  1  0  0  0  0
  6 19  1  0  0  0  0
  6  7  1  0  0  0  0
  6 44  1  0  0  0  0
  7  8  1  0  0  0  0
  7 31  1  0  0  0  0
  7 32  1  0  0  0  0
  8  9  1  0  0  0  0
  8 33  1  0  0  0  0
  8 34  1  0  0  0  0
  9 10  1  0  0  0  0
 10 11  1  0  0  0  0
 10 19  1  0  0  0  0
 10 35  1  0  0  0  0
 11 12  1  0  0  0  0
 11 36  1  0  0  0  0
 11 37  1  0  0  0  0
 12 13  1  0  0  0  0
 12 38  1  0  0  0  0
 13 18  1  0  0  0  0
 13 14  2  0  0  0  0
 14 15  1  0  0  0  0
 14 39  1  0  0  0  0
 15 16  2  0  0  0  0
 15 40  1  0  0  0  0
 16 17  1  0  0  0  0
 16 41  1  0  0  0  0
 17 18  2  0  0  0  0
 19 42  1  0  0  0  0
 19 43  1  0  0  0  0
M  CHG  1   6   1
M  END
> <s_m_source_file>
AV-unprocessed.smi

> <i_m_source_file_index>
861

> <i_lp_mmshare_version>
43012

> <i_f3d_flags>
0

> <s_epik_input>
W0NIM11bQ0hdKFtDSDNdKVtDSDJdW0NIMl1OMVtDSDJdW0NIMl1PW0NASF0oW0NIMl0xKVtDSDJdW05IXWMyW2NIXVtjSF1bY0hdbm4y

> <s_epik_cmdline>
J2VwaWtfcHl0aG9uJywgJy1waCcsICc3LjAnLCAnLXRuJywgJzgnLCAnLW1hJywgJzIwMCcsICctbWV0YWxfYmluZGluZycsICctaW1hZScsICc8aW5maWxlLm1hZT4nLCAnLW9tYWUnLCAnPG91dGZpbGUubWFlPic=

> <r_lp_tautomer_probability>
0.999978

> <r_epik_Ionization_Penalty>
0.114704

> <r_epik_Ionization_Penalty_Charging>
0.0953451

> <r_epik_Ionization_Penalty_Neutral>
0.0193593

> <r_epik_State_Penalty>
0.104983

> <r_epik_Charging_Adjusted_Penalty>
0.200328

> <i_epik_Tot_Q>
1

> <i_epik_Tot_abs_Q>
1

> <r_epik_Metal_State_Penalty>
0.100113

> <b_epik_Metal_Only>
0

> <s_lp_Force_Field>
OPLS_2005

> <r_lp_Energy>
26.6721

> <b_lp_Chiralities_Consistent>
1

> <s_lp_Variant>
AV-unprocessed.smi:861-2

> <Gold.Version>
5.8.1

> <Gold.Id.Protein>
6NUR|6NUR_protein|mol2

> <Gold.PLP.Fitness>
41.3733

> <Gold.PLP.PLP>
-38.1402

> <Gold.PLP.part.hbond>
-2.0806

> <Gold.PLP.part.metal>
0.0000

> <Gold.PLP.part.buried>
-5.7628

> <Gold.PLP.part.nonpolar>
-30.7793

> <Gold.PLP.part.repulsive>
0.2604

> <Gold.PLP.ligand.clash>
0.0000

> <Gold.PLP.ligand.torsion>
1.0935

> <Gold.PLP.Chemscore.Hbond>
1.7680

> <Gold.PLP.Chemscore.CHOScore>
0.0000

> <Gold.PLP.Chemscore.Metal>
0.0000

> <Gold.Chemscore.Hbonds>
donor molecule, donor type, donor heavy atom, donor atom, acceptor molecule, acceptor atom, score
      P1  H  6931  6943       L1    18  0.93
      P1  H  6934  6947       L1    18  0.78

> <Gold.PLP.Chemscore.Internal.Correction>
0.1160

> <Gold.Rescore>
     Score         DG    S(hbond)    S(metal)    S(lipo)     H(rot)  DE(clash)    DE(int)     intcor
     15.30     -16.36       1.16        0.00      97.47       1.71       0.00       1.06       ----

> <Gold.Chemscore.Fitness>
15.2970

> <Gold.Chemscore.DG>
-16.3590

> <Gold.Chemscore.ZeroCoef>
-5.4800

> <Gold.Chemscore.Hbond>
1.1555

> <Gold.Chemscore.Metal>
0.0000

> <Gold.Chemscore.Lipo>
97.4701

> <Gold.Chemscore.Internal_Hbond>
0.0000

> <Gold.Chemscore.DEClash>
0.0015

> <Gold.Chemscore.DEInternal>
1.0605

> <Gold.Chemscore.Rot>
1.7127

> <Gold.Chemscore.Internal.Correction>
   9.000000E+99

> <Gold.Chemscore.Hbonds>
donor molecule, donor type, donor heavy atom, donor atom, acceptor molecule, acceptor atom, score
      P1  H  6931  6943       L1    18  0.28
      P1  H  6934  6947       L1    18  0.66

> <Gold.Chemscore.Hbond.Weighted>
-3.8594

> <Gold.Chemscore.Metal.Weighted>
-0.0000

> <Gold.Chemscore.Lipo.Weighted>
-11.4040

> <Gold.Chemscore.Internal_Hbond.Weighted>
0.0000

> <Gold.Chemscore.DEClash.Weighted>
0.0015

> <Gold.Chemscore.DEInternal.Weighted>
1.0605

> <Gold.Chemscore.Rot.Weighted>
4.3844

> <Gold.Chemscore.Internal.Correction.Weighted>
   9.000000E+99

> <Gold.Protein.RotatedTorsions>
[ 6907 6896 6895 6894 ] final  135.17 input  -60.11 | X-H torsion
[ 7974 7965 7964 7962 ] final  107.72 input  175.53 | X-H torsion
[ 8008 7997 7996 7995 ] final -114.10 input   59.86 | X-H torsion
[ 10167 10162 10161 10158 ] final  -98.15 input  -65.29 | X-H torsion
[ 10718 10713 10712 10709 ] final  132.55 input   66.30 | X-H torsion
[ 10763 10752 10751 10750 ] final    6.45 input  -60.55 | X-H torsion
[ 11005 11000 10999 10996 ] final -125.42 input  -57.11 | X-H torsion

> <Gold.Protein.ActiveResidues>
 VAL166  LYS551  ARG553  GLY616  TRP617  ASP618  TYR619  PRO620  LYS621  CYS622 
 ASP623  PHE694  ASN695  SER759  ASP760  ASP761  ALA762  ILE779  LEU786  VAL792 
 PHE793  MET794  SER795  GLU796  ALA797  LYS798  CYS799  TRP800  GLU811  SER814 

> <Gold.Protein.RotatedAtoms>
  152.3033  133.5678  159.5632 H   0  0  0  0  0  0  0  0  0  0  0  0  # atno 6907 bound_to 6896
  150.7288  134.0259  159.3726 H   0  0  0  0  0  0  0  0  0  0  0  0  # atno 6908 bound_to 6896
  151.8157  135.0667  160.0469 H   0  0  0  0  0  0  0  0  0  0  0  0  # atno 6909 bound_to 6896
  145.2900  139.2603  143.3870 H   0  0  0  0  0  0  0  0  0  0  0  0  # atno 7974 bound_to 7965
  155.0310  140.0393  157.2474 H   0  0  0  0  0  0  0  0  0  0  0  0  # atno 8008 bound_to 7997
  154.7296  140.2728  155.6444 H   0  0  0  0  0  0  0  0  0  0  0  0  # atno 8009 bound_to 7997
  156.2838  140.2686  156.1992 H   0  0  0  0  0  0  0  0  0  0  0  0  # atno 8010 bound_to 7997
  140.2760  143.3313  152.0488 H   0  0  0  0  0  0  0  0  0  0  0  0  # atno 10167 bound_to 10162
  157.4860  131.1088  150.9619 H   0  0  0  0  0  0  0  0  0  0  0  0  # atno 10718 bound_to 10713
  153.2476  135.6910  153.7715 H   0  0  0  0  0  0  0  0  0  0  0  0  # atno 10763 bound_to 10752
  153.6821  135.3326  155.3182 H   0  0  0  0  0  0  0  0  0  0  0  0  # atno 10764 bound_to 10752
  154.8381  135.4525  154.1421 H   0  0  0  0  0  0  0  0  0  0  0  0  # atno 10765 bound_to 10752
  140.9763  134.0735  157.3814 H   0  0  0  0  0  0  0  0  0  0  0  0  # atno 11005 bound_to 11000
  146.3188  140.3388  142.8646 LP  0  0  0  0  0  0  0  0  0  0  0  0  # atno 17320 bound_to 7965
  144.9181  140.7836  143.5765 LP  0  0  0  0  0  0  0  0  0  0  0  0  # atno 17321 bound_to 7965
  139.4975  144.6624  151.6434 LP  0  0  0  0  0  0  0  0  0  0  0  0  # atno 17342 bound_to 10162
  140.5851  143.9878  150.6291 LP  0  0  0  0  0  0  0  0  0  0  0  0  # atno 17343 bound_to 10162
  157.0337  130.5721  149.5346 LP  0  0  0  0  0  0  0  0  0  0  0  0  # atno 17370 bound_to 10713
  156.0147  130.5241  150.8098 LP  0  0  0  0  0  0  0  0  0  0  0  0  # atno 17371 bound_to 10713
  139.8932  135.0129  156.6886 LP  0  0  0  0  0  0  0  0  0  0  0  0  # atno 17394 bound_to 11000
  140.7254  133.9105  155.8174 LP  0  0  0  0  0  0  0  0  0  0  0  0  # atno 17395 bound_to 11000

$$$$
