AV-unprocessed.smi:2298|AV-procd|sdf|9224|dock1
  -GOLD-   2272012443D 1   1.00000     0.00000
 Structure written by MMmdl.
 37 38  0  0  0  0  0  0  0  0  1 V2000
  152.8799  135.1605  156.4290 C   0  0  0  0  0  0  0  0  0  0  0  0
  152.0914  134.1293  155.6436 C   0  0  0  0  0  0  0  0  0  0  0  0
  152.5089  132.8514  155.7741 N   0  0  0  0  0  0  0  0  0  0  0  0
  151.8473  131.8952  155.0912 C   0  0  0  0  0  0  0  0  0  0  0  0
  150.7450  132.1609  154.2569 C   0  0  0  0  0  0  0  0  0  0  0  0
  150.2938  133.4969  154.1294 C   0  0  0  0  0  0  0  0  0  0  0  0
  149.2014  133.8849  153.3025 N   0  0  0  0  0  0  0  0  0  0  0  0
  148.0301  133.2588  153.0950 C   0  0  0  0  0  0  0  0  0  0  0  0
  147.6854  132.1963  153.6121 O   0  0  0  0  0  0  0  0  0  0  0  0
  147.2558  133.9524  152.2477 N   0  0  0  0  0  0  0  0  0  0  0  0
  145.9202  133.5566  151.8103 C   0  0  1  0  0  0  0  0  0  0  0  0
  145.2753  134.7043  151.0102 C   0  0  0  0  0  0  0  0  0  0  0  0
  143.8876  134.3085  150.4802 C   0  0  0  0  0  0  0  0  0  0  0  0
  143.9633  133.0258  149.6343 C   0  0  2  0  0  0  0  0  0  0  0  0
  142.6651  132.6544  149.2222 O   0  0  0  0  0  0  0  0  0  0  0  0
  144.5997  131.8740  150.4313 C   0  0  0  0  0  0  0  0  0  0  0  0
  145.9865  132.2684  150.9639 C   0  0  0  0  0  0  0  0  0  0  0  0
  150.9945  134.5052  154.8327 C   0  0  0  0  0  0  0  0  0  0  0  0
  150.5175  136.1661  154.7092 Cl  0  0  0  0  0  0  0  0  0  0  0  0
  145.2990  133.3691  152.6886 H   0  0  0  0  0  0  0  0  0  0  0  0
  144.5571  133.2176  148.7396 H   0  0  0  0  0  0  0  0  0  0  0  0
  152.2301  135.6744  157.1373 H   0  0  0  0  0  0  0  0  0  0  0  0
  153.3121  135.9008  155.7555 H   0  0  0  0  0  0  0  0  0  0  0  0
  153.6942  134.7008  156.9909 H   0  0  0  0  0  0  0  0  0  0  0  0
  152.2120  130.8854  155.2079 H   0  0  0  0  0  0  0  0  0  0  0  0
  150.2831  131.3413  153.7295 H   0  0  0  0  0  0  0  0  0  0  0  0
  149.3026  134.7862  152.8592 H   0  0  0  0  0  0  0  0  0  0  0  0
  147.6166  134.8183  151.8744 H   0  0  0  0  0  0  0  0  0  0  0  0
  145.1881  135.5932  151.6361 H   0  0  0  0  0  0  0  0  0  0  0  0
  145.9170  134.9781  150.1713 H   0  0  0  0  0  0  0  0  0  0  0  0
  143.2091  134.1596  151.3215 H   0  0  0  0  0  0  0  0  0  0  0  0
  143.4723  135.1247  149.8878 H   0  0  0  0  0  0  0  0  0  0  0  0
  142.0518  133.2975  149.5437 H   0  0  0  0  0  0  0  0  0  0  0  0
  143.9566  131.6012  151.2695 H   0  0  0  0  0  0  0  0  0  0  0  0
  144.6850  130.9858  149.8041 H   0  0  0  0  0  0  0  0  0  0  0  0
  146.6680  132.4126  150.1240 H   0  0  0  0  0  0  0  0  0  0  0  0
  146.3956  131.4486  151.5555 H   0  0  0  0  0  0  0  0  0  0  0  0
  1  2  1  0  0  0  0
  1 22  1  0  0  0  0
  1 23  1  0  0  0  0
  1 24  1  0  0  0  0
  2 18  1  0  0  0  0
  2  3  2  0  0  0  0
  3  4  1  0  0  0  0
  4  5  2  0  0  0  0
  4 25  1  0  0  0  0
  5  6  1  0  0  0  0
  5 26  1  0  0  0  0
  6  7  1  0  0  0  0
  6 18  2  0  0  0  0
  7  8  1  0  0  0  0
  7 27  1  0  0  0  0
  8  9  2  0  0  0  0
  8 10  1  0  0  0  0
 10 11  1  0  0  0  0
 10 28  1  0  0  0  0
 11 20  1  0  0  0  0
 11 17  1  0  0  0  0
 11 12  1  0  0  0  0
 12 13  1  0  0  0  0
 12 29  1  0  0  0  0
 12 30  1  0  0  0  0
 13 14  1  0  0  0  0
 13 31  1  0  0  0  0
 13 32  1  0  0  0  0
 14 21  1  0  0  0  0
 14 15  1  0  0  0  0
 14 16  1  0  0  0  0
 15 33  1  0  0  0  0
 16 17  1  0  0  0  0
 16 34  1  0  0  0  0
 16 35  1  0  0  0  0
 17 36  1  0  0  0  0
 17 37  1  0  0  0  0
 18 19  1  0  0  0  0
M  END
> <s_m_source_file>
AV-unprocessed.smi

> <i_m_source_file_index>
2298

> <i_lp_mmshare_version>
43012

> <i_f3d_flags>
0

> <s_epik_input>
W0NIM11jMW5bY0hdW2NIXWMoYzFDbClbTkhdQyg9TylbTkhdW0NASF0yW0NIMl1bQ0gyXVtDQEhdKFtPSF0pW0NIMl1bQ0gyXTI=

> <s_epik_cmdline>
J2VwaWtfcHl0aG9uJywgJy1waCcsICc3LjAnLCAnLXRuJywgJzgnLCAnLW1hJywgJzIwMCcsICctbWV0YWxfYmluZGluZycsICctaW1hZScsICc8aW5maWxlLm1hZT4nLCAnLW9tYWUnLCAnPG91dGZpbGUubWFlPic=

> <r_epik_Ionization_Penalty>
0.00999805

> <r_epik_Ionization_Penalty_Charging>
0

> <r_epik_Ionization_Penalty_Neutral>
0.00999805

> <r_epik_State_Penalty>
0.00759022

> <r_epik_Charging_Adjusted_Penalty>
0.00759022

> <i_epik_Tot_Q>
0

> <i_epik_Tot_abs_Q>
0

> <r_epik_Metal_State_Penalty>
0.00746447

> <b_epik_Metal_Only>
0

> <s_lp_Force_Field>
OPLS_2005

> <r_lp_Energy>
13.5765

> <b_lp_Chiralities_Consistent>
1

> <s_lp_Variant>
AV-unprocessed.smi:2298-1

> <Gold.Version>
5.8.1

> <Gold.Id.Protein>
6NUR|6NUR_protein|mol2

> <Gold.PLP.Fitness>
46.1319

> <Gold.PLP.PLP>
-34.6167

> <Gold.PLP.part.hbond>
-6.0000

> <Gold.PLP.part.metal>
0.0000

> <Gold.PLP.part.buried>
-4.1831

> <Gold.PLP.part.nonpolar>
-25.0710

> <Gold.PLP.part.repulsive>
0.0545

> <Gold.PLP.ligand.clash>
0.0000

> <Gold.PLP.ligand.torsion>
0.3442

> <Gold.PLP.Chemscore.Hbond>
4.0667

> <Gold.PLP.Chemscore.CHOScore>
0.0000

> <Gold.PLP.Chemscore.Metal>
0.0000

> <Gold.Chemscore.Hbonds>
donor molecule, donor type, donor heavy atom, donor atom, acceptor molecule, acceptor atom, score
      L1  H     7    27       P1  7948  0.15
      L1  H    10    28       P1  7948  1.00
      L1  H    15    33       P1 10186  0.99

> <Gold.PLP.Chemscore.Internal.Correction>
0.0036

> <Gold.Rescore>
     Score         DG    S(hbond)    S(metal)    S(lipo)     H(rot)  DE(clash)    DE(int)     intcor
     19.76     -20.79       2.96        0.00      77.32       1.42       0.40       0.64       ----

> <Gold.Chemscore.Fitness>
19.7599

> <Gold.Chemscore.DG>
-20.7940

> <Gold.Chemscore.ZeroCoef>
-5.4800

> <Gold.Chemscore.Hbond>
2.9648

> <Gold.Chemscore.Metal>
0.0000

> <Gold.Chemscore.Lipo>
77.3201

> <Gold.Chemscore.Internal_Hbond>
0.0000

> <Gold.Chemscore.DEClash>
0.3991

> <Gold.Chemscore.DEInternal>
0.6350

> <Gold.Chemscore.Rot>
1.4199

> <Gold.Chemscore.Internal.Correction>
   9.000000E+99

> <Gold.Chemscore.Hbonds>
donor molecule, donor type, donor heavy atom, donor atom, acceptor molecule, acceptor atom, score
      L1  H    10    28       P1  7948  0.62
      L1  H    15    33       P1 10186  0.92

> <Gold.Chemscore.Hbond.Weighted>
-9.9024

> <Gold.Chemscore.Metal.Weighted>
-0.0000

> <Gold.Chemscore.Lipo.Weighted>
-9.0465

> <Gold.Chemscore.Internal_Hbond.Weighted>
0.0000

> <Gold.Chemscore.DEClash.Weighted>
0.3991

> <Gold.Chemscore.DEInternal.Weighted>
0.6350

> <Gold.Chemscore.Rot.Weighted>
3.6349

> <Gold.Chemscore.Internal.Correction.Weighted>
   9.000000E+99

> <Gold.Protein.RotatedTorsions>
[ 6907 6896 6895 6894 ] final   74.36 input  -60.11 | X-H torsion
[ 7974 7965 7964 7962 ] final  123.61 input  175.53 | X-H torsion
[ 8008 7997 7996 7995 ] final -162.41 input   59.86 | X-H torsion
[ 10167 10162 10161 10158 ] final   71.95 input  -65.29 | X-H torsion
[ 10718 10713 10712 10709 ] final  174.26 input   66.30 | X-H torsion
[ 10763 10752 10751 10750 ] final  -19.11 input  -60.55 | X-H torsion
[ 11005 11000 10999 10996 ] final  -20.35 input  -57.11 | X-H torsion

> <Gold.Protein.ActiveResidues>
 VAL166  LYS551  ARG553  GLY616  TRP617  ASP618  TYR619  PRO620  LYS621  CYS622 
 ASP623  PHE694  ASN695  SER759  ASP760  ASP761  ALA762  ILE779  LEU786  VAL792 
 PHE793  MET794  SER795  GLU796  ALA797  LYS798  CYS799  TRP800  GLU811  SER814 

> <Gold.Protein.RotatedAtoms>
  152.4972  134.4283  159.9503 H   0  0  0  0  0  0  0  0  0  0  0  0  # atno 6907 bound_to 6896
  151.4260  133.3678  159.2770 H   0  0  0  0  0  0  0  0  0  0  0  0  # atno 6908 bound_to 6896
  150.9188  134.8629  159.7535 H   0  0  0  0  0  0  0  0  0  0  0  0  # atno 6909 bound_to 6896
  145.0939  139.3567  143.4846 H   0  0  0  0  0  0  0  0  0  0  0  0  # atno 7974 bound_to 7965
  155.8064  140.0899  157.1928 H   0  0  0  0  0  0  0  0  0  0  0  0  # atno 8008 bound_to 7997
  154.3980  140.1463  156.3394 H   0  0  0  0  0  0  0  0  0  0  0  0  # atno 8009 bound_to 7997
  155.8410  140.3439  155.5634 H   0  0  0  0  0  0  0  0  0  0  0  0  # atno 8010 bound_to 7997
  140.0406  144.5392  150.7437 H   0  0  0  0  0  0  0  0  0  0  0  0  # atno 10167 bound_to 10162
  156.9522  131.0035  151.2946 H   0  0  0  0  0  0  0  0  0  0  0  0  # atno 10718 bound_to 10713
  153.5997  135.7000  153.5389 H   0  0  0  0  0  0  0  0  0  0  0  0  # atno 10763 bound_to 10752
  153.3107  135.4102  155.1333 H   0  0  0  0  0  0  0  0  0  0  0  0  # atno 10764 bound_to 10752
  154.8585  135.3671  154.5532 H   0  0  0  0  0  0  0  0  0  0  0  0  # atno 10765 bound_to 10752
  140.8456  133.7894  155.9909 H   0  0  0  0  0  0  0  0  0  0  0  0  # atno 11005 bound_to 11000
  146.3531  140.0786  142.8619 LP  0  0  0  0  0  0  0  0  0  0  0  0  # atno 17320 bound_to 7965
  145.1034  140.9360  143.4699 LP  0  0  0  0  0  0  0  0  0  0  0  0  # atno 17321 bound_to 7965
  140.7262  143.2638  151.4112 LP  0  0  0  0  0  0  0  0  0  0  0  0  # atno 17342 bound_to 10162
  139.6016  144.1283  152.2204 LP  0  0  0  0  0  0  0  0  0  0  0  0  # atno 17343 bound_to 10162
  157.5714  130.8313  149.8397 LP  0  0  0  0  0  0  0  0  0  0  0  0  # atno 17370 bound_to 10713
  156.0358  130.3752  150.1565 LP  0  0  0  0  0  0  0  0  0  0  0  0  # atno 17371 bound_to 10713
  140.8847  134.2568  157.5126 LP  0  0  0  0  0  0  0  0  0  0  0  0  # atno 17394 bound_to 11000
  139.8703  134.9632  156.4455 LP  0  0  0  0  0  0  0  0  0  0  0  0  # atno 17395 bound_to 11000

$$$$
