AV-unprocessed.smi:2136|AV-procd|sdf|8705|dock2
  -GOLD-   2272011463D 1   1.00000     0.00000
 Structure written by MMmdl.
 43 44  0  0  0  0  0  0  0  0  2 V2000
  153.6135  139.7881  160.2341 C   0  0  0  0  0  0  0  0  0  0  0  0
  152.4103  139.9352  158.8493 S   0  0  0  0  0  0  0  0  0  0  0  0
  153.0805  139.4990  157.6153 O   0  0  0  0  0  0  0  0  0  0  0  0
  151.1628  139.2702  159.2558 O   0  0  0  0  0  0  0  0  0  0  0  0
  152.1019  141.6613  158.7781 N   0  0  0  0  0  0  0  0  0  0  0  0
  152.8862  142.4569  159.7554 C   0  0  0  0  0  0  0  0  0  0  0  0
  152.4277  143.9161  159.8624 C   0  0  0  0  0  0  0  0  0  0  0  0
  152.4563  144.5873  158.4953 C   0  0  0  0  0  0  0  0  0  0  0  0
  151.5182  143.8168  157.5725 C   0  0  0  0  0  0  0  0  0  0  0  0
  151.9005  142.3214  157.4459 C   0  0  2  0  0  0  0  0  0  0  0  0
  150.8842  141.6645  156.5001 C   0  0  0  0  0  0  0  0  0  0  0  0
  151.2784  141.0183  155.5294 O   0  0  0  0  0  0  0  0  0  0  0  0
  149.5840  141.8347  156.7912 N   0  0  0  0  0  0  0  0  0  0  0  0
  148.4769  141.2623  156.0363 C   0  0  0  0  0  0  0  0  0  0  0  0
  148.5828  141.5887  154.5377 C   0  0  0  0  0  0  0  0  0  0  0  0
  147.9908  140.4932  153.6729 C   0  0  0  0  0  0  0  0  0  0  0  0
  146.8321  140.7299  152.9005 C   0  0  0  0  0  0  0  0  0  0  0  0
  146.3045  139.6883  152.1090 C   0  0  0  0  0  0  0  0  0  0  0  0
  146.9469  138.4331  152.1092 C   0  0  0  0  0  0  0  0  0  0  0  0
  148.0528  138.2436  152.8623 N   0  3  0  0  0  0  0  0  0  0  0  0
  148.5894  139.2153  153.6326 C   0  0  0  0  0  0  0  0  0  0  0  0
  153.8508  138.7364  160.3927 H   0  0  0  0  0  0  0  0  0  0  0  0
  153.1817  140.1996  161.1455 H   0  0  0  0  0  0  0  0  0  0  0  0
  154.5276  140.3267  159.9862 H   0  0  0  0  0  0  0  0  0  0  0  0
  152.8142  142.0024  160.7431 H   0  0  0  0  0  0  0  0  0  0  0  0
  153.9384  142.4236  159.4718 H   0  0  0  0  0  0  0  0  0  0  0  0
  151.4215  143.9605  160.2817 H   0  0  0  0  0  0  0  0  0  0  0  0
  153.0751  144.4562  160.5537 H   0  0  0  0  0  0  0  0  0  0  0  0
  152.1386  145.6272  158.5756 H   0  0  0  0  0  0  0  0  0  0  0  0
  153.4699  144.5922  158.0923 H   0  0  0  0  0  0  0  0  0  0  0  0
  150.4990  143.9142  157.9507 H   0  0  0  0  0  0  0  0  0  0  0  0
  151.5212  144.2881  156.5883 H   0  0  0  0  0  0  0  0  0  0  0  0
  152.8652  142.2851  156.9374 H   0  0  0  0  0  0  0  0  0  0  0  0
  149.3503  142.3734  157.6132 H   0  0  0  0  0  0  0  0  0  0  0  0
  148.4437  140.1827  156.1940 H   0  0  0  0  0  0  0  0  0  0  0  0
  147.5474  141.6635  156.4410 H   0  0  0  0  0  0  0  0  0  0  0  0
  148.0764  142.5309  154.3228 H   0  0  0  0  0  0  0  0  0  0  0  0
  149.6261  141.7296  154.2520 H   0  0  0  0  0  0  0  0  0  0  0  0
  146.3509  141.6972  152.9142 H   0  0  0  0  0  0  0  0  0  0  0  0
  145.4194  139.8503  151.5114 H   0  0  0  0  0  0  0  0  0  0  0  0
  146.6122  137.5816  151.5348 H   0  0  0  0  0  0  0  0  0  0  0  0
  149.4736  138.9423  154.1908 H   0  0  0  0  0  0  0  0  0  0  0  0
  148.5016  137.3272  152.8496 H   0  0  0  0  0  0  0  0  0  0  0  0
  1  2  1  0  0  0  0
  1 22  1  0  0  0  0
  1 23  1  0  0  0  0
  1 24  1  0  0  0  0
  2  3  2  0  0  0  0
  2  4  2  0  0  0  0
  2  5  1  0  0  0  0
  5 10  1  0  0  0  0
  5  6  1  0  0  0  0
  6  7  1  0  0  0  0
  6 25  1  0  0  0  0
  6 26  1  0  0  0  0
  7  8  1  0  0  0  0
  7 27  1  0  0  0  0
  7 28  1  0  0  0  0
  8  9  1  0  0  0  0
  8 29  1  0  0  0  0
  8 30  1  0  0  0  0
  9 10  1  0  0  0  0
  9 31  1  0  0  0  0
  9 32  1  0  0  0  0
 10 11  1  0  0  0  0
 10 33  1  0  0  0  0
 11 12  2  0  0  0  0
 11 13  1  0  0  0  0
 13 14  1  0  0  0  0
 13 34  1  0  0  0  0
 14 15  1  0  0  0  0
 14 35  1  0  0  0  0
 14 36  1  0  0  0  0
 15 16  1  0  0  0  0
 15 37  1  0  0  0  0
 15 38  1  0  0  0  0
 16 21  1  0  0  0  0
 16 17  2  0  0  0  0
 17 18  1  0  0  0  0
 17 39  1  0  0  0  0
 18 19  2  0  0  0  0
 18 40  1  0  0  0  0
 19 20  1  0  0  0  0
 19 41  1  0  0  0  0
 20 21  2  0  0  0  0
 20 43  1  0  0  0  0
 21 42  1  0  0  0  0
M  CHG  1  20   1
M  END
> <s_m_source_file>
AV-unprocessed.smi

> <i_m_source_file_index>
2136

> <i_lp_mmshare_version>
43012

> <i_f3d_flags>
0

> <s_epik_input>
W0NIM11TKD1PKSg9TylOMVtDSDJdW0NIMl1bQ0gyXVtDSDJdW0NASF0xQyg9TylbTkhdW0NIMl1bQ0gyXWMyW2NIXVtjSF1bY0hdbltjSF0y

> <s_epik_cmdline>
J2VwaWtfcHl0aG9uJywgJy1waCcsICc3LjAnLCAnLXRuJywgJzgnLCAnLW1hJywgJzIwMCcsICctbWV0YWxfYmluZGluZycsICctaW1hZScsICc8aW5maWxlLm1hZT4nLCAnLW9tYWUnLCAnPG91dGZpbGUubWFlPic=

> <r_epik_Ionization_Penalty>
2.2835

> <r_epik_Ionization_Penalty_Charging>
2.2835

> <r_epik_Ionization_Penalty_Neutral>
1.35461e-07

> <r_epik_State_Penalty>
2.43297

> <r_epik_Charging_Adjusted_Penalty>
4.71647

> <i_epik_Tot_Q>
1

> <i_epik_Tot_abs_Q>
1

> <r_epik_Metal_State_Penalty>
2.44557

> <b_epik_Metal_Only>
0

> <s_lp_Force_Field>
OPLS_2005

> <r_lp_Energy>
10.903

> <b_lp_Chiralities_Consistent>
1

> <s_lp_Variant>
AV-unprocessed.smi:2136-4

> <Gold.Version>
5.8.1

> <Gold.Id.Protein>
6NUR|6NUR_protein|mol2

> <Gold.PLP.Fitness>
46.0755

> <Gold.PLP.PLP>
-36.8857

> <Gold.PLP.part.hbond>
-5.2292

> <Gold.PLP.part.metal>
0.0000

> <Gold.PLP.part.buried>
8.4090

> <Gold.PLP.part.nonpolar>
-39.2892

> <Gold.PLP.part.repulsive>
0.1251

> <Gold.PLP.ligand.clash>
0.0000

> <Gold.PLP.ligand.torsion>
1.0020

> <Gold.PLP.Chemscore.Hbond>
3.4800

> <Gold.PLP.Chemscore.CHOScore>
0.0000

> <Gold.PLP.Chemscore.Metal>
0.0000

> <Gold.Chemscore.Hbonds>
donor molecule, donor type, donor heavy atom, donor atom, acceptor molecule, acceptor atom, score
      L1  H    20    43       P1  7948  1.60
      P1  H  7989  7998       L1    12  0.59
      P1  H  7997  8008       L1     3  1.00

> <Gold.PLP.Chemscore.Internal.Correction>
0.7538

> <Gold.Rescore>
     Score         DG    S(hbond)    S(metal)    S(lipo)     H(rot)  DE(clash)    DE(int)     intcor
     16.02     -22.64       2.36        0.00     121.87       1.95       4.50       2.11       ----

> <Gold.Chemscore.Fitness>
16.0213

> <Gold.Chemscore.DG>
-22.6389

> <Gold.Chemscore.ZeroCoef>
-5.4800

> <Gold.Chemscore.Hbond>
2.3602

> <Gold.Chemscore.Metal>
0.0000

> <Gold.Chemscore.Lipo>
121.8711

> <Gold.Chemscore.Internal_Hbond>
0.0000

> <Gold.Chemscore.DEClash>
4.5043

> <Gold.Chemscore.DEInternal>
2.1133

> <Gold.Chemscore.Rot>
1.9466

> <Gold.Chemscore.Internal.Correction>
   9.000000E+99

> <Gold.Chemscore.Hbonds>
donor molecule, donor type, donor heavy atom, donor atom, acceptor molecule, acceptor atom, score
      L1  H    20    43       P1  7948  0.74
      P1  H  7989  7998       L1    12  0.56
      P1  H  7997  8008       L1     3  1.00

> <Gold.Chemscore.Hbond.Weighted>
-7.8832

> <Gold.Chemscore.Metal.Weighted>
-0.0000

> <Gold.Chemscore.Lipo.Weighted>
-14.2589

> <Gold.Chemscore.Internal_Hbond.Weighted>
0.0000

> <Gold.Chemscore.DEClash.Weighted>
4.5043

> <Gold.Chemscore.DEInternal.Weighted>
2.1133

> <Gold.Chemscore.Rot.Weighted>
4.9832

> <Gold.Chemscore.Internal.Correction.Weighted>
   9.000000E+99

> <Gold.Protein.RotatedTorsions>
[ 6907 6896 6895 6894 ] final   30.98 input  -60.11 | X-H torsion
[ 7974 7965 7964 7962 ] final  140.28 input  175.53 | X-H torsion
[ 8008 7997 7996 7995 ] final  -67.13 input   59.86 | X-H torsion
[ 10167 10162 10161 10158 ] final  176.42 input  -65.29 | X-H torsion
[ 10718 10713 10712 10709 ] final  119.15 input   66.30 | X-H torsion
[ 10763 10752 10751 10750 ] final  145.06 input  -60.55 | X-H torsion
[ 11005 11000 10999 10996 ] final -128.68 input  -57.11 | X-H torsion

> <Gold.Protein.ActiveResidues>
 VAL166  LYS551  ARG553  GLY616  TRP617  ASP618  TYR619  PRO620  LYS621  CYS622 
 ASP623  PHE694  ASN695  SER759  ASP760  ASP761  ALA762  ILE779  LEU786  VAL792 
 PHE793  MET794  SER795  GLU796  ALA797  LYS798  CYS799  TRP800  GLU811  SER814 

> <Gold.Protein.RotatedAtoms>
  152.0537  134.9638  160.0574 H   0  0  0  0  0  0  0  0  0  0  0  0  # atno 6907 bound_to 6896
  152.1029  133.4254  159.4603 H   0  0  0  0  0  0  0  0  0  0  0  0  # atno 6908 bound_to 6896
  150.6840  134.2659  159.4611 H   0  0  0  0  0  0  0  0  0  0  0  0  # atno 6909 bound_to 6896
  144.9201  139.5179  143.5667 H   0  0  0  0  0  0  0  0  0  0  0  0  # atno 7974 bound_to 7965
  154.4779  140.0899  156.7308 H   0  0  0  0  0  0  0  0  0  0  0  0  # atno 8008 bound_to 7997
  155.4546  140.3459  155.4287 H   0  0  0  0  0  0  0  0  0  0  0  0  # atno 8009 bound_to 7997
  156.1146  140.1457  156.9279 H   0  0  0  0  0  0  0  0  0  0  0  0  # atno 8010 bound_to 7997
  139.5213  144.2918  152.0457 H   0  0  0  0  0  0  0  0  0  0  0  0  # atno 10167 bound_to 10162
  157.5981  131.1055  150.7856 H   0  0  0  0  0  0  0  0  0  0  0  0  # atno 10718 bound_to 10713
  153.9991  135.2925  155.3404 H   0  0  0  0  0  0  0  0  0  0  0  0  # atno 10763 bound_to 10752
  154.7170  135.5125  153.8756 H   0  0  0  0  0  0  0  0  0  0  0  0  # atno 10764 bound_to 10752
  153.0774  135.6668  154.0235 H   0  0  0  0  0  0  0  0  0  0  0  0  # atno 10765 bound_to 10752
  140.9496  134.1083  157.4074 H   0  0  0  0  0  0  0  0  0  0  0  0  # atno 11005 bound_to 11000
  146.3200  139.8074  142.8953 LP  0  0  0  0  0  0  0  0  0  0  0  0  # atno 17320 bound_to 7965
  145.3310  141.0266  143.3446 LP  0  0  0  0  0  0  0  0  0  0  0  0  # atno 17321 bound_to 7965
  140.2368  144.4311  150.6276 LP  0  0  0  0  0  0  0  0  0  0  0  0  # atno 17342 bound_to 10162
  140.6317  143.2188  151.6480 LP  0  0  0  0  0  0  0  0  0  0  0  0  # atno 17343 bound_to 10162
  156.8262  130.5000  149.5337 LP  0  0  0  0  0  0  0  0  0  0  0  0  # atno 17370 bound_to 10713
  156.1048  130.5996  150.9953 LP  0  0  0  0  0  0  0  0  0  0  0  0  # atno 17371 bound_to 10713
  139.8843  135.0062  156.6362 LP  0  0  0  0  0  0  0  0  0  0  0  0  # atno 17394 bound_to 11000
  140.7621  133.8809  155.8426 LP  0  0  0  0  0  0  0  0  0  0  0  0  # atno 17395 bound_to 11000

$$$$
