AV-unprocessed.smi:3351|AV-procd|sdf|12949|dock9
  -GOLD-   2272019383D 1   1.00000     0.00000
 Structure written by MMmdl.
 34 35  0  0  0  0  0  0  0  0  1 V2000
  150.4581  145.1078  159.1542 C   0  0  0  0  0  0  0  0  0  0  0  0
  150.9711  143.6857  158.8906 C   0  0  2  0  0  0  0  0  0  0  0  0
  152.5067  143.6053  159.0427 C   0  0  0  0  0  0  0  0  0  0  0  0
  152.9222  142.8723  160.2263 N   0  0  0  0  0  0  0  0  0  0  0  0
  152.6220  143.1773  161.5476 C   0  0  0  0  0  0  0  0  0  0  0  0
  153.2437  142.2253  162.3230 C   0  0  0  0  0  0  0  0  0  0  0  0
  153.9144  141.3198  161.5046 N   0  0  0  0  0  0  0  0  0  0  0  0
  153.6733  141.7634  160.2775 C   0  0  0  0  0  0  0  0  0  0  0  0
  150.5586  143.2708  157.5501 N   0  0  0  0  0  0  0  0  0  0  0  0
  150.9597  142.1532  156.9237 C   0  0  0  0  0  0  0  0  0  0  0  0
  151.6774  141.3007  157.4472 O   0  0  0  0  0  0  0  0  0  0  0  0
  150.4843  141.9671  155.4818 C   0  0  0  0  0  0  0  0  0  0  0  0
  149.9391  140.6242  155.2919 N   0  0  0  0  0  0  0  0  0  0  0  0
  148.5938  140.3197  155.7620 C   0  0  0  0  0  0  0  0  0  0  0  0
  148.4859  138.7995  155.8925 C   0  0  0  0  0  0  0  0  0  0  0  0
  149.6835  138.0733  154.7560 S   0  0  0  0  0  0  0  0  0  0  0  0
  150.6355  139.5934  154.6754 C   0  0  0  0  0  0  0  0  0  0  0  0
  151.7458  139.6471  154.1496 O   0  0  0  0  0  0  0  0  0  0  0  0
  150.7239  145.4400  160.1581 H   0  0  0  0  0  0  0  0  0  0  0  0
  149.3718  145.1560  159.0697 H   0  0  0  0  0  0  0  0  0  0  0  0
  150.8801  145.8214  158.4457 H   0  0  0  0  0  0  0  0  0  0  0  0
  150.5108  143.0355  159.6367 H   0  0  0  0  0  0  0  0  0  0  0  0
  152.9522  143.1339  158.1653 H   0  0  0  0  0  0  0  0  0  0  0  0
  152.9297  144.6086  159.1064 H   0  0  0  0  0  0  0  0  0  0  0  0
  152.0190  144.0306  161.8211 H   0  0  0  0  0  0  0  0  0  0  0  0
  153.2591  142.1237  163.3981 H   0  0  0  0  0  0  0  0  0  0  0  0
  154.0638  141.2784  159.3951 H   0  0  0  0  0  0  0  0  0  0  0  0
  149.9654  143.9095  157.0401 H   0  0  0  0  0  0  0  0  0  0  0  0
  149.7178  142.7117  155.2634 H   0  0  0  0  0  0  0  0  0  0  0  0
  151.3001  142.1484  154.7793 H   0  0  0  0  0  0  0  0  0  0  0  0
  148.3762  140.8132  156.7099 H   0  0  0  0  0  0  0  0  0  0  0  0
  147.8802  140.6890  155.0247 H   0  0  0  0  0  0  0  0  0  0  0  0
  148.7576  138.4936  156.9035 H   0  0  0  0  0  0  0  0  0  0  0  0
  147.4776  138.4363  155.6928 H   0  0  0  0  0  0  0  0  0  0  0  0
  1  2  1  0  0  0  0
  1 19  1  0  0  0  0
  1 20  1  0  0  0  0
  1 21  1  0  0  0  0
  2  3  1  0  0  0  0
  2  9  1  0  0  0  0
  2 22  1  0  0  0  0
  3  4  1  0  0  0  0
  3 23  1  0  0  0  0
  3 24  1  0  0  0  0
  4  8  1  0  0  0  0
  4  5  1  0  0  0  0
  5  6  2  0  0  0  0
  5 25  1  0  0  0  0
  6  7  1  0  0  0  0
  6 26  1  0  0  0  0
  7  8  2  0  0  0  0
  8 27  1  0  0  0  0
  9 10  1  0  0  0  0
  9 28  1  0  0  0  0
 10 11  2  0  0  0  0
 10 12  1  0  0  0  0
 12 13  1  0  0  0  0
 12 29  1  0  0  0  0
 12 30  1  0  0  0  0
 13 17  1  0  0  0  0
 13 14  1  0  0  0  0
 14 15  1  0  0  0  0
 14 31  1  0  0  0  0
 14 32  1  0  0  0  0
 15 16  1  0  0  0  0
 15 33  1  0  0  0  0
 15 34  1  0  0  0  0
 16 17  1  0  0  0  0
 17 18  2  0  0  0  0
M  END
> <s_m_source_file>
AV-unprocessed.smi

> <i_m_source_file_index>
3351

> <i_lp_mmshare_version>
43012

> <i_f3d_flags>
0

> <s_epik_input>
W2NIXTFuW2NIXVtjSF1uMVtDSDJdW0NAQEhdKFtDSDNdKVtOSF1DKD1PKVtDSDJdTjJbQ0gyXVtDSDJdU0MyPU8=

> <s_epik_cmdline>
J2VwaWtfcHl0aG9uJywgJy1waCcsICc3LjAnLCAnLXRuJywgJzgnLCAnLW1hJywgJzIwMCcsICctbWV0YWxfYmluZGluZycsICctaW1hZScsICc8aW5maWxlLm1hZT4nLCAnLW9tYWUnLCAnPG91dGZpbGUubWFlPic=

> <r_lp_tautomer_probability>
1

> <r_epik_Ionization_Penalty>
0.618163

> <r_epik_Ionization_Penalty_Charging>
0.618163

> <r_epik_Ionization_Penalty_Neutral>
6.6929e-08

> <r_epik_State_Penalty>
0.633954

> <r_epik_Charging_Adjusted_Penalty>
1.25212

> <i_epik_Tot_Q>
0

> <i_epik_Tot_abs_Q>
0

> <r_epik_Metal_State_Penalty>
0.305924

> <b_epik_Metal_Only>
0

> <s_lp_Force_Field>
OPLS_2005

> <r_lp_Energy>
3.88922

> <b_lp_Chiralities_Consistent>
1

> <s_lp_Variant>
AV-unprocessed.smi:3351-3

> <Gold.Version>
5.8.1

> <Gold.Id.Protein>
6NUR|6NUR_protein|mol2

> <Gold.PLP.Fitness>
43.5906

> <Gold.PLP.PLP>
-39.8982

> <Gold.PLP.part.hbond>
-2.0648

> <Gold.PLP.part.metal>
0.0000

> <Gold.PLP.part.buried>
-6.4142

> <Gold.PLP.part.nonpolar>
-31.7688

> <Gold.PLP.part.repulsive>
0.0949

> <Gold.PLP.ligand.clash>
0.0000

> <Gold.PLP.ligand.torsion>
1.1567

> <Gold.PLP.Chemscore.Hbond>
1.9913

> <Gold.PLP.Chemscore.CHOScore>
0.0000

> <Gold.PLP.Chemscore.Metal>
0.0000

> <Gold.Chemscore.Hbonds>
donor molecule, donor type, donor heavy atom, donor atom, acceptor molecule, acceptor atom, score
      L1  H     9    28       P1  8028  1.00
      P1  H  7989  7998       L1    18  0.59

> <Gold.PLP.Chemscore.Internal.Correction>
0.0321

> <Gold.Rescore>
     Score         DG    S(hbond)    S(metal)    S(lipo)     H(rot)  DE(clash)    DE(int)     intcor
     11.91     -14.02       1.91        0.00      69.46       2.33       0.05       2.06       ----

> <Gold.Chemscore.Fitness>
11.9068

> <Gold.Chemscore.DG>
-14.0181

> <Gold.Chemscore.ZeroCoef>
-5.4800

> <Gold.Chemscore.Hbond>
1.9102

> <Gold.Chemscore.Metal>
0.0000

> <Gold.Chemscore.Lipo>
69.4637

> <Gold.Chemscore.Internal_Hbond>
0.0000

> <Gold.Chemscore.DEClash>
0.0513

> <Gold.Chemscore.DEInternal>
2.0599

> <Gold.Chemscore.Rot>
2.3317

> <Gold.Chemscore.Internal.Correction>
   9.000000E+99

> <Gold.Chemscore.Hbonds>
donor molecule, donor type, donor heavy atom, donor atom, acceptor molecule, acceptor atom, score
      L1  H     9    28       P1  8028  0.94
      P1  H  7989  7998       L1    18  0.17

> <Gold.Chemscore.Hbond.Weighted>
-6.3801

> <Gold.Chemscore.Metal.Weighted>
-0.0000

> <Gold.Chemscore.Lipo.Weighted>
-8.1273

> <Gold.Chemscore.Internal_Hbond.Weighted>
0.0000

> <Gold.Chemscore.DEClash.Weighted>
0.0513

> <Gold.Chemscore.DEInternal.Weighted>
2.0599

> <Gold.Chemscore.Rot.Weighted>
5.9692

> <Gold.Chemscore.Internal.Correction.Weighted>
   9.000000E+99

> <Gold.Protein.RotatedTorsions>
[ 6907 6896 6895 6894 ] final  163.38 input  -60.11 | X-H torsion
[ 7974 7965 7964 7962 ] final  -20.46 input  175.53 | X-H torsion
[ 8008 7997 7996 7995 ] final   64.40 input   59.86 | X-H torsion
[ 10167 10162 10161 10158 ] final  125.20 input  -65.29 | X-H torsion
[ 10718 10713 10712 10709 ] final  -63.63 input   66.30 | X-H torsion
[ 10763 10752 10751 10750 ] final  -82.20 input  -60.55 | X-H torsion
[ 11005 11000 10999 10996 ] final   85.79 input  -57.11 | X-H torsion

> <Gold.Protein.ActiveResidues>
 VAL166  LYS551  ARG553  GLY616  TRP617  ASP618  TYR619  PRO620  LYS621  CYS622 
 ASP623  PHE694  ASN695  SER759  ASP760  ASP761  ALA762  ILE779  LEU786  VAL792 
 PHE793  MET794  SER795  GLU796  ALA797  LYS798  CYS799  TRP800  GLU811  SER814 

> <Gold.Protein.RotatedAtoms>
  151.9260  133.3598  159.3913 H   0  0  0  0  0  0  0  0  0  0  0  0  # atno 6907 bound_to 6896
  150.7027  134.4586  159.5379 H   0  0  0  0  0  0  0  0  0  0  0  0  # atno 6908 bound_to 6896
  152.2218  134.8405  160.0536 H   0  0  0  0  0  0  0  0  0  0  0  0  # atno 6909 bound_to 6896
  146.1787  140.4205  142.8503 H   0  0  0  0  0  0  0  0  0  0  0  0  # atno 7974 bound_to 7965
  155.6455  140.3497  155.4729 H   0  0  0  0  0  0  0  0  0  0  0  0  # atno 8008 bound_to 7997
  155.9891  140.1190  157.0678 H   0  0  0  0  0  0  0  0  0  0  0  0  # atno 8009 bound_to 7997
  154.4214  140.1123  156.5527 H   0  0  0  0  0  0  0  0  0  0  0  0  # atno 8010 bound_to 7997
  139.5699  144.6933  151.3808 H   0  0  0  0  0  0  0  0  0  0  0  0  # atno 10167 bound_to 10162
  156.0779  130.4223  150.1304 H   0  0  0  0  0  0  0  0  0  0  0  0  # atno 10718 bound_to 10713
  154.5729  135.5599  153.7112 H   0  0  0  0  0  0  0  0  0  0  0  0  # atno 10763 bound_to 10752
  153.0054  135.6301  154.2089 H   0  0  0  0  0  0  0  0  0  0  0  0  # atno 10764 bound_to 10752
  154.2029  135.2877  155.2964 H   0  0  0  0  0  0  0  0  0  0  0  0  # atno 10765 bound_to 10752
  139.8962  134.8311  156.2631 H   0  0  0  0  0  0  0  0  0  0  0  0  # atno 11005 bound_to 11000
  144.8278  140.6658  143.6310 LP  0  0  0  0  0  0  0  0  0  0  0  0  # atno 17320 bound_to 7965
  145.4139  139.1575  143.4111 LP  0  0  0  0  0  0  0  0  0  0  0  0  # atno 17321 bound_to 7965
  140.6983  143.7695  150.7362 LP  0  0  0  0  0  0  0  0  0  0  0  0  # atno 17342 bound_to 10162
  140.1198  143.4623  152.2320 LP  0  0  0  0  0  0  0  0  0  0  0  0  # atno 17343 bound_to 10162
  156.9341  130.9723  151.3528 LP  0  0  0  0  0  0  0  0  0  0  0  0  # atno 17370 bound_to 10713
  157.5883  130.8425  149.8622 LP  0  0  0  0  0  0  0  0  0  0  0  0  # atno 17371 bound_to 10713
  141.0149  133.7074  156.1173 LP  0  0  0  0  0  0  0  0  0  0  0  0  # atno 17394 bound_to 11000
  140.7315  134.4249  157.5565 LP  0  0  0  0  0  0  0  0  0  0  0  0  # atno 17395 bound_to 11000

$$$$
