AV-unprocessed.smi:3132|AV-procd|sdf|11932|dock3
  -GOLD-   2272017323D 1   1.00000     0.00000
 Structure written by MMmdl.
 34 35  0  0  0  0  0  0  0  0  2 V2000
  149.3337  141.5022  154.9370 C   0  0  0  0  0  0  0  0  0  0  0  0
  150.1489  141.2348  156.2093 C   0  0  1  0  0  0  0  0  0  0  0  0
  151.4713  140.5057  155.8858 C   0  0  0  0  0  0  0  0  0  0  0  0
  151.2659  139.1588  155.3421 N   0  0  0  0  0  0  0  0  0  0  0  0
  151.6068  137.9649  155.9252 C   0  0  0  0  0  0  0  0  0  0  0  0
  151.2047  136.9792  155.0613 C   0  0  0  0  0  0  0  0  0  0  0  0
  150.6419  137.6125  153.9857 N   0  3  0  0  0  0  0  0  0  0  0  0
  150.6827  138.9379  154.1569 C   0  0  0  0  0  0  0  0  0  0  0  0
  150.4062  142.5057  156.8857 N   0  0  0  0  0  0  0  0  0  0  0  0
  151.2470  142.6882  157.9167 C   0  0  0  0  0  0  0  0  0  0  0  0
  151.8913  141.7742  158.4334 O   0  0  0  0  0  0  0  0  0  0  0  0
  151.4132  144.1318  158.4027 C   0  0  1  0  0  0  0  0  0  0  0  0
  150.1207  144.7762  158.9382 C   0  0  0  0  0  0  0  0  0  0  0  0
  150.3342  144.8033  160.4383 C   0  0  0  0  0  0  0  0  0  0  0  0
  151.8449  144.9656  160.5292 C   0  0  0  0  0  0  0  0  0  0  0  0
  152.3280  144.1172  159.4984 O   0  0  0  0  0  0  0  0  0  0  0  0
  149.0965  140.5719  154.4201 H   0  0  0  0  0  0  0  0  0  0  0  0
  149.8799  142.1393  154.2402 H   0  0  0  0  0  0  0  0  0  0  0  0
  148.3901  141.9965  155.1713 H   0  0  0  0  0  0  0  0  0  0  0  0
  149.5410  140.5933  156.8499 H   0  0  0  0  0  0  0  0  0  0  0  0
  152.0482  141.0698  155.1514 H   0  0  0  0  0  0  0  0  0  0  0  0
  152.0942  140.4195  156.7775 H   0  0  0  0  0  0  0  0  0  0  0  0
  152.0879  137.9067  156.8909 H   0  0  0  0  0  0  0  0  0  0  0  0
  151.2735  135.9033  155.1303 H   0  0  0  0  0  0  0  0  0  0  0  0
  150.3072  139.6821  153.4775 H   0  0  0  0  0  0  0  0  0  0  0  0
  149.9254  143.3175  156.5251 H   0  0  0  0  0  0  0  0  0  0  0  0
  151.8228  144.7470  157.5996 H   0  0  0  0  0  0  0  0  0  0  0  0
  150.0355  145.7952  158.5579 H   0  0  0  0  0  0  0  0  0  0  0  0
  149.2061  144.2504  158.6600 H   0  0  0  0  0  0  0  0  0  0  0  0
  149.7866  145.6043  160.9359 H   0  0  0  0  0  0  0  0  0  0  0  0
  150.0311  143.8527  160.8798 H   0  0  0  0  0  0  0  0  0  0  0  0
  152.1380  145.9957  160.3202 H   0  0  0  0  0  0  0  0  0  0  0  0
  152.2438  144.6824  161.5036 H   0  0  0  0  0  0  0  0  0  0  0  0
  150.2473  137.1472  153.1778 H   0  0  0  0  0  0  0  0  0  0  0  0
  1  2  1  0  0  0  0
  1 17  1  0  0  0  0
  1 18  1  0  0  0  0
  1 19  1  0  0  0  0
  2  3  1  0  0  0  0
  2  9  1  0  0  0  0
  2 20  1  0  0  0  0
  3  4  1  0  0  0  0
  3 21  1  0  0  0  0
  3 22  1  0  0  0  0
  4  8  1  0  0  0  0
  4  5  1  0  0  0  0
  5  6  2  0  0  0  0
  5 23  1  0  0  0  0
  6  7  1  0  0  0  0
  6 24  1  0  0  0  0
  7  8  2  0  0  0  0
  7 34  1  0  0  0  0
  8 25  1  0  0  0  0
  9 10  1  0  0  0  0
  9 26  1  0  0  0  0
 10 11  2  0  0  0  0
 10 12  1  0  0  0  0
 12 16  1  0  0  0  0
 12 13  1  0  0  0  0
 12 27  1  0  0  0  0
 13 14  1  0  0  0  0
 13 28  1  0  0  0  0
 13 29  1  0  0  0  0
 14 15  1  0  0  0  0
 14 30  1  0  0  0  0
 14 31  1  0  0  0  0
 15 16  1  0  0  0  0
 15 32  1  0  0  0  0
 15 33  1  0  0  0  0
M  CHG  1   7   1
M  END
> <s_m_source_file>
AV-unprocessed.smi

> <i_m_source_file_index>
3132

> <i_lp_mmshare_version>
43012

> <i_f3d_flags>
0

> <s_epik_input>
W2NIXTFuW2NIXVtjSF1uMVtDSDJdW0NAQEhdKFtDSDNdKVtOSF1DKD1PKVtDQEBIXTJbQ0gyXVtDSDJdW0NIMl1PMg==

> <s_epik_cmdline>
J2VwaWtfcHl0aG9uJywgJy1waCcsICc3LjAnLCAnLXRuJywgJzgnLCAnLW1hJywgJzIwMCcsICctbWV0YWxfYmluZGluZycsICctaW1hZScsICc8aW5maWxlLm1hZT4nLCAnLW9tYWUnLCAnPG91dGZpbGUubWFlPic=

> <r_lp_tautomer_probability>
1

> <r_epik_Ionization_Penalty>
0.250802

> <r_epik_Ionization_Penalty_Charging>
0

> <r_epik_Ionization_Penalty_Neutral>
0.250802

> <r_epik_State_Penalty>
0.242139

> <r_epik_Charging_Adjusted_Penalty>
0.242139

> <i_epik_Tot_Q>
1

> <i_epik_Tot_abs_Q>
1

> <r_epik_Metal_State_Penalty>
0.533361

> <b_epik_Metal_Only>
0

> <s_lp_Force_Field>
OPLS_2005

> <r_lp_Energy>
20.1872

> <b_lp_Chiralities_Consistent>
1

> <s_lp_Variant>
AV-unprocessed.smi:3132-4

> <Gold.Version>
5.8.1

> <Gold.Id.Protein>
6NUR|6NUR_protein|mol2

> <Gold.PLP.Fitness>
45.5642

> <Gold.PLP.PLP>
-33.8933

> <Gold.PLP.part.hbond>
-2.9544

> <Gold.PLP.part.metal>
0.0000

> <Gold.PLP.part.buried>
-4.1059

> <Gold.PLP.part.nonpolar>
-28.0709

> <Gold.PLP.part.repulsive>
0.1078

> <Gold.PLP.ligand.clash>
0.0000

> <Gold.PLP.ligand.torsion>
0.1812

> <Gold.PLP.Chemscore.Hbond>
3.0000

> <Gold.PLP.Chemscore.CHOScore>
1.0000

> <Gold.PLP.Chemscore.Metal>
0.0000

> <Gold.Chemscore.Hbonds>
donor molecule, donor type, donor heavy atom, donor atom, acceptor molecule, acceptor atom, score
      L1  H     7    34       P1  7948  1.20
      L1  H     9    26       P1  8028  1.00
      L1  C     8    25       P1  7957  1.00

> <Gold.PLP.Chemscore.Internal.Correction>
0.0332

> <Gold.Rescore>
     Score         DG    S(hbond)    S(metal)    S(lipo)     H(rot)  DE(clash)    DE(int)     intcor
     13.06     -16.02       1.97        0.00      76.04       1.93       1.43       1.53       ----

> <Gold.Chemscore.Fitness>
13.0590

> <Gold.Chemscore.DG>
-16.0164

> <Gold.Chemscore.ZeroCoef>
-5.4800

> <Gold.Chemscore.Hbond>
1.9707

> <Gold.Chemscore.Metal>
0.0000

> <Gold.Chemscore.Lipo>
76.0441

> <Gold.Chemscore.Internal_Hbond>
0.0000

> <Gold.Chemscore.DEClash>
1.4267

> <Gold.Chemscore.DEInternal>
1.5308

> <Gold.Chemscore.Rot>
1.9308

> <Gold.Chemscore.Internal.Correction>
   9.000000E+99

> <Gold.Chemscore.Hbonds>
donor molecule, donor type, donor heavy atom, donor atom, acceptor molecule, acceptor atom, score
      L1  H     7    34       P1  7948  0.04
      L1  H     9    26       P1  8028  0.99

> <Gold.Chemscore.Hbond.Weighted>
-6.5821

> <Gold.Chemscore.Metal.Weighted>
-0.0000

> <Gold.Chemscore.Lipo.Weighted>
-8.8972

> <Gold.Chemscore.Internal_Hbond.Weighted>
0.0000

> <Gold.Chemscore.DEClash.Weighted>
1.4267

> <Gold.Chemscore.DEInternal.Weighted>
1.5308

> <Gold.Chemscore.Rot.Weighted>
4.9429

> <Gold.Chemscore.Internal.Correction.Weighted>
   9.000000E+99

> <Gold.Protein.RotatedTorsions>
[ 6907 6896 6895 6894 ] final   86.48 input  -60.11 | X-H torsion
[ 7974 7965 7964 7962 ] final  -19.77 input  175.53 | X-H torsion
[ 8008 7997 7996 7995 ] final    1.57 input   59.86 | X-H torsion
[ 10167 10162 10161 10158 ] final  121.39 input  -65.29 | X-H torsion
[ 10718 10713 10712 10709 ] final  -57.43 input   66.30 | X-H torsion
[ 10763 10752 10751 10750 ] final  -56.16 input  -60.55 | X-H torsion
[ 11005 11000 10999 10996 ] final  -62.86 input  -57.11 | X-H torsion

> <Gold.Protein.ActiveResidues>
 VAL166  LYS551  ARG553  GLY616  TRP617  ASP618  TYR619  PRO620  LYS621  CYS622 
 ASP623  PHE694  ASN695  SER759  ASP760  ASP761  ALA762  ILE779  LEU786  VAL792 
 PHE793  MET794  SER795  GLU796  ALA797  LYS798  CYS799  TRP800  GLU811  SER814 

> <Gold.Protein.RotatedAtoms>
  152.5395  134.2424  159.8866 H   0  0  0  0  0  0  0  0  0  0  0  0  # atno 6907 bound_to 6896
  151.2391  133.4402  159.2614 H   0  0  0  0  0  0  0  0  0  0  0  0  # atno 6908 bound_to 6896
  151.0644  134.9771  159.8333 H   0  0  0  0  0  0  0  0  0  0  0  0  # atno 6909 bound_to 6896
  146.1824  140.4109  142.8489 H   0  0  0  0  0  0  0  0  0  0  0  0  # atno 7974 bound_to 7965
  154.6813  140.2633  155.6905 H   0  0  0  0  0  0  0  0  0  0  0  0  # atno 8008 bound_to 7997
  156.2698  140.2809  156.1281 H   0  0  0  0  0  0  0  0  0  0  0  0  # atno 8009 bound_to 7997
  155.1027  140.0374  157.2691 H   0  0  0  0  0  0  0  0  0  0  0  0  # atno 8010 bound_to 7997
  139.5923  144.7029  151.3261 H   0  0  0  0  0  0  0  0  0  0  0  0  # atno 10167 bound_to 10162
  156.1211  130.4166  150.0440 H   0  0  0  0  0  0  0  0  0  0  0  0  # atno 10718 bound_to 10713
  154.2022  135.6409  153.5090 H   0  0  0  0  0  0  0  0  0  0  0  0  # atno 10763 bound_to 10752
  153.0009  135.5454  154.6303 H   0  0  0  0  0  0  0  0  0  0  0  0  # atno 10764 bound_to 10752
  154.5719  135.2917  155.0792 H   0  0  0  0  0  0  0  0  0  0  0  0  # atno 10765 bound_to 10752
  141.1374  133.6645  156.5592 H   0  0  0  0  0  0  0  0  0  0  0  0  # atno 11005 bound_to 11000
  144.8337  140.6748  143.6274 LP  0  0  0  0  0  0  0  0  0  0  0  0  # atno 17320 bound_to 7965
  145.4039  139.1592  143.4162 LP  0  0  0  0  0  0  0  0  0  0  0  0  # atno 17321 bound_to 7965
  140.7183  143.7206  150.7699 LP  0  0  0  0  0  0  0  0  0  0  0  0  # atno 17342 bound_to 10162
  140.0764  143.5011  152.2553 LP  0  0  0  0  0  0  0  0  0  0  0  0  # atno 17343 bound_to 10162
  156.8378  130.9415  151.3633 LP  0  0  0  0  0  0  0  0  0  0  0  0  # atno 17370 bound_to 10713
  157.6394  130.8793  149.9420 LP  0  0  0  0  0  0  0  0  0  0  0  0  # atno 17371 bound_to 10713
  140.4002  134.7363  157.4775 LP  0  0  0  0  0  0  0  0  0  0  0  0  # atno 17394 bound_to 11000
  140.0502  134.6142  155.8871 LP  0  0  0  0  0  0  0  0  0  0  0  0  # atno 17395 bound_to 11000

$$$$
