AV-unprocessed.smi:1796|AV-procd|sdf|7251|dock4
  -GOLD-   22720 8503D 1   1.00000     0.00000
 Structure written by MMmdl.
 42 43  0  0  0  0  0  0  0  0  1 V2000
  149.5431  138.6993  153.8715 C   0  0  0  0  0  0  0  0  0  0  0  0
  150.6500  139.3998  154.6638 C   0  0  0  0  0  0  0  0  0  0  0  0
  150.7501  140.6224  154.5600 O   0  0  0  0  0  0  0  0  0  0  0  0
  151.4770  138.6611  155.4419 N   0  0  0  0  0  0  0  0  0  0  0  0
  151.3171  137.2127  155.6248 C   0  0  0  0  0  0  0  0  0  0  0  0
  150.8598  136.9381  157.0697 C   0  0  0  0  0  0  0  0  0  0  0  0
  151.8367  137.5558  158.0888 C   0  0  0  0  0  0  0  0  0  0  0  0
  152.1110  139.0443  157.7775 C   0  0  1  0  0  0  0  0  0  0  0  0
  153.1740  139.6310  158.7128 C   0  0  0  0  0  0  0  0  0  0  0  0
  154.3355  139.2263  158.6608 O   0  0  0  0  0  0  0  0  0  0  0  0
  152.7667  140.6145  159.5309 N   0  0  0  0  0  0  0  0  0  0  0  0
  153.6347  141.4425  160.3671 C   0  0  2  0  0  0  0  0  0  0  0  0
  154.2229  140.5837  161.4946 C   0  0  0  0  0  0  0  0  0  0  0  0
  152.8434  142.6456  160.9221 C   0  0  0  0  0  0  0  0  0  0  0  0
  152.2598  143.4627  159.8715 N   0  0  0  0  0  0  0  0  0  0  0  0
  152.8986  144.0920  158.8233 C   0  0  0  0  0  0  0  0  0  0  0  0
  151.9473  144.7676  158.1145 C   0  0  0  0  0  0  0  0  0  0  0  0
  150.7405  144.4812  158.8120 C   0  0  0  0  0  0  0  0  0  0  0  0
  150.9303  143.6980  159.8619 N   0  0  0  0  0  0  0  0  0  0  0  0
  152.5380  139.2018  156.3007 C   0  0  0  0  0  0  0  0  0  0  0  0
  149.9617  137.9512  153.1979 H   0  0  0  0  0  0  0  0  0  0  0  0
  148.9897  139.4187  153.2668 H   0  0  0  0  0  0  0  0  0  0  0  0
  148.8340  138.2147  154.5434 H   0  0  0  0  0  0  0  0  0  0  0  0
  150.6077  136.7732  154.9224 H   0  0  0  0  0  0  0  0  0  0  0  0
  152.2701  136.7178  155.4327 H   0  0  0  0  0  0  0  0  0  0  0  0
  149.8638  137.3565  157.2202 H   0  0  0  0  0  0  0  0  0  0  0  0
  150.7730  135.8644  157.2390 H   0  0  0  0  0  0  0  0  0  0  0  0
  151.4364  137.4463  159.0974 H   0  0  0  0  0  0  0  0  0  0  0  0
  152.7714  136.9931  158.0658 H   0  0  0  0  0  0  0  0  0  0  0  0
  151.1823  139.6000  157.9221 H   0  0  0  0  0  0  0  0  0  0  0  0
  151.7888  140.8651  159.5104 H   0  0  0  0  0  0  0  0  0  0  0  0
  154.4724  141.8244  159.7809 H   0  0  0  0  0  0  0  0  0  0  0  0
  154.8913  141.1708  162.1252 H   0  0  0  0  0  0  0  0  0  0  0  0
  154.7989  139.7492  161.0934 H   0  0  0  0  0  0  0  0  0  0  0  0
  153.4395  140.1728  162.1325 H   0  0  0  0  0  0  0  0  0  0  0  0
  152.0422  142.3044  161.5794 H   0  0  0  0  0  0  0  0  0  0  0  0
  153.4939  143.2789  161.5272 H   0  0  0  0  0  0  0  0  0  0  0  0
  153.9661  144.0168  158.6776 H   0  0  0  0  0  0  0  0  0  0  0  0
  152.0918  145.3754  157.2336 H   0  0  0  0  0  0  0  0  0  0  0  0
  149.7388  144.8175  158.5881 H   0  0  0  0  0  0  0  0  0  0  0  0
  153.4585  138.6477  156.1085 H   0  0  0  0  0  0  0  0  0  0  0  0
  152.7821  140.2415  156.0852 H   0  0  0  0  0  0  0  0  0  0  0  0
  1  2  1  0  0  0  0
  1 21  1  0  0  0  0
  1 22  1  0  0  0  0
  1 23  1  0  0  0  0
  2  3  2  0  0  0  0
  2  4  1  0  0  0  0
  4 20  1  0  0  0  0
  4  5  1  0  0  0  0
  5  6  1  0  0  0  0
  5 24  1  0  0  0  0
  5 25  1  0  0  0  0
  6  7  1  0  0  0  0
  6 26  1  0  0  0  0
  6 27  1  0  0  0  0
  7  8  1  0  0  0  0
  7 28  1  0  0  0  0
  7 29  1  0  0  0  0
  8  9  1  0  0  0  0
  8 20  1  0  0  0  0
  8 30  1  0  0  0  0
  9 10  2  0  0  0  0
  9 11  1  0  0  0  0
 11 12  1  0  0  0  0
 11 31  1  0  0  0  0
 12 13  1  0  0  0  0
 12 14  1  0  0  0  0
 12 32  1  0  0  0  0
 13 33  1  0  0  0  0
 13 34  1  0  0  0  0
 13 35  1  0  0  0  0
 14 15  1  0  0  0  0
 14 36  1  0  0  0  0
 14 37  1  0  0  0  0
 15 19  1  0  0  0  0
 15 16  1  0  0  0  0
 16 17  2  0  0  0  0
 16 38  1  0  0  0  0
 17 18  1  0  0  0  0
 17 39  1  0  0  0  0
 18 19  2  0  0  0  0
 18 40  1  0  0  0  0
 20 41  1  0  0  0  0
 20 42  1  0  0  0  0
M  END
> <s_m_source_file>
AV-unprocessed.smi

> <i_m_source_file_index>
1796

> <i_lp_mmshare_version>
43012

> <i_f3d_flags>
0

> <s_epik_input>
W0NIM11DKD1PKU4xW0NIMl1bQ0gyXVtDSDJdW0NASF0oW0NIMl0xKUMoPU8pW05IXVtDQEhdKFtDSDNdKVtDSDJdbjJbY0hdW2NIXVtjSF1uMg==

> <s_epik_cmdline>
J2VwaWtfcHl0aG9uJywgJy1waCcsICc3LjAnLCAnLXRuJywgJzgnLCAnLW1hJywgJzIwMCcsICctbWV0YWxfYmluZGluZycsICctaW1hZScsICc8aW5maWxlLm1hZT4nLCAnLW9tYWUnLCAnPG91dGZpbGUubWFlPic=

> <r_lp_tautomer_probability>
1

> <r_epik_Ionization_Penalty>
0.000315051

> <r_epik_Ionization_Penalty_Charging>
0

> <r_epik_Ionization_Penalty_Neutral>
0.000315051

> <r_epik_State_Penalty>
-0

> <r_epik_Charging_Adjusted_Penalty>
0

> <i_epik_Tot_Q>
0

> <i_epik_Tot_abs_Q>
0

> <r_epik_Metal_State_Penalty>
-0

> <b_epik_Metal_Only>
0

> <s_lp_Force_Field>
OPLS_2005

> <r_lp_Energy>
23.171

> <b_lp_Chiralities_Consistent>
1

> <s_lp_Variant>
AV-unprocessed.smi:1796-1

> <Gold.Version>
5.8.1

> <Gold.Id.Protein>
6NUR|6NUR_protein|mol2

> <Gold.PLP.Fitness>
50.6448

> <Gold.PLP.PLP>
-42.0273

> <Gold.PLP.part.hbond>
-2.2050

> <Gold.PLP.part.metal>
0.0000

> <Gold.PLP.part.buried>
-4.5602

> <Gold.PLP.part.nonpolar>
-35.2038

> <Gold.PLP.part.repulsive>
0.3021

> <Gold.PLP.ligand.clash>
0.0000

> <Gold.PLP.ligand.torsion>
0.1593

> <Gold.PLP.Chemscore.Hbond>
1.9760

> <Gold.PLP.Chemscore.CHOScore>
0.9911

> <Gold.PLP.Chemscore.Metal>
0.0000

> <Gold.Chemscore.Hbonds>
donor molecule, donor type, donor heavy atom, donor atom, acceptor molecule, acceptor atom, score
      P1  H  7989  7998       L1     3  0.66
      P1  H  7997  8008       L1    10  0.90
      L1  C    18    40       P1  8029  1.00

> <Gold.PLP.Chemscore.Internal.Correction>
0.0347

> <Gold.Rescore>
     Score         DG    S(hbond)    S(metal)    S(lipo)     H(rot)  DE(clash)    DE(int)     intcor
     18.03     -18.60       1.87        0.00      94.62       1.63       0.22       0.35       ----

> <Gold.Chemscore.Fitness>
18.0266

> <Gold.Chemscore.DG>
-18.6037

> <Gold.Chemscore.ZeroCoef>
-5.4800

> <Gold.Chemscore.Hbond>
1.8669

> <Gold.Chemscore.Metal>
0.0000

> <Gold.Chemscore.Lipo>
94.6186

> <Gold.Chemscore.Internal_Hbond>
0.0000

> <Gold.Chemscore.DEClash>
0.2221

> <Gold.Chemscore.DEInternal>
0.3549

> <Gold.Chemscore.Rot>
1.6336

> <Gold.Chemscore.Internal.Correction>
   9.000000E+99

> <Gold.Chemscore.Hbonds>
donor molecule, donor type, donor heavy atom, donor atom, acceptor molecule, acceptor atom, score
      P1  H  7989  7998       L1     3  0.41
      P1  H  7997  8008       L1    10  0.18

> <Gold.Chemscore.Hbond.Weighted>
-6.2355

> <Gold.Chemscore.Metal.Weighted>
-0.0000

> <Gold.Chemscore.Lipo.Weighted>
-11.0704

> <Gold.Chemscore.Internal_Hbond.Weighted>
0.0000

> <Gold.Chemscore.DEClash.Weighted>
0.2221

> <Gold.Chemscore.DEInternal.Weighted>
0.3549

> <Gold.Chemscore.Rot.Weighted>
4.1821

> <Gold.Chemscore.Internal.Correction.Weighted>
   9.000000E+99

> <Gold.Protein.RotatedTorsions>
[ 6907 6896 6895 6894 ] final -156.48 input  -60.11 | X-H torsion
[ 7974 7965 7964 7962 ] final   17.62 input  175.53 | X-H torsion
[ 8008 7997 7996 7995 ] final -100.76 input   59.86 | X-H torsion
[ 10167 10162 10161 10158 ] final  121.42 input  -65.29 | X-H torsion
[ 10718 10713 10712 10709 ] final   -8.17 input   66.30 | X-H torsion
[ 10763 10752 10751 10750 ] final -134.79 input  -60.55 | X-H torsion
[ 11005 11000 10999 10996 ] final   61.78 input  -57.11 | X-H torsion

> <Gold.Protein.ActiveResidues>
 VAL166  LYS551  ARG553  GLY616  TRP617  ASP618  TYR619  PRO620  LYS621  CYS622 
 ASP623  PHE694  ASN695  SER759  ASP760  ASP761  ALA762  ILE779  LEU786  VAL792 
 PHE793  MET794  SER795  GLU796  ALA797  LYS798  CYS799  TRP800  GLU811  SER814 

> <Gold.Protein.RotatedAtoms>
  151.2882  133.4177  159.2631 H   0  0  0  0  0  0  0  0  0  0  0  0  # atno 6907 bound_to 6896
  151.0300  134.9533  159.8116 H   0  0  0  0  0  0  0  0  0  0  0  0  # atno 6908 bound_to 6896
  152.5343  134.2843  159.9072 H   0  0  0  0  0  0  0  0  0  0  0  0  # atno 6909 bound_to 6896
  146.2212  139.8576  142.8610 H   0  0  0  0  0  0  0  0  0  0  0  0  # atno 7974 bound_to 7965
  154.8330  140.0439  157.1490 H   0  0  0  0  0  0  0  0  0  0  0  0  # atno 8008 bound_to 7997
  154.9131  140.3016  155.5235 H   0  0  0  0  0  0  0  0  0  0  0  0  # atno 8009 bound_to 7997
  156.2988  140.2354  156.4172 H   0  0  0  0  0  0  0  0  0  0  0  0  # atno 8010 bound_to 7997
  139.5921  144.7029  151.3265 H   0  0  0  0  0  0  0  0  0  0  0  0  # atno 10167 bound_to 10162
  156.7065  130.5109  149.5903 H   0  0  0  0  0  0  0  0  0  0  0  0  # atno 10718 bound_to 10713
  154.8713  135.3723  154.4793 H   0  0  0  0  0  0  0  0  0  0  0  0  # atno 10763 bound_to 10752
  153.5448  135.7026  153.5624 H   0  0  0  0  0  0  0  0  0  0  0  0  # atno 10764 bound_to 10752
  153.3770  135.4006  155.1794 H   0  0  0  0  0  0  0  0  0  0  0  0  # atno 10765 bound_to 10752
  140.0137  134.6257  155.9742 H   0  0  0  0  0  0  0  0  0  0  0  0  # atno 11005 bound_to 11000
  145.2737  141.0117  143.3757 LP  0  0  0  0  0  0  0  0  0  0  0  0  # atno 17320 bound_to 7965
  144.9204  139.4419  143.6544 LP  0  0  0  0  0  0  0  0  0  0  0  0  # atno 17321 bound_to 7965
  140.7181  143.7210  150.7696 LP  0  0  0  0  0  0  0  0  0  0  0  0  # atno 17342 bound_to 10162
  140.0768  143.5008  152.2551 LP  0  0  0  0  0  0  0  0  0  0  0  0  # atno 17343 bound_to 10162
  156.1692  130.6425  151.0816 LP  0  0  0  0  0  0  0  0  0  0  0  0  # atno 17370 bound_to 10713
  157.6953  131.0796  150.6987 LP  0  0  0  0  0  0  0  0  0  0  0  0  # atno 17371 bound_to 10713
  141.1728  133.6538  156.4716 LP  0  0  0  0  0  0  0  0  0  0  0  0  # atno 17394 bound_to 11000
  140.4509  134.6930  157.5039 LP  0  0  0  0  0  0  0  0  0  0  0  0  # atno 17395 bound_to 11000

$$$$
