AV-unprocessed.smi:3031|AV-procd|sdf|11556|dock7
  -GOLD-   2272016523D 1   1.00000     0.00000
 Structure written by MMmdl.
 46 47  0  0  0  0  0  0  0  0  1 V2000
  143.7506  132.3725  149.5151 C   0  0  0  0  0  0  0  0  0  0  0  0
  144.0625  133.3365  150.6231 C   0  0  0  0  0  0  0  0  0  0  0  0
  143.5362  133.3472  151.9457 C   0  0  0  0  0  0  0  0  0  0  0  0
  144.0080  134.3422  152.6786 N   0  0  0  0  0  0  0  0  0  0  0  0
  144.8646  134.9900  151.8603 N   0  0  0  0  0  0  0  0  0  0  0  0
  145.5577  136.1773  152.3330 C   0  0  0  0  0  0  0  0  0  0  0  0
  144.6705  137.4458  152.3728 C   0  0  1  0  0  0  0  0  0  0  0  0
  143.4771  137.2369  153.3157 C   0  0  0  0  0  0  0  0  0  0  0  0
  145.3983  138.6433  152.8056 N   0  0  0  0  0  0  0  0  0  0  0  0
  146.8048  138.7255  152.4153 C   0  0  0  0  0  0  0  0  0  0  0  0
  147.7156  138.9406  153.6386 C   0  0  1  0  0  0  0  0  0  0  0  0
  149.0425  138.7097  153.2149 O   0  0  0  0  0  0  0  0  0  0  0  0
  147.6732  140.3776  154.2073 C   0  0  0  0  0  0  0  0  0  0  0  0
  148.5237  140.6313  155.3714 N   0  0  0  0  0  0  0  0  0  0  0  0
  147.9393  141.6434  156.2435 C   0  0  0  0  0  0  0  0  0  0  0  0
  148.8125  141.9032  157.4832 C   0  0  0  0  0  0  0  0  0  0  0  0
  150.1218  142.2839  157.0728 O   0  0  0  0  0  0  0  0  0  0  0  0
  150.7467  141.3038  156.2504 C   0  0  0  0  0  0  0  0  0  0  0  0
  149.8783  141.0413  155.0076 C   0  0  0  0  0  0  0  0  0  0  0  0
  144.9030  134.4133  150.6076 C   0  0  0  0  0  0  0  0  0  0  0  0
  143.4745  131.3906  149.8995 H   0  0  0  0  0  0  0  0  0  0  0  0
  144.6037  132.2284  148.8520 H   0  0  0  0  0  0  0  0  0  0  0  0
  142.9205  132.7224  148.9014 H   0  0  0  0  0  0  0  0  0  0  0  0
  142.8239  132.6681  152.3904 H   0  0  0  0  0  0  0  0  0  0  0  0
  145.9155  135.9457  153.3372 H   0  0  0  0  0  0  0  0  0  0  0  0
  146.4487  136.3513  151.7269 H   0  0  0  0  0  0  0  0  0  0  0  0
  144.2543  137.6218  151.3805 H   0  0  0  0  0  0  0  0  0  0  0  0
  142.8652  136.3932  152.9949 H   0  0  0  0  0  0  0  0  0  0  0  0
  142.8328  138.1167  153.3363 H   0  0  0  0  0  0  0  0  0  0  0  0
  143.8062  137.0408  154.3369 H   0  0  0  0  0  0  0  0  0  0  0  0
  144.9142  139.4699  152.4676 H   0  0  0  0  0  0  0  0  0  0  0  0
  147.0985  137.8017  151.9198 H   0  0  0  0  0  0  0  0  0  0  0  0
  146.9554  139.5322  151.6967 H   0  0  0  0  0  0  0  0  0  0  0  0
  147.4986  138.2007  154.4090 H   0  0  0  0  0  0  0  0  0  0  0  0
  149.1689  139.1381  152.3820 H   0  0  0  0  0  0  0  0  0  0  0  0
  147.9357  141.0826  153.4165 H   0  0  0  0  0  0  0  0  0  0  0  0
  146.6383  140.6025  154.4702 H   0  0  0  0  0  0  0  0  0  0  0  0
  147.8081  142.5760  155.6924 H   0  0  0  0  0  0  0  0  0  0  0  0
  146.9456  141.3275  156.5634 H   0  0  0  0  0  0  0  0  0  0  0  0
  148.3828  142.7000  158.0904 H   0  0  0  0  0  0  0  0  0  0  0  0
  148.8654  141.0127  158.1118 H   0  0  0  0  0  0  0  0  0  0  0  0
  151.7338  141.6606  155.9564 H   0  0  0  0  0  0  0  0  0  0  0  0
  150.8944  140.3834  156.8182 H   0  0  0  0  0  0  0  0  0  0  0  0
  150.3603  140.2722  154.4056 H   0  0  0  0  0  0  0  0  0  0  0  0
  149.8412  141.9428  154.3941 H   0  0  0  0  0  0  0  0  0  0  0  0
  145.5197  134.8121  149.8156 H   0  0  0  0  0  0  0  0  0  0  0  0
  1  2  1  0  0  0  0
  1 21  1  0  0  0  0
  1 22  1  0  0  0  0
  1 23  1  0  0  0  0
  2 20  2  0  0  0  0
  2  3  1  0  0  0  0
  3  4  2  0  0  0  0
  3 24  1  0  0  0  0
  4  5  1  0  0  0  0
  5  6  1  0  0  0  0
  5 20  1  0  0  0  0
  6  7  1  0  0  0  0
  6 25  1  0  0  0  0
  6 26  1  0  0  0  0
  7  8  1  0  0  0  0
  7  9  1  0  0  0  0
  7 27  1  0  0  0  0
  8 28  1  0  0  0  0
  8 29  1  0  0  0  0
  8 30  1  0  0  0  0
  9 10  1  0  0  0  0
  9 31  1  0  0  0  0
 10 11  1  0  0  0  0
 10 32  1  0  0  0  0
 10 33  1  0  0  0  0
 11 12  1  0  0  0  0
 11 13  1  0  0  0  0
 11 34  1  0  0  0  0
 12 35  1  0  0  0  0
 13 14  1  0  0  0  0
 13 36  1  0  0  0  0
 13 37  1  0  0  0  0
 14 19  1  0  0  0  0
 14 15  1  0  0  0  0
 15 16  1  0  0  0  0
 15 38  1  0  0  0  0
 15 39  1  0  0  0  0
 16 17  1  0  0  0  0
 16 40  1  0  0  0  0
 16 41  1  0  0  0  0
 17 18  1  0  0  0  0
 18 19  1  0  0  0  0
 18 42  1  0  0  0  0
 18 43  1  0  0  0  0
 19 44  1  0  0  0  0
 19 45  1  0  0  0  0
 20 46  1  0  0  0  0
M  END
> <s_m_source_file>
AV-unprocessed.smi

> <i_m_source_file_index>
3031

> <i_lp_mmshare_version>
43012

> <i_f3d_flags>
0

> <s_epik_input>
W0NIM11jMVtjSF1ubihbY0hdMSlbQ0gyXVtDQEhdKFtDSDNdKVtOSF1bQ0gyXVtDQEhdKFtPSF0pW0NIMl1OMltDSDJdW0NIMl1PW0NIMl1bQ0gyXTI=

> <s_epik_cmdline>
J2VwaWtfcHl0aG9uJywgJy1waCcsICc3LjAnLCAnLXRuJywgJzgnLCAnLW1hJywgJzIwMCcsICctbWV0YWxfYmluZGluZycsICctaW1hZScsICc8aW5maWxlLm1hZT4nLCAnLW9tYWUnLCAnPG91dGZpbGUubWFlPic=

> <r_lp_tautomer_probability>
1

> <r_epik_Ionization_Penalty>
2.8101

> <r_epik_Ionization_Penalty_Charging>
0

> <r_epik_Ionization_Penalty_Neutral>
2.8101

> <r_epik_State_Penalty>
2.12351

> <r_epik_Charging_Adjusted_Penalty>
2.12351

> <i_epik_Tot_Q>
0

> <i_epik_Tot_abs_Q>
0

> <r_epik_Metal_State_Penalty>
2.12345

> <b_epik_Metal_Only>
0

> <s_lp_Force_Field>
OPLS_2005

> <r_lp_Energy>
29.6213

> <b_lp_Chiralities_Consistent>
1

> <s_lp_Variant>
AV-unprocessed.smi:3031-16

> <Gold.Version>
5.8.1

> <Gold.Id.Protein>
6NUR|6NUR_protein|mol2

> <Gold.PLP.Fitness>
41.3385

> <Gold.PLP.PLP>
-33.4275

> <Gold.PLP.part.hbond>
-2.7149

> <Gold.PLP.part.metal>
0.0000

> <Gold.PLP.part.buried>
-1.4890

> <Gold.PLP.part.nonpolar>
-29.9443

> <Gold.PLP.part.repulsive>
0.7890

> <Gold.PLP.ligand.clash>
0.0000

> <Gold.PLP.ligand.torsion>
1.3534

> <Gold.PLP.Chemscore.Hbond>
2.0000

> <Gold.PLP.Chemscore.CHOScore>
1.5108

> <Gold.PLP.Chemscore.Metal>
0.0000

> <Gold.Chemscore.Hbonds>
donor molecule, donor type, donor heavy atom, donor atom, acceptor molecule, acceptor atom, score
      L1  H     9    31       P1 10175  1.00
      L1  H    12    35       P1  7957  1.00
      L1  C     3    24       P1 10957  0.57
      L1  C    20    46       P1  7921  1.00

> <Gold.PLP.Chemscore.Internal.Correction>
0.0854

> <Gold.Rescore>
     Score         DG    S(hbond)    S(metal)    S(lipo)     H(rot)  DE(clash)    DE(int)     intcor
     13.71     -15.36       1.99        0.00      83.02       2.53       0.08       1.56       ----

> <Gold.Chemscore.Fitness>
13.7122

> <Gold.Chemscore.DG>
-15.3563

> <Gold.Chemscore.ZeroCoef>
-5.4800

> <Gold.Chemscore.Hbond>
1.9905

> <Gold.Chemscore.Metal>
0.0000

> <Gold.Chemscore.Lipo>
83.0194

> <Gold.Chemscore.Internal_Hbond>
0.0000

> <Gold.Chemscore.DEClash>
0.0817

> <Gold.Chemscore.DEInternal>
1.5624

> <Gold.Chemscore.Rot>
2.5333

> <Gold.Chemscore.Internal.Correction>
   9.000000E+99

> <Gold.Chemscore.Hbonds>
donor molecule, donor type, donor heavy atom, donor atom, acceptor molecule, acceptor atom, score
      L1  H     9    31       P1 10175  0.94
      L1  H    12    35       P1  7957  0.96

> <Gold.Chemscore.Hbond.Weighted>
-6.6481

> <Gold.Chemscore.Metal.Weighted>
-0.0000

> <Gold.Chemscore.Lipo.Weighted>
-9.7133

> <Gold.Chemscore.Internal_Hbond.Weighted>
0.0000

> <Gold.Chemscore.DEClash.Weighted>
0.0817

> <Gold.Chemscore.DEInternal.Weighted>
1.5624

> <Gold.Chemscore.Rot.Weighted>
6.4852

> <Gold.Chemscore.Internal.Correction.Weighted>
   9.000000E+99

> <Gold.Protein.RotatedTorsions>
[ 6907 6896 6895 6894 ] final -115.15 input  -60.11 | X-H torsion
[ 7974 7965 7964 7962 ] final   85.19 input  175.53 | X-H torsion
[ 8008 7997 7996 7995 ] final  -35.94 input   59.86 | X-H torsion
[ 10167 10162 10161 10158 ] final  -87.54 input  -65.29 | X-H torsion
[ 10718 10713 10712 10709 ] final  114.71 input   66.30 | X-H torsion
[ 10763 10752 10751 10750 ] final    4.49 input  -60.55 | X-H torsion
[ 11005 11000 10999 10996 ] final  139.85 input  -57.11 | X-H torsion

> <Gold.Protein.ActiveResidues>
 VAL166  LYS551  ARG553  GLY616  TRP617  ASP618  TYR619  PRO620  LYS621  CYS622 
 ASP623  PHE694  ASN695  SER759  ASP760  ASP761  ALA762  ILE779  LEU786  VAL792 
 PHE793  MET794  SER795  GLU796  ALA797  LYS798  CYS799  TRP800  GLU811  SER814 

> <Gold.Protein.RotatedAtoms>
  150.7956  133.8700  159.3255 H   0  0  0  0  0  0  0  0  0  0  0  0  # atno 6907 bound_to 6896
  151.6526  135.0998  160.0173 H   0  0  0  0  0  0  0  0  0  0  0  0  # atno 6908 bound_to 6896
  152.4037  133.6816  159.6373 H   0  0  0  0  0  0  0  0  0  0  0  0  # atno 6909 bound_to 6896
  145.5888  139.2335  143.2311 H   0  0  0  0  0  0  0  0  0  0  0  0  # atno 7974 bound_to 7965
  154.4084  140.1644  156.2293 H   0  0  0  0  0  0  0  0  0  0  0  0  # atno 8008 bound_to 7997
  155.9296  140.3415  155.6215 H   0  0  0  0  0  0  0  0  0  0  0  0  # atno 8009 bound_to 7997
  155.7122  140.0758  157.2357 H   0  0  0  0  0  0  0  0  0  0  0  0  # atno 8010 bound_to 7997
  140.3835  143.2737  151.9354 H   0  0  0  0  0  0  0  0  0  0  0  0  # atno 10167 bound_to 10162
  157.6265  131.1002  150.7225 H   0  0  0  0  0  0  0  0  0  0  0  0  # atno 10718 bound_to 10713
  153.2707  135.6932  153.7484 H   0  0  0  0  0  0  0  0  0  0  0  0  # atno 10763 bound_to 10752
  153.6508  135.3377  155.3100 H   0  0  0  0  0  0  0  0  0  0  0  0  # atno 10764 bound_to 10752
  154.8463  135.4454  154.1728 H   0  0  0  0  0  0  0  0  0  0  0  0  # atno 10765 bound_to 10752
  140.0285  134.9363  157.0615 H   0  0  0  0  0  0  0  0  0  0  0  0  # atno 11005 bound_to 11000
  146.1662  140.6715  142.9254 LP  0  0  0  0  0  0  0  0  0  0  0  0  # atno 17320 bound_to 7965
  144.7360  140.4810  143.6903 LP  0  0  0  0  0  0  0  0  0  0  0  0  # atno 17321 bound_to 7965
  139.4793  144.5796  151.7955 LP  0  0  0  0  0  0  0  0  0  0  0  0  # atno 17342 bound_to 10162
  140.4913  144.1306  150.5951 LP  0  0  0  0  0  0  0  0  0  0  0  0  # atno 17343 bound_to 10162
  156.7573  130.4787  149.5444 LP  0  0  0  0  0  0  0  0  0  0  0  0  # atno 17370 bound_to 10713
  156.1440  130.6264  151.0506 LP  0  0  0  0  0  0  0  0  0  0  0  0  # atno 17371 bound_to 10713
  140.4266  134.1824  155.7166 LP  0  0  0  0  0  0  0  0  0  0  0  0  # atno 17394 bound_to 11000
  141.1817  133.8400  157.1235 LP  0  0  0  0  0  0  0  0  0  0  0  0  # atno 17395 bound_to 11000

$$$$
