AV-unprocessed.smi:2746|AV-procd|sdf|10576|dock5
  -GOLD-   2272015 33D 1   1.00000     0.00000
 Structure written by MMmdl.
 38 39  0  0  0  0  0  0  0  0  3 V2000
  146.2075  142.7049  153.8347 C   0  0  0  0  0  0  0  0  0  0  0  0
  146.6512  142.1977  154.9968 C   0  0  0  0  0  0  0  0  0  0  0  0
  147.8797  141.3192  155.1602 C   0  0  1  0  0  0  0  0  0  0  0  0
  148.5384  141.0714  153.7960 C   0  0  0  0  0  0  0  0  0  0  0  0
  148.8867  141.8687  156.0675 N   0  5  0  0  0  0  0  0  0  0  0  0
  150.2091  141.5272  156.0495 C   0  0  0  0  0  0  0  0  0  0  0  0
  150.7921  140.7035  155.3355 O   0  0  0  0  0  0  0  0  0  0  0  0
  151.0301  142.2943  157.0593 C   0  0  0  0  0  0  0  0  0  0  0  0
  151.8735  141.6287  157.9806 C   0  0  0  0  0  0  0  0  0  0  0  0
  152.6317  142.3759  158.9130 C   0  0  0  0  0  0  0  0  0  0  0  0
  153.4828  141.7589  159.8402 N   0  0  0  0  0  0  0  0  0  0  0  0
  153.1350  142.0384  161.2279 C   0  0  0  0  0  0  0  0  0  0  0  0
  154.1888  141.4259  162.1668 C   0  0  0  0  0  0  0  0  0  0  0  0
  154.3043  140.0295  161.9078 O   0  0  0  0  0  0  0  0  0  0  0  0
  154.7153  139.7650  160.5693 C   0  0  0  0  0  0  0  0  0  0  0  0
  153.6772  140.3365  159.5879 C   0  0  0  0  0  0  0  0  0  0  0  0
  152.5288  143.7827  158.9046 C   0  0  0  0  0  0  0  0  0  0  0  0
  151.6771  144.4035  157.9710 C   0  0  0  0  0  0  0  0  0  0  0  0
  150.9747  143.6491  157.1003 N   0  3  0  0  0  0  0  0  0  0  0  0
  146.7071  142.5193  152.8936 H   0  0  0  0  0  0  0  0  0  0  0  0
  145.3219  143.3223  153.8116 H   0  0  0  0  0  0  0  0  0  0  0  0
  146.1045  142.4180  155.9019 H   0  0  0  0  0  0  0  0  0  0  0  0
  147.5293  140.3491  155.5173 H   0  0  0  0  0  0  0  0  0  0  0  0
  147.8323  140.6217  153.0973 H   0  0  0  0  0  0  0  0  0  0  0  0
  149.3864  140.3910  153.8841 H   0  0  0  0  0  0  0  0  0  0  0  0
  148.8994  141.9994  153.3504 H   0  0  0  0  0  0  0  0  0  0  0  0
  151.9432  140.5506  157.9728 H   0  0  0  0  0  0  0  0  0  0  0  0
  153.0746  143.1159  161.3850 H   0  0  0  0  0  0  0  0  0  0  0  0
  152.1532  141.6225  161.4573 H   0  0  0  0  0  0  0  0  0  0  0  0
  155.1567  141.9124  162.0360 H   0  0  0  0  0  0  0  0  0  0  0  0
  153.8968  141.5715  163.2067 H   0  0  0  0  0  0  0  0  0  0  0  0
  155.7011  140.1966  160.3883 H   0  0  0  0  0  0  0  0  0  0  0  0
  154.8092  138.6878  160.4327 H   0  0  0  0  0  0  0  0  0  0  0  0
  152.7309  139.8063  159.7028 H   0  0  0  0  0  0  0  0  0  0  0  0
  154.0104  140.1841  158.5605 H   0  0  0  0  0  0  0  0  0  0  0  0
  153.0958  144.3799  159.6040 H   0  0  0  0  0  0  0  0  0  0  0  0
  151.5370  145.4714  157.8925 H   0  0  0  0  0  0  0  0  0  0  0  0
  150.3624  144.1115  156.4266 H   0  0  0  0  0  0  0  0  0  0  0  0
  1  2  2  0  0  0  0
  1 20  1  0  0  0  0
  1 21  1  0  0  0  0
  2  3  1  0  0  0  0
  2 22  1  0  0  0  0
  3  4  1  0  0  0  0
  3  5  1  0  0  0  0
  3 23  1  0  0  0  0
  4 24  1  0  0  0  0
  4 25  1  0  0  0  0
  4 26  1  0  0  0  0
  5  6  1  0  0  0  0
  6  7  2  0  0  0  0
  6  8  1  0  0  0  0
  8 19  1  0  0  0  0
  8  9  2  0  0  0  0
  9 10  1  0  0  0  0
  9 27  1  0  0  0  0
 10 11  1  0  0  0  0
 10 17  2  0  0  0  0
 11 16  1  0  0  0  0
 11 12  1  0  0  0  0
 12 13  1  0  0  0  0
 12 28  1  0  0  0  0
 12 29  1  0  0  0  0
 13 14  1  0  0  0  0
 13 30  1  0  0  0  0
 13 31  1  0  0  0  0
 14 15  1  0  0  0  0
 15 16  1  0  0  0  0
 15 32  1  0  0  0  0
 15 33  1  0  0  0  0
 16 34  1  0  0  0  0
 16 35  1  0  0  0  0
 17 18  1  0  0  0  0
 17 36  1  0  0  0  0
 18 19  2  0  0  0  0
 18 37  1  0  0  0  0
 19 38  1  0  0  0  0
M  CHG  1   5  -1
M  CHG  1  19   1
M  END
> <s_m_source_file>
AV-unprocessed.smi

> <i_m_source_file_index>
2746

> <i_lp_mmshare_version>
43012

> <i_f3d_flags>
0

> <s_epik_input>
W0NIMl09W0NIXVtDQEhdKFtDSDNdKVtOSF1DKD1PKWMxW2NIXWMoW2NIXVtjSF1uMSlOMltDSDJdW0NIMl1PW0NIMl1bQ0gyXTI=

> <s_epik_cmdline>
J2VwaWtfcHl0aG9uJywgJy1waCcsICc3LjAnLCAnLXRuJywgJzgnLCAnLW1hJywgJzIwMCcsICctbWV0YWxfYmluZGluZycsICctaW1hZScsICc8aW5maWxlLm1hZT4nLCAnLW9tYWUnLCAnPG91dGZpbGUubWFlPic=

> <r_lp_tautomer_probability>
1

> <r_epik_Ionization_Penalty>
4.23471

> <r_epik_Ionization_Penalty_Charging>
4.23471

> <r_epik_Ionization_Penalty_Neutral>
3.18831e-12

> <r_epik_State_Penalty>
4.68748

> <r_epik_Charging_Adjusted_Penalty>
8.92219

> <i_epik_Tot_Q>
0

> <i_epik_Tot_abs_Q>
2

> <r_epik_Metal_State_Penalty>
1.16626

> <b_epik_Metal_Only>
1

> <s_lp_Force_Field>
OPLS_2005

> <r_lp_Energy>
17.3094

> <b_lp_Chiralities_Consistent>
1

> <s_lp_Variant>
AV-unprocessed.smi:2746-6

> <Gold.Version>
5.8.1

> <Gold.Id.Protein>
6NUR|6NUR_protein|mol2

> <Gold.PLP.Fitness>
48.4267

> <Gold.PLP.PLP>
-42.7030

> <Gold.PLP.part.hbond>
-2.0000

> <Gold.PLP.part.metal>
0.0000

> <Gold.PLP.part.buried>
-3.7774

> <Gold.PLP.part.nonpolar>
-37.5845

> <Gold.PLP.part.repulsive>
1.7765

> <Gold.PLP.ligand.clash>
0.3716

> <Gold.PLP.ligand.torsion>
1.3726

> <Gold.PLP.Chemscore.Hbond>
2.8800

> <Gold.PLP.Chemscore.CHOScore>
0.0000

> <Gold.PLP.Chemscore.Metal>
0.0000

> <Gold.Chemscore.Hbonds>
donor molecule, donor type, donor heavy atom, donor atom, acceptor molecule, acceptor atom, score
      L1  H    19    38       P1  8028  2.00
      P1  H  7989  7998       L1     7  0.88

> <Gold.PLP.Chemscore.Internal.Correction>
0.2004

> <Gold.Rescore>
     Score         DG    S(hbond)    S(metal)    S(lipo)     H(rot)  DE(clash)    DE(int)     intcor
     18.72     -20.47       1.90        0.00     101.87       1.27       0.07       1.68       ----

> <Gold.Chemscore.Fitness>
18.7212

> <Gold.Chemscore.DG>
-20.4674

> <Gold.Chemscore.ZeroCoef>
-5.4800

> <Gold.Chemscore.Hbond>
1.8953

> <Gold.Chemscore.Metal>
0.0000

> <Gold.Chemscore.Lipo>
101.8723

> <Gold.Chemscore.Internal_Hbond>
0.0000

> <Gold.Chemscore.DEClash>
0.0675

> <Gold.Chemscore.DEInternal>
1.6787

> <Gold.Chemscore.Rot>
1.2742

> <Gold.Chemscore.Internal.Correction>
   9.000000E+99

> <Gold.Chemscore.Hbonds>
donor molecule, donor type, donor heavy atom, donor atom, acceptor molecule, acceptor atom, score
      L1  H    19    38       P1  8028  1.00
      P1  H  7989  7998       L1     7  0.82

> <Gold.Chemscore.Hbond.Weighted>
-6.3303

> <Gold.Chemscore.Metal.Weighted>
-0.0000

> <Gold.Chemscore.Lipo.Weighted>
-11.9191

> <Gold.Chemscore.Internal_Hbond.Weighted>
0.0000

> <Gold.Chemscore.DEClash.Weighted>
0.0675

> <Gold.Chemscore.DEInternal.Weighted>
1.6787

> <Gold.Chemscore.Rot.Weighted>
3.2619

> <Gold.Chemscore.Internal.Correction.Weighted>
   9.000000E+99

> <Gold.Protein.RotatedTorsions>
[ 6907 6896 6895 6894 ] final  130.73 input  -60.11 | X-H torsion
[ 7974 7965 7964 7962 ] final  114.80 input  175.53 | X-H torsion
[ 8008 7997 7996 7995 ] final   52.78 input   59.86 | X-H torsion
[ 10167 10162 10161 10158 ] final -110.65 input  -65.29 | X-H torsion
[ 10718 10713 10712 10709 ] final  167.12 input   66.30 | X-H torsion
[ 10763 10752 10751 10750 ] final  178.04 input  -60.55 | X-H torsion
[ 11005 11000 10999 10996 ] final -112.13 input  -57.11 | X-H torsion

> <Gold.Protein.ActiveResidues>
 VAL166  LYS551  ARG553  GLY616  TRP617  ASP618  TYR619  PRO620  LYS621  CYS622 
 ASP623  PHE694  ASN695  SER759  ASP760  ASP761  ALA762  ILE779  LEU786  VAL792 
 PHE793  MET794  SER795  GLU796  ALA797  LYS798  CYS799  TRP800  GLU811  SER814 

> <Gold.Protein.RotatedAtoms>
  152.3497  133.6165  159.5935 H   0  0  0  0  0  0  0  0  0  0  0  0  # atno 6907 bound_to 6896
  150.7530  133.9593  159.3519 H   0  0  0  0  0  0  0  0  0  0  0  0  # atno 6908 bound_to 6896
  151.7446  135.0847  160.0372 H   0  0  0  0  0  0  0  0  0  0  0  0  # atno 6909 bound_to 6896
  145.1999  139.2957  143.4324 H   0  0  0  0  0  0  0  0  0  0  0  0  # atno 7974 bound_to 7965
  155.4575  140.3460  155.4308 H   0  0  0  0  0  0  0  0  0  0  0  0  # atno 8008 bound_to 7997
  156.1181  140.1479  156.9273 H   0  0  0  0  0  0  0  0  0  0  0  0  # atno 8009 bound_to 7997
  154.4804  140.0871  156.7342 H   0  0  0  0  0  0  0  0  0  0  0  0  # atno 8010 bound_to 7997
  140.1422  143.4269  152.1554 H   0  0  0  0  0  0  0  0  0  0  0  0  # atno 10167 bound_to 10162
  157.0561  131.0327  151.2663 H   0  0  0  0  0  0  0  0  0  0  0  0  # atno 10718 bound_to 10713
  154.5024  135.2784  155.1409 H   0  0  0  0  0  0  0  0  0  0  0  0  # atno 10763 bound_to 10752
  154.3037  135.6243  153.5439 H   0  0  0  0  0  0  0  0  0  0  0  0  # atno 10764 bound_to 10752
  152.9905  135.5703  154.5470 H   0  0  0  0  0  0  0  0  0  0  0  0  # atno 10765 bound_to 10752
  141.0693  133.9406  157.2516 H   0  0  0  0  0  0  0  0  0  0  0  0  # atno 11005 bound_to 11000
  146.3420  140.2240  142.8592 LP  0  0  0  0  0  0  0  0  0  0  0  0  # atno 17320 bound_to 7965
  144.9958  140.8588  143.5311 LP  0  0  0  0  0  0  0  0  0  0  0  0  # atno 17321 bound_to 7965
  139.5466  144.7304  151.4563 LP  0  0  0  0  0  0  0  0  0  0  0  0  # atno 17342 bound_to 10162
  140.6753  143.8202  150.7051 LP  0  0  0  0  0  0  0  0  0  0  0  0  # atno 17343 bound_to 10162
  157.4992  130.7869  149.7586 LP  0  0  0  0  0  0  0  0  0  0  0  0  # atno 17370 bound_to 10713
  155.9992  130.3890  150.2671 LP  0  0  0  0  0  0  0  0  0  0  0  0  # atno 17371 bound_to 10713
  139.9508  135.0176  156.8987 LP  0  0  0  0  0  0  0  0  0  0  0  0  # atno 17394 bound_to 11000
  140.5707  134.0446  155.7429 LP  0  0  0  0  0  0  0  0  0  0  0  0  # atno 17395 bound_to 11000

$$$$
