AV-unprocessed.smi:992|AV-procd|sdf|4331|dock3
  -GOLD-   22720 2233D 1   1.00000     0.00000
 Structure written by MMmdl.
 32 33  0  0  0  0  0  0  0  0  1 V2000
  151.7089  144.6132  158.2289 C   0  0  0  0  0  0  0  0  0  0  0  0
  150.9195  143.4508  158.8565 C   0  0  1  0  0  0  0  0  0  0  0  0
  150.4491  142.4002  157.8303 C   0  0  0  0  0  0  0  0  0  0  0  0
  151.5644  141.5725  157.3897 N   0  0  0  0  0  0  0  0  0  0  0  0
  151.2217  140.6822  156.3623 C   0  0  0  0  0  0  0  0  0  0  0  0
  152.1930  139.7718  155.8952 C   0  0  0  0  0  0  0  0  0  0  0  0
  151.8438  138.8781  154.8644 C   0  0  0  0  0  0  0  0  0  0  0  0
  150.5388  138.9287  154.3363 C   0  0  0  0  0  0  0  0  0  0  0  0
  150.1465  138.0635  153.3159 N   0  0  0  0  0  0  0  0  0  0  0  0
  149.6392  139.8764  154.8658 C   0  0  0  0  0  0  0  0  0  0  0  0
  149.9661  140.7350  155.8553 N   0  0  0  0  0  0  0  0  0  0  0  0
  152.2595  140.9445  158.5047 C   0  0  0  0  0  0  0  0  0  0  0  0
  152.7523  142.0202  159.4893 C   0  0  2  0  0  0  0  0  0  0  0  0
  153.4000  141.4041  160.7336 C   0  0  0  0  0  0  0  0  0  0  0  0
  151.6457  142.8171  159.9138 O   0  0  0  0  0  0  0  0  0  0  0  0
  151.0916  145.1562  157.5129 H   0  0  0  0  0  0  0  0  0  0  0  0
  152.5960  144.2716  157.6960 H   0  0  0  0  0  0  0  0  0  0  0  0
  152.0282  145.3222  158.9928 H   0  0  0  0  0  0  0  0  0  0  0  0
  150.0314  143.8857  159.3160 H   0  0  0  0  0  0  0  0  0  0  0  0
  149.6907  141.7624  158.2869 H   0  0  0  0  0  0  0  0  0  0  0  0
  149.9803  142.8875  156.9743 H   0  0  0  0  0  0  0  0  0  0  0  0
  153.1863  139.7553  156.3197 H   0  0  0  0  0  0  0  0  0  0  0  0
  152.5670  138.1686  154.4893 H   0  0  0  0  0  0  0  0  0  0  0  0
  150.7841  137.3814  152.9305 H   0  0  0  0  0  0  0  0  0  0  0  0
  149.2433  138.1467  152.8716 H   0  0  0  0  0  0  0  0  0  0  0  0
  148.6297  139.9489  154.4879 H   0  0  0  0  0  0  0  0  0  0  0  0
  151.5871  140.2526  159.0146 H   0  0  0  0  0  0  0  0  0  0  0  0
  153.1022  140.3607  158.1319 H   0  0  0  0  0  0  0  0  0  0  0  0
  153.4944  142.6518  159.0003 H   0  0  0  0  0  0  0  0  0  0  0  0
  154.2578  140.7873  160.4644 H   0  0  0  0  0  0  0  0  0  0  0  0
  152.6932  140.7763  161.2767 H   0  0  0  0  0  0  0  0  0  0  0  0
  153.7488  142.1798  161.4157 H   0  0  0  0  0  0  0  0  0  0  0  0
  1  2  1  0  0  0  0
  1 16  1  0  0  0  0
  1 17  1  0  0  0  0
  1 18  1  0  0  0  0
  2 15  1  0  0  0  0
  2  3  1  0  0  0  0
  2 19  1  0  0  0  0
  3  4  1  0  0  0  0
  3 20  1  0  0  0  0
  3 21  1  0  0  0  0
  4  5  1  0  0  0  0
  4 12  1  0  0  0  0
  5 11  1  0  0  0  0
  5  6  2  0  0  0  0
  6  7  1  0  0  0  0
  6 22  1  0  0  0  0
  7  8  2  0  0  0  0
  7 23  1  0  0  0  0
  8  9  1  0  0  0  0
  8 10  1  0  0  0  0
  9 24  1  0  0  0  0
  9 25  1  0  0  0  0
 10 11  2  0  0  0  0
 10 26  1  0  0  0  0
 12 13  1  0  0  0  0
 12 27  1  0  0  0  0
 12 28  1  0  0  0  0
 13 14  1  0  0  0  0
 13 15  1  0  0  0  0
 13 29  1  0  0  0  0
 14 30  1  0  0  0  0
 14 31  1  0  0  0  0
 14 32  1  0  0  0  0
M  END
> <s_m_source_file>
AV-unprocessed.smi

> <i_m_source_file_index>
992

> <i_lp_mmshare_version>
43012

> <i_f3d_flags>
0

> <s_epik_input>
W0NIM11bQ0BASF0xW0NIMl1OKFtDSDJdW0NASF0oTzEpW0NIM10pYzJbY0hdW2NIXWMoW05IMl0pW2NIXW4y

> <s_epik_cmdline>
J2VwaWtfcHl0aG9uJywgJy1waCcsICc3LjAnLCAnLXRuJywgJzgnLCAnLW1hJywgJzIwMCcsICctbWV0YWxfYmluZGluZycsICctaW1hZScsICc8aW5maWxlLm1hZT4nLCAnLW9tYWUnLCAnPG91dGZpbGUubWFlPic=

> <r_lp_tautomer_probability>
1

> <r_epik_Ionization_Penalty>
0.0126232

> <r_epik_Ionization_Penalty_Charging>
0

> <r_epik_Ionization_Penalty_Neutral>
0.0126232

> <r_epik_State_Penalty>
0.00976577

> <r_epik_Charging_Adjusted_Penalty>
0.00976577

> <i_epik_Tot_Q>
0

> <i_epik_Tot_abs_Q>
0

> <r_epik_Metal_State_Penalty>
9.84661e-06

> <b_epik_Metal_Only>
0

> <s_lp_Force_Field>
OPLS_2005

> <r_lp_Energy>
23.4256

> <b_lp_Chiralities_Consistent>
1

> <s_lp_Variant>
AV-unprocessed.smi:992-3

> <Gold.Version>
5.8.1

> <Gold.Id.Protein>
6NUR|6NUR_protein|mol2

> <Gold.PLP.Fitness>
36.2883

> <Gold.PLP.PLP>
-34.0641

> <Gold.PLP.part.hbond>
-3.0008

> <Gold.PLP.part.metal>
0.0000

> <Gold.PLP.part.buried>
-1.1088

> <Gold.PLP.part.nonpolar>
-28.9653

> <Gold.PLP.part.repulsive>
0.1881

> <Gold.PLP.ligand.clash>
0.0000

> <Gold.PLP.ligand.torsion>
0.1666

> <Gold.PLP.Chemscore.Hbond>
0.8200

> <Gold.PLP.Chemscore.CHOScore>
0.0000

> <Gold.PLP.Chemscore.Metal>
0.0000

> <Gold.Chemscore.Hbonds>
donor molecule, donor type, donor heavy atom, donor atom, acceptor molecule, acceptor atom, score
      L1  H     9    24       P1  7949  0.71
      L1  H     9    25       P1  7948  0.06

> <Gold.PLP.Chemscore.Internal.Correction>
0.0975

> <Gold.Rescore>
     Score         DG    S(hbond)    S(metal)    S(lipo)     H(rot)  DE(clash)    DE(int)     intcor
     14.72     -14.92       0.62        0.00      84.93       1.00       0.10       0.10       ----

> <Gold.Chemscore.Fitness>
14.7248

> <Gold.Chemscore.DG>
-14.9160

> <Gold.Chemscore.ZeroCoef>
-5.4800

> <Gold.Chemscore.Hbond>
0.6165

> <Gold.Chemscore.Metal>
0.0000

> <Gold.Chemscore.Lipo>
84.9300

> <Gold.Chemscore.Internal_Hbond>
0.0000

> <Gold.Chemscore.DEClash>
0.0956

> <Gold.Chemscore.DEInternal>
0.0956

> <Gold.Chemscore.Rot>
1.0000

> <Gold.Chemscore.Internal.Correction>
   9.000000E+99

> <Gold.Chemscore.Hbonds>
donor molecule, donor type, donor heavy atom, donor atom, acceptor molecule, acceptor atom, score
      L1  H     9    24       P1  7949  0.08
      L1  H     9    25       P1  7948  0.07

> <Gold.Chemscore.Hbond.Weighted>
-2.0592

> <Gold.Chemscore.Metal.Weighted>
-0.0000

> <Gold.Chemscore.Lipo.Weighted>
-9.9368

> <Gold.Chemscore.Internal_Hbond.Weighted>
0.0000

> <Gold.Chemscore.DEClash.Weighted>
0.0956

> <Gold.Chemscore.DEInternal.Weighted>
0.0956

> <Gold.Chemscore.Rot.Weighted>
2.5600

> <Gold.Chemscore.Internal.Correction.Weighted>
   9.000000E+99

> <Gold.Protein.RotatedTorsions>
[ 6907 6896 6895 6894 ] final  102.21 input  -60.11 | X-H torsion
[ 7974 7965 7964 7962 ] final  119.37 input  175.53 | X-H torsion
[ 8008 7997 7996 7995 ] final  -78.67 input   59.86 | X-H torsion
[ 10167 10162 10161 10158 ] final  -13.00 input  -65.29 | X-H torsion
[ 10718 10713 10712 10709 ] final -121.53 input   66.30 | X-H torsion
[ 10763 10752 10751 10750 ] final -157.67 input  -60.55 | X-H torsion
[ 11005 11000 10999 10996 ] final -116.69 input  -57.11 | X-H torsion

> <Gold.Protein.ActiveResidues>
 VAL166  LYS551  ARG553  GLY616  TRP617  ASP618  TYR619  PRO620  LYS621  CYS622 
 ASP623  PHE694  ASN695  SER759  ASP760  ASP761  ALA762  ILE779  LEU786  VAL792 
 PHE793  MET794  SER795  GLU796  ALA797  LYS798  CYS799  TRP800  GLU811  SER814 

> <Gold.Protein.RotatedAtoms>
  152.5330  134.0010  159.7894 H   0  0  0  0  0  0  0  0  0  0  0  0  # atno 6907 bound_to 6896
  151.0229  133.5852  159.2676 H   0  0  0  0  0  0  0  0  0  0  0  0  # atno 6908 bound_to 6896
  151.2886  135.0742  159.9249 H   0  0  0  0  0  0  0  0  0  0  0  0  # atno 6909 bound_to 6896
  145.1439  139.3251  143.4601 H   0  0  0  0  0  0  0  0  0  0  0  0  # atno 7974 bound_to 7965
  154.5711  140.0690  156.8966 H   0  0  0  0  0  0  0  0  0  0  0  0  # atno 8008 bound_to 7997
  155.2632  140.3360  155.4253 H   0  0  0  0  0  0  0  0  0  0  0  0  # atno 8009 bound_to 7997
  156.2119  140.1762  156.7661 H   0  0  0  0  0  0  0  0  0  0  0  0  # atno 8010 bound_to 7997
  140.7173  143.5472  150.9342 H   0  0  0  0  0  0  0  0  0  0  0  0  # atno 10167 bound_to 10162
  156.1345  130.6420  150.9674 H   0  0  0  0  0  0  0  0  0  0  0  0  # atno 10718 bound_to 10713
  154.7618  135.3120  154.8364 H   0  0  0  0  0  0  0  0  0  0  0  0  # atno 10763 bound_to 10752
  153.9123  135.6804  153.4755 H   0  0  0  0  0  0  0  0  0  0  0  0  # atno 10764 bound_to 10752
  153.1219  135.4819  154.9141 H   0  0  0  0  0  0  0  0  0  0  0  0  # atno 10765 bound_to 10752
  141.0405  133.9842  157.3002 H   0  0  0  0  0  0  0  0  0  0  0  0  # atno 11005 bound_to 11000
  146.3502  140.1487  142.8593 LP  0  0  0  0  0  0  0  0  0  0  0  0  # atno 17320 bound_to 7965
  145.0503  140.9012  143.5000 LP  0  0  0  0  0  0  0  0  0  0  0  0  # atno 17321 bound_to 7965
  139.9196  143.6622  152.3099 LP  0  0  0  0  0  0  0  0  0  0  0  0  # atno 17342 bound_to 10162
  139.7034  144.7631  151.1234 LP  0  0  0  0  0  0  0  0  0  0  0  0  # atno 17343 bound_to 10162
  157.6519  131.0895  150.8032 LP  0  0  0  0  0  0  0  0  0  0  0  0  # atno 17370 bound_to 10713
  156.8113  130.4953  149.5355 LP  0  0  0  0  0  0  0  0  0  0  0  0  # atno 17371 bound_to 10713
  139.9272  135.0201  156.8277 LP  0  0  0  0  0  0  0  0  0  0  0  0  # atno 17394 bound_to 11000
  140.6242  133.9965  155.7632 LP  0  0  0  0  0  0  0  0  0  0  0  0  # atno 17395 bound_to 11000

$$$$
