AV-unprocessed.smi:3170|AV-procd|sdf|12108|dock6
  -GOLD-   2272017543D 1   1.00000     0.00000
 Structure written by MMmdl.
 36 37  0  0  0  0  0  0  0  0  2 V2000
  146.0834  139.0116  153.9168 O   0  0  0  0  0  0  0  0  0  0  0  0
  146.8588  138.2321  153.3625 C   0  0  0  0  0  0  0  0  0  0  0  0
  146.4760  137.2911  152.4884 N   0  0  0  0  0  0  0  0  0  0  0  0
  145.0991  137.0615  152.0675 C   0  0  0  0  0  0  0  0  0  0  0  0
  145.0287  136.1288  150.8470 C   0  0  0  0  0  0  0  0  0  0  0  0
  144.6443  134.7693  151.2279 N   0  0  0  0  0  0  0  0  0  0  0  0
  144.5620  133.6685  150.4147 C   0  0  0  0  0  0  0  0  0  0  0  0
  144.1597  132.6258  151.2094 C   0  0  0  0  0  0  0  0  0  0  0  0
  144.0128  133.1347  152.4722 N   0  3  0  0  0  0  0  0  0  0  0  0
  144.3072  134.4389  152.4811 C   0  0  0  0  0  0  0  0  0  0  0  0
  148.1836  138.2190  153.5634 N   0  0  0  0  0  0  0  0  0  0  0  0
  148.9005  139.1171  154.4624 C   0  0  0  0  0  0  0  0  0  0  0  0
  150.4285  138.9667  154.3350 C   0  0  1  0  0  0  0  0  0  0  0  0
  151.2316  139.7062  155.3870 C   0  0  0  0  0  0  0  0  0  0  0  0
  152.5809  138.9994  155.3025 C   0  0  0  0  0  0  0  0  0  0  0  0
  152.2917  137.6536  154.9347 O   0  0  0  0  0  0  0  0  0  0  0  0
  150.9295  137.5367  154.5336 C   0  0  0  0  0  0  0  0  0  0  0  0
  147.1853  136.6980  152.0829 H   0  0  0  0  0  0  0  0  0  0  0  0
  144.5222  136.6514  152.8984 H   0  0  0  0  0  0  0  0  0  0  0  0
  144.6518  138.0259  151.8260 H   0  0  0  0  0  0  0  0  0  0  0  0
  144.2990  136.4943  150.1232 H   0  0  0  0  0  0  0  0  0  0  0  0
  145.9905  136.0764  150.3343 H   0  0  0  0  0  0  0  0  0  0  0  0
  144.7893  133.7080  149.3591 H   0  0  0  0  0  0  0  0  0  0  0  0
  143.9715  131.5878  150.9769 H   0  0  0  0  0  0  0  0  0  0  0  0
  144.2775  135.0959  153.3323 H   0  0  0  0  0  0  0  0  0  0  0  0
  148.7371  137.5402  153.0615 H   0  0  0  0  0  0  0  0  0  0  0  0
  148.6022  140.1390  154.2262 H   0  0  0  0  0  0  0  0  0  0  0  0
  148.5886  138.9368  155.4926 H   0  0  0  0  0  0  0  0  0  0  0  0
  150.7502  139.3073  153.3493 H   0  0  0  0  0  0  0  0  0  0  0  0
  151.3035  140.7780  155.2000 H   0  0  0  0  0  0  0  0  0  0  0  0
  150.7937  139.5590  156.3754 H   0  0  0  0  0  0  0  0  0  0  0  0
  153.1961  139.4472  154.5211 H   0  0  0  0  0  0  0  0  0  0  0  0
  153.1359  139.0469  156.2397 H   0  0  0  0  0  0  0  0  0  0  0  0
  150.3793  137.0404  155.3344 H   0  0  0  0  0  0  0  0  0  0  0  0
  150.8306  136.9319  153.6320 H   0  0  0  0  0  0  0  0  0  0  0  0
  143.7225  132.6036  153.2836 H   0  0  0  0  0  0  0  0  0  0  0  0
  1  2  2  0  0  0  0
  2  3  1  0  0  0  0
  2 11  1  0  0  0  0
  3  4  1  0  0  0  0
  3 18  1  0  0  0  0
  4  5  1  0  0  0  0
  4 19  1  0  0  0  0
  4 20  1  0  0  0  0
  5  6  1  0  0  0  0
  5 21  1  0  0  0  0
  5 22  1  0  0  0  0
  6 10  1  0  0  0  0
  6  7  1  0  0  0  0
  7  8  2  0  0  0  0
  7 23  1  0  0  0  0
  8  9  1  0  0  0  0
  8 24  1  0  0  0  0
  9 10  2  0  0  0  0
  9 36  1  0  0  0  0
 10 25  1  0  0  0  0
 11 12  1  0  0  0  0
 11 26  1  0  0  0  0
 12 13  1  0  0  0  0
 12 27  1  0  0  0  0
 12 28  1  0  0  0  0
 13 17  1  0  0  0  0
 13 14  1  0  0  0  0
 13 29  1  0  0  0  0
 14 15  1  0  0  0  0
 14 30  1  0  0  0  0
 14 31  1  0  0  0  0
 15 16  1  0  0  0  0
 15 32  1  0  0  0  0
 15 33  1  0  0  0  0
 16 17  1  0  0  0  0
 17 34  1  0  0  0  0
 17 35  1  0  0  0  0
M  CHG  1   9   1
M  END
> <s_m_source_file>
AV-unprocessed.smi

> <i_m_source_file_index>
3170

> <i_lp_mmshare_version>
43012

> <i_f3d_flags>
0

> <s_epik_input>
W0NIMl0xT1tDSDJdW0NIMl1bQ0BIXTFbQ0gyXVtOSF1DKD1PKVtOSF1bQ0gyXVtDSDJdbjJbY0hdW2NIXW5bY0hdMg==

> <s_epik_cmdline>
J2VwaWtfcHl0aG9uJywgJy1waCcsICc3LjAnLCAnLXRuJywgJzgnLCAnLW1hJywgJzIwMCcsICctbWV0YWxfYmluZGluZycsICctaW1hZScsICc8aW5maWxlLm1hZT4nLCAnLW9tYWUnLCAnPG91dGZpbGUubWFlPic=

> <r_lp_tautomer_probability>
1

> <r_epik_Ionization_Penalty>
0.255699

> <r_epik_Ionization_Penalty_Charging>
0

> <r_epik_Ionization_Penalty_Neutral>
0.255699

> <r_epik_State_Penalty>
0.247169

> <r_epik_Charging_Adjusted_Penalty>
0.247169

> <i_epik_Tot_Q>
1

> <i_epik_Tot_abs_Q>
1

> <r_epik_Metal_State_Penalty>
0.536793

> <b_epik_Metal_Only>
0

> <s_lp_Force_Field>
OPLS_2005

> <r_lp_Energy>
18.8209

> <b_lp_Chiralities_Consistent>
1

> <s_lp_Variant>
AV-unprocessed.smi:3170-2

> <Gold.Version>
5.8.1

> <Gold.Id.Protein>
6NUR|6NUR_protein|mol2

> <Gold.PLP.Fitness>
46.3552

> <Gold.PLP.PLP>
-30.1782

> <Gold.PLP.part.hbond>
-4.0000

> <Gold.PLP.part.metal>
0.0000

> <Gold.PLP.part.buried>
-0.4247

> <Gold.PLP.part.nonpolar>
-26.7626

> <Gold.PLP.part.repulsive>
0.2933

> <Gold.PLP.ligand.clash>
0.0000

> <Gold.PLP.ligand.torsion>
0.4396

> <Gold.PLP.Chemscore.Hbond>
4.6800

> <Gold.PLP.Chemscore.CHOScore>
1.0000

> <Gold.PLP.Chemscore.Metal>
0.0000

> <Gold.Chemscore.Hbonds>
donor molecule, donor type, donor heavy atom, donor atom, acceptor molecule, acceptor atom, score
      L1  H     3    18       P1  7948  1.00
      L1  H     9    36       P1 10957  2.00
      L1  H    11    26       P1  7948  1.00
      P1  H 10752 10765       L1    16  0.43
      L1  C     7    23       P1  7921  1.00

> <Gold.PLP.Chemscore.Internal.Correction>
0.0163

> <Gold.Rescore>
     Score         DG    S(hbond)    S(metal)    S(lipo)     H(rot)  DE(clash)    DE(int)     intcor
     16.32     -18.96       3.66        0.00      61.75       2.33       2.10       0.54       ----

> <Gold.Chemscore.Fitness>
16.3197

> <Gold.Chemscore.DG>
-18.9601

> <Gold.Chemscore.ZeroCoef>
-5.4800

> <Gold.Chemscore.Hbond>
3.6579

> <Gold.Chemscore.Metal>
0.0000

> <Gold.Chemscore.Lipo>
61.7458

> <Gold.Chemscore.Internal_Hbond>
0.0000

> <Gold.Chemscore.DEClash>
2.1021

> <Gold.Chemscore.DEInternal>
0.5383

> <Gold.Chemscore.Rot>
2.3288

> <Gold.Chemscore.Internal.Correction>
   9.000000E+99

> <Gold.Chemscore.Hbonds>
donor molecule, donor type, donor heavy atom, donor atom, acceptor molecule, acceptor atom, score
      L1  H     3    18       P1  7948  0.96
      L1  H     9    36       P1 10957  0.29
      L1  H    11    26       P1  7948  0.98
      P1  H 10752 10765       L1    16  0.09

> <Gold.Chemscore.Hbond.Weighted>
-12.2175

> <Gold.Chemscore.Metal.Weighted>
-0.0000

> <Gold.Chemscore.Lipo.Weighted>
-7.2243

> <Gold.Chemscore.Internal_Hbond.Weighted>
0.0000

> <Gold.Chemscore.DEClash.Weighted>
2.1021

> <Gold.Chemscore.DEInternal.Weighted>
0.5383

> <Gold.Chemscore.Rot.Weighted>
5.9617

> <Gold.Chemscore.Internal.Correction.Weighted>
   9.000000E+99

> <Gold.Protein.RotatedTorsions>
[ 6907 6896 6895 6894 ] final -102.48 input  -60.11 | X-H torsion
[ 7974 7965 7964 7962 ] final  178.46 input  175.53 | X-H torsion
[ 8008 7997 7996 7995 ] final  -59.07 input   59.86 | X-H torsion
[ 10167 10162 10161 10158 ] final -128.87 input  -65.29 | X-H torsion
[ 10718 10713 10712 10709 ] final   46.01 input   66.30 | X-H torsion
[ 10763 10752 10751 10750 ] final  166.14 input  -60.55 | X-H torsion
[ 11005 11000 10999 10996 ] final  -88.94 input  -57.11 | X-H torsion

> <Gold.Protein.ActiveResidues>
 VAL166  LYS551  ARG553  GLY616  TRP617  ASP618  TYR619  PRO620  LYS621  CYS622 
 ASP623  PHE694  ASN695  SER759  ASP760  ASP761  ALA762  ILE779  LEU786  VAL792 
 PHE793  MET794  SER795  GLU796  ALA797  LYS798  CYS799  TRP800  GLU811  SER814 

> <Gold.Protein.RotatedAtoms>
  150.7198  134.0575  159.3819 H   0  0  0  0  0  0  0  0  0  0  0  0  # atno 6907 bound_to 6896
  151.8553  135.0541  160.0473 H   0  0  0  0  0  0  0  0  0  0  0  0  # atno 6908 bound_to 6896
  152.2759  133.5389  159.5504 H   0  0  0  0  0  0  0  0  0  0  0  0  # atno 6909 bound_to 6896
  144.7156  140.0401  143.6437 H   0  0  0  0  0  0  0  0  0  0  0  0  # atno 7974 bound_to 7965
  154.4336  140.1070  156.6057 H   0  0  0  0  0  0  0  0  0  0  0  0  # atno 8008 bound_to 7997
  155.5864  140.3491  155.4535 H   0  0  0  0  0  0  0  0  0  0  0  0  # atno 8009 bound_to 7997
  156.0280  140.1254  157.0278 H   0  0  0  0  0  0  0  0  0  0  0  0  # atno 8010 bound_to 7997
  139.9458  143.6111  152.2490 H   0  0  0  0  0  0  0  0  0  0  0  0  # atno 10167 bound_to 10162
  157.4436  130.8096  149.7718 H   0  0  0  0  0  0  0  0  0  0  0  0  # atno 10718 bound_to 10713
  154.3346  135.2754  155.2454 H   0  0  0  0  0  0  0  0  0  0  0  0  # atno 10763 bound_to 10752
  154.4751  135.5873  153.6353 H   0  0  0  0  0  0  0  0  0  0  0  0  # atno 10764 bound_to 10752
  152.9863  135.6097  154.3542 H   0  0  0  0  0  0  0  0  0  0  0  0  # atno 10765 bound_to 10752
  141.1593  133.7600  156.9523 H   0  0  0  0  0  0  0  0  0  0  0  0  # atno 11005 bound_to 11000
  146.0031  139.3107  143.0916 LP  0  0  0  0  0  0  0  0  0  0  0  0  # atno 17320 bound_to 7965
  145.8770  140.9385  143.0621 LP  0  0  0  0  0  0  0  0  0  0  0  0  # atno 17321 bound_to 7965
  139.6668  144.7662  151.1858 LP  0  0  0  0  0  0  0  0  0  0  0  0  # atno 17342 bound_to 10162
  140.7597  143.5926  150.8781 LP  0  0  0  0  0  0  0  0  0  0  0  0  # atno 17343 bound_to 10162
  155.9958  130.3909  150.2803 LP  0  0  0  0  0  0  0  0  0  0  0  0  # atno 17370 bound_to 10713
  157.0969  131.0185  151.3100 LP  0  0  0  0  0  0  0  0  0  0  0  0  # atno 17371 bound_to 10713
  140.1248  134.9393  157.2255 LP  0  0  0  0  0  0  0  0  0  0  0  0  # atno 17394 bound_to 11000
  140.3026  134.3114  155.7286 LP  0  0  0  0  0  0  0  0  0  0  0  0  # atno 17395 bound_to 11000

$$$$
