AV-unprocessed.smi:1273|AV-procd|sdf|5338|dock6
  -GOLD-   22720 4473D 1   1.00000     0.00000
 Structure written by MMmdl.
 40 41  0  0  0  0  0  0  0  0  1 V2000
  154.9415  134.8042  160.8167 C   0  0  0  0  0  0  0  0  0  0  0  0
  155.2627  135.6856  159.5989 C   0  0  2  0  0  0  0  0  0  0  0  0
  154.3180  136.8917  159.5031 C   0  0  0  0  0  0  0  0  0  0  0  0
  153.1121  136.7135  159.3351 O   0  0  0  0  0  0  0  0  0  0  0  0
  154.9042  138.1001  159.5979 N   0  0  0  0  0  0  0  0  0  0  0  0
  154.3037  139.3862  159.5373 C   0  0  0  0  0  0  0  0  0  0  0  0
  154.8629  140.4134  160.3215 C   0  0  0  0  0  0  0  0  0  0  0  0
  154.2791  141.6941  160.2987 C   0  0  0  0  0  0  0  0  0  0  0  0
  153.1389  141.9182  159.4915 C   0  0  0  0  0  0  0  0  0  0  0  0
  152.5364  143.1948  159.4491 N   0  0  0  0  0  0  0  0  0  0  0  0
  152.1824  143.8287  160.7183 C   0  0  0  0  0  0  0  0  0  0  0  0
  151.8186  145.3065  160.4973 C   0  0  0  0  0  0  0  0  0  0  0  0
  150.7826  145.4053  159.5262 O   0  0  0  0  0  0  0  0  0  0  0  0
  151.1888  144.8836  158.2655 C   0  0  0  0  0  0  0  0  0  0  0  0
  151.5332  143.3905  158.4050 C   0  0  0  0  0  0  0  0  0  0  0  0
  152.5891  140.9233  158.7528 N   0  0  0  0  0  0  0  0  0  0  0  0
  153.1525  139.6970  158.7758 C   0  0  0  0  0  0  0  0  0  0  0  0
  155.1659  134.6763  158.0461 S   0  0  0  0  0  0  0  0  0  0  0  0
  156.5187  133.4439  158.2618 C   0  0  0  0  0  0  0  0  0  0  0  0
  153.8836  133.9554  158.0525 O   0  0  0  0  0  0  0  0  0  0  0  0
  155.5059  135.5299  156.8972 O   0  0  0  0  0  0  0  0  0  0  0  0
  154.9630  135.3815  161.7418 H   0  0  0  0  0  0  0  0  0  0  0  0
  155.6708  134.0001  160.9157 H   0  0  0  0  0  0  0  0  0  0  0  0
  153.9562  134.3444  160.7309 H   0  0  0  0  0  0  0  0  0  0  0  0
  156.2909  136.0384  159.6879 H   0  0  0  0  0  0  0  0  0  0  0  0
  155.9118  138.0983  159.6612 H   0  0  0  0  0  0  0  0  0  0  0  0
  155.7311  140.2262  160.9365 H   0  0  0  0  0  0  0  0  0  0  0  0
  154.7010  142.4784  160.9091 H   0  0  0  0  0  0  0  0  0  0  0  0
  151.3390  143.2991  161.1635 H   0  0  0  0  0  0  0  0  0  0  0  0
  153.0156  143.7647  161.4194 H   0  0  0  0  0  0  0  0  0  0  0  0
  151.4745  145.7519  161.4308 H   0  0  0  0  0  0  0  0  0  0  0  0
  152.6908  145.8775  160.1745 H   0  0  0  0  0  0  0  0  0  0  0  0
  150.3777  145.0159  157.5494 H   0  0  0  0  0  0  0  0  0  0  0  0
  152.0435  145.4454  157.8854 H   0  0  0  0  0  0  0  0  0  0  0  0
  151.8724  143.0157  157.4406 H   0  0  0  0  0  0  0  0  0  0  0  0
  150.6383  142.8252  158.6677 H   0  0  0  0  0  0  0  0  0  0  0  0
  152.6406  138.9572  158.1808 H   0  0  0  0  0  0  0  0  0  0  0  0
  156.4933  132.7355  157.4339 H   0  0  0  0  0  0  0  0  0  0  0  0
  156.3797  132.9069  159.1998 H   0  0  0  0  0  0  0  0  0  0  0  0
  157.4847  133.9484  158.2666 H   0  0  0  0  0  0  0  0  0  0  0  0
  1  2  1  0  0  0  0
  1 22  1  0  0  0  0
  1 23  1  0  0  0  0
  1 24  1  0  0  0  0
  2  3  1  0  0  0  0
  2 18  1  0  0  0  0
  2 25  1  0  0  0  0
  3  4  2  0  0  0  0
  3  5  1  0  0  0  0
  5  6  1  0  0  0  0
  5 26  1  0  0  0  0
  6 17  1  0  0  0  0
  6  7  2  0  0  0  0
  7  8  1  0  0  0  0
  7 27  1  0  0  0  0
  8  9  2  0  0  0  0
  8 28  1  0  0  0  0
  9 10  1  0  0  0  0
  9 16  1  0  0  0  0
 10 15  1  0  0  0  0
 10 11  1  0  0  0  0
 11 12  1  0  0  0  0
 11 29  1  0  0  0  0
 11 30  1  0  0  0  0
 12 13  1  0  0  0  0
 12 31  1  0  0  0  0
 12 32  1  0  0  0  0
 13 14  1  0  0  0  0
 14 15  1  0  0  0  0
 14 33  1  0  0  0  0
 14 34  1  0  0  0  0
 15 35  1  0  0  0  0
 15 36  1  0  0  0  0
 16 17  2  0  0  0  0
 17 37  1  0  0  0  0
 18 19  1  0  0  0  0
 18 20  2  0  0  0  0
 18 21  2  0  0  0  0
 19 38  1  0  0  0  0
 19 39  1  0  0  0  0
 19 40  1  0  0  0  0
M  END
> <s_m_source_file>
AV-unprocessed.smi

> <i_m_source_file_index>
1273

> <i_lp_mmshare_version>
43012

> <i_f3d_flags>
0

> <s_epik_input>
W0NIM11TKD1PKSg9TylbQ0BIXShbQ0gzXSlDKD1PKVtOSF1jMVtjSF1bY0hdYyhuW2NIXTEpTjJbQ0gyXVtDSDJdT1tDSDJdW0NIMl0y

> <s_epik_cmdline>
J2VwaWtfcHl0aG9uJywgJy1waCcsICc3LjAnLCAnLXRuJywgJzgnLCAnLW1hJywgJzIwMCcsICctbWV0YWxfYmluZGluZycsICctaW1hZScsICc8aW5maWxlLm1hZT4nLCAnLW9tYWUnLCAnPG91dGZpbGUubWFlPic=

> <r_lp_tautomer_probability>
1

> <r_epik_Ionization_Penalty>
0.000253983

> <r_epik_Ionization_Penalty_Charging>
0

> <r_epik_Ionization_Penalty_Neutral>
0.000253983

> <r_epik_State_Penalty>
-0

> <r_epik_Charging_Adjusted_Penalty>
0

> <i_epik_Tot_Q>
0

> <i_epik_Tot_abs_Q>
0

> <r_epik_Metal_State_Penalty>
-0

> <b_epik_Metal_Only>
0

> <s_lp_Force_Field>
OPLS_2005

> <r_lp_Energy>
19.002

> <b_lp_Chiralities_Consistent>
1

> <s_lp_Variant>
AV-unprocessed.smi:1273-1

> <Gold.Version>
5.8.1

> <Gold.Id.Protein>
6NUR|6NUR_protein|mol2

> <Gold.PLP.Fitness>
42.2398

> <Gold.PLP.PLP>
-34.6193

> <Gold.PLP.part.hbond>
-3.3346

> <Gold.PLP.part.metal>
0.0000

> <Gold.PLP.part.buried>
-5.9713

> <Gold.PLP.part.nonpolar>
-25.3068

> <Gold.PLP.part.repulsive>
0.2415

> <Gold.PLP.ligand.clash>
0.0000

> <Gold.PLP.ligand.torsion>
0.5634

> <Gold.PLP.Chemscore.Hbond>
2.7513

> <Gold.PLP.Chemscore.CHOScore>
0.0000

> <Gold.PLP.Chemscore.Metal>
0.0000

> <Gold.Chemscore.Hbonds>
donor molecule, donor type, donor heavy atom, donor atom, acceptor molecule, acceptor atom, score
      P1  H  6896  6907       L1     4  0.61
      P1  H  6896  6908       L1    20  0.54
      P1  H 10752 10765       L1    21  1.00

> <Gold.PLP.Chemscore.Internal.Correction>
0.4932

> <Gold.Rescore>
     Score         DG    S(hbond)    S(metal)    S(lipo)     H(rot)  DE(clash)    DE(int)     intcor
     19.05     -20.90       2.83        0.00      85.17       1.56       0.00       1.85       ----

> <Gold.Chemscore.Fitness>
19.0450

> <Gold.Chemscore.DG>
-20.8987

> <Gold.Chemscore.ZeroCoef>
-5.4800

> <Gold.Chemscore.Hbond>
2.8304

> <Gold.Chemscore.Metal>
0.0000

> <Gold.Chemscore.Lipo>
85.1703

> <Gold.Chemscore.Internal_Hbond>
0.0000

> <Gold.Chemscore.DEClash>
0.0000

> <Gold.Chemscore.DEInternal>
1.8537

> <Gold.Chemscore.Rot>
1.5624

> <Gold.Chemscore.Internal.Correction>
   9.000000E+99

> <Gold.Chemscore.Hbonds>
donor molecule, donor type, donor heavy atom, donor atom, acceptor molecule, acceptor atom, score
      P1  H  6896  6907       L1     4  0.59
      P1  H  6896  6908       L1    20  0.54
      P1  H 10752 10765       L1    21  0.89

> <Gold.Chemscore.Hbond.Weighted>
-9.4534

> <Gold.Chemscore.Metal.Weighted>
-0.0000

> <Gold.Chemscore.Lipo.Weighted>
-9.9649

> <Gold.Chemscore.Internal_Hbond.Weighted>
0.0000

> <Gold.Chemscore.DEClash.Weighted>
0.0000

> <Gold.Chemscore.DEInternal.Weighted>
1.8537

> <Gold.Chemscore.Rot.Weighted>
3.9996

> <Gold.Chemscore.Internal.Correction.Weighted>
   9.000000E+99

> <Gold.Protein.RotatedTorsions>
[ 6907 6896 6895 6894 ] final   11.97 input  -60.11 | X-H torsion
[ 7974 7965 7964 7962 ] final   80.11 input  175.53 | X-H torsion
[ 8008 7997 7996 7995 ] final -138.64 input   59.86 | X-H torsion
[ 10167 10162 10161 10158 ] final  156.01 input  -65.29 | X-H torsion
[ 10718 10713 10712 10709 ] final   47.60 input   66.30 | X-H torsion
[ 10763 10752 10751 10750 ] final  -73.79 input  -60.55 | X-H torsion
[ 11005 11000 10999 10996 ] final -116.35 input  -57.11 | X-H torsion

> <Gold.Protein.ActiveResidues>
 VAL166  LYS551  ARG553  GLY616  TRP617  ASP618  TYR619  PRO620  LYS621  CYS622 
 ASP623  PHE694  ASN695  SER759  ASP760  ASP761  ALA762  ILE779  LEU786  VAL792 
 PHE793  MET794  SER795  GLU796  ALA797  LYS798  CYS799  TRP800  GLU811  SER814 

> <Gold.Protein.RotatedAtoms>
  151.7628  135.0806  160.0347 H   0  0  0  0  0  0  0  0  0  0  0  0  # atno 6907 bound_to 6896
  152.3341  133.5988  159.5839 H   0  0  0  0  0  0  0  0  0  0  0  0  # atno 6908 bound_to 6896
  150.7440  133.9738  159.3596 H   0  0  0  0  0  0  0  0  0  0  0  0  # atno 6909 bound_to 6896
  145.6554  139.2458  143.1953 H   0  0  0  0  0  0  0  0  0  0  0  0  # atno 7974 bound_to 7965
  155.4316  140.0525  157.3018 H   0  0  0  0  0  0  0  0  0  0  0  0  # atno 8008 bound_to 7997
  154.4857  140.2100  155.9618 H   0  0  0  0  0  0  0  0  0  0  0  0  # atno 8009 bound_to 7997
  156.1271  140.3178  155.8299 H   0  0  0  0  0  0  0  0  0  0  0  0  # atno 8010 bound_to 7997
  139.4821  144.5048  151.8115 H   0  0  0  0  0  0  0  0  0  0  0  0  # atno 10167 bound_to 10162
  157.4601  130.8191  149.7877 H   0  0  0  0  0  0  0  0  0  0  0  0  # atno 10718 bound_to 10713
  154.4642  135.5886  153.6277 H   0  0  0  0  0  0  0  0  0  0  0  0  # atno 10763 bound_to 10752
  152.9827  135.6051  154.3448 H   0  0  0  0  0  0  0  0  0  0  0  0  # atno 10764 bound_to 10752
  154.3323  135.2842  155.2444 H   0  0  0  0  0  0  0  0  0  0  0  0  # atno 10765 bound_to 10752
  141.0427  133.9810  157.2968 H   0  0  0  0  0  0  0  0  0  0  0  0  # atno 11005 bound_to 11000
  146.1169  140.7358  142.9476 LP  0  0  0  0  0  0  0  0  0  0  0  0  # atno 17320 bound_to 7965
  144.7107  140.4029  143.7082 LP  0  0  0  0  0  0  0  0  0  0  0  0  # atno 17321 bound_to 7965
  140.4544  144.1810  150.5900 LP  0  0  0  0  0  0  0  0  0  0  0  0  # atno 17342 bound_to 10162
  140.4550  143.2471  151.9296 LP  0  0  0  0  0  0  0  0  0  0  0  0  # atno 17343 bound_to 10162
  156.0025  130.3873  150.2553 LP  0  0  0  0  0  0  0  0  0  0  0  0  # atno 17370 bound_to 10713
  157.0730  131.0122  151.3183 LP  0  0  0  0  0  0  0  0  0  0  0  0  # atno 17371 bound_to 10713
  139.9288  135.0201  156.8329 LP  0  0  0  0  0  0  0  0  0  0  0  0  # atno 17394 bound_to 11000
  140.6204  133.9999  155.7616 LP  0  0  0  0  0  0  0  0  0  0  0  0  # atno 17395 bound_to 11000

$$$$
