AV-unprocessed.smi:3259|AV-procd|sdf|12475|dock9
  -GOLD-   2272018373D 1   1.00000     0.00000
 Structure written by MMmdl.
 39 40  0  0  0  0  0  0  0  0  1 V2000
  151.1769  138.4570  154.6968 C   0  0  0  0  0  0  0  0  0  0  0  0
  150.6947  139.7298  154.2861 O   0  0  0  0  0  0  0  0  0  0  0  0
  149.3147  139.9975  154.5401 C   0  0  2  0  0  0  0  0  0  0  0  0
  148.4355  139.0901  153.6653 C   0  0  0  0  0  0  0  0  0  0  0  0
  149.0046  141.5058  154.5532 C   0  0  0  0  0  0  0  0  0  0  0  0
  148.1614  141.2321  155.7966 C   0  0  2  0  0  0  0  0  0  0  0  0
  148.2394  142.3096  156.7766 N   0  0  0  0  0  0  0  0  0  0  0  0
  147.9034  142.1845  158.0692 C   0  0  0  0  0  0  0  0  0  0  0  0
  147.4982  141.1334  158.5646 O   0  0  0  0  0  0  0  0  0  0  0  0
  148.0558  143.4331  158.9391 C   0  0  0  0  0  0  0  0  0  0  0  0
  146.8638  143.6713  159.7336 N   0  0  0  0  0  0  0  0  0  0  0  0
  145.8905  144.6323  159.5529 C   0  0  0  0  0  0  0  0  0  0  0  0
  144.9622  144.4622  160.5399 C   0  0  0  0  0  0  0  0  0  0  0  0
  145.4616  143.3589  161.2869 C   0  0  0  0  0  0  0  0  0  0  0  0
  146.5998  142.8884  160.8028 N   0  0  0  0  0  0  0  0  0  0  0  0
  149.0797  140.0170  156.0860 C   0  0  0  0  0  0  0  0  0  0  0  0
  148.3920  138.7916  156.6963 C   0  0  0  0  0  0  0  0  0  0  0  0
  150.3239  140.2784  156.9587 C   0  0  0  0  0  0  0  0  0  0  0  0
  152.2083  138.3435  154.3636 H   0  0  0  0  0  0  0  0  0  0  0  0
  150.5991  137.6412  154.2620 H   0  0  0  0  0  0  0  0  0  0  0  0
  151.1749  138.3508  155.7812 H   0  0  0  0  0  0  0  0  0  0  0  0
  147.3813  139.1682  153.9301 H   0  0  0  0  0  0  0  0  0  0  0  0
  148.7216  138.0431  153.7685 H   0  0  0  0  0  0  0  0  0  0  0  0
  148.5054  139.3505  152.6097 H   0  0  0  0  0  0  0  0  0  0  0  0
  149.8779  142.1327  154.7435 H   0  0  0  0  0  0  0  0  0  0  0  0
  148.4371  141.8634  153.6935 H   0  0  0  0  0  0  0  0  0  0  0  0
  147.1398  140.9450  155.5373 H   0  0  0  0  0  0  0  0  0  0  0  0
  148.5655  143.2074  156.4499 H   0  0  0  0  0  0  0  0  0  0  0  0
  148.9166  143.3267  159.6012 H   0  0  0  0  0  0  0  0  0  0  0  0
  148.2420  144.3045  158.3096 H   0  0  0  0  0  0  0  0  0  0  0  0
  145.9383  145.3470  158.7448 H   0  0  0  0  0  0  0  0  0  0  0  0
  144.0634  145.0378  160.7036 H   0  0  0  0  0  0  0  0  0  0  0  0
  145.0337  142.8896  162.1604 H   0  0  0  0  0  0  0  0  0  0  0  0
  148.1865  138.9350  157.7576 H   0  0  0  0  0  0  0  0  0  0  0  0
  149.0096  137.8984  156.5983 H   0  0  0  0  0  0  0  0  0  0  0  0
  147.4349  138.5794  156.2206 H   0  0  0  0  0  0  0  0  0  0  0  0
  150.0548  140.4661  157.9986 H   0  0  0  0  0  0  0  0  0  0  0  0
  150.8966  141.1406  156.6169 H   0  0  0  0  0  0  0  0  0  0  0  0
  151.0012  139.4236  156.9517 H   0  0  0  0  0  0  0  0  0  0  0  0
  1  2  1  0  0  0  0
  1 19  1  0  0  0  0
  1 20  1  0  0  0  0
  1 21  1  0  0  0  0
  2  3  1  0  0  0  0
  3 16  1  0  0  0  0
  3  4  1  0  0  0  0
  3  5  1  0  0  0  0
  4 22  1  0  0  0  0
  4 23  1  0  0  0  0
  4 24  1  0  0  0  0
  5  6  1  0  0  0  0
  5 25  1  0  0  0  0
  5 26  1  0  0  0  0
  6  7  1  0  0  0  0
  6 16  1  0  0  0  0
  6 27  1  0  0  0  0
  7  8  1  0  0  0  0
  7 28  1  0  0  0  0
  8  9  2  0  0  0  0
  8 10  1  0  0  0  0
 10 11  1  0  0  0  0
 10 29  1  0  0  0  0
 10 30  1  0  0  0  0
 11 15  1  0  0  0  0
 11 12  1  0  0  0  0
 12 13  2  0  0  0  0
 12 31  1  0  0  0  0
 13 14  1  0  0  0  0
 13 32  1  0  0  0  0
 14 15  2  0  0  0  0
 14 33  1  0  0  0  0
 16 17  1  0  0  0  0
 16 18  1  0  0  0  0
 17 34  1  0  0  0  0
 17 35  1  0  0  0  0
 17 36  1  0  0  0  0
 18 37  1  0  0  0  0
 18 38  1  0  0  0  0
 18 39  1  0  0  0  0
M  END
> <s_m_source_file>
AV-unprocessed.smi

> <i_m_source_file_index>
3259

> <i_lp_mmshare_version>
43012

> <i_f3d_flags>
0

> <s_epik_input>
W0NIM11PW0NAQF0xKFtDSDNdKVtDSDJdW0NASF0oQzEoW0NIM10pW0NIM10pW05IXUMoPU8pW0NIMl1uMltjSF1bY0hdW2NIXW4y

> <s_epik_cmdline>
J2VwaWtfcHl0aG9uJywgJy1waCcsICc3LjAnLCAnLXRuJywgJzgnLCAnLW1hJywgJzIwMCcsICctbWV0YWxfYmluZGluZycsICctaW1hZScsICc8aW5maWxlLm1hZT4nLCAnLW9tYWUnLCAnPG91dGZpbGUubWFlPic=

> <r_lp_tautomer_probability>
1

> <r_epik_Ionization_Penalty>
1.78399e-05

> <r_epik_Ionization_Penalty_Charging>
0

> <r_epik_Ionization_Penalty_Neutral>
1.78399e-05

> <r_epik_State_Penalty>
-0

> <r_epik_Charging_Adjusted_Penalty>
0

> <i_epik_Tot_Q>
0

> <i_epik_Tot_abs_Q>
0

> <r_epik_Metal_State_Penalty>
-0

> <b_epik_Metal_Only>
0

> <s_lp_Force_Field>
OPLS_2005

> <r_lp_Energy>
24.0627

> <b_lp_Chiralities_Consistent>
1

> <s_lp_Variant>
AV-unprocessed.smi:3259-4

> <Gold.Version>
5.8.1

> <Gold.Id.Protein>
6NUR|6NUR_protein|mol2

> <Gold.PLP.Fitness>
38.0044

> <Gold.PLP.PLP>
-24.2901

> <Gold.PLP.part.hbond>
-5.0000

> <Gold.PLP.part.metal>
0.0000

> <Gold.PLP.part.buried>
-1.0821

> <Gold.PLP.part.nonpolar>
-19.0387

> <Gold.PLP.part.repulsive>
0.1579

> <Gold.PLP.ligand.clash>
0.0000

> <Gold.PLP.ligand.torsion>
0.5399

> <Gold.PLP.Chemscore.Hbond>
3.8080

> <Gold.PLP.Chemscore.CHOScore>
1.0000

> <Gold.PLP.Chemscore.Metal>
0.0000

> <Gold.Chemscore.Hbonds>
donor molecule, donor type, donor heavy atom, donor atom, acceptor molecule, acceptor atom, score
      L1  H     7    28       P1  8028  1.00
      P1  H  6933  6944       L1    15  0.83
      P1  H  6934  6946       L1    15  0.90
      P1  H  7989  7998       L1     2  1.00
      L1  C    12    31       P1  8029  1.00

> <Gold.PLP.Chemscore.Internal.Correction>
0.3701

> <Gold.Rescore>
     Score         DG    S(hbond)    S(metal)    S(lipo)     H(rot)  DE(clash)    DE(int)     intcor
     16.47     -18.35       3.10        0.00      56.52       1.60       0.24       1.64       ----

> <Gold.Chemscore.Fitness>
16.4670

> <Gold.Chemscore.DG>
-18.3481

> <Gold.Chemscore.ZeroCoef>
-5.4800

> <Gold.Chemscore.Hbond>
3.0963

> <Gold.Chemscore.Metal>
0.0000

> <Gold.Chemscore.Lipo>
56.5171

> <Gold.Chemscore.Internal_Hbond>
0.0000

> <Gold.Chemscore.DEClash>
0.2374

> <Gold.Chemscore.DEInternal>
1.6437

> <Gold.Chemscore.Rot>
1.5962

> <Gold.Chemscore.Internal.Correction>
   9.000000E+99

> <Gold.Chemscore.Hbonds>
donor molecule, donor type, donor heavy atom, donor atom, acceptor molecule, acceptor atom, score
      L1  H     7    28       P1  8028  0.82
      P1  H  6933  6944       L1    15  0.31
      P1  H  6934  6946       L1    15  0.79
      P1  H  7989  7998       L1     2  0.97

> <Gold.Chemscore.Hbond.Weighted>
-10.3418

> <Gold.Chemscore.Metal.Weighted>
-0.0000

> <Gold.Chemscore.Lipo.Weighted>
-6.6125

> <Gold.Chemscore.Internal_Hbond.Weighted>
0.0000

> <Gold.Chemscore.DEClash.Weighted>
0.2374

> <Gold.Chemscore.DEInternal.Weighted>
1.6437

> <Gold.Chemscore.Rot.Weighted>
4.0862

> <Gold.Chemscore.Internal.Correction.Weighted>
   9.000000E+99

> <Gold.Protein.RotatedTorsions>
[ 6907 6896 6895 6894 ] final  -87.06 input  -60.11 | X-H torsion
[ 7974 7965 7964 7962 ] final -117.71 input  175.53 | X-H torsion
[ 8008 7997 7996 7995 ] final   87.06 input   59.86 | X-H torsion
[ 10167 10162 10161 10158 ] final  -67.39 input  -65.29 | X-H torsion
[ 10718 10713 10712 10709 ] final   30.26 input   66.30 | X-H torsion
[ 10763 10752 10751 10750 ] final  -67.32 input  -60.55 | X-H torsion
[ 11005 11000 10999 10996 ] final  -75.08 input  -57.11 | X-H torsion

> <Gold.Protein.ActiveResidues>
 VAL166  LYS551  ARG553  GLY616  TRP617  ASP618  TYR619  PRO620  LYS621  CYS622 
 ASP623  PHE694  ASN695  SER759  ASP760  ASP761  ALA762  ILE779  LEU786  VAL792 
 PHE793  MET794  SER795  GLU796  ALA797  LYS798  CYS799  TRP800  GLU811  SER814 

> <Gold.Protein.RotatedAtoms>
  150.6866  134.2955  159.4684 H   0  0  0  0  0  0  0  0  0  0  0  0  # atno 6907 bound_to 6896
  152.0856  134.9439  160.0582 H   0  0  0  0  0  0  0  0  0  0  0  0  # atno 6908 bound_to 6896
  152.0775  133.4102  159.4523 H   0  0  0  0  0  0  0  0  0  0  0  0  # atno 6909 bound_to 6896
  145.0821  140.8433  143.4033 H   0  0  0  0  0  0  0  0  0  0  0  0  # atno 7974 bound_to 7965
  155.9707  140.3386  155.6573 H   0  0  0  0  0  0  0  0  0  0  0  0  # atno 8008 bound_to 7997
  155.6678  140.0723  157.2549 H   0  0  0  0  0  0  0  0  0  0  0  0  # atno 8009 bound_to 7997
  154.4166  140.1697  156.1834 H   0  0  0  0  0  0  0  0  0  0  0  0  # atno 8010 bound_to 7997
  140.5586  143.2312  151.6771 H   0  0  0  0  0  0  0  0  0  0  0  0  # atno 10167 bound_to 10162
  157.2573  130.7144  149.6436 H   0  0  0  0  0  0  0  0  0  0  0  0  # atno 10718 bound_to 10713
  154.3727  135.6091  153.5749 H   0  0  0  0  0  0  0  0  0  0  0  0  # atno 10763 bound_to 10752
  152.9790  135.5842  154.4502 H   0  0  0  0  0  0  0  0  0  0  0  0  # atno 10764 bound_to 10752
  154.4259  135.2847  155.1922 H   0  0  0  0  0  0  0  0  0  0  0  0  # atno 10765 bound_to 10752
  141.1642  133.6934  156.7462 H   0  0  0  0  0  0  0  0  0  0  0  0  # atno 11005 bound_to 11000
  145.1166  139.2721  143.5610 LP  0  0  0  0  0  0  0  0  0  0  0  0  # atno 17320 bound_to 7965
  146.3531  140.0777  142.8619 LP  0  0  0  0  0  0  0  0  0  0  0  0  # atno 17321 bound_to 7965
  139.5060  144.3699  152.0480 LP  0  0  0  0  0  0  0  0  0  0  0  0  # atno 17342 bound_to 10162
  140.2823  144.3846  150.6115 LP  0  0  0  0  0  0  0  0  0  0  0  0  # atno 17343 bound_to 10162
  155.9664  130.4408  150.5316 LP  0  0  0  0  0  0  0  0  0  0  0  0  # atno 17370 bound_to 10713
  157.3213  131.0682  151.1929 LP  0  0  0  0  0  0  0  0  0  0  0  0  # atno 17371 bound_to 10713
  140.2638  134.8446  157.3783 LP  0  0  0  0  0  0  0  0  0  0  0  0  # atno 17394 bound_to 11000
  140.1586  134.4757  155.7910 LP  0  0  0  0  0  0  0  0  0  0  0  0  # atno 17395 bound_to 11000

$$$$
