AV-unprocessed.smi:922|AV-procd|sdf|4175|dock10
  -GOLD-   22720 2 83D 1   1.00000     0.00000
 Structure written by MMmdl.
 33 34  0  0  0  0  0  0  0  0  1 V2000
  152.3454  145.3474  158.4604 C   0  0  0  0  0  0  0  0  0  0  0  0
  152.6113  143.8406  158.5335 C   0  0  2  0  0  0  0  0  0  0  0  0
  151.4854  143.0272  157.8682 C   0  0  0  0  0  0  0  0  0  0  0  0
  151.7099  141.5999  158.0566 N   0  0  0  0  0  0  0  0  0  0  0  0
  151.7404  140.6479  157.0363 C   0  0  0  0  0  0  0  0  0  0  0  0
  150.9595  140.8634  155.8223 C   0  0  0  0  0  0  0  0  0  0  0  0
  150.9381  140.0321  154.8381 N   0  0  0  0  0  0  0  0  0  0  0  0
  151.6887  138.8885  154.9362 N   0  0  0  0  0  0  0  0  0  0  0  0
  152.4653  138.5216  155.9815 C   0  0  0  0  0  0  0  0  0  0  0  0
  153.0966  137.4665  155.9679 O   0  0  0  0  0  0  0  0  0  0  0  0
  152.4650  139.4888  157.0894 C   0  0  0  0  0  0  0  0  0  0  0  0
  153.3898  139.0482  158.4862 Cl  0  0  0  0  0  0  0  0  0  0  0  0
  151.7915  141.2710  159.4755 C   0  0  0  0  0  0  0  0  0  0  0  0
  152.9104  142.0806  160.1706 C   0  0  0  0  0  0  0  0  0  0  0  0
  152.7918  141.9267  161.6948 C   0  0  0  0  0  0  0  0  0  0  0  0
  154.3167  141.6279  159.7227 C   0  0  0  0  0  0  0  0  0  0  0  0
  152.7097  143.4752  159.9107 O   0  0  0  0  0  0  0  0  0  0  0  0
  151.6289  138.2837  154.1297 H   0  0  0  0  0  0  0  0  0  0  0  0
  152.2750  145.6831  157.4255 H   0  0  0  0  0  0  0  0  0  0  0  0
  153.1497  145.9081  158.9373 H   0  0  0  0  0  0  0  0  0  0  0  0
  151.4134  145.6090  158.9622 H   0  0  0  0  0  0  0  0  0  0  0  0
  153.5607  143.6448  158.0369 H   0  0  0  0  0  0  0  0  0  0  0  0
  150.5246  143.2873  158.3140 H   0  0  0  0  0  0  0  0  0  0  0  0
  151.4044  143.2706  156.8089 H   0  0  0  0  0  0  0  0  0  0  0  0
  150.3854  141.7896  155.7896 H   0  0  0  0  0  0  0  0  0  0  0  0
  150.8259  141.4881  159.9341 H   0  0  0  0  0  0  0  0  0  0  0  0
  151.9709  140.2045  159.6153 H   0  0  0  0  0  0  0  0  0  0  0  0
  152.9135  140.8868  161.9998 H   0  0  0  0  0  0  0  0  0  0  0  0
  151.8181  142.2644  162.0515 H   0  0  0  0  0  0  0  0  0  0  0  0
  153.5512  142.5148  162.2112 H   0  0  0  0  0  0  0  0  0  0  0  0
  154.5070  140.5970  160.0223 H   0  0  0  0  0  0  0  0  0  0  0  0
  155.0910  142.2501  160.1722 H   0  0  0  0  0  0  0  0  0  0  0  0
  154.4457  141.6703  158.6419 H   0  0  0  0  0  0  0  0  0  0  0  0
  1  2  1  0  0  0  0
  1 19  1  0  0  0  0
  1 20  1  0  0  0  0
  1 21  1  0  0  0  0
  2 17  1  0  0  0  0
  2  3  1  0  0  0  0
  2 22  1  0  0  0  0
  3  4  1  0  0  0  0
  3 23  1  0  0  0  0
  3 24  1  0  0  0  0
  4  5  1  0  0  0  0
  4 13  1  0  0  0  0
  5 11  2  0  0  0  0
  5  6  1  0  0  0  0
  6  7  2  0  0  0  0
  6 25  1  0  0  0  0
  7  8  1  0  0  0  0
  8 18  1  0  0  0  0
  8  9  1  0  0  0  0
  9 10  2  0  0  0  0
  9 11  1  0  0  0  0
 11 12  1  0  0  0  0
 13 14  1  0  0  0  0
 13 26  1  0  0  0  0
 13 27  1  0  0  0  0
 14 15  1  0  0  0  0
 14 16  1  0  0  0  0
 14 17  1  0  0  0  0
 15 28  1  0  0  0  0
 15 29  1  0  0  0  0
 15 30  1  0  0  0  0
 16 31  1  0  0  0  0
 16 32  1  0  0  0  0
 16 33  1  0  0  0  0
M  END
> <s_m_source_file>
AV-unprocessed.smi

> <i_m_source_file_index>
922

> <i_lp_mmshare_version>
43012

> <i_f3d_flags>
0

> <s_epik_input>
W0NIM11bQ0BASF0oTzEpW0NIMl1OKFtDSDJdQzEoW0NIM10pW0NIM10pYzJbY0hdbltuSF1jKD1PKWMyQ2w=

> <s_epik_cmdline>
J2VwaWtfcHl0aG9uJywgJy1waCcsICc3LjAnLCAnLXRuJywgJzgnLCAnLW1hJywgJzIwMCcsICctbWV0YWxfYmluZGluZycsICctaW1hZScsICc8aW5maWxlLm1hZT4nLCAnLW9tYWUnLCAnPG91dGZpbGUubWFlPic=

> <r_lp_tautomer_probability>
0.986175

> <r_epik_Ionization_Penalty>
0.00909695

> <r_epik_Ionization_Penalty_Charging>
0.00909694

> <r_epik_Ionization_Penalty_Neutral>
4.87729e-09

> <r_epik_State_Penalty>
1.54226

> <r_epik_Charging_Adjusted_Penalty>
1.55136

> <i_epik_Tot_Q>
0

> <i_epik_Tot_abs_Q>
0

> <r_epik_Metal_State_Penalty>
3.93934

> <b_epik_Metal_Only>
0

> <s_lp_Force_Field>
OPLS_2005

> <r_lp_Energy>
35.5656

> <b_lp_Chiralities_Consistent>
1

> <s_lp_Variant>
AV-unprocessed.smi:922-3

> <Gold.Version>
5.8.1

> <Gold.Id.Protein>
6NUR|6NUR_protein|mol2

> <Gold.PLP.Fitness>
36.2694

> <Gold.PLP.PLP>
-34.7190

> <Gold.PLP.part.hbond>
-2.0000

> <Gold.PLP.part.metal>
0.0000

> <Gold.PLP.part.buried>
-5.0855

> <Gold.PLP.part.nonpolar>
-28.4176

> <Gold.PLP.part.repulsive>
0.2015

> <Gold.PLP.ligand.clash>
2.9228

> <Gold.PLP.ligand.torsion>
0.4108

> <Gold.PLP.Chemscore.Hbond>
1.4545

> <Gold.PLP.Chemscore.CHOScore>
0.0000

> <Gold.PLP.Chemscore.Metal>
0.0000

> <Gold.Chemscore.Hbonds>
donor molecule, donor type, donor heavy atom, donor atom, acceptor molecule, acceptor atom, score
      P1  H  7989  7998       L1     7  1.00
      P1  H 10752 10765       L1    10  0.35

> <Gold.PLP.Chemscore.Internal.Correction>
0.9312

> <Gold.Rescore>
     Score         DG    S(hbond)    S(metal)    S(lipo)     H(rot)  DE(clash)    DE(int)     intcor
     19.80     -21.33       1.32        0.00      97.94       0.00       0.03       1.51       ----

> <Gold.Chemscore.Fitness>
19.7984

> <Gold.Chemscore.DG>
-21.3323

> <Gold.Chemscore.ZeroCoef>
-5.4800

> <Gold.Chemscore.Hbond>
1.3154

> <Gold.Chemscore.Metal>
0.0000

> <Gold.Chemscore.Lipo>
97.9392

> <Gold.Chemscore.Internal_Hbond>
0.0000

> <Gold.Chemscore.DEClash>
0.0270

> <Gold.Chemscore.DEInternal>
1.5069

> <Gold.Chemscore.Rot>
0.0000

> <Gold.Chemscore.Internal.Correction>
   9.000000E+99

> <Gold.Chemscore.Hbonds>
donor molecule, donor type, donor heavy atom, donor atom, acceptor molecule, acceptor atom, score
      P1  H  7989  7998       L1     7  0.25
      P1  H 10752 10765       L1    10  0.34

> <Gold.Chemscore.Hbond.Weighted>
-4.3934

> <Gold.Chemscore.Metal.Weighted>
-0.0000

> <Gold.Chemscore.Lipo.Weighted>
-11.4589

> <Gold.Chemscore.Internal_Hbond.Weighted>
0.0000

> <Gold.Chemscore.DEClash.Weighted>
0.0270

> <Gold.Chemscore.DEInternal.Weighted>
1.5069

> <Gold.Chemscore.Rot.Weighted>
0.0000

> <Gold.Chemscore.Internal.Correction.Weighted>
   9.000000E+99

> <Gold.Protein.RotatedTorsions>
[ 6907 6896 6895 6894 ] final   63.10 input  -60.11 | X-H torsion
[ 7974 7965 7964 7962 ] final  -48.31 input  175.53 | X-H torsion
[ 8008 7997 7996 7995 ] final -177.89 input   59.86 | X-H torsion
[ 10167 10162 10161 10158 ] final  -48.71 input  -65.29 | X-H torsion
[ 10718 10713 10712 10709 ] final   61.57 input   66.30 | X-H torsion
[ 10763 10752 10751 10750 ] final -138.35 input  -60.55 | X-H torsion
[ 11005 11000 10999 10996 ] final  145.77 input  -57.11 | X-H torsion

> <Gold.Protein.ActiveResidues>
 VAL166  LYS551  ARG553  GLY616  TRP617  ASP618  TYR619  PRO620  LYS621  CYS622 
 ASP623  PHE694  ASN695  SER759  ASP760  ASP761  ALA762  ILE779  LEU786  VAL792 
 PHE793  MET794  SER795  GLU796  ALA797  LYS798  CYS799  TRP800  GLU811  SER814 

> <Gold.Protein.RotatedAtoms>
  152.4226  134.5928  159.9978 H   0  0  0  0  0  0  0  0  0  0  0  0  # atno 6907 bound_to 6896
  151.6073  133.3345  159.3068 H   0  0  0  0  0  0  0  0  0  0  0  0  # atno 6908 bound_to 6896
  150.8114  134.7309  159.6757 H   0  0  0  0  0  0  0  0  0  0  0  0  # atno 6909 bound_to 6896
  145.9525  140.7558  142.9497 H   0  0  0  0  0  0  0  0  0  0  0  0  # atno 7974 bound_to 7965
  156.0123  140.1243  157.0441 H   0  0  0  0  0  0  0  0  0  0  0  0  # atno 8008 bound_to 7997
  154.4280  140.1085  156.5917 H   0  0  0  0  0  0  0  0  0  0  0  0  # atno 8009 bound_to 7997
  155.6062  140.3471  155.4610 H   0  0  0  0  0  0  0  0  0  0  0  0  # atno 8010 bound_to 7997
  140.6719  143.2728  151.4110 H   0  0  0  0  0  0  0  0  0  0  0  0  # atno 10167 bound_to 10162
  157.5838  130.9002  149.9478 H   0  0  0  0  0  0  0  0  0  0  0  0  # atno 10718 bound_to 10713
  154.8639  135.3615  154.5370 H   0  0  0  0  0  0  0  0  0  0  0  0  # atno 10763 bound_to 10752
  153.5993  135.7013  153.5395 H   0  0  0  0  0  0  0  0  0  0  0  0  # atno 10764 bound_to 10752
  153.3304  135.4126  155.1452 H   0  0  0  0  0  0  0  0  0  0  0  0  # atno 10765 bound_to 10752
  140.0739  134.9136  157.1390 H   0  0  0  0  0  0  0  0  0  0  0  0  # atno 11005 bound_to 11000
  144.6798  140.2458  143.7338 LP  0  0  0  0  0  0  0  0  0  0  0  0  # atno 17320 bound_to 7965
  145.8151  139.2019  143.1970 LP  0  0  0  0  0  0  0  0  0  0  0  0  # atno 17321 bound_to 7965
  139.5991  144.1334  152.2178 LP  0  0  0  0  0  0  0  0  0  0  0  0  # atno 17342 bound_to 10162
  140.0712  144.5777  150.7190 LP  0  0  0  0  0  0  0  0  0  0  0  0  # atno 17343 bound_to 10162
  156.0885  130.3665  150.0440 LP  0  0  0  0  0  0  0  0  0  0  0  0  # atno 17370 bound_to 10713
  156.8575  130.9480  151.3620 LP  0  0  0  0  0  0  0  0  0  0  0  0  # atno 17371 bound_to 10713
  140.3587  134.2518  155.7189 LP  0  0  0  0  0  0  0  0  0  0  0  0  # atno 17394 bound_to 11000
  141.2022  133.7943  157.0402 LP  0  0  0  0  0  0  0  0  0  0  0  0  # atno 17395 bound_to 11000

$$$$
