AV-unprocessed.smi:2026|AV-procd|sdf|8207|dock8
  -GOLD-   2272010463D 1   1.00000     0.00000
 Structure written by MMmdl.
 46 48  0  0  0  0  0  0  0  0  3 V2000
  151.9746  144.2132  160.7665 C   0  0  0  0  0  0  0  0  0  0  0  0
  151.8386  143.2136  159.6308 C   0  0  0  0  0  0  0  0  0  0  0  0
  151.0422  143.5630  158.5159 C   0  0  0  0  0  0  0  0  0  0  0  0
  150.9367  142.6269  157.4936 C   0  0  0  0  0  0  0  0  0  0  0  0
  150.2429  142.6642  156.2812 N   0  3  0  0  0  0  0  0  0  0  0  0
  150.4452  141.4986  155.6049 C   0  0  0  0  0  0  0  0  0  0  0  0
  151.2573  140.7197  156.3686 N   0  0  0  0  0  0  0  0  0  0  0  0
  151.7942  139.3763  156.1248 C   0  0  0  0  0  0  0  0  0  0  0  0
  150.6824  138.3461  155.8368 C   0  0  2  0  0  0  0  0  0  0  0  0
  150.0744  137.9641  157.0542 O   0  0  0  0  0  0  0  0  0  0  0  0
  151.1804  137.0785  155.1137 C   0  0  0  0  0  0  0  0  0  0  0  0
  150.6644  135.8471  155.7265 N   0  0  0  0  0  0  0  0  0  0  0  0
  151.3238  135.0843  156.6198 C   0  0  0  0  0  0  0  0  0  0  0  0
  152.4535  135.3647  157.0188 O   0  0  0  0  0  0  0  0  0  0  0  0
  150.5852  134.0080  156.9788 N   0  5  0  0  0  0  0  0  0  0  0  0
  149.3234  134.0469  156.2678 C   0  0  0  0  0  0  0  0  0  0  0  0
  149.1847  132.8046  155.3674 C   0  0  0  0  0  0  0  0  0  0  0  0
  148.1539  134.1566  157.2640 C   0  0  0  0  0  0  0  0  0  0  0  0
  149.4692  135.3156  155.4473 C   0  0  0  0  0  0  0  0  0  0  0  0
  148.6214  135.7423  154.6624 O   0  0  0  0  0  0  0  0  0  0  0  0
  151.5896  141.3813  157.5544 C   0  0  0  0  0  0  0  0  0  0  0  0
  152.3796  141.0218  158.6428 C   0  0  0  0  0  0  0  0  0  0  0  0
  152.5002  141.9593  159.6924 C   0  0  0  0  0  0  0  0  0  0  0  0
  153.3570  141.5938  160.8926 C   0  0  0  0  0  0  0  0  0  0  0  0
  151.3810  145.1093  160.5832 H   0  0  0  0  0  0  0  0  0  0  0  0
  153.0144  144.5197  160.8825 H   0  0  0  0  0  0  0  0  0  0  0  0
  151.6349  143.7753  161.7055 H   0  0  0  0  0  0  0  0  0  0  0  0
  150.5383  144.5171  158.4611 H   0  0  0  0  0  0  0  0  0  0  0  0
  150.0389  141.2406  154.6377 H   0  0  0  0  0  0  0  0  0  0  0  0
  152.4985  139.4491  155.2958 H   0  0  0  0  0  0  0  0  0  0  0  0
  152.3769  139.0805  156.9982 H   0  0  0  0  0  0  0  0  0  0  0  0
  149.9051  138.8122  155.2310 H   0  0  0  0  0  0  0  0  0  0  0  0
  149.1481  138.1404  156.9932 H   0  0  0  0  0  0  0  0  0  0  0  0
  150.9173  137.1264  154.0559 H   0  0  0  0  0  0  0  0  0  0  0  0
  152.2711  137.0450  155.1405 H   0  0  0  0  0  0  0  0  0  0  0  0
  148.2605  132.8350  154.7893 H   0  0  0  0  0  0  0  0  0  0  0  0
  149.1680  131.8898  155.9605 H   0  0  0  0  0  0  0  0  0  0  0  0
  150.0129  132.7199  154.6629 H   0  0  0  0  0  0  0  0  0  0  0  0
  147.1951  134.1915  156.7453 H   0  0  0  0  0  0  0  0  0  0  0  0
  148.2274  135.0549  157.8790 H   0  0  0  0  0  0  0  0  0  0  0  0
  148.1293  133.2994  157.9377 H   0  0  0  0  0  0  0  0  0  0  0  0
  152.8845  140.0679  158.6845 H   0  0  0  0  0  0  0  0  0  0  0  0
  153.8365  140.6236  160.7596 H   0  0  0  0  0  0  0  0  0  0  0  0
  152.7485  141.5442  161.7956 H   0  0  0  0  0  0  0  0  0  0  0  0
  154.1440  142.3330  161.0435 H   0  0  0  0  0  0  0  0  0  0  0  0
  149.6745  143.4274  155.9372 H   0  0  0  0  0  0  0  0  0  0  0  0
  1  2  1  0  0  0  0
  1 25  1  0  0  0  0
  1 26  1  0  0  0  0
  1 27  1  0  0  0  0
  2 23  1  0  0  0  0
  2  3  2  0  0  0  0
  3  4  1  0  0  0  0
  3 28  1  0  0  0  0
  4 21  2  0  0  0  0
  4  5  1  0  0  0  0
  5  6  2  0  0  0  0
  5 46  1  0  0  0  0
  6  7  1  0  0  0  0
  6 29  1  0  0  0  0
  7  8  1  0  0  0  0
  7 21  1  0  0  0  0
  8  9  1  0  0  0  0
  8 30  1  0  0  0  0
  8 31  1  0  0  0  0
  9 10  1  0  0  0  0
  9 11  1  0  0  0  0
  9 32  1  0  0  0  0
 10 33  1  0  0  0  0
 11 12  1  0  0  0  0
 11 34  1  0  0  0  0
 11 35  1  0  0  0  0
 12 19  1  0  0  0  0
 12 13  1  0  0  0  0
 13 14  2  0  0  0  0
 13 15  1  0  0  0  0
 15 16  1  0  0  0  0
 16 17  1  0  0  0  0
 16 18  1  0  0  0  0
 16 19  1  0  0  0  0
 17 36  1  0  0  0  0
 17 37  1  0  0  0  0
 17 38  1  0  0  0  0
 18 39  1  0  0  0  0
 18 40  1  0  0  0  0
 18 41  1  0  0  0  0
 19 20  2  0  0  0  0
 21 22  1  0  0  0  0
 22 23  2  0  0  0  0
 22 42  1  0  0  0  0
 23 24  1  0  0  0  0
 24 43  1  0  0  0  0
 24 44  1  0  0  0  0
 24 45  1  0  0  0  0
M  CHG  1   5   1
M  CHG  1  15  -1
M  END
> <s_m_source_file>
AV-unprocessed.smi

> <i_m_source_file_index>
2026

> <i_lp_mmshare_version>
43012

> <i_f3d_flags>
0

> <s_epik_input>
W0NIM11jKFtjSF0xKWMoW0NIM10pW2NIXWMoYzEyKW4oW2NIXW4yKVtDSDJdW0NASF0oW09IXSlbQ0gyXU4oQzM9TylDKD1PKVtOSF1DMyhbQ0gzXSlbQ0gzXQ==

> <s_epik_cmdline>
J2VwaWtfcHl0aG9uJywgJy1waCcsICc3LjAnLCAnLXRuJywgJzgnLCAnLW1hJywgJzIwMCcsICctbWV0YWxfYmluZGluZycsICctaW1hZScsICc8aW5maWxlLm1hZT4nLCAnLW9tYWUnLCAnPG91dGZpbGUubWFlPic=

> <r_lp_tautomer_probability>
1

> <r_epik_Ionization_Penalty>
6.70784

> <r_epik_Ionization_Penalty_Charging>
6.70784

> <r_epik_Ionization_Penalty_Neutral>
1.13852e-06

> <r_epik_State_Penalty>
6.78089

> <r_epik_Charging_Adjusted_Penalty>
13.4887

> <i_epik_Tot_Q>
0

> <i_epik_Tot_abs_Q>
2

> <r_epik_Metal_State_Penalty>
2.84685

> <b_epik_Metal_Only>
1

> <s_lp_Force_Field>
OPLS_2005

> <r_lp_Energy>
17.8482

> <b_lp_Chiralities_Consistent>
1

> <s_lp_Variant>
AV-unprocessed.smi:2026-7

> <Gold.Version>
5.8.1

> <Gold.Id.Protein>
6NUR|6NUR_protein|mol2

> <Gold.PLP.Fitness>
52.1656

> <Gold.PLP.PLP>
-41.7353

> <Gold.PLP.part.hbond>
-3.3171

> <Gold.PLP.part.metal>
0.0000

> <Gold.PLP.part.buried>
-5.6432

> <Gold.PLP.part.nonpolar>
-33.9334

> <Gold.PLP.part.repulsive>
0.2351

> <Gold.PLP.ligand.clash>
0.0000

> <Gold.PLP.ligand.torsion>
1.2020

> <Gold.PLP.Chemscore.Hbond>
4.2688

> <Gold.PLP.Chemscore.CHOScore>
0.0000

> <Gold.PLP.Chemscore.Metal>
0.0000

> <Gold.Chemscore.Hbonds>
donor molecule, donor type, donor heavy atom, donor atom, acceptor molecule, acceptor atom, score
      L1  H     5    46       P1  8028  2.00
      P1  H  6896  6907       L1    15  0.51
      P1  H 10752 10764       L1    14  1.00

> <Gold.PLP.Chemscore.Internal.Correction>
0.0279

> <Gold.Rescore>
     Score         DG    S(hbond)    S(metal)    S(lipo)     H(rot)  DE(clash)    DE(int)     intcor
     18.45     -19.60       2.49        0.00     102.96       2.44       0.03       1.11       ----

> <Gold.Chemscore.Fitness>
18.4523

> <Gold.Chemscore.DG>
-19.5953

> <Gold.Chemscore.ZeroCoef>
-5.4800

> <Gold.Chemscore.Hbond>
2.4864

> <Gold.Chemscore.Metal>
0.0000

> <Gold.Chemscore.Lipo>
102.9589

> <Gold.Chemscore.Internal_Hbond>
0.0000

> <Gold.Chemscore.DEClash>
0.0318

> <Gold.Chemscore.DEInternal>
1.1112

> <Gold.Chemscore.Rot>
2.4357

> <Gold.Chemscore.Internal.Correction>
   9.000000E+99

> <Gold.Chemscore.Hbonds>
donor molecule, donor type, donor heavy atom, donor atom, acceptor molecule, acceptor atom, score
      L1  H     5    46       P1  8028  0.94
      P1  H  6896  6907       L1    15  0.15
      P1  H 10752 10764       L1    14  0.29

> <Gold.Chemscore.Hbond.Weighted>
-8.3045

> <Gold.Chemscore.Metal.Weighted>
-0.0000

> <Gold.Chemscore.Lipo.Weighted>
-12.0462

> <Gold.Chemscore.Internal_Hbond.Weighted>
0.0000

> <Gold.Chemscore.DEClash.Weighted>
0.0318

> <Gold.Chemscore.DEInternal.Weighted>
1.1112

> <Gold.Chemscore.Rot.Weighted>
6.2353

> <Gold.Chemscore.Internal.Correction.Weighted>
   9.000000E+99

> <Gold.Protein.RotatedTorsions>
[ 6907 6896 6895 6894 ] final -125.56 input  -60.11 | X-H torsion
[ 7974 7965 7964 7962 ] final  -81.77 input  175.53 | X-H torsion
[ 8008 7997 7996 7995 ] final  162.14 input   59.86 | X-H torsion
[ 10167 10162 10161 10158 ] final   41.25 input  -65.29 | X-H torsion
[ 10718 10713 10712 10709 ] final  -77.72 input   66.30 | X-H torsion
[ 10763 10752 10751 10750 ] final   -4.67 input  -60.55 | X-H torsion
[ 11005 11000 10999 10996 ] final  -11.41 input  -57.11 | X-H torsion

> <Gold.Protein.ActiveResidues>
 VAL166  LYS551  ARG553  GLY616  TRP617  ASP618  TYR619  PRO620  LYS621  CYS622 
 ASP623  PHE694  ASN695  SER759  ASP760  ASP761  ALA762  ILE779  LEU786  VAL792 
 PHE793  MET794  SER795  GLU796  ALA797  LYS798  CYS799  TRP800  GLU811  SER814 

> <Gold.Protein.RotatedAtoms>
  150.8880  133.7282  159.2912 H   0  0  0  0  0  0  0  0  0  0  0  0  # atno 6907 bound_to 6896
  151.4842  135.1052  159.9795 H   0  0  0  0  0  0  0  0  0  0  0  0  # atno 6908 bound_to 6896
  152.4802  133.8189  159.7098 H   0  0  0  0  0  0  0  0  0  0  0  0  # atno 6909 bound_to 6896
  145.5422  140.9508  143.1544 H   0  0  0  0  0  0  0  0  0  0  0  0  # atno 7974 bound_to 7965
  156.2053  140.1758  156.7813 H   0  0  0  0  0  0  0  0  0  0  0  0  # atno 8008 bound_to 7997
  154.5646  140.0693  156.8902 H   0  0  0  0  0  0  0  0  0  0  0  0  # atno 8009 bound_to 7997
  155.2784  140.3347  155.4262 H   0  0  0  0  0  0  0  0  0  0  0  0  # atno 8010 bound_to 7997
  140.3661  144.2165  150.6135 H   0  0  0  0  0  0  0  0  0  0  0  0  # atno 10167 bound_to 10162
  156.0137  130.4499  150.3388 H   0  0  0  0  0  0  0  0  0  0  0  0  # atno 10718 bound_to 10713
  153.3880  135.7001  153.6515 H   0  0  0  0  0  0  0  0  0  0  0  0  # atno 10763 bound_to 10752
  153.5099  135.3634  155.2582 H   0  0  0  0  0  0  0  0  0  0  0  0  # atno 10764 bound_to 10752
  154.8699  135.4132  154.3192 H   0  0  0  0  0  0  0  0  0  0  0  0  # atno 10765 bound_to 10752
  140.7550  133.8561  155.9076 H   0  0  0  0  0  0  0  0  0  0  0  0  # atno 11005 bound_to 11000
  144.7571  139.7048  143.7249 LP  0  0  0  0  0  0  0  0  0  0  0  0  # atno 17320 bound_to 7965
  146.1973  139.5247  142.9766 LP  0  0  0  0  0  0  0  0  0  0  0  0  # atno 17321 bound_to 7965
  140.5079  143.2299  151.8580 LP  0  0  0  0  0  0  0  0  0  0  0  0  # atno 17342 bound_to 10162
  139.4808  144.4984  151.9093 LP  0  0  0  0  0  0  0  0  0  0  0  0  # atno 17343 bound_to 10162
  157.1484  131.0314  151.2896 LP  0  0  0  0  0  0  0  0  0  0  0  0  # atno 17370 bound_to 10713
  157.4413  130.7545  149.7071 LP  0  0  0  0  0  0  0  0  0  0  0  0  # atno 17371 bound_to 10713
  140.9716  134.1523  157.4571 LP  0  0  0  0  0  0  0  0  0  0  0  0  # atno 17394 bound_to 11000
  139.8781  134.9980  156.5879 LP  0  0  0  0  0  0  0  0  0  0  0  0  # atno 17395 bound_to 11000

$$$$
