AV-unprocessed.smi:2247|AV-procd|sdf|9092|dock1
  -GOLD-   2272012293D 1   1.00000     0.00000
 Structure written by MMmdl.
 33 34  0  0  0  0  0  0  0  0  2 V2000
  152.5163  143.1823  161.7740 C   0  0  0  0  0  0  0  0  0  0  0  0
  152.4685  143.8911  160.4083 C   0  0  0  0  0  0  0  0  0  0  0  0
  151.4778  145.0660  160.4054 C   0  0  0  0  0  0  0  0  0  0  0  0
  152.1700  142.9687  159.3045 N   0  0  0  0  0  0  0  0  0  0  0  0
  152.1232  141.5268  159.4853 C   0  0  0  0  0  0  0  0  0  0  0  0
  151.4504  141.0020  158.2141 C   0  0  0  0  0  0  0  0  0  0  0  0
  151.6295  142.1036  157.1573 C   0  0  1  0  0  0  0  0  0  0  0  0
  150.4038  142.2476  156.3727 N   0  0  0  0  0  0  0  0  0  0  0  0
  149.9647  141.3986  155.4320 C   0  0  0  0  0  0  0  0  0  0  0  0
  150.6192  140.3892  155.1607 O   0  0  0  0  0  0  0  0  0  0  0  0
  148.7929  141.7700  154.8686 N   0  5  0  0  0  0  0  0  0  0  0  0
  148.0940  140.8875  154.1368 C   0  0  0  0  0  0  0  0  0  0  0  0
  147.0303  141.1558  153.3775 N   0  0  0  0  0  0  0  0  0  0  0  0
  146.6437  139.9447  152.8249 C   0  0  0  0  0  0  0  0  0  0  0  0
  147.4975  138.9806  153.2872 C   0  0  0  0  0  0  0  0  0  0  0  0
  148.4140  139.5623  154.1187 O   0  0  0  0  0  0  0  0  0  0  0  0
  151.8766  143.3240  158.0455 C   0  0  0  0  0  0  0  0  0  0  0  0
  151.8278  144.4793  157.6229 O   0  0  0  0  0  0  0  0  0  0  0  0
  152.8374  143.8703  162.5563 H   0  0  0  0  0  0  0  0  0  0  0  0
  153.2217  142.3507  161.7618 H   0  0  0  0  0  0  0  0  0  0  0  0
  151.5403  142.7932  162.0650 H   0  0  0  0  0  0  0  0  0  0  0  0
  153.4656  144.3014  160.2381 H   0  0  0  0  0  0  0  0  0  0  0  0
  151.7158  145.7808  161.1934 H   0  0  0  0  0  0  0  0  0  0  0  0
  150.4555  144.7221  160.5654 H   0  0  0  0  0  0  0  0  0  0  0  0
  151.5036  145.6035  159.4568 H   0  0  0  0  0  0  0  0  0  0  0  0
  153.1387  141.1381  159.5717 H   0  0  0  0  0  0  0  0  0  0  0  0
  151.5660  141.2457  160.3798 H   0  0  0  0  0  0  0  0  0  0  0  0
  151.8730  140.0505  157.8902 H   0  0  0  0  0  0  0  0  0  0  0  0
  150.3918  140.8308  158.4183 H   0  0  0  0  0  0  0  0  0  0  0  0
  152.5073  141.9142  156.5371 H   0  0  0  0  0  0  0  0  0  0  0  0
  149.8392  143.0636  156.5569 H   0  0  0  0  0  0  0  0  0  0  0  0
  145.8006  139.8654  152.1548 H   0  0  0  0  0  0  0  0  0  0  0  0
  147.5852  137.9157  153.1341 H   0  0  0  0  0  0  0  0  0  0  0  0
  1  2  1  0  0  0  0
  1 19  1  0  0  0  0
  1 20  1  0  0  0  0
  1 21  1  0  0  0  0
  2  3  1  0  0  0  0
  2  4  1  0  0  0  0
  2 22  1  0  0  0  0
  3 23  1  0  0  0  0
  3 24  1  0  0  0  0
  3 25  1  0  0  0  0
  4 17  1  0  0  0  0
  4  5  1  0  0  0  0
  5  6  1  0  0  0  0
  5 26  1  0  0  0  0
  5 27  1  0  0  0  0
  6  7  1  0  0  0  0
  6 28  1  0  0  0  0
  6 29  1  0  0  0  0
  7  8  1  0  0  0  0
  7 17  1  0  0  0  0
  7 30  1  0  0  0  0
  8  9  1  0  0  0  0
  8 31  1  0  0  0  0
  9 10  2  0  0  0  0
  9 11  1  0  0  0  0
 11 12  1  0  0  0  0
 12 16  1  0  0  0  0
 12 13  2  0  0  0  0
 13 14  1  0  0  0  0
 14 15  2  0  0  0  0
 14 32  1  0  0  0  0
 15 16  1  0  0  0  0
 15 33  1  0  0  0  0
 17 18  2  0  0  0  0
M  CHG  1  11  -1
M  END
> <s_m_source_file>
AV-unprocessed.smi

> <i_m_source_file_index>
2247

> <i_lp_mmshare_version>
43012

> <i_f3d_flags>
0

> <s_epik_input>
W0NIM11bQ0hdKFtDSDNdKU4xW0NIMl1bQ0gyXVtDQEhdKEMxPU8pW05IXUMoPU8pW05IXWMybltjSF1bY0hdbzI=

> <s_epik_cmdline>
J2VwaWtfcHl0aG9uJywgJy1waCcsICc3LjAnLCAnLXRuJywgJzgnLCAnLW1hJywgJzIwMCcsICctbWV0YWxfYmluZGluZycsICctaW1hZScsICc8aW5maWxlLm1hZT4nLCAnLW9tYWUnLCAnPG91dGZpbGUubWFlPic=

> <r_lp_tautomer_probability>
0.785861

> <r_epik_Ionization_Penalty>
8.37364

> <r_epik_Ionization_Penalty_Charging>
6.20178

> <r_epik_Ionization_Penalty_Neutral>
2.17186

> <r_epik_State_Penalty>
6.22234

> <r_epik_Charging_Adjusted_Penalty>
12.4241

> <i_epik_Tot_Q>
-1

> <i_epik_Tot_abs_Q>
1

> <r_epik_Metal_State_Penalty>
2.14252

> <b_epik_Metal_Only>
1

> <s_lp_Force_Field>
OPLS_2005

> <r_lp_Energy>
16.3592

> <b_lp_Chiralities_Consistent>
1

> <s_lp_Variant>
AV-unprocessed.smi:2247-7

> <Gold.Version>
5.8.1

> <Gold.Id.Protein>
6NUR|6NUR_protein|mol2

> <Gold.PLP.Fitness>
44.8937

> <Gold.PLP.PLP>
-34.4217

> <Gold.PLP.part.hbond>
-2.0000

> <Gold.PLP.part.metal>
0.0000

> <Gold.PLP.part.buried>
-4.3016

> <Gold.PLP.part.nonpolar>
-28.9947

> <Gold.PLP.part.repulsive>
1.3242

> <Gold.PLP.ligand.clash>
0.0000

> <Gold.PLP.ligand.torsion>
0.4371

> <Gold.PLP.Chemscore.Hbond>
1.7558

> <Gold.PLP.Chemscore.CHOScore>
1.9884

> <Gold.PLP.Chemscore.Metal>
0.0000

> <Gold.Chemscore.Hbonds>
donor molecule, donor type, donor heavy atom, donor atom, acceptor molecule, acceptor atom, score
      L1  H     8    31       P1  8028  0.70
      P1  H  7989  7998       L1    10  1.00
      L1  C    14    32       P1 10175  1.00
      L1  C    15    33       P1  7948  1.00

> <Gold.PLP.Chemscore.Internal.Correction>
0.1135

> <Gold.Rescore>
     Score         DG    S(hbond)    S(metal)    S(lipo)     H(rot)  DE(clash)    DE(int)     intcor
     10.48     -14.67       1.18        0.00      73.66       1.32       1.07       3.12       ----

> <Gold.Chemscore.Fitness>
10.4793

> <Gold.Chemscore.DG>
-14.6714

> <Gold.Chemscore.ZeroCoef>
-5.4800

> <Gold.Chemscore.Hbond>
1.1849

> <Gold.Chemscore.Metal>
0.0000

> <Gold.Chemscore.Lipo>
73.6595

> <Gold.Chemscore.Internal_Hbond>
0.0000

> <Gold.Chemscore.DEClash>
1.0743

> <Gold.Chemscore.DEInternal>
3.1178

> <Gold.Chemscore.Rot>
1.3219

> <Gold.Chemscore.Internal.Correction>
   9.000000E+99

> <Gold.Chemscore.Hbonds>
donor molecule, donor type, donor heavy atom, donor atom, acceptor molecule, acceptor atom, score
      L1  H     8    31       P1  8028  0.68
      P1  H  7989  7998       L1    10  0.42

> <Gold.Chemscore.Hbond.Weighted>
-3.9574

> <Gold.Chemscore.Metal.Weighted>
-0.0000

> <Gold.Chemscore.Lipo.Weighted>
-8.6182

> <Gold.Chemscore.Internal_Hbond.Weighted>
0.0000

> <Gold.Chemscore.DEClash.Weighted>
1.0743

> <Gold.Chemscore.DEInternal.Weighted>
3.1178

> <Gold.Chemscore.Rot.Weighted>
3.3842

> <Gold.Chemscore.Internal.Correction.Weighted>
   9.000000E+99

> <Gold.Protein.RotatedTorsions>
[ 6907 6896 6895 6894 ] final -161.98 input  -60.11 | X-H torsion
[ 7974 7965 7964 7962 ] final  -59.60 input  175.53 | X-H torsion
[ 8008 7997 7996 7995 ] final  163.42 input   59.86 | X-H torsion
[ 10167 10162 10161 10158 ] final -134.53 input  -65.29 | X-H torsion
[ 10718 10713 10712 10709 ] final   -7.22 input   66.30 | X-H torsion
[ 10763 10752 10751 10750 ] final  -51.08 input  -60.55 | X-H torsion
[ 11005 11000 10999 10996 ] final  119.58 input  -57.11 | X-H torsion

> <Gold.Protein.ActiveResidues>
 VAL166  LYS551  ARG553  GLY616  TRP617  ASP618  TYR619  PRO620  LYS621  CYS622 
 ASP623  PHE694  ASN695  SER759  ASP760  ASP761  ALA762  ILE779  LEU786  VAL792 
 PHE793  MET794  SER795  GLU796  ALA797  LYS798  CYS799  TRP800  GLU811  SER814 

> <Gold.Protein.RotatedAtoms>
  151.3732  133.3847  159.2701 H   0  0  0  0  0  0  0  0  0  0  0  0  # atno 6907 bound_to 6896
  150.9635  134.9020  159.7755 H   0  0  0  0  0  0  0  0  0  0  0  0  # atno 6908 bound_to 6896
  152.5158  134.3691  159.9364 H   0  0  0  0  0  0  0  0  0  0  0  0  # atno 6909 bound_to 6896
  145.8255  140.8513  143.0110 H   0  0  0  0  0  0  0  0  0  0  0  0  # atno 7974 bound_to 7965
  156.1958  140.1724  156.8001 H   0  0  0  0  0  0  0  0  0  0  0  0  # atno 8008 bound_to 7997
  154.5528  140.0714  156.8726 H   0  0  0  0  0  0  0  0  0  0  0  0  # atno 8009 bound_to 7997
  155.2996  140.3360  155.4250 H   0  0  0  0  0  0  0  0  0  0  0  0  # atno 8010 bound_to 7997
  139.8871  143.6767  152.2618 H   0  0  0  0  0  0  0  0  0  0  0  0  # atno 10167 bound_to 10162
  156.7204  130.5149  149.5869 H   0  0  0  0  0  0  0  0  0  0  0  0  # atno 10718 bound_to 10713
  154.1208  135.6535  153.4903 H   0  0  0  0  0  0  0  0  0  0  0  0  # atno 10763 bound_to 10752
  153.0226  135.5270  154.7098 H   0  0  0  0  0  0  0  0  0  0  0  0  # atno 10764 bound_to 10752
  154.6305  135.2975  155.0191 H   0  0  0  0  0  0  0  0  0  0  0  0  # atno 10765 bound_to 10752
  139.9152  134.9629  156.7677 H   0  0  0  0  0  0  0  0  0  0  0  0  # atno 11005 bound_to 11000
  144.6744  140.0596  143.7476 LP  0  0  0  0  0  0  0  0  0  0  0  0  # atno 17320 bound_to 7965
  145.9628  139.2813  143.1145 LP  0  0  0  0  0  0  0  0  0  0  0  0  # atno 17321 bound_to 7965
  139.7143  144.7614  151.1060 LP  0  0  0  0  0  0  0  0  0  0  0  0  # atno 17342 bound_to 10162
  140.7733  143.5290  150.9446 LP  0  0  0  0  0  0  0  0  0  0  0  0  # atno 17343 bound_to 10162
  156.1598  130.6366  151.0705 LP  0  0  0  0  0  0  0  0  0  0  0  0  # atno 17370 bound_to 10713
  157.6900  131.0813  150.7134 LP  0  0  0  0  0  0  0  0  0  0  0  0  # atno 17371 bound_to 10713
  140.6646  133.9614  155.7823 LP  0  0  0  0  0  0  0  0  0  0  0  0  # atno 17394 bound_to 11000
  141.0620  134.0332  157.3645 LP  0  0  0  0  0  0  0  0  0  0  0  0  # atno 17395 bound_to 11000

$$$$
