AV-unprocessed.smi:1990|AV-procd|sdf|8063|dock8
  -GOLD-   2272010273D 1   1.00000     0.00000
 Structure written by MMmdl.
 46 47  0  0  0  0  0  0  0  0  1 V2000
  151.0145  145.2106  159.5516 C   0  0  0  0  0  0  0  0  0  0  0  0
  152.1381  144.5895  158.7021 C   0  0  2  0  0  0  0  0  0  0  0  0
  151.6200  143.7705  157.5033 C   0  0  0  0  0  0  0  0  0  0  0  0
  151.0893  142.4811  157.9379 N   0  0  0  0  0  0  0  0  0  0  0  0
  150.3252  141.7772  156.9817 C   0  0  0  0  0  0  0  0  0  0  0  0
  150.9612  141.1432  155.8886 C   0  0  0  0  0  0  0  0  0  0  0  0
  150.1820  140.4468  154.9450 C   0  0  0  0  0  0  0  0  0  0  0  0
  148.7775  140.4084  155.1098 C   0  0  0  0  0  0  0  0  0  0  0  0
  147.8786  139.7295  154.2426 N   0  0  0  0  0  0  0  0  0  0  0  0
  146.5323  139.7158  154.2564 C   0  0  0  0  0  0  0  0  0  0  0  0
  145.8374  140.2803  155.1007 O   0  0  0  0  0  0  0  0  0  0  0  0
  145.8651  138.9005  153.1397 C   0  0  1  0  0  0  0  0  0  0  0  0
  146.7922  138.7211  151.9258 C   0  0  0  0  0  0  0  0  0  0  0  0
  145.3471  137.2423  153.7882 S   0  0  0  0  0  0  0  0  0  0  0  0
  144.5620  136.4465  152.3235 C   0  0  0  0  0  0  0  0  0  0  0  0
  146.5629  136.4860  154.1242 O   0  0  0  0  0  0  0  0  0  0  0  0
  144.3099  137.4318  154.8139 O   0  0  0  0  0  0  0  0  0  0  0  0
  148.2367  141.0631  156.2341 C   0  0  0  0  0  0  0  0  0  0  0  0
  148.9798  141.7312  157.1404 N   0  0  0  0  0  0  0  0  0  0  0  0
  152.0258  141.7230  158.7631 C   0  0  0  0  0  0  0  0  0  0  0  0
  152.4971  142.5701  159.9584 C   0  0  1  0  0  0  0  0  0  0  0  0
  153.5822  141.8563  160.7713 C   0  0  0  0  0  0  0  0  0  0  0  0
  153.0377  143.8038  159.4873 O   0  0  0  0  0  0  0  0  0  0  0  0
  150.4248  145.9100  158.9587 H   0  0  0  0  0  0  0  0  0  0  0  0
  151.4257  145.7617  160.3975 H   0  0  0  0  0  0  0  0  0  0  0  0
  150.3271  144.4606  159.9420 H   0  0  0  0  0  0  0  0  0  0  0  0
  152.7264  145.4178  158.3064 H   0  0  0  0  0  0  0  0  0  0  0  0
  150.8817  144.3573  156.9587 H   0  0  0  0  0  0  0  0  0  0  0  0
  152.4399  143.5819  156.8090 H   0  0  0  0  0  0  0  0  0  0  0  0
  152.0316  141.1912  155.7556 H   0  0  0  0  0  0  0  0  0  0  0  0
  150.6818  139.9537  154.1266 H   0  0  0  0  0  0  0  0  0  0  0  0
  148.3169  139.1530  153.5392 H   0  0  0  0  0  0  0  0  0  0  0  0
  144.9605  139.4131  152.8104 H   0  0  0  0  0  0  0  0  0  0  0  0
  147.1389  139.6827  151.5454 H   0  0  0  0  0  0  0  0  0  0  0  0
  146.2722  138.2152  151.1122 H   0  0  0  0  0  0  0  0  0  0  0  0
  147.6694  138.1228  152.1755 H   0  0  0  0  0  0  0  0  0  0  0  0
  144.3152  135.4132  152.5661 H   0  0  0  0  0  0  0  0  0  0  0  0
  145.2541  136.4633  151.4821 H   0  0  0  0  0  0  0  0  0  0  0  0
  143.6474  136.9756  152.0577 H   0  0  0  0  0  0  0  0  0  0  0  0
  147.1712  141.0541  156.4138 H   0  0  0  0  0  0  0  0  0  0  0  0
  151.5524  140.8126  159.1332 H   0  0  0  0  0  0  0  0  0  0  0  0
  152.8786  141.4224  158.1526 H   0  0  0  0  0  0  0  0  0  0  0  0
  151.6546  142.7670  160.6217 H   0  0  0  0  0  0  0  0  0  0  0  0
  153.2179  140.9064  161.1627 H   0  0  0  0  0  0  0  0  0  0  0  0
  153.8984  142.4656  161.6183 H   0  0  0  0  0  0  0  0  0  0  0  0
  154.4624  141.6519  160.1609 H   0  0  0  0  0  0  0  0  0  0  0  0
  1  2  1  0  0  0  0
  1 24  1  0  0  0  0
  1 25  1  0  0  0  0
  1 26  1  0  0  0  0
  2 23  1  0  0  0  0
  2  3  1  0  0  0  0
  2 27  1  0  0  0  0
  3  4  1  0  0  0  0
  3 28  1  0  0  0  0
  3 29  1  0  0  0  0
  4  5  1  0  0  0  0
  4 20  1  0  0  0  0
  5 19  1  0  0  0  0
  5  6  2  0  0  0  0
  6  7  1  0  0  0  0
  6 30  1  0  0  0  0
  7  8  2  0  0  0  0
  7 31  1  0  0  0  0
  8  9  1  0  0  0  0
  8 18  1  0  0  0  0
  9 10  1  0  0  0  0
  9 32  1  0  0  0  0
 10 11  2  0  0  0  0
 10 12  1  0  0  0  0
 12 13  1  0  0  0  0
 12 14  1  0  0  0  0
 12 33  1  0  0  0  0
 13 34  1  0  0  0  0
 13 35  1  0  0  0  0
 13 36  1  0  0  0  0
 14 15  1  0  0  0  0
 14 16  2  0  0  0  0
 14 17  2  0  0  0  0
 15 37  1  0  0  0  0
 15 38  1  0  0  0  0
 15 39  1  0  0  0  0
 18 19  2  0  0  0  0
 18 40  1  0  0  0  0
 20 21  1  0  0  0  0
 20 41  1  0  0  0  0
 20 42  1  0  0  0  0
 21 22  1  0  0  0  0
 21 23  1  0  0  0  0
 21 43  1  0  0  0  0
 22 44  1  0  0  0  0
 22 45  1  0  0  0  0
 22 46  1  0  0  0  0
M  END
> <s_m_source_file>
AV-unprocessed.smi

> <i_m_source_file_index>
1990

> <i_lp_mmshare_version>
43012

> <i_f3d_flags>
0

> <s_epik_input>
W0NIM11bQ0BASF0xW0NIMl1OKFtDSDJdW0NASF0oTzEpW0NIM10pYzJbY0hdW2NIXWMoW2NIXW4yKVtOSF1DKD1PKVtDQEhdKFtDSDNdKVMoPU8pKD1PKVtDSDNd

> <s_epik_cmdline>
J2VwaWtfcHl0aG9uJywgJy1waCcsICc3LjAnLCAnLXRuJywgJzgnLCAnLW1hJywgJzIwMCcsICctbWV0YWxfYmluZGluZycsICctaW1hZScsICc8aW5maWxlLm1hZT4nLCAnLW9tYWUnLCAnPG91dGZpbGUubWFlPic=

> <r_lp_tautomer_probability>
1

> <r_epik_Ionization_Penalty>
0.000334888

> <r_epik_Ionization_Penalty_Charging>
0

> <r_epik_Ionization_Penalty_Neutral>
0.000334888

> <r_epik_State_Penalty>
0.000200905

> <r_epik_Charging_Adjusted_Penalty>
0.000200905

> <i_epik_Tot_Q>
0

> <i_epik_Tot_abs_Q>
0

> <r_epik_Metal_State_Penalty>
-0

> <b_epik_Metal_Only>
0

> <s_lp_Force_Field>
OPLS_2005

> <r_lp_Energy>
21.5475

> <b_lp_Chiralities_Consistent>
1

> <s_lp_Variant>
AV-unprocessed.smi:1990-3

> <Gold.Version>
5.8.1

> <Gold.Id.Protein>
6NUR|6NUR_protein|mol2

> <Gold.PLP.Fitness>
36.8127

> <Gold.PLP.PLP>
-38.0471

> <Gold.PLP.part.hbond>
0.0000

> <Gold.PLP.part.metal>
0.0000

> <Gold.PLP.part.buried>
-0.5294

> <Gold.PLP.part.nonpolar>
-37.7853

> <Gold.PLP.part.repulsive>
0.4520

> <Gold.PLP.ligand.clash>
0.0000

> <Gold.PLP.ligand.torsion>
0.8611

> <Gold.PLP.Chemscore.Hbond>
0.0000

> <Gold.PLP.Chemscore.CHOScore>
0.0000

> <Gold.PLP.Chemscore.Metal>
0.0000

> <Gold.PLP.Chemscore.Internal.Correction>
0.4879

> <Gold.Rescore>
     Score         DG    S(hbond)    S(metal)    S(lipo)     H(rot)  DE(clash)    DE(int)     intcor
     11.91     -14.30       0.00        0.00     108.58       1.52       0.37       2.01       ----

> <Gold.Chemscore.Fitness>
11.9117

> <Gold.Chemscore.DG>
-14.2986

> <Gold.Chemscore.ZeroCoef>
-5.4800

> <Gold.Chemscore.Hbond>
0.0000

> <Gold.Chemscore.Metal>
0.0000

> <Gold.Chemscore.Lipo>
108.5804

> <Gold.Chemscore.Internal_Hbond>
0.0000

> <Gold.Chemscore.DEClash>
0.3749

> <Gold.Chemscore.DEInternal>
2.0121

> <Gold.Chemscore.Rot>
1.5177

> <Gold.Chemscore.Internal.Correction>
   9.000000E+99

> <Gold.Chemscore.Hbond.Weighted>
-0.0000

> <Gold.Chemscore.Metal.Weighted>
-0.0000

> <Gold.Chemscore.Lipo.Weighted>
-12.7039

> <Gold.Chemscore.Internal_Hbond.Weighted>
0.0000

> <Gold.Chemscore.DEClash.Weighted>
0.3749

> <Gold.Chemscore.DEInternal.Weighted>
2.0121

> <Gold.Chemscore.Rot.Weighted>
3.8853

> <Gold.Chemscore.Internal.Correction.Weighted>
   9.000000E+99

> <Gold.Protein.RotatedTorsions>
[ 6907 6896 6895 6894 ] final  131.55 input  -60.11 | X-H torsion
[ 7974 7965 7964 7962 ] final  -28.74 input  175.53 | X-H torsion
[ 8008 7997 7996 7995 ] final  -94.31 input   59.86 | X-H torsion
[ 10167 10162 10161 10158 ] final   84.46 input  -65.29 | X-H torsion
[ 10718 10713 10712 10709 ] final  -85.22 input   66.30 | X-H torsion
[ 10763 10752 10751 10750 ] final   24.22 input  -60.55 | X-H torsion
[ 11005 11000 10999 10996 ] final   71.97 input  -57.11 | X-H torsion

> <Gold.Protein.ActiveResidues>
 VAL166  LYS551  ARG553  GLY616  TRP617  ASP618  TYR619  PRO620  LYS621  CYS622 
 ASP623  PHE694  ASN695  SER759  ASP760  ASP761  ALA762  ILE779  LEU786  VAL792 
 PHE793  MET794  SER795  GLU796  ALA797  LYS798  CYS799  TRP800  GLU811  SER814 

> <Gold.Protein.RotatedAtoms>
  152.3415  133.6072  159.5879 H   0  0  0  0  0  0  0  0  0  0  0  0  # atno 6907 bound_to 6896
  150.7481  133.9715  159.3556 H   0  0  0  0  0  0  0  0  0  0  0  0  # atno 6908 bound_to 6896
  151.7578  135.0818  160.0392 H   0  0  0  0  0  0  0  0  0  0  0  0  # atno 6909 bound_to 6896
  146.1267  140.5322  142.8711 H   0  0  0  0  0  0  0  0  0  0  0  0  # atno 7974 bound_to 7965
  154.7468  140.0490  157.0859 H   0  0  0  0  0  0  0  0  0  0  0  0  # atno 8008 bound_to 7997
  155.0108  140.3135  155.4811 H   0  0  0  0  0  0  0  0  0  0  0  0  # atno 8009 bound_to 7997
  156.2876  140.2184  156.5222 H   0  0  0  0  0  0  0  0  0  0  0  0  # atno 8010 bound_to 7997
  139.9078  144.6290  150.8569 H   0  0  0  0  0  0  0  0  0  0  0  0  # atno 10167 bound_to 10162
  155.9998  130.4724  150.4530 H   0  0  0  0  0  0  0  0  0  0  0  0  # atno 10718 bound_to 10713
  153.0780  135.6610  154.0105 H   0  0  0  0  0  0  0  0  0  0  0  0  # atno 10763 bound_to 10752
  153.9735  135.2962  155.3427 H   0  0  0  0  0  0  0  0  0  0  0  0  # atno 10764 bound_to 10752
  154.7172  135.5180  153.8827 H   0  0  0  0  0  0  0  0  0  0  0  0  # atno 10765 bound_to 10752
  139.9515  134.7218  156.0851 H   0  0  0  0  0  0  0  0  0  0  0  0  # atno 11005 bound_to 11000
  144.7649  140.5507  143.6710 LP  0  0  0  0  0  0  0  0  0  0  0  0  # atno 17320 bound_to 7965
  145.5351  139.1475  143.3478 LP  0  0  0  0  0  0  0  0  0  0  0  0  # atno 17321 bound_to 7965
  140.7692  143.3388  151.2251 LP  0  0  0  0  0  0  0  0  0  0  0  0  # atno 17342 bound_to 10162
  139.6969  143.9598  152.2887 LP  0  0  0  0  0  0  0  0  0  0  0  0  # atno 17343 bound_to 10162
  157.2561  131.0557  151.2349 LP  0  0  0  0  0  0  0  0  0  0  0  0  # atno 17370 bound_to 10713
  157.3481  130.7068  149.6423 LP  0  0  0  0  0  0  0  0  0  0  0  0  # atno 17371 bound_to 10713
  141.1179  133.6622  156.3139 LP  0  0  0  0  0  0  0  0  0  0  0  0  # atno 17394 bound_to 11000
  140.5708  134.5842  157.5457 LP  0  0  0  0  0  0  0  0  0  0  0  0  # atno 17395 bound_to 11000

$$$$
