AV-unprocessed.smi:614|AV-procd|sdf|3068|dock9
  -GOLD-   2262023593D 1   1.00000     0.00000
 Structure written by MMmdl.
 44 45  0  0  0  0  0  0  0  0  1 V2000
  144.9227  131.3881  150.8733 C   0  0  0  0  0  0  0  0  0  0  0  0
  144.9650  132.8327  150.9491 N   0  0  0  0  0  0  0  0  0  0  0  0
  144.0776  133.7491  150.4218 C   0  0  0  0  0  0  0  0  0  0  0  0
  144.5296  134.9948  150.7548 C   0  0  0  0  0  0  0  0  0  0  0  0
  145.7139  134.7262  151.4953 C   0  0  0  0  0  0  0  0  0  0  0  0
  146.4873  135.7866  152.0334 N   0  0  0  0  0  0  0  0  0  0  0  0
  146.0418  136.9151  152.6119 C   0  0  0  0  0  0  0  0  0  0  0  0
  144.8570  137.1883  152.8042 O   0  0  0  0  0  0  0  0  0  0  0  0
  147.0663  137.7130  152.9577 N   0  0  0  0  0  0  0  0  0  0  0  0
  147.0324  139.0377  153.5973 C   0  0  1  0  0  0  0  0  0  0  0  0
  146.3648  140.0642  152.6463 C   0  0  0  0  0  0  0  0  0  0  0  0
  146.1907  138.9545  154.9046 C   0  0  0  0  0  0  0  0  0  0  0  0
  144.8030  138.8798  154.6456 O   0  0  0  0  0  0  0  0  0  0  0  0
  148.5181  139.4545  153.8884 C   0  0  0  0  0  0  0  0  0  0  0  0
  149.3997  138.2850  154.4067 C   0  0  0  0  0  0  0  0  0  0  0  0
  150.8603  138.7095  154.6271 C   0  0  0  0  0  0  0  0  0  0  0  0
  150.9556  139.8974  155.5920 C   0  0  0  0  0  0  0  0  0  0  0  0
  150.1076  141.0720  155.0891 C   0  0  0  0  0  0  0  0  0  0  0  0
  148.6454  140.6525  154.8679 C   0  0  0  0  0  0  0  0  0  0  0  0
  145.9760  133.4316  151.6125 N   0  0  0  0  0  0  0  0  0  0  0  0
  144.1492  131.0723  150.1727 H   0  0  0  0  0  0  0  0  0  0  0  0
  144.7010  130.9755  151.8578 H   0  0  0  0  0  0  0  0  0  0  0  0
  145.8856  131.0056  150.5328 H   0  0  0  0  0  0  0  0  0  0  0  0
  143.2072  133.4422  149.8605 H   0  0  0  0  0  0  0  0  0  0  0  0
  144.0809  135.9457  150.5081 H   0  0  0  0  0  0  0  0  0  0  0  0
  147.4878  135.6829  151.9529 H   0  0  0  0  0  0  0  0  0  0  0  0
  147.9911  137.3689  152.7463 H   0  0  0  0  0  0  0  0  0  0  0  0
  146.5143  141.0850  152.9993 H   0  0  0  0  0  0  0  0  0  0  0  0
  145.2882  139.9109  152.5717 H   0  0  0  0  0  0  0  0  0  0  0  0
  146.7594  140.0037  151.6324 H   0  0  0  0  0  0  0  0  0  0  0  0
  146.4601  138.0760  155.4907 H   0  0  0  0  0  0  0  0  0  0  0  0
  146.3768  139.8115  155.5519 H   0  0  0  0  0  0  0  0  0  0  0  0
  144.6228  139.3446  153.8428 H   0  0  0  0  0  0  0  0  0  0  0  0
  148.9590  139.7726  152.9425 H   0  0  0  0  0  0  0  0  0  0  0  0
  148.9993  137.8940  155.3426 H   0  0  0  0  0  0  0  0  0  0  0  0
  149.3971  137.4555  153.7012 H   0  0  0  0  0  0  0  0  0  0  0  0
  151.4361  137.8695  155.0166 H   0  0  0  0  0  0  0  0  0  0  0  0
  151.3118  138.9763  153.6706 H   0  0  0  0  0  0  0  0  0  0  0  0
  150.6145  139.5951  156.5828 H   0  0  0  0  0  0  0  0  0  0  0  0
  151.9952  140.2070  155.7021 H   0  0  0  0  0  0  0  0  0  0  0  0
  150.1538  141.8944  155.8036 H   0  0  0  0  0  0  0  0  0  0  0  0
  150.5241  141.4509  154.1549 H   0  0  0  0  0  0  0  0  0  0  0  0
  148.1044  141.5195  154.4912 H   0  0  0  0  0  0  0  0  0  0  0  0
  148.1964  140.4033  155.8298 H   0  0  0  0  0  0  0  0  0  0  0  0
  1  2  1  0  0  0  0
  1 21  1  0  0  0  0
  1 22  1  0  0  0  0
  1 23  1  0  0  0  0
  2 20  1  0  0  0  0
  2  3  1  0  0  0  0
  3  4  2  0  0  0  0
  3 24  1  0  0  0  0
  4  5  1  0  0  0  0
  4 25  1  0  0  0  0
  5  6  1  0  0  0  0
  5 20  2  0  0  0  0
  6  7  1  0  0  0  0
  6 26  1  0  0  0  0
  7  8  2  0  0  0  0
  7  9  1  0  0  0  0
  9 10  1  0  0  0  0
  9 27  1  0  0  0  0
 10 11  1  0  0  0  0
 10 12  1  0  0  0  0
 10 14  1  0  0  0  0
 11 28  1  0  0  0  0
 11 29  1  0  0  0  0
 11 30  1  0  0  0  0
 12 13  1  0  0  0  0
 12 31  1  0  0  0  0
 12 32  1  0  0  0  0
 13 33  1  0  0  0  0
 14 19  1  0  0  0  0
 14 15  1  0  0  0  0
 14 34  1  0  0  0  0
 15 16  1  0  0  0  0
 15 35  1  0  0  0  0
 15 36  1  0  0  0  0
 16 17  1  0  0  0  0
 16 37  1  0  0  0  0
 16 38  1  0  0  0  0
 17 18  1  0  0  0  0
 17 39  1  0  0  0  0
 17 40  1  0  0  0  0
 18 19  1  0  0  0  0
 18 41  1  0  0  0  0
 18 42  1  0  0  0  0
 19 43  1  0  0  0  0
 19 44  1  0  0  0  0
M  END
> <s_m_source_file>
AV-unprocessed.smi

> <i_m_source_file_index>
614

> <i_lp_mmshare_version>
43012

> <i_f3d_flags>
0

> <s_epik_input>
W0NIM11uMVtjSF1bY0hdYyhuMSlbTkhdQyg9TylbTkhdW0NAQF0oW0NIM10pKFtDSDJdW09IXSlbQ0hdMltDSDJdW0NIMl1bQ0gyXVtDSDJdW0NIMl0y

> <s_epik_cmdline>
J2VwaWtfcHl0aG9uJywgJy1waCcsICc3LjAnLCAnLXRuJywgJzgnLCAnLW1hJywgJzIwMCcsICctbWV0YWxfYmluZGluZycsICctaW1hZScsICc8aW5maWxlLm1hZT4nLCAnLW9tYWUnLCAnPG91dGZpbGUubWFlPic=

> <r_lp_tautomer_probability>
1

> <r_epik_Ionization_Penalty>
3.66621e-05

> <r_epik_Ionization_Penalty_Charging>
0

> <r_epik_Ionization_Penalty_Neutral>
3.66621e-05

> <r_epik_State_Penalty>
-0

> <r_epik_Charging_Adjusted_Penalty>
0

> <i_epik_Tot_Q>
0

> <i_epik_Tot_abs_Q>
0

> <r_epik_Metal_State_Penalty>
-0

> <b_epik_Metal_Only>
0

> <s_lp_Force_Field>
OPLS_2005

> <r_lp_Energy>
18.5246

> <b_lp_Chiralities_Consistent>
1

> <s_lp_Variant>
AV-unprocessed.smi:614-1

> <Gold.Version>
5.8.1

> <Gold.Id.Protein>
6NUR|6NUR_protein|mol2

> <Gold.PLP.Fitness>
40.5389

> <Gold.PLP.PLP>
-30.6339

> <Gold.PLP.part.hbond>
-2.7870

> <Gold.PLP.part.metal>
0.0000

> <Gold.PLP.part.buried>
1.8337

> <Gold.PLP.part.nonpolar>
-31.1935

> <Gold.PLP.part.repulsive>
0.4528

> <Gold.PLP.ligand.clash>
0.0000

> <Gold.PLP.ligand.torsion>
0.9264

> <Gold.PLP.Chemscore.Hbond>
2.9113

> <Gold.PLP.Chemscore.CHOScore>
1.0000

> <Gold.PLP.Chemscore.Metal>
0.0000

> <Gold.Chemscore.Hbonds>
donor molecule, donor type, donor heavy atom, donor atom, acceptor molecule, acceptor atom, score
      L1  H     6    26       P1  7948  1.00
      L1  H     9    27       P1  7948  0.94
      L1  H    13    33       P1 10175  1.00
      L1  C     3    24       P1 10186  1.00

> <Gold.PLP.Chemscore.Internal.Correction>
0.0240

> <Gold.Rescore>
     Score         DG    S(hbond)    S(metal)    S(lipo)     H(rot)  DE(clash)    DE(int)     intcor
     14.31     -18.80       2.93        0.00      75.64       2.07       1.61       2.88       ----

> <Gold.Chemscore.Fitness>
14.3128

> <Gold.Chemscore.DG>
-18.8026

> <Gold.Chemscore.ZeroCoef>
-5.4800

> <Gold.Chemscore.Hbond>
2.9263

> <Gold.Chemscore.Metal>
0.0000

> <Gold.Chemscore.Lipo>
75.6449

> <Gold.Chemscore.Internal_Hbond>
0.0000

> <Gold.Chemscore.DEClash>
1.6137

> <Gold.Chemscore.DEInternal>
2.8761

> <Gold.Chemscore.Rot>
2.0710

> <Gold.Chemscore.Internal.Correction>
   9.000000E+99

> <Gold.Chemscore.Hbonds>
donor molecule, donor type, donor heavy atom, donor atom, acceptor molecule, acceptor atom, score
      L1  H     6    26       P1  7948  0.92
      L1  H     9    27       P1  7948  0.91
      L1  H    13    33       P1 10175  0.96

> <Gold.Chemscore.Hbond.Weighted>
-9.7738

> <Gold.Chemscore.Metal.Weighted>
-0.0000

> <Gold.Chemscore.Lipo.Weighted>
-8.8505

> <Gold.Chemscore.Internal_Hbond.Weighted>
0.0000

> <Gold.Chemscore.DEClash.Weighted>
1.6137

> <Gold.Chemscore.DEInternal.Weighted>
2.8761

> <Gold.Chemscore.Rot.Weighted>
5.3017

> <Gold.Chemscore.Internal.Correction.Weighted>
   9.000000E+99

> <Gold.Protein.RotatedTorsions>
[ 6907 6896 6895 6894 ] final -111.58 input  -60.11 | X-H torsion
[ 7974 7965 7964 7962 ] final -103.61 input  175.53 | X-H torsion
[ 8008 7997 7996 7995 ] final  -72.73 input   59.86 | X-H torsion
[ 10167 10162 10161 10158 ] final   87.66 input  -65.29 | X-H torsion
[ 10718 10713 10712 10709 ] final  -59.61 input   66.30 | X-H torsion
[ 10763 10752 10751 10750 ] final -154.05 input  -60.55 | X-H torsion
[ 11005 11000 10999 10996 ] final   73.05 input  -57.11 | X-H torsion

> <Gold.Protein.ActiveResidues>
 VAL166  LYS551  ARG553  GLY616  TRP617  ASP618  TYR619  PRO620  LYS621  CYS622 
 ASP623  PHE694  ASN695  SER759  ASP760  ASP761  ALA762  ILE779  LEU786  VAL792 
 PHE793  MET794  SER795  GLU796  ALA797  LYS798  CYS799  TRP800  GLU811  SER814 

> <Gold.Protein.RotatedAtoms>
  150.7700  133.9214  159.3398 H   0  0  0  0  0  0  0  0  0  0  0  0  # atno 6907 bound_to 6896
  151.7102  135.0912  160.0276 H   0  0  0  0  0  0  0  0  0  0  0  0  # atno 6908 bound_to 6896
  152.3714  133.6385  159.6125 H   0  0  0  0  0  0  0  0  0  0  0  0  # atno 6909 bound_to 6896
  145.2536  140.9246  143.3081 H   0  0  0  0  0  0  0  0  0  0  0  0  # atno 7974 bound_to 7965
  154.5190  140.0792  156.8135 H   0  0  0  0  0  0  0  0  0  0  0  0  # atno 8008 bound_to 7997
  155.3618  140.3418  155.4223 H   0  0  0  0  0  0  0  0  0  0  0  0  # atno 8009 bound_to 7997
  156.1659  140.1604  156.8518 H   0  0  0  0  0  0  0  0  0  0  0  0  # atno 8010 bound_to 7997
  139.8751  144.6471  150.8905 H   0  0  0  0  0  0  0  0  0  0  0  0  # atno 10167 bound_to 10162
  156.1049  130.4181  150.0739 H   0  0  0  0  0  0  0  0  0  0  0  0  # atno 10718 bound_to 10713
  154.7886  135.3199  154.7830 H   0  0  0  0  0  0  0  0  0  0  0  0  # atno 10763 bound_to 10752
  153.8524  135.6861  153.4795 H   0  0  0  0  0  0  0  0  0  0  0  0  # atno 10764 bound_to 10752
  153.1547  135.4685  154.9627 H   0  0  0  0  0  0  0  0  0  0  0  0  # atno 10765 bound_to 10752
  139.9460  134.7313  156.0979 H   0  0  0  0  0  0  0  0  0  0  0  0  # atno 11005 bound_to 11000
  144.9480  139.4114  143.6416 LP  0  0  0  0  0  0  0  0  0  0  0  0  # atno 17320 bound_to 7965
  146.3295  139.8474  142.8879 LP  0  0  0  0  0  0  0  0  0  0  0  0  # atno 17321 bound_to 7965
  140.7754  143.3631  151.1790 LP  0  0  0  0  0  0  0  0  0  0  0  0  # atno 17342 bound_to 10162
  139.7247  143.9167  152.2998 LP  0  0  0  0  0  0  0  0  0  0  0  0  # atno 17343 bound_to 10162
  156.8717  130.9526  151.3608 LP  0  0  0  0  0  0  0  0  0  0  0  0  # atno 17370 bound_to 10713
  157.6225  130.8666  149.9132 LP  0  0  0  0  0  0  0  0  0  0  0  0  # atno 17371 bound_to 10713
  141.1110  133.6643  156.2978 LP  0  0  0  0  0  0  0  0  0  0  0  0  # atno 17394 bound_to 11000
  140.5835  134.5722  157.5484 LP  0  0  0  0  0  0  0  0  0  0  0  0  # atno 17395 bound_to 11000

$$$$
