AV-unprocessed.smi:3170|AV-procd|sdf|12109|dock7
  -GOLD-   2272017543D 1   1.00000     0.00000
 Structure written by MMmdl.
 35 36  0  0  0  0  0  0  0  0  1 V2000
  145.2318  137.4127  153.9774 O   0  0  0  0  0  0  0  0  0  0  0  0
  146.2580  137.1400  153.3546 C   0  0  0  0  0  0  0  0  0  0  0  0
  146.5368  135.9271  152.8585 N   0  0  0  0  0  0  0  0  0  0  0  0
  145.6478  134.7703  152.9131 C   0  0  0  0  0  0  0  0  0  0  0  0
  146.2544  133.5229  152.2391 C   0  0  0  0  0  0  0  0  0  0  0  0
  145.3273  132.8828  151.3244 N   0  0  0  0  0  0  0  0  0  0  0  0
  143.9804  133.1728  151.1536 C   0  0  0  0  0  0  0  0  0  0  0  0
  143.5116  132.3068  150.1913 C   0  0  0  0  0  0  0  0  0  0  0  0
  144.5466  131.4809  149.7584 N   0  0  0  0  0  0  0  0  0  0  0  0
  145.5908  131.8832  150.4711 C   0  0  0  0  0  0  0  0  0  0  0  0
  147.2166  138.0279  153.0589 N   0  0  0  0  0  0  0  0  0  0  0  0
  147.1561  139.4537  153.3612 C   0  0  0  0  0  0  0  0  0  0  0  0
  148.2161  139.8633  154.4024 C   0  0  2  0  0  0  0  0  0  0  0  0
  148.4334  141.3581  154.5372 C   0  0  0  0  0  0  0  0  0  0  0  0
  149.7928  141.4124  155.2262 C   0  0  0  0  0  0  0  0  0  0  0  0
  150.5119  140.2777  154.7509 O   0  0  0  0  0  0  0  0  0  0  0  0
  149.6303  139.3866  154.0728 C   0  0  0  0  0  0  0  0  0  0  0  0
  147.4069  135.8063  152.3609 H   0  0  0  0  0  0  0  0  0  0  0  0
  145.4335  134.5576  153.9607 H   0  0  0  0  0  0  0  0  0  0  0  0
  144.6936  135.0213  152.4477 H   0  0  0  0  0  0  0  0  0  0  0  0
  147.1491  133.8002  151.6810 H   0  0  0  0  0  0  0  0  0  0  0  0
  146.5712  132.7934  152.9856 H   0  0  0  0  0  0  0  0  0  0  0  0
  143.4807  133.9469  151.7170 H   0  0  0  0  0  0  0  0  0  0  0  0
  142.5167  132.2141  149.7813 H   0  0  0  0  0  0  0  0  0  0  0  0
  146.5688  131.4339  150.3772 H   0  0  0  0  0  0  0  0  0  0  0  0
  148.0232  137.7053  152.5446 H   0  0  0  0  0  0  0  0  0  0  0  0
  147.2800  140.0344  152.4457 H   0  0  0  0  0  0  0  0  0  0  0  0
  146.1562  139.6765  153.7345 H   0  0  0  0  0  0  0  0  0  0  0  0
  147.9416  139.4648  155.3807 H   0  0  0  0  0  0  0  0  0  0  0  0
  148.4928  141.8258  153.5533 H   0  0  0  0  0  0  0  0  0  0  0  0
  147.6500  141.8584  155.1076 H   0  0  0  0  0  0  0  0  0  0  0  0
  150.3280  142.3400  155.0224 H   0  0  0  0  0  0  0  0  0  0  0  0
  149.6741  141.3201  156.3066 H   0  0  0  0  0  0  0  0  0  0  0  0
  149.8013  138.3528  154.3741 H   0  0  0  0  0  0  0  0  0  0  0  0
  149.8257  139.4624  153.0022 H   0  0  0  0  0  0  0  0  0  0  0  0
  1  2  2  0  0  0  0
  2  3  1  0  0  0  0
  2 11  1  0  0  0  0
  3  4  1  0  0  0  0
  3 18  1  0  0  0  0
  4  5  1  0  0  0  0
  4 19  1  0  0  0  0
  4 20  1  0  0  0  0
  5  6  1  0  0  0  0
  5 21  1  0  0  0  0
  5 22  1  0  0  0  0
  6 10  1  0  0  0  0
  6  7  1  0  0  0  0
  7  8  2  0  0  0  0
  7 23  1  0  0  0  0
  8  9  1  0  0  0  0
  8 24  1  0  0  0  0
  9 10  2  0  0  0  0
 10 25  1  0  0  0  0
 11 12  1  0  0  0  0
 11 26  1  0  0  0  0
 12 13  1  0  0  0  0
 12 27  1  0  0  0  0
 12 28  1  0  0  0  0
 13 17  1  0  0  0  0
 13 14  1  0  0  0  0
 13 29  1  0  0  0  0
 14 15  1  0  0  0  0
 14 30  1  0  0  0  0
 14 31  1  0  0  0  0
 15 16  1  0  0  0  0
 15 32  1  0  0  0  0
 15 33  1  0  0  0  0
 16 17  1  0  0  0  0
 17 34  1  0  0  0  0
 17 35  1  0  0  0  0
M  END
> <s_m_source_file>
AV-unprocessed.smi

> <i_m_source_file_index>
3170

> <i_lp_mmshare_version>
43012

> <i_f3d_flags>
0

> <s_epik_input>
W0NIMl0xT1tDSDJdW0NIMl1bQ0BIXTFbQ0gyXVtOSF1DKD1PKVtOSF1bQ0gyXVtDSDJdbjJbY0hdW2NIXW5bY0hdMg==

> <s_epik_cmdline>
J2VwaWtfcHl0aG9uJywgJy1waCcsICc3LjAnLCAnLXRuJywgJzgnLCAnLW1hJywgJzIwMCcsICctbWV0YWxfYmluZGluZycsICctaW1hZScsICc8aW5maWxlLm1hZT4nLCAnLW9tYWUnLCAnPG91dGZpbGUubWFlPic=

> <r_lp_tautomer_probability>
1

> <r_epik_Ionization_Penalty>
0.621287

> <r_epik_Ionization_Penalty_Charging>
0.621234

> <r_epik_Ionization_Penalty_Neutral>
5.30999e-05

> <r_epik_State_Penalty>
0.637278

> <r_epik_Charging_Adjusted_Penalty>
1.25851

> <i_epik_Tot_Q>
0

> <i_epik_Tot_abs_Q>
0

> <r_epik_Metal_State_Penalty>
0.306756

> <b_epik_Metal_Only>
0

> <s_lp_Force_Field>
OPLS_2005

> <r_lp_Energy>
17.5777

> <b_lp_Chiralities_Consistent>
1

> <s_lp_Variant>
AV-unprocessed.smi:3170-3

> <Gold.Version>
5.8.1

> <Gold.Id.Protein>
6NUR|6NUR_protein|mol2

> <Gold.PLP.Fitness>
45.7384

> <Gold.PLP.PLP>
-28.9398

> <Gold.PLP.part.hbond>
-4.0000

> <Gold.PLP.part.metal>
0.0000

> <Gold.PLP.part.buried>
-2.6521

> <Gold.PLP.part.nonpolar>
-23.8930

> <Gold.PLP.part.repulsive>
0.3837

> <Gold.PLP.ligand.clash>
0.0000

> <Gold.PLP.ligand.torsion>
0.4999

> <Gold.PLP.Chemscore.Hbond>
3.2782

> <Gold.PLP.Chemscore.CHOScore>
2.6455

> <Gold.PLP.Chemscore.Metal>
0.0000

> <Gold.Chemscore.Hbonds>
donor molecule, donor type, donor heavy atom, donor atom, acceptor molecule, acceptor atom, score
      L1  H     3    18       P1  7948  1.00
      L1  H    11    26       P1  7948  0.96
      P1  H  7989  7998       L1    16  1.00
      P1  H 10785 10796       L1     9  0.22
      L1  C     8    24       P1 10186  0.50
      L1  C     8    24       P1 10952  1.00
      L1  C    10    25       P1 10747  1.00

> <Gold.PLP.Chemscore.Internal.Correction>
0.0271

> <Gold.Rescore>
     Score         DG    S(hbond)    S(metal)    S(lipo)     H(rot)  DE(clash)    DE(int)     intcor
     13.75     -14.57       2.40        0.00      58.30       2.25       0.41       0.41       ----

> <Gold.Chemscore.Fitness>
13.7523

> <Gold.Chemscore.DG>
-14.5719

> <Gold.Chemscore.ZeroCoef>
-5.4800

> <Gold.Chemscore.Hbond>
2.4024

> <Gold.Chemscore.Metal>
0.0000

> <Gold.Chemscore.Lipo>
58.3000

> <Gold.Chemscore.Internal_Hbond>
0.0000

> <Gold.Chemscore.DEClash>
0.4051

> <Gold.Chemscore.DEInternal>
0.4145

> <Gold.Chemscore.Rot>
2.2474

> <Gold.Chemscore.Internal.Correction>
   9.000000E+99

> <Gold.Chemscore.Hbonds>
donor molecule, donor type, donor heavy atom, donor atom, acceptor molecule, acceptor atom, score
      L1  H     3    18       P1  7948  0.99
      L1  H    11    26       P1  7948  0.92
      P1  H  7989  7998       L1    16  0.27
      P1  H 10785 10796       L1     9  0.02

> <Gold.Chemscore.Hbond.Weighted>
-8.0240

> <Gold.Chemscore.Metal.Weighted>
-0.0000

> <Gold.Chemscore.Lipo.Weighted>
-6.8211

> <Gold.Chemscore.Internal_Hbond.Weighted>
0.0000

> <Gold.Chemscore.DEClash.Weighted>
0.4051

> <Gold.Chemscore.DEInternal.Weighted>
0.4145

> <Gold.Chemscore.Rot.Weighted>
5.7532

> <Gold.Chemscore.Internal.Correction.Weighted>
   9.000000E+99

> <Gold.Protein.RotatedTorsions>
[ 6907 6896 6895 6894 ] final  -90.10 input  -60.11 | X-H torsion
[ 7974 7965 7964 7962 ] final -141.96 input  175.53 | X-H torsion
[ 8008 7997 7996 7995 ] final  -95.22 input   59.86 | X-H torsion
[ 10167 10162 10161 10158 ] final  149.36 input  -65.29 | X-H torsion
[ 10718 10713 10712 10709 ] final  104.10 input   66.30 | X-H torsion
[ 10763 10752 10751 10750 ] final   -7.79 input  -60.55 | X-H torsion
[ 11005 11000 10999 10996 ] final  -12.83 input  -57.11 | X-H torsion

> <Gold.Protein.ActiveResidues>
 VAL166  LYS551  ARG553  GLY616  TRP617  ASP618  TYR619  PRO620  LYS621  CYS622 
 ASP623  PHE694  ASN695  SER759  ASP760  ASP761  ALA762  ILE779  LEU786  VAL792 
 PHE793  MET794  SER795  GLU796  ALA797  LYS798  CYS799  TRP800  GLU811  SER814 

> <Gold.Protein.RotatedAtoms>
  150.6879  134.2484  159.4500 H   0  0  0  0  0  0  0  0  0  0  0  0  # atno 6907 bound_to 6896
  152.0424  134.9701  160.0583 H   0  0  0  0  0  0  0  0  0  0  0  0  # atno 6908 bound_to 6896
  152.1198  133.4312  159.4707 H   0  0  0  0  0  0  0  0  0  0  0  0  # atno 6909 bound_to 6896
  144.8480  140.6017  143.5409 H   0  0  0  0  0  0  0  0  0  0  0  0  # atno 7974 bound_to 7965
  154.7585  140.0482  157.0953 H   0  0  0  0  0  0  0  0  0  0  0  0  # atno 8008 bound_to 7997
  154.9968  140.3120  155.4864 H   0  0  0  0  0  0  0  0  0  0  0  0  # atno 8009 bound_to 7997
  156.2899  140.2208  156.5076 H   0  0  0  0  0  0  0  0  0  0  0  0  # atno 8010 bound_to 7997
  139.4862  144.5607  151.7236 H   0  0  0  0  0  0  0  0  0  0  0  0  # atno 10167 bound_to 10162
  157.6751  131.0795  150.5654 H   0  0  0  0  0  0  0  0  0  0  0  0  # atno 10718 bound_to 10713
  153.4313  135.7012  153.6229 H   0  0  0  0  0  0  0  0  0  0  0  0  # atno 10763 bound_to 10752
  153.4642  135.3729  155.2355 H   0  0  0  0  0  0  0  0  0  0  0  0  # atno 10764 bound_to 10752
  154.8725  135.4027  154.3697 H   0  0  0  0  0  0  0  0  0  0  0  0  # atno 10765 bound_to 10752
  140.7698  133.8447  155.9197 H   0  0  0  0  0  0  0  0  0  0  0  0  # atno 11005 bound_to 11000
  145.4558  139.1518  143.3893 LP  0  0  0  0  0  0  0  0  0  0  0  0  # atno 17320 bound_to 7965
  146.2760  140.4686  142.8795 LP  0  0  0  0  0  0  0  0  0  0  0  0  # atno 17321 bound_to 7965
  140.5177  144.0928  150.6013 LP  0  0  0  0  0  0  0  0  0  0  0  0  # atno 17342 bound_to 10162
  140.3875  143.2770  152.0099 LP  0  0  0  0  0  0  0  0  0  0  0  0  # atno 17343 bound_to 10162
  156.5957  130.4341  149.5918 LP  0  0  0  0  0  0  0  0  0  0  0  0  # atno 17370 bound_to 10713
  156.2547  130.6928  151.1677 LP  0  0  0  0  0  0  0  0  0  0  0  0  # atno 17371 bound_to 10713
  140.9584  134.1688  157.4673 LP  0  0  0  0  0  0  0  0  0  0  0  0  # atno 17394 bound_to 11000
  139.8757  134.9935  156.5650 LP  0  0  0  0  0  0  0  0  0  0  0  0  # atno 17395 bound_to 11000

$$$$
