AV-unprocessed.smi:2886|AV-procd|sdf|11089|dock6
  -GOLD-   2272015563D 1   1.00000     0.00000
 Structure written by MMmdl.
 28 30  0  0  0  0  0  0  0  0  1 V2000
  151.6381  136.9251  154.2802 O   0  0  0  0  0  0  0  0  0  0  0  0
  151.1055  138.0042  154.5317 C   0  0  0  0  0  0  0  0  0  0  0  0
  150.0191  138.4328  153.8471 N   0  0  0  0  0  0  0  0  0  0  0  0
  149.3382  139.6091  154.0455 N   0  0  0  0  0  0  0  0  0  0  0  0
  149.7557  140.4123  154.9634 C   0  0  0  0  0  0  0  0  0  0  0  0
  150.9215  140.1277  155.7937 C   0  0  0  0  0  0  0  0  0  0  0  0
  151.3699  140.9936  156.7827 N   0  0  0  0  0  0  0  0  0  0  0  0
  150.8196  142.2818  157.1829 C   0  0  2  0  0  0  0  0  0  0  0  0
  151.6211  143.4688  156.6474 C   0  0  0  0  0  0  0  0  0  0  0  0
  151.9050  144.2558  157.9352 C   0  0  2  0  0  0  0  0  0  0  0  0
  152.9924  143.5787  158.7795 C   0  0  0  0  0  0  0  0  0  0  0  0
  152.2487  142.3610  159.3253 C   0  0  0  0  0  0  0  0  0  0  0  0
  150.8540  142.5328  158.7001 C   0  0  1  0  0  0  0  0  0  0  0  0
  150.7535  143.9471  158.7042 O   0  0  0  0  0  0  0  0  0  0  0  0
  151.5554  138.9434  155.5686 C   0  0  0  0  0  0  0  0  0  0  0  0
  152.9410  138.4960  156.5066 Cl  0  0  0  0  0  0  0  0  0  0  0  0
  149.6390  137.8531  153.1127 H   0  0  0  0  0  0  0  0  0  0  0  0
  149.2412  141.3516  155.1628 H   0  0  0  0  0  0  0  0  0  0  0  0
  152.2672  140.7771  157.1938 H   0  0  0  0  0  0  0  0  0  0  0  0
  149.7954  142.3798  156.8231 H   0  0  0  0  0  0  0  0  0  0  0  0
  152.5394  143.1827  156.1326 H   0  0  0  0  0  0  0  0  0  0  0  0
  151.0146  144.0549  155.9564 H   0  0  0  0  0  0  0  0  0  0  0  0
  152.0688  145.3219  157.7759 H   0  0  0  0  0  0  0  0  0  0  0  0
  153.8705  143.3113  158.1909 H   0  0  0  0  0  0  0  0  0  0  0  0
  153.3119  144.2282  159.5953 H   0  0  0  0  0  0  0  0  0  0  0  0
  152.7242  141.4166  159.0592 H   0  0  0  0  0  0  0  0  0  0  0  0
  152.1891  142.4113  160.4129 H   0  0  0  0  0  0  0  0  0  0  0  0
  150.0593  142.0250  159.2476 H   0  0  0  0  0  0  0  0  0  0  0  0
  1  2  2  0  0  0  0
  2 15  1  0  0  0  0
  2  3  1  0  0  0  0
  3 17  1  0  0  0  0
  3  4  1  0  0  0  0
  4  5  2  0  0  0  0
  5  6  1  0  0  0  0
  5 18  1  0  0  0  0
  6  7  1  0  0  0  0
  6 15  2  0  0  0  0
  7  8  1  0  0  0  0
  7 19  1  0  0  0  0
  8 13  1  0  0  0  0
  8  9  1  0  0  0  0
  8 20  1  0  0  0  0
  9 10  1  0  0  0  0
  9 21  1  0  0  0  0
  9 22  1  0  0  0  0
 10 14  1  0  0  0  0
 10 11  1  0  0  0  0
 10 23  1  0  0  0  0
 11 12  1  0  0  0  0
 11 24  1  0  0  0  0
 11 25  1  0  0  0  0
 12 13  1  0  0  0  0
 12 26  1  0  0  0  0
 12 27  1  0  0  0  0
 13 14  1  0  0  0  0
 13 28  1  0  0  0  0
 15 16  1  0  0  0  0
M  END
> <s_m_source_file>
AV-unprocessed.smi

> <i_m_source_file_index>
2886

> <i_lp_mmshare_version>
43012

> <i_f3d_flags>
0

> <s_epik_input>
Tz1jMVtuSF1uW2NIXWMoYzFDbClbTkhdW0NASF0oW0NIMl1bQ0BASF0yMylbQ0BASF0oTzMpW0NIMl1bQ0gyXTI=

> <s_epik_cmdline>
J2VwaWtfcHl0aG9uJywgJy1waCcsICc3LjAnLCAnLXRuJywgJzgnLCAnLW1hJywgJzIwMCcsICctbWV0YWxfYmluZGluZycsICctaW1hZScsICc8aW5maWxlLm1hZT4nLCAnLW9tYWUnLCAnPG91dGZpbGUubWFlPic=

> <r_lp_tautomer_probability>
0.986175

> <r_epik_Ionization_Penalty>
0.000975594

> <r_epik_Ionization_Penalty_Charging>
0.000940184

> <r_epik_Ionization_Penalty_Neutral>
3.54099e-05

> <r_epik_State_Penalty>
0.00620319

> <r_epik_Charging_Adjusted_Penalty>
0.00714337

> <i_epik_Tot_Q>
0

> <i_epik_Tot_abs_Q>
0

> <r_epik_Metal_State_Penalty>
0.287699

> <b_epik_Metal_Only>
0

> <s_lp_Force_Field>
OPLS_2005

> <r_lp_Energy>
55.2825

> <b_lp_Chiralities_Consistent>
1

> <s_lp_Variant>
AV-unprocessed.smi:2886-3

> <Gold.Version>
5.8.1

> <Gold.Id.Protein>
6NUR|6NUR_protein|mol2

> <Gold.PLP.Fitness>
34.1465

> <Gold.PLP.PLP>
-29.3336

> <Gold.PLP.part.hbond>
-2.0631

> <Gold.PLP.part.metal>
0.0000

> <Gold.PLP.part.buried>
-4.6839

> <Gold.PLP.part.nonpolar>
-25.1942

> <Gold.PLP.part.repulsive>
1.9628

> <Gold.PLP.ligand.clash>
0.0000

> <Gold.PLP.ligand.torsion>
0.2680

> <Gold.PLP.Chemscore.Hbond>
1.7800

> <Gold.PLP.Chemscore.CHOScore>
0.0000

> <Gold.PLP.Chemscore.Metal>
0.0000

> <Gold.Chemscore.Hbonds>
donor molecule, donor type, donor heavy atom, donor atom, acceptor molecule, acceptor atom, score
      L1  H     3    17       P1  7948  0.78
      P1  H 10752 10765       L1     1  1.00

> <Gold.PLP.Chemscore.Internal.Correction>
0.0090

> <Gold.Rescore>
     Score         DG    S(hbond)    S(metal)    S(lipo)     H(rot)  DE(clash)    DE(int)     intcor
     17.64     -19.85       1.93        0.00      89.59       1.00       1.96       0.24       ----

> <Gold.Chemscore.Fitness>
17.6376

> <Gold.Chemscore.DG>
-19.8457

> <Gold.Chemscore.ZeroCoef>
-5.4800

> <Gold.Chemscore.Hbond>
1.9294

> <Gold.Chemscore.Metal>
0.0000

> <Gold.Chemscore.Lipo>
89.5868

> <Gold.Chemscore.Internal_Hbond>
0.0000

> <Gold.Chemscore.DEClash>
1.9631

> <Gold.Chemscore.DEInternal>
0.2450

> <Gold.Chemscore.Rot>
1.0000

> <Gold.Chemscore.Internal.Correction>
   9.000000E+99

> <Gold.Chemscore.Hbonds>
donor molecule, donor type, donor heavy atom, donor atom, acceptor molecule, acceptor atom, score
      L1  H     3    17       P1  7948  0.60
      P1  H 10752 10765       L1     1  1.00

> <Gold.Chemscore.Hbond.Weighted>
-6.4440

> <Gold.Chemscore.Metal.Weighted>
-0.0000

> <Gold.Chemscore.Lipo.Weighted>
-10.4817

> <Gold.Chemscore.Internal_Hbond.Weighted>
0.0000

> <Gold.Chemscore.DEClash.Weighted>
1.9631

> <Gold.Chemscore.DEInternal.Weighted>
0.2450

> <Gold.Chemscore.Rot.Weighted>
2.5600

> <Gold.Chemscore.Internal.Correction.Weighted>
   9.000000E+99

> <Gold.Protein.RotatedTorsions>
[ 6907 6896 6895 6894 ] final  -55.56 input  -60.11 | X-H torsion
[ 7974 7965 7964 7962 ] final -108.68 input  175.53 | X-H torsion
[ 8008 7997 7996 7995 ] final   86.25 input   59.86 | X-H torsion
[ 10167 10162 10161 10158 ] final   82.83 input  -65.29 | X-H torsion
[ 10718 10713 10712 10709 ] final -126.38 input   66.30 | X-H torsion
[ 10763 10752 10751 10750 ] final  154.17 input  -60.55 | X-H torsion
[ 11005 11000 10999 10996 ] final  147.41 input  -57.11 | X-H torsion

> <Gold.Protein.ActiveResidues>
 VAL166  LYS551  ARG553  GLY616  TRP617  ASP618  TYR619  PRO620  LYS621  CYS622 
 ASP623  PHE694  ASN695  SER759  ASP760  ASP761  ALA762  ILE779  LEU786  VAL792 
 PHE793  MET794  SER795  GLU796  ALA797  LYS798  CYS799  TRP800  GLU811  SER814 

> <Gold.Protein.RotatedAtoms>
  150.8241  134.7463  159.6797 H   0  0  0  0  0  0  0  0  0  0  0  0  # atno 6907 bound_to 6896
  152.4354  134.5694  159.9926 H   0  0  0  0  0  0  0  0  0  0  0  0  # atno 6908 bound_to 6896
  151.5871  133.3333  159.3056 H   0  0  0  0  0  0  0  0  0  0  0  0  # atno 6909 bound_to 6896
  145.1898  140.9009  143.3431 H   0  0  0  0  0  0  0  0  0  0  0  0  # atno 7974 bound_to 7965
  155.9604  140.3394  155.6485 H   0  0  0  0  0  0  0  0  0  0  0  0  # atno 8008 bound_to 7997
  155.6806  140.0737  157.2504 H   0  0  0  0  0  0  0  0  0  0  0  0  # atno 8009 bound_to 7997
  154.4142  140.1675  156.1965 H   0  0  0  0  0  0  0  0  0  0  0  0  # atno 8010 bound_to 7997
  139.9247  144.6190  150.8405 H   0  0  0  0  0  0  0  0  0  0  0  0  # atno 10167 bound_to 10162
  156.1760  130.6700  151.0243 H   0  0  0  0  0  0  0  0  0  0  0  0  # atno 10718 bound_to 10713
  154.1480  135.2817  155.3143 H   0  0  0  0  0  0  0  0  0  0  0  0  # atno 10763 bound_to 10752
  154.6238  135.5458  153.7608 H   0  0  0  0  0  0  0  0  0  0  0  0  # atno 10764 bound_to 10752
  153.0230  135.6445  154.1625 H   0  0  0  0  0  0  0  0  0  0  0  0  # atno 10765 bound_to 10752
  140.0873  134.9061  157.1596 H   0  0  0  0  0  0  0  0  0  0  0  0  # atno 11005 bound_to 11000
  145.0052  139.3561  143.6147 LP  0  0  0  0  0  0  0  0  0  0  0  0  # atno 17320 bound_to 7965
  146.3438  139.9292  142.8756 LP  0  0  0  0  0  0  0  0  0  0  0  0  # atno 17321 bound_to 7965
  140.7653  143.3272  151.2490 LP  0  0  0  0  0  0  0  0  0  0  0  0  # atno 17342 bound_to 10162
  139.6832  143.9818  152.2820 LP  0  0  0  0  0  0  0  0  0  0  0  0  # atno 17343 bound_to 10162
  157.6836  131.0831  150.7304 LP  0  0  0  0  0  0  0  0  0  0  0  0  # atno 17370 bound_to 10713
  156.7361  130.4725  149.5488 LP  0  0  0  0  0  0  0  0  0  0  0  0  # atno 17371 bound_to 10713
  140.3401  134.2713  155.7213 LP  0  0  0  0  0  0  0  0  0  0  0  0  # atno 17394 bound_to 11000
  141.2067  133.7827  157.0163 LP  0  0  0  0  0  0  0  0  0  0  0  0  # atno 17395 bound_to 11000

$$$$
