AV-unprocessed.smi:3323|AV-procd|sdf|12777|dock7
  -GOLD-   2272019123D 1   1.00000     0.00000
 Structure written by MMmdl.
 37 38  0  0  0  0  0  0  0  0  1 V2000
  146.2712  144.2645  154.4589 C   0  0  0  0  0  0  0  0  0  0  0  0
  146.7021  142.7962  154.5373 C   0  0  2  0  0  0  0  0  0  0  0  0
  147.8772  142.4886  153.5887 C   0  0  0  0  0  0  0  0  0  0  0  0
  148.2564  140.9943  153.6185 C   0  0  1  0  0  0  0  0  0  0  0  0
  148.9965  140.5484  154.9017 C   0  0  0  0  0  0  0  0  0  0  0  0
  149.6396  141.6668  155.5867 N   0  0  0  0  0  0  0  0  0  0  0  0
  149.9890  141.6914  156.8813 C   0  0  0  0  0  0  0  0  0  0  0  0
  149.8180  140.7446  157.6484 O   0  0  0  0  0  0  0  0  0  0  0  0
  150.5428  142.8721  157.2082 N   0  0  0  0  0  0  0  0  0  0  0  0
  151.0212  143.3245  158.4689 C   0  0  0  0  0  0  0  0  0  0  0  0
  151.2009  142.5027  159.6090 C   0  0  0  0  0  0  0  0  0  0  0  0
  151.6704  143.0871  160.8014 C   0  0  0  0  0  0  0  0  0  0  0  0
  151.9377  144.4695  160.8144 C   0  0  0  0  0  0  0  0  0  0  0  0
  151.7633  145.2662  159.7396 N   0  0  0  0  0  0  0  0  0  0  0  0
  151.3134  144.6990  158.6001 C   0  0  0  0  0  0  0  0  0  0  0  0
  146.9823  140.1679  153.3688 C   0  0  0  0  0  0  0  0  0  0  0  0
  145.8377  140.5902  154.3076 C   0  0  0  0  0  0  0  0  0  0  0  0
  145.5868  141.9856  154.1786 O   0  0  0  0  0  0  0  0  0  0  0  0
  147.0888  144.9276  154.7428 H   0  0  0  0  0  0  0  0  0  0  0  0
  145.4355  144.4619  155.1305 H   0  0  0  0  0  0  0  0  0  0  0  0
  145.9579  144.5314  153.4492 H   0  0  0  0  0  0  0  0  0  0  0  0
  146.9854  142.5791  155.5681 H   0  0  0  0  0  0  0  0  0  0  0  0
  147.5875  142.7566  152.5717 H   0  0  0  0  0  0  0  0  0  0  0  0
  148.7344  143.1183  153.8254 H   0  0  0  0  0  0  0  0  0  0  0  0
  148.9357  140.8095  152.7850 H   0  0  0  0  0  0  0  0  0  0  0  0
  148.3292  140.0107  155.5759 H   0  0  0  0  0  0  0  0  0  0  0  0
  149.7818  139.8398  154.6374 H   0  0  0  0  0  0  0  0  0  0  0  0
  149.8235  142.4898  155.0317 H   0  0  0  0  0  0  0  0  0  0  0  0
  150.6582  143.5272  156.4487 H   0  0  0  0  0  0  0  0  0  0  0  0
  150.9822  141.4470  159.6045 H   0  0  0  0  0  0  0  0  0  0  0  0
  151.8193  142.4886  161.6879 H   0  0  0  0  0  0  0  0  0  0  0  0
  152.2969  144.9487  161.7131 H   0  0  0  0  0  0  0  0  0  0  0  0
  151.1830  145.3684  157.7623 H   0  0  0  0  0  0  0  0  0  0  0  0
  146.6591  140.3131  152.3370 H   0  0  0  0  0  0  0  0  0  0  0  0
  147.1870  139.1022  153.4757 H   0  0  0  0  0  0  0  0  0  0  0  0
  144.9276  140.0480  154.0505 H   0  0  0  0  0  0  0  0  0  0  0  0
  146.0649  140.3447  155.3456 H   0  0  0  0  0  0  0  0  0  0  0  0
  1  2  1  0  0  0  0
  1 19  1  0  0  0  0
  1 20  1  0  0  0  0
  1 21  1  0  0  0  0
  2 18  1  0  0  0  0
  2  3  1  0  0  0  0
  2 22  1  0  0  0  0
  3  4  1  0  0  0  0
  3 23  1  0  0  0  0
  3 24  1  0  0  0  0
  4  5  1  0  0  0  0
  4 16  1  0  0  0  0
  4 25  1  0  0  0  0
  5  6  1  0  0  0  0
  5 26  1  0  0  0  0
  5 27  1  0  0  0  0
  6  7  1  0  0  0  0
  6 28  1  0  0  0  0
  7  8  2  0  0  0  0
  7  9  1  0  0  0  0
  9 10  1  0  0  0  0
  9 29  1  0  0  0  0
 10 15  1  0  0  0  0
 10 11  2  0  0  0  0
 11 12  1  0  0  0  0
 11 30  1  0  0  0  0
 12 13  2  0  0  0  0
 12 31  1  0  0  0  0
 13 14  1  0  0  0  0
 13 32  1  0  0  0  0
 14 15  2  0  0  0  0
 15 33  1  0  0  0  0
 16 17  1  0  0  0  0
 16 34  1  0  0  0  0
 16 35  1  0  0  0  0
 17 18  1  0  0  0  0
 17 36  1  0  0  0  0
 17 37  1  0  0  0  0
M  END
> <s_m_source_file>
AV-unprocessed.smi

> <i_m_source_file_index>
3323

> <i_lp_mmshare_version>
43012

> <i_f3d_flags>
0

> <s_epik_input>
W0NIM11bQ0BASF0xW0NIMl1bQ0BIXShbQ0gyXVtDSDJdTzEpW0NIMl1bTkhdQyg9TylbTkhdYzJbY0hdW2NIXVtjSF1uW2NIXTI=

> <s_epik_cmdline>
J2VwaWtfcHl0aG9uJywgJy1waCcsICc3LjAnLCAnLXRuJywgJzgnLCAnLW1hJywgJzIwMCcsICctbWV0YWxfYmluZGluZycsICctaW1hZScsICc8aW5maWxlLm1hZT4nLCAnLW9tYWUnLCAnPG91dGZpbGUubWFlPic=

> <r_epik_Ionization_Penalty>
0.00485293

> <r_epik_Ionization_Penalty_Charging>
0

> <r_epik_Ionization_Penalty_Neutral>
0.00485293

> <r_epik_State_Penalty>
0.00349083

> <r_epik_Charging_Adjusted_Penalty>
0.00349083

> <i_epik_Tot_Q>
0

> <i_epik_Tot_abs_Q>
0

> <r_epik_Metal_State_Penalty>
-0

> <b_epik_Metal_Only>
0

> <s_lp_Force_Field>
OPLS_2005

> <r_lp_Energy>
13.5955

> <b_lp_Chiralities_Consistent>
1

> <s_lp_Variant>
AV-unprocessed.smi:3323-1

> <Gold.Version>
5.8.1

> <Gold.Id.Protein>
6NUR|6NUR_protein|mol2

> <Gold.PLP.Fitness>
44.0074

> <Gold.PLP.PLP>
-36.4777

> <Gold.PLP.part.hbond>
-2.0000

> <Gold.PLP.part.metal>
0.0000

> <Gold.PLP.part.buried>
-5.4920

> <Gold.PLP.part.nonpolar>
-29.8311

> <Gold.PLP.part.repulsive>
0.4960

> <Gold.PLP.ligand.clash>
0.0000

> <Gold.PLP.ligand.torsion>
0.6774

> <Gold.PLP.Chemscore.Hbond>
1.9600

> <Gold.PLP.Chemscore.CHOScore>
1.0000

> <Gold.PLP.Chemscore.Metal>
0.0000

> <Gold.Chemscore.Hbonds>
donor molecule, donor type, donor heavy atom, donor atom, acceptor molecule, acceptor atom, score
      L1  H     9    29       P1  8028  0.18

> <Gold.PLP.Chemscore.Internal.Correction>
0.0045

> <Gold.Rescore>
     Score         DG    S(hbond)    S(metal)    S(lipo)     H(rot)  DE(clash)    DE(int)     intcor
     18.02     -19.77       1.93        0.00      93.86       1.23       0.14       1.60       ----

> <Gold.Chemscore.Fitness>
18.0241

> <Gold.Chemscore.DG>
-19.7679

> <Gold.Chemscore.ZeroCoef>
-5.4800

> <Gold.Chemscore.Hbond>
1.9306

> <Gold.Chemscore.Metal>
0.0000

> <Gold.Chemscore.Lipo>
93.8600

> <Gold.Chemscore.Internal_Hbond>
0.0000

> <Gold.Chemscore.DEClash>
0.1412

> <Gold.Chemscore.DEInternal>
1.6025

> <Gold.Chemscore.Rot>
1.2273

> <Gold.Chemscore.Internal.Correction>
   9.000000E+99

> <Gold.Chemscore.Hbonds>
donor molecule, donor type, donor heavy atom, donor atom, acceptor molecule, acceptor atom, score
      L1  H     6    28       P1  8028  0.01
      L1  H     9    29       P1  8028  0.17

> <Gold.Chemscore.Hbond.Weighted>
-6.4481

> <Gold.Chemscore.Metal.Weighted>
-0.0000

> <Gold.Chemscore.Lipo.Weighted>
-10.9816

> <Gold.Chemscore.Internal_Hbond.Weighted>
0.0000

> <Gold.Chemscore.DEClash.Weighted>
0.1412

> <Gold.Chemscore.DEInternal.Weighted>
1.6025

> <Gold.Chemscore.Rot.Weighted>
3.1418

> <Gold.Chemscore.Internal.Correction.Weighted>
   9.000000E+99

> <Gold.Protein.RotatedTorsions>
[ 6907 6896 6895 6894 ] final    3.12 input  -60.11 | X-H torsion
[ 7974 7965 7964 7962 ] final   91.77 input  175.53 | X-H torsion
[ 8008 7997 7996 7995 ] final   11.32 input   59.86 | X-H torsion
[ 10167 10162 10161 10158 ] final   23.72 input  -65.29 | X-H torsion
[ 10718 10713 10712 10709 ] final   46.29 input   66.30 | X-H torsion
[ 10763 10752 10751 10750 ] final -109.88 input  -60.55 | X-H torsion
[ 11005 11000 10999 10996 ] final  -34.34 input  -57.11 | X-H torsion

> <Gold.Protein.ActiveResidues>
 VAL166  LYS551  ARG553  GLY616  TRP617  ASP618  TYR619  PRO620  LYS621  CYS622 
 ASP623  PHE694  ASN695  SER759  ASP760  ASP761  ALA762  ILE779  LEU786  VAL792 
 PHE793  MET794  SER795  GLU796  ALA797  LYS798  CYS799  TRP800  GLU811  SER814 

> <Gold.Protein.RotatedAtoms>
  151.6199  135.1033  160.0099 H   0  0  0  0  0  0  0  0  0  0  0  0  # atno 6907 bound_to 6896
  152.4163  133.7040  159.6451 H   0  0  0  0  0  0  0  0  0  0  0  0  # atno 6908 bound_to 6896
  150.8051  133.8451  159.3230 H   0  0  0  0  0  0  0  0  0  0  0  0  # atno 6909 bound_to 6896
  145.5013  139.2276  143.2776 H   0  0  0  0  0  0  0  0  0  0  0  0  # atno 7974 bound_to 7965
  154.8054  140.2859  155.5891 H   0  0  0  0  0  0  0  0  0  0  0  0  # atno 8008 bound_to 7997
  156.2982  140.2578  156.2860 H   0  0  0  0  0  0  0  0  0  0  0  0  # atno 8009 bound_to 7997
  154.9510  140.0379  157.2133 H   0  0  0  0  0  0  0  0  0  0  0  0  # atno 8010 bound_to 7997
  140.5246  143.9944  150.6434 H   0  0  0  0  0  0  0  0  0  0  0  0  # atno 10167 bound_to 10162
  157.4465  130.8113  149.7746 H   0  0  0  0  0  0  0  0  0  0  0  0  # atno 10718 bound_to 10713
  154.8217  135.4585  154.0799 H   0  0  0  0  0  0  0  0  0  0  0  0  # atno 10763 bound_to 10752
  153.2147  135.6886  153.8078 H   0  0  0  0  0  0  0  0  0  0  0  0  # atno 10764 bound_to 10752
  153.7516  135.3297  155.3299 H   0  0  0  0  0  0  0  0  0  0  0  0  # atno 10765 bound_to 10752
  140.9708  133.7110  156.1521 H   0  0  0  0  0  0  0  0  0  0  0  0  # atno 11005 bound_to 11000
  146.2224  140.5814  142.9011 LP  0  0  0  0  0  0  0  0  0  0  0  0  # atno 17320 bound_to 7965
  144.7778  140.5777  143.6626 LP  0  0  0  0  0  0  0  0  0  0  0  0  # atno 17321 bound_to 7965
  140.3303  143.3082  152.0694 LP  0  0  0  0  0  0  0  0  0  0  0  0  # atno 17342 bound_to 10162
  139.4934  144.6514  151.6668 LP  0  0  0  0  0  0  0  0  0  0  0  0  # atno 17343 bound_to 10162
  155.9969  130.3903  150.2759 LP  0  0  0  0  0  0  0  0  0  0  0  0  # atno 17370 bound_to 10713
  157.0927  131.0174  151.3115 LP  0  0  0  0  0  0  0  0  0  0  0  0  # atno 17371 bound_to 10713
  140.7331  134.4233  157.5563 LP  0  0  0  0  0  0  0  0  0  0  0  0  # atno 17394 bound_to 11000
  139.8912  134.8786  156.2333 LP  0  0  0  0  0  0  0  0  0  0  0  0  # atno 17395 bound_to 11000

$$$$
