AV-unprocessed.smi:2310|AV-procd|sdf|9256|dock2
  -GOLD-   2272012473D 1   1.00000     0.00000
 Structure written by MMmdl.
 45 46  0  0  0  0  0  0  0  0  1 V2000
  148.0549  131.5849  153.7856 C   0  0  0  0  0  0  0  0  0  0  0  0
  148.6004  133.0196  153.8299 C   0  0  0  0  0  0  0  0  0  0  0  0
  149.3250  133.3693  155.1434 C   0  0  1  0  0  0  0  0  0  0  0  0
  150.4876  132.4014  155.4128 C   0  0  0  0  0  0  0  0  0  0  0  0
  150.9850  132.4601  156.7967 C   0  0  0  0  0  0  0  0  0  0  0  0
  151.3755  132.5054  157.8847 N   0  0  0  0  0  0  0  0  0  0  0  0
  149.8310  134.7420  155.0961 N   0  0  0  0  0  0  0  0  0  0  0  0
  150.2136  135.4749  156.1524 C   0  0  0  0  0  0  0  0  0  0  0  0
  150.1643  135.0730  157.3146 O   0  0  0  0  0  0  0  0  0  0  0  0
  150.6286  136.6950  155.7701 N   0  0  0  0  0  0  0  0  0  0  0  0
  151.1076  137.7623  156.5814 C   0  0  0  0  0  0  0  0  0  0  0  0
  150.6644  137.9715  157.9099 C   0  0  0  0  0  0  0  0  0  0  0  0
  151.2022  139.0360  158.6561 C   0  0  0  0  0  0  0  0  0  0  0  0
  152.1789  139.8574  158.0611 C   0  0  0  0  0  0  0  0  0  0  0  0
  152.7174  140.9175  158.8062 N   0  0  0  0  0  0  0  0  0  0  0  0
  151.7693  141.9453  159.2041 C   0  0  0  0  0  0  0  0  0  0  0  0
  152.4781  142.7522  160.2945 C   0  0  0  0  0  0  0  0  0  0  0  0
  153.5533  141.8077  160.8458 C   0  0  0  0  0  0  0  0  0  0  0  0
  153.4122  140.5252  160.0211 C   0  0  0  0  0  0  0  0  0  0  0  0
  152.6208  139.6579  156.7977 N   0  0  0  0  0  0  0  0  0  0  0  0
  152.1046  138.6373  156.0781 C   0  0  0  0  0  0  0  0  0  0  0  0
  152.6825  138.5118  154.6772 C   0  0  0  0  0  0  0  0  0  0  0  0
  147.6012  131.3734  152.8171 H   0  0  0  0  0  0  0  0  0  0  0  0
  147.2934  131.4203  154.5481 H   0  0  0  0  0  0  0  0  0  0  0  0
  148.8512  130.8574  153.9450 H   0  0  0  0  0  0  0  0  0  0  0  0
  149.2919  133.1522  152.9969 H   0  0  0  0  0  0  0  0  0  0  0  0
  147.7842  133.7227  153.6591 H   0  0  0  0  0  0  0  0  0  0  0  0
  148.6098  133.2539  155.9597 H   0  0  0  0  0  0  0  0  0  0  0  0
  150.1727  131.3741  155.2284 H   0  0  0  0  0  0  0  0  0  0  0  0
  151.3235  132.6054  154.7429 H   0  0  0  0  0  0  0  0  0  0  0  0
  149.9005  135.1646  154.1820 H   0  0  0  0  0  0  0  0  0  0  0  0
  150.5235  136.9121  154.7900 H   0  0  0  0  0  0  0  0  0  0  0  0
  149.9350  137.3284  158.3771 H   0  0  0  0  0  0  0  0  0  0  0  0
  150.8736  139.2115  159.6700 H   0  0  0  0  0  0  0  0  0  0  0  0
  151.4915  142.5726  158.3567 H   0  0  0  0  0  0  0  0  0  0  0  0
  150.8592  141.4962  159.6045 H   0  0  0  0  0  0  0  0  0  0  0  0
  152.9479  143.6378  159.8645 H   0  0  0  0  0  0  0  0  0  0  0  0
  151.7821  143.0859  161.0647 H   0  0  0  0  0  0  0  0  0  0  0  0
  154.5418  142.2458  160.7022 H   0  0  0  0  0  0  0  0  0  0  0  0
  153.4278  141.6135  161.9113 H   0  0  0  0  0  0  0  0  0  0  0  0
  152.8303  139.7863  160.5740 H   0  0  0  0  0  0  0  0  0  0  0  0
  154.3838  140.0858  159.7932 H   0  0  0  0  0  0  0  0  0  0  0  0
  152.2229  137.7211  154.0861 H   0  0  0  0  0  0  0  0  0  0  0  0
  153.7518  138.3068  154.7335 H   0  0  0  0  0  0  0  0  0  0  0  0
  152.5474  139.4480  154.1342 H   0  0  0  0  0  0  0  0  0  0  0  0
  1  2  1  0  0  0  0
  1 23  1  0  0  0  0
  1 24  1  0  0  0  0
  1 25  1  0  0  0  0
  2  3  1  0  0  0  0
  2 26  1  0  0  0  0
  2 27  1  0  0  0  0
  3  4  1  0  0  0  0
  3  7  1  0  0  0  0
  3 28  1  0  0  0  0
  4  5  1  0  0  0  0
  4 29  1  0  0  0  0
  4 30  1  0  0  0  0
  5  6  3  0  0  0  0
  7  8  1  0  0  0  0
  7 31  1  0  0  0  0
  8  9  2  0  0  0  0
  8 10  1  0  0  0  0
 10 11  1  0  0  0  0
 10 32  1  0  0  0  0
 11 21  1  0  0  0  0
 11 12  2  0  0  0  0
 12 13  1  0  0  0  0
 12 33  1  0  0  0  0
 13 14  2  0  0  0  0
 13 34  1  0  0  0  0
 14 15  1  0  0  0  0
 14 20  1  0  0  0  0
 15 19  1  0  0  0  0
 15 16  1  0  0  0  0
 16 17  1  0  0  0  0
 16 35  1  0  0  0  0
 16 36  1  0  0  0  0
 17 18  1  0  0  0  0
 17 37  1  0  0  0  0
 17 38  1  0  0  0  0
 18 19  1  0  0  0  0
 18 39  1  0  0  0  0
 18 40  1  0  0  0  0
 19 41  1  0  0  0  0
 19 42  1  0  0  0  0
 20 21  2  0  0  0  0
 21 22  1  0  0  0  0
 22 43  1  0  0  0  0
 22 44  1  0  0  0  0
 22 45  1  0  0  0  0
M  END
> <s_m_source_file>
AV-unprocessed.smi

> <i_m_source_file_index>
2310

> <i_lp_mmshare_version>
43012

> <i_f3d_flags>
0

> <s_epik_input>
TiNDW0NIMl1bQ0BASF0oW0NIMl1bQ0gzXSlbTkhdQyg9TylbTkhdYzFbY0hdW2NIXWMobmMxW0NIM10pTjJbQ0gyXVtDSDJdW0NIMl1bQ0gyXTI=

> <s_epik_cmdline>
J2VwaWtfcHl0aG9uJywgJy1waCcsICc3LjAnLCAnLXRuJywgJzgnLCAnLW1hJywgJzIwMCcsICctbWV0YWxfYmluZGluZycsICctaW1hZScsICc8aW5maWxlLm1hZT4nLCAnLW9tYWUnLCAnPG91dGZpbGUubWFlPic=

> <r_lp_tautomer_probability>
1

> <r_epik_Ionization_Penalty>
0.281354

> <r_epik_Ionization_Penalty_Charging>
0

> <r_epik_Ionization_Penalty_Neutral>
0.281354

> <r_epik_State_Penalty>
0.273364

> <r_epik_Charging_Adjusted_Penalty>
0.273364

> <i_epik_Tot_Q>
0

> <i_epik_Tot_abs_Q>
0

> <r_epik_Metal_State_Penalty>
0.18752

> <b_epik_Metal_Only>
0

> <s_lp_Force_Field>
OPLS_2005

> <r_lp_Energy>
36.0303

> <b_lp_Chiralities_Consistent>
1

> <s_lp_Variant>
AV-unprocessed.smi:2310-2

> <Gold.Version>
5.8.1

> <Gold.Id.Protein>
6NUR|6NUR_protein|mol2

> <Gold.PLP.Fitness>
43.8256

> <Gold.PLP.PLP>
-38.7463

> <Gold.PLP.part.hbond>
-2.2918

> <Gold.PLP.part.metal>
0.0000

> <Gold.PLP.part.buried>
-4.8729

> <Gold.PLP.part.nonpolar>
-30.8398

> <Gold.PLP.part.repulsive>
0.1303

> <Gold.PLP.ligand.clash>
0.0000

> <Gold.PLP.ligand.torsion>
0.5182

> <Gold.PLP.Chemscore.Hbond>
2.0000

> <Gold.PLP.Chemscore.CHOScore>
0.0000

> <Gold.PLP.Chemscore.Metal>
0.0000

> <Gold.Chemscore.Hbonds>
donor molecule, donor type, donor heavy atom, donor atom, acceptor molecule, acceptor atom, score
      P1  H  6896  6908       L1     6  1.00
      P1  H  7997  8008       L1    20  1.00

> <Gold.PLP.Chemscore.Internal.Correction>
0.1158

> <Gold.Rescore>
     Score         DG    S(hbond)    S(metal)    S(lipo)     H(rot)  DE(clash)    DE(int)     intcor
     16.11     -18.18       1.87        0.00      91.36       1.65       0.01       2.06       ----

> <Gold.Chemscore.Fitness>
16.1061

> <Gold.Chemscore.DG>
-18.1782

> <Gold.Chemscore.ZeroCoef>
-5.4800

> <Gold.Chemscore.Hbond>
1.8673

> <Gold.Chemscore.Metal>
0.0000

> <Gold.Chemscore.Lipo>
91.3577

> <Gold.Chemscore.Internal_Hbond>
0.0000

> <Gold.Chemscore.DEClash>
0.0105

> <Gold.Chemscore.DEInternal>
2.0616

> <Gold.Chemscore.Rot>
1.6514

> <Gold.Chemscore.Internal.Correction>
   9.000000E+99

> <Gold.Chemscore.Hbonds>
donor molecule, donor type, donor heavy atom, donor atom, acceptor molecule, acceptor atom, score
      P1  H  6896  6908       L1     6  0.97
      P1  H  7997  8008       L1    20  0.89

> <Gold.Chemscore.Hbond.Weighted>
-6.2369

> <Gold.Chemscore.Metal.Weighted>
-0.0000

> <Gold.Chemscore.Lipo.Weighted>
-10.6889

> <Gold.Chemscore.Internal_Hbond.Weighted>
0.0000

> <Gold.Chemscore.DEClash.Weighted>
0.0105

> <Gold.Chemscore.DEInternal.Weighted>
2.0616

> <Gold.Chemscore.Rot.Weighted>
4.2276

> <Gold.Chemscore.Internal.Correction.Weighted>
   9.000000E+99

> <Gold.Protein.RotatedTorsions>
[ 6907 6896 6895 6894 ] final   80.97 input  -60.11 | X-H torsion
[ 7974 7965 7964 7962 ] final  177.20 input  175.53 | X-H torsion
[ 8008 7997 7996 7995 ] final  -45.77 input   59.86 | X-H torsion
[ 10167 10162 10161 10158 ] final   85.22 input  -65.29 | X-H torsion
[ 10718 10713 10712 10709 ] final  174.70 input   66.30 | X-H torsion
[ 10763 10752 10751 10750 ] final  -78.76 input  -60.55 | X-H torsion
[ 11005 11000 10999 10996 ] final -163.65 input  -57.11 | X-H torsion

> <Gold.Protein.ActiveResidues>
 VAL166  LYS551  ARG553  GLY616  TRP617  ASP618  TYR619  PRO620  LYS621  CYS622 
 ASP623  PHE694  ASN695  SER759  ASP760  ASP761  ALA762  ILE779  LEU786  VAL792 
 PHE793  MET794  SER795  GLU796  ALA797  LYS798  CYS799  TRP800  GLU811  SER814 

> <Gold.Protein.RotatedAtoms>
  152.5253  134.3275  159.9170 H   0  0  0  0  0  0  0  0  0  0  0  0  # atno 6907 bound_to 6896
  151.3224  133.4028  159.2663 H   0  0  0  0  0  0  0  0  0  0  0  0  # atno 6908 bound_to 6896
  150.9948  134.9291  159.7977 H   0  0  0  0  0  0  0  0  0  0  0  0  # atno 6909 bound_to 6896
  144.7172  140.0211  143.6440 H   0  0  0  0  0  0  0  0  0  0  0  0  # atno 7974 bound_to 7965
  154.4003  140.1388  156.3901 H   0  0  0  0  0  0  0  0  0  0  0  0  # atno 8008 bound_to 7997
  155.7922  140.3478  155.5335 H   0  0  0  0  0  0  0  0  0  0  0  0  # atno 8009 bound_to 7997
  155.8568  140.0950  157.1630 H   0  0  0  0  0  0  0  0  0  0  0  0  # atno 8010 bound_to 7997
  139.9000  144.6335  150.8647 H   0  0  0  0  0  0  0  0  0  0  0  0  # atno 10167 bound_to 10162
  156.9458  131.0015  151.2959 H   0  0  0  0  0  0  0  0  0  0  0  0  # atno 10718 bound_to 10713
  154.5301  135.5719  153.6751 H   0  0  0  0  0  0  0  0  0  0  0  0  # atno 10763 bound_to 10752
  152.9937  135.6202  154.2641 H   0  0  0  0  0  0  0  0  0  0  0  0  # atno 10764 bound_to 10752
  154.2566  135.2857  155.2774 H   0  0  0  0  0  0  0  0  0  0  0  0  # atno 10765 bound_to 10752
  140.5958  134.4998  157.5199 H   0  0  0  0  0  0  0  0  0  0  0  0  # atno 11005 bound_to 11000
  146.0179  139.3226  143.0830 LP  0  0  0  0  0  0  0  0  0  0  0  0  # atno 17320 bound_to 7965
  145.8603  140.9479  143.0703 LP  0  0  0  0  0  0  0  0  0  0  0  0  # atno 17321 bound_to 7965
  140.7709  143.3444  151.2141 LP  0  0  0  0  0  0  0  0  0  0  0  0  # atno 17342 bound_to 10162
  139.7034  143.9496  152.2915 LP  0  0  0  0  0  0  0  0  0  0  0  0  # atno 17343 bound_to 10162
  157.5755  130.8340  149.8450 LP  0  0  0  0  0  0  0  0  0  0  0  0  # atno 17370 bound_to 10713
  156.0384  130.3745  150.1499 LP  0  0  0  0  0  0  0  0  0  0  0  0  # atno 17371 bound_to 10713
  139.9254  134.8066  156.1084 LP  0  0  0  0  0  0  0  0  0  0  0  0  # atno 17394 bound_to 11000
  141.0905  133.6716  156.2530 LP  0  0  0  0  0  0  0  0  0  0  0  0  # atno 17395 bound_to 11000

$$$$
