AV-unprocessed.smi:2710|AV-procd|sdf|10468|dock1
  -GOLD-   2272014503D 1   1.00000     0.00000
 Structure written by MMmdl.
 53 54  0  0  0  0  0  0  0  0  2 V2000
  147.1083  132.7350  152.1427 C   0  0  0  0  0  0  0  0  0  0  0  0
  148.3069  133.0377  153.0543 C   0  0  0  0  0  0  0  0  0  0  0  0
  148.2664  134.4027  153.6450 N   0  3  2  0  0  0  0  0  0  0  0  0
  149.3445  134.6097  154.6488 C   0  0  0  0  0  0  0  0  0  0  0  0
  149.4291  136.0803  155.0887 C   0  0  0  0  0  0  0  0  0  0  0  0
  148.0822  136.5759  155.6332 C   0  0  1  0  0  0  0  0  0  0  0  0
  148.1732  137.9928  155.9748 N   0  0  0  0  0  0  0  0  0  0  0  0
  149.1007  138.5322  156.7795 C   0  0  0  0  0  0  0  0  0  0  0  0
  149.9856  137.8745  157.3256 O   0  0  0  0  0  0  0  0  0  0  0  0
  148.9322  139.8608  156.8911 N   0  0  0  0  0  0  0  0  0  0  0  0
  149.6945  140.7974  157.6413 C   0  0  0  0  0  0  0  0  0  0  0  0
  150.8107  140.3351  158.3670 C   0  0  0  0  0  0  0  0  0  0  0  0
  151.5872  141.1652  159.0939 N   0  0  0  0  0  0  0  0  0  0  0  0
  151.2472  142.4602  159.1319 C   0  0  0  0  0  0  0  0  0  0  0  0
  152.2157  143.4206  159.8444 C   0  0  0  0  0  0  0  0  0  0  0  0
  152.2253  143.1699  161.3707 C   0  0  0  0  0  0  0  0  0  0  0  0
  151.7973  144.8756  159.5630 C   0  0  0  0  0  0  0  0  0  0  0  0
  153.6703  143.2000  159.3668 C   0  0  0  0  0  0  0  0  0  0  0  0
  150.2402  143.0104  158.4409 N   0  0  0  0  0  0  0  0  0  0  0  0
  149.4543  142.1912  157.7101 C   0  0  0  0  0  0  0  0  0  0  0  0
  146.9861  136.3327  154.5784 C   0  0  0  0  0  0  0  0  0  0  0  0
  146.9245  134.8582  154.1267 C   0  0  2  0  0  0  0  0  0  0  0  0
  146.3092  133.9441  155.2085 C   0  0  0  0  0  0  0  0  0  0  0  0
  147.2475  131.7809  151.6334 H   0  0  0  0  0  0  0  0  0  0  0  0
  146.9894  133.5027  151.3773 H   0  0  0  0  0  0  0  0  0  0  0  0
  146.1759  132.6642  152.7025 H   0  0  0  0  0  0  0  0  0  0  0  0
  148.3990  132.2808  153.8333 H   0  0  0  0  0  0  0  0  0  0  0  0
  149.2100  132.9526  152.4484 H   0  0  0  0  0  0  0  0  0  0  0  0
  149.1829  133.9627  155.5117 H   0  0  0  0  0  0  0  0  0  0  0  0
  150.3037  134.3172  154.2199 H   0  0  0  0  0  0  0  0  0  0  0  0
  150.2041  136.1932  155.8479 H   0  0  0  0  0  0  0  0  0  0  0  0
  149.7358  136.6943  154.2404 H   0  0  0  0  0  0  0  0  0  0  0  0
  147.8497  136.0124  156.5386 H   0  0  0  0  0  0  0  0  0  0  0  0
  147.4874  138.6081  155.5620 H   0  0  0  0  0  0  0  0  0  0  0  0
  148.1822  140.2585  156.3447 H   0  0  0  0  0  0  0  0  0  0  0  0
  151.0886  139.2912  158.3616 H   0  0  0  0  0  0  0  0  0  0  0  0
  152.9461  143.8151  161.8744 H   0  0  0  0  0  0  0  0  0  0  0  0
  152.4921  142.1378  161.6021 H   0  0  0  0  0  0  0  0  0  0  0  0
  151.2541  143.3701  161.8247 H   0  0  0  0  0  0  0  0  0  0  0  0
  150.7873  145.0741  159.9234 H   0  0  0  0  0  0  0  0  0  0  0  0
  151.8135  145.0925  158.4942 H   0  0  0  0  0  0  0  0  0  0  0  0
  152.4669  145.5838  160.0523 H   0  0  0  0  0  0  0  0  0  0  0  0
  154.3667  143.8449  159.9040 H   0  0  0  0  0  0  0  0  0  0  0  0
  153.7907  143.4232  158.3061 H   0  0  0  0  0  0  0  0  0  0  0  0
  153.9887  142.1694  159.5270 H   0  0  0  0  0  0  0  0  0  0  0  0
  148.6545  142.6782  157.1755 H   0  0  0  0  0  0  0  0  0  0  0  0
  146.0136  136.6441  154.9622 H   0  0  0  0  0  0  0  0  0  0  0  0
  147.1797  136.9618  153.7078 H   0  0  0  0  0  0  0  0  0  0  0  0
  146.2451  134.8397  153.2753 H   0  0  0  0  0  0  0  0  0  0  0  0
  145.3473  134.3358  155.5399 H   0  0  0  0  0  0  0  0  0  0  0  0
  146.9426  133.8575  156.0906 H   0  0  0  0  0  0  0  0  0  0  0  0
  146.1228  132.9388  154.8318 H   0  0  0  0  0  0  0  0  0  0  0  0
  148.4982  135.0237  152.8830 H   0  0  0  0  0  0  0  0  0  0  0  0
  1  2  1  0  0  0  0
  1 24  1  0  0  0  0
  1 25  1  0  0  0  0
  1 26  1  0  0  0  0
  2  3  1  0  0  0  0
  2 27  1  0  0  0  0
  2 28  1  0  0  0  0
  3 22  1  0  0  0  0
  3  4  1  0  0  0  0
  3 53  1  0  0  0  0
  4  5  1  0  0  0  0
  4 29  1  0  0  0  0
  4 30  1  0  0  0  0
  5  6  1  0  0  0  0
  5 31  1  0  0  0  0
  5 32  1  0  0  0  0
  6  7  1  0  0  0  0
  6 21  1  0  0  0  0
  6 33  1  0  0  0  0
  7  8  1  0  0  0  0
  7 34  1  0  0  0  0
  8  9  2  0  0  0  0
  8 10  1  0  0  0  0
 10 11  1  0  0  0  0
 10 35  1  0  0  0  0
 11 20  1  0  0  0  0
 11 12  2  0  0  0  0
 12 13  1  0  0  0  0
 12 36  1  0  0  0  0
 13 14  2  0  0  0  0
 14 15  1  0  0  0  0
 14 19  1  0  0  0  0
 15 16  1  0  0  0  0
 15 17  1  0  0  0  0
 15 18  1  0  0  0  0
 16 37  1  0  0  0  0
 16 38  1  0  0  0  0
 16 39  1  0  0  0  0
 17 40  1  0  0  0  0
 17 41  1  0  0  0  0
 17 42  1  0  0  0  0
 18 43  1  0  0  0  0
 18 44  1  0  0  0  0
 18 45  1  0  0  0  0
 19 20  2  0  0  0  0
 20 46  1  0  0  0  0
 21 22  1  0  0  0  0
 21 47  1  0  0  0  0
 21 48  1  0  0  0  0
 22 23  1  0  0  0  0
 22 49  1  0  0  0  0
 23 50  1  0  0  0  0
 23 51  1  0  0  0  0
 23 52  1  0  0  0  0
M  CHG  1   3   1
M  END
> <s_m_source_file>
AV-unprocessed.smi

> <i_m_source_file_index>
2710

> <i_lp_mmshare_version>
43012

> <i_f3d_flags>
0

> <s_epik_input>
W0NIM11bQ0gyXU4xW0NIMl1bQ0gyXVtDQEhdKFtDSDJdW0NASF0xW0NIM10pW05IXUMoPU8pW05IXWMyW2NIXW5jKEMoW0NIM10pKFtDSDNdKVtDSDNdKW5bY0hdMg==

> <s_epik_cmdline>
J2VwaWtfcHl0aG9uJywgJy1waCcsICc3LjAnLCAnLXRuJywgJzgnLCAnLW1hJywgJzIwMCcsICctbWV0YWxfYmluZGluZycsICctaW1hZScsICc8aW5maWxlLm1hZT4nLCAnLW9tYWUnLCAnPG91dGZpbGUubWFlPic=

> <r_lp_tautomer_probability>
1

> <r_epik_Ionization_Penalty>
0.00396003

> <r_epik_Ionization_Penalty_Charging>
0.0039379

> <r_epik_Ionization_Penalty_Neutral>
2.21316e-05

> <r_epik_State_Penalty>
0.00281651

> <r_epik_Charging_Adjusted_Penalty>
0.00675441

> <i_epik_Tot_Q>
1

> <i_epik_Tot_abs_Q>
1

> <r_epik_Metal_State_Penalty>
-0

> <b_epik_Metal_Only>
0

> <s_lp_Force_Field>
OPLS_2005

> <r_lp_Energy>
21.0502

> <b_lp_Chiralities_Consistent>
1

> <s_lp_Variant>
AV-unprocessed.smi:2710-5

> <Gold.Version>
5.8.1

> <Gold.Id.Protein>
6NUR|6NUR_protein|mol2

> <Gold.PLP.Fitness>
40.5890

> <Gold.PLP.PLP>
-32.0526

> <Gold.PLP.part.hbond>
-1.0000

> <Gold.PLP.part.metal>
0.0000

> <Gold.PLP.part.buried>
-5.1299

> <Gold.PLP.part.nonpolar>
-25.7600

> <Gold.PLP.part.repulsive>
0.1687

> <Gold.PLP.ligand.clash>
0.0000

> <Gold.PLP.ligand.torsion>
0.2866

> <Gold.PLP.Chemscore.Hbond>
2.0000

> <Gold.PLP.Chemscore.CHOScore>
0.9759

> <Gold.PLP.Chemscore.Metal>
0.0000

> <Gold.Chemscore.Hbonds>
donor molecule, donor type, donor heavy atom, donor atom, acceptor molecule, acceptor atom, score
      L1  H     3    53       P1  7948  2.00
      L1  C    20    46       P1  8028  0.90

> <Gold.PLP.Chemscore.Internal.Correction>
0.1817

> <Gold.Rescore>
     Score         DG    S(hbond)    S(metal)    S(lipo)     H(rot)  DE(clash)    DE(int)     intcor
     12.63     -15.41       0.93        0.00      86.89       1.31       0.24       2.54       ----

> <Gold.Chemscore.Fitness>
12.6259

> <Gold.Chemscore.DG>
-15.4091

> <Gold.Chemscore.ZeroCoef>
-5.4800

> <Gold.Chemscore.Hbond>
0.9317

> <Gold.Chemscore.Metal>
0.0000

> <Gold.Chemscore.Lipo>
86.8879

> <Gold.Chemscore.Internal_Hbond>
0.0000

> <Gold.Chemscore.DEClash>
0.2409

> <Gold.Chemscore.DEInternal>
2.5423

> <Gold.Chemscore.Rot>
1.3081

> <Gold.Chemscore.Internal.Correction>
   9.000000E+99

> <Gold.Chemscore.Hbonds>
donor molecule, donor type, donor heavy atom, donor atom, acceptor molecule, acceptor atom, score
      L1  H     3    53       P1  7948  0.65

> <Gold.Chemscore.Hbond.Weighted>
-3.1120

> <Gold.Chemscore.Metal.Weighted>
-0.0000

> <Gold.Chemscore.Lipo.Weighted>
-10.1659

> <Gold.Chemscore.Internal_Hbond.Weighted>
0.0000

> <Gold.Chemscore.DEClash.Weighted>
0.2409

> <Gold.Chemscore.DEInternal.Weighted>
2.5423

> <Gold.Chemscore.Rot.Weighted>
3.3488

> <Gold.Chemscore.Internal.Correction.Weighted>
   9.000000E+99

> <Gold.Protein.RotatedTorsions>
[ 6907 6896 6895 6894 ] final -161.01 input  -60.11 | X-H torsion
[ 7974 7965 7964 7962 ] final  161.24 input  175.53 | X-H torsion
[ 8008 7997 7996 7995 ] final -108.62 input   59.86 | X-H torsion
[ 10167 10162 10161 10158 ] final  171.31 input  -65.29 | X-H torsion
[ 10718 10713 10712 10709 ] final  139.41 input   66.30 | X-H torsion
[ 10763 10752 10751 10750 ] final -120.45 input  -60.55 | X-H torsion
[ 11005 11000 10999 10996 ] final  -35.96 input  -57.11 | X-H torsion

> <Gold.Protein.ActiveResidues>
 VAL166  LYS551  ARG553  GLY616  TRP617  ASP618  TYR619  PRO620  LYS621  CYS622 
 ASP623  PHE694  ASN695  SER759  ASP760  ASP761  ALA762  ILE779  LEU786  VAL792 
 PHE793  MET794  SER795  GLU796  ALA797  LYS798  CYS799  TRP800  GLU811  SER814 

> <Gold.Protein.RotatedAtoms>
  151.3580  133.3900  159.2686 H   0  0  0  0  0  0  0  0  0  0  0  0  # atno 6907 bound_to 6896
  150.9748  134.9116  159.7820 H   0  0  0  0  0  0  0  0  0  0  0  0  # atno 6908 bound_to 6896
  152.5197  134.3542  159.9314 H   0  0  0  0  0  0  0  0  0  0  0  0  # atno 6909 bound_to 6896
  144.7695  139.7871  143.6302 H   0  0  0  0  0  0  0  0  0  0  0  0  # atno 7974 bound_to 7965
  154.9471  140.0401  157.2125 H   0  0  0  0  0  0  0  0  0  0  0  0  # atno 8008 bound_to 7997
  154.8014  140.2852  155.5897 H   0  0  0  0  0  0  0  0  0  0  0  0  # atno 8009 bound_to 7997
  156.2962  140.2554  156.2883 H   0  0  0  0  0  0  0  0  0  0  0  0  # atno 8010 bound_to 7997
  139.5043  144.3500  151.9932 H   0  0  0  0  0  0  0  0  0  0  0  0  # atno 10167 bound_to 10162
  157.4147  131.1032  151.0417 H   0  0  0  0  0  0  0  0  0  0  0  0  # atno 10718 bound_to 10713
  154.8644  135.4202  154.2461 H   0  0  0  0  0  0  0  0  0  0  0  0  # atno 10763 bound_to 10752
  153.3417  135.6994  153.6868 H   0  0  0  0  0  0  0  0  0  0  0  0  # atno 10764 bound_to 10752
  153.5843  135.3567  155.2860 H   0  0  0  0  0  0  0  0  0  0  0  0  # atno 10765 bound_to 10752
  140.9837  133.7042  156.1729 H   0  0  0  0  0  0  0  0  0  0  0  0  # atno 11005 bound_to 11000
  146.1831  139.5033  142.9854 LP  0  0  0  0  0  0  0  0  0  0  0  0  # atno 17320 bound_to 7965
  145.6366  141.0293  143.1834 LP  0  0  0  0  0  0  0  0  0  0  0  0  # atno 17321 bound_to 7965
  140.2937  144.3725  150.6081 LP  0  0  0  0  0  0  0  0  0  0  0  0  # atno 17342 bound_to 10162
  140.5927  143.2167  151.7223 LP  0  0  0  0  0  0  0  0  0  0  0  0  # atno 17343 bound_to 10162
  157.1369  130.6126  149.5544 LP  0  0  0  0  0  0  0  0  0  0  0  0  # atno 17370 bound_to 10713
  155.9861  130.4895  150.7065 LP  0  0  0  0  0  0  0  0  0  0  0  0  # atno 17371 bound_to 10713
  140.7147  134.4424  157.5579 LP  0  0  0  0  0  0  0  0  0  0  0  0  # atno 17394 bound_to 11000
  139.8961  134.8667  156.2101 LP  0  0  0  0  0  0  0  0  0  0  0  0  # atno 17395 bound_to 11000

$$$$
