AV-unprocessed.smi:759|AV-procd|sdf|3621|dock6
  -GOLD-   22720 1 13D 1   1.00000     0.00000
 Structure written by MMmdl.
 24 25  0  0  0  0  0  0  0  0  2 V2000
  152.5186  138.4427  154.5630 C   0  0  0  0  0  0  0  0  0  0  0  0
  151.8134  137.3148  154.5043 N   0  0  0  0  0  0  0  0  0  0  0  0
  150.5474  137.7660  154.6239 N   0  0  0  0  0  0  0  0  0  0  0  0
  150.5614  139.0950  154.7471 C   0  0  0  0  0  0  0  0  0  0  0  0
  149.3059  139.8990  154.8961 C   0  0  2  0  0  0  0  0  0  0  0  0
  148.3287  139.6667  153.7278 C   0  0  0  0  0  0  0  0  0  0  0  0
  147.0606  140.5152  153.9093 C   0  0  0  0  0  0  0  0  0  0  0  0
  147.4141  141.9997  154.0991 C   0  0  0  0  0  0  0  0  0  0  0  0
  148.3474  142.1737  155.2334 N   0  3  0  0  0  0  0  0  0  0  0  0
  149.6005  141.4027  155.0755 C   0  0  0  0  0  0  0  0  0  0  0  0
  151.7942  139.5920  154.7139 N   0  0  0  0  0  0  0  0  0  0  0  0
  153.5967  138.4383  154.4956 H   0  0  0  0  0  0  0  0  0  0  0  0
  148.8113  139.5546  155.8063 H   0  0  0  0  0  0  0  0  0  0  0  0
  148.8075  139.9273  152.7826 H   0  0  0  0  0  0  0  0  0  0  0  0
  148.0629  138.6110  153.6616 H   0  0  0  0  0  0  0  0  0  0  0  0
  146.4051  140.3947  153.0463 H   0  0  0  0  0  0  0  0  0  0  0  0
  146.5012  140.1579  154.7749 H   0  0  0  0  0  0  0  0  0  0  0  0
  147.8698  142.4014  153.1928 H   0  0  0  0  0  0  0  0  0  0  0  0
  146.5123  142.5825  154.2878 H   0  0  0  0  0  0  0  0  0  0  0  0
  148.5751  143.1537  155.3234 H   0  0  0  0  0  0  0  0  0  0  0  0
  150.2256  141.5655  155.9539 H   0  0  0  0  0  0  0  0  0  0  0  0
  150.1500  141.7926  154.2171 H   0  0  0  0  0  0  0  0  0  0  0  0
  147.8861  141.8679  156.0782 H   0  0  0  0  0  0  0  0  0  0  0  0
  149.7426  137.1556  154.6150 H   0  0  0  0  0  0  0  0  0  0  0  0
  1 11  1  0  0  0  0
  1 12  1  0  0  0  0
  1  2  2  0  0  0  0
  2  3  1  0  0  0  0
  3  4  1  0  0  0  0
  3 24  1  0  0  0  0
  4 11  2  0  0  0  0
  4  5  1  0  0  0  0
  5 10  1  0  0  0  0
  5  6  1  0  0  0  0
  5 13  1  0  0  0  0
  6  7  1  0  0  0  0
  6 14  1  0  0  0  0
  6 15  1  0  0  0  0
  7  8  1  0  0  0  0
  7 16  1  0  0  0  0
  7 17  1  0  0  0  0
  8  9  1  0  0  0  0
  8 18  1  0  0  0  0
  8 19  1  0  0  0  0
  9 10  1  0  0  0  0
  9 20  1  0  0  0  0
  9 23  1  0  0  0  0
 10 21  1  0  0  0  0
 10 22  1  0  0  0  0
M  CHG  1   9   1
M  END
> <s_m_source_file>
AV-unprocessed.smi

> <i_m_source_file_index>
759

> <i_lp_mmshare_version>
43012

> <i_f3d_flags>
0

> <s_epik_input>
W25IXTFbY0hdbm5jMVtDQEBIXTJbQ0gyXVtDSDJdW0NIMl1bTkhdW0NIMl0y

> <s_epik_cmdline>
J2VwaWtfcHl0aG9uJywgJy1waCcsICc3LjAnLCAnLXRuJywgJzgnLCAnLW1hJywgJzIwMCcsICctbWV0YWxfYmluZGluZycsICctaW1hZScsICc8aW5maWxlLm1hZT4nLCAnLW9tYWUnLCAnPG91dGZpbGUubWFlPic=

> <r_epik_Ionization_Penalty>
0.00885924

> <r_epik_Ionization_Penalty_Charging>
0.000426856

> <r_epik_Ionization_Penalty_Neutral>
0.00843239

> <r_epik_State_Penalty>
0.640618

> <r_epik_Charging_Adjusted_Penalty>
0.641045

> <i_epik_Tot_Q>
1

> <i_epik_Tot_abs_Q>
1

> <r_epik_Metal_State_Penalty>
0.906339

> <b_epik_Metal_Only>
0

> <s_lp_Force_Field>
OPLS_2005

> <r_lp_Energy>
13.0828

> <b_lp_Chiralities_Consistent>
1

> <s_lp_Variant>
AV-unprocessed.smi:759-3

> <Gold.Version>
5.8.1

> <Gold.Id.Protein>
6NUR|6NUR_protein|mol2

> <Gold.PLP.Fitness>
34.4230

> <Gold.PLP.PLP>
-22.4473

> <Gold.PLP.part.hbond>
-3.0000

> <Gold.PLP.part.metal>
0.0000

> <Gold.PLP.part.buried>
-2.9447

> <Gold.PLP.part.nonpolar>
-17.5026

> <Gold.PLP.part.repulsive>
0.4232

> <Gold.PLP.ligand.clash>
0.0000

> <Gold.PLP.ligand.torsion>
0.0146

> <Gold.PLP.Chemscore.Hbond>
3.9920

> <Gold.PLP.Chemscore.CHOScore>
0.0000

> <Gold.PLP.Chemscore.Metal>
0.0000

> <Gold.Chemscore.Hbonds>
donor molecule, donor type, donor heavy atom, donor atom, acceptor molecule, acceptor atom, score
      L1  H     9    20       P1  8028  2.00
      P1  H  7989  7998       L1    11  1.00
      P1  H 10752 10763       L1     2  0.99

> <Gold.PLP.Chemscore.Internal.Correction>
0.0290

> <Gold.Rescore>
     Score         DG    S(hbond)    S(metal)    S(lipo)     H(rot)  DE(clash)    DE(int)     intcor
     15.19     -15.63       2.69        0.00      31.76       1.00       0.42       0.03       ----

> <Gold.Chemscore.Fitness>
15.1859

> <Gold.Chemscore.DG>
-15.6326

> <Gold.Chemscore.ZeroCoef>
-5.4800

> <Gold.Chemscore.Hbond>
2.6935

> <Gold.Chemscore.Metal>
0.0000

> <Gold.Chemscore.Lipo>
31.7625

> <Gold.Chemscore.Internal_Hbond>
0.0000

> <Gold.Chemscore.DEClash>
0.4177

> <Gold.Chemscore.DEInternal>
0.0291

> <Gold.Chemscore.Rot>
1.0000

> <Gold.Chemscore.Internal.Correction>
   9.000000E+99

> <Gold.Chemscore.Hbonds>
donor molecule, donor type, donor heavy atom, donor atom, acceptor molecule, acceptor atom, score
      L1  H     9    20       P1  8028  0.99
      P1  H  7989  7998       L1    11  0.38
      P1  H 10752 10763       L1     2  0.79

> <Gold.Chemscore.Hbond.Weighted>
-8.9964

> <Gold.Chemscore.Metal.Weighted>
-0.0000

> <Gold.Chemscore.Lipo.Weighted>
-3.7162

> <Gold.Chemscore.Internal_Hbond.Weighted>
0.0000

> <Gold.Chemscore.DEClash.Weighted>
0.4177

> <Gold.Chemscore.DEInternal.Weighted>
0.0291

> <Gold.Chemscore.Rot.Weighted>
2.5600

> <Gold.Chemscore.Internal.Correction.Weighted>
   9.000000E+99

> <Gold.Protein.RotatedTorsions>
[ 6907 6896 6895 6894 ] final -124.63 input  -60.11 | X-H torsion
[ 7974 7965 7964 7962 ] final   35.44 input  175.53 | X-H torsion
[ 8008 7997 7996 7995 ] final -162.44 input   59.86 | X-H torsion
[ 10167 10162 10161 10158 ] final  122.19 input  -65.29 | X-H torsion
[ 10718 10713 10712 10709 ] final -109.20 input   66.30 | X-H torsion
[ 10763 10752 10751 10750 ] final   47.44 input  -60.55 | X-H torsion
[ 11005 11000 10999 10996 ] final -128.61 input  -57.11 | X-H torsion

> <Gold.Protein.ActiveResidues>
 VAL166  LYS551  ARG553  GLY616  TRP617  ASP618  TYR619  PRO620  LYS621  CYS622 
 ASP623  PHE694  ASN695  SER759  ASP760  ASP761  ALA762  ILE779  LEU786  VAL792 
 PHE793  MET794  SER795  GLU796  ALA797  LYS798  CYS799  TRP800  GLU811  SER814 

> <Gold.Protein.RotatedAtoms>
  150.8787  133.7402  159.2938 H   0  0  0  0  0  0  0  0  0  0  0  0  # atno 6907 bound_to 6896
  151.4990  135.1059  159.9833 H   0  0  0  0  0  0  0  0  0  0  0  0  # atno 6908 bound_to 6896
  152.4745  133.8061  159.7034 H   0  0  0  0  0  0  0  0  0  0  0  0  # atno 6909 bound_to 6896
  146.1283  139.6143  142.9244 H   0  0  0  0  0  0  0  0  0  0  0  0  # atno 7974 bound_to 7965
  155.8068  140.0900  157.1926 H   0  0  0  0  0  0  0  0  0  0  0  0  # atno 8008 bound_to 7997
  154.3980  140.1462  156.3399 H   0  0  0  0  0  0  0  0  0  0  0  0  # atno 8009 bound_to 7997
  155.8406  140.3439  155.5632 H   0  0  0  0  0  0  0  0  0  0  0  0  # atno 8010 bound_to 7997
  139.5873  144.7011  151.3376 H   0  0  0  0  0  0  0  0  0  0  0  0  # atno 10167 bound_to 10162
  156.0524  130.5751  150.8066 H   0  0  0  0  0  0  0  0  0  0  0  0  # atno 10718 bound_to 10713
  152.9800  135.5976  154.3762 H   0  0  0  0  0  0  0  0  0  0  0  0  # atno 10763 bound_to 10752
  154.3431  135.2767  155.2414 H   0  0  0  0  0  0  0  0  0  0  0  0  # atno 10764 bound_to 10752
  154.4486  135.5995  153.6232 H   0  0  0  0  0  0  0  0  0  0  0  0  # atno 10765 bound_to 10752
  140.9502  134.1076  157.4069 H   0  0  0  0  0  0  0  0  0  0  0  0  # atno 11005 bound_to 11000
  145.5317  141.0426  143.2379 LP  0  0  0  0  0  0  0  0  0  0  0  0  # atno 17320 bound_to 7965
  144.7664  139.6834  143.7213 LP  0  0  0  0  0  0  0  0  0  0  0  0  # atno 17321 bound_to 7965
  140.7143  143.7308  150.7625 LP  0  0  0  0  0  0  0  0  0  0  0  0  # atno 17342 bound_to 10162
  140.0856  143.4927  152.2507 LP  0  0  0  0  0  0  0  0  0  0  0  0  # atno 17343 bound_to 10162
  157.5464  131.0942  150.9757 LP  0  0  0  0  0  0  0  0  0  0  0  0  # atno 17370 bound_to 10713
  157.0028  130.5606  149.5313 LP  0  0  0  0  0  0  0  0  0  0  0  0  # atno 17371 bound_to 10713
  139.8845  135.0063  156.6373 LP  0  0  0  0  0  0  0  0  0  0  0  0  # atno 17394 bound_to 11000
  140.7613  133.8815  155.8421 LP  0  0  0  0  0  0  0  0  0  0  0  0  # atno 17395 bound_to 11000

$$$$
