AV-unprocessed.smi:1995|AV-procd|sdf|8076|dock6
  -GOLD-   2272010283D 1   1.00000     0.00000
 Structure written by MMmdl.
 42 43  0  0  0  0  0  0  0  0  1 V2000
  144.7107  139.6465  155.8307 C   0  0  0  0  0  0  0  0  0  0  0  0
  146.2257  139.8774  155.9818 C   0  0  0  0  0  0  0  0  0  0  0  0
  147.1405  138.8940  155.1845 C   0  0  1  0  0  0  0  0  0  0  0  0
  146.8392  137.4740  155.7348 C   0  0  0  0  0  0  0  0  0  0  0  0
  146.7224  138.9448  153.6787 C   0  0  0  0  0  0  0  0  0  0  0  0
  146.8842  137.6730  152.9727 N   0  0  0  0  0  0  0  0  0  0  0  0
  145.8948  136.8368  152.6253 C   0  0  0  0  0  0  0  0  0  0  0  0
  144.7072  137.0483  152.8702 O   0  0  0  0  0  0  0  0  0  0  0  0
  146.3736  135.7611  151.9793 N   0  0  0  0  0  0  0  0  0  0  0  0
  145.6401  134.6757  151.4391 C   0  0  0  0  0  0  0  0  0  0  0  0
  144.3171  134.6425  151.6098 N   0  0  0  0  0  0  0  0  0  0  0  0
  143.7405  133.5113  151.0248 C   0  0  0  0  0  0  0  0  0  0  0  0
  144.6473  132.6869  150.4061 C   0  0  0  0  0  0  0  0  0  0  0  0
  146.2741  133.2996  150.5326 S   0  0  0  0  0  0  0  0  0  0  0  0
  148.5807  139.2293  155.3761 N   0  0  0  0  0  0  0  0  0  0  0  0
  148.9117  140.6559  155.2702 C   0  0  0  0  0  0  0  0  0  0  0  0
  150.3810  140.9343  155.6301 C   0  0  0  0  0  0  0  0  0  0  0  0
  151.2337  140.1611  154.7942 O   0  0  0  0  0  0  0  0  0  0  0  0
  150.9834  138.7651  154.9053 C   0  0  0  0  0  0  0  0  0  0  0  0
  149.5184  138.4694  154.5403 C   0  0  0  0  0  0  0  0  0  0  0  0
  144.1536  140.3666  156.4301 H   0  0  0  0  0  0  0  0  0  0  0  0
  144.4163  138.6515  156.1639 H   0  0  0  0  0  0  0  0  0  0  0  0
  144.3842  139.7647  154.7979 H   0  0  0  0  0  0  0  0  0  0  0  0
  146.4281  140.9048  155.6772 H   0  0  0  0  0  0  0  0  0  0  0  0
  146.4797  139.8548  157.0413 H   0  0  0  0  0  0  0  0  0  0  0  0
  145.7689  137.2910  155.8341 H   0  0  0  0  0  0  0  0  0  0  0  0
  147.2824  137.3199  156.7188 H   0  0  0  0  0  0  0  0  0  0  0  0
  147.2242  136.6923  155.0795 H   0  0  0  0  0  0  0  0  0  0  0  0
  145.6683  139.2043  153.5863 H   0  0  0  0  0  0  0  0  0  0  0  0
  147.2644  139.7279  153.1482 H   0  0  0  0  0  0  0  0  0  0  0  0
  147.8283  137.4140  152.7264 H   0  0  0  0  0  0  0  0  0  0  0  0
  147.3737  135.7171  151.8501 H   0  0  0  0  0  0  0  0  0  0  0  0
  142.6722  133.3705  151.0969 H   0  0  0  0  0  0  0  0  0  0  0  0
  144.4573  131.7600  149.8854 H   0  0  0  0  0  0  0  0  0  0  0  0
  148.7291  141.0123  154.2567 H   0  0  0  0  0  0  0  0  0  0  0  0
  148.2881  141.2533  155.9321 H   0  0  0  0  0  0  0  0  0  0  0  0
  150.6114  141.9907  155.4922 H   0  0  0  0  0  0  0  0  0  0  0  0
  150.5737  140.6989  156.6780 H   0  0  0  0  0  0  0  0  0  0  0  0
  151.6563  138.2287  154.2362 H   0  0  0  0  0  0  0  0  0  0  0  0
  151.2043  138.4272  155.9191 H   0  0  0  0  0  0  0  0  0  0  0  0
  149.3601  137.3979  154.6500 H   0  0  0  0  0  0  0  0  0  0  0  0
  149.3663  138.7062  153.4874 H   0  0  0  0  0  0  0  0  0  0  0  0
  1  2  1  0  0  0  0
  1 21  1  0  0  0  0
  1 22  1  0  0  0  0
  1 23  1  0  0  0  0
  2  3  1  0  0  0  0
  2 24  1  0  0  0  0
  2 25  1  0  0  0  0
  3  4  1  0  0  0  0
  3  5  1  0  0  0  0
  3 15  1  0  0  0  0
  4 26  1  0  0  0  0
  4 27  1  0  0  0  0
  4 28  1  0  0  0  0
  5  6  1  0  0  0  0
  5 29  1  0  0  0  0
  5 30  1  0  0  0  0
  6  7  1  0  0  0  0
  6 31  1  0  0  0  0
  7  8  2  0  0  0  0
  7  9  1  0  0  0  0
  9 10  1  0  0  0  0
  9 32  1  0  0  0  0
 10 14  1  0  0  0  0
 10 11  2  0  0  0  0
 11 12  1  0  0  0  0
 12 13  2  0  0  0  0
 12 33  1  0  0  0  0
 13 14  1  0  0  0  0
 13 34  1  0  0  0  0
 15 20  1  0  0  0  0
 15 16  1  0  0  0  0
 16 17  1  0  0  0  0
 16 35  1  0  0  0  0
 16 36  1  0  0  0  0
 17 18  1  0  0  0  0
 17 37  1  0  0  0  0
 17 38  1  0  0  0  0
 18 19  1  0  0  0  0
 19 20  1  0  0  0  0
 19 39  1  0  0  0  0
 19 40  1  0  0  0  0
 20 41  1  0  0  0  0
 20 42  1  0  0  0  0
M  END
> <s_m_source_file>
AV-unprocessed.smi

> <i_m_source_file_index>
1995

> <i_lp_mmshare_version>
43012

> <i_f3d_flags>
0

> <s_epik_input>
W0NIMl0xW0NIMl1PW0NIMl1bQ0gyXU4xW0NAQF0oW0NIM10pKFtDSDJdW0NIM10pW0NIMl1bTkhdQyg9TylbTkhdYzJuW2NIXVtjSF1zMg==

> <s_epik_cmdline>
J2VwaWtfcHl0aG9uJywgJy1waCcsICc3LjAnLCAnLXRuJywgJzgnLCAnLW1hJywgJzIwMCcsICctbWV0YWxfYmluZGluZycsICctaW1hZScsICc8aW5maWxlLm1hZT4nLCAnLW9tYWUnLCAnPG91dGZpbGUubWFlPic=

> <r_lp_tautomer_probability>
0.999

> <r_epik_Ionization_Penalty>
0.295852

> <r_epik_Ionization_Penalty_Charging>
0

> <r_epik_Ionization_Penalty_Neutral>
0.295852

> <r_epik_State_Penalty>
0.288723

> <r_epik_Charging_Adjusted_Penalty>
0.288723

> <i_epik_Tot_Q>
0

> <i_epik_Tot_abs_Q>
0

> <r_epik_Metal_State_Penalty>
0.29791

> <b_epik_Metal_Only>
0

> <s_lp_Force_Field>
OPLS_2005

> <r_lp_Energy>
39.4988

> <b_lp_Chiralities_Consistent>
1

> <s_lp_Variant>
AV-unprocessed.smi:1995-1

> <Gold.Version>
5.8.1

> <Gold.Id.Protein>
6NUR|6NUR_protein|mol2

> <Gold.PLP.Fitness>
36.7189

> <Gold.PLP.PLP>
-26.6761

> <Gold.PLP.part.hbond>
-2.9380

> <Gold.PLP.part.metal>
0.0000

> <Gold.PLP.part.buried>
-4.7221

> <Gold.PLP.part.nonpolar>
-19.8705

> <Gold.PLP.part.repulsive>
0.5530

> <Gold.PLP.ligand.clash>
0.0000

> <Gold.PLP.ligand.torsion>
0.9088

> <Gold.PLP.Chemscore.Hbond>
2.9440

> <Gold.PLP.Chemscore.CHOScore>
0.9764

> <Gold.PLP.Chemscore.Metal>
0.0000

> <Gold.Chemscore.Hbonds>
donor molecule, donor type, donor heavy atom, donor atom, acceptor molecule, acceptor atom, score
      L1  H     6    31       P1  7948  0.96
      L1  H     9    32       P1  7948  1.00
      P1  H  7989  7998       L1    18  0.99
      L1  C    12    33       P1 10186  0.90

> <Gold.PLP.Chemscore.Internal.Correction>
0.0991

> <Gold.Rescore>
     Score         DG    S(hbond)    S(metal)    S(lipo)     H(rot)  DE(clash)    DE(int)     intcor
     14.54     -17.36       2.87        0.00      57.70       1.74       0.01       2.81       ----

> <Gold.Chemscore.Fitness>
14.5383

> <Gold.Chemscore.DG>
-17.3576

> <Gold.Chemscore.ZeroCoef>
-5.4800

> <Gold.Chemscore.Hbond>
2.8692

> <Gold.Chemscore.Metal>
0.0000

> <Gold.Chemscore.Lipo>
57.7008

> <Gold.Chemscore.Internal_Hbond>
0.0000

> <Gold.Chemscore.DEClash>
0.0102

> <Gold.Chemscore.DEInternal>
2.8091

> <Gold.Chemscore.Rot>
1.7408

> <Gold.Chemscore.Internal.Correction>
   9.000000E+99

> <Gold.Chemscore.Hbonds>
donor molecule, donor type, donor heavy atom, donor atom, acceptor molecule, acceptor atom, score
      L1  H     6    31       P1  7948  0.92
      L1  H     9    32       P1  7948  0.99
      P1  H  7989  7998       L1    18  0.81

> <Gold.Chemscore.Hbond.Weighted>
-9.5832

> <Gold.Chemscore.Metal.Weighted>
-0.0000

> <Gold.Chemscore.Lipo.Weighted>
-6.7510

> <Gold.Chemscore.Internal_Hbond.Weighted>
0.0000

> <Gold.Chemscore.DEClash.Weighted>
0.0102

> <Gold.Chemscore.DEInternal.Weighted>
2.8091

> <Gold.Chemscore.Rot.Weighted>
4.4565

> <Gold.Chemscore.Internal.Correction.Weighted>
   9.000000E+99

> <Gold.Protein.RotatedTorsions>
[ 6907 6896 6895 6894 ] final   10.16 input  -60.11 | X-H torsion
[ 7974 7965 7964 7962 ] final -113.80 input  175.53 | X-H torsion
[ 8008 7997 7996 7995 ] final -162.87 input   59.86 | X-H torsion
[ 10167 10162 10161 10158 ] final   72.90 input  -65.29 | X-H torsion
[ 10718 10713 10712 10709 ] final -171.16 input   66.30 | X-H torsion
[ 10763 10752 10751 10750 ] final -140.95 input  -60.55 | X-H torsion
[ 11005 11000 10999 10996 ] final  124.53 input  -57.11 | X-H torsion

> <Gold.Protein.ActiveResidues>
 VAL166  LYS551  ARG553  GLY616  TRP617  ASP618  TYR619  PRO620  LYS621  CYS622 
 ASP623  PHE694  ASN695  SER759  ASP760  ASP761  ALA762  ILE779  LEU786  VAL792 
 PHE793  MET794  SER795  GLU796  ALA797  LYS798  CYS799  TRP800  GLU811  SER814 

> <Gold.Protein.RotatedAtoms>
  151.7338  135.0869  160.0304 H   0  0  0  0  0  0  0  0  0  0  0  0  # atno 6907 bound_to 6896
  152.3524  133.6191  159.5963 H   0  0  0  0  0  0  0  0  0  0  0  0  # atno 6908 bound_to 6896
  150.7549  133.9469  159.3515 H   0  0  0  0  0  0  0  0  0  0  0  0  # atno 6909 bound_to 6896
  145.1277  140.8706  143.3776 H   0  0  0  0  0  0  0  0  0  0  0  0  # atno 7974 bound_to 7965
  155.8130  140.0908  157.1893 H   0  0  0  0  0  0  0  0  0  0  0  0  # atno 8008 bound_to 7997
  154.3979  140.1451  156.3469 H   0  0  0  0  0  0  0  0  0  0  0  0  # atno 8009 bound_to 7997
  155.8345  140.3441  155.5595 H   0  0  0  0  0  0  0  0  0  0  0  0  # atno 8010 bound_to 7997
  140.0303  144.5471  150.7512 H   0  0  0  0  0  0  0  0  0  0  0  0  # atno 10167 bound_to 10162
  156.7368  130.9327  151.3108 H   0  0  0  0  0  0  0  0  0  0  0  0  # atno 10718 bound_to 10713
  154.8561  135.3538  154.5790 H   0  0  0  0  0  0  0  0  0  0  0  0  # atno 10763 bound_to 10752
  153.6401  135.6998  153.5249 H   0  0  0  0  0  0  0  0  0  0  0  0  # atno 10764 bound_to 10752
  153.2978  135.4215  155.1184 H   0  0  0  0  0  0  0  0  0  0  0  0  # atno 10765 bound_to 10752
  139.9363  134.9639  156.8423 H   0  0  0  0  0  0  0  0  0  0  0  0  # atno 11005 bound_to 11000
  145.0670  139.3061  143.5851 LP  0  0  0  0  0  0  0  0  0  0  0  0  # atno 17320 bound_to 7965
  146.3516  140.0131  142.8665 LP  0  0  0  0  0  0  0  0  0  0  0  0  # atno 17321 bound_to 7965
  140.7305  143.2684  151.3969 LP  0  0  0  0  0  0  0  0  0  0  0  0  # atno 17342 bound_to 10162
  139.6081  144.1156  152.2270 LP  0  0  0  0  0  0  0  0  0  0  0  0  # atno 17343 bound_to 10162
  157.6835  130.9163  150.0327 LP  0  0  0  0  0  0  0  0  0  0  0  0  # atno 17370 bound_to 10713
  156.1491  130.3642  149.9465 LP  0  0  0  0  0  0  0  0  0  0  0  0  # atno 17371 bound_to 10713
  140.6068  134.0120  155.7560 LP  0  0  0  0  0  0  0  0  0  0  0  0  # atno 17394 bound_to 11000
  141.0978  133.9816  157.3131 LP  0  0  0  0  0  0  0  0  0  0  0  0  # atno 17395 bound_to 11000

$$$$
