AV-unprocessed.smi:598|AV-procd|sdf|3026|dock10
  -GOLD-   2262023533D 1   1.00000     0.00000
 Structure written by MMmdl.
 43 44  0  0  0  0  0  0  0  0  3 V2000
  151.6224  145.6583  160.3537 C   0  0  0  0  0  0  0  0  0  0  0  0
  152.4011  144.3410  160.1831 C   0  0  1  0  0  0  0  0  0  0  0  0
  152.6697  143.7201  161.5686 C   0  0  0  0  0  0  0  0  0  0  0  0
  153.4732  142.4198  161.4647 C   0  0  0  0  0  0  0  0  0  0  0  0
  152.7475  141.4084  160.5733 C   0  0  0  0  0  0  0  0  0  0  0  0
  152.4751  141.9888  159.1720 C   0  0  1  0  0  0  0  0  0  0  0  0
  151.7437  141.0030  158.3778 N   0  0  0  0  0  0  0  0  0  0  0  0
  152.2544  139.8629  157.8883 C   0  0  0  0  0  0  0  0  0  0  0  0
  153.4196  139.5096  158.0756 O   0  0  0  0  0  0  0  0  0  0  0  0
  151.2849  138.9865  157.0828 C   0  0  0  0  0  0  0  0  0  0  0  0
  150.1695  139.7446  156.4914 N   0  0  0  0  0  0  0  0  0  0  0  0
  149.0903  140.0613  157.3399 C   0  0  0  0  0  0  0  0  0  0  0  0
  148.0134  140.7440  156.9042 C   0  0  0  0  0  0  0  0  0  0  0  0
  146.9104  141.0531  157.7873 N   0  3  0  0  0  0  0  0  0  0  0  0
  145.9102  141.5850  157.3161 O   0  0  0  0  0  0  0  0  0  0  0  0
  147.0059  140.7752  158.9790 O   0  5  0  0  0  0  0  0  0  0  0  0
  147.9933  141.1550  155.5136 C   0  0  0  0  0  0  0  0  0  0  0  0
  149.0201  140.8508  154.6958 C   0  0  0  0  0  0  0  0  0  0  0  0
  150.1884  140.1021  155.1707 C   0  0  0  0  0  0  0  0  0  0  0  0
  151.1262  139.8142  154.4267 O   0  0  0  0  0  0  0  0  0  0  0  0
  151.6899  143.3271  159.2417 C   0  0  2  0  0  0  0  0  0  0  0  0
  151.4646  143.9110  157.8294 C   0  0  0  0  0  0  0  0  0  0  0  0
  150.6075  145.4764  160.7083 H   0  0  0  0  0  0  0  0  0  0  0  0
  151.5591  146.2185  159.4214 H   0  0  0  0  0  0  0  0  0  0  0  0
  152.1123  146.3107  161.0770 H   0  0  0  0  0  0  0  0  0  0  0  0
  153.3681  144.5882  159.7426 H   0  0  0  0  0  0  0  0  0  0  0  0
  153.2132  144.4276  162.1959 H   0  0  0  0  0  0  0  0  0  0  0  0
  151.7244  143.5233  162.0759 H   0  0  0  0  0  0  0  0  0  0  0  0
  154.4639  142.6273  161.0585 H   0  0  0  0  0  0  0  0  0  0  0  0
  153.6264  141.9975  162.4581 H   0  0  0  0  0  0  0  0  0  0  0  0
  153.3460  140.4998  160.4955 H   0  0  0  0  0  0  0  0  0  0  0  0
  151.8071  141.1187  161.0445 H   0  0  0  0  0  0  0  0  0  0  0  0
  153.4346  142.1913  158.6915 H   0  0  0  0  0  0  0  0  0  0  0  0
  150.7756  141.2103  158.1793 H   0  0  0  0  0  0  0  0  0  0  0  0
  151.8548  138.4772  156.3043 H   0  0  0  0  0  0  0  0  0  0  0  0
  150.9025  138.1888  157.7224 H   0  0  0  0  0  0  0  0  0  0  0  0
  149.1982  139.7042  158.3540 H   0  0  0  0  0  0  0  0  0  0  0  0
  147.1544  141.7084  155.1177 H   0  0  0  0  0  0  0  0  0  0  0  0
  148.9832  141.1656  153.6630 H   0  0  0  0  0  0  0  0  0  0  0  0
  150.7079  143.1134  159.6674 H   0  0  0  0  0  0  0  0  0  0  0  0
  152.4090  144.1984  157.3665 H   0  0  0  0  0  0  0  0  0  0  0  0
  150.8214  144.7897  157.8518 H   0  0  0  0  0  0  0  0  0  0  0  0
  150.9774  143.1969  157.1656 H   0  0  0  0  0  0  0  0  0  0  0  0
  1  2  1  0  0  0  0
  1 23  1  0  0  0  0
  1 24  1  0  0  0  0
  1 25  1  0  0  0  0
  2 21  1  0  0  0  0
  2  3  1  0  0  0  0
  2 26  1  0  0  0  0
  3  4  1  0  0  0  0
  3 27  1  0  0  0  0
  3 28  1  0  0  0  0
  4  5  1  0  0  0  0
  4 29  1  0  0  0  0
  4 30  1  0  0  0  0
  5  6  1  0  0  0  0
  5 31  1  0  0  0  0
  5 32  1  0  0  0  0
  6  7  1  0  0  0  0
  6 21  1  0  0  0  0
  6 33  1  0  0  0  0
  7  8  1  0  0  0  0
  7 34  1  0  0  0  0
  8  9  2  0  0  0  0
  8 10  1  0  0  0  0
 10 11  1  0  0  0  0
 10 35  1  0  0  0  0
 10 36  1  0  0  0  0
 11 19  1  0  0  0  0
 11 12  1  0  0  0  0
 12 13  2  0  0  0  0
 12 37  1  0  0  0  0
 13 14  1  0  0  0  0
 13 17  1  0  0  0  0
 14 15  2  0  0  0  0
 14 16  1  0  0  0  0
 17 18  2  0  0  0  0
 17 38  1  0  0  0  0
 18 19  1  0  0  0  0
 18 39  1  0  0  0  0
 19 20  2  0  0  0  0
 21 22  1  0  0  0  0
 21 40  1  0  0  0  0
 22 41  1  0  0  0  0
 22 42  1  0  0  0  0
 22 43  1  0  0  0  0
M  CHG  1  14   1
M  CHG  1  16  -1
M  END
> <s_m_source_file>
AV-unprocessed.smi

> <i_m_source_file_index>
598

> <i_lp_mmshare_version>
43012

> <i_f3d_flags>
0

> <s_epik_input>
W0NIM11bQ0BASF0xW0NIMl1bQ0gyXVtDSDJdW0NASF0oW0NASF0xW0NIM10pW05IXUMoPU8pW0NIMl1uMltjSF1jKFtOK10oPU8pW08tXSlbY0hdW2NIXWMyPU8=

> <s_epik_cmdline>
J2VwaWtfcHl0aG9uJywgJy1waCcsICc3LjAnLCAnLXRuJywgJzgnLCAnLW1hJywgJzIwMCcsICctbWV0YWxfYmluZGluZycsICctaW1hZScsICc8aW5maWxlLm1hZT4nLCAnLW9tYWUnLCAnPG91dGZpbGUubWFlPic=

> <r_lp_tautomer_probability>
1

> <r_epik_Ionization_Penalty>
1.91291e-08

> <r_epik_Ionization_Penalty_Charging>
8.21931e-11

> <r_epik_Ionization_Penalty_Neutral>
1.90469e-08

> <r_epik_State_Penalty>
-0

> <r_epik_Charging_Adjusted_Penalty>
8.21931e-11

> <i_epik_Tot_Q>
0

> <i_epik_Tot_abs_Q>
2

> <r_epik_Metal_State_Penalty>
-0

> <b_epik_Metal_Only>
0

> <s_lp_Force_Field>
OPLS_2005

> <r_lp_Energy>
23.592

> <b_lp_Chiralities_Consistent>
1

> <s_lp_Variant>
AV-unprocessed.smi:598-6

> <Gold.Version>
5.8.1

> <Gold.Id.Protein>
6NUR|6NUR_protein|mol2

> <Gold.PLP.Fitness>
47.4640

> <Gold.PLP.PLP>
-41.8181

> <Gold.PLP.part.hbond>
-3.0000

> <Gold.PLP.part.metal>
0.0000

> <Gold.PLP.part.buried>
-5.6364

> <Gold.PLP.part.nonpolar>
-33.6026

> <Gold.PLP.part.repulsive>
0.3076

> <Gold.PLP.ligand.clash>
0.0000

> <Gold.PLP.ligand.torsion>
0.7807

> <Gold.PLP.Chemscore.Hbond>
2.3996

> <Gold.PLP.Chemscore.CHOScore>
0.0000

> <Gold.PLP.Chemscore.Metal>
0.0000

> <Gold.Chemscore.Hbonds>
donor molecule, donor type, donor heavy atom, donor atom, acceptor molecule, acceptor atom, score
      P1  H  6934  6946       L1    16  0.13
      P1  H  7989  7998       L1    20  0.91
      P1  H  7997  8008       L1     9  1.00

> <Gold.PLP.Chemscore.Internal.Correction>
0.0086

> <Gold.Rescore>
     Score         DG    S(hbond)    S(metal)    S(lipo)     H(rot)  DE(clash)    DE(int)     intcor
     20.74     -22.37       2.41        0.00     109.34       1.54       0.04       1.59       ----

> <Gold.Chemscore.Fitness>
20.7372

> <Gold.Chemscore.DG>
-22.3674

> <Gold.Chemscore.ZeroCoef>
-5.4800

> <Gold.Chemscore.Hbond>
2.4058

> <Gold.Chemscore.Metal>
0.0000

> <Gold.Chemscore.Lipo>
109.3400

> <Gold.Chemscore.Internal_Hbond>
0.0000

> <Gold.Chemscore.DEClash>
0.0379

> <Gold.Chemscore.DEInternal>
1.5924

> <Gold.Chemscore.Rot>
1.5393

> <Gold.Chemscore.Internal.Correction>
   9.000000E+99

> <Gold.Chemscore.Hbonds>
donor molecule, donor type, donor heavy atom, donor atom, acceptor molecule, acceptor atom, score
      P1  H  6934  6946       L1    16  0.15
      P1  H  7989  7998       L1    20  0.84
      P1  H  7997  8008       L1     9  0.99

> <Gold.Chemscore.Hbond.Weighted>
-8.0353

> <Gold.Chemscore.Metal.Weighted>
-0.0000

> <Gold.Chemscore.Lipo.Weighted>
-12.7928

> <Gold.Chemscore.Internal_Hbond.Weighted>
0.0000

> <Gold.Chemscore.DEClash.Weighted>
0.0379

> <Gold.Chemscore.DEInternal.Weighted>
1.5924

> <Gold.Chemscore.Rot.Weighted>
3.9407

> <Gold.Chemscore.Internal.Correction.Weighted>
   9.000000E+99

> <Gold.Protein.RotatedTorsions>
[ 6907 6896 6895 6894 ] final  153.67 input  -60.11 | X-H torsion
[ 7974 7965 7964 7962 ] final  161.08 input  175.53 | X-H torsion
[ 8008 7997 7996 7995 ] final  -91.63 input   59.86 | X-H torsion
[ 10167 10162 10161 10158 ] final  -58.66 input  -65.29 | X-H torsion
[ 10718 10713 10712 10709 ] final   70.04 input   66.30 | X-H torsion
[ 10763 10752 10751 10750 ] final   41.39 input  -60.55 | X-H torsion
[ 11005 11000 10999 10996 ] final   91.21 input  -57.11 | X-H torsion

> <Gold.Protein.ActiveResidues>
 VAL166  LYS551  ARG553  GLY616  TRP617  ASP618  TYR619  PRO620  LYS621  CYS622 
 ASP623  PHE694  ASN695  SER759  ASP760  ASP761  ALA762  ILE779  LEU786  VAL792 
 PHE793  MET794  SER795  GLU796  ALA797  LYS798  CYS799  TRP800  GLU811  SER814 

> <Gold.Protein.RotatedAtoms>
  152.0694  133.4099  159.4452 H   0  0  0  0  0  0  0  0  0  0  0  0  # atno 6907 bound_to 6896
  150.6864  134.3108  159.4755 H   0  0  0  0  0  0  0  0  0  0  0  0  # atno 6908 bound_to 6896
  152.0938  134.9388  160.0622 H   0  0  0  0  0  0  0  0  0  0  0  0  # atno 6909 bound_to 6896
  144.7704  139.7847  143.6299 H   0  0  0  0  0  0  0  0  0  0  0  0  # atno 7974 bound_to 7965
  154.7131  140.0517  157.0569 H   0  0  0  0  0  0  0  0  0  0  0  0  # atno 8008 bound_to 7997
  155.0528  140.3181  155.4667 H   0  0  0  0  0  0  0  0  0  0  0  0  # atno 8009 bound_to 7997
  156.2795  140.2113  156.5654 H   0  0  0  0  0  0  0  0  0  0  0  0  # atno 8010 bound_to 7997
  140.6183  143.2410  151.5543 H   0  0  0  0  0  0  0  0  0  0  0  0  # atno 10167 bound_to 10162
  157.6379  130.9457  150.0597 H   0  0  0  0  0  0  0  0  0  0  0  0  # atno 10718 bound_to 10713
  152.9909  135.6163  154.2780 H   0  0  0  0  0  0  0  0  0  0  0  0  # atno 10763 bound_to 10752
  154.2510  135.2785  155.2818 H   0  0  0  0  0  0  0  0  0  0  0  0  # atno 10764 bound_to 10752
  154.5288  135.5794  153.6799 H   0  0  0  0  0  0  0  0  0  0  0  0  # atno 10765 bound_to 10752
  139.8842  134.8660  156.3396 H   0  0  0  0  0  0  0  0  0  0  0  0  # atno 11005 bound_to 11000
  146.1846  139.5054  142.9845 LP  0  0  0  0  0  0  0  0  0  0  0  0  # atno 17320 bound_to 7965
  145.6342  141.0298  143.1847 LP  0  0  0  0  0  0  0  0  0  0  0  0  # atno 17321 bound_to 7965
  139.5417  144.2629  152.1364 LP  0  0  0  0  0  0  0  0  0  0  0  0  # atno 17342 bound_to 10162
  140.1844  144.4813  150.6511 LP  0  0  0  0  0  0  0  0  0  0  0  0  # atno 17343 bound_to 10162
  156.1633  130.3644  149.9268 LP  0  0  0  0  0  0  0  0  0  0  0  0  # atno 17370 bound_to 10713
  156.7261  130.9025  151.3622 LP  0  0  0  0  0  0  0  0  0  0  0  0  # atno 17371 bound_to 10713
  140.9668  133.7353  156.0478 LP  0  0  0  0  0  0  0  0  0  0  0  0  # atno 17394 bound_to 11000
  140.7921  134.3605  157.5462 LP  0  0  0  0  0  0  0  0  0  0  0  0  # atno 17395 bound_to 11000

$$$$
