AV-unprocessed.smi:3044|AV-procd|sdf|11605|dock3
  -GOLD-   2272016583D 1   1.00000     0.00000
 Structure written by MMmdl.
 41 42  0  0  0  0  0  0  0  0  1 V2000
  151.8638  144.6787  158.0547 C   0  0  0  0  0  0  0  0  0  0  0  0
  152.2685  143.3656  158.7034 C   0  0  0  0  0  0  0  0  0  0  0  0
  153.0916  143.4744  159.7702 N   0  0  0  0  0  0  0  0  0  0  0  0
  153.4840  142.3427  160.3915 C   0  0  0  0  0  0  0  0  0  0  0  0
  153.0721  141.0586  159.9880 C   0  0  0  0  0  0  0  0  0  0  0  0
  152.2157  140.9467  158.8767 C   0  0  0  0  0  0  0  0  0  0  0  0
  151.8075  142.1231  158.2026 C   0  0  0  0  0  0  0  0  0  0  0  0
  150.9304  142.1183  157.0837 N   0  0  0  0  0  0  0  0  0  0  0  0
  150.8067  141.1992  156.1078 C   0  0  0  0  0  0  0  0  0  0  0  0
  151.4439  140.1485  156.0513 O   0  0  0  0  0  0  0  0  0  0  0  0
  149.7957  141.5195  155.0045 C   0  0  0  0  0  0  0  0  0  0  0  0
  148.4927  141.6007  155.5687 O   0  0  0  0  0  0  0  0  0  0  0  0
  147.4951  142.1358  154.7094 C   0  0  2  0  0  0  0  0  0  0  0  0
  146.1325  142.2251  155.4269 C   0  0  0  0  0  0  0  0  0  0  0  0
  145.5937  140.8333  155.7953 C   0  0  0  0  0  0  0  0  0  0  0  0
  145.5074  139.9227  154.5603 C   0  0  0  0  0  0  0  0  0  0  0  0
  146.8661  139.8112  153.8430 C   0  0  1  0  0  0  0  0  0  0  0  0
  146.7759  138.9082  152.6048 C   0  0  0  0  0  0  0  0  0  0  0  0
  147.4024  141.2120  153.4811 C   0  0  0  0  0  0  0  0  0  0  0  0
  152.1717  144.6969  157.0087 H   0  0  0  0  0  0  0  0  0  0  0  0
  152.3232  145.5322  158.5550 H   0  0  0  0  0  0  0  0  0  0  0  0
  150.7818  144.8058  158.0970 H   0  0  0  0  0  0  0  0  0  0  0  0
  154.1403  142.4644  161.2402 H   0  0  0  0  0  0  0  0  0  0  0  0
  153.4016  140.1801  160.5224 H   0  0  0  0  0  0  0  0  0  0  0  0
  151.8781  139.9679  158.5736 H   0  0  0  0  0  0  0  0  0  0  0  0
  150.3942  142.9638  156.9510 H   0  0  0  0  0  0  0  0  0  0  0  0
  150.0753  142.4588  154.5269 H   0  0  0  0  0  0  0  0  0  0  0  0
  149.8347  140.7335  154.2491 H   0  0  0  0  0  0  0  0  0  0  0  0
  147.8003  143.1273  154.3699 H   0  0  0  0  0  0  0  0  0  0  0  0
  146.1993  142.8474  156.3187 H   0  0  0  0  0  0  0  0  0  0  0  0
  145.4169  142.7214  154.7701 H   0  0  0  0  0  0  0  0  0  0  0  0
  146.2415  140.3752  156.5439 H   0  0  0  0  0  0  0  0  0  0  0  0
  144.6098  140.9275  156.2556 H   0  0  0  0  0  0  0  0  0  0  0  0
  145.1612  138.9331  154.8603 H   0  0  0  0  0  0  0  0  0  0  0  0
  144.7580  140.3158  153.8717 H   0  0  0  0  0  0  0  0  0  0  0  0
  147.5718  139.3452  154.5325 H   0  0  0  0  0  0  0  0  0  0  0  0
  146.0852  139.3160  151.8662 H   0  0  0  0  0  0  0  0  0  0  0  0
  146.4278  137.9099  152.8715 H   0  0  0  0  0  0  0  0  0  0  0  0
  147.7496  138.8004  152.1264 H   0  0  0  0  0  0  0  0  0  0  0  0
  146.7483  141.6701  152.7380 H   0  0  0  0  0  0  0  0  0  0  0  0
  148.3837  141.1273  153.0127 H   0  0  0  0  0  0  0  0  0  0  0  0
  1  2  1  0  0  0  0
  1 20  1  0  0  0  0
  1 21  1  0  0  0  0
  1 22  1  0  0  0  0
  2  7  1  0  0  0  0
  2  3  2  0  0  0  0
  3  4  1  0  0  0  0
  4  5  2  0  0  0  0
  4 23  1  0  0  0  0
  5  6  1  0  0  0  0
  5 24  1  0  0  0  0
  6  7  2  0  0  0  0
  6 25  1  0  0  0  0
  7  8  1  0  0  0  0
  8  9  1  0  0  0  0
  8 26  1  0  0  0  0
  9 10  2  0  0  0  0
  9 11  1  0  0  0  0
 11 12  1  0  0  0  0
 11 27  1  0  0  0  0
 11 28  1  0  0  0  0
 12 13  1  0  0  0  0
 13 19  1  0  0  0  0
 13 14  1  0  0  0  0
 13 29  1  0  0  0  0
 14 15  1  0  0  0  0
 14 30  1  0  0  0  0
 14 31  1  0  0  0  0
 15 16  1  0  0  0  0
 15 32  1  0  0  0  0
 15 33  1  0  0  0  0
 16 17  1  0  0  0  0
 16 34  1  0  0  0  0
 16 35  1  0  0  0  0
 17 18  1  0  0  0  0
 17 19  1  0  0  0  0
 17 36  1  0  0  0  0
 18 37  1  0  0  0  0
 18 38  1  0  0  0  0
 18 39  1  0  0  0  0
 19 40  1  0  0  0  0
 19 41  1  0  0  0  0
M  END
> <s_m_source_file>
AV-unprocessed.smi

> <i_m_source_file_index>
3044

> <i_lp_mmshare_version>
43012

> <i_f3d_flags>
0

> <s_epik_input>
W0NIM11jMW5bY0hdW2NIXVtjSF1jMVtOSF1DKD1PKVtDSDJdT1tDQEBIXTJbQ0gyXVtDSDJdW0NIMl1bQ0BASF0oW0NIM10pW0NIMl0y

> <s_epik_cmdline>
J2VwaWtfcHl0aG9uJywgJy1waCcsICc3LjAnLCAnLXRuJywgJzgnLCAnLW1hJywgJzIwMCcsICctbWV0YWxfYmluZGluZycsICctaW1hZScsICc8aW5maWxlLm1hZT4nLCAnLW9tYWUnLCAnPG91dGZpbGUubWFlPic=

> <r_epik_Ionization_Penalty>
0.0077122

> <r_epik_Ionization_Penalty_Charging>
0

> <r_epik_Ionization_Penalty_Neutral>
0.0077122

> <r_epik_State_Penalty>
0.00577497

> <r_epik_Charging_Adjusted_Penalty>
0.00577497

> <i_epik_Tot_Q>
0

> <i_epik_Tot_abs_Q>
0

> <r_epik_Metal_State_Penalty>
-0

> <b_epik_Metal_Only>
0

> <s_lp_Force_Field>
OPLS_2005

> <r_lp_Energy>
17.2241

> <b_lp_Chiralities_Consistent>
1

> <s_lp_Variant>
AV-unprocessed.smi:3044-1

> <Gold.Version>
5.8.1

> <Gold.Id.Protein>
6NUR|6NUR_protein|mol2

> <Gold.PLP.Fitness>
36.3050

> <Gold.PLP.PLP>
-36.8025

> <Gold.PLP.part.hbond>
0.0000

> <Gold.PLP.part.metal>
0.0000

> <Gold.PLP.part.buried>
-2.8995

> <Gold.PLP.part.nonpolar>
-33.3143

> <Gold.PLP.part.repulsive>
0.1573

> <Gold.PLP.ligand.clash>
0.0000

> <Gold.PLP.ligand.torsion>
0.2552

> <Gold.PLP.Chemscore.Hbond>
0.0000

> <Gold.PLP.Chemscore.CHOScore>
0.0000

> <Gold.PLP.Chemscore.Metal>
0.0000

> <Gold.PLP.Chemscore.Internal.Correction>
0.0129

> <Gold.Rescore>
     Score         DG    S(hbond)    S(metal)    S(lipo)     H(rot)  DE(clash)    DE(int)     intcor
     12.91     -14.15       0.00        0.00     102.67       1.31       0.07       1.16       ----

> <Gold.Chemscore.Fitness>
12.9146

> <Gold.Chemscore.DG>
-14.1483

> <Gold.Chemscore.ZeroCoef>
-5.4800

> <Gold.Chemscore.Hbond>
0.0000

> <Gold.Chemscore.Metal>
0.0000

> <Gold.Chemscore.Lipo>
102.6720

> <Gold.Chemscore.Internal_Hbond>
0.0000

> <Gold.Chemscore.DEClash>
0.0708

> <Gold.Chemscore.DEInternal>
1.1630

> <Gold.Chemscore.Rot>
1.3064

> <Gold.Chemscore.Internal.Correction>
   9.000000E+99

> <Gold.Chemscore.Hbond.Weighted>
-0.0000

> <Gold.Chemscore.Metal.Weighted>
-0.0000

> <Gold.Chemscore.Lipo.Weighted>
-12.0126

> <Gold.Chemscore.Internal_Hbond.Weighted>
0.0000

> <Gold.Chemscore.DEClash.Weighted>
0.0708

> <Gold.Chemscore.DEInternal.Weighted>
1.1630

> <Gold.Chemscore.Rot.Weighted>
3.3443

> <Gold.Chemscore.Internal.Correction.Weighted>
   9.000000E+99

> <Gold.Protein.RotatedTorsions>
[ 6907 6896 6895 6894 ] final  -51.51 input  -60.11 | X-H torsion
[ 7974 7965 7964 7962 ] final -130.35 input  175.53 | X-H torsion
[ 8008 7997 7996 7995 ] final -121.70 input   59.86 | X-H torsion
[ 10167 10162 10161 10158 ] final -156.60 input  -65.29 | X-H torsion
[ 10718 10713 10712 10709 ] final  162.57 input   66.30 | X-H torsion
[ 10763 10752 10751 10750 ] final  167.61 input  -60.55 | X-H torsion
[ 11005 11000 10999 10996 ] final  173.58 input  -57.11 | X-H torsion

> <Gold.Protein.ActiveResidues>
 VAL166  LYS551  ARG553  GLY616  TRP617  ASP618  TYR619  PRO620  LYS621  CYS622 
 ASP623  PHE694  ASN695  SER759  ASP760  ASP761  ALA762  ILE779  LEU786  VAL792 
 PHE793  MET794  SER795  GLU796  ALA797  LYS798  CYS799  TRP800  GLU811  SER814 

> <Gold.Protein.RotatedAtoms>
  150.8605  134.7955  159.7078 H   0  0  0  0  0  0  0  0  0  0  0  0  # atno 6907 bound_to 6896
  152.4643  134.5108  159.9763 H   0  0  0  0  0  0  0  0  0  0  0  0  # atno 6908 bound_to 6896
  151.5213  133.3428  159.2937 H   0  0  0  0  0  0  0  0  0  0  0  0  # atno 6909 bound_to 6896
  144.9484  140.7317  143.4803 H   0  0  0  0  0  0  0  0  0  0  0  0  # atno 7974 bound_to 7965
  155.1523  140.0404  157.2824 H   0  0  0  0  0  0  0  0  0  0  0  0  # atno 8008 bound_to 7997
  154.6395  140.2543  155.7311 H   0  0  0  0  0  0  0  0  0  0  0  0  # atno 8009 bound_to 7997
  156.2525  140.2858  156.0783 H   0  0  0  0  0  0  0  0  0  0  0  0  # atno 8010 bound_to 7997
  139.6837  143.9537  152.2350 H   0  0  0  0  0  0  0  0  0  0  0  0  # atno 10167 bound_to 10162
  157.1207  131.0492  151.2416 H   0  0  0  0  0  0  0  0  0  0  0  0  # atno 10718 bound_to 10713
  154.3563  135.2753  155.2344 H   0  0  0  0  0  0  0  0  0  0  0  0  # atno 10763 bound_to 10752
  154.4551  135.5921  153.6221 H   0  0  0  0  0  0  0  0  0  0  0  0  # atno 10764 bound_to 10752
  152.9846  135.6051  154.3779 H   0  0  0  0  0  0  0  0  0  0  0  0  # atno 10765 bound_to 10752
  140.3420  134.7268  157.4209 H   0  0  0  0  0  0  0  0  0  0  0  0  # atno 11005 bound_to 11000
  145.2882  139.1893  143.4754 LP  0  0  0  0  0  0  0  0  0  0  0  0  # atno 17320 bound_to 7965
  146.3312  140.2855  142.8612 LP  0  0  0  0  0  0  0  0  0  0  0  0  # atno 17321 bound_to 7965
  139.9334  144.6727  150.8340 LP  0  0  0  0  0  0  0  0  0  0  0  0  # atno 17342 bound_to 10162
  140.7661  143.3293  151.2445 LP  0  0  0  0  0  0  0  0  0  0  0  0  # atno 17343 bound_to 10162
  157.4479  130.7581  149.7125 LP  0  0  0  0  0  0  0  0  0  0  0  0  # atno 17370 bound_to 10713
  155.9829  130.4005  150.3391 LP  0  0  0  0  0  0  0  0  0  0  0  0  # atno 17371 bound_to 10713
  140.0773  134.5779  155.8577 LP  0  0  0  0  0  0  0  0  0  0  0  0  # atno 17394 bound_to 11000
  141.2036  133.6633  156.6071 LP  0  0  0  0  0  0  0  0  0  0  0  0  # atno 17395 bound_to 11000

$$$$
