AV-unprocessed.smi:1211|AV-procd|sdf|5078|dock3
  -GOLD-   22720 4123D 1   1.00000     0.00000
 Structure written by MMmdl.
 47 49  0  0  0  0  0  0  0  0  1 V2000
  148.8524  139.2062  154.3771 C   0  0  0  0  0  0  0  0  0  0  0  0
  150.2265  138.7454  154.8359 C   0  0  0  0  0  0  0  0  0  0  0  0
  151.1666  139.7044  155.2694 C   0  0  0  0  0  0  0  0  0  0  0  0
  152.4363  139.2771  155.6943 C   0  0  0  0  0  0  0  0  0  0  0  0
  152.7131  137.8995  155.6688 C   0  0  0  0  0  0  0  0  0  0  0  0
  151.8209  136.9763  155.2564 N   0  0  0  0  0  0  0  0  0  0  0  0
  150.5911  137.3722  154.8420 C   0  0  0  0  0  0  0  0  0  0  0  0
  149.6007  136.4552  154.3906 N   0  0  0  0  0  0  0  0  0  0  0  0
  149.0300  135.4403  155.0633 C   0  0  0  0  0  0  0  0  0  0  0  0
  149.2736  135.1266  156.2287 O   0  0  0  0  0  0  0  0  0  0  0  0
  148.1395  134.7967  154.2987 N   0  0  0  0  0  0  0  0  0  0  0  0
  147.3347  133.6607  154.7366 C   0  0  0  0  0  0  0  0  0  0  0  0
  147.3477  132.5003  153.6901 C   0  0  1  0  0  0  0  0  0  0  0  0
  146.3154  132.7429  152.6358 N   0  0  0  0  0  0  0  0  0  0  0  0
  146.4557  133.9861  151.8639 C   0  0  0  0  0  0  0  0  0  0  0  0
  145.3030  134.1886  150.8649 C   0  0  0  0  0  0  0  0  0  0  0  0
  145.2162  133.0691  149.9941 O   0  0  0  0  0  0  0  0  0  0  0  0
  145.0017  131.8554  150.7016 C   0  0  0  0  0  0  0  0  0  0  0  0
  146.1527  131.6262  151.6948 C   0  0  0  0  0  0  0  0  0  0  0  0
  148.7949  132.3954  153.1263 C   0  0  0  0  0  0  0  0  0  0  0  0
  149.7197  131.8242  154.2071 C   0  0  0  0  0  0  0  0  0  0  0  0
  148.7372  130.6880  155.2139 S   0  0  0  0  0  0  0  0  0  0  0  0
  147.1630  131.1589  154.4446 C   0  0  0  0  0  0  0  0  0  0  0  0
  148.7577  140.2908  154.4355 H   0  0  0  0  0  0  0  0  0  0  0  0
  148.0741  138.7673  155.0022 H   0  0  0  0  0  0  0  0  0  0  0  0
  148.6755  138.9095  153.3430 H   0  0  0  0  0  0  0  0  0  0  0  0
  150.9206  140.7561  155.2776 H   0  0  0  0  0  0  0  0  0  0  0  0
  153.1779  139.9861  156.0313 H   0  0  0  0  0  0  0  0  0  0  0  0
  153.6760  137.5287  155.9873 H   0  0  0  0  0  0  0  0  0  0  0  0
  149.2896  136.5909  153.4403 H   0  0  0  0  0  0  0  0  0  0  0  0
  147.9929  135.1183  153.3530 H   0  0  0  0  0  0  0  0  0  0  0  0
  147.7044  133.3295  155.7068 H   0  0  0  0  0  0  0  0  0  0  0  0
  146.3203  134.0035  154.9400 H   0  0  0  0  0  0  0  0  0  0  0  0
  146.4531  134.8557  152.5165 H   0  0  0  0  0  0  0  0  0  0  0  0
  147.3979  133.9958  151.3173 H   0  0  0  0  0  0  0  0  0  0  0  0
  144.3561  134.3247  151.3898 H   0  0  0  0  0  0  0  0  0  0  0  0
  145.4711  135.0876  150.2718 H   0  0  0  0  0  0  0  0  0  0  0  0
  144.0438  131.8913  151.2228 H   0  0  0  0  0  0  0  0  0  0  0  0
  144.9475  131.0328  149.9885 H   0  0  0  0  0  0  0  0  0  0  0  0
  147.0770  131.4709  151.1372 H   0  0  0  0  0  0  0  0  0  0  0  0
  145.9429  130.6971  152.2199 H   0  0  0  0  0  0  0  0  0  0  0  0
  148.8485  131.6860  152.3039 H   0  0  0  0  0  0  0  0  0  0  0  0
  149.1679  133.3438  152.7387 H   0  0  0  0  0  0  0  0  0  0  0  0
  150.5787  131.3107  153.7749 H   0  0  0  0  0  0  0  0  0  0  0  0
  150.1066  132.6178  154.8465 H   0  0  0  0  0  0  0  0  0  0  0  0
  146.3748  131.2055  155.1967 H   0  0  0  0  0  0  0  0  0  0  0  0
  146.9027  130.3500  153.7640 H   0  0  0  0  0  0  0  0  0  0  0  0
  1  2  1  0  0  0  0
  1 24  1  0  0  0  0
  1 25  1  0  0  0  0
  1 26  1  0  0  0  0
  2  7  1  0  0  0  0
  2  3  2  0  0  0  0
  3  4  1  0  0  0  0
  3 27  1  0  0  0  0
  4  5  2  0  0  0  0
  4 28  1  0  0  0  0
  5  6  1  0  0  0  0
  5 29  1  0  0  0  0
  6  7  2  0  0  0  0
  7  8  1  0  0  0  0
  8  9  1  0  0  0  0
  8 30  1  0  0  0  0
  9 10  2  0  0  0  0
  9 11  1  0  0  0  0
 11 12  1  0  0  0  0
 11 31  1  0  0  0  0
 12 13  1  0  0  0  0
 12 32  1  0  0  0  0
 12 33  1  0  0  0  0
 13 23  1  0  0  0  0
 13 14  1  0  0  0  0
 13 20  1  0  0  0  0
 14 19  1  0  0  0  0
 14 15  1  0  0  0  0
 15 16  1  0  0  0  0
 15 34  1  0  0  0  0
 15 35  1  0  0  0  0
 16 17  1  0  0  0  0
 16 36  1  0  0  0  0
 16 37  1  0  0  0  0
 17 18  1  0  0  0  0
 18 19  1  0  0  0  0
 18 38  1  0  0  0  0
 18 39  1  0  0  0  0
 19 40  1  0  0  0  0
 19 41  1  0  0  0  0
 20 21  1  0  0  0  0
 20 42  1  0  0  0  0
 20 43  1  0  0  0  0
 21 22  1  0  0  0  0
 21 44  1  0  0  0  0
 21 45  1  0  0  0  0
 22 23  1  0  0  0  0
 23 46  1  0  0  0  0
 23 47  1  0  0  0  0
M  END
> <s_m_source_file>
AV-unprocessed.smi

> <i_m_source_file_index>
1211

> <i_lp_mmshare_version>
43012

> <i_f3d_flags>
0

> <s_epik_input>
W0NIM11jMVtjSF1bY0hdW2NIXW5jMVtOSF1DKD1PKVtOSF1bQ0gyXVtDQF0yKFtDSDJdW0NIMl1TW0NIMl0yKU4zW0NIMl1bQ0gyXU9bQ0gyXVtDSDJdMw==

> <s_epik_cmdline>
J2VwaWtfcHl0aG9uJywgJy1waCcsICc3LjAnLCAnLXRuJywgJzgnLCAnLW1hJywgJzIwMCcsICctbWV0YWxfYmluZGluZycsICctaW1hZScsICc8aW5maWxlLm1hZT4nLCAnLW9tYWUnLCAnPG91dGZpbGUubWFlPic=

> <r_epik_Ionization_Penalty>
0.0195636

> <r_epik_Ionization_Penalty_Charging>
0

> <r_epik_Ionization_Penalty_Neutral>
0.0195636

> <r_epik_State_Penalty>
0.0155843

> <r_epik_Charging_Adjusted_Penalty>
0.0155843

> <i_epik_Tot_Q>
0

> <i_epik_Tot_abs_Q>
0

> <r_epik_Metal_State_Penalty>
0.0155842

> <b_epik_Metal_Only>
0

> <s_lp_Force_Field>
OPLS_2005

> <r_lp_Energy>
55.2683

> <b_lp_Chiralities_Consistent>
1

> <s_lp_Variant>
AV-unprocessed.smi:1211-1

> <Gold.Version>
5.8.1

> <Gold.Id.Protein>
6NUR|6NUR_protein|mol2

> <Gold.PLP.Fitness>
40.5026

> <Gold.PLP.PLP>
-34.2458

> <Gold.PLP.part.hbond>
-3.0545

> <Gold.PLP.part.metal>
0.0000

> <Gold.PLP.part.buried>
-1.4516

> <Gold.PLP.part.nonpolar>
-30.8097

> <Gold.PLP.part.repulsive>
0.6728

> <Gold.PLP.ligand.clash>
0.0000

> <Gold.PLP.ligand.torsion>
1.0909

> <Gold.PLP.Chemscore.Hbond>
2.7840

> <Gold.PLP.Chemscore.CHOScore>
0.0000

> <Gold.PLP.Chemscore.Metal>
0.0000

> <Gold.Chemscore.Hbonds>
donor molecule, donor type, donor heavy atom, donor atom, acceptor molecule, acceptor atom, score
      L1  H     8    30       P1  7948  1.00
      L1  H    11    31       P1  7948  0.72
      P1  H 10752 10764       L1     6  1.00

> <Gold.PLP.Chemscore.Internal.Correction>
0.0866

> <Gold.Rescore>
     Score         DG    S(hbond)    S(metal)    S(lipo)     H(rot)  DE(clash)    DE(int)     intcor
     17.95     -19.31       2.16        0.00      88.03       1.44       0.19       1.17       ----

> <Gold.Chemscore.Fitness>
17.9458

> <Gold.Chemscore.DG>
-19.3101

> <Gold.Chemscore.ZeroCoef>
-5.4800

> <Gold.Chemscore.Hbond>
2.1613

> <Gold.Chemscore.Metal>
0.0000

> <Gold.Chemscore.Lipo>
88.0265

> <Gold.Chemscore.Internal_Hbond>
0.0000

> <Gold.Chemscore.DEClash>
0.1912

> <Gold.Chemscore.DEInternal>
1.1731

> <Gold.Chemscore.Rot>
1.4405

> <Gold.Chemscore.Internal.Correction>
   9.000000E+99

> <Gold.Chemscore.Hbonds>
donor molecule, donor type, donor heavy atom, donor atom, acceptor molecule, acceptor atom, score
      L1  H     8    30       P1  7948  0.91
      L1  H    11    31       P1  7948  0.68
      P1  H 10752 10764       L1     6  0.33

> <Gold.Chemscore.Hbond.Weighted>
-7.2186

> <Gold.Chemscore.Metal.Weighted>
-0.0000

> <Gold.Chemscore.Lipo.Weighted>
-10.2991

> <Gold.Chemscore.Internal_Hbond.Weighted>
0.0000

> <Gold.Chemscore.DEClash.Weighted>
0.1912

> <Gold.Chemscore.DEInternal.Weighted>
1.1731

> <Gold.Chemscore.Rot.Weighted>
3.6876

> <Gold.Chemscore.Internal.Correction.Weighted>
   9.000000E+99

> <Gold.Protein.RotatedTorsions>
[ 6907 6896 6895 6894 ] final  154.59 input  -60.11 | X-H torsion
[ 7974 7965 7964 7962 ] final  118.92 input  175.53 | X-H torsion
[ 8008 7997 7996 7995 ] final  175.74 input   59.86 | X-H torsion
[ 10167 10162 10161 10158 ] final  -14.12 input  -65.29 | X-H torsion
[ 10718 10713 10712 10709 ] final  -48.88 input   66.30 | X-H torsion
[ 10763 10752 10751 10750 ] final  -62.86 input  -60.55 | X-H torsion
[ 11005 11000 10999 10996 ] final  147.17 input  -57.11 | X-H torsion

> <Gold.Protein.ActiveResidues>
 VAL166  LYS551  ARG553  GLY616  TRP617  ASP618  TYR619  PRO620  LYS621  CYS622 
 ASP623  PHE694  ASN695  SER759  ASP760  ASP761  ALA762  ILE779  LEU786  VAL792 
 PHE793  MET794  SER795  GLU796  ALA797  LYS798  CYS799  TRP800  GLU811  SER814 

> <Gold.Protein.RotatedAtoms>
  152.0563  133.4042  159.4398 H   0  0  0  0  0  0  0  0  0  0  0  0  # atno 6907 bound_to 6896
  150.6868  134.3251  159.4812 H   0  0  0  0  0  0  0  0  0  0  0  0  # atno 6908 bound_to 6896
  152.1067  134.9303  160.0618 H   0  0  0  0  0  0  0  0  0  0  0  0  # atno 6909 bound_to 6896
  145.1494  139.3220  143.4574 H   0  0  0  0  0  0  0  0  0  0  0  0  # atno 7974 bound_to 7965
  156.0838  140.1401  156.9678 H   0  0  0  0  0  0  0  0  0  0  0  0  # atno 8008 bound_to 7997
  154.4601  140.0946  156.6917 H   0  0  0  0  0  0  0  0  0  0  0  0  # atno 8009 bound_to 7997
  155.5032  140.3451  155.4377 H   0  0  0  0  0  0  0  0  0  0  0  0  # atno 8010 bound_to 7997
  140.7195  143.5355  150.9470 H   0  0  0  0  0  0  0  0  0  0  0  0  # atno 10167 bound_to 10162
  156.1946  130.4154  149.9325 H   0  0  0  0  0  0  0  0  0  0  0  0  # atno 10718 bound_to 10713
  154.3063  135.6224  153.5446 H   0  0  0  0  0  0  0  0  0  0  0  0  # atno 10763 bound_to 10752
  152.9834  135.5690  154.5227 H   0  0  0  0  0  0  0  0  0  0  0  0  # atno 10764 bound_to 10752
  154.4868  135.2865  155.1504 H   0  0  0  0  0  0  0  0  0  0  0  0  # atno 10765 bound_to 10752
  140.0854  134.9073  157.1567 H   0  0  0  0  0  0  0  0  0  0  0  0  # atno 11005 bound_to 11000
  146.3496  140.1562  142.8591 LP  0  0  0  0  0  0  0  0  0  0  0  0  # atno 17320 bound_to 7965
  145.0447  140.8972  143.5031 LP  0  0  0  0  0  0  0  0  0  0  0  0  # atno 17321 bound_to 7965
  139.9076  143.6759  152.3121 LP  0  0  0  0  0  0  0  0  0  0  0  0  # atno 17342 bound_to 10162
  139.7131  144.7617  151.1079 LP  0  0  0  0  0  0  0  0  0  0  0  0  # atno 17343 bound_to 10162
  156.7054  130.8949  151.3604 LP  0  0  0  0  0  0  0  0  0  0  0  0  # atno 17370 bound_to 10713
  157.6949  130.9272  150.0618 LP  0  0  0  0  0  0  0  0  0  0  0  0  # atno 17371 bound_to 10713
  140.3428  134.2685  155.7209 LP  0  0  0  0  0  0  0  0  0  0  0  0  # atno 17394 bound_to 11000
  141.2061  133.7843  157.0198 LP  0  0  0  0  0  0  0  0  0  0  0  0  # atno 17395 bound_to 11000

$$$$
