AV-unprocessed.smi:200|AV-procd|sdf|1576|dock8
  -GOLD-   2262019453D 1   1.00000     0.00000
 Structure written by MMmdl.
 56 59  0  0  0  0  0  0  0  0  1 V2000
  150.7024  137.1164  155.6167 C   0  0  0  0  0  0  0  0  0  0  0  0
  152.0459  137.3368  155.2246 O   0  0  0  0  0  0  0  0  0  0  0  0
  152.7210  138.2410  156.0820 C   0  0  0  0  0  0  0  0  0  0  0  0
  152.1983  139.6599  155.8056 C   0  0  0  0  0  0  0  0  0  0  0  0
  151.0464  140.0258  156.6358 N   0  0  0  0  0  0  0  0  0  0  0  0
  149.9232  140.4065  155.9823 C   0  0  0  0  0  0  0  0  0  0  0  0
  150.0350  140.6396  154.6508 N   0  0  0  0  0  0  0  0  0  0  0  0
  148.9633  141.0067  153.9427 C   0  0  0  0  0  0  0  0  0  0  0  0
  147.7086  141.1851  154.3600 N   0  0  0  0  0  0  0  0  0  0  0  0
  147.5883  140.9379  155.6957 C   0  0  0  0  0  0  0  0  0  0  0  0
  148.6373  140.5518  156.5779 C   0  0  0  0  0  0  0  0  0  0  0  0
  148.1353  140.3884  157.8634 N   0  0  0  0  0  0  0  0  0  0  0  0
  146.8664  140.6685  157.7496 C   0  0  0  0  0  0  0  0  0  0  0  0
  146.4481  140.9931  156.4788 N   0  0  0  0  0  0  0  0  0  0  0  0
  145.0914  141.3285  156.0735 C   0  0  0  0  0  0  0  0  0  0  0  0
  144.8096  142.8444  156.0001 C   0  0  0  0  0  0  0  0  0  0  0  0
  145.1779  143.5380  157.3239 C   0  0  0  0  0  0  0  0  0  0  0  0
  145.0213  144.9399  157.2341 O   0  0  0  0  0  0  0  0  0  0  0  0
  145.3185  143.5569  154.7395 C   0  0  0  0  0  0  0  0  0  0  0  0
  144.0315  144.1617  154.4933 O   0  0  0  0  0  0  0  0  0  0  0  0
  143.4381  143.2468  155.4381 C   0  0  0  0  0  0  0  0  0  0  0  0
  151.2521  140.7847  157.8735 C   0  0  2  0  0  0  0  0  0  0  0  0
  151.2633  142.3087  157.6993 C   0  0  0  0  0  0  0  0  0  0  0  0
  151.9613  142.7961  158.9655 C   0  0  0  0  0  0  0  0  0  0  0  0
  153.0800  141.7713  159.1945 C   0  0  1  0  0  0  0  0  0  0  0  0
  153.5524  141.6921  160.6524 C   0  0  0  0  0  0  0  0  0  0  0  0
  152.5432  140.4387  158.6383 C   0  0  0  0  0  0  0  0  0  0  0  0
  150.2287  136.4202  154.9248 H   0  0  0  0  0  0  0  0  0  0  0  0
  150.1300  138.0448  155.6049 H   0  0  0  0  0  0  0  0  0  0  0  0
  150.6496  136.6848  156.6170 H   0  0  0  0  0  0  0  0  0  0  0  0
  152.5496  137.9568  157.1212 H   0  0  0  0  0  0  0  0  0  0  0  0
  153.7956  138.1962  155.8986 H   0  0  0  0  0  0  0  0  0  0  0  0
  153.0077  140.3665  155.9816 H   0  0  0  0  0  0  0  0  0  0  0  0
  151.9484  139.7592  154.7502 H   0  0  0  0  0  0  0  0  0  0  0  0
  149.1352  141.1783  152.8903 H   0  0  0  0  0  0  0  0  0  0  0  0
  146.1923  140.6313  158.5930 H   0  0  0  0  0  0  0  0  0  0  0  0
  144.9002  140.8595  155.1075 H   0  0  0  0  0  0  0  0  0  0  0  0
  144.4062  140.8446  156.7707 H   0  0  0  0  0  0  0  0  0  0  0  0
  144.5370  143.1835  158.1322 H   0  0  0  0  0  0  0  0  0  0  0  0
  146.1987  143.3087  157.6302 H   0  0  0  0  0  0  0  0  0  0  0  0
  145.8434  145.3489  157.4580 H   0  0  0  0  0  0  0  0  0  0  0  0
  146.1000  144.2941  154.9278 H   0  0  0  0  0  0  0  0  0  0  0  0
  145.6082  142.8799  153.9342 H   0  0  0  0  0  0  0  0  0  0  0  0
  142.9071  142.4411  154.9296 H   0  0  0  0  0  0  0  0  0  0  0  0
  142.7893  143.7455  156.1591 H   0  0  0  0  0  0  0  0  0  0  0  0
  150.4308  140.5570  158.5563 H   0  0  0  0  0  0  0  0  0  0  0  0
  151.8517  142.6044  156.8304 H   0  0  0  0  0  0  0  0  0  0  0  0
  150.2625  142.7257  157.5834 H   0  0  0  0  0  0  0  0  0  0  0  0
  152.3399  143.8140  158.8685 H   0  0  0  0  0  0  0  0  0  0  0  0
  151.2568  142.7809  159.7982 H   0  0  0  0  0  0  0  0  0  0  0  0
  153.9277  142.0680  158.5749 H   0  0  0  0  0  0  0  0  0  0  0  0
  152.7376  141.4063  161.3183 H   0  0  0  0  0  0  0  0  0  0  0  0
  153.9377  142.6543  160.9905 H   0  0  0  0  0  0  0  0  0  0  0  0
  154.3493  140.9566  160.7661 H   0  0  0  0  0  0  0  0  0  0  0  0
  152.3168  139.7298  159.4358 H   0  0  0  0  0  0  0  0  0  0  0  0
  153.2988  139.9669  158.0110 H   0  0  0  0  0  0  0  0  0  0  0  0
  1  2  1  0  0  0  0
  1 28  1  0  0  0  0
  1 29  1  0  0  0  0
  1 30  1  0  0  0  0
  2  3  1  0  0  0  0
  3  4  1  0  0  0  0
  3 31  1  0  0  0  0
  3 32  1  0  0  0  0
  4  5  1  0  0  0  0
  4 33  1  0  0  0  0
  4 34  1  0  0  0  0
  5  6  1  0  0  0  0
  5 22  1  0  0  0  0
  6 11  1  0  0  0  0
  6  7  2  0  0  0  0
  7  8  1  0  0  0  0
  8  9  2  0  0  0  0
  8 35  1  0  0  0  0
  9 10  1  0  0  0  0
 10 14  1  0  0  0  0
 10 11  2  0  0  0  0
 11 12  1  0  0  0  0
 12 13  2  0  0  0  0
 13 14  1  0  0  0  0
 13 36  1  0  0  0  0
 14 15  1  0  0  0  0
 15 16  1  0  0  0  0
 15 37  1  0  0  0  0
 15 38  1  0  0  0  0
 16 21  1  0  0  0  0
 16 17  1  0  0  0  0
 16 19  1  0  0  0  0
 17 18  1  0  0  0  0
 17 39  1  0  0  0  0
 17 40  1  0  0  0  0
 18 41  1  0  0  0  0
 19 20  1  0  0  0  0
 19 42  1  0  0  0  0
 19 43  1  0  0  0  0
 20 21  1  0  0  0  0
 21 44  1  0  0  0  0
 21 45  1  0  0  0  0
 22 27  1  0  0  0  0
 22 23  1  0  0  0  0
 22 46  1  0  0  0  0
 23 24  1  0  0  0  0
 23 47  1  0  0  0  0
 23 48  1  0  0  0  0
 24 25  1  0  0  0  0
 24 49  1  0  0  0  0
 24 50  1  0  0  0  0
 25 26  1  0  0  0  0
 25 27  1  0  0  0  0
 25 51  1  0  0  0  0
 26 52  1  0  0  0  0
 26 53  1  0  0  0  0
 26 54  1  0  0  0  0
 27 55  1  0  0  0  0
 27 56  1  0  0  0  0
M  END
> <s_m_source_file>
AV-unprocessed.smi

> <i_m_source_file_index>
200

> <i_lp_mmshare_version>
43012

> <i_f3d_flags>
0

> <s_epik_input>
W0NIM11bQ0BASF0oW0NIMl0xKVtDSDJdW0NIMl1bQ0BIXTFOKFtDSDJdW0NIMl1PW0NIM10pYyhuW2NIXW4yKWMoYzIzKW5bY0hdbjNbQ0gyXUM0KFtDSDJdW09IXSlbQ0gyXU9bQ0gyXTQ=

> <s_epik_cmdline>
J2VwaWtfcHl0aG9uJywgJy1waCcsICc3LjAnLCAnLXRuJywgJzgnLCAnLW1hJywgJzIwMCcsICctbWV0YWxfYmluZGluZycsICctaW1hZScsICc8aW5maWxlLm1hZT4nLCAnLW9tYWUnLCAnPG91dGZpbGUubWFlPic=

> <r_lp_tautomer_probability>
1

> <r_epik_Ionization_Penalty>
0.00363087

> <r_epik_Ionization_Penalty_Charging>
0

> <r_epik_Ionization_Penalty_Neutral>
0.00363087

> <r_epik_State_Penalty>
0.0024341

> <r_epik_Charging_Adjusted_Penalty>
0.0024341

> <i_epik_Tot_Q>
0

> <i_epik_Tot_abs_Q>
0

> <r_epik_Metal_State_Penalty>
-0

> <b_epik_Metal_Only>
0

> <s_lp_Force_Field>
OPLS_2005

> <r_lp_Energy>
49.2687

> <b_lp_Chiralities_Consistent>
1

> <s_lp_Variant>
AV-unprocessed.smi:200-1

> <Gold.Version>
5.8.1

> <Gold.Id.Protein>
6NUR|6NUR_protein|mol2

> <Gold.PLP.Fitness>
45.4315

> <Gold.PLP.PLP>
-36.7598

> <Gold.PLP.part.hbond>
-3.4111

> <Gold.PLP.part.metal>
0.0000

> <Gold.PLP.part.buried>
-4.2946

> <Gold.PLP.part.nonpolar>
-29.9155

> <Gold.PLP.part.repulsive>
0.4484

> <Gold.PLP.ligand.clash>
0.0000

> <Gold.PLP.ligand.torsion>
1.9499

> <Gold.PLP.Chemscore.Hbond>
2.7280

> <Gold.PLP.Chemscore.CHOScore>
1.0000

> <Gold.PLP.Chemscore.Metal>
0.0000

> <Gold.Chemscore.Hbonds>
donor molecule, donor type, donor heavy atom, donor atom, acceptor molecule, acceptor atom, score
      L1  H    18    41       P1  8029  0.89
      P1  H  7989  7998       L1     7  0.83
      P1  H 10752 10763       L1     2  0.81
      L1  C     8    35       P1  7957  1.00

> <Gold.PLP.Chemscore.Internal.Correction>
1.3875

> <Gold.Rescore>
     Score         DG    S(hbond)    S(metal)    S(lipo)     H(rot)  DE(clash)    DE(int)     intcor
     10.01     -13.27       1.91        0.00      83.83       3.28       0.36       2.90       ----

> <Gold.Chemscore.Fitness>
10.0135

> <Gold.Chemscore.DG>
-13.2724

> <Gold.Chemscore.ZeroCoef>
-5.4800

> <Gold.Chemscore.Hbond>
1.9074

> <Gold.Chemscore.Metal>
0.0000

> <Gold.Chemscore.Lipo>
83.8336

> <Gold.Chemscore.Internal_Hbond>
0.0000

> <Gold.Chemscore.DEClash>
0.3597

> <Gold.Chemscore.DEInternal>
2.8992

> <Gold.Chemscore.Rot>
3.2761

> <Gold.Chemscore.Internal.Correction>
   9.000000E+99

> <Gold.Chemscore.Hbonds>
donor molecule, donor type, donor heavy atom, donor atom, acceptor molecule, acceptor atom, score
      L1  H    18    41       P1  8029  0.22
      P1  H  7989  7998       L1     7  0.49
      P1  H 10752 10763       L1     2  0.62

> <Gold.Chemscore.Hbond.Weighted>
-6.3707

> <Gold.Chemscore.Metal.Weighted>
-0.0000

> <Gold.Chemscore.Lipo.Weighted>
-9.8085

> <Gold.Chemscore.Internal_Hbond.Weighted>
0.0000

> <Gold.Chemscore.DEClash.Weighted>
0.3597

> <Gold.Chemscore.DEInternal.Weighted>
2.8992

> <Gold.Chemscore.Rot.Weighted>
8.3868

> <Gold.Chemscore.Internal.Correction.Weighted>
   9.000000E+99

> <Gold.Protein.RotatedTorsions>
[ 6907 6896 6895 6894 ] final   90.89 input  -60.11 | X-H torsion
[ 7974 7965 7964 7962 ] final   14.35 input  175.53 | X-H torsion
[ 8008 7997 7996 7995 ] final  -71.98 input   59.86 | X-H torsion
[ 10167 10162 10161 10158 ] final  -61.21 input  -65.29 | X-H torsion
[ 10718 10713 10712 10709 ] final  -38.20 input   66.30 | X-H torsion
[ 10763 10752 10751 10750 ] final   60.71 input  -60.55 | X-H torsion
[ 11005 11000 10999 10996 ] final -156.68 input  -57.11 | X-H torsion

> <Gold.Protein.ActiveResidues>
 VAL166  LYS551  ARG553  GLY616  TRP617  ASP618  TYR619  PRO620  LYS621  CYS622 
 ASP623  PHE694  ASN695  SER759  ASP760  ASP761  ALA762  ILE779  LEU786  VAL792 
 PHE793  MET794  SER795  GLU796  ALA797  LYS798  CYS799  TRP800  GLU811  SER814 

> <Gold.Protein.RotatedAtoms>
  152.5447  134.1742  159.8608 H   0  0  0  0  0  0  0  0  0  0  0  0  # atno 6907 bound_to 6896
  151.1749  133.4754  159.2601 H   0  0  0  0  0  0  0  0  0  0  0  0  # atno 6908 bound_to 6896
  151.1237  135.0104  159.8605 H   0  0  0  0  0  0  0  0  0  0  0  0  # atno 6909 bound_to 6896
  146.2307  139.9054  142.8532 H   0  0  0  0  0  0  0  0  0  0  0  0  # atno 7974 bound_to 7965
  154.5130  140.0805  156.8027 H   0  0  0  0  0  0  0  0  0  0  0  0  # atno 8008 bound_to 7997
  155.3742  140.3424  155.4226 H   0  0  0  0  0  0  0  0  0  0  0  0  # atno 8009 bound_to 7997
  156.1595  140.1584  156.8623 H   0  0  0  0  0  0  0  0  0  0  0  0  # atno 8010 bound_to 7997
  140.6020  143.2364  151.5906 H   0  0  0  0  0  0  0  0  0  0  0  0  # atno 10167 bound_to 10162
  156.3065  130.4247  149.8092 H   0  0  0  0  0  0  0  0  0  0  0  0  # atno 10718 bound_to 10713
  152.9929  135.5526  154.5918 H   0  0  0  0  0  0  0  0  0  0  0  0  # atno 10763 bound_to 10752
  154.5278  135.2811  155.1209 H   0  0  0  0  0  0  0  0  0  0  0  0  # atno 10764 bound_to 10752
  154.2536  135.6394  153.5302 H   0  0  0  0  0  0  0  0  0  0  0  0  # atno 10765 bound_to 10752
  140.6729  134.4228  157.5231 H   0  0  0  0  0  0  0  0  0  0  0  0  # atno 11005 bound_to 11000
  145.2282  140.9962  143.4006 LP  0  0  0  0  0  0  0  0  0  0  0  0  # atno 17320 bound_to 7965
  144.9553  139.4038  143.6382 LP  0  0  0  0  0  0  0  0  0  0  0  0  # atno 17321 bound_to 7965
  139.5298  144.2950  152.1121 LP  0  0  0  0  0  0  0  0  0  0  0  0  # atno 17342 bound_to 10162
  140.2132  144.4541  150.6376 LP  0  0  0  0  0  0  0  0  0  0  0  0  # atno 17343 bound_to 10162
  156.5450  130.8317  151.3281 LP  0  0  0  0  0  0  0  0  0  0  0  0  # atno 17370 bound_to 10713
  157.7381  130.9807  150.2231 LP  0  0  0  0  0  0  0  0  0  0  0  0  # atno 17371 bound_to 10713
  139.8976  134.8633  156.2038 LP  0  0  0  0  0  0  0  0  0  0  0  0  # atno 17394 bound_to 11000
  141.0378  133.6954  156.1543 LP  0  0  0  0  0  0  0  0  0  0  0  0  # atno 17395 bound_to 11000

$$$$
