AV-unprocessed.smi:1225|AV-procd|sdf|5137|dock5
  -GOLD-   22720 4203D 1   1.00000     0.00000
 Structure written by MMmdl.
 48 50  0  0  0  0  0  0  0  0  1 V2000
  147.0955  135.3130  162.3582 C   0  0  0  0  0  0  0  0  0  0  0  0
  147.6317  135.7820  161.0490 C   0  0  0  0  0  0  0  0  0  0  0  0
  148.1130  137.0104  160.8441 N   0  0  0  0  0  0  0  0  0  0  0  0
  148.5536  137.1979  159.5321 C   0  0  0  0  0  0  0  0  0  0  0  0
  148.4015  136.0918  158.7324 C   0  0  0  0  0  0  0  0  0  0  0  0
  148.7672  135.9543  157.2897 C   0  0  0  0  0  0  0  0  0  0  0  0
  150.1975  136.1443  157.0308 N   0  0  0  0  0  0  0  0  0  0  0  0
  150.7893  134.9006  156.5433 C   0  0  0  0  0  0  0  0  0  0  0  0
  150.4414  137.2354  156.0830 C   0  0  0  0  0  0  0  0  0  0  0  0
  151.8014  137.9537  156.2305 C   0  0  1  0  0  0  0  0  0  0  0  0
  152.7925  137.0605  155.7609 O   0  0  0  0  0  0  0  0  0  0  0  0
  151.9310  139.2948  155.4772 C   0  0  0  0  0  0  0  0  0  0  0  0
  151.4573  140.4269  156.2543 N   0  0  0  0  0  0  0  0  0  0  0  0
  150.4948  141.3045  155.9115 C   0  0  0  0  0  0  0  0  0  0  0  0
  150.2119  142.2689  156.7823 N   0  0  0  0  0  0  0  0  0  0  0  0
  151.0917  141.9816  157.8118 C   0  0  0  0  0  0  0  0  0  0  0  0
  151.2982  142.6303  159.0488 C   0  0  0  0  0  0  0  0  0  0  0  0
  152.2643  142.1550  159.9640 C   0  0  0  0  0  0  0  0  0  0  0  0
  152.4514  142.8829  161.2836 C   0  0  0  0  0  0  0  0  0  0  0  0
  153.0440  141.0140  159.6457 C   0  0  0  0  0  0  0  0  0  0  0  0
  154.0905  140.4875  160.6118 C   0  0  0  0  0  0  0  0  0  0  0  0
  152.8485  140.3525  158.4152 C   0  0  0  0  0  0  0  0  0  0  0  0
  151.8837  140.8348  157.5132 C   0  0  0  0  0  0  0  0  0  0  0  0
  147.6889  134.7660  159.6140 S   0  0  0  0  0  0  0  0  0  0  0  0
  147.3244  136.0306  163.1466 H   0  0  0  0  0  0  0  0  0  0  0  0
  147.5397  134.3528  162.6209 H   0  0  0  0  0  0  0  0  0  0  0  0
  146.0138  135.1947  162.2961 H   0  0  0  0  0  0  0  0  0  0  0  0
  148.9661  138.1553  159.2494 H   0  0  0  0  0  0  0  0  0  0  0  0
  148.4549  134.9755  156.9224 H   0  0  0  0  0  0  0  0  0  0  0  0
  148.1741  136.6697  156.7264 H   0  0  0  0  0  0  0  0  0  0  0  0
  151.8630  135.0159  156.3915 H   0  0  0  0  0  0  0  0  0  0  0  0
  150.3431  134.5962  155.5954 H   0  0  0  0  0  0  0  0  0  0  0  0
  150.6529  134.0895  157.2589 H   0  0  0  0  0  0  0  0  0  0  0  0
  150.4245  136.8294  155.0701 H   0  0  0  0  0  0  0  0  0  0  0  0
  149.6208  137.9540  156.1145 H   0  0  0  0  0  0  0  0  0  0  0  0
  151.9968  138.1194  157.2907 H   0  0  0  0  0  0  0  0  0  0  0  0
  153.5730  137.1774  156.2803 H   0  0  0  0  0  0  0  0  0  0  0  0
  152.9689  139.4758  155.1937 H   0  0  0  0  0  0  0  0  0  0  0  0
  151.3454  139.2694  154.5585 H   0  0  0  0  0  0  0  0  0  0  0  0
  149.9726  141.2319  154.9686 H   0  0  0  0  0  0  0  0  0  0  0  0
  150.7047  143.4998  159.2908 H   0  0  0  0  0  0  0  0  0  0  0  0
  153.4520  143.3111  161.3438 H   0  0  0  0  0  0  0  0  0  0  0  0
  152.3152  142.1994  162.1219 H   0  0  0  0  0  0  0  0  0  0  0  0
  151.7319  143.6944  161.3959 H   0  0  0  0  0  0  0  0  0  0  0  0
  154.6434  139.6515  160.1825 H   0  0  0  0  0  0  0  0  0  0  0  0
  153.6190  140.1415  161.5318 H   0  0  0  0  0  0  0  0  0  0  0  0
  154.8091  141.2681  160.8626 H   0  0  0  0  0  0  0  0  0  0  0  0
  153.4334  139.4809  158.1602 H   0  0  0  0  0  0  0  0  0  0  0  0
  1  2  1  0  0  0  0
  1 25  1  0  0  0  0
  1 26  1  0  0  0  0
  1 27  1  0  0  0  0
  2 24  1  0  0  0  0
  2  3  2  0  0  0  0
  3  4  1  0  0  0  0
  4  5  2  0  0  0  0
  4 28  1  0  0  0  0
  5  6  1  0  0  0  0
  5 24  1  0  0  0  0
  6  7  1  0  0  0  0
  6 29  1  0  0  0  0
  6 30  1  0  0  0  0
  7  8  1  0  0  0  0
  7  9  1  0  0  0  0
  8 31  1  0  0  0  0
  8 32  1  0  0  0  0
  8 33  1  0  0  0  0
  9 10  1  0  0  0  0
  9 34  1  0  0  0  0
  9 35  1  0  0  0  0
 10 11  1  0  0  0  0
 10 12  1  0  0  0  0
 10 36  1  0  0  0  0
 11 37  1  0  0  0  0
 12 13  1  0  0  0  0
 12 38  1  0  0  0  0
 12 39  1  0  0  0  0
 13 23  1  0  0  0  0
 13 14  1  0  0  0  0
 14 15  2  0  0  0  0
 14 40  1  0  0  0  0
 15 16  1  0  0  0  0
 16 23  2  0  0  0  0
 16 17  1  0  0  0  0
 17 18  2  0  0  0  0
 17 41  1  0  0  0  0
 18 19  1  0  0  0  0
 18 20  1  0  0  0  0
 19 42  1  0  0  0  0
 19 43  1  0  0  0  0
 19 44  1  0  0  0  0
 20 21  1  0  0  0  0
 20 22  2  0  0  0  0
 21 45  1  0  0  0  0
 21 46  1  0  0  0  0
 21 47  1  0  0  0  0
 22 23  1  0  0  0  0
 22 48  1  0  0  0  0
M  END
> <s_m_source_file>
AV-unprocessed.smi

> <i_m_source_file_index>
1225

> <i_lp_mmshare_version>
43012

> <i_f3d_flags>
0

> <s_epik_input>
W0NIM11jMW5bY0hdYyhzMSlbQ0gyXU4oW0NIM10pW0NIMl1bQ0BIXShbT0hdKVtDSDJdbihbY0hdbjIpYyhjMjMpW2NIXWMoW0NIM10pYyhbY0hdMylbQ0gzXQ==

> <s_epik_cmdline>
J2VwaWtfcHl0aG9uJywgJy1waCcsICc3LjAnLCAnLXRuJywgJzgnLCAnLW1hJywgJzIwMCcsICctbWV0YWxfYmluZGluZycsICctaW1hZScsICc8aW5maWxlLm1hZT4nLCAnLW9tYWUnLCAnPG91dGZpbGUubWFlPic=

> <r_epik_Ionization_Penalty>
0.12717

> <r_epik_Ionization_Penalty_Charging>
0

> <r_epik_Ionization_Penalty_Neutral>
0.12717

> <r_epik_State_Penalty>
0.11216

> <r_epik_Charging_Adjusted_Penalty>
0.11216

> <i_epik_Tot_Q>
0

> <i_epik_Tot_abs_Q>
0

> <r_epik_Metal_State_Penalty>
0.099641

> <b_epik_Metal_Only>
0

> <s_lp_Force_Field>
OPLS_2005

> <r_lp_Energy>
16.9623

> <b_lp_Chiralities_Consistent>
1

> <s_lp_Variant>
AV-unprocessed.smi:1225-2

> <Gold.Version>
5.8.1

> <Gold.Id.Protein>
6NUR|6NUR_protein|mol2

> <Gold.PLP.Fitness>
46.1565

> <Gold.PLP.PLP>
-43.3138

> <Gold.PLP.part.hbond>
-2.9540

> <Gold.PLP.part.metal>
0.0000

> <Gold.PLP.part.buried>
-5.3348

> <Gold.PLP.part.nonpolar>
-36.1150

> <Gold.PLP.part.repulsive>
0.8348

> <Gold.PLP.ligand.clash>
0.0000

> <Gold.PLP.ligand.torsion>
1.4584

> <Gold.PLP.Chemscore.Hbond>
1.8410

> <Gold.PLP.Chemscore.CHOScore>
0.0000

> <Gold.PLP.Chemscore.Metal>
0.0000

> <Gold.Chemscore.Hbonds>
donor molecule, donor type, donor heavy atom, donor atom, acceptor molecule, acceptor atom, score
      P1  H  6931  6943       L1     3  0.98
      P1  H  6934  6947       L1     3  0.24
      P1  H 10752 10765       L1    11  0.62

> <Gold.PLP.Chemscore.Internal.Correction>
0.2366

> <Gold.Rescore>
     Score         DG    S(hbond)    S(metal)    S(lipo)     H(rot)  DE(clash)    DE(int)     intcor
     15.94     -17.58       1.21        0.00     118.82       2.28       0.09       1.55       ----

> <Gold.Chemscore.Fitness>
15.9415

> <Gold.Chemscore.DG>
-17.5799

> <Gold.Chemscore.ZeroCoef>
-5.4800

> <Gold.Chemscore.Hbond>
1.2114

> <Gold.Chemscore.Metal>
0.0000

> <Gold.Chemscore.Lipo>
118.8194

> <Gold.Chemscore.Internal_Hbond>
0.0000

> <Gold.Chemscore.DEClash>
0.0859

> <Gold.Chemscore.DEInternal>
1.5525

> <Gold.Chemscore.Rot>
2.2844

> <Gold.Chemscore.Internal.Correction>
   9.000000E+99

> <Gold.Chemscore.Hbonds>
donor molecule, donor type, donor heavy atom, donor atom, acceptor molecule, acceptor atom, score
      P1  H  6931  6943       L1     3  0.51
      P1  H  6934  6947       L1     3  0.02
      P1  H 10752 10765       L1    11  0.31

> <Gold.Chemscore.Hbond.Weighted>
-4.0460

> <Gold.Chemscore.Metal.Weighted>
-0.0000

> <Gold.Chemscore.Lipo.Weighted>
-13.9019

> <Gold.Chemscore.Internal_Hbond.Weighted>
0.0000

> <Gold.Chemscore.DEClash.Weighted>
0.0859

> <Gold.Chemscore.DEInternal.Weighted>
1.5525

> <Gold.Chemscore.Rot.Weighted>
5.8480

> <Gold.Chemscore.Internal.Correction.Weighted>
   9.000000E+99

> <Gold.Protein.RotatedTorsions>
[ 6907 6896 6895 6894 ] final  179.36 input  -60.11 | X-H torsion
[ 7974 7965 7964 7962 ] final  -85.16 input  175.53 | X-H torsion
[ 8008 7997 7996 7995 ] final  151.81 input   59.86 | X-H torsion
[ 10167 10162 10161 10158 ] final -127.09 input  -65.29 | X-H torsion
[ 10718 10713 10712 10709 ] final   22.46 input   66.30 | X-H torsion
[ 10763 10752 10751 10750 ] final -162.82 input  -60.55 | X-H torsion
[ 11005 11000 10999 10996 ] final  -37.76 input  -57.11 | X-H torsion

> <Gold.Protein.ActiveResidues>
 VAL166  LYS551  ARG553  GLY616  TRP617  ASP618  TYR619  PRO620  LYS621  CYS622 
 ASP623  PHE694  ASN695  SER759  ASP760  ASP761  ALA762  ILE779  LEU786  VAL792 
 PHE793  MET794  SER795  GLU796  ALA797  LYS798  CYS799  TRP800  GLU811  SER814 

> <Gold.Protein.RotatedAtoms>
  151.6729  133.3313  159.3200 H   0  0  0  0  0  0  0  0  0  0  0  0  # atno 6907 bound_to 6896
  150.7859  134.6847  159.6473 H   0  0  0  0  0  0  0  0  0  0  0  0  # atno 6908 bound_to 6896
  152.3928  134.6417  160.0153 H   0  0  0  0  0  0  0  0  0  0  0  0  # atno 6909 bound_to 6896
  145.4970  140.9549  143.1781 H   0  0  0  0  0  0  0  0  0  0  0  0  # atno 7974 bound_to 7965
  156.2657  140.2038  156.6234 H   0  0  0  0  0  0  0  0  0  0  0  0  # atno 8008 bound_to 7997
  154.6739  140.0547  157.0219 H   0  0  0  0  0  0  0  0  0  0  0  0  # atno 8009 bound_to 7997
  155.1097  140.3214  155.4528 H   0  0  0  0  0  0  0  0  0  0  0  0  # atno 8010 bound_to 7997
  139.9645  143.5913  152.2434 H   0  0  0  0  0  0  0  0  0  0  0  0  # atno 10167 bound_to 10162
  157.1526  130.6681  149.6017 H   0  0  0  0  0  0  0  0  0  0  0  0  # atno 10718 bound_to 10713
  154.7179  135.3019  154.9094 H   0  0  0  0  0  0  0  0  0  0  0  0  # atno 10763 bound_to 10752
  153.9975  135.6711  153.4761 H   0  0  0  0  0  0  0  0  0  0  0  0  # atno 10764 bound_to 10752
  153.0809  135.5009  154.8417 H   0  0  0  0  0  0  0  0  0  0  0  0  # atno 10765 bound_to 10752
  140.9976  133.6972  156.1964 H   0  0  0  0  0  0  0  0  0  0  0  0  # atno 11005 bound_to 11000
  144.7802  139.6543  143.7158 LP  0  0  0  0  0  0  0  0  0  0  0  0  # atno 17320 bound_to 7965
  146.2249  139.5705  142.9593 LP  0  0  0  0  0  0  0  0  0  0  0  0  # atno 17321 bound_to 7965
  139.6528  144.7661  151.2114 LP  0  0  0  0  0  0  0  0  0  0  0  0  # atno 17342 bound_to 10162
  140.7542  143.6133  150.8584 LP  0  0  0  0  0  0  0  0  0  0  0  0  # atno 17343 bound_to 10162
  155.9768  130.4739  150.6550 LP  0  0  0  0  0  0  0  0  0  0  0  0  # atno 17370 bound_to 10713
  157.4206  131.0836  151.1134 LP  0  0  0  0  0  0  0  0  0  0  0  0  # atno 17371 bound_to 10713
  140.6940  134.4635  157.5588 LP  0  0  0  0  0  0  0  0  0  0  0  0  # atno 17394 bound_to 11000
  139.9023  134.8528  156.1847 LP  0  0  0  0  0  0  0  0  0  0  0  0  # atno 17395 bound_to 11000

$$$$
