AV-unprocessed.smi:1830|AV-procd|sdf|7433|dock4
  -GOLD-   22720 9113D 1   1.00000     0.00000
 Structure written by MMmdl.
 53 56  0  0  0  0  0  0  0  0  2 V2000
  150.0780  133.3911  155.3103 O   0  0  0  0  0  0  0  0  0  0  0  0
  149.6431  134.1998  154.4905 C   0  0  0  0  0  0  0  0  0  0  0  0
  148.8468  133.8608  153.4679 N   0  0  0  0  0  0  0  0  0  0  0  0
  148.4038  132.5044  153.1673 C   0  0  0  0  0  0  0  0  0  0  0  0
  146.9985  132.2186  153.7437 C   0  0  1  0  0  0  0  0  0  0  0  0
  145.9661  133.3158  153.3873 C   0  0  0  0  0  0  0  0  0  0  0  0
  145.5721  133.1670  151.9738 N   0  3  2  0  0  0  0  0  0  0  0  0
  144.5916  134.1176  151.4215 C   0  0  0  0  0  0  0  0  0  0  0  0
  143.9560  133.3803  150.2260 C   0  0  0  0  0  0  0  0  0  0  0  0
  144.5093  131.9447  150.2785 C   0  0  0  0  0  0  0  0  0  0  0  0
  145.0396  131.8297  151.7043 C   0  0  1  0  0  0  0  0  0  0  0  0
  146.1298  130.7894  151.9848 C   0  0  0  0  0  0  0  0  0  0  0  0
  146.5212  130.9208  153.3539 O   0  0  0  0  0  0  0  0  0  0  0  0
  149.9131  135.5150  154.4788 N   0  0  0  0  0  0  0  0  0  0  0  0
  150.7834  136.2361  155.3426 C   0  0  0  0  0  0  0  0  0  0  0  0
  151.6670  135.5690  156.2256 C   0  0  0  0  0  0  0  0  0  0  0  0
  152.4552  136.3232  157.1117 C   0  0  0  0  0  0  0  0  0  0  0  0
  152.3201  137.7213  157.0956 C   0  0  0  0  0  0  0  0  0  0  0  0
  151.4749  138.3703  156.2701 N   0  0  0  0  0  0  0  0  0  0  0  0
  150.7186  137.6579  155.3991 C   0  0  0  0  0  0  0  0  0  0  0  0
  149.8651  138.3918  154.5435 N   0  0  0  0  0  0  0  0  0  0  0  0
  148.4256  138.1527  154.5521 C   0  0  0  0  0  0  0  0  0  0  0  0
  147.8221  139.3533  153.8292 C   0  0  0  0  0  0  0  0  0  0  0  0
  148.7398  140.4911  154.2660 C   0  0  0  0  0  0  0  0  0  0  0  0
  150.1130  139.8231  154.3954 C   0  0  0  0  0  0  0  0  0  0  0  0
  148.5392  134.5920  152.8431 H   0  0  0  0  0  0  0  0  0  0  0  0
  148.4041  132.3507  152.0870 H   0  0  0  0  0  0  0  0  0  0  0  0
  149.1409  131.8089  153.5674 H   0  0  0  0  0  0  0  0  0  0  0  0
  147.0863  132.1991  154.8305 H   0  0  0  0  0  0  0  0  0  0  0  0
  145.0835  133.2196  154.0214 H   0  0  0  0  0  0  0  0  0  0  0  0
  146.3782  134.3105  153.5603 H   0  0  0  0  0  0  0  0  0  0  0  0
  143.8300  134.3448  152.1691 H   0  0  0  0  0  0  0  0  0  0  0  0
  145.0723  135.0520  151.1308 H   0  0  0  0  0  0  0  0  0  0  0  0
  142.8694  133.3816  150.3187 H   0  0  0  0  0  0  0  0  0  0  0  0
  144.2053  133.8589  149.2783 H   0  0  0  0  0  0  0  0  0  0  0  0
  143.7561  131.1911  150.0465 H   0  0  0  0  0  0  0  0  0  0  0  0
  145.3255  131.8366  149.5626 H   0  0  0  0  0  0  0  0  0  0  0  0
  144.1942  131.6493  152.3722 H   0  0  0  0  0  0  0  0  0  0  0  0
  145.7453  129.7826  151.8215 H   0  0  0  0  0  0  0  0  0  0  0  0
  146.9855  130.9154  151.3208 H   0  0  0  0  0  0  0  0  0  0  0  0
  149.5581  136.0370  153.6909 H   0  0  0  0  0  0  0  0  0  0  0  0
  151.7346  134.4918  156.2535 H   0  0  0  0  0  0  0  0  0  0  0  0
  153.1363  135.8399  157.7964 H   0  0  0  0  0  0  0  0  0  0  0  0
  152.9015  138.3357  157.7669 H   0  0  0  0  0  0  0  0  0  0  0  0
  148.1752  137.2136  154.0576 H   0  0  0  0  0  0  0  0  0  0  0  0
  148.0443  138.1158  155.5733 H   0  0  0  0  0  0  0  0  0  0  0  0
  147.8891  139.2131  152.7494 H   0  0  0  0  0  0  0  0  0  0  0  0
  146.7766  139.5229  154.0872 H   0  0  0  0  0  0  0  0  0  0  0  0
  148.7410  141.3295  153.5690 H   0  0  0  0  0  0  0  0  0  0  0  0
  148.4203  140.8639  155.2402 H   0  0  0  0  0  0  0  0  0  0  0  0
  150.6761  140.2316  155.2359 H   0  0  0  0  0  0  0  0  0  0  0  0
  150.6925  139.9885  153.4868 H   0  0  0  0  0  0  0  0  0  0  0  0
  146.4081  133.2610  151.4147 H   0  0  0  0  0  0  0  0  0  0  0  0
  1  2  2  0  0  0  0
  2  3  1  0  0  0  0
  2 14  1  0  0  0  0
  3  4  1  0  0  0  0
  3 26  1  0  0  0  0
  4  5  1  0  0  0  0
  4 27  1  0  0  0  0
  4 28  1  0  0  0  0
  5 13  1  0  0  0  0
  5  6  1  0  0  0  0
  5 29  1  0  0  0  0
  6  7  1  0  0  0  0
  6 30  1  0  0  0  0
  6 31  1  0  0  0  0
  7 11  1  0  0  0  0
  7  8  1  0  0  0  0
  7 53  1  0  0  0  0
  8  9  1  0  0  0  0
  8 32  1  0  0  0  0
  8 33  1  0  0  0  0
  9 10  1  0  0  0  0
  9 34  1  0  0  0  0
  9 35  1  0  0  0  0
 10 11  1  0  0  0  0
 10 36  1  0  0  0  0
 10 37  1  0  0  0  0
 11 12  1  0  0  0  0
 11 38  1  0  0  0  0
 12 13  1  0  0  0  0
 12 39  1  0  0  0  0
 12 40  1  0  0  0  0
 14 15  1  0  0  0  0
 14 41  1  0  0  0  0
 15 20  1  0  0  0  0
 15 16  2  0  0  0  0
 16 17  1  0  0  0  0
 16 42  1  0  0  0  0
 17 18  2  0  0  0  0
 17 43  1  0  0  0  0
 18 19  1  0  0  0  0
 18 44  1  0  0  0  0
 19 20  2  0  0  0  0
 20 21  1  0  0  0  0
 21 25  1  0  0  0  0
 21 22  1  0  0  0  0
 22 23  1  0  0  0  0
 22 45  1  0  0  0  0
 22 46  1  0  0  0  0
 23 24  1  0  0  0  0
 23 47  1  0  0  0  0
 23 48  1  0  0  0  0
 24 25  1  0  0  0  0
 24 49  1  0  0  0  0
 24 50  1  0  0  0  0
 25 51  1  0  0  0  0
 25 52  1  0  0  0  0
M  CHG  1   7   1
M  END
> <s_m_source_file>
AV-unprocessed.smi

> <i_m_source_file_index>
1830

> <i_lp_mmshare_version>
43012

> <i_f3d_flags>
0

> <s_epik_input>
W0NIMl0xW0NIMl1bQ0gyXVtDQEhdKE4xMilbQ0gyXU9bQ0BASF0oW0NIMl0yKVtDSDJdW05IXUMoPU8pW05IXWMzW2NIXVtjSF1bY0hdbmMzTjRbQ0gyXVtDSDJdW0NIMl1bQ0gyXTQ=

> <s_epik_cmdline>
J2VwaWtfcHl0aG9uJywgJy1waCcsICc3LjAnLCAnLXRuJywgJzgnLCAnLW1hJywgJzIwMCcsICctbWV0YWxfYmluZGluZycsICctaW1hZScsICc8aW5maWxlLm1hZT4nLCAnLW9tYWUnLCAnPG91dGZpbGUubWFlPic=

> <r_lp_tautomer_probability>
1

> <r_epik_Ionization_Penalty>
0.193547

> <r_epik_Ionization_Penalty_Charging>
0.10673

> <r_epik_Ionization_Penalty_Neutral>
0.0868166

> <r_epik_State_Penalty>
0.173595

> <r_epik_Charging_Adjusted_Penalty>
0.280326

> <i_epik_Tot_Q>
1

> <i_epik_Tot_abs_Q>
1

> <r_epik_Metal_State_Penalty>
0.164683

> <b_epik_Metal_Only>
0

> <s_lp_Force_Field>
OPLS_2005

> <r_lp_Energy>
66.0686

> <b_lp_Chiralities_Consistent>
1

> <s_lp_Variant>
AV-unprocessed.smi:1830-2

> <Gold.Version>
5.8.1

> <Gold.Id.Protein>
6NUR|6NUR_protein|mol2

> <Gold.PLP.Fitness>
40.1906

> <Gold.PLP.PLP>
-34.8828

> <Gold.PLP.part.hbond>
-2.0000

> <Gold.PLP.part.metal>
0.0000

> <Gold.PLP.part.buried>
-5.5425

> <Gold.PLP.part.nonpolar>
-27.8338

> <Gold.PLP.part.repulsive>
0.4045

> <Gold.PLP.ligand.clash>
0.0000

> <Gold.PLP.ligand.torsion>
0.4518

> <Gold.PLP.Chemscore.Hbond>
1.9600

> <Gold.PLP.Chemscore.CHOScore>
0.0000

> <Gold.PLP.Chemscore.Metal>
0.0000

> <Gold.Chemscore.Hbonds>
donor molecule, donor type, donor heavy atom, donor atom, acceptor molecule, acceptor atom, score
      L1  H     3    26       P1  7948  0.91
      L1  H    14    41       P1  7948  1.00

> <Gold.PLP.Chemscore.Internal.Correction>
0.3314

> <Gold.Rescore>
     Score         DG    S(hbond)    S(metal)    S(lipo)     H(rot)  DE(clash)    DE(int)     intcor
     15.49     -17.39       1.22        0.00      97.70       1.41       0.06       1.85       ----

> <Gold.Chemscore.Fitness>
15.4868

> <Gold.Chemscore.DG>
-17.3938

> <Gold.Chemscore.ZeroCoef>
-5.4800

> <Gold.Chemscore.Hbond>
1.2227

> <Gold.Chemscore.Metal>
0.0000

> <Gold.Chemscore.Lipo>
97.7015

> <Gold.Chemscore.Internal_Hbond>
0.0000

> <Gold.Chemscore.DEClash>
0.0618

> <Gold.Chemscore.DEInternal>
1.8452

> <Gold.Chemscore.Rot>
1.4067

> <Gold.Chemscore.Internal.Correction>
   9.000000E+99

> <Gold.Chemscore.Hbonds>
donor molecule, donor type, donor heavy atom, donor atom, acceptor molecule, acceptor atom, score
      L1  H     3    26       P1  7948  0.20
      L1  H    14    41       P1  7948  0.43

> <Gold.Chemscore.Hbond.Weighted>
-4.0838

> <Gold.Chemscore.Metal.Weighted>
-0.0000

> <Gold.Chemscore.Lipo.Weighted>
-11.4311

> <Gold.Chemscore.Internal_Hbond.Weighted>
0.0000

> <Gold.Chemscore.DEClash.Weighted>
0.0618

> <Gold.Chemscore.DEInternal.Weighted>
1.8452

> <Gold.Chemscore.Rot.Weighted>
3.6011

> <Gold.Chemscore.Internal.Correction.Weighted>
   9.000000E+99

> <Gold.Protein.RotatedTorsions>
[ 6907 6896 6895 6894 ] final -105.09 input  -60.11 | X-H torsion
[ 7974 7965 7964 7962 ] final   -4.15 input  175.53 | X-H torsion
[ 8008 7997 7996 7995 ] final   91.24 input   59.86 | X-H torsion
[ 10167 10162 10161 10158 ] final   95.69 input  -65.29 | X-H torsion
[ 10718 10713 10712 10709 ] final -130.16 input   66.30 | X-H torsion
[ 10763 10752 10751 10750 ] final  119.10 input  -60.55 | X-H torsion
[ 11005 11000 10999 10996 ] final   43.52 input  -57.11 | X-H torsion

> <Gold.Protein.ActiveResidues>
 VAL166  LYS551  ARG553  GLY616  TRP617  ASP618  TYR619  PRO620  LYS621  CYS622 
 ASP623  PHE694  ASN695  SER759  ASP760  ASP761  ALA762  ILE779  LEU786  VAL792 
 PHE793  MET794  SER795  GLU796  ALA797  LYS798  CYS799  TRP800  GLU811  SER814 

> <Gold.Protein.RotatedAtoms>
  150.7319  134.0178  159.3690 H   0  0  0  0  0  0  0  0  0  0  0  0  # atno 6907 bound_to 6896
  151.8142  135.0669  160.0426 H   0  0  0  0  0  0  0  0  0  0  0  0  # atno 6908 bound_to 6896
  152.3051  133.5658  159.5680 H   0  0  0  0  0  0  0  0  0  0  0  0  # atno 6909 bound_to 6896
  146.2377  140.1827  142.8332 H   0  0  0  0  0  0  0  0  0  0  0  0  # atno 7974 bound_to 7965
  156.0214  140.3340  155.7043 H   0  0  0  0  0  0  0  0  0  0  0  0  # atno 8008 bound_to 7997
  155.6017  140.0656  157.2749 H   0  0  0  0  0  0  0  0  0  0  0  0  # atno 8009 bound_to 7997
  154.4317  140.1809  156.1167 H   0  0  0  0  0  0  0  0  0  0  0  0  # atno 8010 bound_to 7997
  139.7965  144.6831  150.9822 H   0  0  0  0  0  0  0  0  0  0  0  0  # atno 10167 bound_to 10162
  156.2117  130.6923  151.0657 H   0  0  0  0  0  0  0  0  0  0  0  0  # atno 10718 bound_to 10713
  153.5779  135.3489  155.2863 H   0  0  0  0  0  0  0  0  0  0  0  0  # atno 10763 bound_to 10752
  154.8672  135.4175  154.2653 H   0  0  0  0  0  0  0  0  0  0  0  0  # atno 10764 bound_to 10752
  153.3433  135.7051  153.6919 H   0  0  0  0  0  0  0  0  0  0  0  0  # atno 10765 bound_to 10752
  140.1637  134.4308  155.8301 H   0  0  0  0  0  0  0  0  0  0  0  0  # atno 11005 bound_to 11000
  144.9921  140.8556  143.5333 LP  0  0  0  0  0  0  0  0  0  0  0  0  # atno 17320 bound_to 7965
  145.1835  139.2339  143.5280 LP  0  0  0  0  0  0  0  0  0  0  0  0  # atno 17321 bound_to 7965
  140.7820  143.4326  151.0671 LP  0  0  0  0  0  0  0  0  0  0  0  0  # atno 17342 bound_to 10162
  139.8000  143.8097  152.3162 LP  0  0  0  0  0  0  0  0  0  0  0  0  # atno 17343 bound_to 10162
  157.7042  131.0763  150.6722 LP  0  0  0  0  0  0  0  0  0  0  0  0  # atno 17370 bound_to 10713
  156.6782  130.4559  149.5636 LP  0  0  0  0  0  0  0  0  0  0  0  0  # atno 17371 bound_to 10713
  141.2212  133.6925  156.7640 LP  0  0  0  0  0  0  0  0  0  0  0  0  # atno 17394 bound_to 11000
  140.2459  134.8578  157.3619 LP  0  0  0  0  0  0  0  0  0  0  0  0  # atno 17395 bound_to 11000

$$$$
