AV-unprocessed.smi:2131|AV-procd|sdf|8690|dock8
  -GOLD-   2272011443D 1   1.00000     0.00000
 Structure written by MMmdl.
 41 43  0  0  0  0  0  0  0  0  2 V2000
  143.9269  143.5040  154.9232 N   0  0  0  0  0  0  0  0  0  0  0  0
  144.3045  142.5236  155.4080 C   0  0  0  0  0  0  0  0  0  0  0  0
  144.7848  141.2776  156.0242 C   0  0  0  0  0  0  0  0  0  0  0  0
  146.1880  140.9268  155.5750 C   0  0  0  0  0  0  0  0  0  0  0  0
  146.8356  141.7085  154.5987 C   0  0  0  0  0  0  0  0  0  0  0  0
  148.1384  141.3775  154.1796 C   0  0  0  0  0  0  0  0  0  0  0  0
  148.8120  140.2648  154.7242 C   0  0  0  0  0  0  0  0  0  0  0  0
  150.0829  140.0118  154.2547 O   0  0  0  0  0  0  0  0  0  0  0  0
  150.7625  138.8603  154.7377 C   0  0  0  0  0  0  0  0  0  0  0  0
  151.6604  139.2710  155.9136 C   0  0  1  0  0  0  0  0  0  0  0  0
  152.8700  139.7925  155.3993 O   0  0  0  0  0  0  0  0  0  0  0  0
  150.9917  140.3186  156.8261 C   0  0  0  0  0  0  0  0  0  0  0  0
  151.8760  140.7841  157.9019 N   0  0  0  0  0  0  0  0  0  0  0  0
  152.8102  140.1060  158.6222 C   0  0  0  0  0  0  0  0  0  0  0  0
  153.3610  140.9821  159.5079 N   0  3  0  0  0  0  0  0  0  0  0  0
  152.7697  142.2378  159.3511 C   0  0  0  0  0  0  0  0  0  0  0  0
  152.9903  143.4401  160.0160 C   0  0  0  0  0  0  0  0  0  0  0  0
  152.2075  144.5409  159.6097 C   0  0  0  0  0  0  0  0  0  0  0  0
  151.2519  144.4231  158.5792 C   0  0  0  0  0  0  0  0  0  0  0  0
  151.0378  143.1998  157.9103 C   0  0  0  0  0  0  0  0  0  0  0  0
  151.8147  142.1170  158.3197 C   0  0  0  0  0  0  0  0  0  0  0  0
  148.1544  139.4829  155.7076 C   0  0  0  0  0  0  0  0  0  0  0  0
  146.8515  139.8141  156.1280 C   0  0  0  0  0  0  0  0  0  0  0  0
  144.7555  141.3950  157.1079 H   0  0  0  0  0  0  0  0  0  0  0  0
  144.0952  140.4747  155.7626 H   0  0  0  0  0  0  0  0  0  0  0  0
  146.3343  142.5625  154.1672 H   0  0  0  0  0  0  0  0  0  0  0  0
  148.6250  141.9827  153.4286 H   0  0  0  0  0  0  0  0  0  0  0  0
  150.0315  138.1232  155.0745 H   0  0  0  0  0  0  0  0  0  0  0  0
  151.3636  138.4059  153.9480 H   0  0  0  0  0  0  0  0  0  0  0  0
  151.9096  138.3818  156.4937 H   0  0  0  0  0  0  0  0  0  0  0  0
  152.7265  140.0555  154.5028 H   0  0  0  0  0  0  0  0  0  0  0  0
  150.6944  141.1930  156.2451 H   0  0  0  0  0  0  0  0  0  0  0  0
  150.0812  139.9231  157.2780 H   0  0  0  0  0  0  0  0  0  0  0  0
  153.0645  139.0614  158.5136 H   0  0  0  0  0  0  0  0  0  0  0  0
  153.7216  143.5335  160.8055 H   0  0  0  0  0  0  0  0  0  0  0  0
  152.3425  145.4947  160.0988 H   0  0  0  0  0  0  0  0  0  0  0  0
  150.6702  145.2885  158.2959 H   0  0  0  0  0  0  0  0  0  0  0  0
  150.3034  143.1174  157.1225 H   0  0  0  0  0  0  0  0  0  0  0  0
  148.6281  138.6234  156.1564 H   0  0  0  0  0  0  0  0  0  0  0  0
  146.3613  139.2093  156.8769 H   0  0  0  0  0  0  0  0  0  0  0  0
  154.0853  140.7371  160.1709 H   0  0  0  0  0  0  0  0  0  0  0  0
  1  2  3  0  0  0  0
  2  3  1  0  0  0  0
  3  4  1  0  0  0  0
  3 24  1  0  0  0  0
  3 25  1  0  0  0  0
  4 23  1  0  0  0  0
  4  5  2  0  0  0  0
  5  6  1  0  0  0  0
  5 26  1  0  0  0  0
  6  7  2  0  0  0  0
  6 27  1  0  0  0  0
  7  8  1  0  0  0  0
  7 22  1  0  0  0  0
  8  9  1  0  0  0  0
  9 10  1  0  0  0  0
  9 28  1  0  0  0  0
  9 29  1  0  0  0  0
 10 11  1  0  0  0  0
 10 12  1  0  0  0  0
 10 30  1  0  0  0  0
 11 31  1  0  0  0  0
 12 13  1  0  0  0  0
 12 32  1  0  0  0  0
 12 33  1  0  0  0  0
 13 21  1  0  0  0  0
 13 14  1  0  0  0  0
 14 15  2  0  0  0  0
 14 34  1  0  0  0  0
 15 16  1  0  0  0  0
 15 41  1  0  0  0  0
 16 21  2  0  0  0  0
 16 17  1  0  0  0  0
 17 18  2  0  0  0  0
 17 35  1  0  0  0  0
 18 19  1  0  0  0  0
 18 36  1  0  0  0  0
 19 20  2  0  0  0  0
 19 37  1  0  0  0  0
 20 21  1  0  0  0  0
 20 38  1  0  0  0  0
 22 23  2  0  0  0  0
 22 39  1  0  0  0  0
 23 40  1  0  0  0  0
M  CHG  1  15   1
M  END
> <s_m_source_file>
AV-unprocessed.smi

> <i_m_source_file_index>
2131

> <i_lp_mmshare_version>
43012

> <i_f3d_flags>
0

> <s_epik_input>
TiNDW0NIMl1jMVtjSF1bY0hdYyhbY0hdW2NIXTEpT1tDSDJdW0NASF0oW09IXSlbQ0gyXW4oW2NIXW4yKWMoYzIzKVtjSF1bY0hdW2NIXVtjSF0z

> <s_epik_cmdline>
J2VwaWtfcHl0aG9uJywgJy1waCcsICc3LjAnLCAnLXRuJywgJzgnLCAnLW1hJywgJzIwMCcsICctbWV0YWxfYmluZGluZycsICctaW1hZScsICc8aW5maWxlLm1hZT4nLCAnLW9tYWUnLCAnPG91dGZpbGUubWFlPic=

> <r_lp_tautomer_probability>
1

> <r_epik_Ionization_Penalty>
1.3774

> <r_epik_Ionization_Penalty_Charging>
1.37739

> <r_epik_Ionization_Penalty_Neutral>
2.3994e-06

> <r_epik_State_Penalty>
1.45762

> <r_epik_Charging_Adjusted_Penalty>
2.83501

> <i_epik_Tot_Q>
1

> <i_epik_Tot_abs_Q>
1

> <r_epik_Metal_State_Penalty>
5.49752

> <b_epik_Metal_Only>
0

> <s_lp_Force_Field>
OPLS_2005

> <r_lp_Energy>
20.3244

> <b_lp_Chiralities_Consistent>
1

> <s_lp_Variant>
AV-unprocessed.smi:2131-4

> <Gold.Version>
5.8.1

> <Gold.Id.Protein>
6NUR|6NUR_protein|mol2

> <Gold.PLP.Fitness>
52.2091

> <Gold.PLP.PLP>
-47.7678

> <Gold.PLP.part.hbond>
-2.0000

> <Gold.PLP.part.metal>
0.0000

> <Gold.PLP.part.buried>
-4.7526

> <Gold.PLP.part.nonpolar>
-41.4140

> <Gold.PLP.part.repulsive>
0.9682

> <Gold.PLP.ligand.clash>
0.0000

> <Gold.PLP.ligand.torsion>
0.8351

> <Gold.PLP.Chemscore.Hbond>
2.0000

> <Gold.PLP.Chemscore.CHOScore>
0.0000

> <Gold.PLP.Chemscore.Metal>
0.0000

> <Gold.Chemscore.Hbonds>
donor molecule, donor type, donor heavy atom, donor atom, acceptor molecule, acceptor atom, score
      P1  H  7989  7998       L1     8  0.85
      P1  H  7997  8010       L1    11  1.00

> <Gold.PLP.Chemscore.Internal.Correction>
0.1115

> <Gold.Rescore>
     Score         DG    S(hbond)    S(metal)    S(lipo)     H(rot)  DE(clash)    DE(int)     intcor
     17.04     -18.45       1.74        0.00     122.90       2.81       0.08       1.33       ----

> <Gold.Chemscore.Fitness>
17.0361

> <Gold.Chemscore.DG>
-18.4532

> <Gold.Chemscore.ZeroCoef>
-5.4800

> <Gold.Chemscore.Hbond>
1.7358

> <Gold.Chemscore.Metal>
0.0000

> <Gold.Chemscore.Lipo>
122.9006

> <Gold.Chemscore.Internal_Hbond>
0.0000

> <Gold.Chemscore.DEClash>
0.0827

> <Gold.Chemscore.DEInternal>
1.3344

> <Gold.Chemscore.Rot>
2.8140

> <Gold.Chemscore.Internal.Correction>
   9.000000E+99

> <Gold.Chemscore.Hbonds>
donor molecule, donor type, donor heavy atom, donor atom, acceptor molecule, acceptor atom, score
      P1  H  7989  7998       L1     8  0.14
      P1  H  7997  8010       L1    11  0.98

> <Gold.Chemscore.Hbond.Weighted>
-5.7977

> <Gold.Chemscore.Metal.Weighted>
-0.0000

> <Gold.Chemscore.Lipo.Weighted>
-14.3794

> <Gold.Chemscore.Internal_Hbond.Weighted>
0.0000

> <Gold.Chemscore.DEClash.Weighted>
0.0827

> <Gold.Chemscore.DEInternal.Weighted>
1.3344

> <Gold.Chemscore.Rot.Weighted>
7.2039

> <Gold.Chemscore.Internal.Correction.Weighted>
   9.000000E+99

> <Gold.Protein.RotatedTorsions>
[ 6907 6896 6895 6894 ] final  175.81 input  -60.11 | X-H torsion
[ 7974 7965 7964 7962 ] final  171.28 input  175.53 | X-H torsion
[ 8008 7997 7996 7995 ] final   81.35 input   59.86 | X-H torsion
[ 10167 10162 10161 10158 ] final   62.55 input  -65.29 | X-H torsion
[ 10718 10713 10712 10709 ] final   88.26 input   66.30 | X-H torsion
[ 10763 10752 10751 10750 ] final   91.52 input  -60.55 | X-H torsion
[ 11005 11000 10999 10996 ] final   65.11 input  -57.11 | X-H torsion

> <Gold.Protein.ActiveResidues>
 VAL166  LYS551  ARG553  GLY616  TRP617  ASP618  TYR619  PRO620  LYS621  CYS622 
 ASP623  PHE694  ASN695  SER759  ASP760  ASP761  ALA762  ILE779  LEU786  VAL792 
 PHE793  MET794  SER795  GLU796  ALA797  LYS798  CYS799  TRP800  GLU811  SER814 

> <Gold.Protein.RotatedAtoms>
  151.7303  133.3317  159.3338 H   0  0  0  0  0  0  0  0  0  0  0  0  # atno 6907 bound_to 6896
  150.7615  134.6370  159.6226 H   0  0  0  0  0  0  0  0  0  0  0  0  # atno 6908 bound_to 6896
  152.3596  134.6893  160.0263 H   0  0  0  0  0  0  0  0  0  0  0  0  # atno 6909 bound_to 6896
  144.7299  139.9327  143.6425 H   0  0  0  0  0  0  0  0  0  0  0  0  # atno 7974 bound_to 7965
  155.8959  140.3436  155.5991 H   0  0  0  0  0  0  0  0  0  0  0  0  # atno 8008 bound_to 7997
  155.7556  140.0826  157.2199 H   0  0  0  0  0  0  0  0  0  0  0  0  # atno 8009 bound_to 7997
  154.4038  140.1545  156.2761 H   0  0  0  0  0  0  0  0  0  0  0  0  # atno 8010 bound_to 7997
  140.1427  144.4538  150.6802 H   0  0  0  0  0  0  0  0  0  0  0  0  # atno 10167 bound_to 10162
  157.6947  131.0288  150.3248 H   0  0  0  0  0  0  0  0  0  0  0  0  # atno 10718 bound_to 10713
  153.2091  135.4394  155.0358 H   0  0  0  0  0  0  0  0  0  0  0  0  # atno 10763 bound_to 10752
  154.8190  135.3328  154.7095 H   0  0  0  0  0  0  0  0  0  0  0  0  # atno 10764 bound_to 10752
  153.7535  135.6996  153.4996 H   0  0  0  0  0  0  0  0  0  0  0  0  # atno 10765 bound_to 10752
  139.9915  134.6583  156.0082 H   0  0  0  0  0  0  0  0  0  0  0  0  # atno 11005 bound_to 11000
  146.0845  139.3833  143.0444 LP  0  0  0  0  0  0  0  0  0  0  0  0  # atno 17320 bound_to 7965
  145.7796  140.9862  143.1106 LP  0  0  0  0  0  0  0  0  0  0  0  0  # atno 17321 bound_to 7965
  140.6750  143.2301  151.5529 LP  0  0  0  0  0  0  0  0  0  0  0  0  # atno 17342 bound_to 10162
  139.5464  144.2510  152.1450 LP  0  0  0  0  0  0  0  0  0  0  0  0  # atno 17343 bound_to 10162
  156.3730  130.3867  149.7160 LP  0  0  0  0  0  0  0  0  0  0  0  0  # atno 17370 bound_to 10713
  156.4568  130.7933  151.2954 LP  0  0  0  0  0  0  0  0  0  0  0  0  # atno 17371 bound_to 10713
  141.1570  133.6542  156.4194 LP  0  0  0  0  0  0  0  0  0  0  0  0  # atno 17394 bound_to 11000
  140.4898  134.6586  157.5206 LP  0  0  0  0  0  0  0  0  0  0  0  0  # atno 17395 bound_to 11000

$$$$
