AV-unprocessed.smi:255|AV-procd|sdf|1950|dock8
  -GOLD-   2262021 83D 1   1.00000     0.00000
 Structure written by MMmdl.
 44 47  0  0  0  0  0  0  0  0  1 V2000
  153.0933  140.7111  158.9638 O   0  0  0  0  0  0  0  0  0  0  0  0
  152.2701  141.2709  159.9641 C   0  0  0  0  0  0  0  0  0  0  0  0
  151.8646  142.7051  159.5776 C   0  0  1  0  0  0  0  0  0  0  0  0
  153.0279  143.6964  159.5259 C   0  0  0  0  0  0  0  0  0  0  0  0
  152.4477  144.8360  158.6897 C   0  0  2  0  0  0  0  0  0  0  0  0
  151.7870  145.6792  159.4841 F   0  0  0  0  0  0  0  0  0  0  0  0
  151.4494  144.1460  157.7487 C   0  0  0  0  0  0  0  0  0  0  0  0
  151.2872  142.7811  158.2409 N   0  0  0  0  0  0  0  0  0  0  0  0
  150.0461  142.2670  158.0987 C   0  0  0  0  0  0  0  0  0  0  0  0
  149.8319  141.2086  157.2737 N   0  0  0  0  0  0  0  0  0  0  0  0
  148.6002  140.7061  157.1432 C   0  0  0  0  0  0  0  0  0  0  0  0
  147.4688  141.1048  157.7298 N   0  0  0  0  0  0  0  0  0  0  0  0
  147.6829  142.1745  158.5496 C   0  0  0  0  0  0  0  0  0  0  0  0
  148.9336  142.8064  158.7936 C   0  0  0  0  0  0  0  0  0  0  0  0
  148.7764  143.8492  159.6961 N   0  0  0  0  0  0  0  0  0  0  0  0
  147.5019  143.8315  159.9758 C   0  0  0  0  0  0  0  0  0  0  0  0
  146.7641  142.8731  159.3151 N   0  0  0  0  0  0  0  0  0  0  0  0
  145.3342  142.6296  159.4458 C   0  0  0  0  0  0  0  0  0  0  0  0
  144.8067  142.5566  160.9029 C   0  0  1  0  0  0  0  0  0  0  0  0
  145.5518  141.5405  161.5494 O   0  0  0  0  0  0  0  0  0  0  0  0
  144.9604  143.8400  161.7200 C   0  0  0  0  0  0  0  0  0  0  0  0
  143.7955  143.7641  162.6973 C   0  0  0  0  0  0  0  0  0  0  0  0
  142.7561  143.2406  161.8900 O   0  0  0  0  0  0  0  0  0  0  0  0
  143.3062  142.2236  161.0600 C   0  0  0  0  0  0  0  0  0  0  0  0
  151.1307  143.0712  160.2981 H   0  0  0  0  0  0  0  0  0  0  0  0
  153.2083  145.4114  158.1614 H   0  0  0  0  0  0  0  0  0  0  0  0
  153.9816  140.9966  159.1120 H   0  0  0  0  0  0  0  0  0  0  0  0
  151.3917  140.6409  160.1079 H   0  0  0  0  0  0  0  0  0  0  0  0
  152.8270  141.2660  160.9016 H   0  0  0  0  0  0  0  0  0  0  0  0
  153.3641  144.0169  160.5124 H   0  0  0  0  0  0  0  0  0  0  0  0
  153.8785  143.2537  159.0052 H   0  0  0  0  0  0  0  0  0  0  0  0
  150.5081  144.6955  157.6930 H   0  0  0  0  0  0  0  0  0  0  0  0
  151.8575  144.0952  156.7389 H   0  0  0  0  0  0  0  0  0  0  0  0
  148.5078  139.8645  156.4729 H   0  0  0  0  0  0  0  0  0  0  0  0
  147.0617  144.5260  160.6766 H   0  0  0  0  0  0  0  0  0  0  0  0
  144.8092  143.4163  158.9020 H   0  0  0  0  0  0  0  0  0  0  0  0
  145.1062  141.6997  158.9230 H   0  0  0  0  0  0  0  0  0  0  0  0
  145.0691  141.2520  162.3088 H   0  0  0  0  0  0  0  0  0  0  0  0
  145.9286  143.9343  162.2135 H   0  0  0  0  0  0  0  0  0  0  0  0
  144.8212  144.7245  161.1021 H   0  0  0  0  0  0  0  0  0  0  0  0
  144.0108  143.0774  163.5176 H   0  0  0  0  0  0  0  0  0  0  0  0
  143.5303  144.7350  163.1161 H   0  0  0  0  0  0  0  0  0  0  0  0
  142.7647  142.2036  160.1173 H   0  0  0  0  0  0  0  0  0  0  0  0
  143.1522  141.2529  161.5345 H   0  0  0  0  0  0  0  0  0  0  0  0
  1  2  1  0  0  0  0
  1 27  1  0  0  0  0
  2  3  1  0  0  0  0
  2 28  1  0  0  0  0
  2 29  1  0  0  0  0
  3 25  1  0  0  0  0
  3  8  1  0  0  0  0
  3  4  1  0  0  0  0
  4  5  1  0  0  0  0
  4 30  1  0  0  0  0
  4 31  1  0  0  0  0
  5 26  1  0  0  0  0
  5  6  1  0  0  0  0
  5  7  1  0  0  0  0
  7  8  1  0  0  0  0
  7 32  1  0  0  0  0
  7 33  1  0  0  0  0
  8  9  1  0  0  0  0
  9 14  1  0  0  0  0
  9 10  2  0  0  0  0
 10 11  1  0  0  0  0
 11 12  2  0  0  0  0
 11 34  1  0  0  0  0
 12 13  1  0  0  0  0
 13 17  1  0  0  0  0
 13 14  2  0  0  0  0
 14 15  1  0  0  0  0
 15 16  2  0  0  0  0
 16 17  1  0  0  0  0
 16 35  1  0  0  0  0
 17 18  1  0  0  0  0
 18 19  1  0  0  0  0
 18 36  1  0  0  0  0
 18 37  1  0  0  0  0
 19 24  1  0  0  0  0
 19 20  1  0  0  0  0
 19 21  1  0  0  0  0
 20 38  1  0  0  0  0
 21 22  1  0  0  0  0
 21 39  1  0  0  0  0
 21 40  1  0  0  0  0
 22 23  1  0  0  0  0
 22 41  1  0  0  0  0
 22 42  1  0  0  0  0
 23 24  1  0  0  0  0
 24 43  1  0  0  0  0
 24 44  1  0  0  0  0
M  END
> <s_m_source_file>
AV-unprocessed.smi

> <i_m_source_file_index>
255

> <i_lp_mmshare_version>
43012

> <i_f3d_flags>
0

> <s_epik_input>
W09IXVtDSDJdW0NAQEhdMVtDSDJdW0NASF0oRilbQ0gyXU4xYyhuW2NIXW4yKWMoYzIzKW5bY0hdbjNbQ0gyXVtDQEBdNChbT0hdKVtDSDJdW0NIMl1PW0NIMl00

> <s_epik_cmdline>
J2VwaWtfcHl0aG9uJywgJy1waCcsICc3LjAnLCAnLXRuJywgJzgnLCAnLW1hJywgJzIwMCcsICctbWV0YWxfYmluZGluZycsICctaW1hZScsICc8aW5maWxlLm1hZT4nLCAnLW9tYWUnLCAnPG91dGZpbGUubWFlPic=

> <r_lp_tautomer_probability>
1

> <r_epik_Ionization_Penalty>
0.0058098

> <r_epik_Ionization_Penalty_Charging>
0

> <r_epik_Ionization_Penalty_Neutral>
0.0058098

> <r_epik_State_Penalty>
0.00411166

> <r_epik_Charging_Adjusted_Penalty>
0.00411166

> <i_epik_Tot_Q>
0

> <i_epik_Tot_abs_Q>
0

> <r_epik_Metal_State_Penalty>
-0

> <b_epik_Metal_Only>
0

> <s_lp_Force_Field>
OPLS_2005

> <r_lp_Energy>
51.0345

> <b_lp_Chiralities_Consistent>
1

> <s_lp_Variant>
AV-unprocessed.smi:255-2

> <Gold.Version>
5.8.1

> <Gold.Id.Protein>
6NUR|6NUR_protein|mol2

> <Gold.PLP.Fitness>
46.7561

> <Gold.PLP.PLP>
-44.8407

> <Gold.PLP.part.hbond>
-2.5597

> <Gold.PLP.part.metal>
0.0000

> <Gold.PLP.part.buried>
-6.8642

> <Gold.PLP.part.nonpolar>
-36.1945

> <Gold.PLP.part.repulsive>
0.5010

> <Gold.PLP.ligand.clash>
0.0000

> <Gold.PLP.ligand.torsion>
0.1817

> <Gold.PLP.Chemscore.Hbond>
0.7360

> <Gold.PLP.Chemscore.CHOScore>
0.0000

> <Gold.PLP.Chemscore.Metal>
0.0000

> <Gold.Chemscore.Hbonds>
donor molecule, donor type, donor heavy atom, donor atom, acceptor molecule, acceptor atom, score
      P1  H  6934  6946       L1    20  0.56

> <Gold.PLP.Chemscore.Internal.Correction>
0.0709

> <Gold.Rescore>
     Score         DG    S(hbond)    S(metal)    S(lipo)     H(rot)  DE(clash)    DE(int)     intcor
      8.68      -8.89       0.77        0.00      79.96       3.33       0.00       0.20       ----

> <Gold.Chemscore.Fitness>
8.6825

> <Gold.Chemscore.DG>
-8.8858

> <Gold.Chemscore.ZeroCoef>
-5.4800

> <Gold.Chemscore.Hbond>
0.7690

> <Gold.Chemscore.Metal>
0.0000

> <Gold.Chemscore.Lipo>
79.9598

> <Gold.Chemscore.Internal_Hbond>
0.0000

> <Gold.Chemscore.DEClash>
0.0000

> <Gold.Chemscore.DEInternal>
0.2033

> <Gold.Chemscore.Rot>
3.3273

> <Gold.Chemscore.Internal.Correction>
   9.000000E+99

> <Gold.Chemscore.Hbonds>
donor molecule, donor type, donor heavy atom, donor atom, acceptor molecule, acceptor atom, score
      P1  H  6934  6946       L1    20  0.55

> <Gold.Chemscore.Hbond.Weighted>
-2.5684

> <Gold.Chemscore.Metal.Weighted>
-0.0000

> <Gold.Chemscore.Lipo.Weighted>
-9.3553

> <Gold.Chemscore.Internal_Hbond.Weighted>
0.0000

> <Gold.Chemscore.DEClash.Weighted>
0.0000

> <Gold.Chemscore.DEInternal.Weighted>
0.2033

> <Gold.Chemscore.Rot.Weighted>
8.5179

> <Gold.Chemscore.Internal.Correction.Weighted>
   9.000000E+99

> <Gold.Protein.RotatedTorsions>
[ 6907 6896 6895 6894 ] final  124.64 input  -60.11 | X-H torsion
[ 7974 7965 7964 7962 ] final  170.52 input  175.53 | X-H torsion
[ 8008 7997 7996 7995 ] final  160.97 input   59.86 | X-H torsion
[ 10167 10162 10161 10158 ] final    1.07 input  -65.29 | X-H torsion
[ 10718 10713 10712 10709 ] final  142.33 input   66.30 | X-H torsion
[ 10763 10752 10751 10750 ] final -130.39 input  -60.55 | X-H torsion
[ 11005 11000 10999 10996 ] final  125.73 input  -57.11 | X-H torsion

> <Gold.Protein.ActiveResidues>
 VAL166  LYS551  ARG553  GLY616  TRP617  ASP618  TYR619  PRO620  LYS621  CYS622 
 ASP623  PHE694  ASN695  SER759  ASP760  ASP761  ALA762  ILE779  LEU786  VAL792 
 PHE793  MET794  SER795  GLU796  ALA797  LYS798  CYS799  TRP800  GLU811  SER814 

> <Gold.Protein.RotatedAtoms>
  152.4061  133.6891  159.6357 H   0  0  0  0  0  0  0  0  0  0  0  0  # atno 6907 bound_to 6896
  150.7946  133.8707  159.3266 H   0  0  0  0  0  0  0  0  0  0  0  0  # atno 6908 bound_to 6896
  151.6461  135.1009  160.0202 H   0  0  0  0  0  0  0  0  0  0  0  0  # atno 6909 bound_to 6896
  144.7321  139.9214  143.6420 H   0  0  0  0  0  0  0  0  0  0  0  0  # atno 7974 bound_to 7965
  156.2136  140.1790  156.7640 H   0  0  0  0  0  0  0  0  0  0  0  0  # atno 8008 bound_to 7997
  154.5758  140.0674  156.9061 H   0  0  0  0  0  0  0  0  0  0  0  0  # atno 8009 bound_to 7997
  155.2591  140.3334  155.4277 H   0  0  0  0  0  0  0  0  0  0  0  0  # atno 8010 bound_to 7997
  140.6700  143.7076  150.7903 H   0  0  0  0  0  0  0  0  0  0  0  0  # atno 10167 bound_to 10162
  157.3818  131.0993  151.0731 H   0  0  0  0  0  0  0  0  0  0  0  0  # atno 10718 bound_to 10713
  154.8755  135.3864  154.4075 H   0  0  0  0  0  0  0  0  0  0  0  0  # atno 10763 bound_to 10752
  153.4793  135.7030  153.5953 H   0  0  0  0  0  0  0  0  0  0  0  0  # atno 10764 bound_to 10752
  153.4375  135.3864  155.2176 H   0  0  0  0  0  0  0  0  0  0  0  0  # atno 10765 bound_to 10752
  139.9421  134.9634  156.8601 H   0  0  0  0  0  0  0  0  0  0  0  0  # atno 11005 bound_to 11000
  146.0927  139.3917  143.0396 LP  0  0  0  0  0  0  0  0  0  0  0  0  # atno 17320 bound_to 7965
  145.7689  140.9905  143.1160 LP  0  0  0  0  0  0  0  0  0  0  0  0  # atno 17321 bound_to 7965
  140.0760  143.5015  152.2555 LP  0  0  0  0  0  0  0  0  0  0  0  0  # atno 17342 bound_to 10162
  139.5964  144.7568  151.3277 LP  0  0  0  0  0  0  0  0  0  0  0  0  # atno 17343 bound_to 10162
  157.1798  130.6304  149.5668 LP  0  0  0  0  0  0  0  0  0  0  0  0  # atno 17370 bound_to 10713
  155.9777  130.4757  150.6612 LP  0  0  0  0  0  0  0  0  0  0  0  0  # atno 17371 bound_to 10713
  140.5927  134.0247  155.7506 LP  0  0  0  0  0  0  0  0  0  0  0  0  # atno 17394 bound_to 11000
  141.1058  133.9695  157.2998 LP  0  0  0  0  0  0  0  0  0  0  0  0  # atno 17395 bound_to 11000

$$$$
