AV-unprocessed.smi:569|AV-procd|sdf|2960|dock8
  -GOLD-   2262023463D 1   1.00000     0.00000
 Structure written by MMmdl.
 37 38  0  0  0  0  0  0  0  0  1 V2000
  152.9136  142.5040  161.8334 C   0  0  0  0  0  0  0  0  0  0  0  0
  152.4014  143.3212  160.6974 C   0  0  0  0  0  0  0  0  0  0  0  0
  152.3017  142.8645  159.4466 N   0  0  0  0  0  0  0  0  0  0  0  0
  151.7927  143.8203  158.5614 C   0  0  0  0  0  0  0  0  0  0  0  0
  151.5952  143.4726  157.1132 C   0  0  0  0  0  0  0  0  0  0  0  0
  150.8534  142.1406  156.9932 C   0  0  0  0  0  0  0  0  0  0  0  0
  151.3351  141.1168  157.4774 O   0  0  0  0  0  0  0  0  0  0  0  0
  149.6721  142.1762  156.3577 N   0  0  0  0  0  0  0  0  0  0  0  0
  148.7376  141.0618  156.2233 C   0  0  2  0  0  0  0  0  0  0  0  0
  148.4817  140.7687  154.7329 C   0  0  0  0  0  0  0  0  0  0  0  0
  147.6882  141.8966  154.0470 C   0  0  0  0  0  0  0  0  0  0  0  0
  146.3632  142.1899  154.7776 C   0  0  2  0  0  0  0  0  0  0  0  0
  145.5910  143.3305  154.0996 C   0  0  0  0  0  0  0  0  0  0  0  0
  146.6189  142.4929  156.2667 C   0  0  0  0  0  0  0  0  0  0  0  0
  147.4082  141.3610  156.9487 C   0  0  0  0  0  0  0  0  0  0  0  0
  151.5182  145.0228  159.1666 C   0  0  0  0  0  0  0  0  0  0  0  0
  151.8712  144.9894  160.8718 S   0  0  0  0  0  0  0  0  0  0  0  0
  152.8229  141.4405  161.6106 H   0  0  0  0  0  0  0  0  0  0  0  0
  152.3440  142.7198  162.7375 H   0  0  0  0  0  0  0  0  0  0  0  0
  153.9628  142.7364  162.0155 H   0  0  0  0  0  0  0  0  0  0  0  0
  151.0239  144.2497  156.6043 H   0  0  0  0  0  0  0  0  0  0  0  0
  152.5526  143.4033  156.5944 H   0  0  0  0  0  0  0  0  0  0  0  0
  149.3675  143.0643  155.9868 H   0  0  0  0  0  0  0  0  0  0  0  0
  149.1938  140.1770  156.6709 H   0  0  0  0  0  0  0  0  0  0  0  0
  149.4268  140.6077  154.2127 H   0  0  0  0  0  0  0  0  0  0  0  0
  147.9241  139.8356  154.6427 H   0  0  0  0  0  0  0  0  0  0  0  0
  148.2957  142.8018  154.0080 H   0  0  0  0  0  0  0  0  0  0  0  0
  147.4880  141.6203  153.0113 H   0  0  0  0  0  0  0  0  0  0  0  0
  145.7437  141.2937  154.7198 H   0  0  0  0  0  0  0  0  0  0  0  0
  146.1578  144.2618  154.1239 H   0  0  0  0  0  0  0  0  0  0  0  0
  144.6371  143.5082  154.5969 H   0  0  0  0  0  0  0  0  0  0  0  0
  145.3796  143.0960  153.0560 H   0  0  0  0  0  0  0  0  0  0  0  0
  147.1645  143.4326  156.3658 H   0  0  0  0  0  0  0  0  0  0  0  0
  145.6703  142.6359  156.7851 H   0  0  0  0  0  0  0  0  0  0  0  0
  146.7969  140.4579  156.9603 H   0  0  0  0  0  0  0  0  0  0  0  0
  147.5903  141.6126  157.9942 H   0  0  0  0  0  0  0  0  0  0  0  0
  151.1196  145.9194  158.7160 H   0  0  0  0  0  0  0  0  0  0  0  0
  1  2  1  0  0  0  0
  1 18  1  0  0  0  0
  1 19  1  0  0  0  0
  1 20  1  0  0  0  0
  2 17  1  0  0  0  0
  2  3  2  0  0  0  0
  3  4  1  0  0  0  0
  4  5  1  0  0  0  0
  4 16  2  0  0  0  0
  5  6  1  0  0  0  0
  5 21  1  0  0  0  0
  5 22  1  0  0  0  0
  6  7  2  0  0  0  0
  6  8  1  0  0  0  0
  8  9  1  0  0  0  0
  8 23  1  0  0  0  0
  9 15  1  0  0  0  0
  9 10  1  0  0  0  0
  9 24  1  0  0  0  0
 10 11  1  0  0  0  0
 10 25  1  0  0  0  0
 10 26  1  0  0  0  0
 11 12  1  0  0  0  0
 11 27  1  0  0  0  0
 11 28  1  0  0  0  0
 12 13  1  0  0  0  0
 12 14  1  0  0  0  0
 12 29  1  0  0  0  0
 13 30  1  0  0  0  0
 13 31  1  0  0  0  0
 13 32  1  0  0  0  0
 14 15  1  0  0  0  0
 14 33  1  0  0  0  0
 14 34  1  0  0  0  0
 15 35  1  0  0  0  0
 15 36  1  0  0  0  0
 16 17  1  0  0  0  0
 16 37  1  0  0  0  0
M  END
> <s_m_source_file>
AV-unprocessed.smi

> <i_m_source_file_index>
569

> <i_lp_mmshare_version>
43012

> <i_f3d_flags>
0

> <s_epik_input>
W0NIM11jMW5jKFtjSF1zMSlbQ0gyXUMoPU8pW05IXVtDQEBIXTJbQ0gyXVtDSDJdW0NAQEhdKFtDSDNdKVtDSDJdW0NIMl0y

> <s_epik_cmdline>
J2VwaWtfcHl0aG9uJywgJy1waCcsICc3LjAnLCAnLXRuJywgJzgnLCAnLW1hJywgJzIwMCcsICctbWV0YWxfYmluZGluZycsICctaW1hZScsICc8aW5maWxlLm1hZT4nLCAnLW9tYWUnLCAnPG91dGZpbGUubWFlPic=

> <r_lp_tautomer_probability>
1

> <r_epik_Ionization_Penalty>
6.63234e-05

> <r_epik_Ionization_Penalty_Charging>
0

> <r_epik_Ionization_Penalty_Neutral>
6.63234e-05

> <r_epik_State_Penalty>
-0

> <r_epik_Charging_Adjusted_Penalty>
0

> <i_epik_Tot_Q>
0

> <i_epik_Tot_abs_Q>
0

> <r_epik_Metal_State_Penalty>
-0

> <b_epik_Metal_Only>
0

> <s_lp_Force_Field>
OPLS_2005

> <r_lp_Energy>
5.61603

> <b_lp_Chiralities_Consistent>
1

> <s_lp_Variant>
AV-unprocessed.smi:569-2

> <Gold.Version>
5.8.1

> <Gold.Id.Protein>
6NUR|6NUR_protein|mol2

> <Gold.PLP.Fitness>
43.5105

> <Gold.PLP.PLP>
-40.7603

> <Gold.PLP.part.hbond>
-1.0000

> <Gold.PLP.part.metal>
0.0000

> <Gold.PLP.part.buried>
-5.5935

> <Gold.PLP.part.nonpolar>
-34.5458

> <Gold.PLP.part.repulsive>
0.0961

> <Gold.PLP.ligand.clash>
0.0000

> <Gold.PLP.ligand.torsion>
0.1269

> <Gold.PLP.Chemscore.Hbond>
1.0000

> <Gold.PLP.Chemscore.CHOScore>
0.0000

> <Gold.PLP.Chemscore.Metal>
0.0000

> <Gold.Chemscore.Hbonds>
donor molecule, donor type, donor heavy atom, donor atom, acceptor molecule, acceptor atom, score
      L1  H     8    23       P1  8028  1.00

> <Gold.PLP.Chemscore.Internal.Correction>
0.0039

> <Gold.Rescore>
     Score         DG    S(hbond)    S(metal)    S(lipo)     H(rot)  DE(clash)    DE(int)     intcor
     15.82     -18.33       1.00        0.00     108.93       1.26       1.01       1.50       ----

> <Gold.Chemscore.Fitness>
15.8218

> <Gold.Chemscore.DG>
-18.3317

> <Gold.Chemscore.ZeroCoef>
-5.4800

> <Gold.Chemscore.Hbond>
0.9992

> <Gold.Chemscore.Metal>
0.0000

> <Gold.Chemscore.Lipo>
108.9306

> <Gold.Chemscore.Internal_Hbond>
0.0000

> <Gold.Chemscore.DEClash>
1.0097

> <Gold.Chemscore.DEInternal>
1.5002

> <Gold.Chemscore.Rot>
1.2620

> <Gold.Chemscore.Internal.Correction>
   9.000000E+99

> <Gold.Chemscore.Hbonds>
donor molecule, donor type, donor heavy atom, donor atom, acceptor molecule, acceptor atom, score
      L1  H     8    23       P1  8028  1.00

> <Gold.Chemscore.Hbond.Weighted>
-3.3374

> <Gold.Chemscore.Metal.Weighted>
-0.0000

> <Gold.Chemscore.Lipo.Weighted>
-12.7449

> <Gold.Chemscore.Internal_Hbond.Weighted>
0.0000

> <Gold.Chemscore.DEClash.Weighted>
1.0097

> <Gold.Chemscore.DEInternal.Weighted>
1.5002

> <Gold.Chemscore.Rot.Weighted>
3.2306

> <Gold.Chemscore.Internal.Correction.Weighted>
   9.000000E+99

> <Gold.Protein.RotatedTorsions>
[ 6907 6896 6895 6894 ] final  170.59 input  -60.11 | X-H torsion
[ 7974 7965 7964 7962 ] final  -96.41 input  175.53 | X-H torsion
[ 8008 7997 7996 7995 ] final -167.76 input   59.86 | X-H torsion
[ 10167 10162 10161 10158 ] final    5.26 input  -65.29 | X-H torsion
[ 10718 10713 10712 10709 ] final -107.98 input   66.30 | X-H torsion
[ 10763 10752 10751 10750 ] final  132.83 input  -60.55 | X-H torsion
[ 11005 11000 10999 10996 ] final -141.52 input  -57.11 | X-H torsion

> <Gold.Protein.ActiveResidues>
 VAL166  LYS551  ARG553  GLY616  TRP617  ASP618  TYR619  PRO620  LYS621  CYS622 
 ASP623  PHE694  ASN695  SER759  ASP760  ASP761  ALA762  ILE779  LEU786  VAL792 
 PHE793  MET794  SER795  GLU796  ALA797  LYS798  CYS799  TRP800  GLU811  SER814 

> <Gold.Protein.RotatedAtoms>
  151.8137  133.3385  159.3562 H   0  0  0  0  0  0  0  0  0  0  0  0  # atno 6907 bound_to 6896
  150.7317  134.5639  159.5865 H   0  0  0  0  0  0  0  0  0  0  0  0  # atno 6908 bound_to 6896
  152.3056  134.7560  160.0399 H   0  0  0  0  0  0  0  0  0  0  0  0  # atno 6909 bound_to 6896
  145.3472  140.9470  143.2574 H   0  0  0  0  0  0  0  0  0  0  0  0  # atno 7974 bound_to 7965
  155.8821  140.1011  157.1478 H   0  0  0  0  0  0  0  0  0  0  0  0  # atno 8008 bound_to 7997
  154.4006  140.1327  156.4273 H   0  0  0  0  0  0  0  0  0  0  0  0  # atno 8009 bound_to 7997
  155.7631  140.3462  155.5210 H   0  0  0  0  0  0  0  0  0  0  0  0  # atno 8010 bound_to 7997
  140.6491  143.7589  150.7546 H   0  0  0  0  0  0  0  0  0  0  0  0  # atno 10167 bound_to 10162
  156.0463  130.5690  150.7897 H   0  0  0  0  0  0  0  0  0  0  0  0  # atno 10718 bound_to 10713
  153.7971  135.3147  155.3385 H   0  0  0  0  0  0  0  0  0  0  0  0  # atno 10763 bound_to 10752
  154.8103  135.4671  154.0503 H   0  0  0  0  0  0  0  0  0  0  0  0  # atno 10764 bound_to 10752
  153.1839  135.6898  153.8528 H   0  0  0  0  0  0  0  0  0  0  0  0  # atno 10765 bound_to 10752
  140.8316  134.2510  157.4854 H   0  0  0  0  0  0  0  0  0  0  0  0  # atno 11005 bound_to 11000
  144.8745  139.4991  143.6752 LP  0  0  0  0  0  0  0  0  0  0  0  0  # atno 17320 bound_to 7965
  146.2983  139.7346  142.9110 LP  0  0  0  0  0  0  0  0  0  0  0  0  # atno 17321 bound_to 7965
  140.1236  143.4590  152.2298 LP  0  0  0  0  0  0  0  0  0  0  0  0  # atno 17342 bound_to 10162
  139.5704  144.7459  151.3905 LP  0  0  0  0  0  0  0  0  0  0  0  0  # atno 17343 bound_to 10162
  157.5341  131.0938  150.9915 LP  0  0  0  0  0  0  0  0  0  0  0  0  # atno 17370 bound_to 10713
  157.0214  130.5675  149.5332 LP  0  0  0  0  0  0  0  0  0  0  0  0  # atno 17371 bound_to 10713
  139.8705  134.9589  156.4315 LP  0  0  0  0  0  0  0  0  0  0  0  0  # atno 17394 bound_to 11000
  140.8992  133.7792  155.9660 LP  0  0  0  0  0  0  0  0  0  0  0  0  # atno 17395 bound_to 11000

$$$$
