AV-unprocessed.smi:688|AV-procd|sdf|3354|dock6
  -GOLD-   22720 0333D 1   1.00000     0.00000
 Structure written by MMmdl.
 36 37  0  0  0  0  0  0  0  0  1 V2000
  143.8802  144.8292  156.2607 O   0  0  0  0  0  0  0  0  0  0  0  0
  144.6580  144.0098  155.7757 C   0  0  0  0  0  0  0  0  0  0  0  0
  145.1040  142.9324  156.5473 N   0  0  0  0  0  0  0  0  0  0  0  0
  145.9824  141.9360  156.1199 C   0  0  0  0  0  0  0  0  0  0  0  0
  146.3154  141.0374  156.8929 O   0  0  0  0  0  0  0  0  0  0  0  0
  146.4491  142.0270  154.7881 N   0  0  0  0  0  0  0  0  0  0  0  0
  147.3676  141.0167  154.3197 C   0  0  0  0  0  0  0  0  0  0  0  0
  148.8510  141.4281  154.4533 C   0  0  2  0  0  0  0  0  0  0  0  0
  149.5036  141.1018  153.2414 O   0  0  0  0  0  0  0  0  0  0  0  0
  149.5576  140.6509  155.5765 C   0  0  0  0  0  0  0  0  0  0  0  0
  150.8676  141.1665  155.7483 O   0  0  0  0  0  0  0  0  0  0  0  0
  151.6488  140.3960  156.6478 C   0  0  0  0  0  0  0  0  0  0  0  0
  151.8401  141.0913  157.9828 C   0  0  0  0  0  0  0  0  0  0  0  0
  151.2672  142.3596  158.2192 C   0  0  0  0  0  0  0  0  0  0  0  0
  151.4634  143.0068  159.4547 C   0  0  0  0  0  0  0  0  0  0  0  0
  152.2394  142.3927  160.4571 C   0  0  0  0  0  0  0  0  0  0  0  0
  152.4798  143.1854  161.9706 Cl  0  0  0  0  0  0  0  0  0  0  0  0
  152.8216  141.1320  160.2216 C   0  0  0  0  0  0  0  0  0  0  0  0
  152.6250  140.4845  158.9862 C   0  0  0  0  0  0  0  0  0  0  0  0
  146.0395  143.0834  153.9894 C   0  0  0  0  0  0  0  0  0  0  0  0
  145.1896  144.0495  154.4138 C   0  0  0  0  0  0  0  0  0  0  0  0
  144.7258  145.3356  153.3579 Cl  0  0  0  0  0  0  0  0  0  0  0  0
  144.7641  142.8723  157.4962 H   0  0  0  0  0  0  0  0  0  0  0  0
  147.1397  140.1075  154.8805 H   0  0  0  0  0  0  0  0  0  0  0  0
  147.0963  140.7976  153.2852 H   0  0  0  0  0  0  0  0  0  0  0  0
  148.9360  142.4990  154.6430 H   0  0  0  0  0  0  0  0  0  0  0  0
  150.1505  140.4362  153.4181 H   0  0  0  0  0  0  0  0  0  0  0  0
  149.0176  140.7865  156.5149 H   0  0  0  0  0  0  0  0  0  0  0  0
  149.5733  139.5799  155.3663 H   0  0  0  0  0  0  0  0  0  0  0  0
  151.1715  139.4283  156.8108 H   0  0  0  0  0  0  0  0  0  0  0  0
  152.6331  140.2058  156.2176 H   0  0  0  0  0  0  0  0  0  0  0  0
  150.6748  142.8414  157.4551 H   0  0  0  0  0  0  0  0  0  0  0  0
  151.0188  143.9754  159.6315 H   0  0  0  0  0  0  0  0  0  0  0  0
  153.4204  140.6602  160.9867 H   0  0  0  0  0  0  0  0  0  0  0  0
  153.0780  139.5196  158.8122 H   0  0  0  0  0  0  0  0  0  0  0  0
  146.4168  143.1446  152.9784 H   0  0  0  0  0  0  0  0  0  0  0  0
  1  2  2  0  0  0  0
  2 21  1  0  0  0  0
  2  3  1  0  0  0  0
  3 23  1  0  0  0  0
  3  4  1  0  0  0  0
  4  5  2  0  0  0  0
  4  6  1  0  0  0  0
  6  7  1  0  0  0  0
  6 20  1  0  0  0  0
  7  8  1  0  0  0  0
  7 24  1  0  0  0  0
  7 25  1  0  0  0  0
  8  9  1  0  0  0  0
  8 10  1  0  0  0  0
  8 26  1  0  0  0  0
  9 27  1  0  0  0  0
 10 11  1  0  0  0  0
 10 28  1  0  0  0  0
 10 29  1  0  0  0  0
 11 12  1  0  0  0  0
 12 13  1  0  0  0  0
 12 30  1  0  0  0  0
 12 31  1  0  0  0  0
 13 19  1  0  0  0  0
 13 14  2  0  0  0  0
 14 15  1  0  0  0  0
 14 32  1  0  0  0  0
 15 16  2  0  0  0  0
 15 33  1  0  0  0  0
 16 17  1  0  0  0  0
 16 18  1  0  0  0  0
 18 19  2  0  0  0  0
 18 34  1  0  0  0  0
 19 35  1  0  0  0  0
 20 21  2  0  0  0  0
 20 36  1  0  0  0  0
 21 22  1  0  0  0  0
M  END
> <s_m_source_file>
AV-unprocessed.smi

> <i_m_source_file_index>
688

> <i_lp_mmshare_version>
43012

> <i_f3d_flags>
0

> <s_epik_input>
Tz1jMVtuSF1jKD1PKW4oW2NIXWMxQ2wpW0NIMl1bQ0BIXShbT0hdKVtDSDJdT1tDSDJdYzJbY0hdW2NIXWMoQ2wpW2NIXVtjSF0y

> <s_epik_cmdline>
J2VwaWtfcHl0aG9uJywgJy1waCcsICc3LjAnLCAnLXRuJywgJzgnLCAnLW1hJywgJzIwMCcsICctbWV0YWxfYmluZGluZycsICctaW1hZScsICc8aW5maWxlLm1hZT4nLCAnLW9tYWUnLCAnPG91dGZpbGUubWFlPic=

> <r_lp_tautomer_probability>
0.999537

> <r_epik_Ionization_Penalty>
0.0280571

> <r_epik_Ionization_Penalty_Charging>
0.028057

> <r_epik_Ionization_Penalty_Neutral>
6.25502e-08

> <r_epik_State_Penalty>
0.0230008

> <r_epik_Charging_Adjusted_Penalty>
0.0510579

> <i_epik_Tot_Q>
0

> <i_epik_Tot_abs_Q>
0

> <r_epik_Metal_State_Penalty>
2.1942

> <b_epik_Metal_Only>
0

> <s_lp_Force_Field>
OPLS_2005

> <r_lp_Energy>
17.1949

> <b_lp_Chiralities_Consistent>
1

> <s_lp_Variant>
AV-unprocessed.smi:688-1

> <Gold.Version>
5.8.1

> <Gold.Id.Protein>
6NUR|6NUR_protein|mol2

> <Gold.PLP.Fitness>
49.5130

> <Gold.PLP.PLP>
-48.7945

> <Gold.PLP.part.hbond>
-2.9311

> <Gold.PLP.part.metal>
0.0000

> <Gold.PLP.part.buried>
-6.3536

> <Gold.PLP.part.nonpolar>
-38.7443

> <Gold.PLP.part.repulsive>
0.1347

> <Gold.PLP.ligand.clash>
0.0000

> <Gold.PLP.ligand.torsion>
1.3816

> <Gold.PLP.Chemscore.Hbond>
1.1404

> <Gold.PLP.Chemscore.CHOScore>
0.0000

> <Gold.PLP.Chemscore.Metal>
0.0000

> <Gold.Chemscore.Hbonds>
donor molecule, donor type, donor heavy atom, donor atom, acceptor molecule, acceptor atom, score
      P1  H  7989  7998       L1    11  0.07
      P1  H  8011  8017       L1     9  1.00

> <Gold.PLP.Chemscore.Internal.Correction>
0.0604

> <Gold.Rescore>
     Score         DG    S(hbond)    S(metal)    S(lipo)     H(rot)  DE(clash)    DE(int)     intcor
     13.05     -14.49       0.91        0.00     115.57       2.94       0.01       1.43       ----

> <Gold.Chemscore.Fitness>
13.0489

> <Gold.Chemscore.DG>
-14.4902

> <Gold.Chemscore.ZeroCoef>
-5.4800

> <Gold.Chemscore.Hbond>
0.9050

> <Gold.Chemscore.Metal>
0.0000

> <Gold.Chemscore.Lipo>
115.5661

> <Gold.Chemscore.Internal_Hbond>
0.0000

> <Gold.Chemscore.DEClash>
0.0140

> <Gold.Chemscore.DEInternal>
1.4273

> <Gold.Chemscore.Rot>
2.9429

> <Gold.Chemscore.Internal.Correction>
   9.000000E+99

> <Gold.Chemscore.Hbonds>
donor molecule, donor type, donor heavy atom, donor atom, acceptor molecule, acceptor atom, score
      P1  H  7989  7998       L1    11  0.01
      P1  H  8011  8017       L1     9  0.84

> <Gold.Chemscore.Hbond.Weighted>
-3.0227

> <Gold.Chemscore.Metal.Weighted>
-0.0000

> <Gold.Chemscore.Lipo.Weighted>
-13.5212

> <Gold.Chemscore.Internal_Hbond.Weighted>
0.0000

> <Gold.Chemscore.DEClash.Weighted>
0.0140

> <Gold.Chemscore.DEInternal.Weighted>
1.4273

> <Gold.Chemscore.Rot.Weighted>
7.5337

> <Gold.Chemscore.Internal.Correction.Weighted>
   9.000000E+99

> <Gold.Protein.RotatedTorsions>
[ 6907 6896 6895 6894 ] final -153.87 input  -60.11 | X-H torsion
[ 7974 7965 7964 7962 ] final  108.38 input  175.53 | X-H torsion
[ 8008 7997 7996 7995 ] final -145.88 input   59.86 | X-H torsion
[ 10167 10162 10161 10158 ] final -118.69 input  -65.29 | X-H torsion
[ 10718 10713 10712 10709 ] final  167.67 input   66.30 | X-H torsion
[ 10763 10752 10751 10750 ] final  -58.58 input  -60.55 | X-H torsion
[ 11005 11000 10999 10996 ] final  -80.81 input  -57.11 | X-H torsion

> <Gold.Protein.ActiveResidues>
 VAL166  LYS551  ARG553  GLY616  TRP617  ASP618  TYR619  PRO620  LYS621  CYS622 
 ASP623  PHE694  ASN695  SER759  ASP760  ASP761  ALA762  ILE779  LEU786  VAL792 
 PHE793  MET794  SER795  GLU796  ALA797  LYS798  CYS799  TRP800  GLU811  SER814 

> <Gold.Protein.RotatedAtoms>
  151.2490  133.4360  159.2610 H   0  0  0  0  0  0  0  0  0  0  0  0  # atno 6907 bound_to 6896
  151.0635  134.9752  159.8282 H   0  0  0  0  0  0  0  0  0  0  0  0  # atno 6908 bound_to 6896
  152.5402  134.2439  159.8925 H   0  0  0  0  0  0  0  0  0  0  0  0  # atno 6909 bound_to 6896
  145.2814  139.2631  143.3914 H   0  0  0  0  0  0  0  0  0  0  0  0  # atno 7974 bound_to 7965
  155.5504  140.0616  157.2851 H   0  0  0  0  0  0  0  0  0  0  0  0  # atno 8008 bound_to 7997
  154.4422  140.1903  156.0725 H   0  0  0  0  0  0  0  0  0  0  0  0  # atno 8009 bound_to 7997
  156.0520  140.3283  155.7366 H   0  0  0  0  0  0  0  0  0  0  0  0  # atno 8010 bound_to 7997
  140.0548  143.5025  152.2063 H   0  0  0  0  0  0  0  0  0  0  0  0  # atno 10167 bound_to 10162
  157.0481  131.0306  151.2690 H   0  0  0  0  0  0  0  0  0  0  0  0  # atno 10718 bound_to 10713
  154.2403  135.6344  153.5205 H   0  0  0  0  0  0  0  0  0  0  0  0  # atno 10763 bound_to 10752
  152.9931  135.5540  154.5917 H   0  0  0  0  0  0  0  0  0  0  0  0  # atno 10764 bound_to 10752
  154.5421  135.2895  155.1060 H   0  0  0  0  0  0  0  0  0  0  0  0  # atno 10765 bound_to 10752
  141.1667  133.7167  156.8328 H   0  0  0  0  0  0  0  0  0  0  0  0  # atno 11005 bound_to 11000
  146.3215  140.3282  142.8638 LP  0  0  0  0  0  0  0  0  0  0  0  0  # atno 17320 bound_to 7965
  144.9250  140.7911  143.5724 LP  0  0  0  0  0  0  0  0  0  0  0  0  # atno 17321 bound_to 7965
  139.5931  144.7557  151.3353 LP  0  0  0  0  0  0  0  0  0  0  0  0  # atno 17342 bound_to 10162
  140.7200  143.7162  150.7731 LP  0  0  0  0  0  0  0  0  0  0  0  0  # atno 17343 bound_to 10162
  157.5051  130.7904  149.7646 LP  0  0  0  0  0  0  0  0  0  0  0  0  # atno 17370 bound_to 10713
  156.0016  130.3877  150.2584 LP  0  0  0  0  0  0  0  0  0  0  0  0  # atno 17371 bound_to 10713
  140.2039  134.8877  157.3200 LP  0  0  0  0  0  0  0  0  0  0  0  0  # atno 17394 bound_to 11000
  140.2158  134.4083  155.7590 LP  0  0  0  0  0  0  0  0  0  0  0  0  # atno 17395 bound_to 11000

$$$$
