AV-unprocessed.smi:101|AV-procd|sdf|923|dock3
  -GOLD-   2262017433D 1   1.00000     0.00000
 Structure written by MMmdl.
 44 46  0  0  0  0  0  0  0  0  1 V2000
  145.3798  136.9728  156.0355 C   0  0  0  0  0  0  0  0  0  0  0  0
  146.5403  136.1914  156.6287 C   0  0  0  0  0  0  0  0  0  0  0  0
  147.8351  136.4824  156.3431 C   0  0  0  0  0  0  0  0  0  0  0  0
  148.9148  135.7838  156.8654 N   0  0  0  0  0  0  0  0  0  0  0  0
  150.3316  136.1766  156.5060 C   0  0  2  0  0  0  0  0  0  0  0  0
  150.4221  137.5637  156.5782 O   0  0  0  0  0  0  0  0  0  0  0  0
  151.3180  138.0190  155.5775 C   0  0  2  0  0  0  0  0  0  0  0  0
  151.0353  139.4926  155.2655 C   0  0  0  0  0  0  0  0  0  0  0  0
  151.4935  140.2909  156.3441 O   0  0  0  0  0  0  0  0  0  0  0  0
  150.9709  141.5159  156.5458 C   0  0  0  0  0  0  0  0  0  0  0  0
  150.0838  142.0031  155.8423 O   0  0  0  0  0  0  0  0  0  0  0  0
  151.5788  142.2220  157.7105 C   0  0  0  0  0  0  0  0  0  0  0  0
  151.4979  143.6323  157.7843 C   0  0  0  0  0  0  0  0  0  0  0  0
  152.0615  144.3273  158.8718 C   0  0  0  0  0  0  0  0  0  0  0  0
  152.7123  143.6205  159.8998 C   0  0  0  0  0  0  0  0  0  0  0  0
  152.7996  142.2174  159.8382 C   0  0  0  0  0  0  0  0  0  0  0  0
  152.2370  141.5206  158.7512 C   0  0  0  0  0  0  0  0  0  0  0  0
  151.0393  137.0794  154.4014 C   0  0  1  0  0  0  0  0  0  0  0  0
  152.1779  136.9849  153.5682 O   0  0  0  0  0  0  0  0  0  0  0  0
  150.7477  135.7444  155.0802 C   0  0  2  0  0  0  0  0  0  0  0  0
  149.7550  135.0270  154.3685 O   0  0  0  0  0  0  0  0  0  0  0  0
  148.6831  134.6972  157.7337 C   0  0  0  0  0  0  0  0  0  0  0  0
  149.5878  134.0156  158.2138 O   0  0  0  0  0  0  0  0  0  0  0  0
  147.3541  134.4015  158.0319 N   0  0  0  0  0  0  0  0  0  0  0  0
  146.2381  135.0823  157.5382 C   0  0  0  0  0  0  0  0  0  0  0  0
  145.1109  134.7265  157.8778 O   0  0  0  0  0  0  0  0  0  0  0  0
  147.1822  133.6264  158.6558 H   0  0  0  0  0  0  0  0  0  0  0  0
  145.7237  137.7635  155.3679 H   0  0  0  0  0  0  0  0  0  0  0  0
  144.7887  137.4360  156.8263 H   0  0  0  0  0  0  0  0  0  0  0  0
  144.7284  136.3119  155.4623 H   0  0  0  0  0  0  0  0  0  0  0  0
  148.0380  137.2984  155.6637 H   0  0  0  0  0  0  0  0  0  0  0  0
  150.9929  135.7697  157.2726 H   0  0  0  0  0  0  0  0  0  0  0  0
  152.3408  137.8834  155.9352 H   0  0  0  0  0  0  0  0  0  0  0  0
  151.5628  139.7894  154.3579 H   0  0  0  0  0  0  0  0  0  0  0  0
  149.9689  139.6473  155.0940 H   0  0  0  0  0  0  0  0  0  0  0  0
  151.0027  144.1969  157.0071 H   0  0  0  0  0  0  0  0  0  0  0  0
  151.9937  145.4042  158.9171 H   0  0  0  0  0  0  0  0  0  0  0  0
  153.1440  144.1537  160.7339 H   0  0  0  0  0  0  0  0  0  0  0  0
  153.2994  141.6738  160.6267 H   0  0  0  0  0  0  0  0  0  0  0  0
  152.3212  140.4436  158.7356 H   0  0  0  0  0  0  0  0  0  0  0  0
  150.1733  137.4284  153.8356 H   0  0  0  0  0  0  0  0  0  0  0  0
  151.9398  137.2651  152.6977 H   0  0  0  0  0  0  0  0  0  0  0  0
  151.6476  135.1337  155.1686 H   0  0  0  0  0  0  0  0  0  0  0  0
  149.5009  135.5369  153.6144 H   0  0  0  0  0  0  0  0  0  0  0  0
  1  2  1  0  0  0  0
  1 28  1  0  0  0  0
  1 29  1  0  0  0  0
  1 30  1  0  0  0  0
  2 25  1  0  0  0  0
  2  3  2  0  0  0  0
  3  4  1  0  0  0  0
  3 31  1  0  0  0  0
  4  5  1  0  0  0  0
  4 22  1  0  0  0  0
  5 20  1  0  0  0  0
  5  6  1  0  0  0  0
  5 32  1  0  0  0  0
  6  7  1  0  0  0  0
  7  8  1  0  0  0  0
  7 18  1  0  0  0  0
  7 33  1  0  0  0  0
  8  9  1  0  0  0  0
  8 34  1  0  0  0  0
  8 35  1  0  0  0  0
  9 10  1  0  0  0  0
 10 11  2  0  0  0  0
 10 12  1  0  0  0  0
 12 17  1  0  0  0  0
 12 13  2  0  0  0  0
 13 14  1  0  0  0  0
 13 36  1  0  0  0  0
 14 15  2  0  0  0  0
 14 37  1  0  0  0  0
 15 16  1  0  0  0  0
 15 38  1  0  0  0  0
 16 17  2  0  0  0  0
 16 39  1  0  0  0  0
 17 40  1  0  0  0  0
 18 19  1  0  0  0  0
 18 20  1  0  0  0  0
 18 41  1  0  0  0  0
 19 42  1  0  0  0  0
 20 21  1  0  0  0  0
 20 43  1  0  0  0  0
 21 44  1  0  0  0  0
 22 23  2  0  0  0  0
 22 24  1  0  0  0  0
 24 27  1  0  0  0  0
 24 25  1  0  0  0  0
 25 26  2  0  0  0  0
M  END
> <s_m_source_file>
AV-unprocessed.smi

> <i_m_source_file_index>
101

> <i_lp_mmshare_version>
43012

> <i_f3d_flags>
0

> <s_epik_input>
Tz1jMVtuSF1jKD1PKW4oW2NIXWMxW0NIM10pW0NAQEhdMk9bQ0BIXShbQ0BASF0oW09IXSlbQ0BIXTJbT0hdKVtDSDJdT0MoPU8pYzNbY0hdW2NIXVtjSF1bY0hdW2NIXTM=

> <s_epik_cmdline>
J2VwaWtfcHl0aG9uJywgJy1waCcsICc3LjAnLCAnLXRuJywgJzgnLCAnLW1hJywgJzIwMCcsICctbWV0YWxfYmluZGluZycsICctaW1hZScsICc8aW5maWxlLm1hZT4nLCAnLW9tYWUnLCAnPG91dGZpbGUubWFlPic=

> <r_lp_tautomer_probability>
0.999537

> <r_epik_Ionization_Penalty>
0.00263537

> <r_epik_Ionization_Penalty_Charging>
0.00263428

> <r_epik_Ionization_Penalty_Neutral>
1.09111e-06

> <r_epik_State_Penalty>
0.00183335

> <r_epik_Charging_Adjusted_Penalty>
0.00446763

> <i_epik_Tot_Q>
0

> <i_epik_Tot_abs_Q>
0

> <r_epik_Metal_State_Penalty>
1.00528

> <b_epik_Metal_Only>
0

> <s_epik_Chemistry_Notes>
This compound has an ester and may undergo hydrolysis at high or low pH. This compound contains an acetal/aminal-like group ( X-CH(R)-Y where X, Y are N, S, or O) that may be acid/base labile, releasing an aldehyde.

> <s_lp_Force_Field>
OPLS_2005

> <r_lp_Energy>
35.5527

> <b_lp_Chiralities_Consistent>
1

> <s_lp_Variant>
AV-unprocessed.smi:101-11

> <Gold.Version>
5.8.1

> <Gold.Id.Protein>
6NUR|6NUR_protein|mol2

> <Gold.PLP.Fitness>
45.4353

> <Gold.PLP.PLP>
-36.2628

> <Gold.PLP.part.hbond>
-3.9226

> <Gold.PLP.part.metal>
0.0000

> <Gold.PLP.part.buried>
-5.1261

> <Gold.PLP.part.nonpolar>
-28.6803

> <Gold.PLP.part.repulsive>
1.2804

> <Gold.PLP.ligand.clash>
0.0000

> <Gold.PLP.ligand.torsion>
0.7867

> <Gold.PLP.Chemscore.Hbond>
3.4480

> <Gold.PLP.Chemscore.CHOScore>
0.0000

> <Gold.PLP.Chemscore.Metal>
0.0000

> <Gold.Chemscore.Hbonds>
donor molecule, donor type, donor heavy atom, donor atom, acceptor molecule, acceptor atom, score
      L1  H    19    42       P1  7949  0.38
      L1  H    21    44       P1  7948  0.95
      P1  H  6896  6907       L1    23  1.00
      P1  H 10752 10765       L1    19  1.00

> <Gold.PLP.Chemscore.Internal.Correction>
0.4019

> <Gold.Rescore>
     Score         DG    S(hbond)    S(metal)    S(lipo)     H(rot)  DE(clash)    DE(int)     intcor
     18.49     -19.27       3.52        0.00      90.10       3.32       0.15       0.62       ----

> <Gold.Chemscore.Fitness>
18.4925

> <Gold.Chemscore.DG>
-19.2705

> <Gold.Chemscore.ZeroCoef>
-5.4800

> <Gold.Chemscore.Hbond>
3.5151

> <Gold.Chemscore.Metal>
0.0000

> <Gold.Chemscore.Lipo>
90.1045

> <Gold.Chemscore.Internal_Hbond>
0.0000

> <Gold.Chemscore.DEClash>
0.1537

> <Gold.Chemscore.DEInternal>
0.6243

> <Gold.Chemscore.Rot>
3.3172

> <Gold.Chemscore.Internal.Correction>
   9.000000E+99

> <Gold.Chemscore.Hbonds>
donor molecule, donor type, donor heavy atom, donor atom, acceptor molecule, acceptor atom, score
      L1  H    19    42       P1  7949  0.38
      L1  H    21    44       P1  7948  0.21
      P1  H  6896  6907       L1    23  0.96
      P1  H 10752 10765       L1    19  0.58

> <Gold.Chemscore.Hbond.Weighted>
-11.7403

> <Gold.Chemscore.Metal.Weighted>
-0.0000

> <Gold.Chemscore.Lipo.Weighted>
-10.5422

> <Gold.Chemscore.Internal_Hbond.Weighted>
0.0000

> <Gold.Chemscore.DEClash.Weighted>
0.1537

> <Gold.Chemscore.DEInternal.Weighted>
0.6243

> <Gold.Chemscore.Rot.Weighted>
8.4920

> <Gold.Chemscore.Internal.Correction.Weighted>
   9.000000E+99

> <Gold.Protein.RotatedTorsions>
[ 6907 6896 6895 6894 ] final -108.46 input  -60.11 | X-H torsion
[ 7974 7965 7964 7962 ] final  156.08 input  175.53 | X-H torsion
[ 8008 7997 7996 7995 ] final   35.57 input   59.86 | X-H torsion
[ 10167 10162 10161 10158 ] final  119.77 input  -65.29 | X-H torsion
[ 10718 10713 10712 10709 ] final   31.82 input   66.30 | X-H torsion
[ 10763 10752 10751 10750 ] final  148.17 input  -60.55 | X-H torsion
[ 11005 11000 10999 10996 ] final  -75.12 input  -57.11 | X-H torsion

> <Gold.Protein.ActiveResidues>
 VAL166  LYS551  ARG553  GLY616  TRP617  ASP618  TYR619  PRO620  LYS621  CYS622 
 ASP623  PHE694  ASN695  SER759  ASP760  ASP761  ALA762  ILE779  LEU786  VAL792 
 PHE793  MET794  SER795  GLU796  ALA797  LYS798  CYS799  TRP800  GLU811  SER814 

> <Gold.Protein.RotatedAtoms>
  150.7503  133.9674  159.3534 H   0  0  0  0  0  0  0  0  0  0  0  0  # atno 6907 bound_to 6896
  151.7605  135.0809  160.0354 H   0  0  0  0  0  0  0  0  0  0  0  0  # atno 6908 bound_to 6896
  152.3406  133.6025  159.5910 H   0  0  0  0  0  0  0  0  0  0  0  0  # atno 6909 bound_to 6896
  144.7985  139.7156  143.6192 H   0  0  0  0  0  0  0  0  0  0  0  0  # atno 7974 bound_to 7965
  155.1732  140.3293  155.4389 H   0  0  0  0  0  0  0  0  0  0  0  0  # atno 8008 bound_to 7997
  156.2503  140.1940  156.6784 H   0  0  0  0  0  0  0  0  0  0  0  0  # atno 8009 bound_to 7997
  154.6323  140.0581  156.9733 H   0  0  0  0  0  0  0  0  0  0  0  0  # atno 8010 bound_to 7997
  139.6025  144.7061  151.3030 H   0  0  0  0  0  0  0  0  0  0  0  0  # atno 10167 bound_to 10162
  157.2774  130.7238  149.6537 H   0  0  0  0  0  0  0  0  0  0  0  0  # atno 10718 bound_to 10713
  154.0504  135.2882  155.3341 H   0  0  0  0  0  0  0  0  0  0  0  0  # atno 10763 bound_to 10752
  154.6873  135.5240  153.8347 H   0  0  0  0  0  0  0  0  0  0  0  0  # atno 10764 bound_to 10752
  153.0563  135.6596  154.0701 H   0  0  0  0  0  0  0  0  0  0  0  0  # atno 10765 bound_to 10752
  141.1642  133.6935  156.7468 H   0  0  0  0  0  0  0  0  0  0  0  0  # atno 11005 bound_to 11000
  146.2260  139.5723  142.9587 LP  0  0  0  0  0  0  0  0  0  0  0  0  # atno 17320 bound_to 7965
  145.5613  141.0404  143.2224 LP  0  0  0  0  0  0  0  0  0  0  0  0  # atno 17321 bound_to 7965
  140.7260  143.7002  150.7851 LP  0  0  0  0  0  0  0  0  0  0  0  0  # atno 17342 bound_to 10162
  140.0581  143.5182  152.2641 LP  0  0  0  0  0  0  0  0  0  0  0  0  # atno 17343 bound_to 10162
  155.9664  130.4349  150.5068 LP  0  0  0  0  0  0  0  0  0  0  0  0  # atno 17370 bound_to 10713
  157.3004  131.0644  151.2072 LP  0  0  0  0  0  0  0  0  0  0  0  0  # atno 17371 bound_to 10713
  140.2633  134.8449  157.3779 LP  0  0  0  0  0  0  0  0  0  0  0  0  # atno 17394 bound_to 11000
  140.1590  134.4753  155.7908 LP  0  0  0  0  0  0  0  0  0  0  0  0  # atno 17395 bound_to 11000

$$$$
