AV-unprocessed.smi:1727|AV-procd|sdf|6966|dock10
  -GOLD-   22720 8183D 1   1.00000     0.00000
 Structure written by MMmdl.
 50 52  0  0  0  0  0  0  0  0  2 V2000
  151.0909  141.0825  158.3282 C   0  0  0  0  0  0  0  0  0  0  0  0
  151.9532  140.2358  157.3893 C   0  0  0  0  0  0  0  0  0  0  0  0
  152.9253  139.6512  157.8676 O   0  0  0  0  0  0  0  0  0  0  0  0
  151.6256  140.1588  156.0770 N   0  0  0  0  0  0  0  0  0  0  0  0
  152.3111  139.3310  155.0768 C   0  0  0  0  0  0  0  0  0  0  0  0
  151.3879  138.1656  154.6794 C   0  0  0  0  0  0  0  0  0  0  0  0
  150.0218  138.6804  154.1690 C   0  0  0  0  0  0  0  0  0  0  0  0
  149.0892  137.5728  153.9841 N   0  0  0  0  0  0  0  0  0  0  0  0
  148.4478  136.9289  154.9692 C   0  0  0  0  0  0  0  0  0  0  0  0
  148.5720  137.2067  156.1620 O   0  0  0  0  0  0  0  0  0  0  0  0
  147.6451  135.9681  154.4827 N   0  0  0  0  0  0  0  0  0  0  0  0
  146.7770  135.1105  155.2147 C   0  0  0  0  0  0  0  0  0  0  0  0
  146.9619  134.9009  156.6054 C   0  0  0  0  0  0  0  0  0  0  0  0
  146.1372  133.9926  157.2950 C   0  0  0  0  0  0  0  0  0  0  0  0
  145.1489  133.2942  156.5804 C   0  0  0  0  0  0  0  0  0  0  0  0
  145.0057  133.5064  155.2558 N   0  3  0  0  0  0  0  0  0  0  0  0
  145.7586  134.3780  154.5386 C   0  0  0  0  0  0  0  0  0  0  0  0
  145.4857  134.5061  153.1574 N   0  0  0  0  0  0  0  0  0  0  0  0
  145.9945  133.5205  152.2103 C   0  0  0  0  0  0  0  0  0  0  0  0
  145.2145  133.7698  150.9223 C   0  0  0  0  0  0  0  0  0  0  0  0
  143.8410  134.1797  151.4454 C   0  0  0  0  0  0  0  0  0  0  0  0
  144.1566  134.9403  152.7379 C   0  0  0  0  0  0  0  0  0  0  0  0
  149.4105  139.7133  155.1402 C   0  0  0  0  0  0  0  0  0  0  0  0
  150.4310  140.8019  155.5177 C   0  0  0  0  0  0  0  0  0  0  0  0
  151.0633  142.1214  157.9979 H   0  0  0  0  0  0  0  0  0  0  0  0
  151.4958  141.0663  159.3406 H   0  0  0  0  0  0  0  0  0  0  0  0
  150.0725  140.6955  158.3713 H   0  0  0  0  0  0  0  0  0  0  0  0
  152.5359  139.9417  154.2013 H   0  0  0  0  0  0  0  0  0  0  0  0
  153.2719  138.9439  155.4130 H   0  0  0  0  0  0  0  0  0  0  0  0
  151.8714  137.5569  153.9145 H   0  0  0  0  0  0  0  0  0  0  0  0
  151.2401  137.5160  155.5435 H   0  0  0  0  0  0  0  0  0  0  0  0
  150.1779  139.1803  153.2109 H   0  0  0  0  0  0  0  0  0  0  0  0
  148.9238  137.2762  153.0334 H   0  0  0  0  0  0  0  0  0  0  0  0
  147.5660  135.9175  153.4774 H   0  0  0  0  0  0  0  0  0  0  0  0
  147.7427  135.4089  157.1516 H   0  0  0  0  0  0  0  0  0  0  0  0
  146.2706  133.8255  158.3538 H   0  0  0  0  0  0  0  0  0  0  0  0
  144.4759  132.5742  157.0227 H   0  0  0  0  0  0  0  0  0  0  0  0
  147.0691  133.6295  152.0604 H   0  0  0  0  0  0  0  0  0  0  0  0
  145.7962  132.5088  152.5668 H   0  0  0  0  0  0  0  0  0  0  0  0
  145.6631  134.5947  150.3668 H   0  0  0  0  0  0  0  0  0  0  0  0
  145.1818  132.8976  150.2687 H   0  0  0  0  0  0  0  0  0  0  0  0
  143.2726  134.7757  150.7307 H   0  0  0  0  0  0  0  0  0  0  0  0
  143.2574  133.2876  151.6767 H   0  0  0  0  0  0  0  0  0  0  0  0
  143.4006  134.7533  153.5021 H   0  0  0  0  0  0  0  0  0  0  0  0
  144.1836  136.0126  152.5415 H   0  0  0  0  0  0  0  0  0  0  0  0
  148.5272  140.1710  154.6929 H   0  0  0  0  0  0  0  0  0  0  0  0
  149.0724  139.2135  156.0495 H   0  0  0  0  0  0  0  0  0  0  0  0
  149.9743  141.5161  156.2044 H   0  0  0  0  0  0  0  0  0  0  0  0
  150.7097  141.3784  154.6344 H   0  0  0  0  0  0  0  0  0  0  0  0
  144.2796  132.9841  154.7654 H   0  0  0  0  0  0  0  0  0  0  0  0
  1  2  1  0  0  0  0
  1 25  1  0  0  0  0
  1 26  1  0  0  0  0
  1 27  1  0  0  0  0
  2  3  2  0  0  0  0
  2  4  1  0  0  0  0
  4 24  1  0  0  0  0
  4  5  1  0  0  0  0
  5  6  1  0  0  0  0
  5 28  1  0  0  0  0
  5 29  1  0  0  0  0
  6  7  1  0  0  0  0
  6 30  1  0  0  0  0
  6 31  1  0  0  0  0
  7  8  1  0  0  0  0
  7 23  1  0  0  0  0
  7 32  1  0  0  0  0
  8  9  1  0  0  0  0
  8 33  1  0  0  0  0
  9 10  2  0  0  0  0
  9 11  1  0  0  0  0
 11 12  1  0  0  0  0
 11 34  1  0  0  0  0
 12 17  1  0  0  0  0
 12 13  2  0  0  0  0
 13 14  1  0  0  0  0
 13 35  1  0  0  0  0
 14 15  2  0  0  0  0
 14 36  1  0  0  0  0
 15 16  1  0  0  0  0
 15 37  1  0  0  0  0
 16 17  2  0  0  0  0
 16 50  1  0  0  0  0
 17 18  1  0  0  0  0
 18 22  1  0  0  0  0
 18 19  1  0  0  0  0
 19 20  1  0  0  0  0
 19 38  1  0  0  0  0
 19 39  1  0  0  0  0
 20 21  1  0  0  0  0
 20 40  1  0  0  0  0
 20 41  1  0  0  0  0
 21 22  1  0  0  0  0
 21 42  1  0  0  0  0
 21 43  1  0  0  0  0
 22 44  1  0  0  0  0
 22 45  1  0  0  0  0
 23 24  1  0  0  0  0
 23 46  1  0  0  0  0
 23 47  1  0  0  0  0
 24 48  1  0  0  0  0
 24 49  1  0  0  0  0
M  CHG  1  16   1
M  END
> <s_m_source_file>
AV-unprocessed.smi

> <i_m_source_file_index>
1727

> <i_lp_mmshare_version>
43012

> <i_f3d_flags>
0

> <s_epik_input>
W0NIM11DKD1PKU4xW0NIMl1bQ0gyXVtDSF0oW0NIMl1bQ0gyXTEpW05IXUMoPU8pW05IXWMyW2NIXVtjSF1bY0hdbmMyTjNbQ0gyXVtDSDJdW0NIMl1bQ0gyXTM=

> <s_epik_cmdline>
J2VwaWtfcHl0aG9uJywgJy1waCcsICc3LjAnLCAnLXRuJywgJzgnLCAnLW1hJywgJzIwMCcsICctbWV0YWxfYmluZGluZycsICctaW1hZScsICc8aW5maWxlLm1hZT4nLCAnLW9tYWUnLCAnPG91dGZpbGUubWFlPic=

> <r_lp_tautomer_probability>
0.999994

> <r_epik_Ionization_Penalty>
1.09439

> <r_epik_Ionization_Penalty_Charging>
1.09437

> <r_epik_Ionization_Penalty_Neutral>
2.13526e-05

> <r_epik_State_Penalty>
1.15094

> <r_epik_Charging_Adjusted_Penalty>
2.24531

> <i_epik_Tot_Q>
1

> <i_epik_Tot_abs_Q>
1

> <r_epik_Metal_State_Penalty>
1.23914

> <b_epik_Metal_Only>
0

> <s_lp_Force_Field>
OPLS_2005

> <r_lp_Energy>
56.6798

> <b_lp_Chiralities_Consistent>
1

> <s_lp_Variant>
AV-unprocessed.smi:1727-2

> <Gold.Version>
5.8.1

> <Gold.Id.Protein>
6NUR|6NUR_protein|mol2

> <Gold.PLP.Fitness>
44.3768

> <Gold.PLP.PLP>
-31.5058

> <Gold.PLP.part.hbond>
-3.8090

> <Gold.PLP.part.metal>
0.0000

> <Gold.PLP.part.buried>
-2.9940

> <Gold.PLP.part.nonpolar>
-25.2375

> <Gold.PLP.part.repulsive>
0.1191

> <Gold.PLP.ligand.clash>
0.0000

> <Gold.PLP.ligand.torsion>
0.5342

> <Gold.PLP.Chemscore.Hbond>
4.5176

> <Gold.PLP.Chemscore.CHOScore>
0.0000

> <Gold.PLP.Chemscore.Metal>
0.0000

> <Gold.Chemscore.Hbonds>
donor molecule, donor type, donor heavy atom, donor atom, acceptor molecule, acceptor atom, score
      L1  H     8    33       P1  7948  1.00
      L1  H    11    34       P1  7948  0.47
      L1  H    16    50       P1 10957  2.00
      P1  H  7997  8010       L1     3  1.00

> <Gold.PLP.Chemscore.Internal.Correction>
0.3866

> <Gold.Rescore>
     Score         DG    S(hbond)    S(metal)    S(lipo)     H(rot)  DE(clash)    DE(int)     intcor
     17.43     -20.51       3.23        0.00      62.86       1.22       0.03       3.06       ----

> <Gold.Chemscore.Fitness>
17.4269

> <Gold.Chemscore.DG>
-20.5100

> <Gold.Chemscore.ZeroCoef>
-5.4800

> <Gold.Chemscore.Hbond>
3.2349

> <Gold.Chemscore.Metal>
0.0000

> <Gold.Chemscore.Lipo>
62.8584

> <Gold.Chemscore.Internal_Hbond>
0.0000

> <Gold.Chemscore.DEClash>
0.0270

> <Gold.Chemscore.DEInternal>
3.0562

> <Gold.Chemscore.Rot>
1.2222

> <Gold.Chemscore.Internal.Correction>
   9.000000E+99

> <Gold.Chemscore.Hbonds>
donor molecule, donor type, donor heavy atom, donor atom, acceptor molecule, acceptor atom, score
      L1  H     8    33       P1  7948  0.93
      L1  H    11    34       P1  7948  0.48
      L1  H    16    50       P1 10957  0.89
      P1  H  7997  8010       L1     3  0.54

> <Gold.Chemscore.Hbond.Weighted>
-10.8045

> <Gold.Chemscore.Metal.Weighted>
-0.0000

> <Gold.Chemscore.Lipo.Weighted>
-7.3544

> <Gold.Chemscore.Internal_Hbond.Weighted>
0.0000

> <Gold.Chemscore.DEClash.Weighted>
0.0270

> <Gold.Chemscore.DEInternal.Weighted>
3.0562

> <Gold.Chemscore.Rot.Weighted>
3.1289

> <Gold.Chemscore.Internal.Correction.Weighted>
   9.000000E+99

> <Gold.Protein.RotatedTorsions>
[ 6907 6896 6895 6894 ] final   68.88 input  -60.11 | X-H torsion
[ 7974 7965 7964 7962 ] final -168.44 input  175.53 | X-H torsion
[ 8008 7997 7996 7995 ] final   56.20 input   59.86 | X-H torsion
[ 10167 10162 10161 10158 ] final   87.67 input  -65.29 | X-H torsion
[ 10718 10713 10712 10709 ] final -146.60 input   66.30 | X-H torsion
[ 10763 10752 10751 10750 ] final  104.36 input  -60.55 | X-H torsion
[ 11005 11000 10999 10996 ] final  -35.13 input  -57.11 | X-H torsion

> <Gold.Protein.ActiveResidues>
 VAL166  LYS551  ARG553  GLY616  TRP617  ASP618  TYR619  PRO620  LYS621  CYS622 
 ASP623  PHE694  ASN695  SER759  ASP760  ASP761  ALA762  ILE779  LEU786  VAL792 
 PHE793  MET794  SER795  GLU796  ALA797  LYS798  CYS799  TRP800  GLU811  SER814 

> <Gold.Protein.RotatedAtoms>
  152.4649  134.5097  159.9749 H   0  0  0  0  0  0  0  0  0  0  0  0  # atno 6907 bound_to 6896
  151.5137  133.3474  159.2897 H   0  0  0  0  0  0  0  0  0  0  0  0  # atno 6908 bound_to 6896
  150.8629  134.8015  159.7159 H   0  0  0  0  0  0  0  0  0  0  0  0  # atno 6909 bound_to 6896
  144.7203  140.2369  143.6297 H   0  0  0  0  0  0  0  0  0  0  0  0  # atno 7974 bound_to 7965
  155.5135  140.3478  155.4393 H   0  0  0  0  0  0  0  0  0  0  0  0  # atno 8008 bound_to 7997
  156.0833  140.1392  156.9712 H   0  0  0  0  0  0  0  0  0  0  0  0  # atno 8009 bound_to 7997
  154.4592  140.0941  156.6821 H   0  0  0  0  0  0  0  0  0  0  0  0  # atno 8010 bound_to 7997
  139.8750  144.6471  150.8906 H   0  0  0  0  0  0  0  0  0  0  0  0  # atno 10167 bound_to 10162
  156.3970  130.7914  151.2122 H   0  0  0  0  0  0  0  0  0  0  0  0  # atno 10718 bound_to 10713
  153.3649  135.3945  155.1746 H   0  0  0  0  0  0  0  0  0  0  0  0  # atno 10763 bound_to 10752
  154.8685  135.3688  154.5051 H   0  0  0  0  0  0  0  0  0  0  0  0  # atno 10764 bound_to 10752
  153.5514  135.7083  153.5650 H   0  0  0  0  0  0  0  0  0  0  0  0  # atno 10765 bound_to 10752
  140.9771  133.7077  156.1621 H   0  0  0  0  0  0  0  0  0  0  0  0  # atno 11005 bound_to 11000
  145.8357  139.2106  143.1857 LP  0  0  0  0  0  0  0  0  0  0  0  0  # atno 17320 bound_to 7965
  146.0391  140.8183  142.9837 LP  0  0  0  0  0  0  0  0  0  0  0  0  # atno 17321 bound_to 7965
  140.7754  143.3632  151.1788 LP  0  0  0  0  0  0  0  0  0  0  0  0  # atno 17342 bound_to 10162
  139.7248  143.9166  152.2999 LP  0  0  0  0  0  0  0  0  0  0  0  0  # atno 17343 bound_to 10162
  157.7502  131.0298  150.4110 LP  0  0  0  0  0  0  0  0  0  0  0  0  # atno 17370 bound_to 10713
  156.4382  130.3986  149.6715 LP  0  0  0  0  0  0  0  0  0  0  0  0  # atno 17371 bound_to 10713
  140.7242  134.4325  157.5572 LP  0  0  0  0  0  0  0  0  0  0  0  0  # atno 17394 bound_to 11000
  139.8935  134.8729  156.2220 LP  0  0  0  0  0  0  0  0  0  0  0  0  # atno 17395 bound_to 11000

$$$$
