AV-unprocessed.smi:1362|AV-procd|sdf|5561|dock4
  -GOLD-   22720 5153D 1   1.00000     0.00000
 Structure written by MMmdl.
 39 39  0  0  0  0  0  0  0  0  1 V2000
  153.7122  141.7547  161.6072 C   0  0  0  0  0  0  0  0  0  0  0  0
  152.9575  141.7823  160.2957 C   0  0  0  0  0  0  0  0  0  0  0  0
  152.6367  143.0589  159.8651 N   0  0  0  0  0  0  0  0  0  0  0  0
  151.9496  143.1858  158.6708 C   0  0  0  0  0  0  0  0  0  0  0  0
  151.6406  144.6178  158.2692 C   0  0  0  0  0  0  0  0  0  0  0  0
  151.6015  142.0954  157.9413 C   0  0  0  0  0  0  0  0  0  0  0  0
  150.8491  142.1961  156.6152 C   0  0  0  0  0  0  0  0  0  0  0  0
  149.5189  141.4420  156.5435 C   0  0  0  0  0  0  0  0  0  0  0  0
  149.4671  140.2419  156.8136 O   0  0  0  0  0  0  0  0  0  0  0  0
  148.4497  142.1625  156.1715 N   0  0  0  0  0  0  0  0  0  0  0  0
  147.0919  141.6465  155.9999 C   0  0  1  0  0  0  0  0  0  0  0  0
  146.1533  142.3844  156.9737 C   0  0  0  0  0  0  0  0  0  0  0  0
  146.6569  141.7706  154.5155 C   0  0  0  0  0  0  0  0  0  0  0  0
  147.6982  141.1800  153.5473 C   0  0  0  0  0  0  0  0  0  0  0  0
  146.3536  143.2281  154.1151 C   0  0  0  0  0  0  0  0  0  0  0  0
  151.9755  140.7552  158.4519 C   0  0  0  0  0  0  0  0  0  0  0  0
  151.6984  139.7291  157.8322 O   0  0  0  0  0  0  0  0  0  0  0  0
  152.6680  140.6812  159.6715 N   0  0  0  0  0  0  0  0  0  0  0  0
  152.8810  143.8965  160.3735 H   0  0  0  0  0  0  0  0  0  0  0  0
  153.7877  140.7371  161.9922 H   0  0  0  0  0  0  0  0  0  0  0  0
  153.2040  142.3638  162.3556 H   0  0  0  0  0  0  0  0  0  0  0  0
  154.7214  142.1437  161.4700 H   0  0  0  0  0  0  0  0  0  0  0  0
  150.5630  144.7735  158.2113 H   0  0  0  0  0  0  0  0  0  0  0  0
  152.0752  144.8437  157.2952 H   0  0  0  0  0  0  0  0  0  0  0  0
  152.0439  145.3323  158.9880 H   0  0  0  0  0  0  0  0  0  0  0  0
  151.5025  141.8222  155.8259 H   0  0  0  0  0  0  0  0  0  0  0  0
  150.6648  143.2380  156.3519 H   0  0  0  0  0  0  0  0  0  0  0  0
  148.5886  143.1428  155.9743 H   0  0  0  0  0  0  0  0  0  0  0  0
  147.0864  140.5862  156.2598 H   0  0  0  0  0  0  0  0  0  0  0  0
  145.1552  141.9481  156.9808 H   0  0  0  0  0  0  0  0  0  0  0  0
  146.0582  143.4388  156.7119 H   0  0  0  0  0  0  0  0  0  0  0  0
  146.5253  142.3306  157.9974 H   0  0  0  0  0  0  0  0  0  0  0  0
  145.7345  141.2025  154.3855 H   0  0  0  0  0  0  0  0  0  0  0  0
  148.6694  141.6612  153.6686 H   0  0  0  0  0  0  0  0  0  0  0  0
  147.3899  141.3143  152.5100 H   0  0  0  0  0  0  0  0  0  0  0  0
  147.8320  140.1093  153.6979 H   0  0  0  0  0  0  0  0  0  0  0  0
  147.2255  143.8664  154.2616 H   0  0  0  0  0  0  0  0  0  0  0  0
  145.5318  143.6497  154.6943 H   0  0  0  0  0  0  0  0  0  0  0  0
  146.0672  143.2951  153.0652 H   0  0  0  0  0  0  0  0  0  0  0  0
  1 20  1  0  0  0  0
  1 21  1  0  0  0  0
  1 22  1  0  0  0  0
  1  2  1  0  0  0  0
  2  3  1  0  0  0  0
  2 18  2  0  0  0  0
  3  4  1  0  0  0  0
  3 19  1  0  0  0  0
  4  6  2  0  0  0  0
  4  5  1  0  0  0  0
  5 23  1  0  0  0  0
  5 24  1  0  0  0  0
  5 25  1  0  0  0  0
  6 16  1  0  0  0  0
  6  7  1  0  0  0  0
  7  8  1  0  0  0  0
  7 26  1  0  0  0  0
  7 27  1  0  0  0  0
  8  9  2  0  0  0  0
  8 10  1  0  0  0  0
 10 11  1  0  0  0  0
 10 28  1  0  0  0  0
 11 12  1  0  0  0  0
 11 13  1  0  0  0  0
 11 29  1  0  0  0  0
 12 30  1  0  0  0  0
 12 31  1  0  0  0  0
 12 32  1  0  0  0  0
 13 14  1  0  0  0  0
 13 15  1  0  0  0  0
 13 33  1  0  0  0  0
 14 34  1  0  0  0  0
 14 35  1  0  0  0  0
 14 36  1  0  0  0  0
 15 37  1  0  0  0  0
 15 38  1  0  0  0  0
 15 39  1  0  0  0  0
 16 17  2  0  0  0  0
 16 18  1  0  0  0  0
M  END
> <s_m_source_file>
AV-unprocessed.smi

> <i_m_source_file_index>
1362

> <i_lp_mmshare_version>
43012

> <i_f3d_flags>
0

> <s_epik_input>
W0NIM11jMW5jKFtDSDNdKWMoYyg9TylbbkhdMSlbQ0gyXUMoPU8pW05IXVtDQEhdKFtDSDNdKVtDSF0oW0NIM10pW0NIM10=

> <s_epik_cmdline>
J2VwaWtfcHl0aG9uJywgJy1waCcsICc3LjAnLCAnLXRuJywgJzgnLCAnLW1hJywgJzIwMCcsICctbWV0YWxfYmluZGluZycsICctaW1hZScsICc8aW5maWxlLm1hZT4nLCAnLW9tYWUnLCAnPG91dGZpbGUubWFlPic=

> <r_lp_tautomer_probability>
0.156392

> <r_epik_Ionization_Penalty>
0.0140737

> <r_epik_Ionization_Penalty_Charging>
0.0139511

> <r_epik_Ionization_Penalty_Neutral>
0.000122633

> <r_epik_State_Penalty>
1.53034

> <r_epik_Charging_Adjusted_Penalty>
1.54429

> <i_epik_Tot_Q>
0

> <i_epik_Tot_abs_Q>
0

> <r_epik_Metal_State_Penalty>
1.70655

> <b_epik_Metal_Only>
0

> <s_lp_Force_Field>
OPLS_2005

> <r_lp_Energy>
10.7391

> <b_lp_Chiralities_Consistent>
1

> <s_lp_Variant>
AV-unprocessed.smi:1362-4

> <Gold.Version>
5.8.1

> <Gold.Id.Protein>
6NUR|6NUR_protein|mol2

> <Gold.PLP.Fitness>
39.2688

> <Gold.PLP.PLP>
-36.5602

> <Gold.PLP.part.hbond>
-1.0000

> <Gold.PLP.part.metal>
0.0000

> <Gold.PLP.part.buried>
-5.8117

> <Gold.PLP.part.nonpolar>
-30.3482

> <Gold.PLP.part.repulsive>
0.0932

> <Gold.PLP.ligand.clash>
0.0000

> <Gold.PLP.ligand.torsion>
0.1595

> <Gold.PLP.Chemscore.Hbond>
1.0000

> <Gold.PLP.Chemscore.CHOScore>
0.0000

> <Gold.PLP.Chemscore.Metal>
0.0000

> <Gold.Chemscore.Hbonds>
donor molecule, donor type, donor heavy atom, donor atom, acceptor molecule, acceptor atom, score
      L1  H    10    28       P1  8028  1.00

> <Gold.PLP.Chemscore.Internal.Correction>
0.0276

> <Gold.Rescore>
     Score         DG    S(hbond)    S(metal)    S(lipo)     H(rot)  DE(clash)    DE(int)     intcor
     15.06     -15.57       1.86        0.00      70.03       1.69       0.05       0.46       ----

> <Gold.Chemscore.Fitness>
15.0578

> <Gold.Chemscore.DG>
-15.5713

> <Gold.Chemscore.ZeroCoef>
-5.4800

> <Gold.Chemscore.Hbond>
1.8646

> <Gold.Chemscore.Metal>
0.0000

> <Gold.Chemscore.Lipo>
70.0343

> <Gold.Chemscore.Internal_Hbond>
0.0000

> <Gold.Chemscore.DEClash>
0.0532

> <Gold.Chemscore.DEInternal>
0.4603

> <Gold.Chemscore.Rot>
1.6916

> <Gold.Chemscore.Internal.Correction>
   9.000000E+99

> <Gold.Chemscore.Hbonds>
donor molecule, donor type, donor heavy atom, donor atom, acceptor molecule, acceptor atom, score
      L1  H    10    28       P1  8028  0.98

> <Gold.Chemscore.Hbond.Weighted>
-6.2278

> <Gold.Chemscore.Metal.Weighted>
-0.0000

> <Gold.Chemscore.Lipo.Weighted>
-8.1940

> <Gold.Chemscore.Internal_Hbond.Weighted>
0.0000

> <Gold.Chemscore.DEClash.Weighted>
0.0532

> <Gold.Chemscore.DEInternal.Weighted>
0.4603

> <Gold.Chemscore.Rot.Weighted>
4.3305

> <Gold.Chemscore.Internal.Correction.Weighted>
   9.000000E+99

> <Gold.Protein.RotatedTorsions>
[ 6907 6896 6895 6894 ] final  171.27 input  -60.11 | X-H torsion
[ 7974 7965 7964 7962 ] final  -75.10 input  175.53 | X-H torsion
[ 8008 7997 7996 7995 ] final -171.40 input   59.86 | X-H torsion
[ 10167 10162 10161 10158 ] final  138.12 input  -65.29 | X-H torsion
[ 10718 10713 10712 10709 ] final   -9.94 input   66.30 | X-H torsion
[ 10763 10752 10751 10750 ] final  158.46 input  -60.55 | X-H torsion
[ 11005 11000 10999 10996 ] final  112.79 input  -57.11 | X-H torsion

> <Gold.Protein.ActiveResidues>
 VAL166  LYS551  ARG553  GLY616  TRP617  ASP618  TYR619  PRO620  LYS621  CYS622 
 ASP623  PHE694  ASN695  SER759  ASP760  ASP761  ALA762  ILE779  LEU786  VAL792 
 PHE793  MET794  SER795  GLU796  ALA797  LYS798  CYS799  TRP800  GLU811  SER814 

> <Gold.Protein.RotatedAtoms>
  151.8029  133.3372  159.3531 H   0  0  0  0  0  0  0  0  0  0  0  0  # atno 6907 bound_to 6896
  150.7352  134.5737  159.5912 H   0  0  0  0  0  0  0  0  0  0  0  0  # atno 6908 bound_to 6896
  152.3130  134.7475  160.0383 H   0  0  0  0  0  0  0  0  0  0  0  0  # atno 6909 bound_to 6896
  145.6304  140.9339  143.1090 H   0  0  0  0  0  0  0  0  0  0  0  0  # atno 7974 bound_to 7965
  155.9311  140.1091  157.1131 H   0  0  0  0  0  0  0  0  0  0  0  0  # atno 8008 bound_to 7997
  154.4071  140.1237  156.4869 H   0  0  0  0  0  0  0  0  0  0  0  0  # atno 8009 bound_to 7997
  155.7079  140.3471  155.4963 H   0  0  0  0  0  0  0  0  0  0  0  0  # atno 8010 bound_to 7997
  139.5121  144.6371  151.5667 H   0  0  0  0  0  0  0  0  0  0  0  0  # atno 10167 bound_to 10162
  156.6807  130.5036  149.5972 H   0  0  0  0  0  0  0  0  0  0  0  0  # atno 10718 bound_to 10713
  154.2163  135.2784  155.2940 H   0  0  0  0  0  0  0  0  0  0  0  0  # atno 10763 bound_to 10752
  154.5738  135.5610  153.7123 H   0  0  0  0  0  0  0  0  0  0  0  0  # atno 10764 bound_to 10752
  153.0052  135.6328  154.2303 H   0  0  0  0  0  0  0  0  0  0  0  0  # atno 10765 bound_to 10752
  139.8936  134.9537  156.6640 H   0  0  0  0  0  0  0  0  0  0  0  0  # atno 11005 bound_to 11000
  144.7196  139.8077  143.7387 LP  0  0  0  0  0  0  0  0  0  0  0  0  # atno 17320 bound_to 7965
  146.1361  139.4406  143.0138 LP  0  0  0  0  0  0  0  0  0  0  0  0  # atno 17321 bound_to 7965
  140.6125  143.9410  150.6463 LP  0  0  0  0  0  0  0  0  0  0  0  0  # atno 17342 bound_to 10162
  140.2657  143.3491  152.1283 LP  0  0  0  0  0  0  0  0  0  0  0  0  # atno 17343 bound_to 10162
  156.1870  130.6535  151.1017 LP  0  0  0  0  0  0  0  0  0  0  0  0  # atno 17370 bound_to 10713
  157.7044  131.0762  150.6714 LP  0  0  0  0  0  0  0  0  0  0  0  0  # atno 17371 bound_to 10713
  140.7425  133.8966  155.8288 LP  0  0  0  0  0  0  0  0  0  0  0  0  # atno 17394 bound_to 11000
  141.0066  134.1077  157.4264 LP  0  0  0  0  0  0  0  0  0  0  0  0  # atno 17395 bound_to 11000

$$$$
