AV-unprocessed.smi:649|AV-procd|sdf|3180|dock3
  -GOLD-   22720 0103D 1   1.00000     0.00000
 Structure written by MMmdl.
 34 35  0  0  0  0  0  0  0  0  2 V2000
  152.0124  145.2971  159.2577 C   0  0  0  0  0  0  0  0  0  0  0  0
  152.1663  143.7912  159.3019 C   0  0  0  0  0  0  0  0  0  0  0  0
  152.8377  143.1749  160.3731 C   0  0  0  0  0  0  0  0  0  0  0  0
  152.9898  141.7771  160.3943 C   0  0  0  0  0  0  0  0  0  0  0  0
  152.4791  140.9769  159.3491 C   0  0  0  0  0  0  0  0  0  0  0  0
  152.6999  139.4753  159.4322 C   0  0  0  0  0  0  0  0  0  0  0  0
  151.7936  141.5941  158.2649 C   0  0  0  0  0  0  0  0  0  0  0  0
  151.2248  140.8213  157.0699 C   0  0  2  0  0  0  0  0  0  0  0  0
  152.1695  139.9900  156.4277 O   0  0  0  0  0  0  0  0  0  0  0  0
  150.5083  141.7033  156.0191 C   0  0  0  0  0  0  0  0  0  0  0  0
  149.3716  141.0163  155.3851 N   0  0  0  0  0  0  0  0  0  0  0  0
  148.0977  141.5710  155.5928 C   0  0  0  0  0  0  0  0  0  0  0  0
  146.9888  141.0486  155.0350 C   0  0  0  0  0  0  0  0  0  0  0  0
  145.4374  141.7599  155.3021 Cl  0  0  0  0  0  0  0  0  0  0  0  0
  147.1384  139.8637  154.1930 C   0  0  0  0  0  0  0  0  0  0  0  0
  146.1464  139.3623  153.6658 O   0  0  0  0  0  0  0  0  0  0  0  0
  148.3957  139.3584  154.0275 N   0  5  0  0  0  0  0  0  0  0  0  0
  149.5121  139.9056  154.6000 C   0  0  0  0  0  0  0  0  0  0  0  0
  150.6356  139.4336  154.4254 O   0  0  0  0  0  0  0  0  0  0  0  0
  151.6475  143.0004  158.2595 C   0  0  0  0  0  0  0  0  0  0  0  0
  152.1531  145.7369  160.2456 H   0  0  0  0  0  0  0  0  0  0  0  0
  151.0184  145.5714  158.9034 H   0  0  0  0  0  0  0  0  0  0  0  0
  152.7503  145.7287  158.5810 H   0  0  0  0  0  0  0  0  0  0  0  0
  153.2437  143.7698  161.1779 H   0  0  0  0  0  0  0  0  0  0  0  0
  153.5130  141.3198  161.2211 H   0  0  0  0  0  0  0  0  0  0  0  0
  151.7638  138.9611  159.6481 H   0  0  0  0  0  0  0  0  0  0  0  0
  153.4035  139.2245  160.2261 H   0  0  0  0  0  0  0  0  0  0  0  0
  153.1116  139.0825  158.5048 H   0  0  0  0  0  0  0  0  0  0  0  0
  150.4801  140.1293  157.4656 H   0  0  0  0  0  0  0  0  0  0  0  0
  151.7018  139.3145  155.9612 H   0  0  0  0  0  0  0  0  0  0  0  0
  150.1929  142.6466  156.4633 H   0  0  0  0  0  0  0  0  0  0  0  0
  151.2206  141.9956  155.2461 H   0  0  0  0  0  0  0  0  0  0  0  0
  148.0821  142.4475  156.2241 H   0  0  0  0  0  0  0  0  0  0  0  0
  151.1443  143.4847  157.4353 H   0  0  0  0  0  0  0  0  0  0  0  0
  1  2  1  0  0  0  0
  1 21  1  0  0  0  0
  1 22  1  0  0  0  0
  1 23  1  0  0  0  0
  2 20  1  0  0  0  0
  2  3  2  0  0  0  0
  3  4  1  0  0  0  0
  3 24  1  0  0  0  0
  4  5  2  0  0  0  0
  4 25  1  0  0  0  0
  5  6  1  0  0  0  0
  5  7  1  0  0  0  0
  6 26  1  0  0  0  0
  6 27  1  0  0  0  0
  6 28  1  0  0  0  0
  7  8  1  0  0  0  0
  7 20  2  0  0  0  0
  8  9  1  0  0  0  0
  8 10  1  0  0  0  0
  8 29  1  0  0  0  0
  9 30  1  0  0  0  0
 10 11  1  0  0  0  0
 10 31  1  0  0  0  0
 10 32  1  0  0  0  0
 11 18  1  0  0  0  0
 11 12  1  0  0  0  0
 12 13  2  0  0  0  0
 12 33  1  0  0  0  0
 13 14  1  0  0  0  0
 13 15  1  0  0  0  0
 15 16  2  0  0  0  0
 15 17  1  0  0  0  0
 17 18  1  0  0  0  0
 18 19  2  0  0  0  0
 20 34  1  0  0  0  0
M  CHG  1  17  -1
M  END
> <s_m_source_file>
AV-unprocessed.smi

> <i_m_source_file_index>
649

> <i_lp_mmshare_version>
43012

> <i_f3d_flags>
0

> <s_epik_input>
W0NIM11jMVtjSF1bY0hdYyhbQ0gzXSljKFtjSF0xKVtDQEhdKFtPSF0pW0NIMl1uMltjSF1jKENsKWMoPU8pW25IXWMyPU8=

> <s_epik_cmdline>
J2VwaWtfcHl0aG9uJywgJy1waCcsICc3LjAnLCAnLXRuJywgJzgnLCAnLW1hJywgJzIwMCcsICctbWV0YWxfYmluZGluZycsICctaW1hZScsICc8aW5maWxlLm1hZT4nLCAnLW9tYWUnLCAnPG91dGZpbGUubWFlPic=

> <r_epik_Ionization_Penalty>
1.7979

> <r_epik_Ionization_Penalty_Charging>
3.23819e-08

> <r_epik_Ionization_Penalty_Neutral>
1.7979

> <r_epik_State_Penalty>
1.91135

> <r_epik_Charging_Adjusted_Penalty>
1.91135

> <i_epik_Tot_Q>
-1

> <i_epik_Tot_abs_Q>
1

> <r_epik_Metal_State_Penalty>
0.014155

> <b_epik_Metal_Only>
0

> <s_lp_Force_Field>
OPLS_2005

> <r_lp_Energy>
21.5696

> <b_lp_Chiralities_Consistent>
1

> <s_lp_Variant>
AV-unprocessed.smi:649-3

> <Gold.Version>
5.8.1

> <Gold.Id.Protein>
6NUR|6NUR_protein|mol2

> <Gold.PLP.Fitness>
49.9071

> <Gold.PLP.PLP>
-42.4022

> <Gold.PLP.part.hbond>
-2.0000

> <Gold.PLP.part.metal>
0.0000

> <Gold.PLP.part.buried>
-5.7809

> <Gold.PLP.part.nonpolar>
-36.1281

> <Gold.PLP.part.repulsive>
1.5231

> <Gold.PLP.ligand.clash>
0.0000

> <Gold.PLP.ligand.torsion>
0.4114

> <Gold.PLP.Chemscore.Hbond>
1.7500

> <Gold.PLP.Chemscore.CHOScore>
1.0000

> <Gold.PLP.Chemscore.Metal>
0.0000

> <Gold.Chemscore.Hbonds>
donor molecule, donor type, donor heavy atom, donor atom, acceptor molecule, acceptor atom, score
      P1  H  7989  7998       L1    19  1.00
      P1  H  7997  8009       L1     9  0.67
      L1  C    12    33       P1  8028  0.95

> <Gold.PLP.Chemscore.Internal.Correction>
0.0777

> <Gold.Rescore>
     Score         DG    S(hbond)    S(metal)    S(lipo)     H(rot)  DE(clash)    DE(int)     intcor
     16.74     -18.78       1.95        0.00     103.64       2.09       0.06       1.98       ----

> <Gold.Chemscore.Fitness>
16.7436

> <Gold.Chemscore.DG>
-18.7824

> <Gold.Chemscore.ZeroCoef>
-5.4800

> <Gold.Chemscore.Hbond>
1.9516

> <Gold.Chemscore.Metal>
0.0000

> <Gold.Chemscore.Lipo>
103.6448

> <Gold.Chemscore.Internal_Hbond>
0.0000

> <Gold.Chemscore.DEClash>
0.0624

> <Gold.Chemscore.DEInternal>
1.9764

> <Gold.Chemscore.Rot>
2.0868

> <Gold.Chemscore.Internal.Correction>
   9.000000E+99

> <Gold.Chemscore.Hbonds>
donor molecule, donor type, donor heavy atom, donor atom, acceptor molecule, acceptor atom, score
      P1  H  7989  7998       L1    19  0.49
      P1  H  7997  8009       L1     9  0.66

> <Gold.Chemscore.Hbond.Weighted>
-6.5182

> <Gold.Chemscore.Metal.Weighted>
-0.0000

> <Gold.Chemscore.Lipo.Weighted>
-12.1264

> <Gold.Chemscore.Internal_Hbond.Weighted>
0.0000

> <Gold.Chemscore.DEClash.Weighted>
0.0624

> <Gold.Chemscore.DEInternal.Weighted>
1.9764

> <Gold.Chemscore.Rot.Weighted>
5.3423

> <Gold.Chemscore.Internal.Correction.Weighted>
   9.000000E+99

> <Gold.Protein.RotatedTorsions>
[ 6907 6896 6895 6894 ] final  -86.84 input  -60.11 | X-H torsion
[ 7974 7965 7964 7962 ] final  -99.41 input  175.53 | X-H torsion
[ 8008 7997 7996 7995 ] final -163.14 input   59.86 | X-H torsion
[ 10167 10162 10161 10158 ] final  122.20 input  -65.29 | X-H torsion
[ 10718 10713 10712 10709 ] final  171.72 input   66.30 | X-H torsion
[ 10763 10752 10751 10750 ] final  148.02 input  -60.55 | X-H torsion
[ 11005 11000 10999 10996 ] final  -29.60 input  -57.11 | X-H torsion

> <Gold.Protein.ActiveResidues>
 VAL166  LYS551  ARG553  GLY616  TRP617  ASP618  TYR619  PRO620  LYS621  CYS622 
 ASP623  PHE694  ASN695  SER759  ASP760  ASP761  ALA762  ILE779  LEU786  VAL792 
 PHE793  MET794  SER795  GLU796  ALA797  LYS798  CYS799  TRP800  GLU811  SER814 

> <Gold.Protein.RotatedAtoms>
  150.6866  134.2988  159.4697 H   0  0  0  0  0  0  0  0  0  0  0  0  # atno 6907 bound_to 6896
  152.0886  134.9420  160.0581 H   0  0  0  0  0  0  0  0  0  0  0  0  # atno 6908 bound_to 6896
  152.0745  133.4088  159.4510 H   0  0  0  0  0  0  0  0  0  0  0  0  # atno 6909 bound_to 6896
  145.3079  140.9393  143.2786 H   0  0  0  0  0  0  0  0  0  0  0  0  # atno 7974 bound_to 7965
  155.8169  140.0914  157.1871 H   0  0  0  0  0  0  0  0  0  0  0  0  # atno 8008 bound_to 7997
  154.3979  140.1444  156.3513 H   0  0  0  0  0  0  0  0  0  0  0  0  # atno 8009 bound_to 7997
  155.8307  140.3443  155.5573 H   0  0  0  0  0  0  0  0  0  0  0  0  # atno 8010 bound_to 7997
  139.5873  144.7011  151.3378 H   0  0  0  0  0  0  0  0  0  0  0  0  # atno 10167 bound_to 10162
  156.9894  131.0143  151.2861 H   0  0  0  0  0  0  0  0  0  0  0  0  # atno 10718 bound_to 10713
  154.0478  135.2884  155.3345 H   0  0  0  0  0  0  0  0  0  0  0  0  # atno 10763 bound_to 10752
  154.6888  135.5234  153.8367 H   0  0  0  0  0  0  0  0  0  0  0  0  # atno 10764 bound_to 10752
  153.0573  135.6600  154.0677 H   0  0  0  0  0  0  0  0  0  0  0  0  # atno 10765 bound_to 10752
  140.9311  133.7338  156.0937 H   0  0  0  0  0  0  0  0  0  0  0  0  # atno 11005 bound_to 11000
  144.9040  139.4613  143.6619 LP  0  0  0  0  0  0  0  0  0  0  0  0  # atno 17320 bound_to 7965
  146.3128  139.7810  142.9006 LP  0  0  0  0  0  0  0  0  0  0  0  0  # atno 17321 bound_to 7965
  140.7142  143.7310  150.7624 LP  0  0  0  0  0  0  0  0  0  0  0  0  # atno 17342 bound_to 10162
  140.0857  143.4926  152.2506 LP  0  0  0  0  0  0  0  0  0  0  0  0  # atno 17343 bound_to 10162
  157.5470  130.8157  149.8098 LP  0  0  0  0  0  0  0  0  0  0  0  0  # atno 17370 bound_to 10713
  156.0213  130.3794  150.1953 LP  0  0  0  0  0  0  0  0  0  0  0  0  # atno 17371 bound_to 10713
  140.7861  134.3670  157.5476 LP  0  0  0  0  0  0  0  0  0  0  0  0  # atno 17394 bound_to 11000
  139.8796  134.9112  156.3031 LP  0  0  0  0  0  0  0  0  0  0  0  0  # atno 17395 bound_to 11000

$$$$
