AV-unprocessed.smi:1231|AV-procd|sdf|5165|dock1
  -GOLD-   22720 4233D 1   1.00000     0.00000
 Structure written by MMmdl.
 43 44  0  0  0  0  0  0  0  0  2 V2000
  146.3278  136.9683  151.2426 C   0  0  0  0  0  0  0  0  0  0  0  0
  145.8673  137.9454  152.3297 C   0  0  2  0  0  0  0  0  0  0  0  0
  146.7880  139.1755  152.4347 C   0  0  0  0  0  0  0  0  0  0  0  0
  146.3511  140.0601  153.5407 N   0  3  2  0  0  0  0  0  0  0  0  0
  147.1762  141.2898  153.6386 C   0  0  0  0  0  0  0  0  0  0  0  0
  148.6435  140.9871  154.0004 C   0  0  0  0  0  0  0  0  0  0  0  0
  149.1686  141.9505  154.9606 N   0  0  0  0  0  0  0  0  0  0  0  0
  150.0546  141.6637  155.9255 C   0  0  0  0  0  0  0  0  0  0  0  0
  150.5255  140.5386  156.0962 O   0  0  0  0  0  0  0  0  0  0  0  0
  150.3476  142.7515  156.6594 N   0  0  0  0  0  0  0  0  0  0  0  0
  151.2489  142.8550  157.7524 C   0  0  0  0  0  0  0  0  0  0  0  0
  151.6844  144.1669  158.0467 C   0  0  0  0  0  0  0  0  0  0  0  0
  152.5797  144.3763  159.1134 C   0  0  0  0  0  0  0  0  0  0  0  0
  153.0186  143.2669  159.8577 C   0  0  0  0  0  0  0  0  0  0  0  0
  152.5383  141.9944  159.4973 C   0  0  0  0  0  0  0  0  0  0  0  0
  151.6793  141.7915  158.4761 N   0  0  0  0  0  0  0  0  0  0  0  0
  146.2730  139.2959  154.8103 C   0  0  0  0  0  0  0  0  0  0  0  0
  145.3704  138.0586  154.6423 C   0  0  2  0  0  0  0  0  0  0  0  0
  145.3298  137.1961  155.9085 C   0  0  0  0  0  0  0  0  0  0  0  0
  145.8693  137.2584  153.5760 O   0  0  0  0  0  0  0  0  0  0  0  0
  146.3305  137.4450  150.2621 H   0  0  0  0  0  0  0  0  0  0  0  0
  145.6648  136.1045  151.1889 H   0  0  0  0  0  0  0  0  0  0  0  0
  147.3359  136.6024  151.4400 H   0  0  0  0  0  0  0  0  0  0  0  0
  144.8499  138.2658  152.0977 H   0  0  0  0  0  0  0  0  0  0  0  0
  147.8197  138.8627  152.6056 H   0  0  0  0  0  0  0  0  0  0  0  0
  146.7713  139.7273  151.4939 H   0  0  0  0  0  0  0  0  0  0  0  0
  147.1063  141.8492  152.7045 H   0  0  0  0  0  0  0  0  0  0  0  0
  146.7635  141.9360  154.4148 H   0  0  0  0  0  0  0  0  0  0  0  0
  148.7199  139.9929  154.4413 H   0  0  0  0  0  0  0  0  0  0  0  0
  149.2821  140.9851  153.1166 H   0  0  0  0  0  0  0  0  0  0  0  0
  148.8281  142.8986  154.8909 H   0  0  0  0  0  0  0  0  0  0  0  0
  149.8723  143.6055  156.4081 H   0  0  0  0  0  0  0  0  0  0  0  0
  151.3374  145.0084  157.4647 H   0  0  0  0  0  0  0  0  0  0  0  0
  152.9229  145.3714  159.3557 H   0  0  0  0  0  0  0  0  0  0  0  0
  153.7048  143.3876  160.6828 H   0  0  0  0  0  0  0  0  0  0  0  0
  152.8512  141.1164  160.0427 H   0  0  0  0  0  0  0  0  0  0  0  0
  147.2761  138.9912  155.1139 H   0  0  0  0  0  0  0  0  0  0  0  0
  145.8763  139.9232  155.6076 H   0  0  0  0  0  0  0  0  0  0  0  0
  144.3527  138.3756  154.4072 H   0  0  0  0  0  0  0  0  0  0  0  0
  144.9403  137.7605  156.7561 H   0  0  0  0  0  0  0  0  0  0  0  0
  146.3244  136.8371  156.1744 H   0  0  0  0  0  0  0  0  0  0  0  0
  144.6886  136.3255  155.7665 H   0  0  0  0  0  0  0  0  0  0  0  0
  145.4128  140.3566  153.3130 H   0  0  0  0  0  0  0  0  0  0  0  0
  1  2  1  0  0  0  0
  1 21  1  0  0  0  0
  1 22  1  0  0  0  0
  1 23  1  0  0  0  0
  2 20  1  0  0  0  0
  2  3  1  0  0  0  0
  2 24  1  0  0  0  0
  3  4  1  0  0  0  0
  3 25  1  0  0  0  0
  3 26  1  0  0  0  0
  4  5  1  0  0  0  0
  4 17  1  0  0  0  0
  4 43  1  0  0  0  0
  5  6  1  0  0  0  0
  5 27  1  0  0  0  0
  5 28  1  0  0  0  0
  6  7  1  0  0  0  0
  6 29  1  0  0  0  0
  6 30  1  0  0  0  0
  7  8  1  0  0  0  0
  7 31  1  0  0  0  0
  8  9  2  0  0  0  0
  8 10  1  0  0  0  0
 10 11  1  0  0  0  0
 10 32  1  0  0  0  0
 11 16  1  0  0  0  0
 11 12  2  0  0  0  0
 12 13  1  0  0  0  0
 12 33  1  0  0  0  0
 13 14  2  0  0  0  0
 13 34  1  0  0  0  0
 14 15  1  0  0  0  0
 14 35  1  0  0  0  0
 15 16  2  0  0  0  0
 15 36  1  0  0  0  0
 17 18  1  0  0  0  0
 17 37  1  0  0  0  0
 17 38  1  0  0  0  0
 18 19  1  0  0  0  0
 18 20  1  0  0  0  0
 18 39  1  0  0  0  0
 19 40  1  0  0  0  0
 19 41  1  0  0  0  0
 19 42  1  0  0  0  0
M  CHG  1   4   1
M  END
> <s_m_source_file>
AV-unprocessed.smi

> <i_m_source_file_index>
1231

> <i_lp_mmshare_version>
43012

> <i_f3d_flags>
0

> <s_epik_input>
W0NIM11bQ0BASF0xW0NIMl1OKFtDSDJdW0NASF0oTzEpW0NIM10pW0NIMl1bQ0gyXVtOSF1DKD1PKVtOSF1jMltjSF1bY0hdW2NIXVtjSF1uMg==

> <s_epik_cmdline>
J2VwaWtfcHl0aG9uJywgJy1waCcsICc3LjAnLCAnLXRuJywgJzgnLCAnLW1hJywgJzIwMCcsICctbWV0YWxfYmluZGluZycsICctaW1hZScsICc8aW5maWxlLm1hZT4nLCAnLW9tYWUnLCAnPG91dGZpbGUubWFlPic=

> <r_epik_Ionization_Penalty>
0.602565

> <r_epik_Ionization_Penalty_Charging>
0.602531

> <r_epik_Ionization_Penalty_Neutral>
3.43186e-05

> <r_epik_State_Penalty>
0.617039

> <r_epik_Charging_Adjusted_Penalty>
1.21957

> <i_epik_Tot_Q>
1

> <i_epik_Tot_abs_Q>
1

> <r_epik_Metal_State_Penalty>
0.617041

> <b_epik_Metal_Only>
0

> <s_lp_Force_Field>
OPLS_2005

> <r_lp_Energy>
15.064

> <b_lp_Chiralities_Consistent>
1

> <s_lp_Variant>
AV-unprocessed.smi:1231-6

> <Gold.Version>
5.8.1

> <Gold.Id.Protein>
6NUR|6NUR_protein|mol2

> <Gold.PLP.Fitness>
48.3081

> <Gold.PLP.PLP>
-37.5524

> <Gold.PLP.part.hbond>
-3.0000

> <Gold.PLP.part.metal>
0.0000

> <Gold.PLP.part.buried>
0.0475

> <Gold.PLP.part.nonpolar>
-35.3418

> <Gold.PLP.part.repulsive>
0.4540

> <Gold.PLP.ligand.clash>
0.0000

> <Gold.PLP.ligand.torsion>
0.5567

> <Gold.PLP.Chemscore.Hbond>
3.9440

> <Gold.PLP.Chemscore.CHOScore>
0.0000

> <Gold.PLP.Chemscore.Metal>
0.0000

> <Gold.Chemscore.Hbonds>
donor molecule, donor type, donor heavy atom, donor atom, acceptor molecule, acceptor atom, score
      L1  H     4    43       P1 10175  2.00
      L1  H     7    31       P1  8028  0.94
      L1  H    10    32       P1  8028  1.00

> <Gold.PLP.Chemscore.Internal.Correction>
0.0370

> <Gold.Rescore>
     Score         DG    S(hbond)    S(metal)    S(lipo)     H(rot)  DE(clash)    DE(int)     intcor
     19.57     -21.94       2.89        0.00      92.18       1.55       0.59       1.77       ----

> <Gold.Chemscore.Fitness>
19.5719

> <Gold.Chemscore.DG>
-21.9381

> <Gold.Chemscore.ZeroCoef>
-5.4800

> <Gold.Chemscore.Hbond>
2.8899

> <Gold.Chemscore.Metal>
0.0000

> <Gold.Chemscore.Lipo>
92.1833

> <Gold.Chemscore.Internal_Hbond>
0.0000

> <Gold.Chemscore.DEClash>
0.5932

> <Gold.Chemscore.DEInternal>
1.7730

> <Gold.Chemscore.Rot>
1.5546

> <Gold.Chemscore.Internal.Correction>
   9.000000E+99

> <Gold.Chemscore.Hbonds>
donor molecule, donor type, donor heavy atom, donor atom, acceptor molecule, acceptor atom, score
      L1  H     4    43       P1 10175  0.98
      L1  H     7    31       P1  8028  0.90
      L1  H    10    32       P1  8028  1.00

> <Gold.Chemscore.Hbond.Weighted>
-9.6523

> <Gold.Chemscore.Metal.Weighted>
-0.0000

> <Gold.Chemscore.Lipo.Weighted>
-10.7854

> <Gold.Chemscore.Internal_Hbond.Weighted>
0.0000

> <Gold.Chemscore.DEClash.Weighted>
0.5932

> <Gold.Chemscore.DEInternal.Weighted>
1.7730

> <Gold.Chemscore.Rot.Weighted>
3.9797

> <Gold.Chemscore.Internal.Correction.Weighted>
   9.000000E+99

> <Gold.Protein.RotatedTorsions>
[ 6907 6896 6895 6894 ] final -148.05 input  -60.11 | X-H torsion
[ 7974 7965 7964 7962 ] final  -63.59 input  175.53 | X-H torsion
[ 8008 7997 7996 7995 ] final  -59.88 input   59.86 | X-H torsion
[ 10167 10162 10161 10158 ] final -140.35 input  -65.29 | X-H torsion
[ 10718 10713 10712 10709 ] final  -20.11 input   66.30 | X-H torsion
[ 10763 10752 10751 10750 ] final  112.46 input  -60.55 | X-H torsion
[ 11005 11000 10999 10996 ] final   19.53 input  -57.11 | X-H torsion

> <Gold.Protein.ActiveResidues>
 VAL166  LYS551  ARG553  GLY616  TRP617  ASP618  TYR619  PRO620  LYS621  CYS622 
 ASP623  PHE694  ASN695  SER759  ASP760  ASP761  ALA762  ILE779  LEU786  VAL792 
 PHE793  MET794  SER795  GLU796  ALA797  LYS798  CYS799  TRP800  GLU811  SER814 

> <Gold.Protein.RotatedAtoms>
  151.1643  133.4825  159.2593 H   0  0  0  0  0  0  0  0  0  0  0  0  # atno 6907 bound_to 6896
  151.1422  135.0185  159.8640 H   0  0  0  0  0  0  0  0  0  0  0  0  # atno 6908 bound_to 6896
  152.5462  134.1535  159.8581 H   0  0  0  0  0  0  0  0  0  0  0  0  # atno 6909 bound_to 6896
  145.7772  140.8781  143.0349 H   0  0  0  0  0  0  0  0  0  0  0  0  # atno 7974 bound_to 7965
  154.4373  140.1052  156.6186 H   0  0  0  0  0  0  0  0  0  0  0  0  # atno 8008 bound_to 7997
  155.5732  140.3489  155.4502 H   0  0  0  0  0  0  0  0  0  0  0  0  # atno 8009 bound_to 7997
  156.0374  140.1274  157.0182 H   0  0  0  0  0  0  0  0  0  0  0  0  # atno 8010 bound_to 7997
  139.8290  143.7472  152.2666 H   0  0  0  0  0  0  0  0  0  0  0  0  # atno 10167 bound_to 10162
  156.5363  130.4667  149.6521 H   0  0  0  0  0  0  0  0  0  0  0  0  # atno 10718 bound_to 10713
  153.4782  135.3685  155.2427 H   0  0  0  0  0  0  0  0  0  0  0  0  # atno 10763 bound_to 10752
  154.8756  135.3948  154.3732 H   0  0  0  0  0  0  0  0  0  0  0  0  # atno 10764 bound_to 10752
  153.4331  135.7083  153.6283 H   0  0  0  0  0  0  0  0  0  0  0  0  # atno 10765 bound_to 10752
  140.4127  134.1601  155.7668 H   0  0  0  0  0  0  0  0  0  0  0  0  # atno 11005 bound_to 11000
  144.6802  139.9938  143.7484 LP  0  0  0  0  0  0  0  0  0  0  0  0  # atno 17320 bound_to 7965
  146.0110  139.3170  143.0870 LP  0  0  0  0  0  0  0  0  0  0  0  0  # atno 17321 bound_to 7965
  139.7674  144.7487  151.0275 LP  0  0  0  0  0  0  0  0  0  0  0  0  # atno 17342 bound_to 10162
  140.7808  143.4683  151.0181 LP  0  0  0  0  0  0  0  0  0  0  0  0  # atno 17343 bound_to 10162
  156.3013  130.7178  151.2050 LP  0  0  0  0  0  0  0  0  0  0  0  0  # atno 17370 bound_to 10713
  157.7413  131.0505  150.5106 LP  0  0  0  0  0  0  0  0  0  0  0  0  # atno 17371 bound_to 10713
  141.1815  133.8404  157.1241 LP  0  0  0  0  0  0  0  0  0  0  0  0  # atno 17394 bound_to 11000
  140.0256  134.9925  157.0679 LP  0  0  0  0  0  0  0  0  0  0  0  0  # atno 17395 bound_to 11000

$$$$
