AV-unprocessed.smi:793|AV-procd|sdf|3752|dock3
  -GOLD-   22720 1183D 1   1.00000     0.00000
 Structure written by MMmdl.
 39 40  0  0  0  0  0  0  0  0  1 V2000
  152.2523  140.1478  159.3189 C   0  0  0  0  0  0  0  0  0  0  0  0
  151.2983  139.9296  158.1380 C   0  0  0  0  0  0  0  0  0  0  0  0
  151.6353  140.8200  156.9271 C   0  0  2  0  0  0  0  0  0  0  0  0
  151.1167  142.1241  157.1865 O   0  0  0  0  0  0  0  0  0  0  0  0
  152.0069  143.0501  157.8043 C   0  0  0  0  0  0  0  0  0  0  0  0
  151.8309  143.1297  159.3244 C   0  0  0  0  0  0  0  0  0  0  0  0
  152.2772  144.5456  159.7152 C   0  0  0  0  0  0  0  0  0  0  0  0
  152.3169  145.3635  158.4151 C   0  0  0  0  0  0  0  0  0  0  0  0
  151.6933  144.4706  157.3405 C   0  0  0  0  0  0  0  0  0  0  0  0
  151.0228  140.2596  155.6328 C   0  0  0  0  0  0  0  0  0  0  0  0
  151.7538  139.7245  154.7998 O   0  0  0  0  0  0  0  0  0  0  0  0
  149.6853  140.3842  155.5266 N   0  0  0  0  0  0  0  0  0  0  0  0
  148.8339  139.9896  154.4822 C   0  0  0  0  0  0  0  0  0  0  0  0
  148.7954  138.7576  153.9127 C   0  0  0  0  0  0  0  0  0  0  0  0
  147.9431  138.4133  152.8732 N   0  0  0  0  0  0  0  0  0  0  0  0
  147.0791  139.3719  152.3693 C   0  0  0  0  0  0  0  0  0  0  0  0
  147.0194  140.6325  152.8414 C   0  0  0  0  0  0  0  0  0  0  0  0
  147.9122  141.0335  153.9522 C   0  0  0  0  0  0  0  0  0  0  0  0
  147.8841  142.1769  154.4074 O   0  0  0  0  0  0  0  0  0  0  0  0
  151.9884  139.4994  160.1544 H   0  0  0  0  0  0  0  0  0  0  0  0
  152.2133  141.1780  159.6735 H   0  0  0  0  0  0  0  0  0  0  0  0
  153.2828  139.9276  159.0391 H   0  0  0  0  0  0  0  0  0  0  0  0
  151.3414  138.8790  157.8470 H   0  0  0  0  0  0  0  0  0  0  0  0
  150.2743  140.1150  158.4649 H   0  0  0  0  0  0  0  0  0  0  0  0
  152.7212  140.8606  156.8263 H   0  0  0  0  0  0  0  0  0  0  0  0
  153.0484  142.8346  157.5618 H   0  0  0  0  0  0  0  0  0  0  0  0
  150.7774  143.0015  159.5778 H   0  0  0  0  0  0  0  0  0  0  0  0
  152.3926  142.3580  159.8516 H   0  0  0  0  0  0  0  0  0  0  0  0
  151.5868  144.9807  160.4384 H   0  0  0  0  0  0  0  0  0  0  0  0
  153.2647  144.5271  160.1777 H   0  0  0  0  0  0  0  0  0  0  0  0
  151.7954  146.3165  158.5076 H   0  0  0  0  0  0  0  0  0  0  0  0
  153.3531  145.5814  158.1531 H   0  0  0  0  0  0  0  0  0  0  0  0
  152.0770  144.6814  156.3420 H   0  0  0  0  0  0  0  0  0  0  0  0
  150.6131  144.6235  157.3217 H   0  0  0  0  0  0  0  0  0  0  0  0
  149.2132  140.8015  156.3160 H   0  0  0  0  0  0  0  0  0  0  0  0
  149.4295  137.9364  154.2058 H   0  0  0  0  0  0  0  0  0  0  0  0
  146.4535  139.0225  151.5611 H   0  0  0  0  0  0  0  0  0  0  0  0
  146.3347  141.3582  152.4276 H   0  0  0  0  0  0  0  0  0  0  0  0
  147.9586  137.4803  152.4855 H   0  0  0  0  0  0  0  0  0  0  0  0
  1  2  1  0  0  0  0
  1 20  1  0  0  0  0
  1 21  1  0  0  0  0
  1 22  1  0  0  0  0
  2  3  1  0  0  0  0
  2 23  1  0  0  0  0
  2 24  1  0  0  0  0
  3  4  1  0  0  0  0
  3 10  1  0  0  0  0
  3 25  1  0  0  0  0
  4  5  1  0  0  0  0
  5  9  1  0  0  0  0
  5  6  1  0  0  0  0
  5 26  1  0  0  0  0
  6  7  1  0  0  0  0
  6 27  1  0  0  0  0
  6 28  1  0  0  0  0
  7  8  1  0  0  0  0
  7 29  1  0  0  0  0
  7 30  1  0  0  0  0
  8  9  1  0  0  0  0
  8 31  1  0  0  0  0
  8 32  1  0  0  0  0
  9 33  1  0  0  0  0
  9 34  1  0  0  0  0
 10 11  2  0  0  0  0
 10 12  1  0  0  0  0
 12 35  1  0  0  0  0
 12 13  1  0  0  0  0
 13 18  1  0  0  0  0
 13 14  2  0  0  0  0
 14 36  1  0  0  0  0
 14 15  1  0  0  0  0
 15 39  1  0  0  0  0
 15 16  1  0  0  0  0
 16 37  1  0  0  0  0
 16 17  2  0  0  0  0
 17 18  1  0  0  0  0
 17 38  1  0  0  0  0
 18 19  2  0  0  0  0
M  END
> <s_m_source_file>
AV-unprocessed.smi

> <i_m_source_file_index>
793

> <i_lp_mmshare_version>
43012

> <i_f3d_flags>
0

> <s_epik_input>
W0NIMl0xW0NIMl1bQ0gyXVtDSDJdW0NIXTFPW0NAQEhdKFtDSDJdW0NIM10pQyg9TylbTkhdYzJbY0hdbltjSF1bY0hdYzJbT0hd

> <s_epik_cmdline>
J2VwaWtfcHl0aG9uJywgJy1waCcsICc3LjAnLCAnLXRuJywgJzgnLCAnLW1hJywgJzIwMCcsICctbWV0YWxfYmluZGluZycsICctaW1hZScsICc8aW5maWxlLm1hZT4nLCAnLW9tYWUnLCAnPG91dGZpbGUubWFlPic=

> <r_lp_tautomer_probability>
1

> <r_epik_Ionization_Penalty>
0.000234492

> <r_epik_Ionization_Penalty_Charging>
0.000234447

> <r_epik_Ionization_Penalty_Neutral>
4.48517e-08

> <r_epik_State_Penalty>
-0

> <r_epik_Charging_Adjusted_Penalty>
0.000234447

> <i_epik_Tot_Q>
0

> <i_epik_Tot_abs_Q>
0

> <r_epik_Metal_State_Penalty>
0.110344

> <b_epik_Metal_Only>
0

> <s_lp_Force_Field>
OPLS_2005

> <r_lp_Energy>
24.985

> <b_lp_Chiralities_Consistent>
1

> <s_lp_Variant>
AV-unprocessed.smi:793-1

> <Gold.Version>
5.8.1

> <Gold.Id.Protein>
6NUR|6NUR_protein|mol2

> <Gold.PLP.Fitness>
43.1560

> <Gold.PLP.PLP>
-41.1590

> <Gold.PLP.part.hbond>
-3.0000

> <Gold.PLP.part.metal>
0.0000

> <Gold.PLP.part.buried>
-4.9421

> <Gold.PLP.part.nonpolar>
-34.8076

> <Gold.PLP.part.repulsive>
1.3646

> <Gold.PLP.ligand.clash>
0.0000

> <Gold.PLP.ligand.torsion>
1.8304

> <Gold.PLP.Chemscore.Hbond>
1.8640

> <Gold.PLP.Chemscore.CHOScore>
0.0000

> <Gold.PLP.Chemscore.Metal>
0.0000

> <Gold.Chemscore.Hbonds>
donor molecule, donor type, donor heavy atom, donor atom, acceptor molecule, acceptor atom, score
      L1  H    15    39       P1  7948  0.90
      P1  H  7989  7998       L1    11  1.00
      L1  C    14    36       P1  7948  0.02

> <Gold.PLP.Chemscore.Internal.Correction>
0.0659

> <Gold.Rescore>
     Score         DG    S(hbond)    S(metal)    S(lipo)     H(rot)  DE(clash)    DE(int)     intcor
     17.45     -19.46       1.84        0.00     102.11       1.61       0.06       1.95       ----

> <Gold.Chemscore.Fitness>
17.4532

> <Gold.Chemscore.DG>
-19.4604

> <Gold.Chemscore.ZeroCoef>
-5.4800

> <Gold.Chemscore.Hbond>
1.8400

> <Gold.Chemscore.Metal>
0.0000

> <Gold.Chemscore.Lipo>
102.1062

> <Gold.Chemscore.Internal_Hbond>
0.0000

> <Gold.Chemscore.DEClash>
0.0554

> <Gold.Chemscore.DEInternal>
1.9519

> <Gold.Chemscore.Rot>
1.6061

> <Gold.Chemscore.Internal.Correction>
   9.000000E+99

> <Gold.Chemscore.Hbonds>
donor molecule, donor type, donor heavy atom, donor atom, acceptor molecule, acceptor atom, score
      L1  H    15    39       P1  7948  0.88
      P1  H  7989  7998       L1    11  0.29

> <Gold.Chemscore.Hbond.Weighted>
-6.1456

> <Gold.Chemscore.Metal.Weighted>
-0.0000

> <Gold.Chemscore.Lipo.Weighted>
-11.9464

> <Gold.Chemscore.Internal_Hbond.Weighted>
0.0000

> <Gold.Chemscore.DEClash.Weighted>
0.0554

> <Gold.Chemscore.DEInternal.Weighted>
1.9519

> <Gold.Chemscore.Rot.Weighted>
4.1116

> <Gold.Chemscore.Internal.Correction.Weighted>
   9.000000E+99

> <Gold.Protein.RotatedTorsions>
[ 6907 6896 6895 6894 ] final -117.44 input  -60.11 | X-H torsion
[ 7974 7965 7964 7962 ] final -177.57 input  175.53 | X-H torsion
[ 8008 7997 7996 7995 ] final   86.99 input   59.86 | X-H torsion
[ 10167 10162 10161 10158 ] final -161.11 input  -65.29 | X-H torsion
[ 10718 10713 10712 10709 ] final  164.56 input   66.30 | X-H torsion
[ 10763 10752 10751 10750 ] final  -40.05 input  -60.55 | X-H torsion
[ 11005 11000 10999 10996 ] final  129.11 input  -57.11 | X-H torsion

> <Gold.Protein.ActiveResidues>
 VAL166  LYS551  ARG553  GLY616  TRP617  ASP618  TYR619  PRO620  LYS621  CYS622 
 ASP623  PHE694  ASN695  SER759  ASP760  ASP761  ALA762  ILE779  LEU786  VAL792 
 PHE793  MET794  SER795  GLU796  ALA797  LYS798  CYS799  TRP800  GLU811  SER814 

> <Gold.Protein.RotatedAtoms>
  150.8137  133.8376  159.3170 H   0  0  0  0  0  0  0  0  0  0  0  0  # atno 6907 bound_to 6896
  151.6154  135.1035  160.0099 H   0  0  0  0  0  0  0  0  0  0  0  0  # atno 6908 bound_to 6896
  152.4229  133.7105  159.6533 H   0  0  0  0  0  0  0  0  0  0  0  0  # atno 6909 bound_to 6896
  144.7128  140.0999  143.6417 H   0  0  0  0  0  0  0  0  0  0  0  0  # atno 7974 bound_to 7965
  155.9697  140.3386  155.6564 H   0  0  0  0  0  0  0  0  0  0  0  0  # atno 8008 bound_to 7997
  155.6691  140.0725  157.2545 H   0  0  0  0  0  0  0  0  0  0  0  0  # atno 8009 bound_to 7997
  154.4163  140.1695  156.1847 H   0  0  0  0  0  0  0  0  0  0  0  0  # atno 8010 bound_to 7997
  139.6489  144.0120  152.2147 H   0  0  0  0  0  0  0  0  0  0  0  0  # atno 10167 bound_to 10162
  157.0926  131.0421  151.2531 H   0  0  0  0  0  0  0  0  0  0  0  0  # atno 10718 bound_to 10713
  153.9395  135.6763  153.4744 H   0  0  0  0  0  0  0  0  0  0  0  0  # atno 10763 bound_to 10752
  153.0938  135.4861  154.8738 H   0  0  0  0  0  0  0  0  0  0  0  0  # atno 10764 bound_to 10752
  154.7384  135.3155  154.8728 H   0  0  0  0  0  0  0  0  0  0  0  0  # atno 10765 bound_to 10752
  139.9597  134.9605  156.9101 H   0  0  0  0  0  0  0  0  0  0  0  0  # atno 11005 bound_to 11000
  145.9547  139.2758  143.1191 LP  0  0  0  0  0  0  0  0  0  0  0  0  # atno 17320 bound_to 7965
  145.9285  140.9065  143.0368 LP  0  0  0  0  0  0  0  0  0  0  0  0  # atno 17321 bound_to 7965
  139.9829  144.6415  150.7884 LP  0  0  0  0  0  0  0  0  0  0  0  0  # atno 17342 bound_to 10162
  140.7528  143.2997  151.3112 LP  0  0  0  0  0  0  0  0  0  0  0  0  # atno 17343 bound_to 10162
  157.4708  130.7708  149.7322 LP  0  0  0  0  0  0  0  0  0  0  0  0  # atno 17370 bound_to 10713
  155.9894  130.3952  150.3074 LP  0  0  0  0  0  0  0  0  0  0  0  0  # atno 17371 bound_to 10713
  140.5527  134.0611  155.7374 LP  0  0  0  0  0  0  0  0  0  0  0  0  # atno 17394 bound_to 11000
  141.1273  133.9361  157.2608 LP  0  0  0  0  0  0  0  0  0  0  0  0  # atno 17395 bound_to 11000

$$$$
