AV-unprocessed.smi:1|AV-procd|sdf|2|dock7
  -GOLD-   2262015 83D 1   1.00000     0.00000
 Structure written by MMmdl.
 57 62  0  0  0  0  0  0  0  0  1 V2000
  153.8685  139.8312  158.8315 O   0  0  0  0  0  0  0  0  0  0  0  0
  153.4854  140.1307  159.9627 C   0  0  0  0  0  0  0  0  0  0  0  0
  153.3577  139.1460  161.0225 N   0  0  0  0  0  0  0  0  0  0  0  0
  153.6781  137.8313  160.9857 C   0  0  0  0  0  0  0  0  0  0  0  0
  154.0327  137.1984  159.8361 N   0  0  0  0  0  0  0  0  0  0  0  0
  154.3369  135.8975  159.8508 C   0  0  0  0  0  0  0  0  0  0  0  0
  154.3536  135.0574  160.8875 N   0  0  0  0  0  0  0  0  0  0  0  0
  154.0042  135.6860  162.0462 C   0  0  0  0  0  0  0  0  0  0  0  0
  153.6564  137.0592  162.1765 C   0  0  0  0  0  0  0  0  0  0  0  0
  153.3593  137.3449  163.5030 N   0  0  0  0  0  0  0  0  0  0  0  0
  153.5234  136.2035  164.1168 C   0  0  0  0  0  0  0  0  0  0  0  0
  153.9127  135.1537  163.3153 N   0  0  0  0  0  0  0  0  0  0  0  0
  154.1792  133.7448  163.7242 C   0  0  1  0  0  0  0  0  0  0  0  0
  152.9900  133.1463  164.1226 O   0  0  0  0  0  0  0  0  0  0  0  0
  153.0897  131.7377  163.9155 C   0  0  1  0  0  0  0  0  0  0  0  0
  151.7665  131.2178  163.3336 C   0  0  0  0  0  0  0  0  0  0  0  0
  151.2206  130.2234  164.1862 O   0  0  0  0  0  0  0  0  0  0  0  0
  149.9844  129.7394  163.9662 C   0  0  0  0  0  0  0  0  0  0  0  0
  149.3826  129.8592  162.8970 O   0  0  0  0  0  0  0  0  0  0  0  0
  149.4261  129.0294  165.1525 C   0  0  0  0  0  0  0  0  0  0  0  0
  150.2237  128.8789  166.3103 C   0  0  0  0  0  0  0  0  0  0  0  0
  149.7160  128.2268  167.4509 C   0  0  0  0  0  0  0  0  0  0  0  0
  148.4053  127.7148  167.4460 C   0  0  0  0  0  0  0  0  0  0  0  0
  147.6038  127.8525  166.2979 C   0  0  0  0  0  0  0  0  0  0  0  0
  148.1105  128.5031  165.1565 C   0  0  0  0  0  0  0  0  0  0  0  0
  154.3167  131.5058  163.0153 C   0  0  2  0  0  0  0  0  0  0  0  0
  155.3880  130.9761  163.7787 O   0  0  0  0  0  0  0  0  0  0  0  0
  156.7926  131.7782  163.3582 S   0  0  0  0  0  0  0  0  0  0  0  0
  157.3688  132.3655  164.5774 O   0  0  0  0  0  0  0  0  0  0  0  0
  157.5648  130.9138  162.4530 O   0  0  0  0  0  0  0  0  0  0  0  0
  156.1147  133.0080  162.4534 O   0  0  0  0  0  0  0  0  0  0  0  0
  154.7058  132.9155  162.5573 C   0  0  2  0  0  0  0  0  0  0  0  0
  153.0398  141.5235  160.3015 C   0  0  0  0  0  0  0  0  0  0  0  0
  152.8820  142.4835  159.2768 C   0  0  0  0  0  0  0  0  0  0  0  0
  152.4779  143.7970  159.5863 C   0  0  0  0  0  0  0  0  0  0  0  0
  152.2357  144.1636  160.9236 C   0  0  0  0  0  0  0  0  0  0  0  0
  152.4022  143.2168  161.9518 C   0  0  0  0  0  0  0  0  0  0  0  0
  152.8059  141.9029  161.6436 C   0  0  0  0  0  0  0  0  0  0  0  0
  152.9878  139.4865  161.8981 H   0  0  0  0  0  0  0  0  0  0  0  0
  154.6067  135.4699  158.8962 H   0  0  0  0  0  0  0  0  0  0  0  0
  153.3674  136.0963  165.1805 H   0  0  0  0  0  0  0  0  0  0  0  0
  154.8688  133.8054  164.5677 H   0  0  0  0  0  0  0  0  0  0  0  0
  153.2510  131.2687  164.8870 H   0  0  0  0  0  0  0  0  0  0  0  0
  151.0518  132.0365  163.2423 H   0  0  0  0  0  0  0  0  0  0  0  0
  151.9343  130.8162  162.3334 H   0  0  0  0  0  0  0  0  0  0  0  0
  151.2312  129.2682  166.3389 H   0  0  0  0  0  0  0  0  0  0  0  0
  150.3327  128.1210  168.3311 H   0  0  0  0  0  0  0  0  0  0  0  0
  148.0159  127.2164  168.3214 H   0  0  0  0  0  0  0  0  0  0  0  0
  146.5979  127.4593  166.2917 H   0  0  0  0  0  0  0  0  0  0  0  0
  147.4684  128.5930  164.2928 H   0  0  0  0  0  0  0  0  0  0  0  0
  154.1207  130.8391  162.1745 H   0  0  0  0  0  0  0  0  0  0  0  0
  154.1994  133.1883  161.6314 H   0  0  0  0  0  0  0  0  0  0  0  0
  153.0643  142.2179  158.2454 H   0  0  0  0  0  0  0  0  0  0  0  0
  152.3548  144.5236  158.7968 H   0  0  0  0  0  0  0  0  0  0  0  0
  151.9263  145.1708  161.1605 H   0  0  0  0  0  0  0  0  0  0  0  0
  152.2228  143.4995  162.9786 H   0  0  0  0  0  0  0  0  0  0  0  0
  152.9366  141.1947  162.4490 H   0  0  0  0  0  0  0  0  0  0  0  0
  1  2  2  0  0  0  0
  2  3  1  0  0  0  0
  2 33  1  0  0  0  0
  3  4  1  0  0  0  0
  3 39  1  0  0  0  0
  4  9  1  0  0  0  0
  4  5  2  0  0  0  0
  5  6  1  0  0  0  0
  6  7  2  0  0  0  0
  6 40  1  0  0  0  0
  7  8  1  0  0  0  0
  8 12  1  0  0  0  0
  8  9  2  0  0  0  0
  9 10  1  0  0  0  0
 10 11  2  0  0  0  0
 11 12  1  0  0  0  0
 11 41  1  0  0  0  0
 12 13  1  0  0  0  0
 13 32  1  0  0  0  0
 13 14  1  0  0  0  0
 13 42  1  0  0  0  0
 14 15  1  0  0  0  0
 15 16  1  0  0  0  0
 15 26  1  0  0  0  0
 15 43  1  0  0  0  0
 16 17  1  0  0  0  0
 16 44  1  0  0  0  0
 16 45  1  0  0  0  0
 17 18  1  0  0  0  0
 18 19  2  0  0  0  0
 18 20  1  0  0  0  0
 20 25  1  0  0  0  0
 20 21  2  0  0  0  0
 21 22  1  0  0  0  0
 21 46  1  0  0  0  0
 22 23  2  0  0  0  0
 22 47  1  0  0  0  0
 23 24  1  0  0  0  0
 23 48  1  0  0  0  0
 24 25  2  0  0  0  0
 24 49  1  0  0  0  0
 25 50  1  0  0  0  0
 26 32  1  0  0  0  0
 26 27  1  0  0  0  0
 26 51  1  0  0  0  0
 27 28  1  0  0  0  0
 28 29  2  0  0  0  0
 28 30  2  0  0  0  0
 28 31  1  0  0  0  0
 31 32  1  0  0  0  0
 32 52  1  0  0  0  0
 33 38  1  0  0  0  0
 33 34  2  0  0  0  0
 34 35  1  0  0  0  0
 34 53  1  0  0  0  0
 35 36  2  0  0  0  0
 35 54  1  0  0  0  0
 36 37  1  0  0  0  0
 36 55  1  0  0  0  0
 37 38  2  0  0  0  0
 37 56  1  0  0  0  0
 38 57  1  0  0  0  0
M  END
> <s_m_source_file>
AV-unprocessed.smi

> <i_m_source_file_index>
1

> <i_lp_mmshare_version>
43012

> <i_f3d_flags>
0

> <s_epik_input>
W2NIXTFbY0hdW2NIXVtjSF1bY0hdYzFDKD1PKVtOSF1jKG5bY0hdbjIpYyhjMjMpbltjSF1uM1tDQEBIXShbQ0BIXShbQ0BIXTQ1KU9TKE81KSg9Tyk9TylPW0NASF00W0NIMl1PQyg9TyljNltjSF1bY0hdW2NIXVtjSF1bY0hdNg==

> <s_epik_cmdline>
J2VwaWtfcHl0aG9uJywgJy1waCcsICc3LjAnLCAnLXRuJywgJzgnLCAnLW1hJywgJzIwMCcsICctbWV0YWxfYmluZGluZycsICctaW1hZScsICc8aW5maWxlLm1hZT4nLCAnLW9tYWUnLCAnPG91dGZpbGUubWFlPic=

> <r_lp_tautomer_probability>
1

> <r_epik_Ionization_Penalty>
0.00195722

> <r_epik_Ionization_Penalty_Charging>
0

> <r_epik_Ionization_Penalty_Neutral>
0.00195722

> <r_epik_State_Penalty>
0.00633741

> <r_epik_Charging_Adjusted_Penalty>
0.00633741

> <i_epik_Tot_Q>
0

> <i_epik_Tot_abs_Q>
0

> <r_epik_Metal_State_Penalty>
0.341185

> <b_epik_Metal_Only>
0

> <s_epik_Chemistry_Notes>
This compound has an ester and may undergo hydrolysis at high or low pH. This compound contains an acetal/aminal-like group ( X-CH(R)-Y where X, Y are N, S, or O) that may be acid/base labile, releasing an aldehyde.

> <s_lp_Force_Field>
OPLS_2005

> <r_lp_Energy>
43.8604

> <b_lp_Chiralities_Consistent>
1

> <s_lp_Variant>
AV-unprocessed.smi:1-2

> <Gold.Version>
5.8.1

> <Gold.Id.Protein>
6NUR|6NUR_protein|mol2

> <Gold.PLP.Fitness>
63.3824

> <Gold.PLP.PLP>
-63.0566

> <Gold.PLP.part.hbond>
-1.0000

> <Gold.PLP.part.metal>
0.0000

> <Gold.PLP.part.buried>
-5.0433

> <Gold.PLP.part.nonpolar>
-57.3937

> <Gold.PLP.part.repulsive>
0.2409

> <Gold.PLP.ligand.clash>
0.4145

> <Gold.PLP.ligand.torsion>
1.1594

> <Gold.PLP.Chemscore.Hbond>
1.0000

> <Gold.PLP.Chemscore.CHOScore>
0.0000

> <Gold.PLP.Chemscore.Metal>
0.0000

> <Gold.Chemscore.Hbonds>
donor molecule, donor type, donor heavy atom, donor atom, acceptor molecule, acceptor atom, score
      P1  H  6896  6907       L1     7  0.04
      P1  H  7997  8010       L1     1  1.00

> <Gold.PLP.Chemscore.Internal.Correction>
0.0590

> <Gold.Rescore>
     Score         DG    S(hbond)    S(metal)    S(lipo)     H(rot)  DE(clash)    DE(int)     intcor
     16.85     -20.98       1.00        0.00     150.67       2.13       0.12       4.00       ----

> <Gold.Chemscore.Fitness>
16.8525

> <Gold.Chemscore.DG>
-20.9765

> <Gold.Chemscore.ZeroCoef>
-5.4800

> <Gold.Chemscore.Hbond>
0.9968

> <Gold.Chemscore.Metal>
0.0000

> <Gold.Chemscore.Lipo>
150.6705

> <Gold.Chemscore.Internal_Hbond>
0.0000

> <Gold.Chemscore.DEClash>
0.1197

> <Gold.Chemscore.DEInternal>
4.0043

> <Gold.Chemscore.Rot>
2.1333

> <Gold.Chemscore.Internal.Correction>
   9.000000E+99

> <Gold.Chemscore.Hbonds>
donor molecule, donor type, donor heavy atom, donor atom, acceptor molecule, acceptor atom, score
      P1  H  7997  8010       L1     1  0.98

> <Gold.Chemscore.Hbond.Weighted>
-3.3294

> <Gold.Chemscore.Metal.Weighted>
-0.0000

> <Gold.Chemscore.Lipo.Weighted>
-17.6285

> <Gold.Chemscore.Internal_Hbond.Weighted>
0.0000

> <Gold.Chemscore.DEClash.Weighted>
0.1197

> <Gold.Chemscore.DEInternal.Weighted>
4.0043

> <Gold.Chemscore.Rot.Weighted>
5.4614

> <Gold.Chemscore.Internal.Correction.Weighted>
   9.000000E+99

> <Gold.Protein.RotatedTorsions>
[ 6907 6896 6895 6894 ] final  102.78 input  -60.11 | X-H torsion
[ 7974 7965 7964 7962 ] final   16.57 input  175.53 | X-H torsion
[ 8008 7997 7996 7995 ] final    9.73 input   59.86 | X-H torsion
[ 10167 10162 10161 10158 ] final  -18.88 input  -65.29 | X-H torsion
[ 10718 10713 10712 10709 ] final   87.49 input   66.30 | X-H torsion
[ 10763 10752 10751 10750 ] final  170.32 input  -60.55 | X-H torsion
[ 11005 11000 10999 10996 ] final -119.60 input  -57.11 | X-H torsion

> <Gold.Protein.ActiveResidues>
 VAL166  LYS551  ARG553  GLY616  TRP617  ASP618  TYR619  PRO620  LYS621  CYS622 
 ASP623  PHE694  ASN695  SER759  ASP760  ASP761  ALA762  ILE779  LEU786  VAL792 
 PHE793  MET794  SER795  GLU796  ALA797  LYS798  CYS799  TRP800  GLU811  SER814 

> <Gold.Protein.RotatedAtoms>
  152.5314  133.9924  159.7856 H   0  0  0  0  0  0  0  0  0  0  0  0  # atno 6907 bound_to 6896
  151.0157  133.5915  159.2684 H   0  0  0  0  0  0  0  0  0  0  0  0  # atno 6908 bound_to 6896
  151.2973  135.0765  159.9279 H   0  0  0  0  0  0  0  0  0  0  0  0  # atno 6909 bound_to 6896
  146.2245  139.8729  142.8584 H   0  0  0  0  0  0  0  0  0  0  0  0  # atno 7974 bound_to 7965
  154.7839  140.2824  155.6042 H   0  0  0  0  0  0  0  0  0  0  0  0  # atno 8008 bound_to 7997
  156.2954  140.2618  156.2599 H   0  0  0  0  0  0  0  0  0  0  0  0  # atno 8009 bound_to 7997
  154.9751  140.0375  157.2242 H   0  0  0  0  0  0  0  0  0  0  0  0  # atno 8010 bound_to 7997
  140.7263  143.4873  151.0038 H   0  0  0  0  0  0  0  0  0  0  0  0  # atno 10167 bound_to 10162
  157.6940  131.0257  150.3131 H   0  0  0  0  0  0  0  0  0  0  0  0  # atno 10718 bound_to 10713
  154.3958  135.2754  155.2127 H   0  0  0  0  0  0  0  0  0  0  0  0  # atno 10763 bound_to 10752
  154.4173  135.6008  153.5992 H   0  0  0  0  0  0  0  0  0  0  0  0  # atno 10764 bound_to 10752
  152.9831  135.5964  154.4219 H   0  0  0  0  0  0  0  0  0  0  0  0  # atno 10765 bound_to 10752
  141.0204  134.0133  157.3291 H   0  0  0  0  0  0  0  0  0  0  0  0  # atno 11005 bound_to 11000
  145.2590  141.0070  143.3837 LP  0  0  0  0  0  0  0  0  0  0  0  0  # atno 17320 bound_to 7965
  144.9313  139.4295  143.6493 LP  0  0  0  0  0  0  0  0  0  0  0  0  # atno 17321 bound_to 7965
  139.8575  143.7358  152.3175 LP  0  0  0  0  0  0  0  0  0  0  0  0  # atno 17342 bound_to 10162
  139.7561  144.7520  151.0433 LP  0  0  0  0  0  0  0  0  0  0  0  0  # atno 17343 bound_to 10162
  156.3629  130.3850  149.7236 LP  0  0  0  0  0  0  0  0  0  0  0  0  # atno 17370 bound_to 10713
  156.4676  130.7981  151.3000 LP  0  0  0  0  0  0  0  0  0  0  0  0  # atno 17371 bound_to 10713
  139.9142  135.0194  156.7816 LP  0  0  0  0  0  0  0  0  0  0  0  0  # atno 17394 bound_to 11000
  140.6583  133.9668  155.7791 LP  0  0  0  0  0  0  0  0  0  0  0  0  # atno 17395 bound_to 11000

$$$$
