AV-unprocessed.smi:195|AV-procd|sdf|1524|dock3
  -GOLD-   2262019373D 1   1.00000     0.00000
 Structure written by MMmdl.
 45 48  0  0  0  0  0  0  0  0  1 V2000
  149.5983  137.1786  160.3605 N   0  0  0  0  0  0  0  0  0  0  0  0
  150.1018  137.1988  159.3191 C   0  0  0  0  0  0  0  0  0  0  0  0
  150.7432  137.2234  157.9950 C   0  0  0  0  0  0  0  0  0  0  0  0
  152.2601  137.4246  158.0569 C   0  0  0  0  0  0  0  0  0  0  0  0
  152.7796  136.1555  158.3942 O   0  0  0  0  0  0  0  0  0  0  0  0
  152.9303  138.1023  156.8581 C   0  0  0  0  0  0  0  0  0  0  0  0
  152.9718  139.3328  157.6444 N   0  0  0  0  0  0  0  0  0  0  0  0
  151.9583  140.2775  157.2880 C   0  0  0  0  0  0  0  0  0  0  0  0
  151.7806  141.4172  158.0098 N   0  0  0  0  0  0  0  0  0  0  0  0
  150.8400  142.3069  157.6802 C   0  0  0  0  0  0  0  0  0  0  0  0
  149.9736  142.2657  156.6680 N   0  0  0  0  0  0  0  0  0  0  0  0
  150.1495  141.1398  155.9211 C   0  0  0  0  0  0  0  0  0  0  0  0
  151.1093  140.1141  156.1554 C   0  0  0  0  0  0  0  0  0  0  0  0
  150.9983  139.1342  155.1759 N   0  0  0  0  0  0  0  0  0  0  0  0
  150.0259  139.5516  154.4127 C   0  0  0  0  0  0  0  0  0  0  0  0
  149.4444  140.7379  154.7998 N   0  0  0  0  0  0  0  0  0  0  0  0
  148.3525  141.4279  154.1339 C   0  0  0  0  0  0  0  0  0  0  0  0
  146.9917  140.7043  154.2572 C   0  0  2  0  0  0  0  0  0  0  0  0
  146.6907  140.2288  152.9607 O   0  0  0  0  0  0  0  0  0  0  0  0
  145.8055  141.5903  154.7043 C   0  0  2  0  0  0  0  0  0  0  0  0
  145.5309  142.8341  153.8558 C   0  0  0  0  0  0  0  0  0  0  0  0
  144.8117  143.7717  154.8104 C   0  0  0  0  0  0  0  0  0  0  0  0
  145.1663  143.2256  156.1944 C   0  0  0  0  0  0  0  0  0  0  0  0
  146.1127  142.1938  155.9532 O   0  0  0  0  0  0  0  0  0  0  0  0
  152.7998  138.5895  158.8933 C   0  0  0  0  0  0  0  0  0  0  0  0
  150.4892  136.2964  157.4800 H   0  0  0  0  0  0  0  0  0  0  0  0
  150.2672  138.0255  157.4314 H   0  0  0  0  0  0  0  0  0  0  0  0
  153.7212  136.2375  158.4086 H   0  0  0  0  0  0  0  0  0  0  0  0
  153.9311  137.7228  156.6468 H   0  0  0  0  0  0  0  0  0  0  0  0
  152.3109  138.1328  155.9610 H   0  0  0  0  0  0  0  0  0  0  0  0
  150.7730  143.1750  158.3192 H   0  0  0  0  0  0  0  0  0  0  0  0
  149.6998  138.9975  153.5443 H   0  0  0  0  0  0  0  0  0  0  0  0
  148.2778  142.4452  154.5199 H   0  0  0  0  0  0  0  0  0  0  0  0
  148.6321  141.5178  153.0831 H   0  0  0  0  0  0  0  0  0  0  0  0
  147.0862  139.8426  154.9190 H   0  0  0  0  0  0  0  0  0  0  0  0
  145.7513  140.1971  152.8631 H   0  0  0  0  0  0  0  0  0  0  0  0
  144.8909  141.0007  154.7955 H   0  0  0  0  0  0  0  0  0  0  0  0
  146.4694  143.2913  153.5393 H   0  0  0  0  0  0  0  0  0  0  0  0
  144.9384  142.6187  152.9673 H   0  0  0  0  0  0  0  0  0  0  0  0
  145.1423  144.8024  154.6779 H   0  0  0  0  0  0  0  0  0  0  0  0
  143.7326  143.7406  154.6550 H   0  0  0  0  0  0  0  0  0  0  0  0
  145.5838  143.9892  156.8512 H   0  0  0  0  0  0  0  0  0  0  0  0
  144.2855  142.8025  156.6790 H   0  0  0  0  0  0  0  0  0  0  0  0
  152.0993  138.9959  159.6226 H   0  0  0  0  0  0  0  0  0  0  0  0
  153.7622  138.3693  159.3576 H   0  0  0  0  0  0  0  0  0  0  0  0
  1  2  3  0  0  0  0
  2  3  1  0  0  0  0
  3  4  1  0  0  0  0
  3 26  1  0  0  0  0
  3 27  1  0  0  0  0
  4 25  1  0  0  0  0
  4  5  1  0  0  0  0
  4  6  1  0  0  0  0
  5 28  1  0  0  0  0
  6  7  1  0  0  0  0
  6 29  1  0  0  0  0
  6 30  1  0  0  0  0
  7  8  1  0  0  0  0
  7 25  1  0  0  0  0
  8 13  1  0  0  0  0
  8  9  2  0  0  0  0
  9 10  1  0  0  0  0
 10 11  2  0  0  0  0
 10 31  1  0  0  0  0
 11 12  1  0  0  0  0
 12 16  1  0  0  0  0
 12 13  2  0  0  0  0
 13 14  1  0  0  0  0
 14 15  2  0  0  0  0
 15 16  1  0  0  0  0
 15 32  1  0  0  0  0
 16 17  1  0  0  0  0
 17 18  1  0  0  0  0
 17 33  1  0  0  0  0
 17 34  1  0  0  0  0
 18 19  1  0  0  0  0
 18 20  1  0  0  0  0
 18 35  1  0  0  0  0
 19 36  1  0  0  0  0
 20 24  1  0  0  0  0
 20 21  1  0  0  0  0
 20 37  1  0  0  0  0
 21 22  1  0  0  0  0
 21 38  1  0  0  0  0
 21 39  1  0  0  0  0
 22 23  1  0  0  0  0
 22 40  1  0  0  0  0
 22 41  1  0  0  0  0
 23 24  1  0  0  0  0
 23 42  1  0  0  0  0
 23 43  1  0  0  0  0
 25 44  1  0  0  0  0
 25 45  1  0  0  0  0
M  END
> <s_m_source_file>
AV-unprocessed.smi

> <i_m_source_file_index>
195

> <i_lp_mmshare_version>
43012

> <i_f3d_flags>
0

> <s_epik_input>
TiNDW0NIMl1DMShbT0hdKVtDSDJdTihbQ0gyXTEpYyhuW2NIXW4yKWMoYzIzKW5bY0hdbjNbQ0gyXVtDQEhdKFtPSF0pW0NAQEhdNFtDSDJdW0NIMl1bQ0gyXU80

> <s_epik_cmdline>
J2VwaWtfcHl0aG9uJywgJy1waCcsICc3LjAnLCAnLXRuJywgJzgnLCAnLW1hJywgJzIwMCcsICctbWV0YWxfYmluZGluZycsICctaW1hZScsICc8aW5maWxlLm1hZT4nLCAnLW9tYWUnLCAnPG91dGZpbGUubWFlPic=

> <r_lp_tautomer_probability>
1

> <r_epik_Ionization_Penalty>
0.00307146

> <r_epik_Ionization_Penalty_Charging>
0

> <r_epik_Ionization_Penalty_Neutral>
0.00307146

> <r_epik_State_Penalty>
0.0020279

> <r_epik_Charging_Adjusted_Penalty>
0.0020279

> <i_epik_Tot_Q>
0

> <i_epik_Tot_abs_Q>
0

> <r_epik_Metal_State_Penalty>
-0

> <b_epik_Metal_Only>
0

> <s_lp_Force_Field>
OPLS_2005

> <r_lp_Energy>
46.5325

> <b_lp_Chiralities_Consistent>
1

> <s_lp_Variant>
AV-unprocessed.smi:195-1

> <Gold.Version>
5.8.1

> <Gold.Id.Protein>
6NUR|6NUR_protein|mol2

> <Gold.PLP.Fitness>
46.6576

> <Gold.PLP.PLP>
-37.9861

> <Gold.PLP.part.hbond>
-3.8626

> <Gold.PLP.part.metal>
0.0000

> <Gold.PLP.part.buried>
-6.5787

> <Gold.PLP.part.nonpolar>
-29.7976

> <Gold.PLP.part.repulsive>
1.9969

> <Gold.PLP.ligand.clash>
0.0000

> <Gold.PLP.ligand.torsion>
1.1700

> <Gold.PLP.Chemscore.Hbond>
2.5612

> <Gold.PLP.Chemscore.CHOScore>
0.9670

> <Gold.PLP.Chemscore.Metal>
0.0000

> <Gold.Chemscore.Hbonds>
donor molecule, donor type, donor heavy atom, donor atom, acceptor molecule, acceptor atom, score
      L1  H    19    36       P1 10175  0.78
      P1  H  6896  6909       L1     5  0.40
      P1  H  6931  6943       L1     1  0.38
      P1  H  7997  8008       L1     7  0.95
      L1  C    15    32       P1  7957  0.72

> <Gold.PLP.Chemscore.Internal.Correction>
0.4268

> <Gold.Rescore>
     Score         DG    S(hbond)    S(metal)    S(lipo)     H(rot)  DE(clash)    DE(int)     intcor
      5.15      -8.57       1.96        0.00      52.00       3.72       0.81       2.61       ----

> <Gold.Chemscore.Fitness>
5.1497

> <Gold.Chemscore.DG>
-8.5712

> <Gold.Chemscore.ZeroCoef>
-5.4800

> <Gold.Chemscore.Hbond>
1.9559

> <Gold.Chemscore.Metal>
0.0000

> <Gold.Chemscore.Lipo>
52.0003

> <Gold.Chemscore.Internal_Hbond>
0.0000

> <Gold.Chemscore.DEClash>
0.8104

> <Gold.Chemscore.DEInternal>
2.6111

> <Gold.Chemscore.Rot>
3.7210

> <Gold.Chemscore.Internal.Correction>
   9.000000E+99

> <Gold.Chemscore.Hbonds>
donor molecule, donor type, donor heavy atom, donor atom, acceptor molecule, acceptor atom, score
      L1  H    19    36       P1 10175  0.72
      P1  H  6896  6909       L1     5  0.31
      P1  H  6931  6943       L1     1  0.40
      P1  H  7997  8008       L1     7  0.13

> <Gold.Chemscore.Hbond.Weighted>
-6.5328

> <Gold.Chemscore.Metal.Weighted>
-0.0000

> <Gold.Chemscore.Lipo.Weighted>
-6.0840

> <Gold.Chemscore.Internal_Hbond.Weighted>
0.0000

> <Gold.Chemscore.DEClash.Weighted>
0.8104

> <Gold.Chemscore.DEInternal.Weighted>
2.6111

> <Gold.Chemscore.Rot.Weighted>
9.5256

> <Gold.Chemscore.Internal.Correction.Weighted>
   9.000000E+99

> <Gold.Protein.RotatedTorsions>
[ 6907 6896 6895 6894 ] final  150.28 input  -60.11 | X-H torsion
[ 7974 7965 7964 7962 ] final -175.17 input  175.53 | X-H torsion
[ 8008 7997 7996 7995 ] final  -87.06 input   59.86 | X-H torsion
[ 10167 10162 10161 10158 ] final  -23.53 input  -65.29 | X-H torsion
[ 10718 10713 10712 10709 ] final  151.75 input   66.30 | X-H torsion
[ 10763 10752 10751 10750 ] final -173.95 input  -60.55 | X-H torsion
[ 11005 11000 10999 10996 ] final   14.27 input  -57.11 | X-H torsion

> <Gold.Protein.ActiveResidues>
 VAL166  LYS551  ARG553  GLY616  TRP617  ASP618  TYR619  PRO620  LYS621  CYS622 
 ASP623  PHE694  ASN695  SER759  ASP760  ASP761  ALA762  ILE779  LEU786  VAL792 
 PHE793  MET794  SER795  GLU796  ALA797  LYS798  CYS799  TRP800  GLU811  SER814 

> <Gold.Protein.RotatedAtoms>
  152.1166  133.4330  159.4655 H   0  0  0  0  0  0  0  0  0  0  0  0  # atno 6907 bound_to 6896
  150.6870  134.2585  159.4549 H   0  0  0  0  0  0  0  0  0  0  0  0  # atno 6908 bound_to 6896
  152.0458  134.9683  160.0625 H   0  0  0  0  0  0  0  0  0  0  0  0  # atno 6909 bound_to 6896
  144.7129  140.1362  143.6395 H   0  0  0  0  0  0  0  0  0  0  0  0  # atno 7974 bound_to 7965
  154.6589  140.0570  157.0040 H   0  0  0  0  0  0  0  0  0  0  0  0  # atno 8008 bound_to 7997
  155.1258  140.3252  155.4467 H   0  0  0  0  0  0  0  0  0  0  0  0  # atno 8009 bound_to 7997
  156.2609  140.1989  156.6379 H   0  0  0  0  0  0  0  0  0  0  0  0  # atno 8010 bound_to 7997
  140.7288  143.4435  151.0621 H   0  0  0  0  0  0  0  0  0  0  0  0  # atno 10167 bound_to 10162
  157.2666  131.0809  151.1629 H   0  0  0  0  0  0  0  0  0  0  0  0  # atno 10718 bound_to 10713
  154.6019  135.2855  155.0526 H   0  0  0  0  0  0  0  0  0  0  0  0  # atno 10763 bound_to 10752
  154.1787  135.6460  153.5032 H   0  0  0  0  0  0  0  0  0  0  0  0  # atno 10764 bound_to 10752
  153.0160  135.5418  154.6741 H   0  0  0  0  0  0  0  0  0  0  0  0  # atno 10765 bound_to 10752
  140.4714  134.1027  155.7733 H   0  0  0  0  0  0  0  0  0  0  0  0  # atno 11005 bound_to 11000
  145.9243  139.2565  143.1363 LP  0  0  0  0  0  0  0  0  0  0  0  0  # atno 17320 bound_to 7965
  145.9588  140.8851  143.0221 LP  0  0  0  0  0  0  0  0  0  0  0  0  # atno 17321 bound_to 7965
  139.8104  143.7958  152.3171 LP  0  0  0  0  0  0  0  0  0  0  0  0  # atno 17342 bound_to 10162
  139.8006  144.7375  150.9830 LP  0  0  0  0  0  0  0  0  0  0  0  0  # atno 17343 bound_to 10162
  157.3117  130.6893  149.6219 LP  0  0  0  0  0  0  0  0  0  0  0  0  # atno 17370 bound_to 10713
  155.9663  130.4361  150.5121 LP  0  0  0  0  0  0  0  0  0  0  0  0  # atno 17371 bound_to 10713
  141.1575  133.8855  157.1938 LP  0  0  0  0  0  0  0  0  0  0  0  0  # atno 17394 bound_to 11000
  139.9883  135.0074  156.9914 LP  0  0  0  0  0  0  0  0  0  0  0  0  # atno 17395 bound_to 11000

$$$$
