AV-unprocessed.smi:590|AV-procd|sdf|3008|dock2
  -GOLD-   2262023513D 1   1.00000     0.00000
 Structure written by MMmdl.
 41 42  0  0  0  0  0  0  0  0  1 V2000
  148.0983  136.2374  155.5616 C   0  0  0  0  0  0  0  0  0  0  0  0
  149.5161  136.7014  155.3889 C   0  0  0  0  0  0  0  0  0  0  0  0
  150.5068  135.9744  155.8780 N   0  0  0  0  0  0  0  0  0  0  0  0
  151.6803  136.6680  155.5667 O   0  0  0  0  0  0  0  0  0  0  0  0
  151.3453  137.8000  154.8968 C   0  0  0  0  0  0  0  0  0  0  0  0
  152.4668  138.6896  154.4789 C   0  0  0  0  0  0  0  0  0  0  0  0
  149.9885  137.8818  154.7467 C   0  0  0  0  0  0  0  0  0  0  0  0
  149.1809  138.9601  154.0725 C   0  0  0  0  0  0  0  0  0  0  0  0
  149.5113  140.3157  154.6969 C   0  0  0  0  0  0  0  0  0  0  0  0
  149.7287  141.2876  153.9735 O   0  0  0  0  0  0  0  0  0  0  0  0
  149.5484  140.3642  156.0381 N   0  0  0  0  0  0  0  0  0  0  0  0
  149.8465  141.5485  156.8389 C   0  0  0  0  0  0  0  0  0  0  0  0
  151.3090  141.5726  157.3258 C   0  0  0  0  0  0  0  0  0  0  0  0
  151.5853  142.5956  158.4179 C   0  0  0  0  0  0  0  0  0  0  0  0
  151.4023  143.9158  158.2189 C   0  0  0  0  0  0  0  0  0  0  0  0
  151.6379  144.9797  159.2763 C   0  0  0  0  0  0  0  0  0  0  0  0
  151.7598  144.3848  160.6889 C   0  0  0  0  0  0  0  0  0  0  0  0
  152.6330  143.1244  160.6847 C   0  0  0  0  0  0  0  0  0  0  0  0
  152.0499  142.0410  159.7603 C   0  0  0  0  0  0  0  0  0  0  0  0
  147.5454  136.3146  154.6254 H   0  0  0  0  0  0  0  0  0  0  0  0
  147.5796  136.8438  156.3041 H   0  0  0  0  0  0  0  0  0  0  0  0
  148.0496  135.1983  155.8886 H   0  0  0  0  0  0  0  0  0  0  0  0
  152.1919  139.7382  154.5938 H   0  0  0  0  0  0  0  0  0  0  0  0
  152.7240  138.5196  153.4336 H   0  0  0  0  0  0  0  0  0  0  0  0
  153.3572  138.5083  155.0813 H   0  0  0  0  0  0  0  0  0  0  0  0
  149.3970  139.0110  153.0049 H   0  0  0  0  0  0  0  0  0  0  0  0
  148.1111  138.7626  154.1532 H   0  0  0  0  0  0  0  0  0  0  0  0
  149.3558  139.5122  156.5448 H   0  0  0  0  0  0  0  0  0  0  0  0
  149.6662  142.4216  156.2115 H   0  0  0  0  0  0  0  0  0  0  0  0
  149.1537  141.6392  157.6765 H   0  0  0  0  0  0  0  0  0  0  0  0
  151.5804  140.5794  157.6864 H   0  0  0  0  0  0  0  0  0  0  0  0
  151.9730  141.7793  156.4859 H   0  0  0  0  0  0  0  0  0  0  0  0
  151.0825  144.2733  157.2511 H   0  0  0  0  0  0  0  0  0  0  0  0
  152.5498  145.5170  159.0139 H   0  0  0  0  0  0  0  0  0  0  0  0
  150.8228  145.7033  159.2473 H   0  0  0  0  0  0  0  0  0  0  0  0
  152.1686  145.1289  161.3732 H   0  0  0  0  0  0  0  0  0  0  0  0
  150.7677  144.1311  161.0645 H   0  0  0  0  0  0  0  0  0  0  0  0
  153.6373  143.3861  160.3479 H   0  0  0  0  0  0  0  0  0  0  0  0
  152.7396  142.7323  161.6965 H   0  0  0  0  0  0  0  0  0  0  0  0
  151.1950  141.5631  160.2394 H   0  0  0  0  0  0  0  0  0  0  0  0
  152.7978  141.2635  159.6088 H   0  0  0  0  0  0  0  0  0  0  0  0
  1  2  1  0  0  0  0
  1 20  1  0  0  0  0
  1 21  1  0  0  0  0
  1 22  1  0  0  0  0
  2  7  1  0  0  0  0
  2  3  2  0  0  0  0
  3  4  1  0  0  0  0
  4  5  1  0  0  0  0
  5  6  1  0  0  0  0
  5  7  2  0  0  0  0
  6 23  1  0  0  0  0
  6 24  1  0  0  0  0
  6 25  1  0  0  0  0
  7  8  1  0  0  0  0
  8  9  1  0  0  0  0
  8 26  1  0  0  0  0
  8 27  1  0  0  0  0
  9 10  2  0  0  0  0
  9 11  1  0  0  0  0
 11 12  1  0  0  0  0
 11 28  1  0  0  0  0
 12 13  1  0  0  0  0
 12 29  1  0  0  0  0
 12 30  1  0  0  0  0
 13 14  1  0  0  0  0
 13 31  1  0  0  0  0
 13 32  1  0  0  0  0
 14 19  1  0  0  0  0
 14 15  2  0  0  0  0
 15 16  1  0  0  0  0
 15 33  1  0  0  0  0
 16 17  1  0  0  0  0
 16 34  1  0  0  0  0
 16 35  1  0  0  0  0
 17 18  1  0  0  0  0
 17 36  1  0  0  0  0
 17 37  1  0  0  0  0
 18 19  1  0  0  0  0
 18 38  1  0  0  0  0
 18 39  1  0  0  0  0
 19 40  1  0  0  0  0
 19 41  1  0  0  0  0
M  END
> <s_m_source_file>
AV-unprocessed.smi

> <i_m_source_file_index>
590

> <i_lp_mmshare_version>
43012

> <i_f3d_flags>
0

> <s_epik_input>
W0NIM11jMW5vYyhbQ0gzXSljMVtDSDJdQyg9TylbTkhdW0NIMl1bQ0gyXUMyPVtDSF1bQ0gyXVtDSDJdW0NIMl1bQ0gyXTI=

> <s_epik_cmdline>
J2VwaWtfcHl0aG9uJywgJy1waCcsICc3LjAnLCAnLXRuJywgJzgnLCAnLW1hJywgJzIwMCcsICctbWV0YWxfYmluZGluZycsICctaW1hZScsICc8aW5maWxlLm1hZT4nLCAnLW9tYWUnLCAnPG91dGZpbGUubWFlPic=

> <r_lp_tautomer_probability>
1

> <r_epik_Ionization_Penalty>
1.93189e-08

> <r_epik_Ionization_Penalty_Charging>
0

> <r_epik_Ionization_Penalty_Neutral>
1.93189e-08

> <r_epik_State_Penalty>
-0

> <r_epik_Charging_Adjusted_Penalty>
0

> <i_epik_Tot_Q>
0

> <i_epik_Tot_abs_Q>
0

> <r_epik_Metal_State_Penalty>
-0

> <b_epik_Metal_Only>
0

> <s_lp_Force_Field>
OPLS_2005

> <r_lp_Energy>
2.22272

> <b_lp_Chiralities_Consistent>
1

> <s_lp_Variant>
AV-unprocessed.smi:590-1

> <Gold.Version>
5.8.1

> <Gold.Id.Protein>
6NUR|6NUR_protein|mol2

> <Gold.PLP.Fitness>
45.7097

> <Gold.PLP.PLP>
-39.9609

> <Gold.PLP.part.hbond>
-3.0000

> <Gold.PLP.part.metal>
0.0000

> <Gold.PLP.part.buried>
-4.8726

> <Gold.PLP.part.nonpolar>
-33.1849

> <Gold.PLP.part.repulsive>
1.1141

> <Gold.PLP.ligand.clash>
0.0000

> <Gold.PLP.ligand.torsion>
0.3803

> <Gold.PLP.Chemscore.Hbond>
2.1520

> <Gold.PLP.Chemscore.CHOScore>
0.0000

> <Gold.PLP.Chemscore.Metal>
0.0000

> <Gold.Chemscore.Hbonds>
donor molecule, donor type, donor heavy atom, donor atom, acceptor molecule, acceptor atom, score
      P1  H  7989  7998       L1    10  0.30
      P1  H  8011  8017       L1    10  0.75
      P1  H 10752 10764       L1     4  1.00

> <Gold.PLP.Chemscore.Internal.Correction>
0.0535

> <Gold.Rescore>
     Score         DG    S(hbond)    S(metal)    S(lipo)     H(rot)  DE(clash)    DE(int)     intcor
     19.50     -20.62       1.71        0.00     114.52       1.55       0.73       0.39       ----

> <Gold.Chemscore.Fitness>
19.5032

> <Gold.Chemscore.DG>
-20.6209

> <Gold.Chemscore.ZeroCoef>
-5.4800

> <Gold.Chemscore.Hbond>
1.7089

> <Gold.Chemscore.Metal>
0.0000

> <Gold.Chemscore.Lipo>
114.5240

> <Gold.Chemscore.Internal_Hbond>
0.0000

> <Gold.Chemscore.DEClash>
0.7320

> <Gold.Chemscore.DEInternal>
0.3856

> <Gold.Chemscore.Rot>
1.5493

> <Gold.Chemscore.Internal.Correction>
   9.000000E+99

> <Gold.Chemscore.Hbonds>
donor molecule, donor type, donor heavy atom, donor atom, acceptor molecule, acceptor atom, score
      P1  H  7989  7998       L1    10  0.08
      P1  H  8011  8017       L1    10  0.74
      P1  H 10752 10764       L1     4  0.83

> <Gold.Chemscore.Hbond.Weighted>
-5.7079

> <Gold.Chemscore.Metal.Weighted>
-0.0000

> <Gold.Chemscore.Lipo.Weighted>
-13.3993

> <Gold.Chemscore.Internal_Hbond.Weighted>
0.0000

> <Gold.Chemscore.DEClash.Weighted>
0.7320

> <Gold.Chemscore.DEInternal.Weighted>
0.3856

> <Gold.Chemscore.Rot.Weighted>
3.9663

> <Gold.Chemscore.Internal.Correction.Weighted>
   9.000000E+99

> <Gold.Protein.RotatedTorsions>
[ 6907 6896 6895 6894 ] final  105.96 input  -60.11 | X-H torsion
[ 7974 7965 7964 7962 ] final -108.84 input  175.53 | X-H torsion
[ 8008 7997 7996 7995 ] final -146.95 input   59.86 | X-H torsion
[ 10167 10162 10161 10158 ] final  139.80 input  -65.29 | X-H torsion
[ 10718 10713 10712 10709 ] final   85.54 input   66.30 | X-H torsion
[ 10763 10752 10751 10750 ] final  -41.47 input  -60.55 | X-H torsion
[ 11005 11000 10999 10996 ] final  127.51 input  -57.11 | X-H torsion

> <Gold.Protein.ActiveResidues>
 VAL166  LYS551  ARG553  GLY616  TRP617  ASP618  TYR619  PRO620  LYS621  CYS622 
 ASP623  PHE694  ASN695  SER759  ASP760  ASP761  ALA762  ILE779  LEU786  VAL792 
 PHE793  MET794  SER795  GLU796  ALA797  LYS798  CYS799  TRP800  GLU811  SER814 

> <Gold.Protein.RotatedAtoms>
  152.5211  133.9451  159.7644 H   0  0  0  0  0  0  0  0  0  0  0  0  # atno 6907 bound_to 6896
  150.9773  133.6273  159.2735 H   0  0  0  0  0  0  0  0  0  0  0  0  # atno 6908 bound_to 6896
  151.3463  135.0880  159.9441 H   0  0  0  0  0  0  0  0  0  0  0  0  # atno 6909 bound_to 6896
  145.1879  140.9001  143.3441 H   0  0  0  0  0  0  0  0  0  0  0  0  # atno 7974 bound_to 7965
  155.5677  140.0631  157.2814 H   0  0  0  0  0  0  0  0  0  0  0  0  # atno 8008 bound_to 7997
  154.4370  140.1874  156.0892 H   0  0  0  0  0  0  0  0  0  0  0  0  # atno 8009 bound_to 7997
  156.0400  140.3296  155.7237 H   0  0  0  0  0  0  0  0  0  0  0  0  # atno 8010 bound_to 7997
  139.5068  144.6273  151.5906 H   0  0  0  0  0  0  0  0  0  0  0  0  # atno 10167 bound_to 10162
  157.6916  131.0179  150.2837 H   0  0  0  0  0  0  0  0  0  0  0  0  # atno 10718 bound_to 10713
  153.9630  135.6737  153.4745 H   0  0  0  0  0  0  0  0  0  0  0  0  # atno 10763 bound_to 10752
  153.0829  135.4914  154.8536 H   0  0  0  0  0  0  0  0  0  0  0  0  # atno 10764 bound_to 10752
  154.7262  135.3128  154.8927 H   0  0  0  0  0  0  0  0  0  0  0  0  # atno 10765 bound_to 10752
  139.9511  134.9622  156.8865 H   0  0  0  0  0  0  0  0  0  0  0  0  # atno 11005 bound_to 11000
  145.0070  139.3545  143.6139 LP  0  0  0  0  0  0  0  0  0  0  0  0  # atno 17320 bound_to 7965
  146.3441  139.9317  142.8752 LP  0  0  0  0  0  0  0  0  0  0  0  0  # atno 17321 bound_to 7965
  140.5994  143.9638  150.6376 LP  0  0  0  0  0  0  0  0  0  0  0  0  # atno 17342 bound_to 10162
  140.2844  143.3367  152.1121 LP  0  0  0  0  0  0  0  0  0  0  0  0  # atno 17343 bound_to 10162
  156.3380  130.3811  149.7434 LP  0  0  0  0  0  0  0  0  0  0  0  0  # atno 17370 bound_to 10713
  156.4952  130.8103  151.3110 LP  0  0  0  0  0  0  0  0  0  0  0  0  # atno 17371 bound_to 10713
  140.5716  134.0437  155.7432 LP  0  0  0  0  0  0  0  0  0  0  0  0  # atno 17394 bound_to 11000
  141.1174  133.9517  157.2796 LP  0  0  0  0  0  0  0  0  0  0  0  0  # atno 17395 bound_to 11000

$$$$
