AV-unprocessed.smi:2004|AV-procd|sdf|8121|dock6
  -GOLD-   2272010353D 1   1.00000     0.00000
 Structure written by MMmdl.
 39 41  0  0  0  0  0  0  0  0  1 V2000
  151.8675  140.1568  155.0346 O   0  0  0  0  0  0  0  0  0  0  0  0
  150.6067  140.3773  155.6319 C   0  0  2  0  0  0  0  0  0  0  0  0
  149.5203  140.1560  154.5637 C   0  0  0  0  0  0  0  0  0  0  0  0
  148.3400  140.8323  154.9643 O   0  0  0  0  0  0  0  0  0  0  0  0
  147.6446  141.4172  153.8749 C   0  0  0  0  0  0  0  0  0  0  0  0
  146.6058  142.4179  154.3430 C   0  0  0  0  0  0  0  0  0  0  0  0
  145.9921  143.2868  153.4158 C   0  0  0  0  0  0  0  0  0  0  0  0
  145.0160  144.2068  153.8457 C   0  0  0  0  0  0  0  0  0  0  0  0
  144.6456  144.2582  155.2035 C   0  0  0  0  0  0  0  0  0  0  0  0
  145.2502  143.3876  156.1309 C   0  0  0  0  0  0  0  0  0  0  0  0
  146.2262  142.4671  155.7012 C   0  0  0  0  0  0  0  0  0  0  0  0
  150.6235  141.8046  156.2141 C   0  0  0  0  0  0  0  0  0  0  0  0
  151.2262  141.8670  157.5335 N   0  0  0  0  0  0  0  0  0  0  0  0
  151.6631  140.8281  158.2710 C   0  0  0  0  0  0  0  0  0  0  0  0
  152.1893  141.1031  159.4609 N   0  0  0  0  0  0  0  0  0  0  0  0
  152.0865  142.4830  159.4992 C   0  0  0  0  0  0  0  0  0  0  0  0
  152.4702  143.4032  160.5011 C   0  0  0  0  0  0  0  0  0  0  0  0
  152.2645  144.7862  160.3174 C   0  0  0  0  0  0  0  0  0  0  0  0
  151.6733  145.2702  159.1324 C   0  0  0  0  0  0  0  0  0  0  0  0
  151.2819  144.3728  158.1202 C   0  0  0  0  0  0  0  0  0  0  0  0
  151.4896  142.9932  158.3067 C   0  0  0  0  0  0  0  0  0  0  0  0
  152.3869  139.6303  155.6233 H   0  0  0  0  0  0  0  0  0  0  0  0
  150.4750  139.6621  156.4450 H   0  0  0  0  0  0  0  0  0  0  0  0
  149.8357  140.5738  153.6073 H   0  0  0  0  0  0  0  0  0  0  0  0
  149.3376  139.0916  154.4058 H   0  0  0  0  0  0  0  0  0  0  0  0
  148.3461  141.9325  153.2173 H   0  0  0  0  0  0  0  0  0  0  0  0
  147.1616  140.6353  153.2863 H   0  0  0  0  0  0  0  0  0  0  0  0
  146.2695  143.2495  152.3725 H   0  0  0  0  0  0  0  0  0  0  0  0
  144.5502  144.8719  153.1335 H   0  0  0  0  0  0  0  0  0  0  0  0
  143.8967  144.9631  155.5330 H   0  0  0  0  0  0  0  0  0  0  0  0
  144.9644  143.4243  157.1717 H   0  0  0  0  0  0  0  0  0  0  0  0
  146.6826  141.8012  156.4189 H   0  0  0  0  0  0  0  0  0  0  0  0
  151.1838  142.4722  155.5578 H   0  0  0  0  0  0  0  0  0  0  0  0
  149.6105  142.2046  156.2713 H   0  0  0  0  0  0  0  0  0  0  0  0
  151.5883  139.8115  157.9135 H   0  0  0  0  0  0  0  0  0  0  0  0
  152.9243  143.0440  161.4126 H   0  0  0  0  0  0  0  0  0  0  0  0
  152.5625  145.4797  161.0900 H   0  0  0  0  0  0  0  0  0  0  0  0
  151.5198  146.3314  159.0008 H   0  0  0  0  0  0  0  0  0  0  0  0
  150.8273  144.7413  157.2127 H   0  0  0  0  0  0  0  0  0  0  0  0
  1  2  1  0  0  0  0
  1 22  1  0  0  0  0
  2  3  1  0  0  0  0
  2 12  1  0  0  0  0
  2 23  1  0  0  0  0
  3  4  1  0  0  0  0
  3 24  1  0  0  0  0
  3 25  1  0  0  0  0
  4  5  1  0  0  0  0
  5  6  1  0  0  0  0
  5 26  1  0  0  0  0
  5 27  1  0  0  0  0
  6 11  1  0  0  0  0
  6  7  2  0  0  0  0
  7  8  1  0  0  0  0
  7 28  1  0  0  0  0
  8  9  2  0  0  0  0
  8 29  1  0  0  0  0
  9 10  1  0  0  0  0
  9 30  1  0  0  0  0
 10 11  2  0  0  0  0
 10 31  1  0  0  0  0
 11 32  1  0  0  0  0
 12 13  1  0  0  0  0
 12 33  1  0  0  0  0
 12 34  1  0  0  0  0
 13 21  1  0  0  0  0
 13 14  1  0  0  0  0
 14 15  2  0  0  0  0
 14 35  1  0  0  0  0
 15 16  1  0  0  0  0
 16 21  2  0  0  0  0
 16 17  1  0  0  0  0
 17 18  2  0  0  0  0
 17 36  1  0  0  0  0
 18 19  1  0  0  0  0
 18 37  1  0  0  0  0
 19 20  2  0  0  0  0
 19 38  1  0  0  0  0
 20 21  1  0  0  0  0
 20 39  1  0  0  0  0
M  END
> <s_m_source_file>
AV-unprocessed.smi

> <i_m_source_file_index>
2004

> <i_lp_mmshare_version>
43012

> <i_f3d_flags>
0

> <s_epik_input>
W2NIXTFbY0hdW2NIXVtjSF1jKGMxMiluKFtjSF1uMilbQ0gyXVtDQEhdKFtPSF0pW0NIMl1PW0NIMl1jM1tjSF1bY0hdW2NIXVtjSF1bY0hdMw==

> <s_epik_cmdline>
J2VwaWtfcHl0aG9uJywgJy1waCcsICc3LjAnLCAnLXRuJywgJzgnLCAnLW1hJywgJzIwMCcsICctbWV0YWxfYmluZGluZycsICctaW1hZScsICc8aW5maWxlLm1hZT4nLCAnLW9tYWUnLCAnPG91dGZpbGUubWFlPic=

> <r_epik_Ionization_Penalty>
0.0713119

> <r_epik_Ionization_Penalty_Charging>
0

> <r_epik_Ionization_Penalty_Neutral>
0.0713119

> <r_epik_State_Penalty>
0.06259

> <r_epik_Charging_Adjusted_Penalty>
0.06259

> <i_epik_Tot_Q>
0

> <i_epik_Tot_abs_Q>
0

> <r_epik_Metal_State_Penalty>
6.60119e-05

> <b_epik_Metal_Only>
0

> <s_lp_Force_Field>
OPLS_2005

> <r_lp_Energy>
16.1981

> <b_lp_Chiralities_Consistent>
1

> <s_lp_Variant>
AV-unprocessed.smi:2004-1

> <Gold.Version>
5.8.1

> <Gold.Id.Protein>
6NUR|6NUR_protein|mol2

> <Gold.PLP.Fitness>
53.0361

> <Gold.PLP.PLP>
-52.2626

> <Gold.PLP.part.hbond>
-0.9887

> <Gold.PLP.part.metal>
0.0000

> <Gold.PLP.part.buried>
-8.0167

> <Gold.PLP.part.nonpolar>
-43.7839

> <Gold.PLP.part.repulsive>
0.1013

> <Gold.PLP.ligand.clash>
0.0000

> <Gold.PLP.ligand.torsion>
0.9363

> <Gold.PLP.Chemscore.Hbond>
0.8320

> <Gold.PLP.Chemscore.CHOScore>
0.0000

> <Gold.PLP.Chemscore.Metal>
0.0000

> <Gold.Chemscore.Hbonds>
donor molecule, donor type, donor heavy atom, donor atom, acceptor molecule, acceptor atom, score
      P1  H  7989  7998       L1     1  0.86

> <Gold.PLP.Chemscore.Internal.Correction>
0.1502

> <Gold.Rescore>
     Score         DG    S(hbond)    S(metal)    S(lipo)     H(rot)  DE(clash)    DE(int)     intcor
     16.25     -17.11       0.83        0.00     126.77       2.33       0.02       0.85       ----

> <Gold.Chemscore.Fitness>
16.2466

> <Gold.Chemscore.DG>
-17.1147

> <Gold.Chemscore.ZeroCoef>
-5.4800

> <Gold.Chemscore.Hbond>
0.8277

> <Gold.Chemscore.Metal>
0.0000

> <Gold.Chemscore.Lipo>
126.7687

> <Gold.Chemscore.Internal_Hbond>
0.0000

> <Gold.Chemscore.DEClash>
0.0183

> <Gold.Chemscore.DEInternal>
0.8498

> <Gold.Chemscore.Rot>
2.3288

> <Gold.Chemscore.Internal.Correction>
   9.000000E+99

> <Gold.Chemscore.Hbonds>
donor molecule, donor type, donor heavy atom, donor atom, acceptor molecule, acceptor atom, score
      P1  H  7989  7998       L1     1  0.29

> <Gold.Chemscore.Hbond.Weighted>
-2.7644

> <Gold.Chemscore.Metal.Weighted>
-0.0000

> <Gold.Chemscore.Lipo.Weighted>
-14.8319

> <Gold.Chemscore.Internal_Hbond.Weighted>
0.0000

> <Gold.Chemscore.DEClash.Weighted>
0.0183

> <Gold.Chemscore.DEInternal.Weighted>
0.8498

> <Gold.Chemscore.Rot.Weighted>
5.9616

> <Gold.Chemscore.Internal.Correction.Weighted>
   9.000000E+99

> <Gold.Protein.RotatedTorsions>
[ 6907 6896 6895 6894 ] final   57.46 input  -60.11 | X-H torsion
[ 7974 7965 7964 7962 ] final  -91.98 input  175.53 | X-H torsion
[ 8008 7997 7996 7995 ] final   -0.60 input   59.86 | X-H torsion
[ 10167 10162 10161 10158 ] final  106.52 input  -65.29 | X-H torsion
[ 10718 10713 10712 10709 ] final -174.68 input   66.30 | X-H torsion
[ 10763 10752 10751 10750 ] final  -86.95 input  -60.55 | X-H torsion
[ 11005 11000 10999 10996 ] final -130.19 input  -57.11 | X-H torsion

> <Gold.Protein.ActiveResidues>
 VAL166  LYS551  ARG553  GLY616  TRP617  ASP618  TYR619  PRO620  LYS621  CYS622 
 ASP623  PHE694  ASN695  SER759  ASP760  ASP761  ALA762  ILE779  LEU786  VAL792 
 PHE793  MET794  SER795  GLU796  ALA797  LYS798  CYS799  TRP800  GLU811  SER814 

> <Gold.Protein.RotatedAtoms>
  152.3733  134.6701  160.0168 H   0  0  0  0  0  0  0  0  0  0  0  0  # atno 6907 bound_to 6896
  151.6987  133.3305  159.3269 H   0  0  0  0  0  0  0  0  0  0  0  0  # atno 6908 bound_to 6896
  150.7690  134.6570  159.6364 H   0  0  0  0  0  0  0  0  0  0  0  0  # atno 6909 bound_to 6896
  145.4060  140.9541  143.2261 H   0  0  0  0  0  0  0  0  0  0  0  0  # atno 7974 bound_to 7965
  154.6562  140.2580  155.7159 H   0  0  0  0  0  0  0  0  0  0  0  0  # atno 8008 bound_to 7997
  156.2598  140.2858  156.0937 H   0  0  0  0  0  0  0  0  0  0  0  0  # atno 8009 bound_to 7997
  155.1376  140.0379  157.2781 H   0  0  0  0  0  0  0  0  0  0  0  0  # atno 8010 bound_to 7997
  139.7002  144.7095  151.1198 H   0  0  0  0  0  0  0  0  0  0  0  0  # atno 10167 bound_to 10162
  156.7886  130.9510  151.3120 H   0  0  0  0  0  0  0  0  0  0  0  0  # atno 10718 bound_to 10713
  154.6282  135.5431  153.7651 H   0  0  0  0  0  0  0  0  0  0  0  0  # atno 10763 bound_to 10752
  153.0271  135.6429  154.1340 H   0  0  0  0  0  0  0  0  0  0  0  0  # atno 10764 bound_to 10752
  154.1271  135.2916  155.3174 H   0  0  0  0  0  0  0  0  0  0  0  0  # atno 10765 bound_to 10752
  140.9367  134.1248  157.4187 H   0  0  0  0  0  0  0  0  0  0  0  0  # atno 11005 bound_to 11000
  144.8342  139.5579  143.6930 LP  0  0  0  0  0  0  0  0  0  0  0  0  # atno 17320 bound_to 7965
  146.2728  139.6679  142.9284 LP  0  0  0  0  0  0  0  0  0  0  0  0  # atno 17321 bound_to 7965
  140.7707  143.5434  150.9286 LP  0  0  0  0  0  0  0  0  0  0  0  0  # atno 17342 bound_to 10162
  139.9115  143.6714  152.3114 LP  0  0  0  0  0  0  0  0  0  0  0  0  # atno 17343 bound_to 10162
  157.6611  130.8967  149.9832 LP  0  0  0  0  0  0  0  0  0  0  0  0  # atno 17370 bound_to 10713
  156.1173  130.3647  149.9947 LP  0  0  0  0  0  0  0  0  0  0  0  0  # atno 17371 bound_to 10713
  139.8809  135.0023  156.6119 LP  0  0  0  0  0  0  0  0  0  0  0  0  # atno 17394 bound_to 11000
  140.7790  133.8676  155.8552 LP  0  0  0  0  0  0  0  0  0  0  0  0  # atno 17395 bound_to 11000

$$$$
