AV-unprocessed.smi:3148|AV-procd|sdf|11993|dock5
  -GOLD-   2272017403D 1   1.00000     0.00000
 Structure written by MMmdl.
 34 36  0  0  0  0  0  0  0  0  1 V2000
  154.4068  140.2199  160.0401 C   0  0  0  0  0  0  0  0  0  0  0  0
  153.6275  140.2536  158.8495 O   0  0  0  0  0  0  0  0  0  0  0  0
  152.7845  141.3280  158.6552 C   0  0  0  0  0  0  0  0  0  0  0  0
  152.8501  142.4292  159.5328 C   0  0  0  0  0  0  0  0  0  0  0  0
  151.9577  143.4908  159.2754 C   0  0  0  0  0  0  0  0  0  0  0  0
  151.9241  144.7263  160.1494 C   0  0  0  0  0  0  0  0  0  0  0  0
  151.0862  143.4550  158.2433 N   0  0  0  0  0  0  0  0  0  0  0  0
  151.1042  142.3652  157.4731 C   0  0  0  0  0  0  0  0  0  0  0  0
  150.1949  142.3576  156.4317 N   0  0  0  0  0  0  0  0  0  0  0  0
  149.6768  141.1476  155.8035 C   0  0  2  0  0  0  0  0  0  0  0  0
  149.7750  141.1719  154.2767 C   0  0  0  0  0  0  0  0  0  0  0  0
  148.3277  140.8675  153.8641 C   0  0  2  0  0  0  0  0  0  0  0  0
  147.4138  142.0810  154.0790 C   0  0  0  0  0  0  0  0  0  0  0  0
  147.2921  142.1121  155.6012 C   0  0  0  0  0  0  0  0  0  0  0  0
  148.1672  140.9164  156.0150 C   0  0  1  0  0  0  0  0  0  0  0  0
  147.9090  140.0364  154.9340 O   0  0  0  0  0  0  0  0  0  0  0  0
  151.9049  141.3042  157.6232 N   0  0  0  0  0  0  0  0  0  0  0  0
  155.0213  139.3197  160.0433 H   0  0  0  0  0  0  0  0  0  0  0  0
  153.7760  140.1931  160.9297 H   0  0  0  0  0  0  0  0  0  0  0  0
  155.0768  141.0787  160.1027 H   0  0  0  0  0  0  0  0  0  0  0  0
  153.5468  142.4534  160.3578 H   0  0  0  0  0  0  0  0  0  0  0  0
  152.7545  144.7306  160.8560 H   0  0  0  0  0  0  0  0  0  0  0  0
  150.9933  144.7622  160.7157 H   0  0  0  0  0  0  0  0  0  0  0  0
  151.9914  145.6279  159.5399 H   0  0  0  0  0  0  0  0  0  0  0  0
  149.7335  143.2311  156.2235 H   0  0  0  0  0  0  0  0  0  0  0  0
  150.2321  140.2861  156.1772 H   0  0  0  0  0  0  0  0  0  0  0  0
  150.1226  142.1234  153.8718 H   0  0  0  0  0  0  0  0  0  0  0  0
  150.4517  140.3902  153.9303 H   0  0  0  0  0  0  0  0  0  0  0  0
  148.2346  140.4134  152.8774 H   0  0  0  0  0  0  0  0  0  0  0  0
  147.8367  142.9986  153.6682 H   0  0  0  0  0  0  0  0  0  0  0  0
  146.4375  141.9193  153.6208 H   0  0  0  0  0  0  0  0  0  0  0  0
  147.6217  143.0559  156.0362 H   0  0  0  0  0  0  0  0  0  0  0  0
  146.2566  141.9492  155.9009 H   0  0  0  0  0  0  0  0  0  0  0  0
  147.9152  140.5041  156.9924 H   0  0  0  0  0  0  0  0  0  0  0  0
  1  2  1  0  0  0  0
  1 18  1  0  0  0  0
  1 19  1  0  0  0  0
  1 20  1  0  0  0  0
  2  3  1  0  0  0  0
  3 17  1  0  0  0  0
  3  4  2  0  0  0  0
  4  5  1  0  0  0  0
  4 21  1  0  0  0  0
  5  6  1  0  0  0  0
  5  7  2  0  0  0  0
  6 22  1  0  0  0  0
  6 23  1  0  0  0  0
  6 24  1  0  0  0  0
  7  8  1  0  0  0  0
  8  9  1  0  0  0  0
  8 17  2  0  0  0  0
  9 10  1  0  0  0  0
  9 25  1  0  0  0  0
 10 15  1  0  0  0  0
 10 11  1  0  0  0  0
 10 26  1  0  0  0  0
 11 12  1  0  0  0  0
 11 27  1  0  0  0  0
 11 28  1  0  0  0  0
 12 16  1  0  0  0  0
 12 13  1  0  0  0  0
 12 29  1  0  0  0  0
 13 14  1  0  0  0  0
 13 30  1  0  0  0  0
 13 31  1  0  0  0  0
 14 15  1  0  0  0  0
 14 32  1  0  0  0  0
 14 33  1  0  0  0  0
 15 16  1  0  0  0  0
 15 34  1  0  0  0  0
M  END
> <s_m_source_file>
AV-unprocessed.smi

> <i_m_source_file_index>
3148

> <i_lp_mmshare_version>
43012

> <i_f3d_flags>
0

> <s_epik_input>
W0NIM11PYzFbY0hdYyhbQ0gzXSluYyhuMSlbTkhdW0NASF0oW0NIMl1bQ0BASF0yMylbQ0BASF0oTzMpW0NIMl1bQ0gyXTI=

> <s_epik_cmdline>
J2VwaWtfcHl0aG9uJywgJy1waCcsICc3LjAnLCAnLXRuJywgJzgnLCAnLW1hJywgJzIwMCcsICctbWV0YWxfYmluZGluZycsICctaW1hZScsICc8aW5maWxlLm1hZT4nLCAnLW9tYWUnLCAnPG91dGZpbGUubWFlPic=

> <r_lp_tautomer_probability>
1

> <r_epik_Ionization_Penalty>
0.101645

> <r_epik_Ionization_Penalty_Charging>
0

> <r_epik_Ionization_Penalty_Neutral>
0.101645

> <r_epik_State_Penalty>
0.0916212

> <r_epik_Charging_Adjusted_Penalty>
0.0916212

> <i_epik_Tot_Q>
0

> <i_epik_Tot_abs_Q>
0

> <r_epik_Metal_State_Penalty>
0.0781

> <b_epik_Metal_Only>
0

> <s_lp_Force_Field>
OPLS_2005

> <r_lp_Energy>
31.5885

> <b_lp_Chiralities_Consistent>
1

> <s_lp_Variant>
AV-unprocessed.smi:3148-3

> <Gold.Version>
5.8.1

> <Gold.Id.Protein>
6NUR|6NUR_protein|mol2

> <Gold.PLP.Fitness>
36.7983

> <Gold.PLP.PLP>
-31.5789

> <Gold.PLP.part.hbond>
-2.0000

> <Gold.PLP.part.metal>
0.0000

> <Gold.PLP.part.buried>
-1.9029

> <Gold.PLP.part.nonpolar>
-26.7730

> <Gold.PLP.part.repulsive>
0.2039

> <Gold.PLP.ligand.clash>
0.0050

> <Gold.PLP.ligand.torsion>
0.2608

> <Gold.PLP.Chemscore.Hbond>
1.9120

> <Gold.PLP.Chemscore.CHOScore>
0.0000

> <Gold.PLP.Chemscore.Metal>
0.0000

> <Gold.Chemscore.Hbonds>
donor molecule, donor type, donor heavy atom, donor atom, acceptor molecule, acceptor atom, score
      L1  H     9    25       P1  8028  1.00
      P1  H  7997  8010       L1     2  0.91

> <Gold.PLP.Chemscore.Internal.Correction>
0.0100

> <Gold.Rescore>
     Score         DG    S(hbond)    S(metal)    S(lipo)     H(rot)  DE(clash)    DE(int)     intcor
     15.98     -16.53       1.64        0.00      74.49       1.22       0.10       0.45       ----

> <Gold.Chemscore.Fitness>
15.9844

> <Gold.Chemscore.DG>
-16.5325

> <Gold.Chemscore.ZeroCoef>
-5.4800

> <Gold.Chemscore.Hbond>
1.6374

> <Gold.Chemscore.Metal>
0.0000

> <Gold.Chemscore.Lipo>
74.4863

> <Gold.Chemscore.Internal_Hbond>
0.0000

> <Gold.Chemscore.DEClash>
0.0998

> <Gold.Chemscore.DEInternal>
0.4482

> <Gold.Chemscore.Rot>
1.2232

> <Gold.Chemscore.Internal.Correction>
   9.000000E+99

> <Gold.Chemscore.Hbonds>
donor molecule, donor type, donor heavy atom, donor atom, acceptor molecule, acceptor atom, score
      L1  H     9    25       P1  8028  1.00
      P1  H  7997  8010       L1     2  0.45

> <Gold.Chemscore.Hbond.Weighted>
-5.4690

> <Gold.Chemscore.Metal.Weighted>
-0.0000

> <Gold.Chemscore.Lipo.Weighted>
-8.7149

> <Gold.Chemscore.Internal_Hbond.Weighted>
0.0000

> <Gold.Chemscore.DEClash.Weighted>
0.0998

> <Gold.Chemscore.DEInternal.Weighted>
0.4482

> <Gold.Chemscore.Rot.Weighted>
3.1314

> <Gold.Chemscore.Internal.Correction.Weighted>
   9.000000E+99

> <Gold.Protein.RotatedTorsions>
[ 6907 6896 6895 6894 ] final  134.27 input  -60.11 | X-H torsion
[ 7974 7965 7964 7962 ] final -150.23 input  175.53 | X-H torsion
[ 8008 7997 7996 7995 ] final   18.26 input   59.86 | X-H torsion
[ 10167 10162 10161 10158 ] final   41.32 input  -65.29 | X-H torsion
[ 10718 10713 10712 10709 ] final -104.46 input   66.30 | X-H torsion
[ 10763 10752 10751 10750 ] final  -24.15 input  -60.55 | X-H torsion
[ 11005 11000 10999 10996 ] final   95.90 input  -57.11 | X-H torsion

> <Gold.Protein.ActiveResidues>
 VAL166  LYS551  ARG553  GLY616  TRP617  ASP618  TYR619  PRO620  LYS621  CYS622 
 ASP623  PHE694  ASN695  SER759  ASP760  ASP761  ALA762  ILE779  LEU786  VAL792 
 PHE793  MET794  SER795  GLU796  ALA797  LYS798  CYS799  TRP800  GLU811  SER814 

> <Gold.Protein.RotatedAtoms>
  152.3130  133.5773  159.5693 H   0  0  0  0  0  0  0  0  0  0  0  0  # atno 6907 bound_to 6896
  150.7332  134.0123  159.3683 H   0  0  0  0  0  0  0  0  0  0  0  0  # atno 6908 bound_to 6896
  151.8014  135.0708  160.0452 H   0  0  0  0  0  0  0  0  0  0  0  0  # atno 6909 bound_to 6896
  144.7920  140.4960  143.5766 H   0  0  0  0  0  0  0  0  0  0  0  0  # atno 7974 bound_to 7965
  154.9034  140.3004  155.5305 H   0  0  0  0  0  0  0  0  0  0  0  0  # atno 8008 bound_to 7997
  156.3018  140.2402  156.3999 H   0  0  0  0  0  0  0  0  0  0  0  0  # atno 8009 bound_to 7997
  154.8498  140.0410  157.1586 H   0  0  0  0  0  0  0  0  0  0  0  0  # atno 8010 bound_to 7997
  140.3654  144.2174  150.6135 H   0  0  0  0  0  0  0  0  0  0  0  0  # atno 10167 bound_to 10162
  156.0305  130.5516  150.7400 H   0  0  0  0  0  0  0  0  0  0  0  0  # atno 10718 bound_to 10713
  153.6792  135.6967  153.5123 H   0  0  0  0  0  0  0  0  0  0  0  0  # atno 10763 bound_to 10752
  153.2498  135.4279  155.0785 H   0  0  0  0  0  0  0  0  0  0  0  0  # atno 10764 bound_to 10752
  154.8405  135.3528  154.6335 H   0  0  0  0  0  0  0  0  0  0  0  0  # atno 10765 bound_to 10752
  139.8785  134.8923  156.4080 H   0  0  0  0  0  0  0  0  0  0  0  0  # atno 11005 bound_to 11000
  145.5770  139.1486  143.3256 LP  0  0  0  0  0  0  0  0  0  0  0  0  # atno 17320 bound_to 7965
  146.2175  140.5901  142.9032 LP  0  0  0  0  0  0  0  0  0  0  0  0  # atno 17321 bound_to 7965
  140.5085  143.2297  151.8571 LP  0  0  0  0  0  0  0  0  0  0  0  0  # atno 17342 bound_to 10162
  139.4809  144.4977  151.9102 LP  0  0  0  0  0  0  0  0  0  0  0  0  # atno 17343 bound_to 10162
  157.4971  131.0915  151.0359 LP  0  0  0  0  0  0  0  0  0  0  0  0  # atno 17370 bound_to 10713
  157.0750  130.5879  149.5409 LP  0  0  0  0  0  0  0  0  0  0  0  0  # atno 17371 bound_to 10713
  140.9220  133.7638  155.9918 LP  0  0  0  0  0  0  0  0  0  0  0  0  # atno 17394 bound_to 11000
  140.8428  134.3046  157.5306 LP  0  0  0  0  0  0  0  0  0  0  0  0  # atno 17395 bound_to 11000

$$$$
