AV-unprocessed.smi:158|AV-procd|sdf|1337|dock5
  -GOLD-   2262019 33D 1   1.00000     0.00000
 Structure written by MMmdl.
 31 33  0  0  0  0  0  0  0  0  1 V2000
  150.9972  137.7730  153.7696 N   0  0  0  0  0  0  0  0  0  0  0  0
  151.5656  138.3064  154.8599 C   0  0  0  0  0  0  0  0  0  0  0  0
  152.4689  137.5651  155.5431 N   0  0  0  0  0  0  0  0  0  0  0  0
  153.0604  138.0603  156.6377 C   0  0  0  0  0  0  0  0  0  0  0  0
  154.1938  137.0304  157.4301 Cl  0  0  0  0  0  0  0  0  0  0  0  0
  152.8705  139.2641  157.1875 N   0  0  0  0  0  0  0  0  0  0  0  0
  151.9592  140.0129  156.5017 C   0  0  0  0  0  0  0  0  0  0  0  0
  151.2655  139.6079  155.3307 C   0  0  0  0  0  0  0  0  0  0  0  0
  150.4221  140.6254  154.9044 N   0  0  0  0  0  0  0  0  0  0  0  0
  150.6123  141.5778  155.7787 C   0  0  0  0  0  0  0  0  0  0  0  0
  151.5154  141.2891  156.7783 N   0  0  0  0  0  0  0  0  0  0  0  0
  151.9490  142.1633  157.9072 C   0  0  2  0  0  0  0  0  0  0  0  0
  151.2394  141.7831  159.0417 O   0  0  0  0  0  0  0  0  0  0  0  0
  151.0213  142.9142  159.8774 C   0  0  1  0  0  0  0  0  0  0  0  0
  152.2205  143.0773  160.8330 C   0  0  0  0  0  0  0  0  0  0  0  0
  151.8641  142.6566  162.1325 O   0  0  0  0  0  0  0  0  0  0  0  0
  150.8852  144.0822  158.8876 C   0  0  2  0  0  0  0  0  0  0  0  0
  149.5236  144.3353  158.6021 O   0  0  0  0  0  0  0  0  0  0  0  0
  151.6251  143.6363  157.6308 C   0  0  1  0  0  0  0  0  0  0  0  0
  152.7655  144.3148  157.4986 F   0  0  0  0  0  0  0  0  0  0  0  0
  153.0146  141.9673  158.0341 H   0  0  0  0  0  0  0  0  0  0  0  0
  150.1066  142.7869  160.4593 H   0  0  0  0  0  0  0  0  0  0  0  0
  151.3016  145.0054  159.2928 H   0  0  0  0  0  0  0  0  0  0  0  0
  151.0449  143.7675  156.7156 H   0  0  0  0  0  0  0  0  0  0  0  0
  150.3201  138.3064  153.2434 H   0  0  0  0  0  0  0  0  0  0  0  0
  151.2462  136.8392  153.4767 H   0  0  0  0  0  0  0  0  0  0  0  0
  150.0929  142.5232  155.7187 H   0  0  0  0  0  0  0  0  0  0  0  0
  153.0984  142.5315  160.4871 H   0  0  0  0  0  0  0  0  0  0  0  0
  152.5046  144.1273  160.9051 H   0  0  0  0  0  0  0  0  0  0  0  0
  152.0897  143.3410  162.7438 H   0  0  0  0  0  0  0  0  0  0  0  0
  149.3875  144.2401  157.6718 H   0  0  0  0  0  0  0  0  0  0  0  0
  1  2  1  0  0  0  0
  1 25  1  0  0  0  0
  1 26  1  0  0  0  0
  2  8  1  0  0  0  0
  2  3  2  0  0  0  0
  3  4  1  0  0  0  0
  4  5  1  0  0  0  0
  4  6  2  0  0  0  0
  6  7  1  0  0  0  0
  7 11  1  0  0  0  0
  7  8  2  0  0  0  0
  8  9  1  0  0  0  0
  9 10  2  0  0  0  0
 10 11  1  0  0  0  0
 10 27  1  0  0  0  0
 11 12  1  0  0  0  0
 12 21  1  0  0  0  0
 12 19  1  0  0  0  0
 12 13  1  0  0  0  0
 13 14  1  0  0  0  0
 14 22  1  0  0  0  0
 14 15  1  0  0  0  0
 14 17  1  0  0  0  0
 15 16  1  0  0  0  0
 15 28  1  0  0  0  0
 15 29  1  0  0  0  0
 16 30  1  0  0  0  0
 17 23  1  0  0  0  0
 17 18  1  0  0  0  0
 17 19  1  0  0  0  0
 18 31  1  0  0  0  0
 19 24  1  0  0  0  0
 19 20  1  0  0  0  0
M  END
> <s_m_source_file>
AV-unprocessed.smi

> <i_m_source_file_index>
158

> <i_lp_mmshare_version>
43012

> <i_f3d_flags>
0

> <s_epik_input>
Q2xjKG4xKW5jKFtOSDJdKWMoYzEyKW5bY0hdbjJbQ0BASF0zT1tDQEhdKFtDSDJdW09IXSlbQ0BASF0oW09IXSlbQ0BASF0zRg==

> <s_epik_cmdline>
J2VwaWtfcHl0aG9uJywgJy1waCcsICc3LjAnLCAnLXRuJywgJzgnLCAnLW1hJywgJzIwMCcsICctbWV0YWxfYmluZGluZycsICctaW1hZScsICc8aW5maWxlLm1hZT4nLCAnLW9tYWUnLCAnPG91dGZpbGUubWFlPic=

> <r_lp_tautomer_probability>
1

> <r_epik_Ionization_Penalty>
6.51543e-05

> <r_epik_Ionization_Penalty_Charging>
0

> <r_epik_Ionization_Penalty_Neutral>
6.51543e-05

> <r_epik_State_Penalty>
-0

> <r_epik_Charging_Adjusted_Penalty>
0

> <i_epik_Tot_Q>
0

> <i_epik_Tot_abs_Q>
0

> <r_epik_Metal_State_Penalty>
-0

> <b_epik_Metal_Only>
0

> <s_epik_Chemistry_Notes>
This compound contains an acetal/aminal-like group ( X-CH(R)-Y where X, Y are N, S, or O) that may be acid/base labile, releasing an aldehyde.

> <s_lp_Force_Field>
OPLS_2005

> <r_lp_Energy>
33.5879

> <b_lp_Chiralities_Consistent>
1

> <s_lp_Variant>
AV-unprocessed.smi:158-15

> <Gold.Version>
5.8.1

> <Gold.Id.Protein>
6NUR|6NUR_protein|mol2

> <Gold.PLP.Fitness>
46.7760

> <Gold.PLP.PLP>
-35.3342

> <Gold.PLP.part.hbond>
-8.6537

> <Gold.PLP.part.metal>
0.0000

> <Gold.PLP.part.buried>
-3.4501

> <Gold.PLP.part.nonpolar>
-22.4920

> <Gold.PLP.part.repulsive>
0.2156

> <Gold.PLP.ligand.clash>
0.0000

> <Gold.PLP.ligand.torsion>
1.1612

> <Gold.PLP.Chemscore.Hbond>
3.5965

> <Gold.PLP.Chemscore.CHOScore>
0.9872

> <Gold.PLP.Chemscore.Metal>
0.0000

> <Gold.Chemscore.Hbonds>
donor molecule, donor type, donor heavy atom, donor atom, acceptor molecule, acceptor atom, score
      L1  H     1    26       P1  7949  0.38
      L1  H    18    31       P1  8028  0.51
      P1  H  6933  6945       L1    16  0.94
      P1  H  7989  7998       L1     9  0.32
      P1  H  7997  8009       L1     6  1.00
      P1  H 10752 10764       L1     3  0.35
      L1  C    10    27       P1  8028  1.00

> <Gold.PLP.Chemscore.Internal.Correction>
0.0129

> <Gold.Rescore>
     Score         DG    S(hbond)    S(metal)    S(lipo)     H(rot)  DE(clash)    DE(int)     intcor
      7.32      -9.59       1.85        0.00      50.49       3.12       1.17       1.10       ----

> <Gold.Chemscore.Fitness>
7.3169

> <Gold.Chemscore.DG>
-9.5853

> <Gold.Chemscore.ZeroCoef>
-5.4800

> <Gold.Chemscore.Hbond>
1.8543

> <Gold.Chemscore.Metal>
0.0000

> <Gold.Chemscore.Lipo>
50.4858

> <Gold.Chemscore.Internal_Hbond>
0.0000

> <Gold.Chemscore.DEClash>
1.1720

> <Gold.Chemscore.DEInternal>
1.0963

> <Gold.Chemscore.Rot>
3.1230

> <Gold.Chemscore.Internal.Correction>
   9.000000E+99

> <Gold.Chemscore.Hbonds>
donor molecule, donor type, donor heavy atom, donor atom, acceptor molecule, acceptor atom, score
      L1  H     1    26       P1  7949  0.23
      L1  H    18    31       P1  8028  0.03
      P1  H  6933  6945       L1    16  0.73
      P1  H  7997  8009       L1     6  0.17
      P1  H 10752 10764       L1     3  0.33

> <Gold.Chemscore.Hbond.Weighted>
-6.1934

> <Gold.Chemscore.Metal.Weighted>
-0.0000

> <Gold.Chemscore.Lipo.Weighted>
-5.9068

> <Gold.Chemscore.Internal_Hbond.Weighted>
0.0000

> <Gold.Chemscore.DEClash.Weighted>
1.1720

> <Gold.Chemscore.DEInternal.Weighted>
1.0963

> <Gold.Chemscore.Rot.Weighted>
7.9950

> <Gold.Chemscore.Internal.Correction.Weighted>
   9.000000E+99

> <Gold.Protein.RotatedTorsions>
[ 6907 6896 6895 6894 ] final -116.68 input  -60.11 | X-H torsion
[ 7974 7965 7964 7962 ] final -163.31 input  175.53 | X-H torsion
[ 8008 7997 7996 7995 ] final  163.71 input   59.86 | X-H torsion
[ 10167 10162 10161 10158 ] final -144.75 input  -65.29 | X-H torsion
[ 10718 10713 10712 10709 ] final  124.36 input   66.30 | X-H torsion
[ 10763 10752 10751 10750 ] final  -39.56 input  -60.55 | X-H torsion
[ 11005 11000 10999 10996 ] final   97.93 input  -57.11 | X-H torsion

> <Gold.Protein.ActiveResidues>
 VAL166  LYS551  ARG553  GLY616  TRP617  ASP618  TYR619  PRO620  LYS621  CYS622 
 ASP623  PHE694  ASN695  SER759  ASP760  ASP761  ALA762  ILE779  LEU786  VAL792 
 PHE793  MET794  SER795  GLU796  ALA797  LYS798  CYS799  TRP800  GLU811  SER814 

> <Gold.Protein.RotatedAtoms>
  150.8075  133.8483  159.3198 H   0  0  0  0  0  0  0  0  0  0  0  0  # atno 6907 bound_to 6896
  151.6278  135.1024  160.0125 H   0  0  0  0  0  0  0  0  0  0  0  0  # atno 6908 bound_to 6896
  152.4166  133.7008  159.6480 H   0  0  0  0  0  0  0  0  0  0  0  0  # atno 6909 bound_to 6896
  144.7330  140.3126  143.6185 H   0  0  0  0  0  0  0  0  0  0  0  0  # atno 7974 bound_to 7965
  156.1936  140.1716  156.8043 H   0  0  0  0  0  0  0  0  0  0  0  0  # atno 8008 bound_to 7997
  154.5502  140.0719  156.8686 H   0  0  0  0  0  0  0  0  0  0  0  0  # atno 8009 bound_to 7997
  155.3044  140.3363  155.4248 H   0  0  0  0  0  0  0  0  0  0  0  0  # atno 8010 bound_to 7997
  139.7870  143.8020  152.2645 H   0  0  0  0  0  0  0  0  0  0  0  0  # atno 10167 bound_to 10162
  157.5591  131.1090  150.8570 H   0  0  0  0  0  0  0  0  0  0  0  0  # atno 10718 bound_to 10713
  153.9314  135.6771  153.4745 H   0  0  0  0  0  0  0  0  0  0  0  0  # atno 10763 bound_to 10752
  153.0978  135.4843  154.8807 H   0  0  0  0  0  0  0  0  0  0  0  0  # atno 10764 bound_to 10752
  154.7426  135.3164  154.8659 H   0  0  0  0  0  0  0  0  0  0  0  0  # atno 10765 bound_to 10752
  139.8774  134.9025  156.4380 H   0  0  0  0  0  0  0  0  0  0  0  0  # atno 11005 bound_to 11000
  145.7650  139.1837  143.2245 LP  0  0  0  0  0  0  0  0  0  0  0  0  # atno 17320 bound_to 7965
  146.0956  140.7604  142.9574 LP  0  0  0  0  0  0  0  0  0  0  0  0  # atno 17321 bound_to 7965
  139.8100  144.7340  150.9710 LP  0  0  0  0  0  0  0  0  0  0  0  0  # atno 17342 bound_to 10162
  140.7820  143.4260  151.0767 LP  0  0  0  0  0  0  0  0  0  0  0  0  # atno 17343 bound_to 10162
  156.9073  130.5268  149.5281 LP  0  0  0  0  0  0  0  0  0  0  0  0  # atno 17370 bound_to 10713
  156.0646  130.5692  150.9262 LP  0  0  0  0  0  0  0  0  0  0  0  0  # atno 17371 bound_to 10713
  140.9019  133.7773  155.9690 LP  0  0  0  0  0  0  0  0  0  0  0  0  # atno 17394 bound_to 11000
  140.8641  134.2805  157.5221 LP  0  0  0  0  0  0  0  0  0  0  0  0  # atno 17395 bound_to 11000

$$$$
