AV-unprocessed.smi:203|AV-procd|sdf|1590|dock6
  -GOLD-   2262019483D 1   1.00000     0.00000
 Structure written by MMmdl.
 57 61  0  0  0  0  0  0  0  0  1 V2000
  142.9062  132.2392  160.9701 O   0  0  0  0  0  0  0  0  0  0  0  0
  144.1262  132.1133  160.8974 C   0  0  0  0  0  0  0  0  0  0  0  0
  144.9883  132.8654  159.8985 C   0  0  0  0  0  0  0  0  0  0  0  0
  146.4287  132.5429  160.3450 C   0  0  1  0  0  0  0  0  0  0  0  0
  147.2194  133.7621  160.9204 C   0  0  2  0  0  0  0  0  0  0  0  0
  146.6918  134.2262  162.3035 C   0  0  0  0  0  0  0  0  0  0  0  0
  147.5002  135.4117  162.8482 C   0  0  0  0  0  0  0  0  0  0  0  0
  147.4988  136.5582  161.8307 C   0  0  0  0  0  0  0  0  0  0  0  0
  148.0232  136.0701  160.4734 C   0  0  0  0  0  0  0  0  0  0  0  0
  147.2673  134.9121  159.9986 N   0  0  0  0  0  0  0  0  0  0  0  0
  147.5819  134.6292  158.7156 C   0  0  0  0  0  0  0  0  0  0  0  0
  148.8511  134.2257  158.4636 N   0  0  0  0  0  0  0  0  0  0  0  0
  149.2387  133.9946  157.2058 C   0  0  0  0  0  0  0  0  0  0  0  0
  148.5322  134.1125  156.0792 N   0  0  0  0  0  0  0  0  0  0  0  0
  147.2509  134.5045  156.3356 C   0  0  0  0  0  0  0  0  0  0  0  0
  146.6909  134.7698  157.6152 C   0  0  0  0  0  0  0  0  0  0  0  0
  145.3590  135.1454  157.4839 N   0  0  0  0  0  0  0  0  0  0  0  0
  145.1517  135.1325  156.1956 C   0  0  0  0  0  0  0  0  0  0  0  0
  146.2409  134.7813  155.4318 N   0  0  0  0  0  0  0  0  0  0  0  0
  146.3128  134.7558  153.9833 C   0  0  0  0  0  0  0  0  0  0  0  0
  145.1994  133.8910  153.3510 C   0  0  2  0  0  0  0  0  0  0  0  0
  145.2915  132.6016  153.9227 O   0  0  0  0  0  0  0  0  0  0  0  0
  145.2752  133.7744  151.8102 C   0  0  1  0  0  0  0  0  0  0  0  0
  146.3731  132.8454  151.2861 C   0  0  0  0  0  0  0  0  0  0  0  0
  145.8654  132.4179  149.9163 C   0  0  0  0  0  0  0  0  0  0  0  0
  144.3866  132.8107  149.9292 C   0  0  0  0  0  0  0  0  0  0  0  0
  144.1177  133.1410  151.2821 O   0  0  0  0  0  0  0  0  0  0  0  0
  146.2866  131.3758  161.3456 C   0  0  0  0  0  0  0  0  0  0  0  0
  144.8724  131.3162  161.6590 N   0  0  0  0  0  0  0  0  0  0  0  0
  144.7944  132.4834  158.8957 H   0  0  0  0  0  0  0  0  0  0  0  0
  144.7625  133.9317  159.9017 H   0  0  0  0  0  0  0  0  0  0  0  0
  146.9701  132.1403  159.4884 H   0  0  0  0  0  0  0  0  0  0  0  0
  148.2491  133.4353  161.0693 H   0  0  0  0  0  0  0  0  0  0  0  0
  145.6449  134.5213  162.2299 H   0  0  0  0  0  0  0  0  0  0  0  0
  146.7279  133.4134  163.0276 H   0  0  0  0  0  0  0  0  0  0  0  0
  147.0818  135.7495  163.7967 H   0  0  0  0  0  0  0  0  0  0  0  0
  148.5249  135.0977  163.0510 H   0  0  0  0  0  0  0  0  0  0  0  0
  146.4862  136.9468  161.7148 H   0  0  0  0  0  0  0  0  0  0  0  0
  148.1110  137.3842  162.1932 H   0  0  0  0  0  0  0  0  0  0  0  0
  147.9594  136.8806  159.7456 H   0  0  0  0  0  0  0  0  0  0  0  0
  149.0776  135.8036  160.5608 H   0  0  0  0  0  0  0  0  0  0  0  0
  150.2653  133.6820  157.0834 H   0  0  0  0  0  0  0  0  0  0  0  0
  144.2008  135.4070  155.7625 H   0  0  0  0  0  0  0  0  0  0  0  0
  146.2484  135.7819  153.6185 H   0  0  0  0  0  0  0  0  0  0  0  0
  147.2964  134.3838  153.6939 H   0  0  0  0  0  0  0  0  0  0  0  0
  144.2267  134.3009  153.6260 H   0  0  0  0  0  0  0  0  0  0  0  0
  144.4326  132.3418  154.2189 H   0  0  0  0  0  0  0  0  0  0  0  0
  145.3828  134.7630  151.3593 H   0  0  0  0  0  0  0  0  0  0  0  0
  147.3481  133.3313  151.2418 H   0  0  0  0  0  0  0  0  0  0  0  0
  146.4637  131.9695  151.9300 H   0  0  0  0  0  0  0  0  0  0  0  0
  146.3930  132.9327  149.1128 H   0  0  0  0  0  0  0  0  0  0  0  0
  145.9964  131.3450  149.7719 H   0  0  0  0  0  0  0  0  0  0  0  0
  144.2121  133.6881  149.3048 H   0  0  0  0  0  0  0  0  0  0  0  0
  143.7337  132.0098  149.5823 H   0  0  0  0  0  0  0  0  0  0  0  0
  146.5819  130.4324  160.8851 H   0  0  0  0  0  0  0  0  0  0  0  0
  146.8881  131.5021  162.2458 H   0  0  0  0  0  0  0  0  0  0  0  0
  144.5019  130.7243  162.3886 H   0  0  0  0  0  0  0  0  0  0  0  0
  1  2  2  0  0  0  0
  2 29  1  0  0  0  0
  2  3  1  0  0  0  0
  3  4  1  0  0  0  0
  3 30  1  0  0  0  0
  3 31  1  0  0  0  0
  4  5  1  0  0  0  0
  4 28  1  0  0  0  0
  4 32  1  0  0  0  0
  5 10  1  0  0  0  0
  5  6  1  0  0  0  0
  5 33  1  0  0  0  0
  6  7  1  0  0  0  0
  6 34  1  0  0  0  0
  6 35  1  0  0  0  0
  7  8  1  0  0  0  0
  7 36  1  0  0  0  0
  7 37  1  0  0  0  0
  8  9  1  0  0  0  0
  8 38  1  0  0  0  0
  8 39  1  0  0  0  0
  9 10  1  0  0  0  0
  9 40  1  0  0  0  0
  9 41  1  0  0  0  0
 10 11  1  0  0  0  0
 11 16  1  0  0  0  0
 11 12  2  0  0  0  0
 12 13  1  0  0  0  0
 13 14  2  0  0  0  0
 13 42  1  0  0  0  0
 14 15  1  0  0  0  0
 15 19  1  0  0  0  0
 15 16  2  0  0  0  0
 16 17  1  0  0  0  0
 17 18  2  0  0  0  0
 18 19  1  0  0  0  0
 18 43  1  0  0  0  0
 19 20  1  0  0  0  0
 20 21  1  0  0  0  0
 20 44  1  0  0  0  0
 20 45  1  0  0  0  0
 21 22  1  0  0  0  0
 21 23  1  0  0  0  0
 21 46  1  0  0  0  0
 22 47  1  0  0  0  0
 23 27  1  0  0  0  0
 23 24  1  0  0  0  0
 23 48  1  0  0  0  0
 24 25  1  0  0  0  0
 24 49  1  0  0  0  0
 24 50  1  0  0  0  0
 25 26  1  0  0  0  0
 25 51  1  0  0  0  0
 25 52  1  0  0  0  0
 26 27  1  0  0  0  0
 26 53  1  0  0  0  0
 26 54  1  0  0  0  0
 28 29  1  0  0  0  0
 28 55  1  0  0  0  0
 28 56  1  0  0  0  0
 29 57  1  0  0  0  0
M  END
> <s_m_source_file>
AV-unprocessed.smi

> <i_m_source_file_index>
203

> <i_lp_mmshare_version>
43012

> <i_f3d_flags>
0

> <s_epik_input>
Tz1DMVtDSDJdW0NASF0oW0NIMl1bTkhdMSlbQ0BASF0yW0NIMl1bQ0gyXVtDSDJdW0NIMl1OMmMobltjSF1uMyljKGMzNCluW2NIXW40W0NIMl1bQ0BIXShbT0hdKVtDQEBIXTVbQ0gyXVtDSDJdW0NIMl1PNQ==

> <s_epik_cmdline>
J2VwaWtfcHl0aG9uJywgJy1waCcsICc3LjAnLCAnLXRuJywgJzgnLCAnLW1hJywgJzIwMCcsICctbWV0YWxfYmluZGluZycsICctaW1hZScsICc8aW5maWxlLm1hZT4nLCAnLW9tYWUnLCAnPG91dGZpbGUubWFlPic=

> <r_lp_tautomer_probability>
1

> <r_epik_Ionization_Penalty>
0.00175146

> <r_epik_Ionization_Penalty_Charging>
0

> <r_epik_Ionization_Penalty_Neutral>
0.00175146

> <r_epik_State_Penalty>
0.00109045

> <r_epik_Charging_Adjusted_Penalty>
0.00109045

> <i_epik_Tot_Q>
0

> <i_epik_Tot_abs_Q>
0

> <r_epik_Metal_State_Penalty>
-0

> <b_epik_Metal_Only>
0

> <s_lp_Force_Field>
OPLS_2005

> <r_lp_Energy>
55.9411

> <b_lp_Chiralities_Consistent>
1

> <s_lp_Variant>
AV-unprocessed.smi:203-9

> <Gold.Version>
5.8.1

> <Gold.Id.Protein>
6NUR|6NUR_protein|mol2

> <Gold.PLP.Fitness>
41.6131

> <Gold.PLP.PLP>
-35.9920

> <Gold.PLP.part.hbond>
-2.7001

> <Gold.PLP.part.metal>
0.0000

> <Gold.PLP.part.buried>
-5.6944

> <Gold.PLP.part.nonpolar>
-27.9718

> <Gold.PLP.part.repulsive>
0.2516

> <Gold.PLP.ligand.clash>
0.0000

> <Gold.PLP.ligand.torsion>
0.3566

> <Gold.PLP.Chemscore.Hbond>
2.0000

> <Gold.PLP.Chemscore.CHOScore>
0.0000

> <Gold.PLP.Chemscore.Metal>
0.0000

> <Gold.Chemscore.Hbonds>
donor molecule, donor type, donor heavy atom, donor atom, acceptor molecule, acceptor atom, score
      L1  H    22    47       P1 10957  1.00
      P1  H  6896  6908       L1    12  1.00

> <Gold.PLP.Chemscore.Internal.Correction>
0.3343

> <Gold.Rescore>
     Score         DG    S(hbond)    S(metal)    S(lipo)     H(rot)  DE(clash)    DE(int)     intcor
     13.92     -14.24       1.69        0.00      85.94       2.72       0.01       0.31       ----

> <Gold.Chemscore.Fitness>
13.9238

> <Gold.Chemscore.DG>
-14.2355

> <Gold.Chemscore.ZeroCoef>
-5.4800

> <Gold.Chemscore.Hbond>
1.6936

> <Gold.Chemscore.Metal>
0.0000

> <Gold.Chemscore.Lipo>
85.9356

> <Gold.Chemscore.Internal_Hbond>
0.0000

> <Gold.Chemscore.DEClash>
0.0065

> <Gold.Chemscore.DEInternal>
0.3052

> <Gold.Chemscore.Rot>
2.7171

> <Gold.Chemscore.Internal.Correction>
   9.000000E+99

> <Gold.Chemscore.Hbonds>
donor molecule, donor type, donor heavy atom, donor atom, acceptor molecule, acceptor atom, score
      L1  H    22    47       P1 10957  0.50
      P1  H  6896  6908       L1    12  0.24

> <Gold.Chemscore.Hbond.Weighted>
-5.6568

> <Gold.Chemscore.Metal.Weighted>
-0.0000

> <Gold.Chemscore.Lipo.Weighted>
-10.0545

> <Gold.Chemscore.Internal_Hbond.Weighted>
0.0000

> <Gold.Chemscore.DEClash.Weighted>
0.0065

> <Gold.Chemscore.DEInternal.Weighted>
0.3052

> <Gold.Chemscore.Rot.Weighted>
6.9557

> <Gold.Chemscore.Internal.Correction.Weighted>
   9.000000E+99

> <Gold.Protein.RotatedTorsions>
[ 6907 6896 6895 6894 ] final  143.64 input  -60.11 | X-H torsion
[ 7974 7965 7964 7962 ] final   87.27 input  175.53 | X-H torsion
[ 8008 7997 7996 7995 ] final -111.95 input   59.86 | X-H torsion
[ 10167 10162 10161 10158 ] final -163.86 input  -65.29 | X-H torsion
[ 10718 10713 10712 10709 ] final   69.48 input   66.30 | X-H torsion
[ 10763 10752 10751 10750 ] final  -17.03 input  -60.55 | X-H torsion
[ 11005 11000 10999 10996 ] final   52.72 input  -57.11 | X-H torsion

> <Gold.Protein.ActiveResidues>
 VAL166  LYS551  ARG553  GLY616  TRP617  ASP618  TYR619  PRO620  LYS621  CYS622 
 ASP623  PHE694  ASN695  SER759  ASP760  ASP761  ALA762  ILE779  LEU786  VAL792 
 PHE793  MET794  SER795  GLU796  ALA797  LYS798  CYS799  TRP800  GLU811  SER814 

> <Gold.Protein.RotatedAtoms>
  152.2038  133.4860  159.5072 H   0  0  0  0  0  0  0  0  0  0  0  0  # atno 6907 bound_to 6896
  150.6975  134.1556  159.4166 H   0  0  0  0  0  0  0  0  0  0  0  0  # atno 6908 bound_to 6896
  151.9474  135.0185  160.0590 H   0  0  0  0  0  0  0  0  0  0  0  0  # atno 6909 bound_to 6896
  145.5613  139.2304  143.2458 H   0  0  0  0  0  0  0  0  0  0  0  0  # atno 7974 bound_to 7965
  154.9976  140.0394  157.2346 H   0  0  0  0  0  0  0  0  0  0  0  0  # atno 8008 bound_to 7997
  154.7572  140.2778  155.6221 H   0  0  0  0  0  0  0  0  0  0  0  0  # atno 8009 bound_to 7997
  156.2897  140.2635  156.2341 H   0  0  0  0  0  0  0  0  0  0  0  0  # atno 8010 bound_to 7997
  139.6291  144.0474  152.2000 H   0  0  0  0  0  0  0  0  0  0  0  0  # atno 10167 bound_to 10162
  157.6348  130.9428  150.0520 H   0  0  0  0  0  0  0  0  0  0  0  0  # atno 10718 bound_to 10713
  153.5676  135.7008  153.5519 H   0  0  0  0  0  0  0  0  0  0  0  0  # atno 10763 bound_to 10752
  153.3373  135.4031  155.1543 H   0  0  0  0  0  0  0  0  0  0  0  0  # atno 10764 bound_to 10752
  154.8638  135.3733  154.5197 H   0  0  0  0  0  0  0  0  0  0  0  0  # atno 10765 bound_to 10752
  140.0826  134.5318  155.8931 H   0  0  0  0  0  0  0  0  0  0  0  0  # atno 11005 bound_to 11000
  146.1849  140.6438  142.9172 LP  0  0  0  0  0  0  0  0  0  0  0  0  # atno 17320 bound_to 7965
  144.7482  140.5122  143.6821 LP  0  0  0  0  0  0  0  0  0  0  0  0  # atno 17321 bound_to 7965
  140.0135  144.6206  150.7627 LP  0  0  0  0  0  0  0  0  0  0  0  0  # atno 17342 bound_to 10162
  140.7428  143.2838  151.3523 LP  0  0  0  0  0  0  0  0  0  0  0  0  # atno 17343 bound_to 10162
  156.1579  130.3643  149.9342 LP  0  0  0  0  0  0  0  0  0  0  0  0  # atno 17370 bound_to 10713
  156.7347  130.9057  151.3628 LP  0  0  0  0  0  0  0  0  0  0  0  0  # atno 17371 bound_to 10713
  141.2052  133.6645  156.6165 LP  0  0  0  0  0  0  0  0  0  0  0  0  # atno 17394 bound_to 11000
  140.3466  134.7804  157.4436 LP  0  0  0  0  0  0  0  0  0  0  0  0  # atno 17395 bound_to 11000

$$$$
