AV-unprocessed.smi:2690|AV-procd|sdf|10388|dock2
  -GOLD-   2272014423D 1   1.00000     0.00000
 Structure written by MMmdl.
 47 49  0  0  0  0  0  0  0  0  1 V2000
  153.6892  142.2346  161.6899 C   0  0  0  0  0  0  0  0  0  0  0  0
  153.2770  142.2458  160.2111 C   0  0  2  0  0  0  0  0  0  0  0  0
  152.4859  143.5162  159.8551 C   0  0  0  0  0  0  0  0  0  0  0  0
  152.0811  143.5386  158.3704 C   0  0  0  0  0  0  0  0  0  0  0  0
  151.3009  142.2744  157.9322 C   0  0  1  0  0  0  0  0  0  0  0  0
  150.0423  142.2811  158.5838 O   0  0  0  0  0  0  0  0  0  0  0  0
  151.0410  142.2438  156.4049 C   0  0  0  0  0  0  0  0  0  0  0  0
  150.5298  140.9733  155.9130 N   0  0  0  0  0  0  0  0  0  0  0  0
  149.2101  140.6494  155.6887 C   0  0  0  0  0  0  0  0  0  0  0  0
  149.0003  139.4408  155.2423 N   0  0  0  0  0  0  0  0  0  0  0  0
  150.2718  138.8876  155.1615 C   0  0  0  0  0  0  0  0  0  0  0  0
  150.7702  137.6232  154.7541 C   0  0  0  0  0  0  0  0  0  0  0  0
  149.9332  136.6490  154.3321 N   0  0  0  0  0  0  0  0  0  0  0  0
  149.5868  135.5195  155.1902 C   0  0  0  0  0  0  0  0  0  0  0  0
  150.5657  135.3960  156.3698 C   0  0  0  0  0  0  0  0  0  0  0  0
  149.5562  134.2266  154.3648 C   0  0  0  0  0  0  0  0  0  0  0  0
  152.1140  137.4268  154.8075 N   0  0  0  0  0  0  0  0  0  0  0  0
  152.9183  138.4064  155.2327 C   0  0  0  0  0  0  0  0  0  0  0  0
  152.5935  139.6348  155.6425 N   0  0  0  0  0  0  0  0  0  0  0  0
  151.2453  139.8341  155.5867 C   0  0  0  0  0  0  0  0  0  0  0  0
  152.0582  140.9960  158.3591 C   0  0  0  0  0  0  0  0  0  0  0  0
  152.4574  140.9962  159.8454 C   0  0  0  0  0  0  0  0  0  0  0  0
  152.8174  142.2478  162.3448 H   0  0  0  0  0  0  0  0  0  0  0  0
  154.3022  143.1026  161.9338 H   0  0  0  0  0  0  0  0  0  0  0  0
  154.2711  141.3438  161.9285 H   0  0  0  0  0  0  0  0  0  0  0  0
  154.1908  142.2375  159.6150 H   0  0  0  0  0  0  0  0  0  0  0  0
  151.5941  143.5830  160.4796 H   0  0  0  0  0  0  0  0  0  0  0  0
  153.0827  144.4008  160.0794 H   0  0  0  0  0  0  0  0  0  0  0  0
  151.4974  144.4388  158.1755 H   0  0  0  0  0  0  0  0  0  0  0  0
  152.9846  143.6274  157.7657 H   0  0  0  0  0  0  0  0  0  0  0  0
  150.0978  142.8525  159.3343 H   0  0  0  0  0  0  0  0  0  0  0  0
  150.3293  143.0238  156.1315 H   0  0  0  0  0  0  0  0  0  0  0  0
  151.9596  142.4703  155.8615 H   0  0  0  0  0  0  0  0  0  0  0  0
  148.4026  141.3457  155.8639 H   0  0  0  0  0  0  0  0  0  0  0  0
  149.5886  136.5993  153.3842 H   0  0  0  0  0  0  0  0  0  0  0  0
  148.5816  135.6703  155.5854 H   0  0  0  0  0  0  0  0  0  0  0  0
  150.3008  134.5556  157.0117 H   0  0  0  0  0  0  0  0  0  0  0  0
  150.5618  136.2921  156.9904 H   0  0  0  0  0  0  0  0  0  0  0  0
  151.5871  135.2387  156.0218 H   0  0  0  0  0  0  0  0  0  0  0  0
  149.2713  133.3741  154.9820 H   0  0  0  0  0  0  0  0  0  0  0  0
  150.5310  134.0093  153.9269 H   0  0  0  0  0  0  0  0  0  0  0  0
  148.8334  134.2979  153.5512 H   0  0  0  0  0  0  0  0  0  0  0  0
  153.9726  138.1726  155.2465 H   0  0  0  0  0  0  0  0  0  0  0  0
  151.4569  140.1118  158.1427 H   0  0  0  0  0  0  0  0  0  0  0  0
  152.9635  140.8980  157.7584 H   0  0  0  0  0  0  0  0  0  0  0  0
  153.0332  140.0965  160.0650 H   0  0  0  0  0  0  0  0  0  0  0  0
  151.5625  140.9455  160.4674 H   0  0  0  0  0  0  0  0  0  0  0  0
  1  2  1  0  0  0  0
  1 23  1  0  0  0  0
  1 24  1  0  0  0  0
  1 25  1  0  0  0  0
  2 22  1  0  0  0  0
  2  3  1  0  0  0  0
  2 26  1  0  0  0  0
  3  4  1  0  0  0  0
  3 27  1  0  0  0  0
  3 28  1  0  0  0  0
  4  5  1  0  0  0  0
  4 29  1  0  0  0  0
  4 30  1  0  0  0  0
  5  6  1  0  0  0  0
  5  7  1  0  0  0  0
  5 21  1  0  0  0  0
  6 31  1  0  0  0  0
  7  8  1  0  0  0  0
  7 32  1  0  0  0  0
  7 33  1  0  0  0  0
  8 20  1  0  0  0  0
  8  9  1  0  0  0  0
  9 10  2  0  0  0  0
  9 34  1  0  0  0  0
 10 11  1  0  0  0  0
 11 20  2  0  0  0  0
 11 12  1  0  0  0  0
 12 13  1  0  0  0  0
 12 17  2  0  0  0  0
 13 14  1  0  0  0  0
 13 35  1  0  0  0  0
 14 15  1  0  0  0  0
 14 16  1  0  0  0  0
 14 36  1  0  0  0  0
 15 37  1  0  0  0  0
 15 38  1  0  0  0  0
 15 39  1  0  0  0  0
 16 40  1  0  0  0  0
 16 41  1  0  0  0  0
 16 42  1  0  0  0  0
 17 18  1  0  0  0  0
 18 19  2  0  0  0  0
 18 43  1  0  0  0  0
 19 20  1  0  0  0  0
 21 22  1  0  0  0  0
 21 44  1  0  0  0  0
 21 45  1  0  0  0  0
 22 46  1  0  0  0  0
 22 47  1  0  0  0  0
M  END
> <s_m_source_file>
AV-unprocessed.smi

> <i_m_source_file_index>
2690

> <i_lp_mmshare_version>
43012

> <i_f3d_flags>
0

> <s_epik_input>
W0NIMl0xW0NIMl1bQ0BIXShbQ0gzXSlbQ0gyXVtDSDJdW0NAQF0xKFtPSF0pW0NIMl1uKFtjSF1uMiljKGMyMyluW2NIXW5jM1tOSF1bQ0hdKFtDSDNdKVtDSDNd

> <s_epik_cmdline>
J2VwaWtfcHl0aG9uJywgJy1waCcsICc3LjAnLCAnLXRuJywgJzgnLCAnLW1hJywgJzIwMCcsICctbWV0YWxfYmluZGluZycsICctaW1hZScsICc8aW5maWxlLm1hZT4nLCAnLW9tYWUnLCAnPG91dGZpbGUubWFlPic=

> <r_lp_tautomer_probability>
1

> <r_epik_Ionization_Penalty>
0.00225104

> <r_epik_Ionization_Penalty_Charging>
0

> <r_epik_Ionization_Penalty_Neutral>
0.00225104

> <r_epik_State_Penalty>
-0

> <r_epik_Charging_Adjusted_Penalty>
0

> <i_epik_Tot_Q>
0

> <i_epik_Tot_abs_Q>
0

> <r_epik_Metal_State_Penalty>
-0

> <b_epik_Metal_Only>
0

> <s_lp_Force_Field>
OPLS_2005

> <r_lp_Energy>
15.1895

> <b_lp_Chiralities_Consistent>
1

> <s_lp_Variant>
AV-unprocessed.smi:2690-1

> <Gold.Version>
5.8.1

> <Gold.Id.Protein>
6NUR|6NUR_protein|mol2

> <Gold.PLP.Fitness>
52.0221

> <Gold.PLP.PLP>
-46.8684

> <Gold.PLP.part.hbond>
-3.8132

> <Gold.PLP.part.metal>
0.0000

> <Gold.PLP.part.buried>
-5.3591

> <Gold.PLP.part.nonpolar>
-37.5851

> <Gold.PLP.part.repulsive>
0.2044

> <Gold.PLP.ligand.clash>
0.0000

> <Gold.PLP.ligand.torsion>
1.3875

> <Gold.PLP.Chemscore.Hbond>
2.6200

> <Gold.PLP.Chemscore.CHOScore>
0.0000

> <Gold.PLP.Chemscore.Metal>
0.0000

> <Gold.Chemscore.Hbonds>
donor molecule, donor type, donor heavy atom, donor atom, acceptor molecule, acceptor atom, score
      L1  H    13    35       P1  7948  1.00
      P1  H  7997  8008       L1    19  0.85
      P1  H 10752 10763       L1    17  0.75

> <Gold.PLP.Chemscore.Internal.Correction>
0.0687

> <Gold.Rescore>
     Score         DG    S(hbond)    S(metal)    S(lipo)     H(rot)  DE(clash)    DE(int)     intcor
     15.46     -18.47       2.00        0.00      98.87       2.05       0.27       2.75       ----

> <Gold.Chemscore.Fitness>
15.4603

> <Gold.Chemscore.DG>
-18.4740

> <Gold.Chemscore.ZeroCoef>
-5.4800

> <Gold.Chemscore.Hbond>
2.0003

> <Gold.Chemscore.Metal>
0.0000

> <Gold.Chemscore.Lipo>
98.8695

> <Gold.Chemscore.Internal_Hbond>
0.0000

> <Gold.Chemscore.DEClash>
0.2683

> <Gold.Chemscore.DEInternal>
2.7454

> <Gold.Chemscore.Rot>
2.0526

> <Gold.Chemscore.Internal.Correction>
   9.000000E+99

> <Gold.Chemscore.Hbonds>
donor molecule, donor type, donor heavy atom, donor atom, acceptor molecule, acceptor atom, score
      L1  H    13    35       P1  7948  0.60
      P1  H  7997  8008       L1    19  0.14
      P1  H 10752 10763       L1    17  0.68

> <Gold.Chemscore.Hbond.Weighted>
-6.6809

> <Gold.Chemscore.Metal.Weighted>
-0.0000

> <Gold.Chemscore.Lipo.Weighted>
-11.5677

> <Gold.Chemscore.Internal_Hbond.Weighted>
0.0000

> <Gold.Chemscore.DEClash.Weighted>
0.2683

> <Gold.Chemscore.DEInternal.Weighted>
2.7454

> <Gold.Chemscore.Rot.Weighted>
5.2546

> <Gold.Chemscore.Internal.Correction.Weighted>
   9.000000E+99

> <Gold.Protein.RotatedTorsions>
[ 6907 6896 6895 6894 ] final  117.63 input  -60.11 | X-H torsion
[ 7974 7965 7964 7962 ] final  -71.13 input  175.53 | X-H torsion
[ 8008 7997 7996 7995 ] final  -51.59 input   59.86 | X-H torsion
[ 10167 10162 10161 10158 ] final  175.17 input  -65.29 | X-H torsion
[ 10718 10713 10712 10709 ] final  109.24 input   66.30 | X-H torsion
[ 10763 10752 10751 10750 ] final   38.98 input  -60.55 | X-H torsion
[ 11005 11000 10999 10996 ] final   59.89 input  -57.11 | X-H torsion

> <Gold.Protein.ActiveResidues>
 VAL166  LYS551  ARG553  GLY616  TRP617  ASP618  TYR619  PRO620  LYS621  CYS622 
 ASP623  PHE694  ASN695  SER759  ASP760  ASP761  ALA762  ILE779  LEU786  VAL792 
 PHE793  MET794  SER795  GLU796  ALA797  LYS798  CYS799  TRP800  GLU811  SER814 

> <Gold.Protein.RotatedAtoms>
  152.4598  133.7799  159.6844 H   0  0  0  0  0  0  0  0  0  0  0  0  # atno 6907 bound_to 6896
  150.8538  133.7736  159.3022 H   0  0  0  0  0  0  0  0  0  0  0  0  # atno 6908 bound_to 6896
  151.5323  135.1071  159.9957 H   0  0  0  0  0  0  0  0  0  0  0  0  # atno 6909 bound_to 6896
  145.6820  140.9184  143.0827 H   0  0  0  0  0  0  0  0  0  0  0  0  # atno 7974 bound_to 7965
  154.4086  140.1244  156.4854 H   0  0  0  0  0  0  0  0  0  0  0  0  # atno 8008 bound_to 7997
  155.7044  140.3494  155.4927 H   0  0  0  0  0  0  0  0  0  0  0  0  # atno 8009 bound_to 7997
  155.9357  140.1078  157.1087 H   0  0  0  0  0  0  0  0  0  0  0  0  # atno 8010 bound_to 7997
  139.5167  144.3063  152.0333 H   0  0  0  0  0  0  0  0  0  0  0  0  # atno 10167 bound_to 10162
  157.6550  131.0910  150.6424 H   0  0  0  0  0  0  0  0  0  0  0  0  # atno 10718 bound_to 10713
  152.9982  135.6233  154.2392 H   0  0  0  0  0  0  0  0  0  0  0  0  # atno 10763 bound_to 10752
  154.2133  135.2799  155.2952 H   0  0  0  0  0  0  0  0  0  0  0  0  # atno 10764 bound_to 10752
  154.5589  135.5711  153.7047 H   0  0  0  0  0  0  0  0  0  0  0  0  # atno 10765 bound_to 10752
  140.0271  134.6067  155.9558 H   0  0  0  0  0  0  0  0  0  0  0  0  # atno 11005 bound_to 11000
  144.7023  139.8709  143.7440 LP  0  0  0  0  0  0  0  0  0  0  0  0  # atno 17320 bound_to 7965
  146.0956  139.3948  143.0379 LP  0  0  0  0  0  0  0  0  0  0  0  0  # atno 17321 bound_to 7965
  140.2509  144.4170  150.6222 LP  0  0  0  0  0  0  0  0  0  0  0  0  # atno 17342 bound_to 10162
  140.6225  143.2178  151.6664 LP  0  0  0  0  0  0  0  0  0  0  0  0  # atno 17343 bound_to 10162
  156.6731  130.4545  149.5651 LP  0  0  0  0  0  0  0  0  0  0  0  0  # atno 17370 bound_to 10713
  156.1983  130.6603  151.1139 LP  0  0  0  0  0  0  0  0  0  0  0  0  # atno 17371 bound_to 10713
  141.1809  133.6546  156.5017 LP  0  0  0  0  0  0  0  0  0  0  0  0  # atno 17394 bound_to 11000
  140.4288  134.7120  157.4930 LP  0  0  0  0  0  0  0  0  0  0  0  0  # atno 17395 bound_to 11000

$$$$
