AV-unprocessed.smi:2344|AV-procd|sdf|9357|dock10
  -GOLD-   2272012583D 1   1.00000     0.00000
 Structure written by MMmdl.
 35 36  0  0  0  0  0  0  0  0  1 V2000
  146.5016  138.4150  152.2883 C   0  0  0  0  0  0  0  0  0  0  0  0
  147.2472  139.4085  153.1543 C   0  0  0  0  0  0  0  0  0  0  0  0
  148.2508  138.9797  154.0428 C   0  0  0  0  0  0  0  0  0  0  0  0
  148.9197  139.9398  154.8262 C   0  0  0  0  0  0  0  0  0  0  0  0
  148.5706  141.3037  154.7031 C   0  0  0  0  0  0  0  0  0  0  0  0
  149.3032  142.1893  155.5375 N   0  0  0  0  0  0  0  0  0  0  0  0
  150.5011  141.9881  156.1142 C   0  0  0  0  0  0  0  0  0  0  0  0
  151.1761  140.9626  156.0186 O   0  0  0  0  0  0  0  0  0  0  0  0
  150.8863  143.0610  156.8198 N   0  0  0  0  0  0  0  0  0  0  0  0
  152.1419  143.1674  157.5542 C   0  0  2  0  0  0  0  0  0  0  0  0
  152.3274  141.9768  158.4544 C   0  0  0  0  0  0  0  0  0  0  0  0
  152.5091  142.3184  159.7278 C   0  0  0  0  0  0  0  0  0  0  0  0
  152.4745  143.8098  159.9448 C   0  0  2  0  0  0  0  0  0  0  0  0
  151.4430  144.2363  161.0035 C   0  0  0  0  0  0  0  0  0  0  0  0
  151.4556  143.3438  162.0979 O   0  0  0  0  0  0  0  0  0  0  0  0
  152.1654  144.3710  158.5335 C   0  0  0  0  0  0  0  0  0  0  0  0
  147.6026  141.7073  153.8430 N   0  0  0  0  0  0  0  0  0  0  0  0
  146.9623  140.7867  153.0922 C   0  0  0  0  0  0  0  0  0  0  0  0
  152.9839  143.2104  156.8615 H   0  0  0  0  0  0  0  0  0  0  0  0
  153.4715  144.1281  160.2527 H   0  0  0  0  0  0  0  0  0  0  0  0
  146.2291  137.5319  152.8669 H   0  0  0  0  0  0  0  0  0  0  0  0
  147.1274  138.1001  151.4532 H   0  0  0  0  0  0  0  0  0  0  0  0
  145.5872  138.8526  151.8865 H   0  0  0  0  0  0  0  0  0  0  0  0
  148.5058  137.9333  154.1248 H   0  0  0  0  0  0  0  0  0  0  0  0
  149.6924  139.6275  155.5136 H   0  0  0  0  0  0  0  0  0  0  0  0
  148.8677  143.0834  155.7086 H   0  0  0  0  0  0  0  0  0  0  0  0
  150.2732  143.8625  156.8469 H   0  0  0  0  0  0  0  0  0  0  0  0
  152.3249  140.9644  158.0779 H   0  0  0  0  0  0  0  0  0  0  0  0
  152.6751  141.6237  160.5380 H   0  0  0  0  0  0  0  0  0  0  0  0
  151.6712  145.2368  161.3720 H   0  0  0  0  0  0  0  0  0  0  0  0
  150.4391  144.2691  160.5785 H   0  0  0  0  0  0  0  0  0  0  0  0
  152.3222  142.9747  162.1757 H   0  0  0  0  0  0  0  0  0  0  0  0
  152.9201  145.0984  158.2317 H   0  0  0  0  0  0  0  0  0  0  0  0
  151.2097  144.8978  158.5308 H   0  0  0  0  0  0  0  0  0  0  0  0
  146.2022  141.1639  152.4240 H   0  0  0  0  0  0  0  0  0  0  0  0
  1  2  1  0  0  0  0
  1 21  1  0  0  0  0
  1 22  1  0  0  0  0
  1 23  1  0  0  0  0
  2 18  1  0  0  0  0
  2  3  2  0  0  0  0
  3  4  1  0  0  0  0
  3 24  1  0  0  0  0
  4  5  2  0  0  0  0
  4 25  1  0  0  0  0
  5  6  1  0  0  0  0
  5 17  1  0  0  0  0
  6  7  1  0  0  0  0
  6 26  1  0  0  0  0
  7  8  2  0  0  0  0
  7  9  1  0  0  0  0
  9 10  1  0  0  0  0
  9 27  1  0  0  0  0
 10 19  1  0  0  0  0
 10 16  1  0  0  0  0
 10 11  1  0  0  0  0
 11 12  2  0  0  0  0
 11 28  1  0  0  0  0
 12 13  1  0  0  0  0
 12 29  1  0  0  0  0
 13 20  1  0  0  0  0
 13 14  1  0  0  0  0
 13 16  1  0  0  0  0
 14 15  1  0  0  0  0
 14 30  1  0  0  0  0
 14 31  1  0  0  0  0
 15 32  1  0  0  0  0
 16 33  1  0  0  0  0
 16 34  1  0  0  0  0
 17 18  2  0  0  0  0
 18 35  1  0  0  0  0
M  END
> <s_m_source_file>
AV-unprocessed.smi

> <i_m_source_file_index>
2344

> <i_lp_mmshare_version>
43012

> <i_f3d_flags>
0

> <s_epik_input>
W0NIM11jMVtjSF1bY0hdYyhuW2NIXTEpW05IXUMoPU8pW05IXVtDQEBIXTJbQ0hdPVtDSF1bQ0BASF0oW0NIMl0yKVtDSDJdW09IXQ==

> <s_epik_cmdline>
J2VwaWtfcHl0aG9uJywgJy1waCcsICc3LjAnLCAnLXRuJywgJzgnLCAnLW1hJywgJzIwMCcsICctbWV0YWxfYmluZGluZycsICctaW1hZScsICc8aW5maWxlLm1hZT4nLCAnLW9tYWUnLCAnPG91dGZpbGUubWFlPic=

> <r_lp_tautomer_probability>
1

> <r_epik_Ionization_Penalty>
5.7643e-05

> <r_epik_Ionization_Penalty_Charging>
0

> <r_epik_Ionization_Penalty_Neutral>
5.7643e-05

> <r_epik_State_Penalty>
-0

> <r_epik_Charging_Adjusted_Penalty>
0

> <i_epik_Tot_Q>
0

> <i_epik_Tot_abs_Q>
0

> <r_epik_Metal_State_Penalty>
-0

> <b_epik_Metal_Only>
0

> <s_lp_Force_Field>
OPLS_2005

> <r_lp_Energy>
16.9507

> <b_lp_Chiralities_Consistent>
1

> <s_lp_Variant>
AV-unprocessed.smi:2344-1

> <Gold.Version>
5.8.1

> <Gold.Id.Protein>
6NUR|6NUR_protein|mol2

> <Gold.PLP.Fitness>
46.9571

> <Gold.PLP.PLP>
-38.7724

> <Gold.PLP.part.hbond>
-4.1703

> <Gold.PLP.part.metal>
0.0000

> <Gold.PLP.part.buried>
-5.8871

> <Gold.PLP.part.nonpolar>
-30.5279

> <Gold.PLP.part.repulsive>
0.3912

> <Gold.PLP.ligand.clash>
0.0189

> <Gold.PLP.ligand.torsion>
0.4137

> <Gold.PLP.Chemscore.Hbond>
2.4546

> <Gold.PLP.Chemscore.CHOScore>
0.5510

> <Gold.PLP.Chemscore.Metal>
0.0000

> <Gold.Chemscore.Hbonds>
donor molecule, donor type, donor heavy atom, donor atom, acceptor molecule, acceptor atom, score
      L1  H     6    26       P1  8028  1.00
      L1  H     9    27       P1  8028  0.77
      P1  H  6933  6945       L1    15  0.55
      L1  C    18    35       P1 10175  0.47

> <Gold.PLP.Chemscore.Internal.Correction>
0.0142

> <Gold.Rescore>
     Score         DG    S(hbond)    S(metal)    S(lipo)     H(rot)  DE(clash)    DE(int)     intcor
     15.18     -20.87       2.48        0.00     100.57       1.82       2.42       3.27       ----

> <Gold.Chemscore.Fitness>
15.1762

> <Gold.Chemscore.DG>
-20.8749

> <Gold.Chemscore.ZeroCoef>
-5.4800

> <Gold.Chemscore.Hbond>
2.4799

> <Gold.Chemscore.Metal>
0.0000

> <Gold.Chemscore.Lipo>
100.5731

> <Gold.Chemscore.Internal_Hbond>
0.0000

> <Gold.Chemscore.DEClash>
2.4238

> <Gold.Chemscore.DEInternal>
3.2749

> <Gold.Chemscore.Rot>
1.8184

> <Gold.Chemscore.Internal.Correction>
   9.000000E+99

> <Gold.Chemscore.Hbonds>
donor molecule, donor type, donor heavy atom, donor atom, acceptor molecule, acceptor atom, score
      L1  H     6    26       P1  8028  0.96
      L1  H     9    27       P1  8028  0.74
      P1  H  6933  6945       L1    15  0.37

> <Gold.Chemscore.Hbond.Weighted>
-8.2829

> <Gold.Chemscore.Metal.Weighted>
-0.0000

> <Gold.Chemscore.Lipo.Weighted>
-11.7671

> <Gold.Chemscore.Internal_Hbond.Weighted>
0.0000

> <Gold.Chemscore.DEClash.Weighted>
2.4238

> <Gold.Chemscore.DEInternal.Weighted>
3.2749

> <Gold.Chemscore.Rot.Weighted>
4.6551

> <Gold.Chemscore.Internal.Correction.Weighted>
   9.000000E+99

> <Gold.Protein.RotatedTorsions>
[ 6907 6896 6895 6894 ] final  155.28 input  -60.11 | X-H torsion
[ 7974 7965 7964 7962 ] final  -47.24 input  175.53 | X-H torsion
[ 8008 7997 7996 7995 ] final  -11.05 input   59.86 | X-H torsion
[ 10167 10162 10161 10158 ] final -168.22 input  -65.29 | X-H torsion
[ 10718 10713 10712 10709 ] final   43.32 input   66.30 | X-H torsion
[ 10763 10752 10751 10750 ] final   31.60 input  -60.55 | X-H torsion
[ 11005 11000 10999 10996 ] final -140.46 input  -57.11 | X-H torsion

> <Gold.Protein.ActiveResidues>
 VAL166  LYS551  ARG553  GLY616  TRP617  ASP618  TYR619  PRO620  LYS621  CYS622 
 ASP623  PHE694  ASN695  SER759  ASP760  ASP761  ALA762  ILE779  LEU786  VAL792 
 PHE793  MET794  SER795  GLU796  ALA797  LYS798  CYS799  TRP800  GLU811  SER814 

> <Gold.Protein.RotatedAtoms>
  152.0464  133.4000  159.4358 H   0  0  0  0  0  0  0  0  0  0  0  0  # atno 6907 bound_to 6896
  150.6872  134.3357  159.4855 H   0  0  0  0  0  0  0  0  0  0  0  0  # atno 6908 bound_to 6896
  152.1162  134.9239  160.0615 H   0  0  0  0  0  0  0  0  0  0  0  0  # atno 6909 bound_to 6896
  145.9637  140.7454  142.9445 H   0  0  0  0  0  0  0  0  0  0  0  0  # atno 7974 bound_to 7965
  154.5500  140.2313  155.8501 H   0  0  0  0  0  0  0  0  0  0  0  0  # atno 8008 bound_to 7997
  156.1938  140.3070  155.9346 H   0  0  0  0  0  0  0  0  0  0  0  0  # atno 8009 bound_to 7997
  155.3090  140.0435  157.3024 H   0  0  0  0  0  0  0  0  0  0  0  0  # atno 8010 bound_to 7997
  139.5999  144.1032  152.1731 H   0  0  0  0  0  0  0  0  0  0  0  0  # atno 10167 bound_to 10162
  157.4146  130.7934  149.7461 H   0  0  0  0  0  0  0  0  0  0  0  0  # atno 10718 bound_to 10713
  153.0307  135.6435  154.1224 H   0  0  0  0  0  0  0  0  0  0  0  0  # atno 10763 bound_to 10752
  154.0947  135.2864  155.3266 H   0  0  0  0  0  0  0  0  0  0  0  0  # atno 10764 bound_to 10752
  154.6440  135.5449  153.7886 H   0  0  0  0  0  0  0  0  0  0  0  0  # atno 10765 bound_to 10752
  140.8420  134.2390  157.4805 H   0  0  0  0  0  0  0  0  0  0  0  0  # atno 11005 bound_to 11000
  144.6820  140.2633  143.7316 LP  0  0  0  0  0  0  0  0  0  0  0  0  # atno 17320 bound_to 7965
  145.8004  139.1962  143.2051 LP  0  0  0  0  0  0  0  0  0  0  0  0  # atno 17321 bound_to 7965
  140.0626  144.5844  150.7251 LP  0  0  0  0  0  0  0  0  0  0  0  0  # atno 17342 bound_to 10162
  140.7241  143.2618  151.4178 LP  0  0  0  0  0  0  0  0  0  0  0  0  # atno 17343 bound_to 10162
  155.9861  130.3977  150.3228 LP  0  0  0  0  0  0  0  0  0  0  0  0  # atno 17370 bound_to 10713
  157.1370  131.0286  151.2944 LP  0  0  0  0  0  0  0  0  0  0  0  0  # atno 17371 bound_to 10713
  139.8703  134.9640  156.4482 LP  0  0  0  0  0  0  0  0  0  0  0  0  # atno 17394 bound_to 11000
  140.8884  133.7866  155.9544 LP  0  0  0  0  0  0  0  0  0  0  0  0  # atno 17395 bound_to 11000

$$$$
