AV-unprocessed.smi:42|AV-procd|sdf|389|dock1
  -GOLD-   2262016243D 1   1.00000     0.00000
 Structure written by MMmdl.
 27 28  0  0  0  0  0  0  0  0  2 V2000
  152.3784  142.9743  161.9238 C   0  0  0  0  0  0  0  0  0  0  0  0
  152.7875  142.2948  160.6128 C   0  0  0  0  0  0  0  0  0  0  0  0
  151.7071  142.3382  159.5848 C   0  0  0  0  0  0  0  0  0  0  0  0
  150.4503  142.7574  159.7475 N   0  0  0  0  0  0  0  0  0  0  0  0
  149.8590  142.6589  158.5089 N   0  0  0  0  0  0  0  0  0  0  0  0
  150.8140  142.2216  157.6805 C   0  0  0  0  0  0  0  0  0  0  0  0
  150.6988  141.8946  156.2226 C   0  0  1  0  0  0  0  0  0  0  0  0
  150.8862  140.4143  155.8730 C   0  0  0  0  0  0  0  0  0  0  0  0
  149.8116  140.1170  154.8139 C   0  0  2  0  0  0  0  0  0  0  0  0
  150.3906  139.7259  153.5863 O   0  0  0  0  0  0  0  0  0  0  0  0
  149.0124  141.4202  154.6515 C   0  0  0  0  0  0  0  0  0  0  0  0
  149.3144  142.2224  155.8462 N   0  3  0  0  0  0  0  0  0  0  0  0
  151.9985  141.9913  158.3041 O   0  0  0  0  0  0  0  0  0  0  0  0
  151.3803  142.5163  155.6398 H   0  0  0  0  0  0  0  0  0  0  0  0
  149.1580  139.3178  155.1667 H   0  0  0  0  0  0  0  0  0  0  0  0
  153.1865  142.9278  162.6539 H   0  0  0  0  0  0  0  0  0  0  0  0
  151.5050  142.4900  162.3618 H   0  0  0  0  0  0  0  0  0  0  0  0
  152.1347  144.0250  161.7634 H   0  0  0  0  0  0  0  0  0  0  0  0
  153.6779  142.7751  160.2061 H   0  0  0  0  0  0  0  0  0  0  0  0
  153.0516  141.2535  160.8004 H   0  0  0  0  0  0  0  0  0  0  0  0
  151.9040  140.2005  155.5434 H   0  0  0  0  0  0  0  0  0  0  0  0
  150.6938  139.7910  156.7478 H   0  0  0  0  0  0  0  0  0  0  0  0
  149.8300  140.0125  152.8807 H   0  0  0  0  0  0  0  0  0  0  0  0
  149.3533  141.9803  153.7790 H   0  0  0  0  0  0  0  0  0  0  0  0
  147.9413  141.2488  154.5421 H   0  0  0  0  0  0  0  0  0  0  0  0
  148.7066  141.9247  156.5965 H   0  0  0  0  0  0  0  0  0  0  0  0
  149.1948  143.2112  155.6790 H   0  0  0  0  0  0  0  0  0  0  0  0
  1  2  1  0  0  0  0
  1 16  1  0  0  0  0
  1 17  1  0  0  0  0
  1 18  1  0  0  0  0
  2  3  1  0  0  0  0
  2 19  1  0  0  0  0
  2 20  1  0  0  0  0
  3 13  1  0  0  0  0
  3  4  2  0  0  0  0
  4  5  1  0  0  0  0
  5  6  2  0  0  0  0
  6  7  1  0  0  0  0
  6 13  1  0  0  0  0
  7 14  1  0  0  0  0
  7 12  1  0  0  0  0
  7  8  1  0  0  0  0
  8  9  1  0  0  0  0
  8 21  1  0  0  0  0
  8 22  1  0  0  0  0
  9 15  1  0  0  0  0
  9 10  1  0  0  0  0
  9 11  1  0  0  0  0
 10 23  1  0  0  0  0
 11 12  1  0  0  0  0
 11 24  1  0  0  0  0
 11 25  1  0  0  0  0
 12 26  1  0  0  0  0
 12 27  1  0  0  0  0
M  CHG  1  12   1
M  END
> <s_m_source_file>
AV-unprocessed.smi

> <i_m_source_file_index>
42

> <i_lp_mmshare_version>
43012

> <i_f3d_flags>
0

> <s_epik_input>
W0NIM11bQ0gyXWMxbm5jKG8xKVtDQEhdMltDSDJdW0NAQEhdKFtPSF0pW0NIMl1bTkhdMg==

> <s_epik_cmdline>
J2VwaWtfcHl0aG9uJywgJy1waCcsICc3LjAnLCAnLXRuJywgJzgnLCAnLW1hJywgJzIwMCcsICctbWV0YWxfYmluZGluZycsICctaW1hZScsICc8aW5maWxlLm1hZT4nLCAnLW9tYWUnLCAnPG91dGZpbGUubWFlPic=

> <r_lp_tautomer_probability>
1

> <r_epik_Ionization_Penalty>
0.00247063

> <r_epik_Ionization_Penalty_Charging>
0.0024706

> <r_epik_Ionization_Penalty_Neutral>
3.27814e-08

> <r_epik_State_Penalty>
0.00171198

> <r_epik_Charging_Adjusted_Penalty>
0.00418258

> <i_epik_Tot_Q>
1

> <i_epik_Tot_abs_Q>
1

> <r_epik_Metal_State_Penalty>
-0

> <b_epik_Metal_Only>
0

> <s_lp_Force_Field>
OPLS_2005

> <r_lp_Energy>
19.5467

> <b_lp_Chiralities_Consistent>
1

> <s_lp_Variant>
AV-unprocessed.smi:42-3

> <Gold.Version>
5.8.1

> <Gold.Id.Protein>
6NUR|6NUR_protein|mol2

> <Gold.PLP.Fitness>
39.8530

> <Gold.PLP.PLP>
-28.7708

> <Gold.PLP.part.hbond>
-4.0000

> <Gold.PLP.part.metal>
0.0000

> <Gold.PLP.part.buried>
-2.3123

> <Gold.PLP.part.nonpolar>
-22.6469

> <Gold.PLP.part.repulsive>
0.3006

> <Gold.PLP.ligand.clash>
0.0000

> <Gold.PLP.ligand.torsion>
0.1182

> <Gold.PLP.Chemscore.Hbond>
3.7600

> <Gold.PLP.Chemscore.CHOScore>
0.0000

> <Gold.PLP.Chemscore.Metal>
0.0000

> <Gold.Chemscore.Hbonds>
donor molecule, donor type, donor heavy atom, donor atom, acceptor molecule, acceptor atom, score
      L1  H    10    23       P1  7957  0.90
      L1  H    12    27       P1  8028  2.00
      P1  H  7989  7998       L1    10  0.85

> <Gold.PLP.Chemscore.Internal.Correction>
0.0385

> <Gold.Rescore>
     Score         DG    S(hbond)    S(metal)    S(lipo)     H(rot)  DE(clash)    DE(int)     intcor
     13.06     -13.20       1.97        0.00      50.26       1.86       0.04       0.10       ----

> <Gold.Chemscore.Fitness>
13.0552

> <Gold.Chemscore.DG>
-13.1951

> <Gold.Chemscore.ZeroCoef>
-5.4800

> <Gold.Chemscore.Hbond>
1.9722

> <Gold.Chemscore.Metal>
0.0000

> <Gold.Chemscore.Lipo>
50.2643

> <Gold.Chemscore.Internal_Hbond>
0.0000

> <Gold.Chemscore.DEClash>
0.0354

> <Gold.Chemscore.DEInternal>
0.1045

> <Gold.Chemscore.Rot>
1.8567

> <Gold.Chemscore.Internal.Correction>
   9.000000E+99

> <Gold.Chemscore.Hbonds>
donor molecule, donor type, donor heavy atom, donor atom, acceptor molecule, acceptor atom, score
      L1  H    10    23       P1  7957  0.87
      L1  H    12    27       P1  8028  0.94
      P1  H  7989  7998       L1    10  0.06

> <Gold.Chemscore.Hbond.Weighted>
-6.5872

> <Gold.Chemscore.Metal.Weighted>
-0.0000

> <Gold.Chemscore.Lipo.Weighted>
-5.8809

> <Gold.Chemscore.Internal_Hbond.Weighted>
0.0000

> <Gold.Chemscore.DEClash.Weighted>
0.0354

> <Gold.Chemscore.DEInternal.Weighted>
0.1045

> <Gold.Chemscore.Rot.Weighted>
4.7531

> <Gold.Chemscore.Internal.Correction.Weighted>
   9.000000E+99

> <Gold.Protein.RotatedTorsions>
[ 6907 6896 6895 6894 ] final -115.61 input  -60.11 | X-H torsion
[ 7974 7965 7964 7962 ] final  -88.54 input  175.53 | X-H torsion
[ 8008 7997 7996 7995 ] final  159.18 input   59.86 | X-H torsion
[ 10167 10162 10161 10158 ] final -137.59 input  -65.29 | X-H torsion
[ 10718 10713 10712 10709 ] final  -14.41 input   66.30 | X-H torsion
[ 10763 10752 10751 10750 ] final   78.16 input  -60.55 | X-H torsion
[ 11005 11000 10999 10996 ] final   92.98 input  -57.11 | X-H torsion

> <Gold.Protein.ActiveResidues>
 VAL166  LYS551  ARG553  GLY616  TRP617  ASP618  TYR619  PRO620  LYS621  CYS622 
 ASP623  PHE694  ASN695  SER759  ASP760  ASP761  ALA762  ILE779  LEU786  VAL792 
 PHE793  MET794  SER795  GLU796  ALA797  LYS798  CYS799  TRP800  GLU811  SER814 

> <Gold.Protein.RotatedAtoms>
  150.7991  133.8634  159.3237 H   0  0  0  0  0  0  0  0  0  0  0  0  # atno 6907 bound_to 6896
  151.6451  135.1006  160.0159 H   0  0  0  0  0  0  0  0  0  0  0  0  # atno 6908 bound_to 6896
  152.4077  133.6874  159.6405 H   0  0  0  0  0  0  0  0  0  0  0  0  # atno 6909 bound_to 6896
  145.4519  140.9560  143.2018 H   0  0  0  0  0  0  0  0  0  0  0  0  # atno 7974 bound_to 7965
  156.2255  140.1838  156.7373 H   0  0  0  0  0  0  0  0  0  0  0  0  # atno 8008 bound_to 7997
  154.5935  140.0647  156.9299 H   0  0  0  0  0  0  0  0  0  0  0  0  # atno 8009 bound_to 7997
  155.2296  140.3314  155.4307 H   0  0  0  0  0  0  0  0  0  0  0  0  # atno 8010 bound_to 7997
  139.8562  143.7135  152.2654 H   0  0  0  0  0  0  0  0  0  0  0  0  # atno 10167 bound_to 10162
  156.6164  130.4863  149.6181 H   0  0  0  0  0  0  0  0  0  0  0  0  # atno 10718 bound_to 10713
  153.0853  135.4887  154.8585 H   0  0  0  0  0  0  0  0  0  0  0  0  # atno 10763 bound_to 10752
  154.7203  135.3038  154.9060 H   0  0  0  0  0  0  0  0  0  0  0  0  # atno 10764 bound_to 10752
  153.9726  135.6799  153.4800 H   0  0  0  0  0  0  0  0  0  0  0  0  # atno 10765 bound_to 10752
  139.8816  134.8764  156.3651 H   0  0  0  0  0  0  0  0  0  0  0  0  # atno 11005 bound_to 11000
  144.8056  139.6057  143.7052 LP  0  0  0  0  0  0  0  0  0  0  0  0  # atno 17320 bound_to 7965
  146.2500  139.6179  142.9434 LP  0  0  0  0  0  0  0  0  0  0  0  0  # atno 17321 bound_to 7965
  139.7417  144.7558  151.0642 LP  0  0  0  0  0  0  0  0  0  0  0  0  # atno 17342 bound_to 10162
  140.7781  143.4964  150.9827 LP  0  0  0  0  0  0  0  0  0  0  0  0  # atno 17343 bound_to 10162
  156.2347  130.6815  151.1498 LP  0  0  0  0  0  0  0  0  0  0  0  0  # atno 17370 bound_to 10713
  157.7240  131.0663  150.6014 LP  0  0  0  0  0  0  0  0  0  0  0  0  # atno 17371 bound_to 10713
  140.9502  133.7456  156.0262 LP  0  0  0  0  0  0  0  0  0  0  0  0  # atno 17394 bound_to 11000
  140.8114  134.3395  157.5410 LP  0  0  0  0  0  0  0  0  0  0  0  0  # atno 17395 bound_to 11000

$$$$
