AV-unprocessed.smi:921|AV-procd|sdf|4171|dock1
  -GOLD-   22720 2 83D 1   1.00000     0.00000
 Structure written by MMmdl.
 40 42  0  0  0  0  0  0  0  0  2 V2000
  148.9993  138.2311  153.7512 N   0  0  0  0  0  0  0  0  0  0  0  0
  148.4661  138.3248  154.9719 C   0  0  0  0  0  0  0  0  0  0  0  0
  148.8934  139.1153  155.8116 O   0  0  0  0  0  0  0  0  0  0  0  0
  147.2906  137.3955  155.2909 C   0  0  0  0  0  0  0  0  0  0  0  0
  147.6975  135.9557  155.1964 C   0  0  0  0  0  0  0  0  0  0  0  0
  148.1682  135.3407  154.0743 N   0  3  0  0  0  0  0  0  0  0  0  0
  148.4088  133.9927  154.3372 C   0  0  0  0  0  0  0  0  0  0  0  0
  148.8797  132.9757  153.5125 C   0  0  0  0  0  0  0  0  0  0  0  0
  149.0028  131.6963  154.0926 C   0  0  0  0  0  0  0  0  0  0  0  0
  148.6603  131.4663  155.4404 C   0  0  0  0  0  0  0  0  0  0  0  0
  148.1833  132.5055  156.2655 C   0  0  0  0  0  0  0  0  0  0  0  0
  148.0715  133.7708  155.6878 C   0  0  0  0  0  0  0  0  0  0  0  0
  147.6618  135.0146  156.1870 N   0  0  0  0  0  0  0  0  0  0  0  0
  147.2532  135.1315  157.5997 C   0  0  0  0  0  0  0  0  0  0  0  0
  148.4276  135.3528  158.5835 C   0  0  2  0  0  0  0  0  0  0  0  0
  149.5439  134.5752  158.1955 O   0  0  0  0  0  0  0  0  0  0  0  0
  148.0328  135.1320  160.0401 C   0  0  0  0  0  0  0  0  0  0  0  0
  148.0995  136.1897  160.9763 C   0  0  0  0  0  0  0  0  0  0  0  0
  147.7549  135.9724  162.3240 C   0  0  0  0  0  0  0  0  0  0  0  0
  147.8332  136.9893  163.2144 F   0  0  0  0  0  0  0  0  0  0  0  0
  147.3343  134.6975  162.7463 C   0  0  0  0  0  0  0  0  0  0  0  0
  147.2637  133.6395  161.8207 C   0  0  0  0  0  0  0  0  0  0  0  0
  147.6134  133.8534  160.4730 C   0  0  0  0  0  0  0  0  0  0  0  0
  147.5538  132.8203  159.5989 F   0  0  0  0  0  0  0  0  0  0  0  0
  149.7813  138.8199  153.5017 H   0  0  0  0  0  0  0  0  0  0  0  0
  148.6287  137.5703  153.0836 H   0  0  0  0  0  0  0  0  0  0  0  0
  146.9097  137.5924  156.2940 H   0  0  0  0  0  0  0  0  0  0  0  0
  146.4790  137.6067  154.5965 H   0  0  0  0  0  0  0  0  0  0  0  0
  149.1389  133.1485  152.4782 H   0  0  0  0  0  0  0  0  0  0  0  0
  149.3646  130.8748  153.4912 H   0  0  0  0  0  0  0  0  0  0  0  0
  148.7655  130.4725  155.8507 H   0  0  0  0  0  0  0  0  0  0  0  0
  147.9264  132.3147  157.2965 H   0  0  0  0  0  0  0  0  0  0  0  0
  146.5632  135.9738  157.6609 H   0  0  0  0  0  0  0  0  0  0  0  0
  146.6681  134.2550  157.8788 H   0  0  0  0  0  0  0  0  0  0  0  0
  148.7496  136.3901  158.4860 H   0  0  0  0  0  0  0  0  0  0  0  0
  149.2325  133.8291  157.7056 H   0  0  0  0  0  0  0  0  0  0  0  0
  148.4303  137.1713  160.6702 H   0  0  0  0  0  0  0  0  0  0  0  0
  147.0686  134.5303  163.7797 H   0  0  0  0  0  0  0  0  0  0  0  0
  146.9438  132.6604  162.1454 H   0  0  0  0  0  0  0  0  0  0  0  0
  148.3020  135.8109  153.1884 H   0  0  0  0  0  0  0  0  0  0  0  0
  1  2  1  0  0  0  0
  1 25  1  0  0  0  0
  1 26  1  0  0  0  0
  2  3  2  0  0  0  0
  2  4  1  0  0  0  0
  4  5  1  0  0  0  0
  4 27  1  0  0  0  0
  4 28  1  0  0  0  0
  5 13  1  0  0  0  0
  5  6  2  0  0  0  0
  6  7  1  0  0  0  0
  6 40  1  0  0  0  0
  7 12  2  0  0  0  0
  7  8  1  0  0  0  0
  8  9  2  0  0  0  0
  8 29  1  0  0  0  0
  9 10  1  0  0  0  0
  9 30  1  0  0  0  0
 10 11  2  0  0  0  0
 10 31  1  0  0  0  0
 11 12  1  0  0  0  0
 11 32  1  0  0  0  0
 12 13  1  0  0  0  0
 13 14  1  0  0  0  0
 14 15  1  0  0  0  0
 14 33  1  0  0  0  0
 14 34  1  0  0  0  0
 15 16  1  0  0  0  0
 15 17  1  0  0  0  0
 15 35  1  0  0  0  0
 16 36  1  0  0  0  0
 17 23  1  0  0  0  0
 17 18  2  0  0  0  0
 18 19  1  0  0  0  0
 18 37  1  0  0  0  0
 19 20  1  0  0  0  0
 19 21  2  0  0  0  0
 21 22  1  0  0  0  0
 21 38  1  0  0  0  0
 22 23  2  0  0  0  0
 22 39  1  0  0  0  0
 23 24  1  0  0  0  0
M  CHG  1   6   1
M  END
> <s_m_source_file>
AV-unprocessed.smi

> <i_m_source_file_index>
921

> <i_lp_mmshare_version>
43012

> <i_f3d_flags>
0

> <s_epik_input>
W2NIXTFbY0hdW2NIXVtjSF1jKGMxMiluKGMobjIpW0NIMl1DKD1PKVtOSDJdKVtDSDJdW0NASF0oW09IXSljM1tjSF1jKEYpW2NIXVtjSF1jM0Y=

> <s_epik_cmdline>
J2VwaWtfcHl0aG9uJywgJy1waCcsICc3LjAnLCAnLXRuJywgJzgnLCAnLW1hJywgJzIwMCcsICctbWV0YWxfYmluZGluZycsICctaW1hZScsICc8aW5maWxlLm1hZT4nLCAnLW9tYWUnLCAnPG91dGZpbGUubWFlPic=

> <r_epik_Ionization_Penalty>
1.66646

> <r_epik_Ionization_Penalty_Charging>
1.66645

> <r_epik_Ionization_Penalty_Neutral>
3.86504e-06

> <r_epik_State_Penalty>
1.76975

> <r_epik_Charging_Adjusted_Penalty>
3.43621

> <i_epik_Tot_Q>
1

> <i_epik_Tot_abs_Q>
1

> <r_epik_Metal_State_Penalty>
1.80493

> <b_epik_Metal_Only>
0

> <s_lp_Force_Field>
OPLS_2005

> <r_lp_Energy>
13.8702

> <b_lp_Chiralities_Consistent>
1

> <s_lp_Variant>
AV-unprocessed.smi:921-3

> <Gold.Version>
5.8.1

> <Gold.Id.Protein>
6NUR|6NUR_protein|mol2

> <Gold.PLP.Fitness>
47.7840

> <Gold.PLP.PLP>
-36.7858

> <Gold.PLP.part.hbond>
-3.1516

> <Gold.PLP.part.metal>
0.0000

> <Gold.PLP.part.buried>
-3.6062

> <Gold.PLP.part.nonpolar>
-30.7271

> <Gold.PLP.part.repulsive>
0.0357

> <Gold.PLP.ligand.clash>
0.0000

> <Gold.PLP.ligand.torsion>
0.5123

> <Gold.PLP.Chemscore.Hbond>
3.9760

> <Gold.PLP.Chemscore.CHOScore>
0.0000

> <Gold.PLP.Chemscore.Metal>
0.0000

> <Gold.Chemscore.Hbonds>
donor molecule, donor type, donor heavy atom, donor atom, acceptor molecule, acceptor atom, score
      L1  H     1    26       P1  7948  0.94
      L1  H     6    40       P1  7948  1.98
      P1  H  6896  6907       L1    16  1.00

> <Gold.PLP.Chemscore.Internal.Correction>
0.0948

> <Gold.Rescore>
     Score         DG    S(hbond)    S(metal)    S(lipo)     H(rot)  DE(clash)    DE(int)     intcor
     13.18     -15.78       2.92        0.00      73.96       3.17       0.01       2.59       ----

> <Gold.Chemscore.Fitness>
13.1838

> <Gold.Chemscore.DG>
-15.7829

> <Gold.Chemscore.ZeroCoef>
-5.4800

> <Gold.Chemscore.Hbond>
2.9249

> <Gold.Chemscore.Metal>
0.0000

> <Gold.Chemscore.Lipo>
73.9604

> <Gold.Chemscore.Internal_Hbond>
0.0000

> <Gold.Chemscore.DEClash>
0.0074

> <Gold.Chemscore.DEInternal>
2.5917

> <Gold.Chemscore.Rot>
3.1717

> <Gold.Chemscore.Internal.Correction>
   9.000000E+99

> <Gold.Chemscore.Hbonds>
donor molecule, donor type, donor heavy atom, donor atom, acceptor molecule, acceptor atom, score
      L1  H     1    26       P1  7948  0.91
      L1  H     6    40       P1  7948  0.92
      P1  H  6896  6907       L1    16  0.52

> <Gold.Chemscore.Hbond.Weighted>
-9.7691

> <Gold.Chemscore.Metal.Weighted>
-0.0000

> <Gold.Chemscore.Lipo.Weighted>
-8.6534

> <Gold.Chemscore.Internal_Hbond.Weighted>
0.0000

> <Gold.Chemscore.DEClash.Weighted>
0.0074

> <Gold.Chemscore.DEInternal.Weighted>
2.5917

> <Gold.Chemscore.Rot.Weighted>
8.1196

> <Gold.Chemscore.Internal.Correction.Weighted>
   9.000000E+99

> <Gold.Protein.RotatedTorsions>
[ 6907 6896 6895 6894 ] final -109.44 input  -60.11 | X-H torsion
[ 7974 7965 7964 7962 ] final  139.17 input  175.53 | X-H torsion
[ 8008 7997 7996 7995 ] final -161.89 input   59.86 | X-H torsion
[ 10167 10162 10161 10158 ] final  -38.53 input  -65.29 | X-H torsion
[ 10718 10713 10712 10709 ] final  -42.24 input   66.30 | X-H torsion
[ 10763 10752 10751 10750 ] final   60.08 input  -60.55 | X-H torsion
[ 11005 11000 10999 10996 ] final  -98.18 input  -57.11 | X-H torsion

> <Gold.Protein.ActiveResidues>
 VAL166  LYS551  ARG553  GLY616  TRP617  ASP618  TYR619  PRO620  LYS621  CYS622 
 ASP623  PHE694  ASN695  SER759  ASP760  ASP761  ALA762  ILE779  LEU786  VAL792 
 PHE793  MET794  SER795  GLU796  ALA797  LYS798  CYS799  TRP800  GLU811  SER814 

> <Gold.Protein.RotatedAtoms>
  150.7562  133.9529  159.3491 H   0  0  0  0  0  0  0  0  0  0  0  0  # atno 6907 bound_to 6896
  151.7448  135.0844  160.0331 H   0  0  0  0  0  0  0  0  0  0  0  0  # atno 6908 bound_to 6896
  152.3505  133.6136  159.5977 H   0  0  0  0  0  0  0  0  0  0  0  0  # atno 6909 bound_to 6896
  144.9304  139.5055  143.5620 H   0  0  0  0  0  0  0  0  0  0  0  0  # atno 7974 bound_to 7965
  155.7988  140.0889  157.1969 H   0  0  0  0  0  0  0  0  0  0  0  0  # atno 8008 bound_to 7997
  154.3982  140.1476  156.3308 H   0  0  0  0  0  0  0  0  0  0  0  0  # atno 8009 bound_to 7997
  155.8484  140.3435  155.5680 H   0  0  0  0  0  0  0  0  0  0  0  0  # atno 8010 bound_to 7997
  140.7089  143.3271  151.2654 H   0  0  0  0  0  0  0  0  0  0  0  0  # atno 10167 bound_to 10162
  156.2618  130.4197  149.8534 H   0  0  0  0  0  0  0  0  0  0  0  0  # atno 10718 bound_to 10713
  152.9911  135.5549  154.5816 H   0  0  0  0  0  0  0  0  0  0  0  0  # atno 10763 bound_to 10752
  154.5196  135.2807  155.1276 H   0  0  0  0  0  0  0  0  0  0  0  0  # atno 10764 bound_to 10752
  154.2634  135.6376  153.5336 H   0  0  0  0  0  0  0  0  0  0  0  0  # atno 10765 bound_to 10752
  141.1354  133.8226  157.0805 H   0  0  0  0  0  0  0  0  0  0  0  0  # atno 11005 bound_to 11000
  146.3244  139.8249  142.8919 LP  0  0  0  0  0  0  0  0  0  0  0  0  # atno 17320 bound_to 7965
  145.3152  141.0230  143.3532 LP  0  0  0  0  0  0  0  0  0  0  0  0  # atno 17321 bound_to 7965
  139.6743  143.9965  152.2771 LP  0  0  0  0  0  0  0  0  0  0  0  0  # atno 17342 bound_to 10162
  139.9574  144.6580  150.8112 LP  0  0  0  0  0  0  0  0  0  0  0  0  # atno 17343 bound_to 10162
  156.6047  130.8561  151.3440 LP  0  0  0  0  0  0  0  0  0  0  0  0  # atno 17370 bound_to 10713
  157.7253  130.9614  150.1609 LP  0  0  0  0  0  0  0  0  0  0  0  0  # atno 17371 bound_to 10713
  140.0454  134.9833  157.1040 LP  0  0  0  0  0  0  0  0  0  0  0  0  # atno 17394 bound_to 11000
  140.4070  134.2021  155.7163 LP  0  0  0  0  0  0  0  0  0  0  0  0  # atno 17395 bound_to 11000

$$$$
