AV-unprocessed.smi:918|AV-procd|sdf|4163|dock9
  -GOLD-   22720 2 73D 1   1.00000     0.00000
 Structure written by MMmdl.
 31 32  0  0  0  0  0  0  0  0  2 V2000
  152.1633  137.3226  154.3291 O   0  0  0  0  0  0  0  0  0  0  0  0
  152.2118  138.3372  155.0603 C   0  0  0  0  0  0  0  0  0  0  0  0
  153.0080  139.2832  154.8869 O   0  5  0  0  0  0  0  0  0  0  0  0
  151.1599  138.3639  156.2787 C   0  0  0  0  0  0  0  0  0  0  0  0
  150.9762  137.2116  156.9604 C   0  0  0  0  0  0  0  0  0  0  0  0
  150.0583  137.1476  158.0588 C   0  0  0  0  0  0  0  0  0  0  0  0
  149.3726  138.2378  158.4183 C   0  0  0  0  0  0  0  0  0  0  0  0
  149.5276  139.5124  157.7206 C   0  0  0  0  0  0  0  0  0  0  0  0
  148.8636  140.4717  158.1077 O   0  0  0  0  0  0  0  0  0  0  0  0
  150.4198  139.5509  156.6623 N   0  0  0  0  0  0  0  0  0  0  0  0
  150.6472  140.8086  155.8869 C   0  0  0  0  0  0  0  0  0  0  0  0
  150.8293  142.1767  156.5793 C   0  0  0  0  0  0  0  0  0  0  0  0
  151.4535  141.9578  157.8371 O   0  0  0  0  0  0  0  0  0  0  0  0
  151.5480  143.0164  158.7168 C   0  0  0  0  0  0  0  0  0  0  0  0
  150.9776  144.2937  158.4797 C   0  0  0  0  0  0  0  0  0  0  0  0
  151.1166  145.3265  159.4269 C   0  0  0  0  0  0  0  0  0  0  0  0
  151.8249  145.0998  160.6208 C   0  0  0  0  0  0  0  0  0  0  0  0
  152.3945  143.8373  160.8664 C   0  0  0  0  0  0  0  0  0  0  0  0
  152.2570  142.8022  159.9205 C   0  0  0  0  0  0  0  0  0  0  0  0
  152.9673  141.2624  160.2495 Cl  0  0  0  0  0  0  0  0  0  0  0  0
  151.5109  136.3095  156.7012 H   0  0  0  0  0  0  0  0  0  0  0  0
  149.9214  136.2201  158.5948 H   0  0  0  0  0  0  0  0  0  0  0  0
  148.6842  138.1745  159.2484 H   0  0  0  0  0  0  0  0  0  0  0  0
  151.5473  140.6673  155.2882 H   0  0  0  0  0  0  0  0  0  0  0  0
  149.7993  140.9375  155.2138 H   0  0  0  0  0  0  0  0  0  0  0  0
  151.4647  142.8275  155.9763 H   0  0  0  0  0  0  0  0  0  0  0  0
  149.8611  142.6534  156.7419 H   0  0  0  0  0  0  0  0  0  0  0  0
  150.4270  144.5077  157.5764 H   0  0  0  0  0  0  0  0  0  0  0  0
  150.6782  146.2948  159.2356 H   0  0  0  0  0  0  0  0  0  0  0  0
  151.9310  145.8926  161.3468 H   0  0  0  0  0  0  0  0  0  0  0  0
  152.9385  143.6628  161.7832 H   0  0  0  0  0  0  0  0  0  0  0  0
  1  2  2  0  0  0  0
  2  3  1  0  0  0  0
  2  4  1  0  0  0  0
  4 10  1  0  0  0  0
  4  5  2  0  0  0  0
  5  6  1  0  0  0  0
  5 21  1  0  0  0  0
  6  7  2  0  0  0  0
  6 22  1  0  0  0  0
  7  8  1  0  0  0  0
  7 23  1  0  0  0  0
  8  9  2  0  0  0  0
  8 10  1  0  0  0  0
 10 11  1  0  0  0  0
 11 12  1  0  0  0  0
 11 24  1  0  0  0  0
 11 25  1  0  0  0  0
 12 13  1  0  0  0  0
 12 26  1  0  0  0  0
 12 27  1  0  0  0  0
 13 14  1  0  0  0  0
 14 19  1  0  0  0  0
 14 15  2  0  0  0  0
 15 16  1  0  0  0  0
 15 28  1  0  0  0  0
 16 17  2  0  0  0  0
 16 29  1  0  0  0  0
 17 18  1  0  0  0  0
 17 30  1  0  0  0  0
 18 19  2  0  0  0  0
 18 31  1  0  0  0  0
 19 20  1  0  0  0  0
M  CHG  1   3  -1
M  END
> <s_m_source_file>
AV-unprocessed.smi

> <i_m_source_file_index>
918

> <i_lp_mmshare_version>
43012

> <i_f3d_flags>
0

> <s_epik_input>
Tz1DKFtPSF0pYzFbY0hdW2NIXVtjSF1jKD1PKW4xW0NIMl1bQ0gyXU9jMltjSF1bY0hdW2NIXVtjSF1jMkNs

> <s_epik_cmdline>
J2VwaWtfcHl0aG9uJywgJy1waCcsICc3LjAnLCAnLXRuJywgJzgnLCAnLW1hJywgJzIwMCcsICctbWV0YWxfYmluZGluZycsICctaW1hZScsICc8aW5maWxlLm1hZT4nLCAnLW9tYWUnLCAnPG91dGZpbGUubWFlPic=

> <r_lp_tautomer_probability>
1

> <r_epik_Ionization_Penalty>
4.91901e-05

> <r_epik_Ionization_Penalty_Charging>
4.91901e-05

> <r_epik_Ionization_Penalty_Neutral>
0

> <r_epik_State_Penalty>
-0

> <r_epik_Charging_Adjusted_Penalty>
4.91901e-05

> <i_epik_Tot_Q>
-1

> <i_epik_Tot_abs_Q>
1

> <r_epik_Metal_State_Penalty>
-0

> <b_epik_Metal_Only>
0

> <s_lp_Force_Field>
OPLS_2005

> <r_lp_Energy>
37.328

> <b_lp_Chiralities_Consistent>
1

> <s_lp_Variant>
AV-unprocessed.smi:918-1

> <Gold.Version>
5.8.1

> <Gold.Id.Protein>
6NUR|6NUR_protein|mol2

> <Gold.PLP.Fitness>
50.7815

> <Gold.PLP.PLP>
-41.6861

> <Gold.PLP.part.hbond>
-3.0000

> <Gold.PLP.part.metal>
0.0000

> <Gold.PLP.part.buried>
-7.0777

> <Gold.PLP.part.nonpolar>
-33.0073

> <Gold.PLP.part.repulsive>
0.2095

> <Gold.PLP.ligand.clash>
0.0000

> <Gold.PLP.ligand.torsion>
1.0786

> <Gold.PLP.Chemscore.Hbond>
3.7131

> <Gold.PLP.Chemscore.CHOScore>
0.0000

> <Gold.PLP.Chemscore.Metal>
0.0000

> <Gold.Chemscore.Hbonds>
donor molecule, donor type, donor heavy atom, donor atom, acceptor molecule, acceptor atom, score
      P1  H  7997  8008       L1     3  2.00
      P1  H 10752 10765       L1     1  1.63

> <Gold.PLP.Chemscore.Internal.Correction>
0.1133

> <Gold.Rescore>
     Score         DG    S(hbond)    S(metal)    S(lipo)     H(rot)  DE(clash)    DE(int)     intcor
     16.75     -19.91       1.74        0.00     109.64       1.64       0.24       2.93       ----

> <Gold.Chemscore.Fitness>
16.7462

> <Gold.Chemscore.DG>
-19.9103

> <Gold.Chemscore.ZeroCoef>
-5.4800

> <Gold.Chemscore.Hbond>
1.7372

> <Gold.Chemscore.Metal>
0.0000

> <Gold.Chemscore.Lipo>
109.6373

> <Gold.Chemscore.Internal_Hbond>
0.0000

> <Gold.Chemscore.DEClash>
0.2369

> <Gold.Chemscore.DEInternal>
2.9271

> <Gold.Chemscore.Rot>
1.6405

> <Gold.Chemscore.Internal.Correction>
   9.000000E+99

> <Gold.Chemscore.Hbonds>
donor molecule, donor type, donor heavy atom, donor atom, acceptor molecule, acceptor atom, score
      P1  H  7997  8008       L1     3  0.97
      P1  H 10752 10765       L1     1  0.81

> <Gold.Chemscore.Hbond.Weighted>
-5.8023

> <Gold.Chemscore.Metal.Weighted>
-0.0000

> <Gold.Chemscore.Lipo.Weighted>
-12.8276

> <Gold.Chemscore.Internal_Hbond.Weighted>
0.0000

> <Gold.Chemscore.DEClash.Weighted>
0.2369

> <Gold.Chemscore.DEInternal.Weighted>
2.9271

> <Gold.Chemscore.Rot.Weighted>
4.1996

> <Gold.Chemscore.Internal.Correction.Weighted>
   9.000000E+99

> <Gold.Protein.RotatedTorsions>
[ 6907 6896 6895 6894 ] final  164.93 input  -60.11 | X-H torsion
[ 7974 7965 7964 7962 ] final -141.43 input  175.53 | X-H torsion
[ 8008 7997 7996 7995 ] final  -21.18 input   59.86 | X-H torsion
[ 10167 10162 10161 10158 ] final   86.27 input  -65.29 | X-H torsion
[ 10718 10713 10712 10709 ] final  157.04 input   66.30 | X-H torsion
[ 10763 10752 10751 10750 ] final  148.05 input  -60.55 | X-H torsion
[ 11005 11000 10999 10996 ] final   33.17 input  -57.11 | X-H torsion

> <Gold.Protein.ActiveResidues>
 VAL166  LYS551  ARG553  GLY616  TRP617  ASP618  TYR619  PRO620  LYS621  CYS622 
 ASP623  PHE694  ASN695  SER759  ASP760  ASP761  ALA762  ILE779  LEU786  VAL792 
 PHE793  MET794  SER795  GLU796  ALA797  LYS798  CYS799  TRP800  GLU811  SER814 

> <Gold.Protein.RotatedAtoms>
  151.9022  133.3541  159.3834 H   0  0  0  0  0  0  0  0  0  0  0  0  # atno 6907 bound_to 6896
  150.7077  134.4816  159.5482 H   0  0  0  0  0  0  0  0  0  0  0  0  # atno 6908 bound_to 6896
  152.2407  134.8232  160.0511 H   0  0  0  0  0  0  0  0  0  0  0  0  # atno 6909 bound_to 6896
  144.8520  140.6081  143.5384 H   0  0  0  0  0  0  0  0  0  0  0  0  # atno 7974 bound_to 7965
  154.4722  140.2041  155.9967 H   0  0  0  0  0  0  0  0  0  0  0  0  # atno 8008 bound_to 7997
  156.1029  140.3241  155.7937 H   0  0  0  0  0  0  0  0  0  0  0  0  # atno 8009 bound_to 7997
  155.4766  140.0535  157.2963 H   0  0  0  0  0  0  0  0  0  0  0  0  # atno 8010 bound_to 7997
  139.8892  144.6395  150.8757 H   0  0  0  0  0  0  0  0  0  0  0  0  # atno 10167 bound_to 10162
  157.1968  131.0667  151.2048 H   0  0  0  0  0  0  0  0  0  0  0  0  # atno 10718 bound_to 10713
  154.0485  135.2883  155.3344 H   0  0  0  0  0  0  0  0  0  0  0  0  # atno 10763 bound_to 10752
  154.6884  135.5236  153.8362 H   0  0  0  0  0  0  0  0  0  0  0  0  # atno 10764 bound_to 10752
  153.0570  135.6599  154.0683 H   0  0  0  0  0  0  0  0  0  0  0  0  # atno 10765 bound_to 10752
  140.2659  134.3138  155.7843 H   0  0  0  0  0  0  0  0  0  0  0  0  # atno 11005 bound_to 11000
  145.4480  139.1527  143.3934 LP  0  0  0  0  0  0  0  0  0  0  0  0  # atno 17320 bound_to 7965
  146.2793  140.4605  142.8783 LP  0  0  0  0  0  0  0  0  0  0  0  0  # atno 17321 bound_to 7965
  140.7730  143.3523  151.1989 LP  0  0  0  0  0  0  0  0  0  0  0  0  # atno 17342 bound_to 10162
  139.7125  143.9354  152.2953 LP  0  0  0  0  0  0  0  0  0  0  0  0  # atno 17343 bound_to 10162
  157.3806  130.7229  149.6627 LP  0  0  0  0  0  0  0  0  0  0  0  0  # atno 17370 bound_to 10713
  155.9705  130.4173  150.4275 LP  0  0  0  0  0  0  0  0  0  0  0  0  # atno 17371 bound_to 10713
  141.2184  133.7437  156.9259 LP  0  0  0  0  0  0  0  0  0  0  0  0  # atno 17394 bound_to 11000
  140.1419  134.9287  157.2479 LP  0  0  0  0  0  0  0  0  0  0  0  0  # atno 17395 bound_to 11000

$$$$
