AV-unprocessed.smi:2334|AV-procd|sdf|9322|dock1
  -GOLD-   2272012543D 1   1.00000     0.00000
 Structure written by MMmdl.
 50 52  0  0  0  0  0  0  0  0  2 V2000
  149.1672  140.8178  154.4121 C   0  0  0  0  0  0  0  0  0  0  0  0
  150.0052  140.8705  155.6790 C   0  0  0  0  0  0  0  0  0  0  0  0
  150.1807  142.0938  156.2270 N   0  3  0  0  0  0  0  0  0  0  0  0
  150.8948  142.3189  157.3500 C   0  0  0  0  0  0  0  0  0  0  0  0
  150.9879  143.6465  157.7908 N   0  0  0  0  0  0  0  0  0  0  0  0
  152.3420  144.0922  158.0726 C   0  0  0  0  0  0  0  0  0  0  0  0
  152.1929  145.3617  158.9162 C   0  0  0  0  0  0  0  0  0  0  0  0
  150.7721  145.2922  159.4886 C   0  0  0  0  0  0  0  0  0  0  0  0
  150.2072  143.9660  158.9745 C   0  0  0  0  0  0  0  0  0  0  0  0
  151.5009  141.2254  158.0076 C   0  0  0  0  0  0  0  0  0  0  0  0
  151.3475  139.9289  157.4781 C   0  0  0  0  0  0  0  0  0  0  0  0
  150.6003  139.7363  156.2884 C   0  0  0  0  0  0  0  0  0  0  0  0
  150.3895  138.4491  155.7190 N   0  0  0  0  0  0  0  0  0  0  0  0
  150.3921  137.2544  156.3352 C   0  0  0  0  0  0  0  0  0  0  0  0
  150.6177  137.0830  157.5327 O   0  0  0  0  0  0  0  0  0  0  0  0
  150.1334  136.2646  155.4630 N   0  0  0  0  0  0  0  0  0  0  0  0
  150.0403  134.8149  155.6945 C   0  0  0  0  0  0  0  0  0  0  0  0
  149.7824  134.1894  154.3064 C   0  0  0  0  0  0  0  0  0  0  0  0
  151.3602  134.2659  156.2947 C   0  0  0  0  0  0  0  0  0  0  0  0
  151.2231  132.8084  156.7714 C   0  0  0  0  0  0  0  0  0  0  0  0
  150.1453  132.6943  157.6921 O   0  0  0  0  0  0  0  0  0  0  0  0
  148.8869  133.0133  157.1112 C   0  0  0  0  0  0  0  0  0  0  0  0
  148.8711  134.4842  156.6576 C   0  0  0  0  0  0  0  0  0  0  0  0
  149.0597  139.8112  154.0104 H   0  0  0  0  0  0  0  0  0  0  0  0
  149.6235  141.4363  153.6386 H   0  0  0  0  0  0  0  0  0  0  0  0
  148.1676  141.2064  154.6087 H   0  0  0  0  0  0  0  0  0  0  0  0
  152.8861  143.3302  158.6326 H   0  0  0  0  0  0  0  0  0  0  0  0
  152.8901  144.2869  157.1503 H   0  0  0  0  0  0  0  0  0  0  0  0
  152.9518  145.4122  159.6976 H   0  0  0  0  0  0  0  0  0  0  0  0
  152.2997  146.2497  158.2920 H   0  0  0  0  0  0  0  0  0  0  0  0
  150.7587  145.3415  160.5779 H   0  0  0  0  0  0  0  0  0  0  0  0
  150.1800  146.1267  159.1110 H   0  0  0  0  0  0  0  0  0  0  0  0
  149.1464  144.0486  158.7354 H   0  0  0  0  0  0  0  0  0  0  0  0
  150.3215  143.1927  159.7347 H   0  0  0  0  0  0  0  0  0  0  0  0
  152.0770  141.3692  158.9098 H   0  0  0  0  0  0  0  0  0  0  0  0
  151.7972  139.1020  158.0058 H   0  0  0  0  0  0  0  0  0  0  0  0
  150.2903  138.4302  154.7146 H   0  0  0  0  0  0  0  0  0  0  0  0
  149.9739  136.5480  154.5073 H   0  0  0  0  0  0  0  0  0  0  0  0
  149.6951  133.1045  154.3456 H   0  0  0  0  0  0  0  0  0  0  0  0
  150.5911  134.4205  153.6119 H   0  0  0  0  0  0  0  0  0  0  0  0
  148.8590  134.5691  153.8672 H   0  0  0  0  0  0  0  0  0  0  0  0
  152.1727  134.3478  155.5717 H   0  0  0  0  0  0  0  0  0  0  0  0
  151.6664  134.8576  157.1567 H   0  0  0  0  0  0  0  0  0  0  0  0
  151.0774  132.1253  155.9340 H   0  0  0  0  0  0  0  0  0  0  0  0
  152.1402  132.4952  157.2705 H   0  0  0  0  0  0  0  0  0  0  0  0
  148.6713  132.3365  156.2838 H   0  0  0  0  0  0  0  0  0  0  0  0
  148.1091  132.8486  157.8571 H   0  0  0  0  0  0  0  0  0  0  0  0
  148.9275  135.0966  157.5567 H   0  0  0  0  0  0  0  0  0  0  0  0
  147.9136  134.7221  156.1930 H   0  0  0  0  0  0  0  0  0  0  0  0
  149.7471  142.8936  155.7651 H   0  0  0  0  0  0  0  0  0  0  0  0
  1  2  1  0  0  0  0
  1 24  1  0  0  0  0
  1 25  1  0  0  0  0
  1 26  1  0  0  0  0
  2 12  1  0  0  0  0
  2  3  2  0  0  0  0
  3  4  1  0  0  0  0
  3 50  1  0  0  0  0
  4  5  1  0  0  0  0
  4 10  2  0  0  0  0
  5  9  1  0  0  0  0
  5  6  1  0  0  0  0
  6  7  1  0  0  0  0
  6 27  1  0  0  0  0
  6 28  1  0  0  0  0
  7  8  1  0  0  0  0
  7 29  1  0  0  0  0
  7 30  1  0  0  0  0
  8  9  1  0  0  0  0
  8 31  1  0  0  0  0
  8 32  1  0  0  0  0
  9 33  1  0  0  0  0
  9 34  1  0  0  0  0
 10 11  1  0  0  0  0
 10 35  1  0  0  0  0
 11 12  2  0  0  0  0
 11 36  1  0  0  0  0
 12 13  1  0  0  0  0
 13 14  1  0  0  0  0
 13 37  1  0  0  0  0
 14 15  2  0  0  0  0
 14 16  1  0  0  0  0
 16 17  1  0  0  0  0
 16 38  1  0  0  0  0
 17 23  1  0  0  0  0
 17 18  1  0  0  0  0
 17 19  1  0  0  0  0
 18 39  1  0  0  0  0
 18 40  1  0  0  0  0
 18 41  1  0  0  0  0
 19 20  1  0  0  0  0
 19 42  1  0  0  0  0
 19 43  1  0  0  0  0
 20 21  1  0  0  0  0
 20 44  1  0  0  0  0
 20 45  1  0  0  0  0
 21 22  1  0  0  0  0
 22 23  1  0  0  0  0
 22 46  1  0  0  0  0
 22 47  1  0  0  0  0
 23 48  1  0  0  0  0
 23 49  1  0  0  0  0
M  CHG  1   3   1
M  END
> <s_m_source_file>
AV-unprocessed.smi

> <i_m_source_file_index>
2334

> <i_lp_mmshare_version>
43012

> <i_f3d_flags>
0

> <s_epik_input>
W0NIMl0xW0NIMl1bQ0gyXVtDSDJdTjFjKG5jMltDSDNdKVtjSF1bY0hdYzJbTkhdQyg9TylbTkhdQzMoW0NIM10pW0NIMl1bQ0gyXU9bQ0gyXVtDSDJdMw==

> <s_epik_cmdline>
J2VwaWtfcHl0aG9uJywgJy1waCcsICc3LjAnLCAnLXRuJywgJzgnLCAnLW1hJywgJzIwMCcsICctbWV0YWxfYmluZGluZycsICctaW1hZScsICc8aW5maWxlLm1hZT4nLCAnLW9tYWUnLCAnPG91dGZpbGUubWFlPic=

> <r_lp_tautomer_probability>
0.999994

> <r_epik_Ionization_Penalty>
0.526488

> <r_epik_Ionization_Penalty_Charging>
0.526468

> <r_epik_Ionization_Penalty_Neutral>
1.9901e-05

> <r_epik_State_Penalty>
0.534906

> <r_epik_Charging_Adjusted_Penalty>
1.06137

> <i_epik_Tot_Q>
1

> <i_epik_Tot_abs_Q>
1

> <r_epik_Metal_State_Penalty>
0.740533

> <b_epik_Metal_Only>
0

> <s_lp_Force_Field>
OPLS_2005

> <r_lp_Energy>
48.5671

> <b_lp_Chiralities_Consistent>
1

> <s_lp_Variant>
AV-unprocessed.smi:2334-2

> <Gold.Version>
5.8.1

> <Gold.Id.Protein>
6NUR|6NUR_protein|mol2

> <Gold.PLP.Fitness>
45.8330

> <Gold.PLP.PLP>
-37.6196

> <Gold.PLP.part.hbond>
-2.0000

> <Gold.PLP.part.metal>
0.0000

> <Gold.PLP.part.buried>
-6.4097

> <Gold.PLP.part.nonpolar>
-30.0143

> <Gold.PLP.part.repulsive>
0.3230

> <Gold.PLP.ligand.clash>
0.0000

> <Gold.PLP.ligand.torsion>
0.4004

> <Gold.PLP.Chemscore.Hbond>
3.0000

> <Gold.PLP.Chemscore.CHOScore>
0.0000

> <Gold.PLP.Chemscore.Metal>
0.0000

> <Gold.Chemscore.Hbonds>
donor molecule, donor type, donor heavy atom, donor atom, acceptor molecule, acceptor atom, score
      L1  H     3    50       P1  8028  2.00
      P1  H  6896  6908       L1    21  1.00

> <Gold.PLP.Chemscore.Internal.Correction>
0.0142

> <Gold.Rescore>
     Score         DG    S(hbond)    S(metal)    S(lipo)     H(rot)  DE(clash)    DE(int)     intcor
     18.46     -20.11       1.77        0.00     100.19       1.18       0.17       1.47       ----

> <Gold.Chemscore.Fitness>
18.4649

> <Gold.Chemscore.DG>
-20.1076

> <Gold.Chemscore.ZeroCoef>
-5.4800

> <Gold.Chemscore.Hbond>
1.7734

> <Gold.Chemscore.Metal>
0.0000

> <Gold.Chemscore.Lipo>
100.1897

> <Gold.Chemscore.Internal_Hbond>
0.0000

> <Gold.Chemscore.DEClash>
0.1687

> <Gold.Chemscore.DEInternal>
1.4740

> <Gold.Chemscore.Rot>
1.1788

> <Gold.Chemscore.Internal.Correction>
   9.000000E+99

> <Gold.Chemscore.Hbonds>
donor molecule, donor type, donor heavy atom, donor atom, acceptor molecule, acceptor atom, score
      L1  H     3    50       P1  8028  0.93
      P1  H  6896  6908       L1    21  0.31

> <Gold.Chemscore.Hbond.Weighted>
-5.9232

> <Gold.Chemscore.Metal.Weighted>
-0.0000

> <Gold.Chemscore.Lipo.Weighted>
-11.7222

> <Gold.Chemscore.Internal_Hbond.Weighted>
0.0000

> <Gold.Chemscore.DEClash.Weighted>
0.1687

> <Gold.Chemscore.DEInternal.Weighted>
1.4740

> <Gold.Chemscore.Rot.Weighted>
3.0178

> <Gold.Chemscore.Internal.Correction.Weighted>
   9.000000E+99

> <Gold.Protein.RotatedTorsions>
[ 6907 6896 6895 6894 ] final  121.22 input  -60.11 | X-H torsion
[ 7974 7965 7964 7962 ] final -132.98 input  175.53 | X-H torsion
[ 8008 7997 7996 7995 ] final  172.33 input   59.86 | X-H torsion
[ 10167 10162 10161 10158 ] final -179.39 input  -65.29 | X-H torsion
[ 10718 10713 10712 10709 ] final -152.04 input   66.30 | X-H torsion
[ 10763 10752 10751 10750 ] final  -78.77 input  -60.55 | X-H torsion
[ 11005 11000 10999 10996 ] final  116.64 input  -57.11 | X-H torsion

> <Gold.Protein.ActiveResidues>
 VAL166  LYS551  ARG553  GLY616  TRP617  ASP618  TYR619  PRO620  LYS621  CYS622 
 ASP623  PHE694  ASN695  SER759  ASP760  ASP761  ALA762  ILE779  LEU786  VAL792 
 PHE793  MET794  SER795  GLU796  ALA797  LYS798  CYS799  TRP800  GLU811  SER814 

> <Gold.Protein.RotatedAtoms>
  152.4339  133.7325  159.6595 H   0  0  0  0  0  0  0  0  0  0  0  0  # atno 6907 bound_to 6896
  150.8220  133.8225  159.3141 H   0  0  0  0  0  0  0  0  0  0  0  0  # atno 6908 bound_to 6896
  151.5905  135.1056  160.0089 H   0  0  0  0  0  0  0  0  0  0  0  0  # atno 6909 bound_to 6896
  144.9235  140.7043  143.4950 H   0  0  0  0  0  0  0  0  0  0  0  0  # atno 7974 bound_to 7965
  156.1184  140.1488  156.9239 H   0  0  0  0  0  0  0  0  0  0  0  0  # atno 8008 bound_to 7997
  154.4818  140.0877  156.7436 H   0  0  0  0  0  0  0  0  0  0  0  0  # atno 8009 bound_to 7997
  155.4472  140.3433  155.4299 H   0  0  0  0  0  0  0  0  0  0  0  0  # atno 8010 bound_to 7997
  139.5388  144.2421  152.0852 H   0  0  0  0  0  0  0  0  0  0  0  0  # atno 10167 bound_to 10162
  156.4672  130.8241  151.2471 H   0  0  0  0  0  0  0  0  0  0  0  0  # atno 10718 bound_to 10713
  154.5302  135.5718  153.6752 H   0  0  0  0  0  0  0  0  0  0  0  0  # atno 10763 bound_to 10752
  152.9937  135.6203  154.2639 H   0  0  0  0  0  0  0  0  0  0  0  0  # atno 10764 bound_to 10752
  154.2565  135.2857  155.2775 H   0  0  0  0  0  0  0  0  0  0  0  0  # atno 10765 bound_to 10752
  139.9048  134.9600  156.7228 H   0  0  0  0  0  0  0  0  0  0  0  0  # atno 11005 bound_to 11000
  145.3257  139.1775  143.4564 LP  0  0  0  0  0  0  0  0  0  0  0  0  # atno 17320 bound_to 7965
  146.3215  140.3280  142.8638 LP  0  0  0  0  0  0  0  0  0  0  0  0  # atno 17321 bound_to 7965
  140.1896  144.4765  150.6486 LP  0  0  0  0  0  0  0  0  0  0  0  0  # atno 17342 bound_to 10162
  140.6608  143.2251  151.5859 LP  0  0  0  0  0  0  0  0  0  0  0  0  # atno 17343 bound_to 10162
  157.7494  131.0088  150.3242 LP  0  0  0  0  0  0  0  0  0  0  0  0  # atno 17370 bound_to 10713
  156.3655  130.3854  149.7217 LP  0  0  0  0  0  0  0  0  0  0  0  0  # atno 17371 bound_to 10713
  140.6987  133.9326  155.8010 LP  0  0  0  0  0  0  0  0  0  0  0  0  # atno 17394 bound_to 11000
  141.0388  134.0651  157.3927 LP  0  0  0  0  0  0  0  0  0  0  0  0  # atno 17395 bound_to 11000

$$$$
