AV-unprocessed.smi:1433|AV-procd|sdf|5845|dock10
  -GOLD-   22720 5513D 1   1.00000     0.00000
 Structure written by MMmdl.
 45 46  0  0  0  0  0  0  0  0  2 V2000
  145.7172  132.9475  150.3406 C   0  0  0  0  0  0  0  0  0  0  0  0
  146.2986  133.9181  151.3747 C   0  0  2  0  0  0  0  0  0  0  0  0
  147.3735  133.2525  152.2560 C   0  0  0  0  0  0  0  0  0  0  0  0
  147.8646  134.1911  153.3021 N   0  3  2  0  0  0  0  0  0  0  0  0
  148.9559  133.6733  154.1917 C   0  0  2  0  0  0  0  0  0  0  0  0
  148.4675  132.4099  154.9371 C   0  0  0  0  0  0  0  0  0  0  0  0
  149.5037  134.7283  155.1926 C   0  0  0  0  0  0  0  0  0  0  0  0
  149.6479  136.0500  154.5887 N   0  0  0  0  0  0  0  0  0  0  0  0
  150.3689  137.0646  155.0932 C   0  0  0  0  0  0  0  0  0  0  0  0
  150.9599  137.0073  156.1710 O   0  0  0  0  0  0  0  0  0  0  0  0
  150.4489  138.3351  154.2444 C   0  0  0  0  0  0  0  0  0  0  0  0
  149.8567  139.4699  154.9325 N   0  0  0  0  0  0  0  0  0  0  0  0
  148.8743  140.3278  154.4833 C   0  0  0  0  0  0  0  0  0  0  0  0
  148.6504  141.2433  155.4714 C   0  0  0  0  0  0  0  0  0  0  0  0
  149.5535  140.8574  156.5008 C   0  0  0  0  0  0  0  0  0  0  0  0
  150.2740  139.7966  156.1756 N   0  0  0  0  0  0  0  0  0  0  0  0
  146.7064  134.7216  154.0712 C   0  0  0  0  0  0  0  0  0  0  0  0
  145.6621  135.3557  153.1345 C   0  0  2  0  0  0  0  0  0  0  0  0
  144.4293  135.8551  153.8961 C   0  0  0  0  0  0  0  0  0  0  0  0
  145.2340  134.3778  152.1963 O   0  0  0  0  0  0  0  0  0  0  0  0
  146.4937  132.5728  149.6731 H   0  0  0  0  0  0  0  0  0  0  0  0
  144.9611  133.4382  149.7270 H   0  0  0  0  0  0  0  0  0  0  0  0
  145.2482  132.0899  150.8234 H   0  0  0  0  0  0  0  0  0  0  0  0
  146.7338  134.7668  150.8439 H   0  0  0  0  0  0  0  0  0  0  0  0
  146.9735  132.3545  152.7300 H   0  0  0  0  0  0  0  0  0  0  0  0
  148.1874  132.9446  151.6004 H   0  0  0  0  0  0  0  0  0  0  0  0
  149.7923  133.3868  153.5519 H   0  0  0  0  0  0  0  0  0  0  0  0
  149.2679  131.9446  155.5122 H   0  0  0  0  0  0  0  0  0  0  0  0
  148.0992  131.6384  154.2637 H   0  0  0  0  0  0  0  0  0  0  0  0
  147.6617  132.6520  155.6307 H   0  0  0  0  0  0  0  0  0  0  0  0
  148.8125  134.8624  156.0245 H   0  0  0  0  0  0  0  0  0  0  0  0
  150.4482  134.3901  155.6226 H   0  0  0  0  0  0  0  0  0  0  0  0
  149.1938  136.1948  153.6984 H   0  0  0  0  0  0  0  0  0  0  0  0
  151.4913  138.5607  154.0158 H   0  0  0  0  0  0  0  0  0  0  0  0
  149.9348  138.1878  153.2934 H   0  0  0  0  0  0  0  0  0  0  0  0
  148.4227  140.2174  153.5084 H   0  0  0  0  0  0  0  0  0  0  0  0
  147.9474  142.0627  155.4618 H   0  0  0  0  0  0  0  0  0  0  0  0
  149.7060  141.3136  157.4679 H   0  0  0  0  0  0  0  0  0  0  0  0
  146.2495  133.9110  154.6416 H   0  0  0  0  0  0  0  0  0  0  0  0
  147.0275  135.4700  154.7935 H   0  0  0  0  0  0  0  0  0  0  0  0
  146.1059  136.1993  152.6028 H   0  0  0  0  0  0  0  0  0  0  0  0
  144.7008  136.6184  154.6259 H   0  0  0  0  0  0  0  0  0  0  0  0
  143.9373  135.0414  154.4299 H   0  0  0  0  0  0  0  0  0  0  0  0
  143.7006  136.2932  153.2136 H   0  0  0  0  0  0  0  0  0  0  0  0
  148.2641  134.9708  152.7992 H   0  0  0  0  0  0  0  0  0  0  0  0
  1  2  1  0  0  0  0
  1 21  1  0  0  0  0
  1 22  1  0  0  0  0
  1 23  1  0  0  0  0
  2 20  1  0  0  0  0
  2  3  1  0  0  0  0
  2 24  1  0  0  0  0
  3  4  1  0  0  0  0
  3 25  1  0  0  0  0
  3 26  1  0  0  0  0
  4  5  1  0  0  0  0
  4 17  1  0  0  0  0
  4 45  1  0  0  0  0
  5  6  1  0  0  0  0
  5  7  1  0  0  0  0
  5 27  1  0  0  0  0
  6 28  1  0  0  0  0
  6 29  1  0  0  0  0
  6 30  1  0  0  0  0
  7  8  1  0  0  0  0
  7 31  1  0  0  0  0
  7 32  1  0  0  0  0
  8  9  1  0  0  0  0
  8 33  1  0  0  0  0
  9 10  2  0  0  0  0
  9 11  1  0  0  0  0
 11 12  1  0  0  0  0
 11 34  1  0  0  0  0
 11 35  1  0  0  0  0
 12 16  1  0  0  0  0
 12 13  1  0  0  0  0
 13 14  2  0  0  0  0
 13 36  1  0  0  0  0
 14 15  1  0  0  0  0
 14 37  1  0  0  0  0
 15 16  2  0  0  0  0
 15 38  1  0  0  0  0
 17 18  1  0  0  0  0
 17 39  1  0  0  0  0
 17 40  1  0  0  0  0
 18 19  1  0  0  0  0
 18 20  1  0  0  0  0
 18 41  1  0  0  0  0
 19 42  1  0  0  0  0
 19 43  1  0  0  0  0
 19 44  1  0  0  0  0
M  CHG  1   4   1
M  END
> <s_m_source_file>
AV-unprocessed.smi

> <i_m_source_file_index>
1433

> <i_lp_mmshare_version>
43012

> <i_f3d_flags>
0

> <s_epik_input>
W0NIM11bQ0BASF0xW0NIMl1OKFtDSDJdW0NASF0oTzEpW0NIM10pW0NASF0oW0NIM10pW0NIMl1bTkhdQyg9TylbQ0gyXW4yW2NIXVtjSF1bY0hdbjI=

> <s_epik_cmdline>
J2VwaWtfcHl0aG9uJywgJy1waCcsICc3LjAnLCAnLXRuJywgJzgnLCAnLW1hJywgJzIwMCcsICctbWV0YWxfYmluZGluZycsICctaW1hZScsICc8aW5maWxlLm1hZT4nLCAnLW9tYWUnLCAnPG91dGZpbGUubWFlPic=

> <r_lp_tautomer_probability>
1

> <r_epik_Ionization_Penalty>
0.748405

> <r_epik_Ionization_Penalty_Charging>
0.748396

> <r_epik_Ionization_Penalty_Neutral>
8.54426e-06

> <r_epik_State_Penalty>
0.775162

> <r_epik_Charging_Adjusted_Penalty>
1.52356

> <i_epik_Tot_Q>
1

> <i_epik_Tot_abs_Q>
1

> <r_epik_Metal_State_Penalty>
0.775167

> <b_epik_Metal_Only>
0

> <s_lp_Force_Field>
OPLS_2005

> <r_lp_Energy>
19.9081

> <b_lp_Chiralities_Consistent>
1

> <s_lp_Variant>
AV-unprocessed.smi:1433-11

> <Gold.Version>
5.8.1

> <Gold.Id.Protein>
6NUR|6NUR_protein|mol2

> <Gold.PLP.Fitness>
47.4009

> <Gold.PLP.PLP>
-32.9690

> <Gold.PLP.part.hbond>
-4.0000

> <Gold.PLP.part.metal>
0.0000

> <Gold.PLP.part.buried>
-1.9557

> <Gold.PLP.part.nonpolar>
-27.1629

> <Gold.PLP.part.repulsive>
0.1917

> <Gold.PLP.ligand.clash>
0.0000

> <Gold.PLP.ligand.torsion>
0.3156

> <Gold.PLP.Chemscore.Hbond>
4.0000

> <Gold.PLP.Chemscore.CHOScore>
1.0000

> <Gold.PLP.Chemscore.Metal>
0.0000

> <Gold.Chemscore.Hbonds>
donor molecule, donor type, donor heavy atom, donor atom, acceptor molecule, acceptor atom, score
      L1  H     4    45       P1  7948  2.00
      L1  H     8    33       P1  7948  1.00
      L1  C    13    36       P1  7957  0.72

> <Gold.PLP.Chemscore.Internal.Correction>
0.0630

> <Gold.Rescore>
     Score         DG    S(hbond)    S(metal)    S(lipo)     H(rot)  DE(clash)    DE(int)     intcor
     15.55     -16.24       2.59        0.00      58.91       1.87       0.02       0.67       ----

> <Gold.Chemscore.Fitness>
15.5519

> <Gold.Chemscore.DG>
-16.2427

> <Gold.Chemscore.ZeroCoef>
-5.4800

> <Gold.Chemscore.Hbond>
2.5889

> <Gold.Chemscore.Metal>
0.0000

> <Gold.Chemscore.Lipo>
58.9056

> <Gold.Chemscore.Internal_Hbond>
0.0000

> <Gold.Chemscore.DEClash>
0.0241

> <Gold.Chemscore.DEInternal>
0.6667

> <Gold.Chemscore.Rot>
1.8657

> <Gold.Chemscore.Internal.Correction>
   9.000000E+99

> <Gold.Chemscore.Hbonds>
donor molecule, donor type, donor heavy atom, donor atom, acceptor molecule, acceptor atom, score
      L1  H     4    45       P1  7948  0.78
      L1  H     8    33       P1  7948  0.92

> <Gold.Chemscore.Hbond.Weighted>
-8.6469

> <Gold.Chemscore.Metal.Weighted>
-0.0000

> <Gold.Chemscore.Lipo.Weighted>
-6.8920

> <Gold.Chemscore.Internal_Hbond.Weighted>
0.0000

> <Gold.Chemscore.DEClash.Weighted>
0.0241

> <Gold.Chemscore.DEInternal.Weighted>
0.6667

> <Gold.Chemscore.Rot.Weighted>
4.7761

> <Gold.Chemscore.Internal.Correction.Weighted>
   9.000000E+99

> <Gold.Protein.RotatedTorsions>
[ 6907 6896 6895 6894 ] final  -38.81 input  -60.11 | X-H torsion
[ 7974 7965 7964 7962 ] final  138.27 input  175.53 | X-H torsion
[ 8008 7997 7996 7995 ] final -101.56 input   59.86 | X-H torsion
[ 10167 10162 10161 10158 ] final  115.78 input  -65.29 | X-H torsion
[ 10718 10713 10712 10709 ] final  122.16 input   66.30 | X-H torsion
[ 10763 10752 10751 10750 ] final   87.27 input  -60.55 | X-H torsion
[ 11005 11000 10999 10996 ] final -171.63 input  -57.11 | X-H torsion

> <Gold.Protein.ActiveResidues>
 VAL166  LYS551  ARG553  GLY616  TRP617  ASP618  TYR619  PRO620  LYS621  CYS622 
 ASP623  PHE694  ASN695  SER759  ASP760  ASP761  ALA762  ILE779  LEU786  VAL792 
 PHE793  MET794  SER795  GLU796  ALA797  LYS798  CYS799  TRP800  GLU811  SER814 

> <Gold.Protein.RotatedAtoms>
  150.9979  134.9298  159.7936 H   0  0  0  0  0  0  0  0  0  0  0  0  # atno 6907 bound_to 6896
  152.5270  134.3193  159.9152 H   0  0  0  0  0  0  0  0  0  0  0  0  # atno 6908 bound_to 6896
  151.3199  133.4003  159.2688 H   0  0  0  0  0  0  0  0  0  0  0  0  # atno 6909 bound_to 6896
  144.9388  139.4956  143.5582 H   0  0  0  0  0  0  0  0  0  0  0  0  # atno 7974 bound_to 7965
  154.8443  140.0433  157.1562 H   0  0  0  0  0  0  0  0  0  0  0  0  # atno 8008 bound_to 7997
  154.9012  140.3000  155.5296 H   0  0  0  0  0  0  0  0  0  0  0  0  # atno 8009 bound_to 7997
  156.2993  140.2375  156.4040 H   0  0  0  0  0  0  0  0  0  0  0  0  # atno 8010 bound_to 7997
  139.6293  144.7112  151.2467 H   0  0  0  0  0  0  0  0  0  0  0  0  # atno 10167 bound_to 10162
  157.5763  131.1079  150.8272 H   0  0  0  0  0  0  0  0  0  0  0  0  # atno 10718 bound_to 10713
  153.1651  135.4550  154.9826 H   0  0  0  0  0  0  0  0  0  0  0  0  # atno 10763 bound_to 10752
  154.7926  135.3226  154.7744 H   0  0  0  0  0  0  0  0  0  0  0  0  # atno 10764 bound_to 10752
  153.8228  135.6945  153.4879 H   0  0  0  0  0  0  0  0  0  0  0  0  # atno 10765 bound_to 10752
  140.5061  134.5847  157.5004 H   0  0  0  0  0  0  0  0  0  0  0  0  # atno 11005 bound_to 11000
  146.3277  139.8392  142.8893 LP  0  0  0  0  0  0  0  0  0  0  0  0  # atno 17320 bound_to 7965
  145.3024  141.0198  143.3601 LP  0  0  0  0  0  0  0  0  0  0  0  0  # atno 17321 bound_to 7965
  140.7429  143.6510  150.8248 LP  0  0  0  0  0  0  0  0  0  0  0  0  # atno 17342 bound_to 10162
  140.0133  143.5620  152.2830 LP  0  0  0  0  0  0  0  0  0  0  0  0  # atno 17343 bound_to 10162
  156.8730  130.5153  149.5295 LP  0  0  0  0  0  0  0  0  0  0  0  0  # atno 17370 bound_to 10713
  156.0808  130.5819  150.9559 LP  0  0  0  0  0  0  0  0  0  0  0  0  # atno 17371 bound_to 10713
  139.9685  134.7332  156.0088 LP  0  0  0  0  0  0  0  0  0  0  0  0  # atno 17394 bound_to 11000
  141.1410  133.6565  156.3730 LP  0  0  0  0  0  0  0  0  0  0  0  0  # atno 17395 bound_to 11000

$$$$
