AV-unprocessed.smi:174|AV-procd|sdf|1427|dock8
  -GOLD-   2262019203D 1   1.00000     0.00000
 Structure written by MMmdl.
 51 54  0  0  0  0  0  0  0  0  1 V2000
  147.2356  135.3195  162.9811 N   0  0  0  0  0  0  0  0  0  0  0  0
  147.1640  136.0314  161.8543 C   0  0  0  0  0  0  0  0  0  0  0  0
  147.1640  137.2615  161.8580 O   0  0  0  0  0  0  0  0  0  0  0  0
  147.0574  135.2367  160.5449 C   0  0  0  0  0  0  0  0  0  0  0  0
  147.0107  136.0900  159.3485 N   0  0  0  0  0  0  0  0  0  0  0  0
  145.6684  136.3297  158.7943 C   0  0  0  0  0  0  0  0  0  0  0  0
  145.6071  137.5058  157.8054 C   0  0  0  0  0  0  0  0  0  0  0  0
  146.7363  137.4441  156.8868 N   0  0  0  0  0  0  0  0  0  0  0  0
  146.5625  136.6067  155.8297 C   0  0  0  0  0  0  0  0  0  0  0  0
  147.3701  135.5227  155.6759 N   0  0  0  0  0  0  0  0  0  0  0  0
  147.1932  134.6872  154.6486 C   0  0  0  0  0  0  0  0  0  0  0  0
  146.2845  134.7447  153.6735 N   0  0  0  0  0  0  0  0  0  0  0  0
  145.4722  135.8300  153.8204 C   0  0  0  0  0  0  0  0  0  0  0  0
  145.5410  136.8019  154.8583 C   0  0  0  0  0  0  0  0  0  0  0  0
  144.5577  137.7663  154.6684 N   0  0  0  0  0  0  0  0  0  0  0  0
  143.9435  137.3865  153.5813 C   0  0  0  0  0  0  0  0  0  0  0  0
  144.4311  136.2363  153.0046 N   0  0  0  0  0  0  0  0  0  0  0  0
  143.9496  135.6053  151.7896 C   0  0  0  0  0  0  0  0  0  0  0  0
  145.0722  135.3391  150.7648 C   0  0  2  0  0  0  0  0  0  0  0  0
  144.7307  136.0314  149.5806 O   0  0  0  0  0  0  0  0  0  0  0  0
  145.2921  133.8462  150.4315 C   0  0  1  0  0  0  0  0  0  0  0  0
  146.0107  133.0481  151.5234 C   0  0  0  0  0  0  0  0  0  0  0  0
  145.5378  131.6178  151.3069 C   0  0  0  0  0  0  0  0  0  0  0  0
  144.3583  131.7593  150.3431 C   0  0  0  0  0  0  0  0  0  0  0  0
  144.0593  133.1460  150.3493 O   0  0  0  0  0  0  0  0  0  0  0  0
  148.0484  137.4819  157.5441 C   0  0  0  0  0  0  0  0  0  0  0  0
  148.1463  136.5970  158.8019 C   0  0  0  0  0  0  0  0  0  0  0  0
  149.2640  136.3811  159.2713 O   0  0  0  0  0  0  0  0  0  0  0  0
  147.3112  135.7947  163.8686 H   0  0  0  0  0  0  0  0  0  0  0  0
  147.2183  134.3107  162.9442 H   0  0  0  0  0  0  0  0  0  0  0  0
  147.8897  134.5337  160.4736 H   0  0  0  0  0  0  0  0  0  0  0  0
  146.1583  134.6208  160.5939 H   0  0  0  0  0  0  0  0  0  0  0  0
  145.3530  135.4164  158.2883 H   0  0  0  0  0  0  0  0  0  0  0  0
  144.9550  136.4986  159.6023 H   0  0  0  0  0  0  0  0  0  0  0  0
  144.6464  137.5179  157.2910 H   0  0  0  0  0  0  0  0  0  0  0  0
  145.6667  138.4480  158.3520 H   0  0  0  0  0  0  0  0  0  0  0  0
  147.8781  133.8535  154.6020 H   0  0  0  0  0  0  0  0  0  0  0  0
  143.1179  137.9427  153.1618 H   0  0  0  0  0  0  0  0  0  0  0  0
  143.4501  134.6729  152.0563 H   0  0  0  0  0  0  0  0  0  0  0  0
  143.1861  136.2515  151.3541 H   0  0  0  0  0  0  0  0  0  0  0  0
  146.0059  135.7650  151.1344 H   0  0  0  0  0  0  0  0  0  0  0  0
  144.5664  136.9361  149.7995 H   0  0  0  0  0  0  0  0  0  0  0  0
  145.8259  133.7423  149.4846 H   0  0  0  0  0  0  0  0  0  0  0  0
  147.0953  133.1469  151.4687 H   0  0  0  0  0  0  0  0  0  0  0  0
  145.6933  133.3893  152.5099 H   0  0  0  0  0  0  0  0  0  0  0  0
  146.3196  130.9928  150.8741 H   0  0  0  0  0  0  0  0  0  0  0  0
  145.2304  131.1675  152.2515 H   0  0  0  0  0  0  0  0  0  0  0  0
  144.6459  131.4597  149.3342 H   0  0  0  0  0  0  0  0  0  0  0  0
  143.4942  131.1661  150.6428 H   0  0  0  0  0  0  0  0  0  0  0  0
  148.8556  137.2347  156.8528 H   0  0  0  0  0  0  0  0  0  0  0  0
  148.2332  138.5115  157.8515 H   0  0  0  0  0  0  0  0  0  0  0  0
  1  2  1  0  0  0  0
  1 29  1  0  0  0  0
  1 30  1  0  0  0  0
  2  3  2  0  0  0  0
  2  4  1  0  0  0  0
  4  5  1  0  0  0  0
  4 31  1  0  0  0  0
  4 32  1  0  0  0  0
  5 27  1  0  0  0  0
  5  6  1  0  0  0  0
  6  7  1  0  0  0  0
  6 33  1  0  0  0  0
  6 34  1  0  0  0  0
  7  8  1  0  0  0  0
  7 35  1  0  0  0  0
  7 36  1  0  0  0  0
  8  9  1  0  0  0  0
  8 26  1  0  0  0  0
  9 14  1  0  0  0  0
  9 10  2  0  0  0  0
 10 11  1  0  0  0  0
 11 12  2  0  0  0  0
 11 37  1  0  0  0  0
 12 13  1  0  0  0  0
 13 17  1  0  0  0  0
 13 14  2  0  0  0  0
 14 15  1  0  0  0  0
 15 16  2  0  0  0  0
 16 17  1  0  0  0  0
 16 38  1  0  0  0  0
 17 18  1  0  0  0  0
 18 19  1  0  0  0  0
 18 39  1  0  0  0  0
 18 40  1  0  0  0  0
 19 20  1  0  0  0  0
 19 21  1  0  0  0  0
 19 41  1  0  0  0  0
 20 42  1  0  0  0  0
 21 25  1  0  0  0  0
 21 22  1  0  0  0  0
 21 43  1  0  0  0  0
 22 23  1  0  0  0  0
 22 44  1  0  0  0  0
 22 45  1  0  0  0  0
 23 24  1  0  0  0  0
 23 46  1  0  0  0  0
 23 47  1  0  0  0  0
 24 25  1  0  0  0  0
 24 48  1  0  0  0  0
 24 49  1  0  0  0  0
 26 27  1  0  0  0  0
 26 50  1  0  0  0  0
 26 51  1  0  0  0  0
 27 28  2  0  0  0  0
M  END
> <s_m_source_file>
AV-unprocessed.smi

> <i_m_source_file_index>
174

> <i_lp_mmshare_version>
43012

> <i_f3d_flags>
0

> <s_epik_input>
W05IMl1DKD1PKVtDSDJdTjFbQ0gyXVtDSDJdTihbQ0gyXUMxPU8pYyhuW2NIXW4yKWMoYzIzKW5bY0hdbjNbQ0gyXVtDQEhdKFtPSF0pW0NAQEhdNFtDSDJdW0NIMl1bQ0gyXU80

> <s_epik_cmdline>
J2VwaWtfcHl0aG9uJywgJy1waCcsICc3LjAnLCAnLXRuJywgJzgnLCAnLW1hJywgJzIwMCcsICctbWV0YWxfYmluZGluZycsICctaW1hZScsICc8aW5maWxlLm1hZT4nLCAnLW9tYWUnLCAnPG91dGZpbGUubWFlPic=

> <r_lp_tautomer_probability>
1

> <r_epik_Ionization_Penalty>
0.000250477

> <r_epik_Ionization_Penalty_Charging>
0

> <r_epik_Ionization_Penalty_Neutral>
0.000250477

> <r_epik_State_Penalty>
-0

> <r_epik_Charging_Adjusted_Penalty>
0

> <i_epik_Tot_Q>
0

> <i_epik_Tot_abs_Q>
0

> <r_epik_Metal_State_Penalty>
-0

> <b_epik_Metal_Only>
0

> <s_lp_Force_Field>
OPLS_2005

> <r_lp_Energy>
34.8675

> <b_lp_Chiralities_Consistent>
1

> <s_lp_Variant>
AV-unprocessed.smi:174-3

> <Gold.Version>
5.8.1

> <Gold.Id.Protein>
6NUR|6NUR_protein|mol2

> <Gold.PLP.Fitness>
43.8576

> <Gold.PLP.PLP>
-32.9871

> <Gold.PLP.part.hbond>
-5.0000

> <Gold.PLP.part.metal>
0.0000

> <Gold.PLP.part.buried>
-7.3989

> <Gold.PLP.part.nonpolar>
-20.7076

> <Gold.PLP.part.repulsive>
0.5695

> <Gold.PLP.ligand.clash>
0.0000

> <Gold.PLP.ligand.torsion>
1.7577

> <Gold.PLP.Chemscore.Hbond>
3.6537

> <Gold.PLP.Chemscore.CHOScore>
0.9741

> <Gold.PLP.Chemscore.Metal>
0.0000

> <Gold.Chemscore.Hbonds>
donor molecule, donor type, donor heavy atom, donor atom, acceptor molecule, acceptor atom, score
      L1  H    20    42       P1 10171  1.00
      P1  H  6896  6907       L1    28  0.32
      P1  H  6931  6943       L1     3  0.66
      P1  H  6934  6947       L1     3  0.82
      L1  C    16    38       P1 10175  0.54

> <Gold.PLP.Chemscore.Internal.Correction>
0.5024

> <Gold.Rescore>
     Score         DG    S(hbond)    S(metal)    S(lipo)     H(rot)  DE(clash)    DE(int)     intcor
     10.63     -13.81       3.68        0.00      51.37       3.90       0.07       3.11       ----

> <Gold.Chemscore.Fitness>
10.6316

> <Gold.Chemscore.DG>
-13.8086

> <Gold.Chemscore.ZeroCoef>
-5.4800

> <Gold.Chemscore.Hbond>
3.6824

> <Gold.Chemscore.Metal>
0.0000

> <Gold.Chemscore.Lipo>
51.3693

> <Gold.Chemscore.Internal_Hbond>
0.0000

> <Gold.Chemscore.DEClash>
0.0675

> <Gold.Chemscore.DEInternal>
3.1095

> <Gold.Chemscore.Rot>
3.8988

> <Gold.Chemscore.Internal.Correction>
   9.000000E+99

> <Gold.Chemscore.Hbonds>
donor molecule, donor type, donor heavy atom, donor atom, acceptor molecule, acceptor atom, score
      L1  H    20    42       P1 10171  1.00
      P1  H  6896  6907       L1    28  0.32
      P1  H  6931  6943       L1     3  0.63
      P1  H  6934  6947       L1     3  0.79

> <Gold.Chemscore.Hbond.Weighted>
-12.2992

> <Gold.Chemscore.Metal.Weighted>
-0.0000

> <Gold.Chemscore.Lipo.Weighted>
-6.0102

> <Gold.Chemscore.Internal_Hbond.Weighted>
0.0000

> <Gold.Chemscore.DEClash.Weighted>
0.0675

> <Gold.Chemscore.DEInternal.Weighted>
3.1095

> <Gold.Chemscore.Rot.Weighted>
9.9808

> <Gold.Chemscore.Internal.Correction.Weighted>
   9.000000E+99

> <Gold.Protein.RotatedTorsions>
[ 6907 6896 6895 6894 ] final  -71.20 input  -60.11 | X-H torsion
[ 7974 7965 7964 7962 ] final -156.90 input  175.53 | X-H torsion
[ 8008 7997 7996 7995 ] final  -62.52 input   59.86 | X-H torsion
[ 10167 10162 10161 10158 ] final  -68.65 input  -65.29 | X-H torsion
[ 10718 10713 10712 10709 ] final  -80.03 input   66.30 | X-H torsion
[ 10763 10752 10751 10750 ] final  111.04 input  -60.55 | X-H torsion
[ 11005 11000 10999 10996 ] final   87.42 input  -57.11 | X-H torsion

> <Gold.Protein.ActiveResidues>
 VAL166  LYS551  ARG553  GLY616  TRP617  ASP618  TYR619  PRO620  LYS621  CYS622 
 ASP623  PHE694  ASN695  SER759  ASP760  ASP761  ALA762  ILE779  LEU786  VAL792 
 PHE793  MET794  SER795  GLU796  ALA797  LYS798  CYS799  TRP800  GLU811  SER814 

> <Gold.Protein.RotatedAtoms>
  150.7223  134.5343  159.5715 H   0  0  0  0  0  0  0  0  0  0  0  0  # atno 6907 bound_to 6896
  152.2869  134.7763  160.0394 H   0  0  0  0  0  0  0  0  0  0  0  0  # atno 6908 bound_to 6896
  151.8390  133.3385  159.3674 H   0  0  0  0  0  0  0  0  0  0  0  0  # atno 6909 bound_to 6896
  144.7572  140.4045  143.6003 H   0  0  0  0  0  0  0  0  0  0  0  0  # atno 7974 bound_to 7965
  154.4504  140.0994  156.6599 H   0  0  0  0  0  0  0  0  0  0  0  0  # atno 8008 bound_to 7997
  155.5304  140.3481  155.4407 H   0  0  0  0  0  0  0  0  0  0  0  0  # atno 8009 bound_to 7997
  156.0668  140.1339  156.9865 H   0  0  0  0  0  0  0  0  0  0  0  0  # atno 8010 bound_to 7997
  140.5491  143.2312  151.6945 H   0  0  0  0  0  0  0  0  0  0  0  0  # atno 10167 bound_to 10162
  156.0079  130.4562  150.3739 H   0  0  0  0  0  0  0  0  0  0  0  0  # atno 10718 bound_to 10713
  153.4576  135.3729  155.2320 H   0  0  0  0  0  0  0  0  0  0  0  0  # atno 10763 bound_to 10752
  154.8757  135.3901  154.3963 H   0  0  0  0  0  0  0  0  0  0  0  0  # atno 10764 bound_to 10752
  153.4532  135.7086  153.6160 H   0  0  0  0  0  0  0  0  0  0  0  0  # atno 10765 bound_to 10752
  139.8920  134.8421  156.2857 H   0  0  0  0  0  0  0  0  0  0  0  0  # atno 11005 bound_to 11000
  145.6739  139.1604  143.2739 LP  0  0  0  0  0  0  0  0  0  0  0  0  # atno 17320 bound_to 7965
  146.1596  140.6807  142.9284 LP  0  0  0  0  0  0  0  0  0  0  0  0  # atno 17321 bound_to 7965
  139.5020  144.3846  152.0341 LP  0  0  0  0  0  0  0  0  0  0  0  0  # atno 17342 bound_to 10162
  140.2962  144.3698  150.6074 LP  0  0  0  0  0  0  0  0  0  0  0  0  # atno 17343 bound_to 10162
  157.1822  131.0395  151.2743 LP  0  0  0  0  0  0  0  0  0  0  0  0  # atno 17370 bound_to 10713
  157.4136  130.7398  149.6858 LP  0  0  0  0  0  0  0  0  0  0  0  0  # atno 17371 bound_to 10713
  141.0009  133.7152  156.0959 LP  0  0  0  0  0  0  0  0  0  0  0  0  # atno 17394 bound_to 11000
  140.7499  134.4057  157.5543 LP  0  0  0  0  0  0  0  0  0  0  0  0  # atno 17395 bound_to 11000

$$$$
