AV-unprocessed.smi:2504|AV-procd|sdf|9851|dock8
  -GOLD-   2272013483D 1   1.00000     0.00000
 Structure written by MMmdl.
 45 47  0  0  0  0  0  0  0  0  2 V2000
  150.3142  142.6007  158.8574 O   0  0  0  0  0  0  0  0  0  0  0  0
  151.3600  141.9498  158.8374 C   0  0  0  0  0  0  0  0  0  0  0  0
  152.7057  142.5843  159.2585 C   0  0  0  0  0  0  0  0  0  0  0  0
  153.2735  142.0222  160.5732 C   0  0  0  0  0  0  0  0  0  0  0  0
  152.6180  142.8373  161.6961 C   0  0  0  0  0  0  0  0  0  0  0  0
  152.1486  144.1517  161.0540 C   0  0  0  0  0  0  0  0  0  0  0  0
  152.5604  144.0803  159.5777 C   0  0  0  0  0  0  0  0  0  0  0  0
  151.3615  140.5910  158.5073 N   0  0  0  0  0  0  0  0  0  0  0  0
  150.5277  140.0563  157.4405 C   0  0  0  0  0  0  0  0  0  0  0  0
  151.6137  138.9867  157.2807 C   0  0  0  0  0  0  0  0  0  0  0  0
  152.0560  138.6721  155.5132 S   0  0  0  0  0  0  0  0  0  0  0  0
  151.1353  139.4952  154.7127 O   0  0  0  0  0  0  0  0  0  0  0  0
  153.4922  138.9700  155.3810 O   0  0  0  0  0  0  0  0  0  0  0  0
  151.7119  137.0901  155.4040 N   0  5  0  0  0  0  0  0  0  0  0  0
  150.3458  136.6642  155.1427 C   0  0  0  0  0  0  0  0  0  0  0  0
  149.8721  135.6619  156.2212 C   0  0  0  0  0  0  0  0  0  0  0  0
  149.6285  134.2406  155.7242 C   0  0  0  0  0  0  0  0  0  0  0  0
  149.9985  133.1189  156.4982 C   0  0  0  0  0  0  0  0  0  0  0  0
  149.7408  131.8295  155.9946 C   0  0  0  0  0  0  0  0  0  0  0  0
  149.1264  131.7136  154.7319 C   0  0  0  0  0  0  0  0  0  0  0  0
  148.7789  132.7758  153.9748 N   0  0  0  0  0  0  0  0  0  0  0  0
  149.0269  134.0086  154.4667 C   0  0  0  0  0  0  0  0  0  0  0  0
  152.5670  139.9332  158.0258 C   0  0  0  0  0  0  0  0  0  0  0  0
  153.4272  142.4275  158.4566 H   0  0  0  0  0  0  0  0  0  0  0  0
  153.1220  140.9489  160.6966 H   0  0  0  0  0  0  0  0  0  0  0  0
  154.3516  142.1875  160.5908 H   0  0  0  0  0  0  0  0  0  0  0  0
  151.7612  142.2982  162.1028 H   0  0  0  0  0  0  0  0  0  0  0  0
  153.3136  143.0102  162.5179 H   0  0  0  0  0  0  0  0  0  0  0  0
  151.0638  144.2332  161.1360 H   0  0  0  0  0  0  0  0  0  0  0  0
  152.5790  145.0245  161.5459 H   0  0  0  0  0  0  0  0  0  0  0  0
  153.5262  144.5692  159.4438 H   0  0  0  0  0  0  0  0  0  0  0  0
  151.8509  144.6004  158.9326 H   0  0  0  0  0  0  0  0  0  0  0  0
  149.5625  139.6755  157.7749 H   0  0  0  0  0  0  0  0  0  0  0  0
  150.4444  140.7185  156.5765 H   0  0  0  0  0  0  0  0  0  0  0  0
  151.3879  138.0619  157.8138 H   0  0  0  0  0  0  0  0  0  0  0  0
  149.6679  137.5183  155.1480 H   0  0  0  0  0  0  0  0  0  0  0  0
  150.2315  136.2112  154.1571 H   0  0  0  0  0  0  0  0  0  0  0  0
  150.5965  135.6309  157.0364 H   0  0  0  0  0  0  0  0  0  0  0  0
  148.9456  136.0286  156.6645 H   0  0  0  0  0  0  0  0  0  0  0  0
  150.4632  133.2444  157.4652 H   0  0  0  0  0  0  0  0  0  0  0  0
  150.0032  130.9505  156.5642 H   0  0  0  0  0  0  0  0  0  0  0  0
  148.9126  130.7400  154.3163 H   0  0  0  0  0  0  0  0  0  0  0  0
  148.7271  134.8367  153.8411 H   0  0  0  0  0  0  0  0  0  0  0  0
  153.1764  140.5697  157.3825 H   0  0  0  0  0  0  0  0  0  0  0  0
  153.1533  139.4556  158.8110 H   0  0  0  0  0  0  0  0  0  0  0  0
  1  2  2  0  0  0  0
  2  3  1  0  0  0  0
  2  8  1  0  0  0  0
  3  7  1  0  0  0  0
  3  4  1  0  0  0  0
  3 24  1  0  0  0  0
  4  5  1  0  0  0  0
  4 25  1  0  0  0  0
  4 26  1  0  0  0  0
  5  6  1  0  0  0  0
  5 27  1  0  0  0  0
  5 28  1  0  0  0  0
  6  7  1  0  0  0  0
  6 29  1  0  0  0  0
  6 30  1  0  0  0  0
  7 31  1  0  0  0  0
  7 32  1  0  0  0  0
  8 23  1  0  0  0  0
  8  9  1  0  0  0  0
  9 10  1  0  0  0  0
  9 33  1  0  0  0  0
  9 34  1  0  0  0  0
 10 11  1  0  0  0  0
 10 23  1  0  0  0  0
 10 35  1  0  0  0  0
 11 12  2  0  0  0  0
 11 13  2  0  0  0  0
 11 14  1  0  0  0  0
 14 15  1  0  0  0  0
 15 16  1  0  0  0  0
 15 36  1  0  0  0  0
 15 37  1  0  0  0  0
 16 17  1  0  0  0  0
 16 38  1  0  0  0  0
 16 39  1  0  0  0  0
 17 22  1  0  0  0  0
 17 18  2  0  0  0  0
 18 19  1  0  0  0  0
 18 40  1  0  0  0  0
 19 20  2  0  0  0  0
 19 41  1  0  0  0  0
 20 21  1  0  0  0  0
 20 42  1  0  0  0  0
 21 22  2  0  0  0  0
 22 43  1  0  0  0  0
 23 44  1  0  0  0  0
 23 45  1  0  0  0  0
M  CHG  1  14  -1
M  END
> <s_m_source_file>
AV-unprocessed.smi

> <i_m_source_file_index>
2504

> <i_lp_mmshare_version>
43012

> <i_f3d_flags>
0

> <s_epik_input>
W0NIMl0xW0NIMl1bQ0gyXVtDSDJdW0NIXTFDKD1PKU4yW0NIMl1bQ0hdKFtDSDJdMilTKD1PKSg9TylbTkhdW0NIMl1bQ0gyXWMzW2NIXVtjSF1bY0hdbltjSF0z

> <s_epik_cmdline>
J2VwaWtfcHl0aG9uJywgJy1waCcsICc3LjAnLCAnLXRuJywgJzgnLCAnLW1hJywgJzIwMCcsICctbWV0YWxfYmluZGluZycsICctaW1hZScsICc8aW5maWxlLm1hZT4nLCAnLW9tYWUnLCAnPG91dGZpbGUubWFlPic=

> <r_epik_Ionization_Penalty>
5.82897

> <r_epik_Ionization_Penalty_Charging>
5.8024

> <r_epik_Ionization_Penalty_Neutral>
0.0265674

> <r_epik_State_Penalty>
5.81059

> <r_epik_Charging_Adjusted_Penalty>
11.613

> <i_epik_Tot_Q>
-1

> <i_epik_Tot_abs_Q>
1

> <r_epik_Metal_State_Penalty>
1.79017

> <b_epik_Metal_Only>
1

> <s_lp_Force_Field>
OPLS_2005

> <r_lp_Energy>
30.9789

> <b_lp_Chiralities_Consistent>
1

> <s_lp_Variant>
AV-unprocessed.smi:2504-3

> <Gold.Version>
5.8.1

> <Gold.Id.Protein>
6NUR|6NUR_protein|mol2

> <Gold.PLP.Fitness>
62.1272

> <Gold.PLP.PLP>
-48.7611

> <Gold.PLP.part.hbond>
-3.9666

> <Gold.PLP.part.metal>
0.0000

> <Gold.PLP.part.buried>
-6.4902

> <Gold.PLP.part.nonpolar>
-39.3676

> <Gold.PLP.part.repulsive>
0.3459

> <Gold.PLP.ligand.clash>
0.0000

> <Gold.PLP.ligand.torsion>
2.0548

> <Gold.PLP.Chemscore.Hbond>
3.9840

> <Gold.PLP.Chemscore.CHOScore>
1.0000

> <Gold.PLP.Chemscore.Metal>
0.0000

> <Gold.Chemscore.Hbonds>
donor molecule, donor type, donor heavy atom, donor atom, acceptor molecule, acceptor atom, score
      P1  H  7989  7998       L1    12  1.00
      P1  H  7997  8008       L1    13  0.90
      P1  H 10752 10764       L1    14  1.69
      L1  C    22    43       P1  7948  1.00

> <Gold.PLP.Chemscore.Internal.Correction>
2.5236

> <Gold.Rescore>
     Score         DG    S(hbond)    S(metal)    S(lipo)     H(rot)  DE(clash)    DE(int)     intcor
     20.99     -23.18       2.80        0.00     106.54       1.61       0.07       2.12       ----

> <Gold.Chemscore.Fitness>
20.9934

> <Gold.Chemscore.DG>
-23.1845

> <Gold.Chemscore.ZeroCoef>
-5.4800

> <Gold.Chemscore.Hbond>
2.8036

> <Gold.Chemscore.Metal>
0.0000

> <Gold.Chemscore.Lipo>
106.5357

> <Gold.Chemscore.Internal_Hbond>
0.0000

> <Gold.Chemscore.DEClash>
0.0727

> <Gold.Chemscore.DEInternal>
2.1183

> <Gold.Chemscore.Rot>
1.6110

> <Gold.Chemscore.Internal.Correction>
   9.000000E+99

> <Gold.Chemscore.Hbonds>
donor molecule, donor type, donor heavy atom, donor atom, acceptor molecule, acceptor atom, score
      P1  H  7989  7998       L1    12  1.00
      P1  H  7997  8008       L1    13  0.88
      P1  H 10752 10764       L1    14  0.44

> <Gold.Chemscore.Hbond.Weighted>
-9.3641

> <Gold.Chemscore.Metal.Weighted>
-0.0000

> <Gold.Chemscore.Lipo.Weighted>
-12.4647

> <Gold.Chemscore.Internal_Hbond.Weighted>
0.0000

> <Gold.Chemscore.DEClash.Weighted>
0.0727

> <Gold.Chemscore.DEInternal.Weighted>
2.1183

> <Gold.Chemscore.Rot.Weighted>
4.1243

> <Gold.Chemscore.Internal.Correction.Weighted>
   9.000000E+99

> <Gold.Protein.RotatedTorsions>
[ 6907 6896 6895 6894 ] final  -10.15 input  -60.11 | X-H torsion
[ 7974 7965 7964 7962 ] final  -66.19 input  175.53 | X-H torsion
[ 8008 7997 7996 7995 ] final   -6.62 input   59.86 | X-H torsion
[ 10167 10162 10161 10158 ] final  -62.37 input  -65.29 | X-H torsion
[ 10718 10713 10712 10709 ] final  -25.42 input   66.30 | X-H torsion
[ 10763 10752 10751 10750 ] final  -59.43 input  -60.55 | X-H torsion
[ 11005 11000 10999 10996 ] final -138.90 input  -57.11 | X-H torsion

> <Gold.Protein.ActiveResidues>
 VAL166  LYS551  ARG553  GLY616  TRP617  ASP618  TYR619  PRO620  LYS621  CYS622 
 ASP623  PHE694  ASN695  SER759  ASP760  ASP761  ALA762  ILE779  LEU786  VAL792 
 PHE793  MET794  SER795  GLU796  ALA797  LYS798  CYS799  TRP800  GLU811  SER814 

> <Gold.Protein.RotatedAtoms>
  151.4065  135.0979  159.9571 H   0  0  0  0  0  0  0  0  0  0  0  0  # atno 6907 bound_to 6896
  152.5033  133.8838  159.7370 H   0  0  0  0  0  0  0  0  0  0  0  0  # atno 6908 bound_to 6896
  150.9323  133.6695  159.2836 H   0  0  0  0  0  0  0  0  0  0  0  0  # atno 6909 bound_to 6896
  145.7448  140.8936  143.0511 H   0  0  0  0  0  0  0  0  0  0  0  0  # atno 7974 bound_to 7965
  154.5919  140.2428  155.7909 H   0  0  0  0  0  0  0  0  0  0  0  0  # atno 8008 bound_to 7997
  156.2253  140.2984  156.0006 H   0  0  0  0  0  0  0  0  0  0  0  0  # atno 8009 bound_to 7997
  155.2359  140.0405  157.2959 H   0  0  0  0  0  0  0  0  0  0  0  0  # atno 8010 bound_to 7997
  140.5943  143.2348  151.6070 H   0  0  0  0  0  0  0  0  0  0  0  0  # atno 10167 bound_to 10162
  156.4646  130.4511  149.6907 H   0  0  0  0  0  0  0  0  0  0  0  0  # atno 10718 bound_to 10713
  154.2535  135.6321  153.5249 H   0  0  0  0  0  0  0  0  0  0  0  0  # atno 10763 bound_to 10752
  152.9908  135.5570  154.5782 H   0  0  0  0  0  0  0  0  0  0  0  0  # atno 10764 bound_to 10752
  154.5314  135.2888  155.1151 H   0  0  0  0  0  0  0  0  0  0  0  0  # atno 10765 bound_to 10752
  140.8571  134.2214  157.4728 H   0  0  0  0  0  0  0  0  0  0  0  0  # atno 11005 bound_to 11000
  144.6862  139.9511  143.7478 LP  0  0  0  0  0  0  0  0  0  0  0  0  # atno 17320 bound_to 7965
  146.0413  139.3424  143.0696 LP  0  0  0  0  0  0  0  0  0  0  0  0  # atno 17321 bound_to 7965
  139.5248  144.3093  152.1006 LP  0  0  0  0  0  0  0  0  0  0  0  0  # atno 17342 bound_to 10162
  140.2263  144.4415  150.6319 LP  0  0  0  0  0  0  0  0  0  0  0  0  # atno 17343 bound_to 10162
  156.3681  130.7516  151.2496 LP  0  0  0  0  0  0  0  0  0  0  0  0  # atno 17370 bound_to 10713
  157.7495  131.0331  150.4256 LP  0  0  0  0  0  0  0  0  0  0  0  0  # atno 17371 bound_to 10713
  139.8705  134.9712  156.4727 LP  0  0  0  0  0  0  0  0  0  0  0  0  # atno 17394 bound_to 11000
  140.8724  133.7978  155.9379 LP  0  0  0  0  0  0  0  0  0  0  0  0  # atno 17395 bound_to 11000

$$$$
