AV-unprocessed.smi:2934|AV-procd|sdf|11254|dock1
  -GOLD-   2272016143D 1   1.00000     0.00000
 Structure written by MMmdl.
 43 44  0  0  0  0  0  0  0  0  1 V2000
  153.9174  141.5138  160.4425 C   0  0  0  0  0  0  0  0  0  0  0  0
  152.5910  141.4501  159.8191 N   0  0  0  0  0  0  0  0  0  0  0  0
  151.9828  140.2365  159.7238 C   0  0  0  0  0  0  0  0  0  0  0  0
  152.4822  139.1994  160.1652 O   0  0  0  0  0  0  0  0  0  0  0  0
  150.7689  140.2476  159.1421 N   0  0  0  0  0  0  0  0  0  0  0  0
  149.9059  139.0865  158.9605 C   0  0  0  0  0  0  0  0  0  0  0  0
  149.8957  138.1894  160.2139 C   0  0  0  0  0  0  0  0  0  0  0  0
  148.4838  137.8819  160.7215 C   0  0  0  0  0  0  0  0  0  0  0  0
  147.5090  137.9976  159.9780 O   0  0  0  0  0  0  0  0  0  0  0  0
  148.3899  137.4905  162.0016 N   0  0  0  0  0  0  0  0  0  0  0  0
  147.1455  137.1670  162.6949 C   0  0  0  0  0  0  0  0  0  0  0  0
  146.9840  138.0023  163.9807 C   0  0  0  0  0  0  0  0  0  0  0  0
  147.2350  137.0389  165.1403 C   0  0  0  0  0  0  0  0  0  0  0  0
  146.7392  135.6943  164.6183 C   0  0  0  0  0  0  0  0  0  0  0  0
  147.1342  135.6912  163.1399 C   0  0  0  0  0  0  0  0  0  0  0  0
  152.0380  142.6711  159.3209 C   0  0  0  0  0  0  0  0  0  0  0  0
  152.9471  143.6538  158.8595 C   0  0  0  0  0  0  0  0  0  0  0  0
  152.4524  144.8665  158.3424 C   0  0  0  0  0  0  0  0  0  0  0  0
  151.0613  145.0654  158.2941 C   0  0  0  0  0  0  0  0  0  0  0  0
  150.2266  144.0357  158.7659 C   0  0  0  0  0  0  0  0  0  0  0  0
  150.6971  142.8720  159.2622 N   0  0  0  0  0  0  0  0  0  0  0  0
  154.3632  142.5058  160.3597 H   0  0  0  0  0  0  0  0  0  0  0  0
  154.6098  140.8172  159.9669 H   0  0  0  0  0  0  0  0  0  0  0  0
  153.8543  141.2646  161.5027 H   0  0  0  0  0  0  0  0  0  0  0  0
  150.4202  141.1312  158.7990 H   0  0  0  0  0  0  0  0  0  0  0  0
  148.9004  139.4544  158.7518 H   0  0  0  0  0  0  0  0  0  0  0  0
  150.2199  138.5215  158.0809 H   0  0  0  0  0  0  0  0  0  0  0  0
  150.4032  137.2465  160.0079 H   0  0  0  0  0  0  0  0  0  0  0  0
  150.4550  138.6780  161.0135 H   0  0  0  0  0  0  0  0  0  0  0  0
  149.2420  137.4187  162.5387 H   0  0  0  0  0  0  0  0  0  0  0  0
  146.2992  137.3523  162.0305 H   0  0  0  0  0  0  0  0  0  0  0  0
  147.6410  138.8722  164.0224 H   0  0  0  0  0  0  0  0  0  0  0  0
  145.9601  138.3739  164.0391 H   0  0  0  0  0  0  0  0  0  0  0  0
  148.3047  136.9816  165.3465 H   0  0  0  0  0  0  0  0  0  0  0  0
  146.7332  137.3456  166.0585 H   0  0  0  0  0  0  0  0  0  0  0  0
  147.1576  134.8499  165.1668 H   0  0  0  0  0  0  0  0  0  0  0  0
  145.6531  135.6449  164.7086 H   0  0  0  0  0  0  0  0  0  0  0  0
  146.4524  135.0870  162.5405 H   0  0  0  0  0  0  0  0  0  0  0  0
  148.1269  135.2491  163.0387 H   0  0  0  0  0  0  0  0  0  0  0  0
  154.0135  143.4866  158.9056 H   0  0  0  0  0  0  0  0  0  0  0  0
  153.1295  145.6302  157.9891 H   0  0  0  0  0  0  0  0  0  0  0  0
  150.6445  145.9823  157.9041 H   0  0  0  0  0  0  0  0  0  0  0  0
  149.1527  144.1483  158.7445 H   0  0  0  0  0  0  0  0  0  0  0  0
  1  2  1  0  0  0  0
  1 22  1  0  0  0  0
  1 23  1  0  0  0  0
  1 24  1  0  0  0  0
  2  3  1  0  0  0  0
  2 16  1  0  0  0  0
  3  4  2  0  0  0  0
  3  5  1  0  0  0  0
  5  6  1  0  0  0  0
  5 25  1  0  0  0  0
  6  7  1  0  0  0  0
  6 26  1  0  0  0  0
  6 27  1  0  0  0  0
  7  8  1  0  0  0  0
  7 28  1  0  0  0  0
  7 29  1  0  0  0  0
  8  9  2  0  0  0  0
  8 10  1  0  0  0  0
 10 11  1  0  0  0  0
 10 30  1  0  0  0  0
 11 15  1  0  0  0  0
 11 12  1  0  0  0  0
 11 31  1  0  0  0  0
 12 13  1  0  0  0  0
 12 32  1  0  0  0  0
 12 33  1  0  0  0  0
 13 14  1  0  0  0  0
 13 34  1  0  0  0  0
 13 35  1  0  0  0  0
 14 15  1  0  0  0  0
 14 36  1  0  0  0  0
 14 37  1  0  0  0  0
 15 38  1  0  0  0  0
 15 39  1  0  0  0  0
 16 21  1  0  0  0  0
 16 17  2  0  0  0  0
 17 18  1  0  0  0  0
 17 40  1  0  0  0  0
 18 19  2  0  0  0  0
 18 41  1  0  0  0  0
 19 20  1  0  0  0  0
 19 42  1  0  0  0  0
 20 21  2  0  0  0  0
 20 43  1  0  0  0  0
M  END
> <s_m_source_file>
AV-unprocessed.smi

> <i_m_source_file_index>
2934

> <i_lp_mmshare_version>
43012

> <i_f3d_flags>
0

> <s_epik_input>
bjFbY0hdW2NIXVtjSF1bY0hdYzFOKFtDSDNdKUMoPU8pW05IXVtDSDJdW0NIMl1DKD1PKVtOSF1bQ0hdMltDSDJdW0NIMl1bQ0gyXVtDSDJdMg==

> <s_epik_cmdline>
J2VwaWtfcHl0aG9uJywgJy1waCcsICc3LjAnLCAnLXRuJywgJzgnLCAnLW1hJywgJzIwMCcsICctbWV0YWxfYmluZGluZycsICctaW1hZScsICc8aW5maWxlLm1hZT4nLCAnLW9tYWUnLCAnPG91dGZpbGUubWFlPic=

> <r_epik_Ionization_Penalty>
0.404648

> <r_epik_Ionization_Penalty_Charging>
0

> <r_epik_Ionization_Penalty_Neutral>
0.404648

> <r_epik_State_Penalty>
0.40421

> <r_epik_Charging_Adjusted_Penalty>
0.40421

> <i_epik_Tot_Q>
0

> <i_epik_Tot_abs_Q>
0

> <r_epik_Metal_State_Penalty>
0.238116

> <b_epik_Metal_Only>
0

> <s_lp_Force_Field>
OPLS_2005

> <r_lp_Energy>
32.7735

> <b_lp_Chiralities_Consistent>
1

> <s_lp_Variant>
AV-unprocessed.smi:2934-1

> <Gold.Version>
5.8.1

> <Gold.Id.Protein>
6NUR|6NUR_protein|mol2

> <Gold.PLP.Fitness>
46.0276

> <Gold.PLP.PLP>
-47.3772

> <Gold.PLP.part.hbond>
0.0000

> <Gold.PLP.part.metal>
0.0000

> <Gold.PLP.part.buried>
-6.8998

> <Gold.PLP.part.nonpolar>
-41.2863

> <Gold.PLP.part.repulsive>
0.5507

> <Gold.PLP.ligand.clash>
0.3097

> <Gold.PLP.ligand.torsion>
1.1651

> <Gold.PLP.Chemscore.Hbond>
0.0000

> <Gold.PLP.Chemscore.CHOScore>
0.3157

> <Gold.PLP.Chemscore.Metal>
0.0000

> <Gold.Chemscore.Hbonds>
donor molecule, donor type, donor heavy atom, donor atom, acceptor molecule, acceptor atom, score
      P1  H  6934  6947       L1     9  0.05
      L1  C    20    43       P1  8029  0.64

> <Gold.PLP.Chemscore.Internal.Correction>
0.3430

> <Gold.Rescore>
     Score         DG    S(hbond)    S(metal)    S(lipo)     H(rot)  DE(clash)    DE(int)     intcor
      9.76     -14.00       0.00        0.00     110.47       1.72       0.02       4.22       ----

> <Gold.Chemscore.Fitness>
9.7562

> <Gold.Chemscore.DG>
-13.9972

> <Gold.Chemscore.ZeroCoef>
-5.4800

> <Gold.Chemscore.Hbond>
0.0000

> <Gold.Chemscore.Metal>
0.0000

> <Gold.Chemscore.Lipo>
110.4739

> <Gold.Chemscore.Internal_Hbond>
0.0000

> <Gold.Chemscore.DEClash>
0.0239

> <Gold.Chemscore.DEInternal>
4.2171

> <Gold.Chemscore.Rot>
1.7220

> <Gold.Chemscore.Internal.Correction>
   9.000000E+99

> <Gold.Chemscore.Hbond.Weighted>
-0.0000

> <Gold.Chemscore.Metal.Weighted>
-0.0000

> <Gold.Chemscore.Lipo.Weighted>
-12.9254

> <Gold.Chemscore.Internal_Hbond.Weighted>
0.0000

> <Gold.Chemscore.DEClash.Weighted>
0.0239

> <Gold.Chemscore.DEInternal.Weighted>
4.2171

> <Gold.Chemscore.Rot.Weighted>
4.4083

> <Gold.Chemscore.Internal.Correction.Weighted>
   9.000000E+99

> <Gold.Protein.RotatedTorsions>
[ 6907 6896 6895 6894 ] final  -28.79 input  -60.11 | X-H torsion
[ 7974 7965 7964 7962 ] final -132.40 input  175.53 | X-H torsion
[ 8008 7997 7996 7995 ] final  -46.82 input   59.86 | X-H torsion
[ 10167 10162 10161 10158 ] final  -44.49 input  -65.29 | X-H torsion
[ 10718 10713 10712 10709 ] final   14.42 input   66.30 | X-H torsion
[ 10763 10752 10751 10750 ] final -153.65 input  -60.55 | X-H torsion
[ 11005 11000 10999 10996 ] final   30.66 input  -57.11 | X-H torsion

> <Gold.Protein.ActiveResidues>
 VAL166  LYS551  ARG553  GLY616  TRP617  ASP618  TYR619  PRO620  LYS621  CYS622 
 ASP623  PHE694  ASN695  SER759  ASP760  ASP761  ALA762  ILE779  LEU786  VAL792 
 PHE793  MET794  SER795  GLU796  ALA797  LYS798  CYS799  TRP800  GLU811  SER814 

> <Gold.Protein.RotatedAtoms>
  151.1281  135.0116  159.8569 H   0  0  0  0  0  0  0  0  0  0  0  0  # atno 6907 bound_to 6896
  152.5450  134.1642  159.8580 H   0  0  0  0  0  0  0  0  0  0  0  0  # atno 6908 bound_to 6896
  151.1706  133.4741  159.2627 H   0  0  0  0  0  0  0  0  0  0  0  0  # atno 6909 bound_to 6896
  144.9289  140.7104  143.4918 H   0  0  0  0  0  0  0  0  0  0  0  0  # atno 7974 bound_to 7965
  154.4011  140.1362  156.4074 H   0  0  0  0  0  0  0  0  0  0  0  0  # atno 8008 bound_to 7997
  155.7766  140.3482  155.5255 H   0  0  0  0  0  0  0  0  0  0  0  0  # atno 8009 bound_to 7997
  155.8715  140.0972  157.1537 H   0  0  0  0  0  0  0  0  0  0  0  0  # atno 8010 bound_to 7997
  140.6895  143.2927  151.3503 H   0  0  0  0  0  0  0  0  0  0  0  0  # atno 10167 bound_to 10162
  157.0389  130.6223  149.5747 H   0  0  0  0  0  0  0  0  0  0  0  0  # atno 10718 bound_to 10713
  154.7913  135.3208  154.7770 H   0  0  0  0  0  0  0  0  0  0  0  0  # atno 10763 bound_to 10752
  153.8458  135.6867  153.4802 H   0  0  0  0  0  0  0  0  0  0  0  0  # atno 10764 bound_to 10752
  153.1585  135.4670  154.9679 H   0  0  0  0  0  0  0  0  0  0  0  0  # atno 10765 bound_to 10752
  140.2920  134.2853  155.7774 H   0  0  0  0  0  0  0  0  0  0  0  0  # atno 11005 bound_to 11000
  145.3174  139.1799  143.4606 LP  0  0  0  0  0  0  0  0  0  0  0  0  # atno 17320 bound_to 7965
  146.3238  140.3187  142.8632 LP  0  0  0  0  0  0  0  0  0  0  0  0  # atno 17321 bound_to 7965
  139.6283  144.0770  152.2454 LP  0  0  0  0  0  0  0  0  0  0  0  0  # atno 17342 bound_to 10162
  140.0237  144.6134  150.7546 LP  0  0  0  0  0  0  0  0  0  0  0  0  # atno 17343 bound_to 10162
  156.0044  130.5129  150.7780 LP  0  0  0  0  0  0  0  0  0  0  0  0  # atno 17370 bound_to 10713
  157.5120  131.0926  151.0186 LP  0  0  0  0  0  0  0  0  0  0  0  0  # atno 17371 bound_to 10713
  141.2144  133.7591  156.9639 LP  0  0  0  0  0  0  0  0  0  0  0  0  # atno 17394 bound_to 11000
  140.1187  134.9431  157.2171 LP  0  0  0  0  0  0  0  0  0  0  0  0  # atno 17395 bound_to 11000

$$$$
