AV-unprocessed.smi:296|AV-procd|sdf|2258|dock6
  -GOLD-   2262022143D 1   1.00000     0.00000
 Structure written by MMmdl.
 36 37  0  0  0  0  0  0  0  0  1 V2000
  145.5498  141.9591  159.5685 N   0  0  0  0  0  0  0  0  0  0  0  0
  145.7667  141.8903  158.4338 C   0  0  0  0  0  0  0  0  0  0  0  0
  146.0389  141.8038  157.0090 C   0  0  0  0  0  0  0  0  0  0  0  0
  145.0297  141.7738  156.0908 N   0  0  0  0  0  0  0  0  0  0  0  0
  145.7599  141.6983  154.9849 C   0  0  0  0  0  0  0  0  0  0  0  0
  147.0790  141.6840  155.2045 N   0  0  0  0  0  0  0  0  0  0  0  0
  148.1892  141.6197  154.2719 C   0  0  0  0  0  0  0  0  0  0  0  0
  149.5167  141.4329  155.0068 C   0  0  0  0  0  0  0  0  0  0  0  0
  150.1868  140.4192  154.8137 O   0  0  0  0  0  0  0  0  0  0  0  0
  149.8762  142.4149  155.8491 N   0  0  0  0  0  0  0  0  0  0  0  0
  151.0832  142.4368  156.6704 C   0  0  0  0  0  0  0  0  0  0  0  0
  150.8942  141.6566  157.9848 C   0  0  0  0  0  0  0  0  0  0  0  0
  151.6395  142.2592  159.1658 C   0  0  0  0  0  0  0  0  0  0  0  0
  151.4677  143.5432  159.5357 C   0  0  0  0  0  0  0  0  0  0  0  0
  152.1542  144.1856  160.7276 C   0  0  0  0  0  0  0  0  0  0  0  0
  152.7778  143.1442  161.6716 C   0  0  0  0  0  0  0  0  0  0  0  0
  153.5220  142.0604  160.8826 C   0  0  0  0  0  0  0  0  0  0  0  0
  152.5790  141.3211  159.9163 C   0  0  0  0  0  0  0  0  0  0  0  0
  147.2849  141.7524  156.5428 N   0  0  0  0  0  0  0  0  0  0  0  0
  145.3270  141.6558  153.9960 H   0  0  0  0  0  0  0  0  0  0  0  0
  148.0319  140.7989  153.5703 H   0  0  0  0  0  0  0  0  0  0  0  0
  148.2105  142.5418  153.6893 H   0  0  0  0  0  0  0  0  0  0  0  0
  149.2578  143.2090  155.9333 H   0  0  0  0  0  0  0  0  0  0  0  0
  151.9475  142.0647  156.1186 H   0  0  0  0  0  0  0  0  0  0  0  0
  151.3027  143.4793  156.9015 H   0  0  0  0  0  0  0  0  0  0  0  0
  149.8339  141.6087  158.2350 H   0  0  0  0  0  0  0  0  0  0  0  0
  151.2151  140.6239  157.8399 H   0  0  0  0  0  0  0  0  0  0  0  0
  150.8050  144.1814  158.9699 H   0  0  0  0  0  0  0  0  0  0  0  0
  152.9214  144.8628  160.3511 H   0  0  0  0  0  0  0  0  0  0  0  0
  151.4324  144.7944  161.2725 H   0  0  0  0  0  0  0  0  0  0  0  0
  153.4515  143.6341  162.3752 H   0  0  0  0  0  0  0  0  0  0  0  0
  151.9932  142.6759  162.2679 H   0  0  0  0  0  0  0  0  0  0  0  0
  154.3320  142.5233  160.3174 H   0  0  0  0  0  0  0  0  0  0  0  0
  153.9890  141.3484  161.5637 H   0  0  0  0  0  0  0  0  0  0  0  0
  151.9755  140.6036  160.4717 H   0  0  0  0  0  0  0  0  0  0  0  0
  153.1699  140.7473  159.2017 H   0  0  0  0  0  0  0  0  0  0  0  0
  1  2  3  0  0  0  0
  2  3  1  0  0  0  0
  3 19  2  0  0  0  0
  3  4  1  0  0  0  0
  4  5  2  0  0  0  0
  5  6  1  0  0  0  0
  5 20  1  0  0  0  0
  6  7  1  0  0  0  0
  6 19  1  0  0  0  0
  7  8  1  0  0  0  0
  7 21  1  0  0  0  0
  7 22  1  0  0  0  0
  8  9  2  0  0  0  0
  8 10  1  0  0  0  0
 10 11  1  0  0  0  0
 10 23  1  0  0  0  0
 11 12  1  0  0  0  0
 11 24  1  0  0  0  0
 11 25  1  0  0  0  0
 12 13  1  0  0  0  0
 12 26  1  0  0  0  0
 12 27  1  0  0  0  0
 13 18  1  0  0  0  0
 13 14  2  0  0  0  0
 14 15  1  0  0  0  0
 14 28  1  0  0  0  0
 15 16  1  0  0  0  0
 15 29  1  0  0  0  0
 15 30  1  0  0  0  0
 16 17  1  0  0  0  0
 16 31  1  0  0  0  0
 16 32  1  0  0  0  0
 17 18  1  0  0  0  0
 17 33  1  0  0  0  0
 17 34  1  0  0  0  0
 18 35  1  0  0  0  0
 18 36  1  0  0  0  0
M  END
> <s_m_source_file>
AV-unprocessed.smi

> <i_m_source_file_index>
296

> <i_lp_mmshare_version>
43012

> <i_f3d_flags>
0

> <s_epik_input>
TiNDYzFuW2NIXW4objEpW0NIMl1DKD1PKVtOSF1bQ0gyXVtDSDJdQzI9W0NIXVtDSDJdW0NIMl1bQ0gyXVtDSDJdMg==

> <s_epik_cmdline>
J2VwaWtfcHl0aG9uJywgJy1waCcsICc3LjAnLCAnLXRuJywgJzgnLCAnLW1hJywgJzIwMCcsICctbWV0YWxfYmluZGluZycsICctaW1hZScsICc8aW5maWxlLm1hZT4nLCAnLW9tYWUnLCAnPG91dGZpbGUubWFlPic=

> <r_lp_tautomer_probability>
1

> <r_epik_Ionization_Penalty>
6.69355e-08

> <r_epik_Ionization_Penalty_Charging>
0

> <r_epik_Ionization_Penalty_Neutral>
6.69355e-08

> <r_epik_State_Penalty>
-0

> <r_epik_Charging_Adjusted_Penalty>
0

> <i_epik_Tot_Q>
0

> <i_epik_Tot_abs_Q>
0

> <r_epik_Metal_State_Penalty>
-0

> <b_epik_Metal_Only>
0

> <s_lp_Force_Field>
OPLS_2005

> <r_lp_Energy>
11.6781

> <b_lp_Chiralities_Consistent>
1

> <s_lp_Variant>
AV-unprocessed.smi:296-1

> <Gold.Version>
5.8.1

> <Gold.Id.Protein>
6NUR|6NUR_protein|mol2

> <Gold.PLP.Fitness>
48.6671

> <Gold.PLP.PLP>
-37.6701

> <Gold.PLP.part.hbond>
-2.9289

> <Gold.PLP.part.metal>
0.0000

> <Gold.PLP.part.buried>
-6.8568

> <Gold.PLP.part.nonpolar>
-29.5989

> <Gold.PLP.part.repulsive>
0.4217

> <Gold.PLP.ligand.clash>
0.0000

> <Gold.PLP.ligand.torsion>
0.4983

> <Gold.PLP.Chemscore.Hbond>
2.9920

> <Gold.PLP.Chemscore.CHOScore>
0.9915

> <Gold.PLP.Chemscore.Metal>
0.0000

> <Gold.Chemscore.Hbonds>
donor molecule, donor type, donor heavy atom, donor atom, acceptor molecule, acceptor atom, score
      L1  H    10    23       P1  8028  1.00
      P1  H  6934  6946       L1     1  0.86
      P1  H  7989  7998       L1     9  0.99
      L1  C     5    20       P1 10175  0.96

> <Gold.PLP.Chemscore.Internal.Correction>
0.0430

> <Gold.Rescore>
     Score         DG    S(hbond)    S(metal)    S(lipo)     H(rot)  DE(clash)    DE(int)     intcor
     15.78     -17.78       2.63        0.00      87.41       2.63       0.07       1.92       ----

> <Gold.Chemscore.Fitness>
15.7777

> <Gold.Chemscore.DG>
-17.7758

> <Gold.Chemscore.ZeroCoef>
-5.4800

> <Gold.Chemscore.Hbond>
2.6331

> <Gold.Chemscore.Metal>
0.0000

> <Gold.Chemscore.Lipo>
87.4099

> <Gold.Chemscore.Internal_Hbond>
0.0000

> <Gold.Chemscore.DEClash>
0.0749

> <Gold.Chemscore.DEInternal>
1.9233

> <Gold.Chemscore.Rot>
2.6273

> <Gold.Chemscore.Internal.Correction>
   9.000000E+99

> <Gold.Chemscore.Hbonds>
donor molecule, donor type, donor heavy atom, donor atom, acceptor molecule, acceptor atom, score
      L1  H    10    23       P1  8028  0.94
      P1  H  6934  6946       L1     1  0.69
      P1  H  7989  7998       L1     9  0.55

> <Gold.Chemscore.Hbond.Weighted>
-8.7947

> <Gold.Chemscore.Metal.Weighted>
-0.0000

> <Gold.Chemscore.Lipo.Weighted>
-10.2270

> <Gold.Chemscore.Internal_Hbond.Weighted>
0.0000

> <Gold.Chemscore.DEClash.Weighted>
0.0749

> <Gold.Chemscore.DEInternal.Weighted>
1.9233

> <Gold.Chemscore.Rot.Weighted>
6.7259

> <Gold.Chemscore.Internal.Correction.Weighted>
   9.000000E+99

> <Gold.Protein.RotatedTorsions>
[ 6907 6896 6895 6894 ] final   87.51 input  -60.11 | X-H torsion
[ 7974 7965 7964 7962 ] final  -92.02 input  175.53 | X-H torsion
[ 8008 7997 7996 7995 ] final -150.63 input   59.86 | X-H torsion
[ 10167 10162 10161 10158 ] final  128.24 input  -65.29 | X-H torsion
[ 10718 10713 10712 10709 ] final   81.47 input   66.30 | X-H torsion
[ 10763 10752 10751 10750 ] final -116.93 input  -60.55 | X-H torsion
[ 11005 11000 10999 10996 ] final   29.95 input  -57.11 | X-H torsion

> <Gold.Protein.ActiveResidues>
 VAL166  LYS551  ARG553  GLY616  TRP617  ASP618  TYR619  PRO620  LYS621  CYS622 
 ASP623  PHE694  ASN695  SER759  ASP760  ASP761  ALA762  ILE779  LEU786  VAL792 
 PHE793  MET794  SER795  GLU796  ALA797  LYS798  CYS799  TRP800  GLU811  SER814 

> <Gold.Protein.RotatedAtoms>
  152.5412  134.2265  159.8807 H   0  0  0  0  0  0  0  0  0  0  0  0  # atno 6907 bound_to 6896
  151.2239  133.4480  159.2609 H   0  0  0  0  0  0  0  0  0  0  0  0  # atno 6908 bound_to 6896
  151.0779  134.9853  159.8397 H   0  0  0  0  0  0  0  0  0  0  0  0  # atno 6909 bound_to 6896
  145.4054  140.9541  143.2264 H   0  0  0  0  0  0  0  0  0  0  0  0  # atno 7974 bound_to 7965
  155.6265  140.0687  157.2662 H   0  0  0  0  0  0  0  0  0  0  0  0  # atno 8008 bound_to 7997
  154.4216  140.1775  156.1476 H   0  0  0  0  0  0  0  0  0  0  0  0  # atno 8009 bound_to 7997
  155.9967  140.3340  155.6809 H   0  0  0  0  0  0  0  0  0  0  0  0  # atno 8010 bound_to 7997
  139.5537  144.6833  151.4246 H   0  0  0  0  0  0  0  0  0  0  0  0  # atno 10167 bound_to 10162
  157.6833  131.0005  150.2231 H   0  0  0  0  0  0  0  0  0  0  0  0  # atno 10718 bound_to 10713
  154.8537  135.4328  154.1899 H   0  0  0  0  0  0  0  0  0  0  0  0  # atno 10763 bound_to 10752
  153.2970  135.6966  153.7245 H   0  0  0  0  0  0  0  0  0  0  0  0  # atno 10764 bound_to 10752
  153.6390  135.3471  155.3040 H   0  0  0  0  0  0  0  0  0  0  0  0  # atno 10765 bound_to 10752
  140.2995  134.2772  155.7757 H   0  0  0  0  0  0  0  0  0  0  0  0  # atno 11005 bound_to 11000
  144.8345  139.5572  143.6928 LP  0  0  0  0  0  0  0  0  0  0  0  0  # atno 17320 bound_to 7965
  146.2731  139.6685  142.9282 LP  0  0  0  0  0  0  0  0  0  0  0  0  # atno 17321 bound_to 7965
  140.6805  143.8092  150.7116 LP  0  0  0  0  0  0  0  0  0  0  0  0  # atno 17342 bound_to 10162
  140.1544  143.4330  152.2110 LP  0  0  0  0  0  0  0  0  0  0  0  0  # atno 17343 bound_to 10162
  156.2879  130.3742  149.7870 LP  0  0  0  0  0  0  0  0  0  0  0  0  # atno 17370 bound_to 10713
  156.5539  130.8354  151.3308 LP  0  0  0  0  0  0  0  0  0  0  0  0  # atno 17371 bound_to 10713
  141.2131  133.7637  156.9746 LP  0  0  0  0  0  0  0  0  0  0  0  0  # atno 17394 bound_to 11000
  140.1122  134.9470  157.2082 LP  0  0  0  0  0  0  0  0  0  0  0  0  # atno 17395 bound_to 11000

$$$$
