AV-unprocessed.smi:2106|AV-procd|sdf|8594|dock8
  -GOLD-   2272011333D 1   1.00000     0.00000
 Structure written by MMmdl.
 47 48  0  0  0  0  0  0  0  0  1 V2000
  153.5657  142.3282  163.5274 C   0  0  0  0  0  0  0  0  0  0  0  0
  152.9458  142.6307  162.1952 C   0  0  0  0  0  0  0  0  0  0  0  0
  152.0006  143.6440  161.8723 C   0  0  0  0  0  0  0  0  0  0  0  0
  151.7727  143.4789  160.5351 C   0  0  0  0  0  0  0  0  0  0  0  0
  150.8773  144.2357  159.6098 C   0  0  0  0  0  0  0  0  0  0  0  0
  152.5548  142.4142  160.1228 N   0  0  0  0  0  0  0  0  0  0  0  0
  152.6852  141.8284  158.7958 C   0  0  0  0  0  0  0  0  0  0  0  0
  152.7404  140.2960  158.8273 C   0  0  0  0  0  0  0  0  0  0  0  0
  153.7943  139.6942  158.6151 O   0  0  0  0  0  0  0  0  0  0  0  0
  151.5822  139.6734  159.0940 N   0  0  0  0  0  0  0  0  0  0  0  0
  151.4072  138.2283  159.1723 C   0  0  0  0  0  0  0  0  0  0  0  0
  150.3052  137.7454  158.2106 C   0  0  0  0  0  0  0  0  0  0  0  0
  150.4851  138.1415  156.8151 N   0  0  0  0  0  0  0  0  0  0  0  0
  151.8863  138.1282  156.4056 C   0  0  0  0  0  0  0  0  0  0  0  0
  152.0611  138.5437  154.9333 C   0  0  2  0  0  0  0  0  0  0  0  0
  153.5370  138.6232  154.5290 C   0  0  0  0  0  0  0  0  0  0  0  0
  151.4763  139.8283  154.7266 O   0  0  0  0  0  0  0  0  0  0  0  0
  150.1093  139.9454  155.1237 C   0  0  1  0  0  0  0  0  0  0  0  0
  149.1646  139.2382  154.1371 C   0  0  0  0  0  0  0  0  0  0  0  0
  149.9375  139.4738  156.5814 C   0  0  0  0  0  0  0  0  0  0  0  0
  153.2750  141.8994  161.1433 N   0  0  0  0  0  0  0  0  0  0  0  0
  153.2826  143.0722  164.2722 H   0  0  0  0  0  0  0  0  0  0  0  0
  154.6541  142.3213  163.4628 H   0  0  0  0  0  0  0  0  0  0  0  0
  153.2463  141.3530  163.8950 H   0  0  0  0  0  0  0  0  0  0  0  0
  151.5568  144.3810  162.5250 H   0  0  0  0  0  0  0  0  0  0  0  0
  150.3905  145.0619  160.1281 H   0  0  0  0  0  0  0  0  0  0  0  0
  150.0987  143.5878  159.2073 H   0  0  0  0  0  0  0  0  0  0  0  0
  151.4405  144.6509  158.7740 H   0  0  0  0  0  0  0  0  0  0  0  0
  151.8436  142.1608  158.1868 H   0  0  0  0  0  0  0  0  0  0  0  0
  153.5909  142.2072  158.3195 H   0  0  0  0  0  0  0  0  0  0  0  0
  150.7625  140.2414  159.2529 H   0  0  0  0  0  0  0  0  0  0  0  0
  152.3604  137.7397  158.9682 H   0  0  0  0  0  0  0  0  0  0  0  0
  151.1395  137.9754  160.1985 H   0  0  0  0  0  0  0  0  0  0  0  0
  150.2770  136.6560  158.2637 H   0  0  0  0  0  0  0  0  0  0  0  0
  149.3309  138.0858  158.5645 H   0  0  0  0  0  0  0  0  0  0  0  0
  152.4638  138.7975  157.0453 H   0  0  0  0  0  0  0  0  0  0  0  0
  152.3084  137.1323  156.5344 H   0  0  0  0  0  0  0  0  0  0  0  0
  151.5690  137.8145  154.2892 H   0  0  0  0  0  0  0  0  0  0  0  0
  154.0304  137.6592  154.6538 H   0  0  0  0  0  0  0  0  0  0  0  0
  154.0736  139.3550  155.1335 H   0  0  0  0  0  0  0  0  0  0  0  0
  153.6395  138.9158  153.4838 H   0  0  0  0  0  0  0  0  0  0  0  0
  149.8694  141.0084  155.0864 H   0  0  0  0  0  0  0  0  0  0  0  0
  148.1226  139.4320  154.3926 H   0  0  0  0  0  0  0  0  0  0  0  0
  149.3039  138.1574  154.1384 H   0  0  0  0  0  0  0  0  0  0  0  0
  149.3272  139.5951  153.1199 H   0  0  0  0  0  0  0  0  0  0  0  0
  148.8800  139.4955  156.8479 H   0  0  0  0  0  0  0  0  0  0  0  0
  150.4333  140.1878  157.2407 H   0  0  0  0  0  0  0  0  0  0  0  0
  1  2  1  0  0  0  0
  1 22  1  0  0  0  0
  1 23  1  0  0  0  0
  1 24  1  0  0  0  0
  2 21  2  0  0  0  0
  2  3  1  0  0  0  0
  3  4  2  0  0  0  0
  3 25  1  0  0  0  0
  4  5  1  0  0  0  0
  4  6  1  0  0  0  0
  5 26  1  0  0  0  0
  5 27  1  0  0  0  0
  5 28  1  0  0  0  0
  6  7  1  0  0  0  0
  6 21  1  0  0  0  0
  7  8  1  0  0  0  0
  7 29  1  0  0  0  0
  7 30  1  0  0  0  0
  8  9  2  0  0  0  0
  8 10  1  0  0  0  0
 10 11  1  0  0  0  0
 10 31  1  0  0  0  0
 11 12  1  0  0  0  0
 11 32  1  0  0  0  0
 11 33  1  0  0  0  0
 12 13  1  0  0  0  0
 12 34  1  0  0  0  0
 12 35  1  0  0  0  0
 13 20  1  0  0  0  0
 13 14  1  0  0  0  0
 14 15  1  0  0  0  0
 14 36  1  0  0  0  0
 14 37  1  0  0  0  0
 15 16  1  0  0  0  0
 15 17  1  0  0  0  0
 15 38  1  0  0  0  0
 16 39  1  0  0  0  0
 16 40  1  0  0  0  0
 16 41  1  0  0  0  0
 17 18  1  0  0  0  0
 18 19  1  0  0  0  0
 18 20  1  0  0  0  0
 18 42  1  0  0  0  0
 19 43  1  0  0  0  0
 19 44  1  0  0  0  0
 19 45  1  0  0  0  0
 20 46  1  0  0  0  0
 20 47  1  0  0  0  0
M  END
> <s_m_source_file>
AV-unprocessed.smi

> <i_m_source_file_index>
2106

> <i_lp_mmshare_version>
43012

> <i_f3d_flags>
0

> <s_epik_input>
W0NIM11jMVtjSF1jKFtDSDNdKW4objEpW0NIMl1DKD1PKVtOSF1bQ0gyXVtDSDJdTjJbQ0gyXVtDQEBIXShbQ0gzXSlPW0NAQEhdKFtDSDNdKVtDSDJdMg==

> <s_epik_cmdline>
J2VwaWtfcHl0aG9uJywgJy1waCcsICc3LjAnLCAnLXRuJywgJzgnLCAnLW1hJywgJzIwMCcsICctbWV0YWxfYmluZGluZycsICctaW1hZScsICc8aW5maWxlLm1hZT4nLCAnLW9tYWUnLCAnPG91dGZpbGUubWFlPic=

> <r_lp_tautomer_probability>
1

> <r_epik_Ionization_Penalty>
0.197284

> <r_epik_Ionization_Penalty_Charging>
0

> <r_epik_Ionization_Penalty_Neutral>
0.197284

> <r_epik_State_Penalty>
0.186684

> <r_epik_Charging_Adjusted_Penalty>
0.186684

> <i_epik_Tot_Q>
0

> <i_epik_Tot_abs_Q>
0

> <r_epik_Metal_State_Penalty>
0.186634

> <b_epik_Metal_Only>
0

> <s_lp_Force_Field>
OPLS_2005

> <r_lp_Energy>
21.9362

> <b_lp_Chiralities_Consistent>
1

> <s_lp_Variant>
AV-unprocessed.smi:2106-2

> <Gold.Version>
5.8.1

> <Gold.Id.Protein>
6NUR|6NUR_protein|mol2

> <Gold.PLP.Fitness>
48.3049

> <Gold.PLP.PLP>
-43.6981

> <Gold.PLP.part.hbond>
-1.8868

> <Gold.PLP.part.metal>
0.0000

> <Gold.PLP.part.buried>
-5.2594

> <Gold.PLP.part.nonpolar>
-35.4280

> <Gold.PLP.part.repulsive>
0.2419

> <Gold.PLP.ligand.clash>
0.0000

> <Gold.PLP.ligand.torsion>
0.6941

> <Gold.PLP.Chemscore.Hbond>
1.9913

> <Gold.PLP.Chemscore.CHOScore>
0.0000

> <Gold.PLP.Chemscore.Metal>
0.0000

> <Gold.Chemscore.Hbonds>
donor molecule, donor type, donor heavy atom, donor atom, acceptor molecule, acceptor atom, score
      P1  H  7989  7998       L1    17  1.00
      P1  H  7997  8010       L1     9  1.00

> <Gold.PLP.Chemscore.Internal.Correction>
0.0212

> <Gold.Rescore>
     Score         DG    S(hbond)    S(metal)    S(lipo)     H(rot)  DE(clash)    DE(int)     intcor
     19.96     -20.43       1.97        0.00     108.12       1.67       0.04       0.43       ----

> <Gold.Chemscore.Fitness>
19.9559

> <Gold.Chemscore.DG>
-20.4291

> <Gold.Chemscore.ZeroCoef>
-5.4800

> <Gold.Chemscore.Hbond>
1.9650

> <Gold.Chemscore.Metal>
0.0000

> <Gold.Chemscore.Lipo>
108.1200

> <Gold.Chemscore.Internal_Hbond>
0.0000

> <Gold.Chemscore.DEClash>
0.0405

> <Gold.Chemscore.DEInternal>
0.4327

> <Gold.Chemscore.Rot>
1.6657

> <Gold.Chemscore.Internal.Correction>
   9.000000E+99

> <Gold.Chemscore.Hbonds>
donor molecule, donor type, donor heavy atom, donor atom, acceptor molecule, acceptor atom, score
      P1  H  7989  7998       L1    17  0.49
      P1  H  7997  8010       L1     9  0.93

> <Gold.Chemscore.Hbond.Weighted>
-6.5631

> <Gold.Chemscore.Metal.Weighted>
-0.0000

> <Gold.Chemscore.Lipo.Weighted>
-12.6500

> <Gold.Chemscore.Internal_Hbond.Weighted>
0.0000

> <Gold.Chemscore.DEClash.Weighted>
0.0405

> <Gold.Chemscore.DEInternal.Weighted>
0.4327

> <Gold.Chemscore.Rot.Weighted>
4.2641

> <Gold.Chemscore.Internal.Correction.Weighted>
   9.000000E+99

> <Gold.Protein.RotatedTorsions>
[ 6907 6896 6895 6894 ] final    7.70 input  -60.11 | X-H torsion
[ 7974 7965 7964 7962 ] final  -90.33 input  175.53 | X-H torsion
[ 8008 7997 7996 7995 ] final   31.50 input   59.86 | X-H torsion
[ 10167 10162 10161 10158 ] final  -31.49 input  -65.29 | X-H torsion
[ 10718 10713 10712 10709 ] final   92.20 input   66.30 | X-H torsion
[ 10763 10752 10751 10750 ] final  112.92 input  -60.55 | X-H torsion
[ 11005 11000 10999 10996 ] final  -39.25 input  -57.11 | X-H torsion

> <Gold.Protein.ActiveResidues>
 VAL166  LYS551  ARG553  GLY616  TRP617  ASP618  TYR619  PRO620  LYS621  CYS622 
 ASP623  PHE694  ASN695  SER759  ASP760  ASP761  ALA762  ILE779  LEU786  VAL792 
 PHE793  MET794  SER795  GLU796  ALA797  LYS798  CYS799  TRP800  GLU811  SER814 

> <Gold.Protein.RotatedAtoms>
  151.6942  135.0941  160.0238 H   0  0  0  0  0  0  0  0  0  0  0  0  # atno 6907 bound_to 6896
  152.3760  133.6478  159.6132 H   0  0  0  0  0  0  0  0  0  0  0  0  # atno 6908 bound_to 6896
  150.7709  133.9109  159.3410 H   0  0  0  0  0  0  0  0  0  0  0  0  # atno 6909 bound_to 6896
  145.4278  140.9554  143.2145 H   0  0  0  0  0  0  0  0  0  0  0  0  # atno 7974 bound_to 7965
  155.1075  140.3235  155.4530 H   0  0  0  0  0  0  0  0  0  0  0  0  # atno 8008 bound_to 7997
  156.2700  140.2050  156.6147 H   0  0  0  0  0  0  0  0  0  0  0  0  # atno 8009 bound_to 7997
  154.6781  140.0529  157.0224 H   0  0  0  0  0  0  0  0  0  0  0  0  # atno 8010 bound_to 7997
  140.7235  143.3767  151.1677 H   0  0  0  0  0  0  0  0  0  0  0  0  # atno 10167 bound_to 10162
  157.6959  131.0435  150.3846 H   0  0  0  0  0  0  0  0  0  0  0  0  # atno 10718 bound_to 10713
  153.4849  135.3671  155.2461 H   0  0  0  0  0  0  0  0  0  0  0  0  # atno 10763 bound_to 10752
  154.8754  135.3963  154.3657 H   0  0  0  0  0  0  0  0  0  0  0  0  # atno 10764 bound_to 10752
  153.4267  135.7081  153.6323 H   0  0  0  0  0  0  0  0  0  0  0  0  # atno 10765 bound_to 10752
  141.0088  133.6918  156.2161 H   0  0  0  0  0  0  0  0  0  0  0  0  # atno 11005 bound_to 11000
  144.8202  139.5804  143.6990 LP  0  0  0  0  0  0  0  0  0  0  0  0  # atno 17320 bound_to 7965
  146.2623  139.6438  142.9353 LP  0  0  0  0  0  0  0  0  0  0  0  0  # atno 17321 bound_to 7965
  139.7348  143.9016  152.3031 LP  0  0  0  0  0  0  0  0  0  0  0  0  # atno 17342 bound_to 10162
  139.8817  144.7014  150.8870 LP  0  0  0  0  0  0  0  0  0  0  0  0  # atno 17343 bound_to 10162
  156.4256  130.3961  149.6795 LP  0  0  0  0  0  0  0  0  0  0  0  0  # atno 17370 bound_to 10713
  156.4031  130.7684  151.2693 LP  0  0  0  0  0  0  0  0  0  0  0  0  # atno 17371 bound_to 10713
  140.6769  134.4809  157.5588 LP  0  0  0  0  0  0  0  0  0  0  0  0  # atno 17394 bound_to 11000
  139.9078  134.8411  156.1641 LP  0  0  0  0  0  0  0  0  0  0  0  0  # atno 17395 bound_to 11000

$$$$
