AV-unprocessed.smi:49|AV-procd|sdf|467|dock7
  -GOLD-   2262016333D 1   1.00000     0.00000
 Structure written by MMmdl.
 28 29  0  0  0  0  0  0  0  0  2 V2000
  153.5256  141.9831  160.4826 C   0  0  0  0  0  0  0  0  0  0  0  0
  152.8607  143.2859  160.0241 C   0  0  0  0  0  0  0  0  0  0  0  0
  151.7776  143.0464  159.0250 C   0  0  0  0  0  0  0  0  0  0  0  0
  151.5588  141.8255  158.4499 N   0  0  0  0  0  0  0  0  0  0  0  0
  150.5555  142.1259  157.6276 C   0  0  0  0  0  0  0  0  0  0  0  0
  149.8477  141.1702  156.7145 C   0  0  2  0  0  0  0  0  0  0  0  0
  150.7150  140.5702  155.6073 C   0  0  0  0  0  0  0  0  0  0  0  0
  149.7187  140.3519  154.4696 C   0  0  1  0  0  0  0  0  0  0  0  0
  149.0730  139.1035  154.6229 O   0  0  0  0  0  0  0  0  0  0  0  0
  148.6989  141.4901  154.6376 C   0  0  0  0  0  0  0  0  0  0  0  0
  148.8153  141.9721  156.0295 N   0  3  0  0  0  0  0  0  0  0  0  0
  150.2095  143.4134  157.7017 N   0  0  0  0  0  0  0  0  0  0  0  0
  151.0007  144.0400  158.5975 N   0  0  0  0  0  0  0  0  0  0  0  0
  149.3572  140.3821  157.2882 H   0  0  0  0  0  0  0  0  0  0  0  0
  150.2004  140.3766  153.4915 H   0  0  0  0  0  0  0  0  0  0  0  0
  149.4831  143.8874  157.1838 H   0  0  0  0  0  0  0  0  0  0  0  0
  154.3116  142.1838  161.2111 H   0  0  0  0  0  0  0  0  0  0  0  0
  153.9775  141.4551  159.6422 H   0  0  0  0  0  0  0  0  0  0  0  0
  152.8016  141.3144  160.9493 H   0  0  0  0  0  0  0  0  0  0  0  0
  152.4421  143.8103  160.8840 H   0  0  0  0  0  0  0  0  0  0  0  0
  153.6089  143.9509  159.5909 H   0  0  0  0  0  0  0  0  0  0  0  0
  151.4580  141.3001  155.2812 H   0  0  0  0  0  0  0  0  0  0  0  0
  151.2500  139.6708  155.9152 H   0  0  0  0  0  0  0  0  0  0  0  0
  149.1277  138.6310  153.8056 H   0  0  0  0  0  0  0  0  0  0  0  0
  148.9483  142.3200  153.9757 H   0  0  0  0  0  0  0  0  0  0  0  0
  147.6780  141.1818  154.4075 H   0  0  0  0  0  0  0  0  0  0  0  0
  147.9333  141.9015  156.5161 H   0  0  0  0  0  0  0  0  0  0  0  0
  149.1185  142.9359  156.0112 H   0  0  0  0  0  0  0  0  0  0  0  0
  1  2  1  0  0  0  0
  1 17  1  0  0  0  0
  1 18  1  0  0  0  0
  1 19  1  0  0  0  0
  2 20  1  0  0  0  0
  2 21  1  0  0  0  0
  2  3  1  0  0  0  0
  3  4  1  0  0  0  0
  3 13  2  0  0  0  0
  4  5  2  0  0  0  0
  5  6  1  0  0  0  0
  5 12  1  0  0  0  0
  6 14  1  0  0  0  0
  6 11  1  0  0  0  0
  6  7  1  0  0  0  0
  7  8  1  0  0  0  0
  7 22  1  0  0  0  0
  7 23  1  0  0  0  0
  8 15  1  0  0  0  0
  8  9  1  0  0  0  0
  8 10  1  0  0  0  0
  9 24  1  0  0  0  0
 10 11  1  0  0  0  0
 10 25  1  0  0  0  0
 10 26  1  0  0  0  0
 11 27  1  0  0  0  0
 11 28  1  0  0  0  0
 12 13  1  0  0  0  0
 12 16  1  0  0  0  0
M  CHG  1  11   1
M  END
> <s_m_source_file>
AV-unprocessed.smi

> <i_m_source_file_index>
49

> <i_lp_mmshare_version>
43012

> <i_f3d_flags>
0

> <s_epik_input>
W0NIM11bQ0gyXWMxbmMobltuSF0xKVtDQEBIXTJbQ0gyXVtDQEBIXShbT0hdKVtDSDJdW05IXTI=

> <s_epik_cmdline>
J2VwaWtfcHl0aG9uJywgJy1waCcsICc3LjAnLCAnLXRuJywgJzgnLCAnLW1hJywgJzIwMCcsICctbWV0YWxfYmluZGluZycsICctaW1hZScsICc8aW5maWxlLm1hZT4nLCAnLW9tYWUnLCAnPG91dGZpbGUubWFlPic=

> <r_epik_Ionization_Penalty>
0.372103

> <r_epik_Ionization_Penalty_Charging>
0.0688988

> <r_epik_Ionization_Penalty_Neutral>
0.303204

> <r_epik_State_Penalty>
0.737493

> <r_epik_Charging_Adjusted_Penalty>
0.806392

> <i_epik_Tot_Q>
1

> <i_epik_Tot_abs_Q>
1

> <r_epik_Metal_State_Penalty>
1.01235

> <b_epik_Metal_Only>
0

> <s_lp_Force_Field>
OPLS_2005

> <r_lp_Energy>
18.9462

> <b_lp_Chiralities_Consistent>
1

> <s_lp_Variant>
AV-unprocessed.smi:49-5

> <Gold.Version>
5.8.1

> <Gold.Id.Protein>
6NUR|6NUR_protein|mol2

> <Gold.PLP.Fitness>
35.0665

> <Gold.PLP.PLP>
-26.1939

> <Gold.PLP.part.hbond>
-2.0000

> <Gold.PLP.part.metal>
0.0000

> <Gold.PLP.part.buried>
-2.8894

> <Gold.PLP.part.nonpolar>
-21.9246

> <Gold.PLP.part.repulsive>
0.2246

> <Gold.PLP.ligand.clash>
0.0000

> <Gold.PLP.ligand.torsion>
0.0735

> <Gold.PLP.Chemscore.Hbond>
3.0000

> <Gold.PLP.Chemscore.CHOScore>
0.0000

> <Gold.PLP.Chemscore.Metal>
0.0000

> <Gold.Chemscore.Hbonds>
donor molecule, donor type, donor heavy atom, donor atom, acceptor molecule, acceptor atom, score
      L1  H    11    28       P1  8028  2.00
      L1  H    12    16       P1  8028  1.00

> <Gold.PLP.Chemscore.Internal.Correction>
0.0196

> <Gold.Rescore>
     Score         DG    S(hbond)    S(metal)    S(lipo)     H(rot)  DE(clash)    DE(int)     intcor
     12.56     -12.85       1.95        0.00      48.60       1.89       0.00       0.29       ----

> <Gold.Chemscore.Fitness>
12.5586

> <Gold.Chemscore.DG>
-12.8460

> <Gold.Chemscore.ZeroCoef>
-5.4800

> <Gold.Chemscore.Hbond>
1.9501

> <Gold.Chemscore.Metal>
0.0000

> <Gold.Chemscore.Lipo>
48.6044

> <Gold.Chemscore.Internal_Hbond>
0.0000

> <Gold.Chemscore.DEClash>
0.0000

> <Gold.Chemscore.DEInternal>
0.2873

> <Gold.Chemscore.Rot>
1.8883

> <Gold.Chemscore.Internal.Correction>
   9.000000E+99

> <Gold.Chemscore.Hbonds>
donor molecule, donor type, donor heavy atom, donor atom, acceptor molecule, acceptor atom, score
      L1  H    11    28       P1  8028  0.97
      L1  H    12    16       P1  8028  0.58

> <Gold.Chemscore.Hbond.Weighted>
-6.5132

> <Gold.Chemscore.Metal.Weighted>
-0.0000

> <Gold.Chemscore.Lipo.Weighted>
-5.6867

> <Gold.Chemscore.Internal_Hbond.Weighted>
0.0000

> <Gold.Chemscore.DEClash.Weighted>
0.0000

> <Gold.Chemscore.DEInternal.Weighted>
0.2873

> <Gold.Chemscore.Rot.Weighted>
4.8340

> <Gold.Chemscore.Internal.Correction.Weighted>
   9.000000E+99

> <Gold.Protein.RotatedTorsions>
[ 6907 6896 6895 6894 ] final  -49.01 input  -60.11 | X-H torsion
[ 7974 7965 7964 7962 ] final   97.34 input  175.53 | X-H torsion
[ 8008 7997 7996 7995 ] final  -89.96 input   59.86 | X-H torsion
[ 10167 10162 10161 10158 ] final   35.79 input  -65.29 | X-H torsion
[ 10718 10713 10712 10709 ] final    3.40 input   66.30 | X-H torsion
[ 10763 10752 10751 10750 ] final  112.88 input  -60.55 | X-H torsion
[ 11005 11000 10999 10996 ] final   76.89 input  -57.11 | X-H torsion

> <Gold.Protein.ActiveResidues>
 VAL166  LYS551  ARG553  GLY616  TRP617  ASP618  TYR619  PRO620  LYS621  CYS622 
 ASP623  PHE694  ASN695  SER759  ASP760  ASP761  ALA762  ILE779  LEU786  VAL792 
 PHE793  MET794  SER795  GLU796  ALA797  LYS798  CYS799  TRP800  GLU811  SER814 

> <Gold.Protein.RotatedAtoms>
  150.8848  134.8244  159.7250 H   0  0  0  0  0  0  0  0  0  0  0  0  # atno 6907 bound_to 6896
  152.4800  134.4740  159.9654 H   0  0  0  0  0  0  0  0  0  0  0  0  # atno 6908 bound_to 6896
  151.4810  133.3507  159.2873 H   0  0  0  0  0  0  0  0  0  0  0  0  # atno 6909 bound_to 6896
  145.4267  139.2315  143.3166 H   0  0  0  0  0  0  0  0  0  0  0  0  # atno 7974 bound_to 7965
  154.6929  140.0536  157.0381 H   0  0  0  0  0  0  0  0  0  0  0  0  # atno 8008 bound_to 7997
  155.0792  140.3207  155.4588 H   0  0  0  0  0  0  0  0  0  0  0  0  # atno 8009 bound_to 7997
  156.2734  140.2068  156.5919 H   0  0  0  0  0  0  0  0  0  0  0  0  # atno 8010 bound_to 7997
  140.4188  144.1489  150.6146 H   0  0  0  0  0  0  0  0  0  0  0  0  # atno 10167 bound_to 10162
  156.8772  130.5641  149.5654 H   0  0  0  0  0  0  0  0  0  0  0  0  # atno 10718 bound_to 10713
  153.4843  135.3672  155.2458 H   0  0  0  0  0  0  0  0  0  0  0  0  # atno 10763 bound_to 10752
  154.8754  135.3962  154.3663 H   0  0  0  0  0  0  0  0  0  0  0  0  # atno 10764 bound_to 10752
  153.4272  135.7081  153.6320 H   0  0  0  0  0  0  0  0  0  0  0  0  # atno 10765 bound_to 10752
  139.9278  134.7638  156.1452 H   0  0  0  0  0  0  0  0  0  0  0  0  # atno 11005 bound_to 11000
  146.2628  140.4999  142.8846 LP  0  0  0  0  0  0  0  0  0  0  0  0  # atno 17320 bound_to 7965
  144.8209  140.6548  143.6353 LP  0  0  0  0  0  0  0  0  0  0  0  0  # atno 17321 bound_to 7965
  140.4556  143.2469  151.9289 LP  0  0  0  0  0  0  0  0  0  0  0  0  # atno 17342 bound_to 10162
  139.4782  144.5518  151.8373 LP  0  0  0  0  0  0  0  0  0  0  0  0  # atno 17343 bound_to 10162
  156.0696  130.5731  150.9356 LP  0  0  0  0  0  0  0  0  0  0  0  0  # atno 17370 bound_to 10713
  157.6161  131.0933  150.8707 LP  0  0  0  0  0  0  0  0  0  0  0  0  # atno 17371 bound_to 10713
  141.0848  133.6739  156.2412 LP  0  0  0  0  0  0  0  0  0  0  0  0  # atno 17394 bound_to 11000
  140.6286  134.5287  157.5557 LP  0  0  0  0  0  0  0  0  0  0  0  0  # atno 17395 bound_to 11000

$$$$
