AV-unprocessed.smi:1786|AV-procd|sdf|7203|dock6
  -GOLD-   22720 8443D 1   1.00000     0.00000
 Structure written by MMmdl.
 44 45  0  0  0  0  0  0  0  0  2 V2000
  144.2126  134.6514  150.6638 C   0  0  0  0  0  0  0  0  0  0  0  0
  143.6661  133.5236  151.5657 C   0  0  1  0  0  0  0  0  0  0  0  0
  144.0796  132.1222  151.0692 C   0  0  0  0  0  0  0  0  0  0  0  0
  145.5647  131.8316  151.3308 C   0  0  0  0  0  0  0  0  0  0  0  0
  145.8884  132.0445  152.8146 C   0  0  0  0  0  0  0  0  0  0  0  0
  145.4658  133.4473  153.2808 C   0  0  0  0  0  0  0  0  0  0  0  0
  144.0230  133.6906  153.0068 N   0  3  1  0  0  0  0  0  0  0  0  0
  143.5052  134.9460  153.6090 C   0  0  0  0  0  0  0  0  0  0  0  0
  141.9771  135.0740  153.4630 C   0  0  0  0  0  0  0  0  0  0  0  0
  141.4043  135.8977  154.5210 N   0  0  0  0  0  0  0  0  0  0  0  0
  140.4305  136.8040  154.3465 C   0  0  0  0  0  0  0  0  0  0  0  0
  139.9330  137.0514  153.2472 O   0  0  0  0  0  0  0  0  0  0  0  0
  139.9727  137.5544  155.6054 C   0  0  0  0  0  0  0  0  0  0  0  0
  138.5514  137.3415  155.9254 N   0  0  0  0  0  0  0  0  0  0  0  0
  137.6141  137.6337  154.9145 C   0  0  0  0  0  0  0  0  0  0  0  0
  136.2945  137.4748  155.1025 C   0  0  0  0  0  0  0  0  0  0  0  0
  135.8412  136.9898  156.3845 C   0  0  0  0  0  0  0  0  0  0  0  0
  136.7293  136.7034  157.3571 C   0  0  0  0  0  0  0  0  0  0  0  0
  138.1728  136.8729  157.1549 C   0  0  0  0  0  0  0  0  0  0  0  0
  138.9922  136.6096  158.0356 O   0  0  0  0  0  0  0  0  0  0  0  0
  143.9061  134.4969  149.6290 H   0  0  0  0  0  0  0  0  0  0  0  0
  145.3007  134.7020  150.6736 H   0  0  0  0  0  0  0  0  0  0  0  0
  143.8336  135.6284  150.9627 H   0  0  0  0  0  0  0  0  0  0  0  0
  142.5777  133.5666  151.5015 H   0  0  0  0  0  0  0  0  0  0  0  0
  143.4766  131.3698  151.5795 H   0  0  0  0  0  0  0  0  0  0  0  0
  143.8585  132.0151  150.0066 H   0  0  0  0  0  0  0  0  0  0  0  0
  145.8040  130.8088  151.0382 H   0  0  0  0  0  0  0  0  0  0  0  0
  146.1891  132.4814  150.7173 H   0  0  0  0  0  0  0  0  0  0  0  0
  145.3739  131.2910  153.4124 H   0  0  0  0  0  0  0  0  0  0  0  0
  146.9553  131.8998  152.9874 H   0  0  0  0  0  0  0  0  0  0  0  0
  145.6657  133.5321  154.3485 H   0  0  0  0  0  0  0  0  0  0  0  0
  146.0751  134.2091  152.7936 H   0  0  0  0  0  0  0  0  0  0  0  0
  143.7993  135.0061  154.6578 H   0  0  0  0  0  0  0  0  0  0  0  0
  143.9700  135.7965  153.1084 H   0  0  0  0  0  0  0  0  0  0  0  0
  141.7200  135.4910  152.4875 H   0  0  0  0  0  0  0  0  0  0  0  0
  141.4983  134.0971  153.5182 H   0  0  0  0  0  0  0  0  0  0  0  0
  141.7609  135.7580  155.4557 H   0  0  0  0  0  0  0  0  0  0  0  0
  140.5934  137.2572  156.4530 H   0  0  0  0  0  0  0  0  0  0  0  0
  140.1782  138.6157  155.4605 H   0  0  0  0  0  0  0  0  0  0  0  0
  138.0343  137.9856  153.9835 H   0  0  0  0  0  0  0  0  0  0  0  0
  135.5909  137.7003  154.3145 H   0  0  0  0  0  0  0  0  0  0  0  0
  134.7848  136.8550  156.5643 H   0  0  0  0  0  0  0  0  0  0  0  0
  136.3717  136.3404  158.3095 H   0  0  0  0  0  0  0  0  0  0  0  0
  143.5268  132.9482  153.4793 H   0  0  0  0  0  0  0  0  0  0  0  0
  1  2  1  0  0  0  0
  1 21  1  0  0  0  0
  1 22  1  0  0  0  0
  1 23  1  0  0  0  0
  2  7  1  0  0  0  0
  2  3  1  0  0  0  0
  2 24  1  0  0  0  0
  3  4  1  0  0  0  0
  3 25  1  0  0  0  0
  3 26  1  0  0  0  0
  4  5  1  0  0  0  0
  4 27  1  0  0  0  0
  4 28  1  0  0  0  0
  5  6  1  0  0  0  0
  5 29  1  0  0  0  0
  5 30  1  0  0  0  0
  6  7  1  0  0  0  0
  6 31  1  0  0  0  0
  6 32  1  0  0  0  0
  7  8  1  0  0  0  0
  7 44  1  0  0  0  0
  8  9  1  0  0  0  0
  8 33  1  0  0  0  0
  8 34  1  0  0  0  0
  9 10  1  0  0  0  0
  9 35  1  0  0  0  0
  9 36  1  0  0  0  0
 10 11  1  0  0  0  0
 10 37  1  0  0  0  0
 11 12  2  0  0  0  0
 11 13  1  0  0  0  0
 13 14  1  0  0  0  0
 13 38  1  0  0  0  0
 13 39  1  0  0  0  0
 14 19  1  0  0  0  0
 14 15  1  0  0  0  0
 15 16  2  0  0  0  0
 15 40  1  0  0  0  0
 16 17  1  0  0  0  0
 16 41  1  0  0  0  0
 17 18  2  0  0  0  0
 17 42  1  0  0  0  0
 18 19  1  0  0  0  0
 18 43  1  0  0  0  0
 19 20  2  0  0  0  0
M  CHG  1   7   1
M  END
> <s_m_source_file>
AV-unprocessed.smi

> <i_m_source_file_index>
1786

> <i_lp_mmshare_version>
43012

> <i_f3d_flags>
0

> <s_epik_input>
W0NIM11bQ0BASF0xW0NIMl1bQ0gyXVtDSDJdW0NIMl1OMVtDSDJdW0NIMl1bTkhdQyg9TylbQ0gyXW4yW2NIXVtjSF1bY0hdW2NIXWMyPU8=

> <s_epik_cmdline>
J2VwaWtfcHl0aG9uJywgJy1waCcsICc3LjAnLCAnLXRuJywgJzgnLCAnLW1hJywgJzIwMCcsICctbWV0YWxfYmluZGluZycsICctaW1hZScsICc8aW5maWxlLm1hZT4nLCAnLW9tYWUnLCAnPG91dGZpbGUubWFlPic=

> <r_lp_tautomer_probability>
1

> <r_epik_Ionization_Penalty>
0.00237247

> <r_epik_Ionization_Penalty_Charging>
0.00237238

> <r_epik_Ionization_Penalty_Neutral>
8.2065e-08

> <r_epik_State_Penalty>
0.00163922

> <r_epik_Charging_Adjusted_Penalty>
0.0040116

> <i_epik_Tot_Q>
1

> <i_epik_Tot_abs_Q>
1

> <r_epik_Metal_State_Penalty>
-0

> <b_epik_Metal_Only>
0

> <s_lp_Force_Field>
OPLS_2005

> <r_lp_Energy>
28.482

> <b_lp_Chiralities_Consistent>
1

> <s_lp_Variant>
AV-unprocessed.smi:1786-2

> <Gold.Version>
5.8.1

> <Gold.Id.Protein>
6NUR|6NUR_protein|mol2

> <Gold.PLP.Fitness>
42.6909

> <Gold.PLP.PLP>
-34.2961

> <Gold.PLP.part.hbond>
-3.0000

> <Gold.PLP.part.metal>
0.0000

> <Gold.PLP.part.buried>
-6.3494

> <Gold.PLP.part.nonpolar>
-26.2379

> <Gold.PLP.part.repulsive>
0.2464

> <Gold.PLP.ligand.clash>
0.0000

> <Gold.PLP.ligand.torsion>
0.3316

> <Gold.PLP.Chemscore.Hbond>
3.0000

> <Gold.PLP.Chemscore.CHOScore>
0.0000

> <Gold.PLP.Chemscore.Metal>
0.0000

> <Gold.Chemscore.Hbonds>
donor molecule, donor type, donor heavy atom, donor atom, acceptor molecule, acceptor atom, score
      L1  H     7    44       P1 10957  2.00
      P1  H 11000 11005       L1    20  0.67

> <Gold.PLP.Chemscore.Internal.Correction>
0.0580

> <Gold.Rescore>
     Score         DG    S(hbond)    S(metal)    S(lipo)     H(rot)  DE(clash)    DE(int)     intcor
     14.47     -15.12       1.95        0.00      67.33       1.86       0.14       0.51       ----

> <Gold.Chemscore.Fitness>
14.4694

> <Gold.Chemscore.DG>
-15.1171

> <Gold.Chemscore.ZeroCoef>
-5.4800

> <Gold.Chemscore.Hbond>
1.9514

> <Gold.Chemscore.Metal>
0.0000

> <Gold.Chemscore.Lipo>
67.3298

> <Gold.Chemscore.Internal_Hbond>
0.0000

> <Gold.Chemscore.DEClash>
0.1370

> <Gold.Chemscore.DEInternal>
0.5108

> <Gold.Chemscore.Rot>
1.8586

> <Gold.Chemscore.Internal.Correction>
   9.000000E+99

> <Gold.Chemscore.Hbonds>
donor molecule, donor type, donor heavy atom, donor atom, acceptor molecule, acceptor atom, score
      L1  H     7    44       P1 10957  0.81
      P1  H 11000 11005       L1    20  0.13

> <Gold.Chemscore.Hbond.Weighted>
-6.5177

> <Gold.Chemscore.Metal.Weighted>
-0.0000

> <Gold.Chemscore.Lipo.Weighted>
-7.8776

> <Gold.Chemscore.Internal_Hbond.Weighted>
0.0000

> <Gold.Chemscore.DEClash.Weighted>
0.1370

> <Gold.Chemscore.DEInternal.Weighted>
0.5108

> <Gold.Chemscore.Rot.Weighted>
4.7581

> <Gold.Chemscore.Internal.Correction.Weighted>
   9.000000E+99

> <Gold.Protein.RotatedTorsions>
[ 6907 6896 6895 6894 ] final  -67.54 input  -60.11 | X-H torsion
[ 7974 7965 7964 7962 ] final   -8.01 input  175.53 | X-H torsion
[ 8008 7997 7996 7995 ] final  114.34 input   59.86 | X-H torsion
[ 10167 10162 10161 10158 ] final  -61.85 input  -65.29 | X-H torsion
[ 10718 10713 10712 10709 ] final   98.75 input   66.30 | X-H torsion
[ 10763 10752 10751 10750 ] final  162.05 input  -60.55 | X-H torsion
[ 11005 11000 10999 10996 ] final  135.82 input  -57.11 | X-H torsion

> <Gold.Protein.ActiveResidues>
 VAL166  LYS551  ARG553  GLY616  TRP617  ASP618  TYR619  PRO620  LYS621  CYS622 
 ASP623  PHE694  ASN695  SER759  ASP760  ASP761  ALA762  ILE779  LEU786  VAL792 
 PHE793  MET794  SER795  GLU796  ALA797  LYS798  CYS799  TRP800  GLU811  SER814 

> <Gold.Protein.RotatedAtoms>
  150.7404  134.5866  159.5965 H   0  0  0  0  0  0  0  0  0  0  0  0  # atno 6907 bound_to 6896
  152.3265  134.7311  160.0309 H   0  0  0  0  0  0  0  0  0  0  0  0  # atno 6908 bound_to 6896
  151.7809  133.3314  159.3508 H   0  0  0  0  0  0  0  0  0  0  0  0  # atno 6909 bound_to 6896
  146.2292  140.2405  142.8343 H   0  0  0  0  0  0  0  0  0  0  0  0  # atno 7974 bound_to 7965
  156.2315  140.2961  156.0201 H   0  0  0  0  0  0  0  0  0  0  0  0  # atno 8008 bound_to 7997
  155.2212  140.0415  157.2965 H   0  0  0  0  0  0  0  0  0  0  0  0  # atno 8009 bound_to 7997
  154.6004  140.2425  155.7808 H   0  0  0  0  0  0  0  0  0  0  0  0  # atno 8010 bound_to 7997
  140.5979  143.2355  151.5995 H   0  0  0  0  0  0  0  0  0  0  0  0  # atno 10167 bound_to 10162
  157.6890  131.0649  150.4843 H   0  0  0  0  0  0  0  0  0  0  0  0  # atno 10718 bound_to 10713
  154.2724  135.2765  155.2732 H   0  0  0  0  0  0  0  0  0  0  0  0  # atno 10763 bound_to 10752
  154.5289  135.5735  153.6746 H   0  0  0  0  0  0  0  0  0  0  0  0  # atno 10764 bound_to 10752
  152.9943  135.6223  154.2880 H   0  0  0  0  0  0  0  0  0  0  0  0  # atno 10765 bound_to 10752
  140.0005  134.9480  157.0060 H   0  0  0  0  0  0  0  0  0  0  0  0  # atno 11005 bound_to 11000
  144.9488  140.8157  143.5584 LP  0  0  0  0  0  0  0  0  0  0  0  0  # atno 17320 bound_to 7965
  145.2363  139.2092  143.5016 LP  0  0  0  0  0  0  0  0  0  0  0  0  # atno 17321 bound_to 7965
  139.5270  144.3028  152.1059 LP  0  0  0  0  0  0  0  0  0  0  0  0  # atno 17342 bound_to 10162
  140.2204  144.4472  150.6345 LP  0  0  0  0  0  0  0  0  0  0  0  0  # atno 17343 bound_to 10162
  156.5173  130.4153  149.6269 LP  0  0  0  0  0  0  0  0  0  0  0  0  # atno 17370 bound_to 10713
  156.3186  130.7268  151.2175 LP  0  0  0  0  0  0  0  0  0  0  0  0  # atno 17371 bound_to 10713
  140.4737  134.1360  155.7207 LP  0  0  0  0  0  0  0  0  0  0  0  0  # atno 17394 bound_to 11000
  141.1638  133.8742  157.1773 LP  0  0  0  0  0  0  0  0  0  0  0  0  # atno 17395 bound_to 11000

$$$$
