AV-unprocessed.smi:1645|AV-procd|sdf|6606|dock1
  -GOLD-   22720 7303D 1   1.00000     0.00000
 Structure written by MMmdl.
 55 58  0  0  0  0  0  0  0  0  2 V2000
  149.5537  135.4415  156.2196 O   0  0  0  0  0  0  0  0  0  0  0  0
  149.4482  135.7460  155.0316 C   0  0  0  0  0  0  0  0  0  0  0  0
  149.8061  136.9257  154.4975 N   0  0  0  0  0  0  0  0  0  0  0  0
  150.3476  138.0573  155.1629 C   0  0  0  0  0  0  0  0  0  0  0  0
  151.3513  138.8906  154.6179 C   0  0  0  0  0  0  0  0  0  0  0  0
  151.8235  139.9760  155.3802 C   0  0  0  0  0  0  0  0  0  0  0  0
  151.2885  140.2008  156.6701 C   0  0  0  0  0  0  0  0  0  0  0  0
  151.7437  141.2893  157.4444 N   0  0  0  0  0  0  0  0  0  0  0  0
  152.3526  140.9358  158.7280 C   0  0  0  0  0  0  0  0  0  0  0  0
  153.1766  142.1067  159.2917 C   0  0  0  0  0  0  0  0  0  0  0  0
  152.3355  143.3899  159.3672 C   0  0  0  0  0  0  0  0  0  0  0  0
  151.7327  143.7050  157.9902 C   0  0  0  0  0  0  0  0  0  0  0  0
  150.9310  142.5080  157.4515 C   0  0  0  0  0  0  0  0  0  0  0  0
  150.3355  139.3918  157.1943 N   0  0  0  0  0  0  0  0  0  0  0  0
  149.8889  138.3502  156.4622 C   0  0  0  0  0  0  0  0  0  0  0  0
  148.9665  134.9139  154.0968 N   0  0  0  0  0  0  0  0  0  0  0  0
  148.5457  133.5339  154.3352 C   0  0  2  0  0  0  0  0  0  0  0  0
  149.5953  132.4984  153.8893 C   0  0  0  0  0  0  0  0  0  0  0  0
  148.7760  131.3602  153.2725 C   0  0  0  0  0  0  0  0  0  0  0  0
  147.6422  132.0666  152.6654 N   0  3  1  0  0  0  0  0  0  0  0  0
  146.4966  131.2747  152.1741 C   0  0  0  0  0  0  0  0  0  0  0  0
  145.5388  132.2208  151.4182 C   0  0  0  0  0  0  0  0  0  0  0  0
  145.1508  133.4579  152.2601 C   0  0  0  0  0  0  0  0  0  0  0  0
  146.3898  134.1638  152.8531 C   0  0  0  0  0  0  0  0  0  0  0  0
  147.2418  133.1267  153.6068 C   0  0  2  0  0  0  0  0  0  0  0  0
  149.7529  136.9983  153.4920 H   0  0  0  0  0  0  0  0  0  0  0  0
  151.7723  138.7136  153.6403 H   0  0  0  0  0  0  0  0  0  0  0  0
  152.5775  140.6281  154.9656 H   0  0  0  0  0  0  0  0  0  0  0  0
  151.5579  140.6725  159.4271 H   0  0  0  0  0  0  0  0  0  0  0  0
  152.9937  140.0595  158.6422 H   0  0  0  0  0  0  0  0  0  0  0  0
  153.5598  141.8514  160.2798 H   0  0  0  0  0  0  0  0  0  0  0  0
  154.0466  142.2781  158.6566 H   0  0  0  0  0  0  0  0  0  0  0  0
  151.5368  143.2652  160.0995 H   0  0  0  0  0  0  0  0  0  0  0  0
  152.9486  144.2236  159.7102 H   0  0  0  0  0  0  0  0  0  0  0  0
  151.0926  144.5855  158.0526 H   0  0  0  0  0  0  0  0  0  0  0  0
  152.5321  143.9523  157.2904 H   0  0  0  0  0  0  0  0  0  0  0  0
  150.5857  142.7357  156.4421 H   0  0  0  0  0  0  0  0  0  0  0  0
  150.0455  142.3443  158.0670 H   0  0  0  0  0  0  0  0  0  0  0  0
  149.1330  137.7354  156.9285 H   0  0  0  0  0  0  0  0  0  0  0  0
  148.9164  135.2487  153.1457 H   0  0  0  0  0  0  0  0  0  0  0  0
  148.3890  133.4015  155.4078 H   0  0  0  0  0  0  0  0  0  0  0  0
  150.2476  132.9253  153.1255 H   0  0  0  0  0  0  0  0  0  0  0  0
  150.2282  132.1597  154.7102 H   0  0  0  0  0  0  0  0  0  0  0  0
  149.3397  130.7843  152.5383 H   0  0  0  0  0  0  0  0  0  0  0  0
  148.4165  130.6806  154.0471 H   0  0  0  0  0  0  0  0  0  0  0  0
  146.8512  130.4875  151.5080 H   0  0  0  0  0  0  0  0  0  0  0  0
  145.9886  130.7896  153.0087 H   0  0  0  0  0  0  0  0  0  0  0  0
  146.0202  132.5550  150.4981 H   0  0  0  0  0  0  0  0  0  0  0  0
  144.6423  131.6796  151.1146 H   0  0  0  0  0  0  0  0  0  0  0  0
  144.5751  134.1581  151.6541 H   0  0  0  0  0  0  0  0  0  0  0  0
  144.4936  133.1449  153.0724 H   0  0  0  0  0  0  0  0  0  0  0  0
  146.9728  134.6308  152.0580 H   0  0  0  0  0  0  0  0  0  0  0  0
  146.0690  134.9604  153.5245 H   0  0  0  0  0  0  0  0  0  0  0  0
  146.6049  132.6657  154.3652 H   0  0  0  0  0  0  0  0  0  0  0  0
  148.0250  132.5421  151.8608 H   0  0  0  0  0  0  0  0  0  0  0  0
  1  2  2  0  0  0  0
  2  3  1  0  0  0  0
  2 16  1  0  0  0  0
  3  4  1  0  0  0  0
  3 26  1  0  0  0  0
  4 15  1  0  0  0  0
  4  5  2  0  0  0  0
  5  6  1  0  0  0  0
  5 27  1  0  0  0  0
  6  7  2  0  0  0  0
  6 28  1  0  0  0  0
  7  8  1  0  0  0  0
  7 14  1  0  0  0  0
  8 13  1  0  0  0  0
  8  9  1  0  0  0  0
  9 10  1  0  0  0  0
  9 29  1  0  0  0  0
  9 30  1  0  0  0  0
 10 11  1  0  0  0  0
 10 31  1  0  0  0  0
 10 32  1  0  0  0  0
 11 12  1  0  0  0  0
 11 33  1  0  0  0  0
 11 34  1  0  0  0  0
 12 13  1  0  0  0  0
 12 35  1  0  0  0  0
 12 36  1  0  0  0  0
 13 37  1  0  0  0  0
 13 38  1  0  0  0  0
 14 15  2  0  0  0  0
 15 39  1  0  0  0  0
 16 17  1  0  0  0  0
 16 40  1  0  0  0  0
 17 25  1  0  0  0  0
 17 18  1  0  0  0  0
 17 41  1  0  0  0  0
 18 19  1  0  0  0  0
 18 42  1  0  0  0  0
 18 43  1  0  0  0  0
 19 20  1  0  0  0  0
 19 44  1  0  0  0  0
 19 45  1  0  0  0  0
 20 25  1  0  0  0  0
 20 21  1  0  0  0  0
 20 55  1  0  0  0  0
 21 22  1  0  0  0  0
 21 46  1  0  0  0  0
 21 47  1  0  0  0  0
 22 23  1  0  0  0  0
 22 48  1  0  0  0  0
 22 49  1  0  0  0  0
 23 24  1  0  0  0  0
 23 50  1  0  0  0  0
 23 51  1  0  0  0  0
 24 25  1  0  0  0  0
 24 52  1  0  0  0  0
 24 53  1  0  0  0  0
 25 54  1  0  0  0  0
M  CHG  1  20   1
M  END
> <s_m_source_file>
AV-unprocessed.smi

> <i_m_source_file_index>
1645

> <i_lp_mmshare_version>
43012

> <i_f3d_flags>
0

> <s_epik_input>
W0NIMl0xW0NIMl1bQ0gyXVtDSDJdW0NASF0oTjEyKVtDQEBIXShbQ0gyXVtDSDJdMilbTkhdQyg9TylbTkhdYzNbY0hdW2NIXWMobltjSF0zKU40W0NIMl1bQ0gyXVtDSDJdW0NIMl1bQ0gyXTQ=

> <s_epik_cmdline>
J2VwaWtfcHl0aG9uJywgJy1waCcsICc3LjAnLCAnLXRuJywgJzgnLCAnLW1hJywgJzIwMCcsICctbWV0YWxfYmluZGluZycsICctaW1hZScsICc8aW5maWxlLm1hZT4nLCAnLW9tYWUnLCAnPG91dGZpbGUubWFlPic=

> <r_lp_tautomer_probability>
1

> <r_epik_Ionization_Penalty>
0.0808019

> <r_epik_Ionization_Penalty_Charging>
0.000974069

> <r_epik_Ionization_Penalty_Neutral>
0.0798278

> <r_epik_State_Penalty>
0.0653665

> <r_epik_Charging_Adjusted_Penalty>
0.0663406

> <i_epik_Tot_Q>
1

> <i_epik_Tot_abs_Q>
1

> <r_epik_Metal_State_Penalty>
0.0585673

> <b_epik_Metal_Only>
0

> <s_lp_Force_Field>
OPLS_2005

> <r_lp_Energy>
57.223

> <b_lp_Chiralities_Consistent>
1

> <s_lp_Variant>
AV-unprocessed.smi:1645-7

> <Gold.Version>
5.8.1

> <Gold.Id.Protein>
6NUR|6NUR_protein|mol2

> <Gold.PLP.Fitness>
48.7437

> <Gold.PLP.PLP>
-44.3661

> <Gold.PLP.part.hbond>
-2.9747

> <Gold.PLP.part.metal>
0.0000

> <Gold.PLP.part.buried>
-2.0800

> <Gold.PLP.part.nonpolar>
-38.6135

> <Gold.PLP.part.repulsive>
0.0706

> <Gold.PLP.ligand.clash>
0.0000

> <Gold.PLP.ligand.torsion>
0.8291

> <Gold.PLP.Chemscore.Hbond>
1.8640

> <Gold.PLP.Chemscore.CHOScore>
0.0000

> <Gold.PLP.Chemscore.Metal>
0.0000

> <Gold.Chemscore.Hbonds>
donor molecule, donor type, donor heavy atom, donor atom, acceptor molecule, acceptor atom, score
      L1  H     3    26       P1  7948  0.91
      L1  H    16    40       P1  7948  1.00

> <Gold.PLP.Chemscore.Internal.Correction>
0.4438

> <Gold.Rescore>
     Score         DG    S(hbond)    S(metal)    S(lipo)     H(rot)  DE(clash)    DE(int)     intcor
     19.43     -21.55       1.89        0.00     109.04       1.17       0.14       1.98       ----

> <Gold.Chemscore.Fitness>
19.4349

> <Gold.Chemscore.DG>
-21.5495

> <Gold.Chemscore.ZeroCoef>
-5.4800

> <Gold.Chemscore.Hbond>
1.8906

> <Gold.Chemscore.Metal>
0.0000

> <Gold.Chemscore.Lipo>
109.0448

> <Gold.Chemscore.Internal_Hbond>
0.0000

> <Gold.Chemscore.DEClash>
0.1355

> <Gold.Chemscore.DEInternal>
1.9791

> <Gold.Chemscore.Rot>
1.1731

> <Gold.Chemscore.Internal.Correction>
   9.000000E+99

> <Gold.Chemscore.Hbonds>
donor molecule, donor type, donor heavy atom, donor atom, acceptor molecule, acceptor atom, score
      L1  H     3    26       P1  7948  0.54
      L1  H    16    40       P1  7948  0.44

> <Gold.Chemscore.Hbond.Weighted>
-6.3145

> <Gold.Chemscore.Metal.Weighted>
-0.0000

> <Gold.Chemscore.Lipo.Weighted>
-12.7582

> <Gold.Chemscore.Internal_Hbond.Weighted>
0.0000

> <Gold.Chemscore.DEClash.Weighted>
0.1355

> <Gold.Chemscore.DEInternal.Weighted>
1.9791

> <Gold.Chemscore.Rot.Weighted>
3.0032

> <Gold.Chemscore.Internal.Correction.Weighted>
   9.000000E+99

> <Gold.Protein.RotatedTorsions>
[ 6907 6896 6895 6894 ] final  -53.12 input  -60.11 | X-H torsion
[ 7974 7965 7964 7962 ] final  -16.68 input  175.53 | X-H torsion
[ 8008 7997 7996 7995 ] final  -63.11 input   59.86 | X-H torsion
[ 10167 10162 10161 10158 ] final  143.18 input  -65.29 | X-H torsion
[ 10718 10713 10712 10709 ] final  117.09 input   66.30 | X-H torsion
[ 10763 10752 10751 10750 ] final  177.07 input  -60.55 | X-H torsion
[ 11005 11000 10999 10996 ] final   15.72 input  -57.11 | X-H torsion

> <Gold.Protein.ActiveResidues>
 VAL166  LYS551  ARG553  GLY616  TRP617  ASP618  TYR619  PRO620  LYS621  CYS622 
 ASP623  PHE694  ASN695  SER759  ASP760  ASP761  ALA762  ILE779  LEU786  VAL792 
 PHE793  MET794  SER795  GLU796  ALA797  LYS798  CYS799  TRP800  GLU811  SER814 

> <Gold.Protein.RotatedAtoms>
  150.8455  134.7762  159.6966 H   0  0  0  0  0  0  0  0  0  0  0  0  # atno 6907 bound_to 6896
  152.4533  134.5344  159.9830 H   0  0  0  0  0  0  0  0  0  0  0  0  # atno 6908 bound_to 6896
  151.5475  133.3385  159.2982 H   0  0  0  0  0  0  0  0  0  0  0  0  # atno 6909 bound_to 6896
  146.1976  140.3671  142.8435 H   0  0  0  0  0  0  0  0  0  0  0  0  # atno 7974 bound_to 7965
  154.4536  140.0982  156.6692 H   0  0  0  0  0  0  0  0  0  0  0  0  # atno 8008 bound_to 7997
  155.5207  140.3479  155.4388 H   0  0  0  0  0  0  0  0  0  0  0  0  # atno 8009 bound_to 7997
  156.0732  140.1354  156.9792 H   0  0  0  0  0  0  0  0  0  0  0  0  # atno 8010 bound_to 7997
  139.4976  144.6058  151.6382 H   0  0  0  0  0  0  0  0  0  0  0  0  # atno 10167 bound_to 10162
  157.6119  131.1033  150.7565 H   0  0  0  0  0  0  0  0  0  0  0  0  # atno 10718 bound_to 10713
  154.4895  135.2778  155.1507 H   0  0  0  0  0  0  0  0  0  0  0  0  # atno 10763 bound_to 10752
  154.3185  135.6214  153.5501 H   0  0  0  0  0  0  0  0  0  0  0  0  # atno 10764 bound_to 10752
  152.9886  135.5737  154.5314 H   0  0  0  0  0  0  0  0  0  0  0  0  # atno 10765 bound_to 10752
  140.4551  134.1184  155.7708 H   0  0  0  0  0  0  0  0  0  0  0  0  # atno 11005 bound_to 11000
  144.8614  140.7144  143.6105 LP  0  0  0  0  0  0  0  0  0  0  0  0  # atno 17320 bound_to 7965
  145.3591  139.1686  143.4393 LP  0  0  0  0  0  0  0  0  0  0  0  0  # atno 17321 bound_to 7965
  140.5719  144.0094  150.6221 LP  0  0  0  0  0  0  0  0  0  0  0  0  # atno 17342 bound_to 10162
  140.3215  143.3134  152.0780 LP  0  0  0  0  0  0  0  0  0  0  0  0  # atno 17343 bound_to 10162
  156.7941  130.4899  149.5380 LP  0  0  0  0  0  0  0  0  0  0  0  0  # atno 17370 bound_to 10713
  156.1225  130.6120  151.0215 LP  0  0  0  0  0  0  0  0  0  0  0  0  # atno 17371 bound_to 10713
  141.1646  133.8727  157.1750 LP  0  0  0  0  0  0  0  0  0  0  0  0  # atno 17394 bound_to 11000
  139.9981  135.0038  157.0129 LP  0  0  0  0  0  0  0  0  0  0  0  0  # atno 17395 bound_to 11000

$$$$
