AV-unprocessed.smi:245|AV-procd|sdf|1877|dock3
  -GOLD-   2262020523D 1   1.00000     0.00000
 Structure written by MMmdl.
 54 58  0  0  0  0  0  0  0  0  1 V2000
  151.5788  137.0329  159.3219 O   0  0  0  0  0  0  0  0  0  0  0  0
  151.6416  138.2029  158.9517 C   0  0  0  0  0  0  0  0  0  0  0  0
  150.8100  138.6592  157.7392 C   0  0  0  0  0  0  0  0  0  0  0  0
  150.9170  140.0886  157.4006 N   0  0  0  0  0  0  0  0  0  0  0  0
  149.9170  140.4588  156.5644 C   0  0  0  0  0  0  0  0  0  0  0  0
  150.0485  140.2810  155.2230 N   0  0  0  0  0  0  0  0  0  0  0  0
  149.0696  140.6652  154.3986 C   0  0  0  0  0  0  0  0  0  0  0  0
  147.9055  141.2455  154.6981 N   0  0  0  0  0  0  0  0  0  0  0  0
  147.7779  141.4398  156.0425 C   0  0  0  0  0  0  0  0  0  0  0  0
  148.7295  141.0786  157.0368 C   0  0  0  0  0  0  0  0  0  0  0  0
  148.2566  141.4200  158.2968 N   0  0  0  0  0  0  0  0  0  0  0  0
  147.0866  141.9492  158.0615 C   0  0  0  0  0  0  0  0  0  0  0  0
  146.7245  142.0155  156.7331 N   0  0  0  0  0  0  0  0  0  0  0  0
  145.4940  142.5233  156.1939 C   0  0  0  0  0  0  0  0  0  0  0  0
  145.4462  143.8002  155.3484 C   0  0  0  0  0  0  0  0  0  0  0  0
  144.1049  144.1977  156.0062 C   0  0  0  0  0  0  0  0  0  0  0  0
  144.0225  145.6517  156.4960 C   0  0  0  0  0  0  0  0  0  0  0  0
  144.9372  145.8972  157.5449 O   0  0  0  0  0  0  0  0  0  0  0  0
  142.8169  143.9159  155.2005 C   0  0  0  0  0  0  0  0  0  0  0  0
  142.7082  144.6996  154.0295 O   0  0  0  0  0  0  0  0  0  0  0  0
  144.4583  143.1755  157.1109 C   0  0  0  0  0  0  0  0  0  0  0  0
  151.3026  141.0189  158.4691 C   0  0  2  0  0  0  0  0  0  0  0  0
  151.5710  142.4627  157.9757 C   0  0  0  0  0  0  0  0  0  0  0  0
  151.9856  143.3788  159.1399 C   0  0  0  0  0  0  0  0  0  0  0  0
  153.2088  142.8264  159.8884 C   0  0  0  0  0  0  0  0  0  0  0  0
  152.9756  141.3795  160.3516 C   0  0  0  0  0  0  0  0  0  0  0  0
  152.5741  140.4855  159.1657 C   0  0  1  0  0  0  0  0  0  0  0  0
  152.4056  139.1019  159.5911 N   0  0  0  0  0  0  0  0  0  0  0  0
  151.1232  138.0694  156.8768 H   0  0  0  0  0  0  0  0  0  0  0  0
  149.7689  138.3973  157.9387 H   0  0  0  0  0  0  0  0  0  0  0  0
  149.2450  140.4837  153.3485 H   0  0  0  0  0  0  0  0  0  0  0  0
  146.4531  142.3039  158.8610 H   0  0  0  0  0  0  0  0  0  0  0  0
  145.0404  141.7026  155.6367 H   0  0  0  0  0  0  0  0  0  0  0  0
  146.2489  144.5016  155.5786 H   0  0  0  0  0  0  0  0  0  0  0  0
  145.3892  143.6215  154.2741 H   0  0  0  0  0  0  0  0  0  0  0  0
  144.2172  146.3538  155.6846 H   0  0  0  0  0  0  0  0  0  0  0  0
  143.0234  145.8806  156.8685 H   0  0  0  0  0  0  0  0  0  0  0  0
  145.7959  146.0244  157.1712 H   0  0  0  0  0  0  0  0  0  0  0  0
  142.7699  142.8682  154.9021 H   0  0  0  0  0  0  0  0  0  0  0  0
  141.9290  144.1087  155.8032 H   0  0  0  0  0  0  0  0  0  0  0  0
  142.5960  144.1213  153.2904 H   0  0  0  0  0  0  0  0  0  0  0  0
  143.6421  142.5144  157.4037 H   0  0  0  0  0  0  0  0  0  0  0  0
  144.9161  143.6354  157.9882 H   0  0  0  0  0  0  0  0  0  0  0  0
  150.4904  141.0444  159.1988 H   0  0  0  0  0  0  0  0  0  0  0  0
  152.3558  142.4541  157.2180 H   0  0  0  0  0  0  0  0  0  0  0  0
  150.6904  142.8911  157.4983 H   0  0  0  0  0  0  0  0  0  0  0  0
  152.2010  144.3800  158.7659 H   0  0  0  0  0  0  0  0  0  0  0  0
  151.1507  143.4824  159.8343 H   0  0  0  0  0  0  0  0  0  0  0  0
  154.0814  142.8627  159.2350 H   0  0  0  0  0  0  0  0  0  0  0  0
  153.4387  143.4598  160.7456 H   0  0  0  0  0  0  0  0  0  0  0  0
  153.8814  140.9962  160.8230 H   0  0  0  0  0  0  0  0  0  0  0  0
  152.1954  141.3590  161.1137 H   0  0  0  0  0  0  0  0  0  0  0  0
  153.3938  140.4853  158.4446 H   0  0  0  0  0  0  0  0  0  0  0  0
  152.9325  138.7964  160.3965 H   0  0  0  0  0  0  0  0  0  0  0  0
  1  2  2  0  0  0  0
  2 28  1  0  0  0  0
  2  3  1  0  0  0  0
  3  4  1  0  0  0  0
  3 29  1  0  0  0  0
  3 30  1  0  0  0  0
  4  5  1  0  0  0  0
  4 22  1  0  0  0  0
  5 10  1  0  0  0  0
  5  6  2  0  0  0  0
  6  7  1  0  0  0  0
  7  8  2  0  0  0  0
  7 31  1  0  0  0  0
  8  9  1  0  0  0  0
  9 13  1  0  0  0  0
  9 10  2  0  0  0  0
 10 11  1  0  0  0  0
 11 12  2  0  0  0  0
 12 13  1  0  0  0  0
 12 32  1  0  0  0  0
 13 14  1  0  0  0  0
 14 21  1  0  0  0  0
 14 15  1  0  0  0  0
 14 33  1  0  0  0  0
 15 16  1  0  0  0  0
 15 34  1  0  0  0  0
 15 35  1  0  0  0  0
 16 17  1  0  0  0  0
 16 19  1  0  0  0  0
 16 21  1  0  0  0  0
 17 18  1  0  0  0  0
 17 36  1  0  0  0  0
 17 37  1  0  0  0  0
 18 38  1  0  0  0  0
 19 20  1  0  0  0  0
 19 39  1  0  0  0  0
 19 40  1  0  0  0  0
 20 41  1  0  0  0  0
 21 42  1  0  0  0  0
 21 43  1  0  0  0  0
 22 27  1  0  0  0  0
 22 23  1  0  0  0  0
 22 44  1  0  0  0  0
 23 24  1  0  0  0  0
 23 45  1  0  0  0  0
 23 46  1  0  0  0  0
 24 25  1  0  0  0  0
 24 47  1  0  0  0  0
 24 48  1  0  0  0  0
 25 26  1  0  0  0  0
 25 49  1  0  0  0  0
 25 50  1  0  0  0  0
 26 27  1  0  0  0  0
 26 51  1  0  0  0  0
 26 52  1  0  0  0  0
 27 28  1  0  0  0  0
 27 53  1  0  0  0  0
 28 54  1  0  0  0  0
M  END
> <s_m_source_file>
AV-unprocessed.smi

> <i_m_source_file_index>
245

> <i_lp_mmshare_version>
43012

> <i_f3d_flags>
0

> <s_epik_input>
W0NIMl0xW0NIMl1bQ0gyXVtDSDJdW0NASF0oW0NASF0xMilbTkhdQyg9TylbQ0gyXU4yYyhuW2NIXW4zKWMoYzM0KW5bY0hdbjRbQ0hdKFtDSDJdNSlbQ0gyXUM1KFtDSDJdW09IXSlbQ0gyXVtPSF0=

> <s_epik_cmdline>
J2VwaWtfcHl0aG9uJywgJy1waCcsICc3LjAnLCAnLXRuJywgJzgnLCAnLW1hJywgJzIwMCcsICctbWV0YWxfYmluZGluZycsICctaW1hZScsICc8aW5maWxlLm1hZT4nLCAnLW9tYWUnLCAnPG91dGZpbGUubWFlPic=

> <r_lp_tautomer_probability>
1

> <r_epik_Ionization_Penalty>
0.000702616

> <r_epik_Ionization_Penalty_Charging>
0

> <r_epik_Ionization_Penalty_Neutral>
0.000702616

> <r_epik_State_Penalty>
0.000343985

> <r_epik_Charging_Adjusted_Penalty>
0.000343985

> <i_epik_Tot_Q>
0

> <i_epik_Tot_abs_Q>
0

> <r_epik_Metal_State_Penalty>
-0

> <b_epik_Metal_Only>
0

> <s_lp_Force_Field>
OPLS_2005

> <r_lp_Energy>
50.1647

> <b_lp_Chiralities_Consistent>
1

> <s_lp_Variant>
AV-unprocessed.smi:245-2

> <Gold.Version>
5.8.1

> <Gold.Id.Protein>
6NUR|6NUR_protein|mol2

> <Gold.PLP.Fitness>
49.5332

> <Gold.PLP.PLP>
-38.9225

> <Gold.PLP.part.hbond>
-3.6556

> <Gold.PLP.part.metal>
0.0000

> <Gold.PLP.part.buried>
-8.8814

> <Gold.PLP.part.nonpolar>
-26.9318

> <Gold.PLP.part.repulsive>
0.3408

> <Gold.PLP.ligand.clash>
0.0000

> <Gold.PLP.ligand.torsion>
0.9318

> <Gold.PLP.Chemscore.Hbond>
2.8939

> <Gold.PLP.Chemscore.CHOScore>
1.0000

> <Gold.PLP.Chemscore.Metal>
0.0000

> <Gold.Chemscore.Hbonds>
donor molecule, donor type, donor heavy atom, donor atom, acceptor molecule, acceptor atom, score
      L1  H    18    38       P1  8029  0.85
      L1  H    20    41       P1 10174  1.00
      P1  H  6896  6909       L1     1  1.00
      P1  H  7989  7998       L1     6  0.02
      L1  C     7    31       P1  7957  1.00

> <Gold.PLP.Chemscore.Internal.Correction>
0.7928

> <Gold.Rescore>
     Score         DG    S(hbond)    S(metal)    S(lipo)     H(rot)  DE(clash)    DE(int)     intcor
     12.47     -13.37       2.08        0.00      79.67       3.28       0.00       0.90       ----

> <Gold.Chemscore.Fitness>
12.4722

> <Gold.Chemscore.DG>
-13.3714

> <Gold.Chemscore.ZeroCoef>
-5.4800

> <Gold.Chemscore.Hbond>
2.0828

> <Gold.Chemscore.Metal>
0.0000

> <Gold.Chemscore.Lipo>
79.6663

> <Gold.Chemscore.Internal_Hbond>
0.0000

> <Gold.Chemscore.DEClash>
0.0000

> <Gold.Chemscore.DEInternal>
0.8992

> <Gold.Chemscore.Rot>
3.2758

> <Gold.Chemscore.Internal.Correction>
   9.000000E+99

> <Gold.Chemscore.Hbonds>
donor molecule, donor type, donor heavy atom, donor atom, acceptor molecule, acceptor atom, score
      L1  H    18    38       P1  8029  0.14
      L1  H    20    41       P1 10174  0.97
      P1  H  6896  6909       L1     1  0.97

> <Gold.Chemscore.Hbond.Weighted>
-6.9564

> <Gold.Chemscore.Metal.Weighted>
-0.0000

> <Gold.Chemscore.Lipo.Weighted>
-9.3210

> <Gold.Chemscore.Internal_Hbond.Weighted>
0.0000

> <Gold.Chemscore.DEClash.Weighted>
0.0000

> <Gold.Chemscore.DEInternal.Weighted>
0.8992

> <Gold.Chemscore.Rot.Weighted>
8.3859

> <Gold.Chemscore.Internal.Correction.Weighted>
   9.000000E+99

> <Gold.Protein.RotatedTorsions>
[ 6907 6896 6895 6894 ] final  120.22 input  -60.11 | X-H torsion
[ 7974 7965 7964 7962 ] final   17.39 input  175.53 | X-H torsion
[ 8008 7997 7996 7995 ] final  155.18 input   59.86 | X-H torsion
[ 10167 10162 10161 10158 ] final  154.36 input  -65.29 | X-H torsion
[ 10718 10713 10712 10709 ] final -133.63 input   66.30 | X-H torsion
[ 10763 10752 10751 10750 ] final -151.88 input  -60.55 | X-H torsion
[ 11005 11000 10999 10996 ] final   33.63 input  -57.11 | X-H torsion

> <Gold.Protein.ActiveResidues>
 VAL166  LYS551  ARG553  GLY616  TRP617  ASP618  TYR619  PRO620  LYS621  CYS622 
 ASP623  PHE694  ASN695  SER759  ASP760  ASP761  ALA762  ILE779  LEU786  VAL792 
 PHE793  MET794  SER795  GLU796  ALA797  LYS798  CYS799  TRP800  GLU811  SER814 

> <Gold.Protein.RotatedAtoms>
  152.4414  133.7455  159.6664 H   0  0  0  0  0  0  0  0  0  0  0  0  # atno 6907 bound_to 6896
  150.8305  133.8088  159.3106 H   0  0  0  0  0  0  0  0  0  0  0  0  # atno 6908 bound_to 6896
  151.5743  135.1063  160.0054 H   0  0  0  0  0  0  0  0  0  0  0  0  # atno 6909 bound_to 6896
  146.2220  139.8609  142.8605 H   0  0  0  0  0  0  0  0  0  0  0  0  # atno 7974 bound_to 7965
  156.2492  140.1946  156.6762 H   0  0  0  0  0  0  0  0  0  0  0  0  # atno 8008 bound_to 7997
  154.6356  140.0590  156.9810 H   0  0  0  0  0  0  0  0  0  0  0  0  # atno 8009 bound_to 7997
  155.1642  140.3262  155.4408 H   0  0  0  0  0  0  0  0  0  0  0  0  # atno 8010 bound_to 7997
  139.4823  144.5193  151.7901 H   0  0  0  0  0  0  0  0  0  0  0  0  # atno 10167 bound_to 10162
  156.2469  130.7130  151.1013 H   0  0  0  0  0  0  0  0  0  0  0  0  # atno 10718 bound_to 10713
  154.8030  135.3249  154.7503 H   0  0  0  0  0  0  0  0  0  0  0  0  # atno 10763 bound_to 10752
  153.8167  135.6891  153.4837 H   0  0  0  0  0  0  0  0  0  0  0  0  # atno 10764 bound_to 10752
  153.1757  135.4606  154.9906 H   0  0  0  0  0  0  0  0  0  0  0  0  # atno 10765 bound_to 10752
  140.2611  134.3191  155.7857 H   0  0  0  0  0  0  0  0  0  0  0  0  # atno 11005 bound_to 11000
  145.2705  141.0107  143.3774 LP  0  0  0  0  0  0  0  0  0  0  0  0  # atno 17320 bound_to 7965
  144.9227  139.4392  143.6533 LP  0  0  0  0  0  0  0  0  0  0  0  0  # atno 17321 bound_to 7965
  140.4706  144.1593  150.5917 LP  0  0  0  0  0  0  0  0  0  0  0  0  # atno 17342 bound_to 10162
  140.4387  143.2536  151.9502 LP  0  0  0  0  0  0  0  0  0  0  0  0  # atno 17343 bound_to 10162
  157.7199  131.0688  150.6180 LP  0  0  0  0  0  0  0  0  0  0  0  0  # atno 17370 bound_to 10713
  156.6257  130.4418  149.5805 LP  0  0  0  0  0  0  0  0  0  0  0  0  # atno 17371 bound_to 10713
  141.2190  133.7410  156.9188 LP  0  0  0  0  0  0  0  0  0  0  0  0  # atno 17394 bound_to 11000
  140.1464  134.9260  157.2534 LP  0  0  0  0  0  0  0  0  0  0  0  0  # atno 17395 bound_to 11000

$$$$
