AV-unprocessed.smi:2597|AV-procd|sdf|10173|dock1
  -GOLD-   2272014183D 1   1.00000     0.00000
 Structure written by MMmdl.
 31 32  0  0  0  0  0  0  0  0  2 V2000
  149.3019  142.7066  157.0608 N   0  3  0  0  0  0  0  0  0  0  0  0
  150.3359  142.5290  158.0981 C   0  0  2  0  0  0  0  0  0  0  0  0
  151.4989  143.5217  157.8960 C   0  0  0  0  0  0  0  0  0  0  0  0
  152.5762  143.3460  158.9780 C   0  0  0  0  0  0  0  0  0  0  0  0
  153.0948  141.9006  159.0335 C   0  0  0  0  0  0  0  0  0  0  0  0
  151.9440  140.8961  159.2312 C   0  0  0  0  0  0  0  0  0  0  0  0
  150.8011  141.0506  158.2005 C   0  0  2  0  0  0  0  0  0  0  0  0
  151.1146  140.4320  156.9113 N   0  0  0  0  0  0  0  0  0  0  0  0
  152.1472  139.5590  156.6312 C   0  0  0  0  0  0  0  0  0  0  0  0
  151.9801  139.2701  155.3068 C   0  0  0  0  0  0  0  0  0  0  0  0
  152.7847  138.3676  154.4223 C   0  0  0  0  0  0  0  0  0  0  0  0
  151.9143  137.3445  153.9890 O   0  0  0  0  0  0  0  0  0  0  0  0
  150.8733  139.9723  154.8360 N   0  0  0  0  0  0  0  0  0  0  0  0
  150.3667  140.6668  155.8041 N   0  0  0  0  0  0  0  0  0  0  0  0
  149.8578  142.7847  159.0447 H   0  0  0  0  0  0  0  0  0  0  0  0
  149.9557  140.4839  158.5944 H   0  0  0  0  0  0  0  0  0  0  0  0
  149.4823  142.0728  156.2951 H   0  0  0  0  0  0  0  0  0  0  0  0
  149.3223  143.6578  156.7219 H   0  0  0  0  0  0  0  0  0  0  0  0
  151.9454  143.4029  156.9092 H   0  0  0  0  0  0  0  0  0  0  0  0
  151.1209  144.5441  157.9299 H   0  0  0  0  0  0  0  0  0  0  0  0
  153.4048  144.0299  158.7917 H   0  0  0  0  0  0  0  0  0  0  0  0
  152.1636  143.6204  159.9496 H   0  0  0  0  0  0  0  0  0  0  0  0
  153.6504  141.6716  158.1250 H   0  0  0  0  0  0  0  0  0  0  0  0
  153.8097  141.8004  159.8508 H   0  0  0  0  0  0  0  0  0  0  0  0
  152.3313  139.8765  159.2156 H   0  0  0  0  0  0  0  0  0  0  0  0
  151.5312  141.0420  160.2304 H   0  0  0  0  0  0  0  0  0  0  0  0
  152.8727  139.2288  157.3601 H   0  0  0  0  0  0  0  0  0  0  0  0
  153.1841  138.8988  153.5578 H   0  0  0  0  0  0  0  0  0  0  0  0
  153.6244  137.9307  154.9627 H   0  0  0  0  0  0  0  0  0  0  0  0
  151.8309  137.4005  153.0494 H   0  0  0  0  0  0  0  0  0  0  0  0
  148.3924  142.5080  157.4527 H   0  0  0  0  0  0  0  0  0  0  0  0
  1  2  1  0  0  0  0
  1 17  1  0  0  0  0
  1 18  1  0  0  0  0
  1 31  1  0  0  0  0
  2 15  1  0  0  0  0
  2  7  1  0  0  0  0
  2  3  1  0  0  0  0
  3  4  1  0  0  0  0
  3 19  1  0  0  0  0
  3 20  1  0  0  0  0
  4  5  1  0  0  0  0
  4 21  1  0  0  0  0
  4 22  1  0  0  0  0
  5  6  1  0  0  0  0
  5 23  1  0  0  0  0
  5 24  1  0  0  0  0
  6  7  1  0  0  0  0
  6 25  1  0  0  0  0
  6 26  1  0  0  0  0
  7 16  1  0  0  0  0
  7  8  1  0  0  0  0
  8 14  1  0  0  0  0
  8  9  1  0  0  0  0
  9 10  2  0  0  0  0
  9 27  1  0  0  0  0
 10 11  1  0  0  0  0
 10 13  1  0  0  0  0
 11 12  1  0  0  0  0
 11 28  1  0  0  0  0
 11 29  1  0  0  0  0
 12 30  1  0  0  0  0
 13 14  2  0  0  0  0
M  CHG  1   1   1
M  END
> <s_m_source_file>
AV-unprocessed.smi

> <i_m_source_file_index>
2597

> <i_lp_mmshare_version>
43012

> <i_f3d_flags>
0

> <s_epik_input>
W05IMl1bQ0BIXTFbQ0gyXVtDSDJdW0NIMl1bQ0gyXVtDQEhdMW4yW2NIXWMobm4yKVtDSDJdW09IXQ==

> <s_epik_cmdline>
J2VwaWtfcHl0aG9uJywgJy1waCcsICc3LjAnLCAnLXRuJywgJzgnLCAnLW1hJywgJzIwMCcsICctbWV0YWxfYmluZGluZycsICctaW1hZScsICc8aW5maWxlLm1hZT4nLCAnLW9tYWUnLCAnPG91dGZpbGUubWFlPic=

> <r_lp_tautomer_probability>
1

> <r_epik_Ionization_Penalty>
0.014346

> <r_epik_Ionization_Penalty_Charging>
0.014316

> <r_epik_Ionization_Penalty_Neutral>
3.00097e-05

> <r_epik_State_Penalty>
0.0111909

> <r_epik_Charging_Adjusted_Penalty>
0.0255069

> <i_epik_Tot_Q>
1

> <i_epik_Tot_abs_Q>
1

> <r_epik_Metal_State_Penalty>
0.011192

> <b_epik_Metal_Only>
0

> <s_lp_Force_Field>
OPLS_2005

> <r_lp_Energy>
16.1833

> <b_lp_Chiralities_Consistent>
1

> <s_lp_Variant>
AV-unprocessed.smi:2597-4

> <Gold.Version>
5.8.1

> <Gold.Id.Protein>
6NUR|6NUR_protein|mol2

> <Gold.PLP.Fitness>
42.6433

> <Gold.PLP.PLP>
-30.3751

> <Gold.PLP.part.hbond>
-3.8458

> <Gold.PLP.part.metal>
0.0000

> <Gold.PLP.part.buried>
-4.7972

> <Gold.PLP.part.nonpolar>
-21.8233

> <Gold.PLP.part.repulsive>
0.1150

> <Gold.PLP.ligand.clash>
0.0000

> <Gold.PLP.ligand.torsion>
0.4422

> <Gold.PLP.Chemscore.Hbond>
4.3624

> <Gold.PLP.Chemscore.CHOScore>
0.0000

> <Gold.PLP.Chemscore.Metal>
0.0000

> <Gold.Chemscore.Hbonds>
donor molecule, donor type, donor heavy atom, donor atom, acceptor molecule, acceptor atom, score
      L1  H     1    18       P1  8028  2.00
      L1  H    12    30       P1  7949  0.39
      P1  H  7989  7998       L1    13  1.00
      P1  H 10752 10765       L1    12  0.95

> <Gold.PLP.Chemscore.Internal.Correction>
0.0652

> <Gold.Rescore>
     Score         DG    S(hbond)    S(metal)    S(lipo)     H(rot)  DE(clash)    DE(int)     intcor
     15.45     -17.75       2.49        0.00      74.49       1.86       0.01       2.29       ----

> <Gold.Chemscore.Fitness>
15.4487

> <Gold.Chemscore.DG>
-17.7477

> <Gold.Chemscore.ZeroCoef>
-5.4800

> <Gold.Chemscore.Hbond>
2.4855

> <Gold.Chemscore.Metal>
0.0000

> <Gold.Chemscore.Lipo>
74.4888

> <Gold.Chemscore.Internal_Hbond>
0.0000

> <Gold.Chemscore.DEClash>
0.0103

> <Gold.Chemscore.DEInternal>
2.2887

> <Gold.Chemscore.Rot>
1.8551

> <Gold.Chemscore.Internal.Correction>
   9.000000E+99

> <Gold.Chemscore.Hbonds>
donor molecule, donor type, donor heavy atom, donor atom, acceptor molecule, acceptor atom, score
      L1  H     1    18       P1  8028  0.86
      L1  H    12    30       P1  7949  0.39
      P1  H  7989  7998       L1    13  0.24
      P1  H 10752 10765       L1    12  0.09

> <Gold.Chemscore.Hbond.Weighted>
-8.3015

> <Gold.Chemscore.Metal.Weighted>
-0.0000

> <Gold.Chemscore.Lipo.Weighted>
-8.7152

> <Gold.Chemscore.Internal_Hbond.Weighted>
0.0000

> <Gold.Chemscore.DEClash.Weighted>
0.0103

> <Gold.Chemscore.DEInternal.Weighted>
2.2887

> <Gold.Chemscore.Rot.Weighted>
4.7489

> <Gold.Chemscore.Internal.Correction.Weighted>
   9.000000E+99

> <Gold.Protein.RotatedTorsions>
[ 6907 6896 6895 6894 ] final    5.57 input  -60.11 | X-H torsion
[ 7974 7965 7964 7962 ] final  127.02 input  175.53 | X-H torsion
[ 8008 7997 7996 7995 ] final  -14.34 input   59.86 | X-H torsion
[ 10167 10162 10161 10158 ] final -168.21 input  -65.29 | X-H torsion
[ 10718 10713 10712 10709 ] final   24.34 input   66.30 | X-H torsion
[ 10763 10752 10751 10750 ] final  150.80 input  -60.55 | X-H torsion
[ 11005 11000 10999 10996 ] final -104.07 input  -57.11 | X-H torsion

> <Gold.Protein.ActiveResidues>
 VAL166  LYS551  ARG553  GLY616  TRP617  ASP618  TYR619  PRO620  LYS621  CYS622 
 ASP623  PHE694  ASN695  SER759  ASP760  ASP761  ALA762  ILE779  LEU786  VAL792 
 PHE793  MET794  SER795  GLU796  ALA797  LYS798  CYS799  TRP800  GLU811  SER814 

> <Gold.Protein.RotatedAtoms>
  151.6596  135.0991  160.0176 H   0  0  0  0  0  0  0  0  0  0  0  0  # atno 6907 bound_to 6896
  152.3954  133.6735  159.6280 H   0  0  0  0  0  0  0  0  0  0  0  0  # atno 6908 bound_to 6896
  150.7862  133.8799  159.3324 H   0  0  0  0  0  0  0  0  0  0  0  0  # atno 6909 bound_to 6896
  145.0552  139.3850  143.5034 H   0  0  0  0  0  0  0  0  0  0  0  0  # atno 7974 bound_to 7965
  154.5218  140.2225  155.8962 H   0  0  0  0  0  0  0  0  0  0  0  0  # atno 8008 bound_to 7997
  156.1670  140.3130  155.8871 H   0  0  0  0  0  0  0  0  0  0  0  0  # atno 8009 bound_to 7997
  155.3636  140.0462  157.3037 H   0  0  0  0  0  0  0  0  0  0  0  0  # atno 8010 bound_to 7997
  139.6000  144.1031  152.1732 H   0  0  0  0  0  0  0  0  0  0  0  0  # atno 10167 bound_to 10162
  157.1785  130.6792  149.6104 H   0  0  0  0  0  0  0  0  0  0  0  0  # atno 10718 bound_to 10713
  154.0933  135.2851  155.3267 H   0  0  0  0  0  0  0  0  0  0  0  0  # atno 10763 bound_to 10752
  154.6605  135.5336  153.8015 H   0  0  0  0  0  0  0  0  0  0  0  0  # atno 10764 bound_to 10752
  153.0405  135.6532  154.1101 H   0  0  0  0  0  0  0  0  0  0  0  0  # atno 10765 bound_to 10752
  141.1117  133.8692  157.1565 H   0  0  0  0  0  0  0  0  0  0  0  0  # atno 11005 bound_to 11000
  146.3521  140.0222  142.8657 LP  0  0  0  0  0  0  0  0  0  0  0  0  # atno 17320 bound_to 7965
  145.1477  140.9606  143.4451 LP  0  0  0  0  0  0  0  0  0  0  0  0  # atno 17321 bound_to 7965
  140.0625  144.5845  150.7252 LP  0  0  0  0  0  0  0  0  0  0  0  0  # atno 17342 bound_to 10162
  140.7242  143.2619  151.4177 LP  0  0  0  0  0  0  0  0  0  0  0  0  # atno 17343 bound_to 10162
  155.9728  130.4655  150.6255 LP  0  0  0  0  0  0  0  0  0  0  0  0  # atno 17370 bound_to 10713
  157.3976  131.0805  151.1338 LP  0  0  0  0  0  0  0  0  0  0  0  0  # atno 17371 bound_to 10713
  140.0015  135.0026  157.0200 LP  0  0  0  0  0  0  0  0  0  0  0  0  # atno 17394 bound_to 11000
  140.4757  134.1341  155.7209 LP  0  0  0  0  0  0  0  0  0  0  0  0  # atno 17395 bound_to 11000

$$$$
