AV-unprocessed.smi:209|AV-procd|sdf|1610|dock7
  -GOLD-   2262019533D 1   1.00000     0.00000
 Structure written by MMmdl.
 48 52  0  0  0  0  0  0  0  0  1 V2000
  151.0838  145.4909  160.3084 O   0  0  0  0  0  0  0  0  0  0  0  0
  151.3884  144.9364  159.2544 C   0  0  0  0  0  0  0  0  0  0  0  0
  150.7017  144.9912  158.1144 N   0  0  0  0  0  0  0  0  0  0  0  0
  151.2688  144.1594  157.0663 C   0  0  0  0  0  0  0  0  0  0  0  0
  152.3066  143.2691  157.7939 C   0  0  1  0  0  0  0  0  0  0  0  0
  152.6454  144.1019  159.0547 C   0  0  2  0  0  0  0  0  0  0  0  0
  153.1335  143.2934  160.2753 C   0  0  0  0  0  0  0  0  0  0  0  0
  152.3297  142.0058  160.4754 C   0  0  0  0  0  0  0  0  0  0  0  0
  152.3364  141.1856  159.1823 C   0  0  0  0  0  0  0  0  0  0  0  0
  151.7255  141.9476  158.0966 N   0  0  0  0  0  0  0  0  0  0  0  0
  151.3824  141.1533  157.0498 C   0  0  0  0  0  0  0  0  0  0  0  0
  152.2585  140.2250  156.5804 N   0  0  0  0  0  0  0  0  0  0  0  0
  151.9177  139.4324  155.5603 C   0  0  0  0  0  0  0  0  0  0  0  0
  150.7733  139.4002  154.8748 N   0  0  0  0  0  0  0  0  0  0  0  0
  149.8930  140.3338  155.3371 C   0  0  0  0  0  0  0  0  0  0  0  0
  150.1146  141.2413  156.4104 C   0  0  0  0  0  0  0  0  0  0  0  0
  148.9952  142.0441  156.5906 N   0  0  0  0  0  0  0  0  0  0  0  0
  148.1564  141.6293  155.6805 C   0  0  0  0  0  0  0  0  0  0  0  0
  148.6169  140.6101  154.8765 N   0  0  0  0  0  0  0  0  0  0  0  0
  147.8962  139.9540  153.7950 C   0  0  0  0  0  0  0  0  0  0  0  0
  146.6833  139.1167  154.2495 C   0  0  0  0  0  0  0  0  0  0  0  0
  145.7060  140.0323  155.0141 C   0  0  0  0  0  0  0  0  0  0  0  0
  145.4054  141.2200  154.3090 O   0  0  0  0  0  0  0  0  0  0  0  0
  146.0912  138.2369  153.1376 C   0  0  0  0  0  0  0  0  0  0  0  0
  146.6710  137.0373  153.6956 O   0  0  0  0  0  0  0  0  0  0  0  0
  147.0152  137.7634  154.8963 C   0  0  0  0  0  0  0  0  0  0  0  0
  153.2031  143.1402  157.1859 H   0  0  0  0  0  0  0  0  0  0  0  0
  153.4240  144.8215  158.7973 H   0  0  0  0  0  0  0  0  0  0  0  0
  149.8330  145.4933  158.0007 H   0  0  0  0  0  0  0  0  0  0  0  0
  150.4892  143.6069  156.5410 H   0  0  0  0  0  0  0  0  0  0  0  0
  151.7621  144.8072  156.3411 H   0  0  0  0  0  0  0  0  0  0  0  0
  154.1825  143.0343  160.1273 H   0  0  0  0  0  0  0  0  0  0  0  0
  153.1012  143.9003  161.1808 H   0  0  0  0  0  0  0  0  0  0  0  0
  152.7595  141.4225  161.2902 H   0  0  0  0  0  0  0  0  0  0  0  0
  151.3043  142.2404  160.7640 H   0  0  0  0  0  0  0  0  0  0  0  0
  153.3584  140.9227  158.9057 H   0  0  0  0  0  0  0  0  0  0  0  0
  151.8055  140.2487  159.3530 H   0  0  0  0  0  0  0  0  0  0  0  0
  152.6692  138.7220  155.2489 H   0  0  0  0  0  0  0  0  0  0  0  0
  147.1707  142.0583  155.5750 H   0  0  0  0  0  0  0  0  0  0  0  0
  147.5834  140.7175  153.0814 H   0  0  0  0  0  0  0  0  0  0  0  0
  148.6092  139.3276  153.2569 H   0  0  0  0  0  0  0  0  0  0  0  0
  144.7592  139.5267  155.2039 H   0  0  0  0  0  0  0  0  0  0  0  0
  146.1175  140.3123  155.9841 H   0  0  0  0  0  0  0  0  0  0  0  0
  144.9166  140.9935  153.5325 H   0  0  0  0  0  0  0  0  0  0  0  0
  145.0017  138.1884  153.1200 H   0  0  0  0  0  0  0  0  0  0  0  0
  146.4778  138.4610  152.1427 H   0  0  0  0  0  0  0  0  0  0  0  0
  148.0623  137.6360  155.1680 H   0  0  0  0  0  0  0  0  0  0  0  0
  146.3680  137.4922  155.7314 H   0  0  0  0  0  0  0  0  0  0  0  0
  1  2  2  0  0  0  0
  2  6  1  0  0  0  0
  2  3  1  0  0  0  0
  3  4  1  0  0  0  0
  3 29  1  0  0  0  0
  4  5  1  0  0  0  0
  4 30  1  0  0  0  0
  4 31  1  0  0  0  0
  5 27  1  0  0  0  0
  5 10  1  0  0  0  0
  5  6  1  0  0  0  0
  6 28  1  0  0  0  0
  6  7  1  0  0  0  0
  7  8  1  0  0  0  0
  7 32  1  0  0  0  0
  7 33  1  0  0  0  0
  8  9  1  0  0  0  0
  8 34  1  0  0  0  0
  8 35  1  0  0  0  0
  9 10  1  0  0  0  0
  9 36  1  0  0  0  0
  9 37  1  0  0  0  0
 10 11  1  0  0  0  0
 11 16  1  0  0  0  0
 11 12  2  0  0  0  0
 12 13  1  0  0  0  0
 13 14  2  0  0  0  0
 13 38  1  0  0  0  0
 14 15  1  0  0  0  0
 15 19  1  0  0  0  0
 15 16  2  0  0  0  0
 16 17  1  0  0  0  0
 17 18  2  0  0  0  0
 18 19  1  0  0  0  0
 18 39  1  0  0  0  0
 19 20  1  0  0  0  0
 20 21  1  0  0  0  0
 20 40  1  0  0  0  0
 20 41  1  0  0  0  0
 21 26  1  0  0  0  0
 21 22  1  0  0  0  0
 21 24  1  0  0  0  0
 22 23  1  0  0  0  0
 22 42  1  0  0  0  0
 22 43  1  0  0  0  0
 23 44  1  0  0  0  0
 24 25  1  0  0  0  0
 24 45  1  0  0  0  0
 24 46  1  0  0  0  0
 25 26  1  0  0  0  0
 26 47  1  0  0  0  0
 26 48  1  0  0  0  0
M  END
> <s_m_source_file>
AV-unprocessed.smi

> <i_m_source_file_index>
209

> <i_lp_mmshare_version>
43012

> <i_f3d_flags>
0

> <s_epik_input>
W0NIMl0xW05IXUMoPU8pW0NAQEhdKFtDQEBIXTEyKVtDSDJdW0NIMl1bQ0gyXU4yYyhuW2NIXW4zKWMoYzM0KW5bY0hdbjRbQ0gyXUM1KFtDSDJdW09IXSlbQ0gyXU9bQ0gyXTU=

> <s_epik_cmdline>
J2VwaWtfcHl0aG9uJywgJy1waCcsICc3LjAnLCAnLXRuJywgJzgnLCAnLW1hJywgJzIwMCcsICctbWV0YWxfYmluZGluZycsICctaW1hZScsICc8aW5maWxlLm1hZT4nLCAnLW9tYWUnLCAnPG91dGZpbGUubWFlPic=

> <r_lp_tautomer_probability>
1

> <r_epik_Ionization_Penalty>
0.00113306

> <r_epik_Ionization_Penalty_Charging>
0

> <r_epik_Ionization_Penalty_Neutral>
0.00113306

> <r_epik_State_Penalty>
0.000624042

> <r_epik_Charging_Adjusted_Penalty>
0.000624042

> <i_epik_Tot_Q>
0

> <i_epik_Tot_abs_Q>
0

> <r_epik_Metal_State_Penalty>
-0

> <b_epik_Metal_Only>
0

> <s_lp_Force_Field>
OPLS_2005

> <r_lp_Energy>
50.5129

> <b_lp_Chiralities_Consistent>
1

> <s_lp_Variant>
AV-unprocessed.smi:209-4

> <Gold.Version>
5.8.1

> <Gold.Id.Protein>
6NUR|6NUR_protein|mol2

> <Gold.PLP.Fitness>
45.4171

> <Gold.PLP.PLP>
-36.6718

> <Gold.PLP.part.hbond>
-4.8893

> <Gold.PLP.part.metal>
0.0000

> <Gold.PLP.part.buried>
-1.6680

> <Gold.PLP.part.nonpolar>
-34.9370

> <Gold.PLP.part.repulsive>
3.8320

> <Gold.PLP.ligand.clash>
0.0057

> <Gold.PLP.ligand.torsion>
0.7963

> <Gold.PLP.Chemscore.Hbond>
3.2182

> <Gold.PLP.Chemscore.CHOScore>
0.0000

> <Gold.PLP.Chemscore.Metal>
0.0000

> <Gold.Chemscore.Hbonds>
donor molecule, donor type, donor heavy atom, donor atom, acceptor molecule, acceptor atom, score
      L1  H     3    29       P1  8029  0.80
      L1  H    23    44       P1 10175  1.00
      P1  H  7989  7998       L1    14  0.13
      P1  H  7997  8008       L1    12  0.88

> <Gold.PLP.Chemscore.Internal.Correction>
0.6893

> <Gold.Rescore>
     Score         DG    S(hbond)    S(metal)    S(lipo)     H(rot)  DE(clash)    DE(int)     intcor
     10.56     -13.64       1.40        0.00      87.93       2.66       2.38       0.70       ----

> <Gold.Chemscore.Fitness>
10.5581

> <Gold.Chemscore.DG>
-13.6362

> <Gold.Chemscore.ZeroCoef>
-5.4800

> <Gold.Chemscore.Hbond>
1.4022

> <Gold.Chemscore.Metal>
0.0000

> <Gold.Chemscore.Lipo>
87.9291

> <Gold.Chemscore.Internal_Hbond>
0.0000

> <Gold.Chemscore.DEClash>
2.3827

> <Gold.Chemscore.DEInternal>
0.6955

> <Gold.Chemscore.Rot>
2.6620

> <Gold.Chemscore.Internal.Correction>
   9.000000E+99

> <Gold.Chemscore.Hbonds>
donor molecule, donor type, donor heavy atom, donor atom, acceptor molecule, acceptor atom, score
      L1  H     3    29       P1  8029  0.18
      L1  H    23    44       P1 10175  0.65
      P1  H  7997  8008       L1    12  0.21

> <Gold.Chemscore.Hbond.Weighted>
-4.6833

> <Gold.Chemscore.Metal.Weighted>
-0.0000

> <Gold.Chemscore.Lipo.Weighted>
-10.2877

> <Gold.Chemscore.Internal_Hbond.Weighted>
0.0000

> <Gold.Chemscore.DEClash.Weighted>
2.3827

> <Gold.Chemscore.DEInternal.Weighted>
0.6955

> <Gold.Chemscore.Rot.Weighted>
6.8148

> <Gold.Chemscore.Internal.Correction.Weighted>
   9.000000E+99

> <Gold.Protein.RotatedTorsions>
[ 6907 6896 6895 6894 ] final -149.70 input  -60.11 | X-H torsion
[ 7974 7965 7964 7962 ] final   37.78 input  175.53 | X-H torsion
[ 8008 7997 7996 7995 ] final  -49.28 input   59.86 | X-H torsion
[ 10167 10162 10161 10158 ] final  176.38 input  -65.29 | X-H torsion
[ 10718 10713 10712 10709 ] final  151.05 input   66.30 | X-H torsion
[ 10763 10752 10751 10750 ] final -174.92 input  -60.55 | X-H torsion
[ 11005 11000 10999 10996 ] final -122.78 input  -57.11 | X-H torsion

> <Gold.Protein.ActiveResidues>
 VAL166  LYS551  ARG553  GLY616  TRP617  ASP618  TYR619  PRO620  LYS621  CYS622 
 ASP623  PHE694  ASN695  SER759  ASP760  ASP761  ALA762  ILE779  LEU786  VAL792 
 PHE793  MET794  SER795  GLU796  ALA797  LYS798  CYS799  TRP800  GLU811  SER814 

> <Gold.Protein.RotatedAtoms>
  151.1879  133.4685  159.2594 H   0  0  0  0  0  0  0  0  0  0  0  0  # atno 6907 bound_to 6896
  151.1193  135.0070  159.8541 H   0  0  0  0  0  0  0  0  0  0  0  0  # atno 6908 bound_to 6896
  152.5455  134.1792  159.8681 H   0  0  0  0  0  0  0  0  0  0  0  0  # atno 6909 bound_to 6896
  146.1112  139.5852  142.9351 H   0  0  0  0  0  0  0  0  0  0  0  0  # atno 7974 bound_to 7965
  154.4041  140.1301  156.4476 H   0  0  0  0  0  0  0  0  0  0  0  0  # atno 8008 bound_to 7997
  155.7398  140.3490  155.5079 H   0  0  0  0  0  0  0  0  0  0  0  0  # atno 8009 bound_to 7997
  155.9050  140.1026  157.1312 H   0  0  0  0  0  0  0  0  0  0  0  0  # atno 8010 bound_to 7997
  139.5212  144.2922  152.0454 H   0  0  0  0  0  0  0  0  0  0  0  0  # atno 10167 bound_to 10162
  157.2756  131.0825  151.1568 H   0  0  0  0  0  0  0  0  0  0  0  0  # atno 10718 bound_to 10713
  154.5906  135.2844  155.0639 H   0  0  0  0  0  0  0  0  0  0  0  0  # atno 10763 bound_to 10752
  154.1941  135.6435  153.5072 H   0  0  0  0  0  0  0  0  0  0  0  0  # atno 10764 bound_to 10752
  153.0120  135.5453  154.6590 H   0  0  0  0  0  0  0  0  0  0  0  0  # atno 10765 bound_to 10752
  140.9969  134.0458  157.3586 H   0  0  0  0  0  0  0  0  0  0  0  0  # atno 11005 bound_to 11000
  145.5660  141.0399  143.2200 LP  0  0  0  0  0  0  0  0  0  0  0  0  # atno 17320 bound_to 7965
  144.7513  139.7187  143.7272 LP  0  0  0  0  0  0  0  0  0  0  0  0  # atno 17321 bound_to 7965
  140.2372  144.4307  150.6275 LP  0  0  0  0  0  0  0  0  0  0  0  0  # atno 17342 bound_to 10162
  140.6315  143.2188  151.6486 LP  0  0  0  0  0  0  0  0  0  0  0  0  # atno 17343 bound_to 10162
  157.3023  130.6849  149.6170 LP  0  0  0  0  0  0  0  0  0  0  0  0  # atno 17370 bound_to 10713
  155.9663  130.4388  150.5233 LP  0  0  0  0  0  0  0  0  0  0  0  0  # atno 17371 bound_to 10713
  139.9019  135.0167  156.7309 LP  0  0  0  0  0  0  0  0  0  0  0  0  # atno 17394 bound_to 11000
  140.6951  133.9356  155.7990 LP  0  0  0  0  0  0  0  0  0  0  0  0  # atno 17395 bound_to 11000

$$$$
