AV-unprocessed.smi:1802|AV-procd|sdf|7276|dock2
  -GOLD-   22720 8533D 1   1.00000     0.00000
 Structure written by MMmdl.
 40 41  0  0  0  0  0  0  0  0  3 V2000
  145.6315  136.0313  151.1127 C   0  0  0  0  0  0  0  0  0  0  0  0
  145.0711  134.8362  151.9040 C   0  0  1  0  0  0  0  0  0  0  0  0
  144.9750  133.5518  151.0599 C   0  0  0  0  0  0  0  0  0  0  0  0
  146.3610  132.9353  150.8243 C   0  0  0  0  0  0  0  0  0  0  0  0
  147.1052  132.7254  152.1528 C   0  0  0  0  0  0  0  0  0  0  0  0
  147.2081  133.9953  152.9169 N   0  3  2  0  0  0  0  0  0  0  0  0
  148.0526  133.8539  154.1297 C   0  0  0  0  0  0  0  0  0  0  0  0
  147.8641  135.0207  155.1125 C   0  0  0  0  0  0  0  0  0  0  0  0
  148.7735  134.8974  156.3459 C   0  0  0  0  0  0  0  0  0  0  0  0
  148.3259  135.7666  157.4283 N   0  0  0  0  0  0  0  0  0  0  0  0
  149.0665  136.1536  158.4771 C   0  0  0  0  0  0  0  0  0  0  0  0
  150.2368  135.7766  158.5756 O   0  0  0  0  0  0  0  0  0  0  0  0
  148.4041  136.9460  159.3494 N   0  5  0  0  0  0  0  0  0  0  0  0
  147.9153  136.4264  160.4877 C   0  0  0  0  0  0  0  0  0  0  0  0
  147.5022  137.1935  161.5093 N   0  0  0  0  0  0  0  0  0  0  0  0
  147.0342  136.4581  162.5898 N   0  0  0  0  0  0  0  0  0  0  0  0
  147.0975  135.1484  162.3502 C   0  0  0  0  0  0  0  0  0  0  0  0
  147.7314  134.6950  160.7823 S   0  0  0  0  0  0  0  0  0  0  0  0
  145.8655  134.5730  153.1998 C   0  0  0  0  0  0  0  0  0  0  0  0
  146.6600  135.8635  150.7932 H   0  0  0  0  0  0  0  0  0  0  0  0
  145.6206  136.9390  151.7169 H   0  0  0  0  0  0  0  0  0  0  0  0
  145.0344  136.2256  150.2216 H   0  0  0  0  0  0  0  0  0  0  0  0
  144.0558  135.1100  152.1938 H   0  0  0  0  0  0  0  0  0  0  0  0
  144.3476  132.8269  151.5804 H   0  0  0  0  0  0  0  0  0  0  0  0
  144.4825  133.7533  150.1078 H   0  0  0  0  0  0  0  0  0  0  0  0
  146.2579  131.9831  150.3027 H   0  0  0  0  0  0  0  0  0  0  0  0
  146.9497  133.5784  150.1696 H   0  0  0  0  0  0  0  0  0  0  0  0
  146.5939  131.9756  152.7584 H   0  0  0  0  0  0  0  0  0  0  0  0
  148.1025  132.3372  151.9423 H   0  0  0  0  0  0  0  0  0  0  0  0
  147.8479  132.8989  154.6162 H   0  0  0  0  0  0  0  0  0  0  0  0
  149.1029  133.8314  153.8356 H   0  0  0  0  0  0  0  0  0  0  0  0
  148.0708  135.9633  154.6038 H   0  0  0  0  0  0  0  0  0  0  0  0
  146.8264  135.0703  155.4406 H   0  0  0  0  0  0  0  0  0  0  0  0
  148.8149  133.8634  156.6923 H   0  0  0  0  0  0  0  0  0  0  0  0
  149.7944  135.1790  156.0869 H   0  0  0  0  0  0  0  0  0  0  0  0
  147.3749  136.1031  157.3835 H   0  0  0  0  0  0  0  0  0  0  0  0
  146.7664  134.4454  163.0997 H   0  0  0  0  0  0  0  0  0  0  0  0
  145.9542  135.5042  153.7580 H   0  0  0  0  0  0  0  0  0  0  0  0
  145.3105  133.8840  153.8387 H   0  0  0  0  0  0  0  0  0  0  0  0
  147.6875  134.6481  152.3134 H   0  0  0  0  0  0  0  0  0  0  0  0
  1  2  1  0  0  0  0
  1 20  1  0  0  0  0
  1 21  1  0  0  0  0
  1 22  1  0  0  0  0
  2 19  1  0  0  0  0
  2  3  1  0  0  0  0
  2 23  1  0  0  0  0
  3  4  1  0  0  0  0
  3 24  1  0  0  0  0
  3 25  1  0  0  0  0
  4  5  1  0  0  0  0
  4 26  1  0  0  0  0
  4 27  1  0  0  0  0
  5  6  1  0  0  0  0
  5 28  1  0  0  0  0
  5 29  1  0  0  0  0
  6  7  1  0  0  0  0
  6 19  1  0  0  0  0
  6 40  1  0  0  0  0
  7  8  1  0  0  0  0
  7 30  1  0  0  0  0
  7 31  1  0  0  0  0
  8  9  1  0  0  0  0
  8 32  1  0  0  0  0
  8 33  1  0  0  0  0
  9 10  1  0  0  0  0
  9 34  1  0  0  0  0
  9 35  1  0  0  0  0
 10 11  1  0  0  0  0
 10 36  1  0  0  0  0
 11 12  2  0  0  0  0
 11 13  1  0  0  0  0
 13 14  1  0  0  0  0
 14 18  1  0  0  0  0
 14 15  2  0  0  0  0
 15 16  1  0  0  0  0
 16 17  2  0  0  0  0
 17 18  1  0  0  0  0
 17 37  1  0  0  0  0
 19 38  1  0  0  0  0
 19 39  1  0  0  0  0
M  CHG  1   6   1
M  CHG  1  13  -1
M  END
> <s_m_source_file>
AV-unprocessed.smi

> <i_m_source_file_index>
1802

> <i_lp_mmshare_version>
43012

> <i_f3d_flags>
0

> <s_epik_input>
W0NIM11bQ0BASF0xW0NIMl1bQ0gyXVtDSDJdTihbQ0gyXTEpW0NIMl1bQ0gyXVtDSDJdW05IXUMoPU8pW05IXWMybm5bY0hdczI=

> <s_epik_cmdline>
J2VwaWtfcHl0aG9uJywgJy1waCcsICc3LjAnLCAnLXRuJywgJzgnLCAnLW1hJywgJzIwMCcsICctbWV0YWxfYmluZGluZycsICctaW1hZScsICc8aW5maWxlLm1hZT4nLCAnLW9tYWUnLCAnPG91dGZpbGUubWFlPic=

> <r_lp_tautomer_probability>
1

> <r_epik_Ionization_Penalty>
3.29702

> <r_epik_Ionization_Penalty_Charging>
3.26059

> <r_epik_Ionization_Penalty_Neutral>
0.0364294

> <r_epik_State_Penalty>
3.25788

> <r_epik_Charging_Adjusted_Penalty>
6.51847

> <i_epik_Tot_Q>
0

> <i_epik_Tot_abs_Q>
2

> <r_epik_Metal_State_Penalty>
0.477639

> <b_epik_Metal_Only>
1

> <s_lp_Force_Field>
OPLS_2005

> <r_lp_Energy>
11.8287

> <b_lp_Chiralities_Consistent>
1

> <s_lp_Variant>
AV-unprocessed.smi:1802-6

> <Gold.Version>
5.8.1

> <Gold.Id.Protein>
6NUR|6NUR_protein|mol2

> <Gold.PLP.Fitness>
41.1593

> <Gold.PLP.PLP>
-29.0027

> <Gold.PLP.part.hbond>
-4.0000

> <Gold.PLP.part.metal>
0.0000

> <Gold.PLP.part.buried>
-4.4100

> <Gold.PLP.part.nonpolar>
-21.2474

> <Gold.PLP.part.repulsive>
0.0281

> <Gold.PLP.ligand.clash>
0.0000

> <Gold.PLP.ligand.torsion>
1.1393

> <Gold.PLP.Chemscore.Hbond>
4.8000

> <Gold.PLP.Chemscore.CHOScore>
0.0000

> <Gold.PLP.Chemscore.Metal>
0.0000

> <Gold.Chemscore.Hbonds>
donor molecule, donor type, donor heavy atom, donor atom, acceptor molecule, acceptor atom, score
      L1  H     6    40       P1  7948  1.98
      P1  H  6896  6909       L1    12  0.98
      P1  H  6931  6943       L1    15  0.94
      P1  H  6934  6947       L1    15  0.85

> <Gold.PLP.Chemscore.Internal.Correction>
0.0352

> <Gold.Rescore>
     Score         DG    S(hbond)    S(metal)    S(lipo)     H(rot)  DE(clash)    DE(int)     intcor
     16.22     -17.40       3.01        0.00      58.25       1.94       0.03       1.15       ----

> <Gold.Chemscore.Fitness>
16.2221

> <Gold.Chemscore.DG>
-17.4024

> <Gold.Chemscore.ZeroCoef>
-5.4800

> <Gold.Chemscore.Hbond>
3.0146

> <Gold.Chemscore.Metal>
0.0000

> <Gold.Chemscore.Lipo>
58.2528

> <Gold.Chemscore.Internal_Hbond>
0.0000

> <Gold.Chemscore.DEClash>
0.0270

> <Gold.Chemscore.DEInternal>
1.1533

> <Gold.Chemscore.Rot>
1.9383

> <Gold.Chemscore.Internal.Correction>
   9.000000E+99

> <Gold.Chemscore.Hbonds>
donor molecule, donor type, donor heavy atom, donor atom, acceptor molecule, acceptor atom, score
      L1  H     6    40       P1  7948  0.68
      P1  H  6896  6909       L1    12  0.89
      P1  H  6931  6943       L1    15  0.36
      P1  H  6934  6947       L1    15  0.69

> <Gold.Chemscore.Hbond.Weighted>
-10.0688

> <Gold.Chemscore.Metal.Weighted>
-0.0000

> <Gold.Chemscore.Lipo.Weighted>
-6.8156

> <Gold.Chemscore.Internal_Hbond.Weighted>
0.0000

> <Gold.Chemscore.DEClash.Weighted>
0.0270

> <Gold.Chemscore.DEInternal.Weighted>
1.1533

> <Gold.Chemscore.Rot.Weighted>
4.9620

> <Gold.Chemscore.Internal.Correction.Weighted>
   9.000000E+99

> <Gold.Protein.RotatedTorsions>
[ 6907 6896 6895 6894 ] final   64.84 input  -60.11 | X-H torsion
[ 7974 7965 7964 7962 ] final -129.57 input  175.53 | X-H torsion
[ 8008 7997 7996 7995 ] final   74.63 input   59.86 | X-H torsion
[ 10167 10162 10161 10158 ] final -105.29 input  -65.29 | X-H torsion
[ 10718 10713 10712 10709 ] final  -62.12 input   66.30 | X-H torsion
[ 10763 10752 10751 10750 ] final  125.49 input  -60.55 | X-H torsion
[ 11005 11000 10999 10996 ] final  -51.38 input  -57.11 | X-H torsion

> <Gold.Protein.ActiveResidues>
 VAL166  LYS551  ARG553  GLY616  TRP617  ASP618  TYR619  PRO620  LYS621  CYS622 
 ASP623  PHE694  ASN695  SER759  ASP760  ASP761  ALA762  ILE779  LEU786  VAL792 
 PHE793  MET794  SER795  GLU796  ALA797  LYS798  CYS799  TRP800  GLU811  SER814 

> <Gold.Protein.RotatedAtoms>
  152.4362  134.5682  159.9913 H   0  0  0  0  0  0  0  0  0  0  0  0  # atno 6907 bound_to 6896
  151.5791  133.3374  159.3013 H   0  0  0  0  0  0  0  0  0  0  0  0  # atno 6908 bound_to 6896
  150.8261  134.7527  159.6878 H   0  0  0  0  0  0  0  0  0  0  0  0  # atno 6909 bound_to 6896
  144.9559  140.7395  143.4759 H   0  0  0  0  0  0  0  0  0  0  0  0  # atno 7974 bound_to 7965
  155.8012  140.3476  155.5404 H   0  0  0  0  0  0  0  0  0  0  0  0  # atno 8008 bound_to 7997
  155.8536  140.0960  157.1679 H   0  0  0  0  0  0  0  0  0  0  0  0  # atno 8009 bound_to 7997
  154.4009  140.1372  156.3862 H   0  0  0  0  0  0  0  0  0  0  0  0  # atno 8010 bound_to 7997
  140.2001  143.3825  152.1136 H   0  0  0  0  0  0  0  0  0  0  0  0  # atno 10167 bound_to 10162
  156.0876  130.4205  150.1090 H   0  0  0  0  0  0  0  0  0  0  0  0  # atno 10718 bound_to 10713
  153.6781  135.3319  155.3171 H   0  0  0  0  0  0  0  0  0  0  0  0  # atno 10763 bound_to 10752
  154.8473  135.4402  154.1634 H   0  0  0  0  0  0  0  0  0  0  0  0  # atno 10764 bound_to 10752
  153.2644  135.6994  153.7622 H   0  0  0  0  0  0  0  0  0  0  0  0  # atno 10765 bound_to 10752
  141.0868  133.6641  156.3868 H   0  0  0  0  0  0  0  0  0  0  0  0  # atno 11005 bound_to 11000
  145.2773  139.1931  143.4809 LP  0  0  0  0  0  0  0  0  0  0  0  0  # atno 17320 bound_to 7965
  146.3337  140.2729  142.8606 LP  0  0  0  0  0  0  0  0  0  0  0  0  # atno 17321 bound_to 7965
  139.5220  144.7054  151.5371 LP  0  0  0  0  0  0  0  0  0  0  0  0  # atno 17342 bound_to 10162
  140.6396  143.8916  150.6679 LP  0  0  0  0  0  0  0  0  0  0  0  0  # atno 17343 bound_to 10162
  156.9107  130.9651  151.3563 LP  0  0  0  0  0  0  0  0  0  0  0  0  # atno 17370 bound_to 10713
  157.6016  130.8516  149.8810 LP  0  0  0  0  0  0  0  0  0  0  0  0  # atno 17371 bound_to 10713
  140.5345  134.6180  157.5360 LP  0  0  0  0  0  0  0  0  0  0  0  0  # atno 17394 bound_to 11000
  139.9687  134.7329  156.0085 LP  0  0  0  0  0  0  0  0  0  0  0  0  # atno 17395 bound_to 11000

$$$$
