AV-unprocessed.smi:2473|AV-procd|sdf|9743|dock6
  -GOLD-   2272013383D 1   1.00000     0.00000
 Structure written by MMmdl.
 48 49  0  0  0  0  0  0  0  0  2 V2000
  146.9136  138.3406  155.1916 C   0  0  0  0  0  0  0  0  0  0  0  0
  148.4343  138.1800  155.3313 C   0  0  2  0  0  0  0  0  0  0  0  0
  149.1811  139.0444  154.2945 C   0  0  0  0  0  0  0  0  0  0  0  0
  150.7184  138.9013  154.3730 C   0  0  1  0  0  0  0  0  0  0  0  0
  151.3681  139.6891  155.5274 C   0  0  0  0  0  0  0  0  0  0  0  0
  152.5920  139.7549  155.6458 O   0  0  0  0  0  0  0  0  0  0  0  0
  150.5268  140.2710  156.3950 N   0  0  0  0  0  0  0  0  0  0  0  0
  150.9453  141.0920  157.5218 C   0  0  0  0  0  0  0  0  0  0  0  0
  151.4618  142.4518  157.0349 C   0  0  0  0  0  0  0  0  0  0  0  0
  151.3382  143.5223  158.0741 C   0  0  0  0  0  0  0  0  0  0  0  0
  150.4897  144.5563  158.0284 N   0  3  0  0  0  0  0  0  0  0  0  0
  150.6262  145.3348  159.1457 C   0  0  0  0  0  0  0  0  0  0  0  0
  151.5979  144.7458  159.9118 C   0  0  0  0  0  0  0  0  0  0  0  0
  152.0156  143.6318  159.2292 N   0  0  0  0  0  0  0  0  0  0  0  0
  153.0421  142.6793  159.6585 C   0  0  0  0  0  0  0  0  0  0  0  0
  151.1281  137.4062  154.3330 C   0  0  0  0  0  0  0  0  0  0  0  0
  150.3791  136.4681  155.3193 C   0  0  0  0  0  0  0  0  0  0  0  0
  150.6857  135.0094  154.9234 C   0  0  0  0  0  0  0  0  0  0  0  0
  150.8565  136.6513  156.7775 C   0  0  0  0  0  0  0  0  0  0  0  0
  148.8528  136.7013  155.2006 C   0  0  0  0  0  0  0  0  0  0  0  0
  146.5670  138.0110  154.2117 H   0  0  0  0  0  0  0  0  0  0  0  0
  146.6162  139.3821  155.3171 H   0  0  0  0  0  0  0  0  0  0  0  0
  146.3859  137.7557  155.9456 H   0  0  0  0  0  0  0  0  0  0  0  0
  148.6922  138.5259  156.3313 H   0  0  0  0  0  0  0  0  0  0  0  0
  148.8568  138.7576  153.2934 H   0  0  0  0  0  0  0  0  0  0  0  0
  148.8932  140.0912  154.4047 H   0  0  0  0  0  0  0  0  0  0  0  0
  151.1190  139.3659  153.4707 H   0  0  0  0  0  0  0  0  0  0  0  0
  149.5346  140.1602  156.2441 H   0  0  0  0  0  0  0  0  0  0  0  0
  150.1024  141.2268  158.2011 H   0  0  0  0  0  0  0  0  0  0  0  0
  151.7286  140.5750  158.0783 H   0  0  0  0  0  0  0  0  0  0  0  0
  152.5113  142.3950  156.7443 H   0  0  0  0  0  0  0  0  0  0  0  0
  150.9029  142.7886  156.1609 H   0  0  0  0  0  0  0  0  0  0  0  0
  150.0356  146.2248  159.3086 H   0  0  0  0  0  0  0  0  0  0  0  0
  152.0112  145.0294  160.8689 H   0  0  0  0  0  0  0  0  0  0  0  0
  153.4379  142.9811  160.6285 H   0  0  0  0  0  0  0  0  0  0  0  0
  153.8520  142.6658  158.9287 H   0  0  0  0  0  0  0  0  0  0  0  0
  152.6034  141.6851  159.7437 H   0  0  0  0  0  0  0  0  0  0  0  0
  150.9404  137.0558  153.3168 H   0  0  0  0  0  0  0  0  0  0  0  0
  152.2052  137.2988  154.4682 H   0  0  0  0  0  0  0  0  0  0  0  0
  150.1717  134.3024  155.5759 H   0  0  0  0  0  0  0  0  0  0  0  0
  151.7536  134.7968  154.9863 H   0  0  0  0  0  0  0  0  0  0  0  0
  150.3704  134.7946  153.9016 H   0  0  0  0  0  0  0  0  0  0  0  0
  150.4018  135.9096  157.4350 H   0  0  0  0  0  0  0  0  0  0  0  0
  150.6031  137.6253  157.1892 H   0  0  0  0  0  0  0  0  0  0  0  0
  151.9381  136.5361  156.8569 H   0  0  0  0  0  0  0  0  0  0  0  0
  148.3299  136.1041  155.9491 H   0  0  0  0  0  0  0  0  0  0  0  0
  148.5085  136.3318  154.2333 H   0  0  0  0  0  0  0  0  0  0  0  0
  149.8396  144.7350  157.2733 H   0  0  0  0  0  0  0  0  0  0  0  0
  1  2  1  0  0  0  0
  1 21  1  0  0  0  0
  1 22  1  0  0  0  0
  1 23  1  0  0  0  0
  2 20  1  0  0  0  0
  2  3  1  0  0  0  0
  2 24  1  0  0  0  0
  3  4  1  0  0  0  0
  3 25  1  0  0  0  0
  3 26  1  0  0  0  0
  4  5  1  0  0  0  0
  4 16  1  0  0  0  0
  4 27  1  0  0  0  0
  5  6  2  0  0  0  0
  5  7  1  0  0  0  0
  7  8  1  0  0  0  0
  7 28  1  0  0  0  0
  8  9  1  0  0  0  0
  8 29  1  0  0  0  0
  8 30  1  0  0  0  0
  9 10  1  0  0  0  0
  9 31  1  0  0  0  0
  9 32  1  0  0  0  0
 10 14  1  0  0  0  0
 10 11  2  0  0  0  0
 11 12  1  0  0  0  0
 11 48  1  0  0  0  0
 12 13  2  0  0  0  0
 12 33  1  0  0  0  0
 13 14  1  0  0  0  0
 13 34  1  0  0  0  0
 14 15  1  0  0  0  0
 15 35  1  0  0  0  0
 15 36  1  0  0  0  0
 15 37  1  0  0  0  0
 16 17  1  0  0  0  0
 16 38  1  0  0  0  0
 16 39  1  0  0  0  0
 17 18  1  0  0  0  0
 17 19  1  0  0  0  0
 17 20  1  0  0  0  0
 18 40  1  0  0  0  0
 18 41  1  0  0  0  0
 18 42  1  0  0  0  0
 19 43  1  0  0  0  0
 19 44  1  0  0  0  0
 19 45  1  0  0  0  0
 20 46  1  0  0  0  0
 20 47  1  0  0  0  0
M  CHG  1  11   1
M  END
> <s_m_source_file>
AV-unprocessed.smi

> <i_m_source_file_index>
2473

> <i_lp_mmshare_version>
43012

> <i_f3d_flags>
0

> <s_epik_input>
W0NIM11bQ0BASF0oW0NIMl0xKVtDSDJdW0NASF0oW0NIMl1DMShbQ0gzXSlbQ0gzXSlDKD1PKVtOSF1bQ0gyXVtDSDJdYzJuW2NIXVtjSF1uMltDSDNd

> <s_epik_cmdline>
J2VwaWtfcHl0aG9uJywgJy1waCcsICc3LjAnLCAnLXRuJywgJzgnLCAnLW1hJywgJzIwMCcsICctbWV0YWxfYmluZGluZycsICctaW1hZScsICc8aW5maWxlLm1hZT4nLCAnLW9tYWUnLCAnPG91dGZpbGUubWFlPic=

> <r_lp_tautomer_probability>
1

> <r_epik_Ionization_Penalty>
0.0796112

> <r_epik_Ionization_Penalty_Charging>
0

> <r_epik_Ionization_Penalty_Neutral>
0.0796112

> <r_epik_State_Penalty>
0.0704541

> <r_epik_Charging_Adjusted_Penalty>
0.0704541

> <i_epik_Tot_Q>
1

> <i_epik_Tot_abs_Q>
1

> <r_epik_Metal_State_Penalty>
0.409899

> <b_epik_Metal_Only>
0

> <s_lp_Force_Field>
OPLS_2005

> <r_lp_Energy>
17.1237

> <b_lp_Chiralities_Consistent>
1

> <s_lp_Variant>
AV-unprocessed.smi:2473-1

> <Gold.Version>
5.8.1

> <Gold.Id.Protein>
6NUR|6NUR_protein|mol2

> <Gold.PLP.Fitness>
47.8534

> <Gold.PLP.PLP>
-39.4550

> <Gold.PLP.part.hbond>
-2.2234

> <Gold.PLP.part.metal>
0.0000

> <Gold.PLP.part.buried>
-6.1037

> <Gold.PLP.part.nonpolar>
-31.9897

> <Gold.PLP.part.repulsive>
0.1561

> <Gold.PLP.ligand.clash>
0.0000

> <Gold.PLP.ligand.torsion>
0.3360

> <Gold.PLP.Chemscore.Hbond>
3.0000

> <Gold.PLP.Chemscore.CHOScore>
0.0000

> <Gold.PLP.Chemscore.Metal>
0.0000

> <Gold.Chemscore.Hbonds>
donor molecule, donor type, donor heavy atom, donor atom, acceptor molecule, acceptor atom, score
      L1  H    11    48       P1  8028  1.50
      P1  H  7997  8010       L1     6  0.96

> <Gold.PLP.Chemscore.Internal.Correction>
0.0704

> <Gold.Rescore>
     Score         DG    S(hbond)    S(metal)    S(lipo)     H(rot)  DE(clash)    DE(int)     intcor
     16.27     -18.05       1.84        0.00      89.37       1.58       1.48       0.31       ----

> <Gold.Chemscore.Fitness>
16.2653

> <Gold.Chemscore.DG>
-18.0487

> <Gold.Chemscore.ZeroCoef>
-5.4800

> <Gold.Chemscore.Hbond>
1.8449

> <Gold.Chemscore.Metal>
0.0000

> <Gold.Chemscore.Lipo>
89.3684

> <Gold.Chemscore.Internal_Hbond>
0.0000

> <Gold.Chemscore.DEClash>
1.4754

> <Gold.Chemscore.DEInternal>
0.3080

> <Gold.Chemscore.Rot>
1.5818

> <Gold.Chemscore.Internal.Correction>
   9.000000E+99

> <Gold.Chemscore.Hbonds>
donor molecule, donor type, donor heavy atom, donor atom, acceptor molecule, acceptor atom, score
      L1  H    11    48       P1  8028  0.09
      P1  H  7997  8010       L1     6  0.90

> <Gold.Chemscore.Hbond.Weighted>
-6.1621

> <Gold.Chemscore.Metal.Weighted>
-0.0000

> <Gold.Chemscore.Lipo.Weighted>
-10.4561

> <Gold.Chemscore.Internal_Hbond.Weighted>
0.0000

> <Gold.Chemscore.DEClash.Weighted>
1.4754

> <Gold.Chemscore.DEInternal.Weighted>
0.3080

> <Gold.Chemscore.Rot.Weighted>
4.0495

> <Gold.Chemscore.Internal.Correction.Weighted>
   9.000000E+99

> <Gold.Protein.RotatedTorsions>
[ 6907 6896 6895 6894 ] final -142.59 input  -60.11 | X-H torsion
[ 7974 7965 7964 7962 ] final  105.75 input  175.53 | X-H torsion
[ 8008 7997 7996 7995 ] final   67.33 input   59.86 | X-H torsion
[ 10167 10162 10161 10158 ] final   24.18 input  -65.29 | X-H torsion
[ 10718 10713 10712 10709 ] final   -7.96 input   66.30 | X-H torsion
[ 10763 10752 10751 10750 ] final -110.86 input  -60.55 | X-H torsion
[ 11005 11000 10999 10996 ] final  -19.88 input  -57.11 | X-H torsion

> <Gold.Protein.ActiveResidues>
 VAL166  LYS551  ARG553  GLY616  TRP617  ASP618  TYR619  PRO620  LYS621  CYS622 
 ASP623  PHE694  ASN695  SER759  ASP760  ASP761  ALA762  ILE779  LEU786  VAL792 
 PHE793  MET794  SER795  GLU796  ALA797  LYS798  CYS799  TRP800  GLU811  SER814 

> <Gold.Protein.RotatedAtoms>
  151.0891  133.5330  159.2615 H   0  0  0  0  0  0  0  0  0  0  0  0  # atno 6907 bound_to 6896
  151.2204  135.0515  159.8957 H   0  0  0  0  0  0  0  0  0  0  0  0  # atno 6908 bound_to 6896
  152.5432  134.0694  159.8241 H   0  0  0  0  0  0  0  0  0  0  0  0  # atno 6909 bound_to 6896
  145.3156  139.2527  143.3739 H   0  0  0  0  0  0  0  0  0  0  0  0  # atno 7974 bound_to 7965
  155.6913  140.3496  155.4894 H   0  0  0  0  0  0  0  0  0  0  0  0  # atno 8008 bound_to 7997
  155.9522  140.1121  157.0989 H   0  0  0  0  0  0  0  0  0  0  0  0  # atno 8009 bound_to 7997
  154.4124  140.1192  156.5054 H   0  0  0  0  0  0  0  0  0  0  0  0  # atno 8010 bound_to 7997
  140.5209  144.0005  150.6416 H   0  0  0  0  0  0  0  0  0  0  0  0  # atno 10167 bound_to 10162
  156.7095  130.5118  149.5896 H   0  0  0  0  0  0  0  0  0  0  0  0  # atno 10718 bound_to 10713
  154.8270  135.4549  154.0950 H   0  0  0  0  0  0  0  0  0  0  0  0  # atno 10763 bound_to 10752
  153.2255  135.6899  153.7956 H   0  0  0  0  0  0  0  0  0  0  0  0  # atno 10764 bound_to 10752
  153.7358  135.3320  155.3271 H   0  0  0  0  0  0  0  0  0  0  0  0  # atno 10765 bound_to 10752
  140.8409  133.7927  155.9860 H   0  0  0  0  0  0  0  0  0  0  0  0  # atno 11005 bound_to 11000
  146.3101  140.3702  142.8673 LP  0  0  0  0  0  0  0  0  0  0  0  0  # atno 17320 bound_to 7965
  144.8980  140.7608  143.5884 LP  0  0  0  0  0  0  0  0  0  0  0  0  # atno 17321 bound_to 7965
  140.3353  143.3052  152.0645 LP  0  0  0  0  0  0  0  0  0  0  0  0  # atno 17342 bound_to 10162
  139.4923  144.6481  151.6736 LP  0  0  0  0  0  0  0  0  0  0  0  0  # atno 17343 bound_to 10162
  156.1671  130.6412  151.0791 LP  0  0  0  0  0  0  0  0  0  0  0  0  # atno 17370 bound_to 10713
  157.6941  131.0800  150.7020 LP  0  0  0  0  0  0  0  0  0  0  0  0  # atno 17371 bound_to 10713
  140.8896  134.2512  157.5102 LP  0  0  0  0  0  0  0  0  0  0  0  0  # atno 17394 bound_to 11000
  139.8703  134.9655  156.4530 LP  0  0  0  0  0  0  0  0  0  0  0  0  # atno 17395 bound_to 11000

$$$$
