AV-unprocessed.smi:1207|AV-procd|sdf|5055|dock7
  -GOLD-   22720 4 93D 1   1.00000     0.00000
 Structure written by MMmdl.
 52 54  0  0  0  0  0  0  0  0  2 V2000
  152.7686  143.4934  161.3506 C   0  0  0  0  0  0  0  0  0  0  0  0
  152.2367  142.9087  160.0533 C   0  0  0  0  0  0  0  0  0  0  0  0
  152.6098  141.5909  159.7041 C   0  0  0  0  0  0  0  0  0  0  0  0
  152.1022  141.0820  158.5146 C   0  0  0  0  0  0  0  0  0  0  0  0
  152.2745  139.8384  157.9020 N   0  3  0  0  0  0  0  0  0  0  0  0
  151.5666  139.8029  156.7388 C   0  0  0  0  0  0  0  0  0  0  0  0
  150.9463  141.0057  156.6003 N   0  0  0  0  0  0  0  0  0  0  0  0
  150.0570  141.4940  155.5384 C   0  0  0  0  0  0  0  0  0  0  0  0
  149.8972  140.4867  154.3829 C   0  0  2  0  0  0  0  0  0  0  0  0
  149.3854  141.1604  153.2501 O   0  0  0  0  0  0  0  0  0  0  0  0
  148.9247  139.3478  154.7516 C   0  0  0  0  0  0  0  0  0  0  0  0
  149.4997  138.2719  155.5621 N   0  0  0  0  0  0  0  0  0  0  0  0
  150.5956  137.6336  154.8379 C   0  0  0  0  0  0  0  0  0  0  0  0
  148.4931  137.2813  155.9591 C   0  0  0  0  0  0  0  0  0  0  0  0
  149.0812  136.1050  156.6954 C   0  0  0  0  0  0  0  0  0  0  0  0
  149.7546  134.9767  156.1464 C   0  0  0  0  0  0  0  0  0  0  0  0
  150.0500  134.6789  154.7044 C   0  0  0  0  0  0  0  0  0  0  0  0
  150.1404  134.1268  157.0835 N   0  0  0  0  0  0  0  0  0  0  0  0
  149.7229  134.6808  158.2975 O   0  0  0  0  0  0  0  0  0  0  0  0
  149.0956  135.8568  158.0405 C   0  0  0  0  0  0  0  0  0  0  0  0
  148.5691  136.6037  159.2191 C   0  0  0  0  0  0  0  0  0  0  0  0
  151.2534  141.8366  157.6822 C   0  0  0  0  0  0  0  0  0  0  0  0
  150.8793  143.1376  158.0081 C   0  0  0  0  0  0  0  0  0  0  0  0
  151.3827  143.6723  159.2155 C   0  0  0  0  0  0  0  0  0  0  0  0
  150.9870  145.0875  159.6009 C   0  0  0  0  0  0  0  0  0  0  0  0
  153.4133  142.7856  161.8726 H   0  0  0  0  0  0  0  0  0  0  0  0
  151.9468  143.7508  162.0192 H   0  0  0  0  0  0  0  0  0  0  0  0
  153.3520  144.3936  161.1550 H   0  0  0  0  0  0  0  0  0  0  0  0
  153.2592  141.0038  160.3370 H   0  0  0  0  0  0  0  0  0  0  0  0
  151.5034  138.9698  156.0534 H   0  0  0  0  0  0  0  0  0  0  0  0
  149.0909  141.7339  155.9847 H   0  0  0  0  0  0  0  0  0  0  0  0
  150.4708  142.4336  155.1692 H   0  0  0  0  0  0  0  0  0  0  0  0
  150.8796  140.0982  154.1228 H   0  0  0  0  0  0  0  0  0  0  0  0
  149.2048  140.5185  152.5799 H   0  0  0  0  0  0  0  0  0  0  0  0
  148.0645  139.7623  155.2798 H   0  0  0  0  0  0  0  0  0  0  0  0
  148.5239  138.9376  153.8230 H   0  0  0  0  0  0  0  0  0  0  0  0
  151.0870  136.8756  155.4483 H   0  0  0  0  0  0  0  0  0  0  0  0
  151.3564  138.3648  154.5629 H   0  0  0  0  0  0  0  0  0  0  0  0
  150.2391  137.1559  153.9244 H   0  0  0  0  0  0  0  0  0  0  0  0
  147.7434  137.7436  156.5977 H   0  0  0  0  0  0  0  0  0  0  0  0
  147.9444  136.9506  155.0761 H   0  0  0  0  0  0  0  0  0  0  0  0
  149.1313  134.4751  154.1544 H   0  0  0  0  0  0  0  0  0  0  0  0
  150.7011  133.8110  154.5942 H   0  0  0  0  0  0  0  0  0  0  0  0
  150.5436  135.5247  154.2255 H   0  0  0  0  0  0  0  0  0  0  0  0
  148.4411  137.6613  158.9879 H   0  0  0  0  0  0  0  0  0  0  0  0
  149.2520  136.5253  160.0652 H   0  0  0  0  0  0  0  0  0  0  0  0
  147.6022  136.2054  159.5263 H   0  0  0  0  0  0  0  0  0  0  0  0
  150.2282  143.7168  157.3701 H   0  0  0  0  0  0  0  0  0  0  0  0
  150.3310  145.5359  158.8542 H   0  0  0  0  0  0  0  0  0  0  0  0
  151.8697  145.7210  159.6916 H   0  0  0  0  0  0  0  0  0  0  0  0
  150.4575  145.0912  160.5540 H   0  0  0  0  0  0  0  0  0  0  0  0
  152.8303  139.0680  158.2508 H   0  0  0  0  0  0  0  0  0  0  0  0
  1  2  1  0  0  0  0
  1 26  1  0  0  0  0
  1 27  1  0  0  0  0
  1 28  1  0  0  0  0
  2 24  1  0  0  0  0
  2  3  2  0  0  0  0
  3  4  1  0  0  0  0
  3 29  1  0  0  0  0
  4 22  2  0  0  0  0
  4  5  1  0  0  0  0
  5  6  2  0  0  0  0
  5 52  1  0  0  0  0
  6  7  1  0  0  0  0
  6 30  1  0  0  0  0
  7  8  1  0  0  0  0
  7 22  1  0  0  0  0
  8  9  1  0  0  0  0
  8 31  1  0  0  0  0
  8 32  1  0  0  0  0
  9 10  1  0  0  0  0
  9 11  1  0  0  0  0
  9 33  1  0  0  0  0
 10 34  1  0  0  0  0
 11 12  1  0  0  0  0
 11 35  1  0  0  0  0
 11 36  1  0  0  0  0
 12 13  1  0  0  0  0
 12 14  1  0  0  0  0
 13 37  1  0  0  0  0
 13 38  1  0  0  0  0
 13 39  1  0  0  0  0
 14 15  1  0  0  0  0
 14 40  1  0  0  0  0
 14 41  1  0  0  0  0
 15 20  2  0  0  0  0
 15 16  1  0  0  0  0
 16 17  1  0  0  0  0
 16 18  2  0  0  0  0
 17 42  1  0  0  0  0
 17 43  1  0  0  0  0
 17 44  1  0  0  0  0
 18 19  1  0  0  0  0
 19 20  1  0  0  0  0
 20 21  1  0  0  0  0
 21 45  1  0  0  0  0
 21 46  1  0  0  0  0
 21 47  1  0  0  0  0
 22 23  1  0  0  0  0
 23 24  2  0  0  0  0
 23 48  1  0  0  0  0
 24 25  1  0  0  0  0
 25 49  1  0  0  0  0
 25 50  1  0  0  0  0
 25 51  1  0  0  0  0
M  CHG  1   5   1
M  END
> <s_m_source_file>
AV-unprocessed.smi

> <i_m_source_file_index>
1207

> <i_lp_mmshare_version>
43012

> <i_f3d_flags>
0

> <s_epik_input>
W0NIM11jKFtjSF0xKWMoW0NIM10pW2NIXWMoYzEyKW4oW2NIXW4yKVtDSDJdW0NASF0oW09IXSlbQ0gyXU4oW0NIM10pW0NIMl1jM2MoW0NIM10pbm9jM1tDSDNd

> <s_epik_cmdline>
J2VwaWtfcHl0aG9uJywgJy1waCcsICc3LjAnLCAnLXRuJywgJzgnLCAnLW1hJywgJzIwMCcsICctbWV0YWxfYmluZGluZycsICctaW1hZScsICc8aW5maWxlLm1hZT4nLCAnLW9tYWUnLCAnPG91dGZpbGUubWFlPic=

> <r_epik_Ionization_Penalty>
1.48114

> <r_epik_Ionization_Penalty_Charging>
1.21121

> <r_epik_Ionization_Penalty_Neutral>
0.269933

> <r_epik_State_Penalty>
1.53013

> <r_epik_Charging_Adjusted_Penalty>
2.74134

> <i_epik_Tot_Q>
1

> <i_epik_Tot_abs_Q>
1

> <r_epik_Metal_State_Penalty>
1.60462

> <b_epik_Metal_Only>
0

> <s_lp_Force_Field>
OPLS_2005

> <r_lp_Energy>
21.4613

> <b_lp_Chiralities_Consistent>
1

> <s_lp_Variant>
AV-unprocessed.smi:1207-7

> <Gold.Version>
5.8.1

> <Gold.Id.Protein>
6NUR|6NUR_protein|mol2

> <Gold.PLP.Fitness>
52.1598

> <Gold.PLP.PLP>
-44.6106

> <Gold.PLP.part.hbond>
-3.9626

> <Gold.PLP.part.metal>
0.0000

> <Gold.PLP.part.buried>
-4.0854

> <Gold.PLP.part.nonpolar>
-36.6487

> <Gold.PLP.part.repulsive>
0.1327

> <Gold.PLP.ligand.clash>
0.0000

> <Gold.PLP.ligand.torsion>
0.6690

> <Gold.PLP.Chemscore.Hbond>
2.8800

> <Gold.PLP.Chemscore.CHOScore>
0.0000

> <Gold.PLP.Chemscore.Metal>
0.0000

> <Gold.Chemscore.Hbonds>
donor molecule, donor type, donor heavy atom, donor atom, acceptor molecule, acceptor atom, score
      L1  H    10    34       P1  7957  0.86
      P1  H  6896  6909       L1    19  0.96
      P1  H  8011  8017       L1    10  1.00

> <Gold.PLP.Chemscore.Internal.Correction>
0.2473

> <Gold.Rescore>
     Score         DG    S(hbond)    S(metal)    S(lipo)     H(rot)  DE(clash)    DE(int)     intcor
     16.72     -20.30       1.96        0.00     124.48       2.46       1.48       2.11       ----

> <Gold.Chemscore.Fitness>
16.7184

> <Gold.Chemscore.DG>
-20.3044

> <Gold.Chemscore.ZeroCoef>
-5.4800

> <Gold.Chemscore.Hbond>
1.9601

> <Gold.Chemscore.Metal>
0.0000

> <Gold.Chemscore.Lipo>
124.4765

> <Gold.Chemscore.Internal_Hbond>
0.0000

> <Gold.Chemscore.DEClash>
1.4784

> <Gold.Chemscore.DEInternal>
2.1076

> <Gold.Chemscore.Rot>
2.4555

> <Gold.Chemscore.Internal.Correction>
   9.000000E+99

> <Gold.Chemscore.Hbonds>
donor molecule, donor type, donor heavy atom, donor atom, acceptor molecule, acceptor atom, score
      L1  H    10    34       P1  7957  0.81
      P1  H  6896  6909       L1    19  0.49
      P1  H  8011  8017       L1    10  0.25

> <Gold.Chemscore.Hbond.Weighted>
-6.5468

> <Gold.Chemscore.Metal.Weighted>
-0.0000

> <Gold.Chemscore.Lipo.Weighted>
-14.5637

> <Gold.Chemscore.Internal_Hbond.Weighted>
0.0000

> <Gold.Chemscore.DEClash.Weighted>
1.4784

> <Gold.Chemscore.DEInternal.Weighted>
2.1076

> <Gold.Chemscore.Rot.Weighted>
6.2861

> <Gold.Chemscore.Internal.Correction.Weighted>
   9.000000E+99

> <Gold.Protein.RotatedTorsions>
[ 6907 6896 6895 6894 ] final   20.41 input  -60.11 | X-H torsion
[ 7974 7965 7964 7962 ] final -133.62 input  175.53 | X-H torsion
[ 8008 7997 7996 7995 ] final   -4.96 input   59.86 | X-H torsion
[ 10167 10162 10161 10158 ] final  128.77 input  -65.29 | X-H torsion
[ 10718 10713 10712 10709 ] final -106.27 input   66.30 | X-H torsion
[ 10763 10752 10751 10750 ] final  150.75 input  -60.55 | X-H torsion
[ 11005 11000 10999 10996 ] final   12.08 input  -57.11 | X-H torsion

> <Gold.Protein.ActiveResidues>
 VAL166  LYS551  ARG553  GLY616  TRP617  ASP618  TYR619  PRO620  LYS621  CYS622 
 ASP623  PHE694  ASN695  SER759  ASP760  ASP761  ALA762  ILE779  LEU786  VAL792 
 PHE793  MET794  SER795  GLU796  ALA797  LYS798  CYS799  TRP800  GLU811  SER814 

> <Gold.Protein.RotatedAtoms>
  151.8960  135.0397  160.0501 H   0  0  0  0  0  0  0  0  0  0  0  0  # atno 6907 bound_to 6896
  152.2397  133.5121  159.5271 H   0  0  0  0  0  0  0  0  0  0  0  0  # atno 6908 bound_to 6896
  150.7050  134.1021  159.4012 H   0  0  0  0  0  0  0  0  0  0  0  0  # atno 6909 bound_to 6896
  144.9176  140.6974  143.4985 H   0  0  0  0  0  0  0  0  0  0  0  0  # atno 7974 bound_to 7965
  154.6089  140.2470  155.7695 H   0  0  0  0  0  0  0  0  0  0  0  0  # atno 8008 bound_to 7997
  156.2358  140.2950  156.0259 H   0  0  0  0  0  0  0  0  0  0  0  0  # atno 8009 bound_to 7997
  155.2086  140.0396  157.2920 H   0  0  0  0  0  0  0  0  0  0  0  0  # atno 8010 bound_to 7997
  139.5511  144.6813  151.4322 H   0  0  0  0  0  0  0  0  0  0  0  0  # atno 10167 bound_to 10162
  156.0383  130.5604  150.7657 H   0  0  0  0  0  0  0  0  0  0  0  0  # atno 10718 bound_to 10713
  154.0926  135.2851  155.3268 H   0  0  0  0  0  0  0  0  0  0  0  0  # atno 10763 bound_to 10752
  154.6610  135.5334  153.8021 H   0  0  0  0  0  0  0  0  0  0  0  0  # atno 10764 bound_to 10752
  153.0408  135.6534  154.1094 H   0  0  0  0  0  0  0  0  0  0  0  0  # atno 10765 bound_to 10752
  140.4960  134.0793  155.7782 H   0  0  0  0  0  0  0  0  0  0  0  0  # atno 11005 bound_to 11000
  145.3349  139.1749  143.4517 LP  0  0  0  0  0  0  0  0  0  0  0  0  # atno 17320 bound_to 7965
  146.3189  140.3383  142.8646 LP  0  0  0  0  0  0  0  0  0  0  0  0  # atno 17321 bound_to 7965
  140.6773  143.8161  150.7075 LP  0  0  0  0  0  0  0  0  0  0  0  0  # atno 17342 bound_to 10162
  140.1603  143.4281  152.2071 LP  0  0  0  0  0  0  0  0  0  0  0  0  # atno 17343 bound_to 10162
  157.5165  131.0929  151.0133 LP  0  0  0  0  0  0  0  0  0  0  0  0  # atno 17370 bound_to 10713
  157.0475  130.5774  149.5365 LP  0  0  0  0  0  0  0  0  0  0  0  0  # atno 17371 bound_to 10713
  141.1460  133.9054  157.2214 LP  0  0  0  0  0  0  0  0  0  0  0  0  # atno 17394 bound_to 11000
  139.9741  135.0119  156.9587 LP  0  0  0  0  0  0  0  0  0  0  0  0  # atno 17395 bound_to 11000

$$$$
