AV-unprocessed.smi:2784|AV-procd|sdf|10732|dock6
  -GOLD-   2272015173D 1   1.00000     0.00000
 Structure written by MMmdl.
 32 33  0  0  0  0  0  0  0  0  2 V2000
  152.4392  144.9417  158.3902 C   0  0  0  0  0  0  0  0  0  0  0  0
  152.0895  143.6015  158.0818 O   0  0  0  0  0  0  0  0  0  0  0  0
  151.6448  142.8475  159.2070 C   0  0  2  0  0  0  0  0  0  0  0  0
  152.7810  142.7522  160.2318 C   0  0  0  0  0  0  0  0  0  0  0  0
  153.6592  141.6193  159.7097 C   0  0  0  0  0  0  0  0  0  0  0  0
  152.6761  140.6024  159.1236 C   0  0  0  0  0  0  0  0  0  0  0  0
  151.3874  141.3799  158.7918 C   0  0  2  0  0  0  0  0  0  0  0  0
  151.0326  141.2362  157.3810 N   0  0  0  0  0  0  0  0  0  0  0  0
  149.8401  141.5543  156.8575 C   0  0  0  0  0  0  0  0  0  0  0  0
  148.8971  141.9866  157.5210 O   0  0  0  0  0  0  0  0  0  0  0  0
  149.8107  141.3484  155.5323 N   0  0  0  0  0  0  0  0  0  0  0  0
  148.7058  141.5933  154.6852 C   0  0  0  0  0  0  0  0  0  0  0  0
  148.0549  142.7541  154.6250 N   0  3  0  0  0  0  0  0  0  0  0  0
  147.0431  142.6445  153.7035 C   0  0  0  0  0  0  0  0  0  0  0  0
  147.1198  141.3620  153.2156 C   0  0  0  0  0  0  0  0  0  0  0  0
  148.1601  140.6885  153.8234 O   0  0  0  0  0  0  0  0  0  0  0  0
  152.7764  145.4461  157.4848 H   0  0  0  0  0  0  0  0  0  0  0  0
  153.2458  144.9943  159.1212 H   0  0  0  0  0  0  0  0  0  0  0  0
  151.5803  145.4911  158.7777 H   0  0  0  0  0  0  0  0  0  0  0  0
  150.7413  143.2887  159.6317 H   0  0  0  0  0  0  0  0  0  0  0  0
  153.3333  143.6821  160.3651 H   0  0  0  0  0  0  0  0  0  0  0  0
  152.3714  142.4737  161.2037 H   0  0  0  0  0  0  0  0  0  0  0  0
  154.3097  141.9984  158.9204 H   0  0  0  0  0  0  0  0  0  0  0  0
  154.2940  141.1897  160.4852 H   0  0  0  0  0  0  0  0  0  0  0  0
  153.1073  140.0998  158.2566 H   0  0  0  0  0  0  0  0  0  0  0  0
  152.4562  139.8306  159.8623 H   0  0  0  0  0  0  0  0  0  0  0  0
  150.5829  140.9725  159.4074 H   0  0  0  0  0  0  0  0  0  0  0  0
  151.7550  140.8921  156.7655 H   0  0  0  0  0  0  0  0  0  0  0  0
  148.2415  143.5979  155.1523 H   0  0  0  0  0  0  0  0  0  0  0  0
  146.3825  143.4729  153.4907 H   0  0  0  0  0  0  0  0  0  0  0  0
  146.5515  140.8062  152.4840 H   0  0  0  0  0  0  0  0  0  0  0  0
  150.6472  140.9922  155.0940 H   0  0  0  0  0  0  0  0  0  0  0  0
  1  2  1  0  0  0  0
  1 17  1  0  0  0  0
  1 18  1  0  0  0  0
  1 19  1  0  0  0  0
  2  3  1  0  0  0  0
  3  7  1  0  0  0  0
  3  4  1  0  0  0  0
  3 20  1  0  0  0  0
  4  5  1  0  0  0  0
  4 21  1  0  0  0  0
  4 22  1  0  0  0  0
  5  6  1  0  0  0  0
  5 23  1  0  0  0  0
  5 24  1  0  0  0  0
  6  7  1  0  0  0  0
  6 25  1  0  0  0  0
  6 26  1  0  0  0  0
  7  8  1  0  0  0  0
  7 27  1  0  0  0  0
  8 28  1  0  0  0  0
  8  9  1  0  0  0  0
  9 11  1  0  0  0  0
  9 10  2  0  0  0  0
 11 12  1  0  0  0  0
 11 32  1  0  0  0  0
 12 16  1  0  0  0  0
 12 13  2  0  0  0  0
 13 29  1  0  0  0  0
 13 14  1  0  0  0  0
 14 30  1  0  0  0  0
 14 15  2  0  0  0  0
 15 31  1  0  0  0  0
 15 16  1  0  0  0  0
M  CHG  1  13   1
M  END
> <s_m_source_file>
AV-unprocessed.smi

> <i_m_source_file_index>
2784

> <i_lp_mmshare_version>
43012

> <i_f3d_flags>
0

> <s_epik_input>
W0NIM11PW0NAQEhdMVtDSDJdW0NIMl1bQ0gyXVtDQEhdMVtOSF1DKD1PKVtOSF1jMm5bY0hdW2NIXW8y

> <s_epik_cmdline>
J2VwaWtfcHl0aG9uJywgJy1waCcsICc3LjAnLCAnLXRuJywgJzgnLCAnLW1hJywgJzIwMCcsICctbWV0YWxfYmluZGluZycsICctaW1hZScsICc8aW5maWxlLm1hZT4nLCAnLW9tYWUnLCAnPG91dGZpbGUubWFlPic=

> <r_epik_Ionization_Penalty>
6.73843

> <r_epik_Ionization_Penalty_Charging>
6.66704

> <r_epik_Ionization_Penalty_Neutral>
0.0713889

> <r_epik_State_Penalty>
1.94951

> <r_epik_Charging_Adjusted_Penalty>
8.61656

> <i_epik_Tot_Q>
1

> <i_epik_Tot_abs_Q>
1

> <r_epik_Metal_State_Penalty>
1.97013

> <b_epik_Metal_Only>
0

> <s_lp_Force_Field>
OPLS_2005

> <r_lp_Energy>
28.2598

> <b_lp_Chiralities_Consistent>
1

> <s_lp_Variant>
AV-unprocessed.smi:2784-7

> <Gold.Version>
5.8.1

> <Gold.Id.Protein>
6NUR|6NUR_protein|mol2

> <Gold.PLP.Fitness>
38.5670

> <Gold.PLP.PLP>
-30.9897

> <Gold.PLP.part.hbond>
-0.8671

> <Gold.PLP.part.metal>
0.0000

> <Gold.PLP.part.buried>
-6.1361

> <Gold.PLP.part.nonpolar>
-25.1142

> <Gold.PLP.part.repulsive>
0.6197

> <Gold.PLP.ligand.clash>
0.0000

> <Gold.PLP.ligand.torsion>
0.6691

> <Gold.PLP.Chemscore.Hbond>
2.0000

> <Gold.PLP.Chemscore.CHOScore>
0.9682

> <Gold.PLP.Chemscore.Metal>
0.0000

> <Gold.Chemscore.Hbonds>
donor molecule, donor type, donor heavy atom, donor atom, acceptor molecule, acceptor atom, score
      L1  H    13    29       P1  8028  1.14
      L1  C    15    31       P1 10175  0.13

> <Gold.PLP.Chemscore.Internal.Correction>
0.0108

> <Gold.Rescore>
     Score         DG    S(hbond)    S(metal)    S(lipo)     H(rot)  DE(clash)    DE(int)     intcor
     13.78     -14.59       0.99        0.00      78.89       1.34       0.10       0.71       ----

> <Gold.Chemscore.Fitness>
13.7758

> <Gold.Chemscore.DG>
-14.5903

> <Gold.Chemscore.ZeroCoef>
-5.4800

> <Gold.Chemscore.Hbond>
0.9874

> <Gold.Chemscore.Metal>
0.0000

> <Gold.Chemscore.Lipo>
78.8888

> <Gold.Chemscore.Internal_Hbond>
0.0000

> <Gold.Chemscore.DEClash>
0.0997

> <Gold.Chemscore.DEInternal>
0.7148

> <Gold.Chemscore.Rot>
1.3351

> <Gold.Chemscore.Internal.Correction>
   9.000000E+99

> <Gold.Chemscore.Hbonds>
donor molecule, donor type, donor heavy atom, donor atom, acceptor molecule, acceptor atom, score
      L1  H    13    29       P1  8028  0.49

> <Gold.Chemscore.Hbond.Weighted>
-3.2980

> <Gold.Chemscore.Metal.Weighted>
-0.0000

> <Gold.Chemscore.Lipo.Weighted>
-9.2300

> <Gold.Chemscore.Internal_Hbond.Weighted>
0.0000

> <Gold.Chemscore.DEClash.Weighted>
0.0997

> <Gold.Chemscore.DEInternal.Weighted>
0.7148

> <Gold.Chemscore.Rot.Weighted>
3.4177

> <Gold.Chemscore.Internal.Correction.Weighted>
   9.000000E+99

> <Gold.Protein.RotatedTorsions>
[ 6907 6896 6895 6894 ] final  105.25 input  -60.11 | X-H torsion
[ 7974 7965 7964 7962 ] final  -67.17 input  175.53 | X-H torsion
[ 8008 7997 7996 7995 ] final   18.93 input   59.86 | X-H torsion
[ 10167 10162 10161 10158 ] final   45.99 input  -65.29 | X-H torsion
[ 10718 10713 10712 10709 ] final -176.62 input   66.30 | X-H torsion
[ 10763 10752 10751 10750 ] final  -42.86 input  -60.55 | X-H torsion
[ 11005 11000 10999 10996 ] final  -49.74 input  -57.11 | X-H torsion

> <Gold.Protein.ActiveResidues>
 VAL166  LYS551  ARG553  GLY616  TRP617  ASP618  TYR619  PRO620  LYS621  CYS622 
 ASP623  PHE694  ASN695  SER759  ASP760  ASP761  ALA762  ILE779  LEU786  VAL792 
 PHE793  MET794  SER795  GLU796  ALA797  LYS798  CYS799  TRP800  GLU811  SER814 

> <Gold.Protein.RotatedAtoms>
  152.5237  133.9556  159.7692 H   0  0  0  0  0  0  0  0  0  0  0  0  # atno 6907 bound_to 6896
  150.9857  133.6191  159.2723 H   0  0  0  0  0  0  0  0  0  0  0  0  # atno 6908 bound_to 6896
  151.3353  135.0857  159.9405 H   0  0  0  0  0  0  0  0  0  0  0  0  # atno 6909 bound_to 6896
  145.7325  140.8990  143.0572 H   0  0  0  0  0  0  0  0  0  0  0  0  # atno 7974 bound_to 7965
  154.9132  140.3017  155.5255 H   0  0  0  0  0  0  0  0  0  0  0  0  # atno 8008 bound_to 7997
  156.3014  140.2385  156.4109 H   0  0  0  0  0  0  0  0  0  0  0  0  # atno 8009 bound_to 7997
  154.8404  140.0414  157.1526 H   0  0  0  0  0  0  0  0  0  0  0  0  # atno 8010 bound_to 7997
  140.3185  144.2735  150.6187 H   0  0  0  0  0  0  0  0  0  0  0  0  # atno 10167 bound_to 10162
  156.8173  130.9607  151.3113 H   0  0  0  0  0  0  0  0  0  0  0  0  # atno 10718 bound_to 10713
  153.9860  135.6711  153.4752 H   0  0  0  0  0  0  0  0  0  0  0  0  # atno 10763 bound_to 10752
  153.0727  135.4965  154.8335 H   0  0  0  0  0  0  0  0  0  0  0  0  # atno 10764 bound_to 10752
  154.7137  135.3102  154.9119 H   0  0  0  0  0  0  0  0  0  0  0  0  # atno 10765 bound_to 10752
  141.0777  133.6661  156.3630 H   0  0  0  0  0  0  0  0  0  0  0  0  # atno 11005 bound_to 11000
  144.6889  139.9351  143.7473 LP  0  0  0  0  0  0  0  0  0  0  0  0  # atno 17320 bound_to 7965
  146.0524  139.3524  143.0631 LP  0  0  0  0  0  0  0  0  0  0  0  0  # atno 17321 bound_to 7965
  140.5505  143.2207  151.7935 LP  0  0  0  0  0  0  0  0  0  0  0  0  # atno 17342 bound_to 10162
  139.4879  144.4482  151.9684 LP  0  0  0  0  0  0  0  0  0  0  0  0  # atno 17343 bound_to 10162
  157.6475  130.8856  149.9567 LP  0  0  0  0  0  0  0  0  0  0  0  0  # atno 17370 bound_to 10713
  156.1009  130.3656  150.0220 LP  0  0  0  0  0  0  0  0  0  0  0  0  # atno 17371 bound_to 10713
  140.5538  134.6001  157.5415 LP  0  0  0  0  0  0  0  0  0  0  0  0  # atno 17394 bound_to 11000
  139.9589  134.7486  156.0280 LP  0  0  0  0  0  0  0  0  0  0  0  0  # atno 17395 bound_to 11000

$$$$
