AV-unprocessed.smi:3327|AV-procd|sdf|12790|dock10
  -GOLD-   2272019143D 1   1.00000     0.00000
 Structure written by MMmdl.
 40 41  0  0  0  0  0  0  0  0  1 V2000
  153.1369  142.8573  162.8025 C   0  0  0  0  0  0  0  0  0  0  0  0
  152.4172  143.1350  161.4754 C   0  0  1  0  0  0  0  0  0  0  0  0
  152.1082  144.6383  161.3012 C   0  0  0  0  0  0  0  0  0  0  0  0
  151.4943  144.9448  159.9220 C   0  0  0  0  0  0  0  0  0  0  0  0
  152.3473  144.3349  158.7963 C   0  0  0  0  0  0  0  0  0  0  0  0
  152.4764  142.8910  159.0344 N   0  0  0  0  0  0  0  0  0  0  0  0
  151.8935  141.9153  158.2952 C   0  0  0  0  0  0  0  0  0  0  0  0
  152.0152  140.7205  158.5739 O   0  0  0  0  0  0  0  0  0  0  0  0
  151.0514  142.3141  157.0706 C   0  0  0  0  0  0  0  0  0  0  0  0
  150.6338  141.1677  156.2527 N   0  0  0  0  0  0  0  0  0  0  0  0
  149.4819  141.5153  155.4347 C   0  0  0  0  0  0  0  0  0  0  0  0
  149.1862  140.3736  154.4512 C   0  0  0  0  0  0  0  0  0  0  0  0
  150.1315  139.2837  154.5980 N   0  0  0  0  0  0  0  0  0  0  0  0
  149.8708  137.9445  154.7996 C   0  0  0  0  0  0  0  0  0  0  0  0
  151.0741  137.3041  154.8808 C   0  0  0  0  0  0  0  0  0  0  0  0
  152.0249  138.3498  154.7144 C   0  0  0  0  0  0  0  0  0  0  0  0
  151.4577  139.5335  154.5460 N   0  0  0  0  0  0  0  0  0  0  0  0
  153.2251  142.6131  160.2676 C   0  0  0  0  0  0  0  0  0  0  0  0
  154.1034  143.3608  162.8432 H   0  0  0  0  0  0  0  0  0  0  0  0
  153.3118  141.7896  162.9379 H   0  0  0  0  0  0  0  0  0  0  0  0
  152.5448  143.2041  163.6496 H   0  0  0  0  0  0  0  0  0  0  0  0
  151.4676  142.5979  161.4991 H   0  0  0  0  0  0  0  0  0  0  0  0
  151.4386  144.9814  162.0903 H   0  0  0  0  0  0  0  0  0  0  0  0
  153.0305  145.2103  161.4105 H   0  0  0  0  0  0  0  0  0  0  0  0
  150.4819  144.5413  159.8725 H   0  0  0  0  0  0  0  0  0  0  0  0
  151.4060  146.0226  159.7842 H   0  0  0  0  0  0  0  0  0  0  0  0
  151.9186  144.5863  157.8276 H   0  0  0  0  0  0  0  0  0  0  0  0
  153.3402  144.7867  158.7964 H   0  0  0  0  0  0  0  0  0  0  0  0
  150.1624  142.8446  157.4162 H   0  0  0  0  0  0  0  0  0  0  0  0
  151.6341  142.9996  156.4536 H   0  0  0  0  0  0  0  0  0  0  0  0
  151.3852  140.8494  155.6575 H   0  0  0  0  0  0  0  0  0  0  0  0
  148.6159  141.6956  156.0735 H   0  0  0  0  0  0  0  0  0  0  0  0
  149.6829  142.4363  154.8852 H   0  0  0  0  0  0  0  0  0  0  0  0
  148.1810  139.9817  154.6134 H   0  0  0  0  0  0  0  0  0  0  0  0
  149.2242  140.7319  153.4211 H   0  0  0  0  0  0  0  0  0  0  0  0
  148.8626  137.5632  154.8690 H   0  0  0  0  0  0  0  0  0  0  0  0
  151.2485  136.2496  155.0353 H   0  0  0  0  0  0  0  0  0  0  0  0
  153.1030  138.2844  154.7113 H   0  0  0  0  0  0  0  0  0  0  0  0
  154.1963  143.1078  160.2187 H   0  0  0  0  0  0  0  0  0  0  0  0
  153.4424  141.5518  160.3957 H   0  0  0  0  0  0  0  0  0  0  0  0
  1  2  1  0  0  0  0
  1 19  1  0  0  0  0
  1 20  1  0  0  0  0
  1 21  1  0  0  0  0
  2 18  1  0  0  0  0
  2  3  1  0  0  0  0
  2 22  1  0  0  0  0
  3  4  1  0  0  0  0
  3 23  1  0  0  0  0
  3 24  1  0  0  0  0
  4  5  1  0  0  0  0
  4 25  1  0  0  0  0
  4 26  1  0  0  0  0
  5  6  1  0  0  0  0
  5 27  1  0  0  0  0
  5 28  1  0  0  0  0
  6  7  1  0  0  0  0
  6 18  1  0  0  0  0
  7  8  2  0  0  0  0
  7  9  1  0  0  0  0
  9 10  1  0  0  0  0
  9 29  1  0  0  0  0
  9 30  1  0  0  0  0
 10 11  1  0  0  0  0
 10 31  1  0  0  0  0
 11 12  1  0  0  0  0
 11 32  1  0  0  0  0
 11 33  1  0  0  0  0
 12 13  1  0  0  0  0
 12 34  1  0  0  0  0
 12 35  1  0  0  0  0
 13 17  1  0  0  0  0
 13 14  1  0  0  0  0
 14 15  2  0  0  0  0
 14 36  1  0  0  0  0
 15 16  1  0  0  0  0
 15 37  1  0  0  0  0
 16 17  2  0  0  0  0
 16 38  1  0  0  0  0
 18 39  1  0  0  0  0
 18 40  1  0  0  0  0
M  END
> <s_m_source_file>
AV-unprocessed.smi

> <i_m_source_file_index>
3327

> <i_lp_mmshare_version>
43012

> <i_f3d_flags>
0

> <s_epik_input>
W0NIM11bQ0BASF0xW0NIMl1bQ0gyXVtDSDJdTihbQ0gyXTEpQyg9TylbQ0gyXVtOSF1bQ0gyXVtDSDJdbjJbY0hdW2NIXVtjSF1uMg==

> <s_epik_cmdline>
J2VwaWtfcHl0aG9uJywgJy1waCcsICc3LjAnLCAnLXRuJywgJzgnLCAnLW1hJywgJzIwMCcsICctbWV0YWxfYmluZGluZycsICctaW1hZScsICc8aW5maWxlLm1hZT4nLCAnLW9tYWUnLCAnPG91dGZpbGUubWFlPic=

> <r_lp_tautomer_probability>
1

> <r_epik_Ionization_Penalty>
0.752964

> <r_epik_Ionization_Penalty_Charging>
0

> <r_epik_Ionization_Penalty_Neutral>
0.752964

> <r_epik_State_Penalty>
0.778238

> <r_epik_Charging_Adjusted_Penalty>
0.778238

> <i_epik_Tot_Q>
0

> <i_epik_Tot_abs_Q>
0

> <r_epik_Metal_State_Penalty>
0.776974

> <b_epik_Metal_Only>
0

> <s_lp_Force_Field>
OPLS_2005

> <r_lp_Energy>
25.5335

> <b_lp_Chiralities_Consistent>
1

> <s_lp_Variant>
AV-unprocessed.smi:3327-4

> <Gold.Version>
5.8.1

> <Gold.Id.Protein>
6NUR|6NUR_protein|mol2

> <Gold.PLP.Fitness>
51.9008

> <Gold.PLP.PLP>
-50.0802

> <Gold.PLP.part.hbond>
-1.0000

> <Gold.PLP.part.metal>
0.0000

> <Gold.PLP.part.buried>
-4.2717

> <Gold.PLP.part.nonpolar>
-45.2600

> <Gold.PLP.part.repulsive>
0.0955

> <Gold.PLP.ligand.clash>
0.0000

> <Gold.PLP.ligand.torsion>
0.6073

> <Gold.PLP.Chemscore.Hbond>
1.0000

> <Gold.PLP.Chemscore.CHOScore>
0.0000

> <Gold.PLP.Chemscore.Metal>
0.0000

> <Gold.Chemscore.Hbonds>
donor molecule, donor type, donor heavy atom, donor atom, acceptor molecule, acceptor atom, score
      P1  H  7989  7998       L1    17  1.00

> <Gold.PLP.Chemscore.Internal.Correction>
0.0352

> <Gold.Rescore>
     Score         DG    S(hbond)    S(metal)    S(lipo)     H(rot)  DE(clash)    DE(int)     intcor
     15.58     -17.90       1.00        0.00     115.55       1.73       0.11       2.21       ----

> <Gold.Chemscore.Fitness>
15.5764

> <Gold.Chemscore.DG>
-17.9008

> <Gold.Chemscore.ZeroCoef>
-5.4800

> <Gold.Chemscore.Hbond>
0.9969

> <Gold.Chemscore.Metal>
0.0000

> <Gold.Chemscore.Lipo>
115.5475

> <Gold.Chemscore.Internal_Hbond>
0.0000

> <Gold.Chemscore.DEClash>
0.1148

> <Gold.Chemscore.DEInternal>
2.2096

> <Gold.Chemscore.Rot>
1.7296

> <Gold.Chemscore.Internal.Correction>
   9.000000E+99

> <Gold.Chemscore.Hbonds>
donor molecule, donor type, donor heavy atom, donor atom, acceptor molecule, acceptor atom, score
      P1  H  7989  7998       L1    17  0.55

> <Gold.Chemscore.Hbond.Weighted>
-3.3295

> <Gold.Chemscore.Metal.Weighted>
-0.0000

> <Gold.Chemscore.Lipo.Weighted>
-13.5191

> <Gold.Chemscore.Internal_Hbond.Weighted>
0.0000

> <Gold.Chemscore.DEClash.Weighted>
0.1148

> <Gold.Chemscore.DEInternal.Weighted>
2.2096

> <Gold.Chemscore.Rot.Weighted>
4.4278

> <Gold.Chemscore.Internal.Correction.Weighted>
   9.000000E+99

> <Gold.Protein.RotatedTorsions>
[ 6907 6896 6895 6894 ] final  -33.74 input  -60.11 | X-H torsion
[ 7974 7965 7964 7962 ] final  120.68 input  175.53 | X-H torsion
[ 8008 7997 7996 7995 ] final  -65.00 input   59.86 | X-H torsion
[ 10167 10162 10161 10158 ] final  145.09 input  -65.29 | X-H torsion
[ 10718 10713 10712 10709 ] final  -47.42 input   66.30 | X-H torsion
[ 10763 10752 10751 10750 ] final -105.83 input  -60.55 | X-H torsion
[ 11005 11000 10999 10996 ] final  126.74 input  -57.11 | X-H torsion

> <Gold.Protein.ActiveResidues>
 VAL166  LYS551  ARG553  GLY616  TRP617  ASP618  TYR619  PRO620  LYS621  CYS622 
 ASP623  PHE694  ASN695  SER759  ASP760  ASP761  ALA762  ILE779  LEU786  VAL792 
 PHE793  MET794  SER795  GLU796  ALA797  LYS798  CYS799  TRP800  GLU811  SER814 

> <Gold.Protein.RotatedAtoms>
  151.0617  134.9741  159.8263 H   0  0  0  0  0  0  0  0  0  0  0  0  # atno 6907 bound_to 6896
  152.5396  134.2410  159.8872 H   0  0  0  0  0  0  0  0  0  0  0  0  # atno 6908 bound_to 6896
  151.2430  133.4346  159.2642 H   0  0  0  0  0  0  0  0  0  0  0  0  # atno 6909 bound_to 6896
  145.1283  139.3344  143.4678 H   0  0  0  0  0  0  0  0  0  0  0  0  # atno 7974 bound_to 7965
  154.4645  140.0942  156.6984 H   0  0  0  0  0  0  0  0  0  0  0  0  # atno 8008 bound_to 7997
  155.4897  140.3470  155.4334 H   0  0  0  0  0  0  0  0  0  0  0  0  # atno 8009 bound_to 7997
  156.0932  140.1402  156.9554 H   0  0  0  0  0  0  0  0  0  0  0  0  # atno 8010 bound_to 7997
  139.4933  144.5926  151.6649 H   0  0  0  0  0  0  0  0  0  0  0  0  # atno 10167 bound_to 10162
  156.2087  130.4159  149.9144 H   0  0  0  0  0  0  0  0  0  0  0  0  # atno 10718 bound_to 10713
  154.7972  135.4734  154.0190 H   0  0  0  0  0  0  0  0  0  0  0  0  # atno 10763 bound_to 10752
  153.1723  135.6827  153.8597 H   0  0  0  0  0  0  0  0  0  0  0  0  # atno 10764 bound_to 10752
  153.8176  135.3208  155.3385 H   0  0  0  0  0  0  0  0  0  0  0  0  # atno 10765 bound_to 10752
  139.9471  134.9628  156.8751 H   0  0  0  0  0  0  0  0  0  0  0  0  # atno 11005 bound_to 11000
  146.3516  140.1271  142.8598 LP  0  0  0  0  0  0  0  0  0  0  0  0  # atno 17320 bound_to 7965
  145.0664  140.9124  143.4908 LP  0  0  0  0  0  0  0  0  0  0  0  0  # atno 17321 bound_to 7965
  140.5556  144.0353  150.6146 LP  0  0  0  0  0  0  0  0  0  0  0  0  # atno 17342 bound_to 10162
  140.3422  143.3013  152.0576 LP  0  0  0  0  0  0  0  0  0  0  0  0  # atno 17343 bound_to 10162
  156.6829  130.8865  151.3578 LP  0  0  0  0  0  0  0  0  0  0  0  0  # atno 17370 bound_to 10713
  157.7026  130.9350  150.0832 LP  0  0  0  0  0  0  0  0  0  0  0  0  # atno 17371 bound_to 10713
  140.5807  134.0355  155.7463 LP  0  0  0  0  0  0  0  0  0  0  0  0  # atno 17394 bound_to 11000
  141.1125  133.9594  157.2884 LP  0  0  0  0  0  0  0  0  0  0  0  0  # atno 17395 bound_to 11000

$$$$
