AV-unprocessed.smi:2434|AV-procd|sdf|9591|dock5
  -GOLD-   2272013223D 1   1.00000     0.00000
 Structure written by MMmdl.
 36 37  0  0  0  0  0  0  0  0  1 V2000
  153.4675  141.9654  160.5523 C   0  0  0  0  0  0  0  0  0  0  0  0
  153.4153  142.6507  159.1779 C   0  0  0  0  0  0  0  0  0  0  0  0
  152.1096  143.4195  158.8913 C   0  0  0  0  0  0  0  0  0  0  0  0
  150.9206  142.4356  158.8440 C   0  0  0  0  0  0  0  0  0  0  0  0
  150.1922  142.5019  157.5790 N   0  0  0  0  0  0  0  0  0  0  0  0
  149.8167  141.4493  156.8383 C   0  0  0  0  0  0  0  0  0  0  0  0
  150.0634  140.2791  157.1318 O   0  0  0  0  0  0  0  0  0  0  0  0
  149.1156  141.8355  155.7601 N   0  0  0  0  0  0  0  0  0  0  0  0
  148.5329  140.9888  154.7831 C   0  0  0  0  0  0  0  0  0  0  0  0
  149.0368  139.6793  154.6439 C   0  0  0  0  0  0  0  0  0  0  0  0
  148.4493  138.8272  153.6873 C   0  0  0  0  0  0  0  0  0  0  0  0
  147.4128  139.1934  152.9038 N   0  0  0  0  0  0  0  0  0  0  0  0
  146.9161  140.4396  153.0580 C   0  0  0  0  0  0  0  0  0  0  0  0
  147.4284  141.3714  153.9834 C   0  0  0  0  0  0  0  0  0  0  0  0
  146.8442  142.5873  154.1088 F   0  0  0  0  0  0  0  0  0  0  0  0
  151.8782  144.6724  159.7667 C   0  0  0  0  0  0  0  0  0  0  0  0
  151.3966  145.4285  158.5299 C   0  0  0  0  0  0  0  0  0  0  0  0
  152.1730  144.4053  157.7036 C   0  0  0  0  0  0  0  0  0  0  0  0
  154.3759  141.3704  160.6480 H   0  0  0  0  0  0  0  0  0  0  0  0
  152.6192  141.2964  160.6964 H   0  0  0  0  0  0  0  0  0  0  0  0
  153.4693  142.6883  161.3675 H   0  0  0  0  0  0  0  0  0  0  0  0
  154.2847  143.2987  159.0657 H   0  0  0  0  0  0  0  0  0  0  0  0
  153.5502  141.8761  158.4221 H   0  0  0  0  0  0  0  0  0  0  0  0
  151.2727  141.4090  158.9471 H   0  0  0  0  0  0  0  0  0  0  0  0
  150.2590  142.5884  159.6972 H   0  0  0  0  0  0  0  0  0  0  0  0
  149.9385  143.4236  157.2544 H   0  0  0  0  0  0  0  0  0  0  0  0
  148.8715  142.8130  155.7039 H   0  0  0  0  0  0  0  0  0  0  0  0
  149.8641  139.3347  155.2470 H   0  0  0  0  0  0  0  0  0  0  0  0
  148.8215  137.8229  153.5496 H   0  0  0  0  0  0  0  0  0  0  0  0
  146.0742  140.6986  152.4330 H   0  0  0  0  0  0  0  0  0  0  0  0
  151.1243  144.5588  160.5463 H   0  0  0  0  0  0  0  0  0  0  0  0
  152.8008  145.0913  160.1723 H   0  0  0  0  0  0  0  0  0  0  0  0
  150.3174  145.3671  158.3827 H   0  0  0  0  0  0  0  0  0  0  0  0
  151.7614  146.4528  158.4485 H   0  0  0  0  0  0  0  0  0  0  0  0
  153.1870  144.7406  157.4773 H   0  0  0  0  0  0  0  0  0  0  0  0
  151.6598  144.0698  156.8015 H   0  0  0  0  0  0  0  0  0  0  0  0
  1  2  1  0  0  0  0
  1 19  1  0  0  0  0
  1 20  1  0  0  0  0
  1 21  1  0  0  0  0
  2  3  1  0  0  0  0
  2 22  1  0  0  0  0
  2 23  1  0  0  0  0
  3 18  1  0  0  0  0
  3  4  1  0  0  0  0
  3 16  1  0  0  0  0
  4  5  1  0  0  0  0
  4 24  1  0  0  0  0
  4 25  1  0  0  0  0
  5  6  1  0  0  0  0
  5 26  1  0  0  0  0
  6  7  2  0  0  0  0
  6  8  1  0  0  0  0
  8  9  1  0  0  0  0
  8 27  1  0  0  0  0
  9 14  1  0  0  0  0
  9 10  2  0  0  0  0
 10 11  1  0  0  0  0
 10 28  1  0  0  0  0
 11 12  2  0  0  0  0
 11 29  1  0  0  0  0
 12 13  1  0  0  0  0
 13 14  2  0  0  0  0
 13 30  1  0  0  0  0
 14 15  1  0  0  0  0
 16 17  1  0  0  0  0
 16 31  1  0  0  0  0
 16 32  1  0  0  0  0
 17 18  1  0  0  0  0
 17 33  1  0  0  0  0
 17 34  1  0  0  0  0
 18 35  1  0  0  0  0
 18 36  1  0  0  0  0
M  END
> <s_m_source_file>
AV-unprocessed.smi

> <i_m_source_file_index>
2434

> <i_lp_mmshare_version>
43012

> <i_f3d_flags>
0

> <s_epik_input>
W0NIMl0xW0NIMl1bQ0gyXUMxKFtDSDJdW0NIM10pW0NIMl1bTkhdQyg9TylbTkhdYzJbY0hdW2NIXW5bY0hdYzJG

> <s_epik_cmdline>
J2VwaWtfcHl0aG9uJywgJy1waCcsICc3LjAnLCAnLXRuJywgJzgnLCAnLW1hJywgJzIwMCcsICctbWV0YWxfYmluZGluZycsICctaW1hZScsICc8aW5maWxlLm1hZT4nLCAnLW9tYWUnLCAnPG91dGZpbGUubWFlPic=

> <r_epik_Ionization_Penalty>
0.00332283

> <r_epik_Ionization_Penalty_Charging>
0

> <r_epik_Ionization_Penalty_Neutral>
0.00332283

> <r_epik_State_Penalty>
0.00231995

> <r_epik_Charging_Adjusted_Penalty>
0.00231995

> <i_epik_Tot_Q>
0

> <i_epik_Tot_abs_Q>
0

> <r_epik_Metal_State_Penalty>
-0

> <b_epik_Metal_Only>
0

> <s_lp_Force_Field>
OPLS_2005

> <r_lp_Energy>
27.2745

> <b_lp_Chiralities_Consistent>
1

> <s_lp_Variant>
AV-unprocessed.smi:2434-1

> <Gold.Version>
5.8.1

> <Gold.Id.Protein>
6NUR|6NUR_protein|mol2

> <Gold.PLP.Fitness>
47.0254

> <Gold.PLP.PLP>
-39.2678

> <Gold.PLP.part.hbond>
-1.4059

> <Gold.PLP.part.metal>
0.0000

> <Gold.PLP.part.buried>
-2.9291

> <Gold.PLP.part.nonpolar>
-35.9550

> <Gold.PLP.part.repulsive>
1.6384

> <Gold.PLP.ligand.clash>
0.0013

> <Gold.PLP.ligand.torsion>
1.3112

> <Gold.PLP.Chemscore.Hbond>
1.3172

> <Gold.PLP.Chemscore.CHOScore>
1.9991

> <Gold.PLP.Chemscore.Metal>
0.0000

> <Gold.Chemscore.Hbonds>
donor molecule, donor type, donor heavy atom, donor atom, acceptor molecule, acceptor atom, score
      L1  H     5    26       P1  8028  0.32
      L1  H     8    27       P1  8028  1.00
      L1  C    11    29       P1  7948  1.00
      L1  C    13    30       P1 10175  1.00

> <Gold.PLP.Chemscore.Internal.Correction>
0.4326

> <Gold.Rescore>
     Score         DG    S(hbond)    S(metal)    S(lipo)     H(rot)  DE(clash)    DE(int)     intcor
     16.69     -20.98       1.71        0.00     114.35       1.40       1.57       2.72       ----

> <Gold.Chemscore.Fitness>
16.6922

> <Gold.Chemscore.DG>
-20.9794

> <Gold.Chemscore.ZeroCoef>
-5.4800

> <Gold.Chemscore.Hbond>
1.7072

> <Gold.Chemscore.Metal>
0.0000

> <Gold.Chemscore.Lipo>
114.3495

> <Gold.Chemscore.Internal_Hbond>
0.0000

> <Gold.Chemscore.DEClash>
1.5699

> <Gold.Chemscore.DEInternal>
2.7173

> <Gold.Chemscore.Rot>
1.3990

> <Gold.Chemscore.Internal.Correction>
   9.000000E+99

> <Gold.Chemscore.Hbonds>
donor molecule, donor type, donor heavy atom, donor atom, acceptor molecule, acceptor atom, score
      L1  H     5    26       P1  8028  0.30
      L1  H     8    27       P1  8028  1.00

> <Gold.Chemscore.Hbond.Weighted>
-5.7019

> <Gold.Chemscore.Metal.Weighted>
-0.0000

> <Gold.Chemscore.Lipo.Weighted>
-13.3789

> <Gold.Chemscore.Internal_Hbond.Weighted>
0.0000

> <Gold.Chemscore.DEClash.Weighted>
1.5699

> <Gold.Chemscore.DEInternal.Weighted>
2.7173

> <Gold.Chemscore.Rot.Weighted>
3.5814

> <Gold.Chemscore.Internal.Correction.Weighted>
   9.000000E+99

> <Gold.Protein.RotatedTorsions>
[ 6907 6896 6895 6894 ] final  119.13 input  -60.11 | X-H torsion
[ 7974 7965 7964 7962 ] final   60.78 input  175.53 | X-H torsion
[ 8008 7997 7996 7995 ] final  -29.93 input   59.86 | X-H torsion
[ 10167 10162 10161 10158 ] final -117.29 input  -65.29 | X-H torsion
[ 10718 10713 10712 10709 ] final  -51.25 input   66.30 | X-H torsion
[ 10763 10752 10751 10750 ] final   93.33 input  -60.55 | X-H torsion
[ 11005 11000 10999 10996 ] final -111.44 input  -57.11 | X-H torsion

> <Gold.Protein.ActiveResidues>
 VAL166  LYS551  ARG553  GLY616  TRP617  ASP618  TYR619  PRO620  LYS621  CYS622 
 ASP623  PHE694  ASN695  SER759  ASP760  ASP761  ALA762  ILE779  LEU786  VAL792 
 PHE793  MET794  SER795  GLU796  ALA797  LYS798  CYS799  TRP800  GLU811  SER814 

> <Gold.Protein.RotatedAtoms>
  152.4494  133.7599  159.6740 H   0  0  0  0  0  0  0  0  0  0  0  0  # atno 6907 bound_to 6896
  150.8402  133.7938  159.3070 H   0  0  0  0  0  0  0  0  0  0  0  0  # atno 6908 bound_to 6896
  151.5565  135.1069  160.0014 H   0  0  0  0  0  0  0  0  0  0  0  0  # atno 6909 bound_to 6896
  145.8921  139.3519  143.0643 H   0  0  0  0  0  0  0  0  0  0  0  0  # atno 7974 bound_to 7965
  154.4270  140.1805  156.1327 H   0  0  0  0  0  0  0  0  0  0  0  0  # atno 8008 bound_to 7997
  156.0055  140.3356  155.6863 H   0  0  0  0  0  0  0  0  0  0  0  0  # atno 8009 bound_to 7997
  155.6183  140.0657  157.2676 H   0  0  0  0  0  0  0  0  0  0  0  0  # atno 8010 bound_to 7997
  140.0700  143.4886  152.1985 H   0  0  0  0  0  0  0  0  0  0  0  0  # atno 10167 bound_to 10162
  156.1727  130.4149  149.9623 H   0  0  0  0  0  0  0  0  0  0  0  0  # atno 10718 bound_to 10713
  153.2291  135.4329  155.0575 H   0  0  0  0  0  0  0  0  0  0  0  0  # atno 10763 bound_to 10752
  154.8288  135.3375  154.6813 H   0  0  0  0  0  0  0  0  0  0  0  0  # atno 10764 bound_to 10752
  153.7241  135.7015  153.5061 H   0  0  0  0  0  0  0  0  0  0  0  0  # atno 10765 bound_to 10752
  141.0734  133.9341  157.2439 H   0  0  0  0  0  0  0  0  0  0  0  0  # atno 11005 bound_to 11000
  145.8895  140.9313  143.0559 LP  0  0  0  0  0  0  0  0  0  0  0  0  # atno 17320 bound_to 7965
  144.6731  140.0886  143.7466 LP  0  0  0  0  0  0  0  0  0  0  0  0  # atno 17321 bound_to 7965
  139.5842  144.7524  151.3563 LP  0  0  0  0  0  0  0  0  0  0  0  0  # atno 17342 bound_to 10162
  140.7130  143.7340  150.7602 LP  0  0  0  0  0  0  0  0  0  0  0  0  # atno 17343 bound_to 10162
  156.7418  130.9082  151.3632 LP  0  0  0  0  0  0  0  0  0  0  0  0  # atno 17370 bound_to 10713
  157.6814  130.9144  150.0277 LP  0  0  0  0  0  0  0  0  0  0  0  0  # atno 17371 bound_to 10713
  139.9547  135.0168  156.9094 LP  0  0  0  0  0  0  0  0  0  0  0  0  # atno 17394 bound_to 11000
  140.5625  134.0521  155.7403 LP  0  0  0  0  0  0  0  0  0  0  0  0  # atno 17395 bound_to 11000

$$$$
