AV-unprocessed.smi:1099|AV-procd|sdf|4755|dock6
  -GOLD-   22720 3293D 1   1.00000     0.00000
 Structure written by MMmdl.
 41 43  0  0  0  0  0  0  0  0  1 V2000
  150.8976  144.3689  158.8007 C   0  0  0  0  0  0  0  0  0  0  0  0
  151.7101  144.7667  160.0374 C   0  0  0  0  0  0  0  0  0  0  0  0
  152.4316  143.6103  160.6446 C   0  0  0  0  0  0  0  0  0  0  0  0
  153.0196  142.6488  159.9275 N   0  0  0  0  0  0  0  0  0  0  0  0
  153.6604  141.6964  160.7266 C   0  0  0  0  0  0  0  0  0  0  0  0
  154.3634  140.5351  160.0923 C   0  0  0  0  0  0  0  0  0  0  0  0
  153.6477  139.2017  160.3660 C   0  0  0  0  0  0  0  0  0  0  0  0
  152.3790  139.1171  159.6516 N   0  0  0  0  0  0  0  0  0  0  0  0
  152.2458  138.8037  158.3534 C   0  0  0  0  0  0  0  0  0  0  0  0
  153.2052  138.5412  157.6275 O   0  0  0  0  0  0  0  0  0  0  0  0
  150.8092  138.7907  157.8008 C   0  0  2  0  0  0  0  0  0  0  0  0
  150.4213  137.4527  157.1236 C   0  0  0  0  0  0  0  0  0  0  0  0
  149.9670  137.8877  155.7163 C   0  0  1  0  0  0  0  0  0  0  0  0
  148.6403  138.6639  155.8224 C   0  0  0  0  0  0  0  0  0  0  0  0
  149.0800  140.0047  156.4420 C   0  0  0  0  0  0  0  0  0  0  0  0
  150.5938  139.8006  156.6449 C   0  0  2  0  0  0  0  0  0  0  0  0
  150.9542  139.0006  155.3935 C   0  0  0  0  0  0  0  0  0  0  0  0
  153.5560  141.9587  162.0699 C   0  0  0  0  0  0  0  0  0  0  0  0
  152.6523  143.4152  162.3798 S   0  0  0  0  0  0  0  0  0  0  0  0
  150.3846  145.2333  158.3784 H   0  0  0  0  0  0  0  0  0  0  0  0
  150.1431  143.6216  159.0489 H   0  0  0  0  0  0  0  0  0  0  0  0
  151.5408  143.9515  158.0254 H   0  0  0  0  0  0  0  0  0  0  0  0
  152.4395  145.5324  159.7719 H   0  0  0  0  0  0  0  0  0  0  0  0
  151.0538  145.2077  160.7886 H   0  0  0  0  0  0  0  0  0  0  0  0
  154.4404  140.6914  159.0156 H   0  0  0  0  0  0  0  0  0  0  0  0
  155.3892  140.4835  160.4593 H   0  0  0  0  0  0  0  0  0  0  0  0
  154.2879  138.3614  160.0916 H   0  0  0  0  0  0  0  0  0  0  0  0
  153.4431  139.1002  161.4323 H   0  0  0  0  0  0  0  0  0  0  0  0
  151.5423  139.3161  160.1808 H   0  0  0  0  0  0  0  0  0  0  0  0
  150.1202  139.0089  158.6189 H   0  0  0  0  0  0  0  0  0  0  0  0
  151.2651  136.7645  157.0522 H   0  0  0  0  0  0  0  0  0  0  0  0
  149.6281  136.9358  157.6650 H   0  0  0  0  0  0  0  0  0  0  0  0
  149.9395  137.0713  154.9940 H   0  0  0  0  0  0  0  0  0  0  0  0
  148.2014  138.8236  154.8368 H   0  0  0  0  0  0  0  0  0  0  0  0
  147.9048  138.1424  156.4362 H   0  0  0  0  0  0  0  0  0  0  0  0
  148.8902  140.8261  155.7499 H   0  0  0  0  0  0  0  0  0  0  0  0
  148.5575  140.2271  157.3730 H   0  0  0  0  0  0  0  0  0  0  0  0
  151.1447  140.7352  156.7601 H   0  0  0  0  0  0  0  0  0  0  0  0
  151.9901  138.6630  155.3576 H   0  0  0  0  0  0  0  0  0  0  0  0
  150.7245  139.5251  154.4643 H   0  0  0  0  0  0  0  0  0  0  0  0
  153.9570  141.3860  162.8930 H   0  0  0  0  0  0  0  0  0  0  0  0
  1  2  1  0  0  0  0
  1 20  1  0  0  0  0
  1 21  1  0  0  0  0
  1 22  1  0  0  0  0
  2  3  1  0  0  0  0
  2 23  1  0  0  0  0
  2 24  1  0  0  0  0
  3 19  1  0  0  0  0
  3  4  2  0  0  0  0
  4  5  1  0  0  0  0
  5  6  1  0  0  0  0
  5 18  2  0  0  0  0
  6  7  1  0  0  0  0
  6 25  1  0  0  0  0
  6 26  1  0  0  0  0
  7  8  1  0  0  0  0
  7 27  1  0  0  0  0
  7 28  1  0  0  0  0
  8  9  1  0  0  0  0
  8 29  1  0  0  0  0
  9 10  2  0  0  0  0
  9 11  1  0  0  0  0
 11 16  1  0  0  0  0
 11 12  1  0  0  0  0
 11 30  1  0  0  0  0
 12 13  1  0  0  0  0
 12 31  1  0  0  0  0
 12 32  1  0  0  0  0
 13 17  1  0  0  0  0
 13 14  1  0  0  0  0
 13 33  1  0  0  0  0
 14 15  1  0  0  0  0
 14 34  1  0  0  0  0
 14 35  1  0  0  0  0
 15 16  1  0  0  0  0
 15 36  1  0  0  0  0
 15 37  1  0  0  0  0
 16 17  1  0  0  0  0
 16 38  1  0  0  0  0
 17 39  1  0  0  0  0
 17 40  1  0  0  0  0
 18 19  1  0  0  0  0
 18 41  1  0  0  0  0
M  END
> <s_m_source_file>
AV-unprocessed.smi

> <i_m_source_file_index>
1099

> <i_lp_mmshare_version>
43012

> <i_f3d_flags>
0

> <s_epik_input>
W0NIM11bQ0gyXWMxbmMoW2NIXXMxKVtDSDJdW0NIMl1bTkhdQyg9TylbQ0BIXShbQ0gyXVtDQEBIXTIzKVtDQEBIXShbQ0gyXTMpW0NIMl1bQ0gyXTI=

> <s_epik_cmdline>
J2VwaWtfcHl0aG9uJywgJy1waCcsICc3LjAnLCAnLXRuJywgJzgnLCAnLW1hJywgJzIwMCcsICctbWV0YWxfYmluZGluZycsICctaW1hZScsICc8aW5maWxlLm1hZT4nLCAnLW9tYWUnLCAnPG91dGZpbGUubWFlPic=

> <r_epik_Ionization_Penalty>
0.00110131

> <r_epik_Ionization_Penalty_Charging>
0

> <r_epik_Ionization_Penalty_Neutral>
0.00110131

> <r_epik_State_Penalty>
0.00072257

> <r_epik_Charging_Adjusted_Penalty>
0.00072257

> <i_epik_Tot_Q>
0

> <i_epik_Tot_abs_Q>
0

> <r_epik_Metal_State_Penalty>
-0

> <b_epik_Metal_Only>
0

> <s_lp_Force_Field>
OPLS_2005

> <r_lp_Energy>
37.6271

> <b_lp_Chiralities_Consistent>
1

> <s_lp_Variant>
AV-unprocessed.smi:1099-1

> <Gold.Version>
5.8.1

> <Gold.Id.Protein>
6NUR|6NUR_protein|mol2

> <Gold.PLP.Fitness>
50.7207

> <Gold.PLP.PLP>
-49.0513

> <Gold.PLP.part.hbond>
-1.0000

> <Gold.PLP.part.metal>
0.0000

> <Gold.PLP.part.buried>
-4.7212

> <Gold.PLP.part.nonpolar>
-44.1909

> <Gold.PLP.part.repulsive>
0.0938

> <Gold.PLP.ligand.clash>
0.0000

> <Gold.PLP.ligand.torsion>
0.5809

> <Gold.PLP.Chemscore.Hbond>
0.9280

> <Gold.PLP.Chemscore.CHOScore>
0.0000

> <Gold.PLP.Chemscore.Metal>
0.0000

> <Gold.Chemscore.Hbonds>
donor molecule, donor type, donor heavy atom, donor atom, acceptor molecule, acceptor atom, score
      P1  H  7997  8008       L1    10  0.73

> <Gold.PLP.Chemscore.Internal.Correction>
0.0471

> <Gold.Rescore>
     Score         DG    S(hbond)    S(metal)    S(lipo)     H(rot)  DE(clash)    DE(int)     intcor
     20.32     -20.79       0.95        0.00     134.75       1.42       0.01       0.45       ----

> <Gold.Chemscore.Fitness>
20.3227

> <Gold.Chemscore.DG>
-20.7879

> <Gold.Chemscore.ZeroCoef>
-5.4800

> <Gold.Chemscore.Hbond>
0.9487

> <Gold.Chemscore.Metal>
0.0000

> <Gold.Chemscore.Lipo>
134.7461

> <Gold.Chemscore.Internal_Hbond>
0.0000

> <Gold.Chemscore.DEClash>
0.0110

> <Gold.Chemscore.DEInternal>
0.4542

> <Gold.Chemscore.Rot>
1.4165

> <Gold.Chemscore.Internal.Correction>
   9.000000E+99

> <Gold.Chemscore.Hbonds>
donor molecule, donor type, donor heavy atom, donor atom, acceptor molecule, acceptor atom, score
      P1  H  7997  8008       L1    10  0.71

> <Gold.Chemscore.Hbond.Weighted>
-3.1688

> <Gold.Chemscore.Metal.Weighted>
-0.0000

> <Gold.Chemscore.Lipo.Weighted>
-15.7653

> <Gold.Chemscore.Internal_Hbond.Weighted>
0.0000

> <Gold.Chemscore.DEClash.Weighted>
0.0110

> <Gold.Chemscore.DEInternal.Weighted>
0.4542

> <Gold.Chemscore.Rot.Weighted>
3.6262

> <Gold.Chemscore.Internal.Correction.Weighted>
   9.000000E+99

> <Gold.Protein.RotatedTorsions>
[ 6907 6896 6895 6894 ] final  163.40 input  -60.11 | X-H torsion
[ 7974 7965 7964 7962 ] final  170.28 input  175.53 | X-H torsion
[ 8008 7997 7996 7995 ] final  -91.79 input   59.86 | X-H torsion
[ 10167 10162 10161 10158 ] final  -36.53 input  -65.29 | X-H torsion
[ 10718 10713 10712 10709 ] final  -33.07 input   66.30 | X-H torsion
[ 10763 10752 10751 10750 ] final  -11.00 input  -60.55 | X-H torsion
[ 11005 11000 10999 10996 ] final -147.18 input  -57.11 | X-H torsion

> <Gold.Protein.ActiveResidues>
 VAL166  LYS551  ARG553  GLY616  TRP617  ASP618  TYR619  PRO620  LYS621  CYS622 
 ASP623  PHE694  ASN695  SER759  ASP760  ASP761  ALA762  ILE779  LEU786  VAL792 
 PHE793  MET794  SER795  GLU796  ALA797  LYS798  CYS799  TRP800  GLU811  SER814 

> <Gold.Protein.RotatedAtoms>
  151.9258  133.3598  159.3912 H   0  0  0  0  0  0  0  0  0  0  0  0  # atno 6907 bound_to 6896
  150.7027  134.4588  159.5380 H   0  0  0  0  0  0  0  0  0  0  0  0  # atno 6908 bound_to 6896
  152.2220  134.8404  160.0535 H   0  0  0  0  0  0  0  0  0  0  0  0  # atno 6909 bound_to 6896
  144.7329  139.9178  143.6418 H   0  0  0  0  0  0  0  0  0  0  0  0  # atno 7974 bound_to 7965
  154.7151  140.0515  157.0587 H   0  0  0  0  0  0  0  0  0  0  0  0  # atno 8008 bound_to 7997
  155.0502  140.3178  155.4675 H   0  0  0  0  0  0  0  0  0  0  0  0  # atno 8009 bound_to 7997
  156.2801  140.2117  156.5627 H   0  0  0  0  0  0  0  0  0  0  0  0  # atno 8010 bound_to 7997
  140.7140  143.3402  151.2374 H   0  0  0  0  0  0  0  0  0  0  0  0  # atno 10167 bound_to 10162
  156.3671  130.4333  149.7575 H   0  0  0  0  0  0  0  0  0  0  0  0  # atno 10718 bound_to 10713
  153.4773  135.7017  153.5958 H   0  0  0  0  0  0  0  0  0  0  0  0  # atno 10763 bound_to 10752
  153.4187  135.3831  155.2097 H   0  0  0  0  0  0  0  0  0  0  0  0  # atno 10764 bound_to 10752
  154.8723  135.3922  154.4218 H   0  0  0  0  0  0  0  0  0  0  0  0  # atno 10765 bound_to 10752
  140.7743  134.3153  157.5065 H   0  0  0  0  0  0  0  0  0  0  0  0  # atno 11005 bound_to 11000
  146.0952  139.3944  143.0381 LP  0  0  0  0  0  0  0  0  0  0  0  0  # atno 17320 bound_to 7965
  145.7656  140.9918  143.1177 LP  0  0  0  0  0  0  0  0  0  0  0  0  # atno 17321 bound_to 7965
  139.6908  143.9696  152.2858 LP  0  0  0  0  0  0  0  0  0  0  0  0  # atno 17342 bound_to 10162
  139.9356  144.6714  150.8318 LP  0  0  0  0  0  0  0  0  0  0  0  0  # atno 17343 bound_to 10162
  156.4717  130.7999  151.3017 LP  0  0  0  0  0  0  0  0  0  0  0  0  # atno 17370 bound_to 10713
  157.7480  131.0034  150.3036 LP  0  0  0  0  0  0  0  0  0  0  0  0  # atno 17371 bound_to 10713
  139.8751  134.9280  156.3439 LP  0  0  0  0  0  0  0  0  0  0  0  0  # atno 17394 bound_to 11000
  140.9544  133.7430  156.0315 LP  0  0  0  0  0  0  0  0  0  0  0  0  # atno 17395 bound_to 11000

$$$$
