AV-unprocessed.smi:2330|AV-procd|sdf|9313|dock1
  -GOLD-   2272012533D 1   1.00000     0.00000
 Structure written by MMmdl.
 42 43  0  0  0  0  0  0  0  0  1 V2000
  144.7758  145.6290  153.9660 C   0  0  0  0  0  0  0  0  0  0  0  0
  144.8500  144.4036  154.8877 C   0  0  2  0  0  0  0  0  0  0  0  0
  144.9801  144.8168  156.3662 C   0  0  0  0  0  0  0  0  0  0  0  0
  145.0506  143.5908  157.2940 C   0  0  0  0  0  0  0  0  0  0  0  0
  146.1790  142.6194  156.8968 C   0  0  2  0  0  0  0  0  0  0  0  0
  147.4844  143.2085  157.1926 N   0  0  0  0  0  0  0  0  0  0  0  0
  148.0676  143.2682  158.3978 C   0  0  0  0  0  0  0  0  0  0  0  0
  147.5826  142.8055  159.4304 O   0  0  0  0  0  0  0  0  0  0  0  0
  149.2401  143.9141  158.3461 N   0  0  0  0  0  0  0  0  0  0  0  0
  150.0812  144.2182  159.5005 C   0  0  0  0  0  0  0  0  0  0  0  0
  151.5883  144.0432  159.2077 C   0  0  1  0  0  0  0  0  0  0  0  0
  152.3549  145.3733  159.2002 C   0  0  0  0  0  0  0  0  0  0  0  0
  152.2437  143.0163  160.0815 C   0  0  0  0  0  0  0  0  0  0  0  0
  152.7455  141.8639  159.6259 N   0  0  0  0  0  0  0  0  0  0  0  0
  153.3199  141.0927  160.6391 C   0  0  0  0  0  0  0  0  0  0  0  0
  153.2528  141.6778  161.8776 C   0  0  0  0  0  0  0  0  0  0  0  0
  152.4597  143.2275  161.8169 S   0  0  0  0  0  0  0  0  0  0  0  0
  146.0822  142.2345  155.4076 C   0  0  0  0  0  0  0  0  0  0  0  0
  146.0060  143.4667  154.4883 C   0  0  0  0  0  0  0  0  0  0  0  0
  145.6846  146.2285  154.0288 H   0  0  0  0  0  0  0  0  0  0  0  0
  143.9345  146.2696  154.2319 H   0  0  0  0  0  0  0  0  0  0  0  0
  144.6449  145.3300  152.9257 H   0  0  0  0  0  0  0  0  0  0  0  0
  143.9157  143.8515  154.7747 H   0  0  0  0  0  0  0  0  0  0  0  0
  145.8713  145.4312  156.5013 H   0  0  0  0  0  0  0  0  0  0  0  0
  144.1328  145.4403  156.6543 H   0  0  0  0  0  0  0  0  0  0  0  0
  145.1758  143.9114  158.3291 H   0  0  0  0  0  0  0  0  0  0  0  0
  144.0968  143.0628  157.2551 H   0  0  0  0  0  0  0  0  0  0  0  0
  146.0509  141.7088  157.4846 H   0  0  0  0  0  0  0  0  0  0  0  0
  147.9740  143.6240  156.4137 H   0  0  0  0  0  0  0  0  0  0  0  0
  149.5566  144.2571  157.4509 H   0  0  0  0  0  0  0  0  0  0  0  0
  149.8739  145.2269  159.8612 H   0  0  0  0  0  0  0  0  0  0  0  0
  149.7850  143.5390  160.3003 H   0  0  0  0  0  0  0  0  0  0  0  0
  151.6611  143.6565  158.1904 H   0  0  0  0  0  0  0  0  0  0  0  0
  153.3905  145.2275  158.8914 H   0  0  0  0  0  0  0  0  0  0  0  0
  152.3633  145.8317  160.1894 H   0  0  0  0  0  0  0  0  0  0  0  0
  151.9009  146.0836  158.5087 H   0  0  0  0  0  0  0  0  0  0  0  0
  153.7569  140.1372  160.3887 H   0  0  0  0  0  0  0  0  0  0  0  0
  153.6201  141.2934  162.8176 H   0  0  0  0  0  0  0  0  0  0  0  0
  146.9288  141.6079  155.1243 H   0  0  0  0  0  0  0  0  0  0  0  0
  145.1910  141.6244  155.2551 H   0  0  0  0  0  0  0  0  0  0  0  0
  145.8804  143.1405  153.4554 H   0  0  0  0  0  0  0  0  0  0  0  0
  146.9515  144.0097  154.5241 H   0  0  0  0  0  0  0  0  0  0  0  0
  1  2  1  0  0  0  0
  1 20  1  0  0  0  0
  1 21  1  0  0  0  0
  1 22  1  0  0  0  0
  2 19  1  0  0  0  0
  2  3  1  0  0  0  0
  2 23  1  0  0  0  0
  3  4  1  0  0  0  0
  3 24  1  0  0  0  0
  3 25  1  0  0  0  0
  4  5  1  0  0  0  0
  4 26  1  0  0  0  0
  4 27  1  0  0  0  0
  5  6  1  0  0  0  0
  5 18  1  0  0  0  0
  5 28  1  0  0  0  0
  6  7  1  0  0  0  0
  6 29  1  0  0  0  0
  7  8  2  0  0  0  0
  7  9  1  0  0  0  0
  9 10  1  0  0  0  0
  9 30  1  0  0  0  0
 10 11  1  0  0  0  0
 10 31  1  0  0  0  0
 10 32  1  0  0  0  0
 11 12  1  0  0  0  0
 11 13  1  0  0  0  0
 11 33  1  0  0  0  0
 12 34  1  0  0  0  0
 12 35  1  0  0  0  0
 12 36  1  0  0  0  0
 13 17  1  0  0  0  0
 13 14  2  0  0  0  0
 14 15  1  0  0  0  0
 15 16  2  0  0  0  0
 15 37  1  0  0  0  0
 16 17  1  0  0  0  0
 16 38  1  0  0  0  0
 18 19  1  0  0  0  0
 18 39  1  0  0  0  0
 18 40  1  0  0  0  0
 19 41  1  0  0  0  0
 19 42  1  0  0  0  0
M  END
> <s_m_source_file>
AV-unprocessed.smi

> <i_m_source_file_index>
2330

> <i_lp_mmshare_version>
43012

> <i_f3d_flags>
0

> <s_epik_input>
W0NIM11bQ0BASF0xW0NIMl1bQ0gyXVtDQEhdKFtDSDJdW0NIMl0xKVtOSF1DKD1PKVtOSF1bQ0gyXVtDQEhdKFtDSDNdKWMybltjSF1bY0hdczI=

> <s_epik_cmdline>
J2VwaWtfcHl0aG9uJywgJy1waCcsICc3LjAnLCAnLXRuJywgJzgnLCAnLW1hJywgJzIwMCcsICctbWV0YWxfYmluZGluZycsICctaW1hZScsICc8aW5maWxlLm1hZT4nLCAnLW9tYWUnLCAnPG91dGZpbGUubWFlPic=

> <r_lp_tautomer_probability>
1

> <r_epik_Ionization_Penalty>
0.000331107

> <r_epik_Ionization_Penalty_Charging>
0

> <r_epik_Ionization_Penalty_Neutral>
0.000331107

> <r_epik_State_Penalty>
-0

> <r_epik_Charging_Adjusted_Penalty>
0

> <i_epik_Tot_Q>
0

> <i_epik_Tot_abs_Q>
0

> <r_epik_Metal_State_Penalty>
-0

> <b_epik_Metal_Only>
0

> <s_lp_Force_Field>
OPLS_2005

> <r_lp_Energy>
-2.32189

> <b_lp_Chiralities_Consistent>
1

> <s_lp_Variant>
AV-unprocessed.smi:2330-4

> <Gold.Version>
5.8.1

> <Gold.Id.Protein>
6NUR|6NUR_protein|mol2

> <Gold.PLP.Fitness>
48.7688

> <Gold.PLP.PLP>
-44.0347

> <Gold.PLP.part.hbond>
-5.4312

> <Gold.PLP.part.metal>
0.0000

> <Gold.PLP.part.buried>
-2.7027

> <Gold.PLP.part.nonpolar>
-34.6241

> <Gold.PLP.part.repulsive>
0.1337

> <Gold.PLP.ligand.clash>
0.0000

> <Gold.PLP.ligand.torsion>
1.2206

> <Gold.PLP.Chemscore.Hbond>
2.3441

> <Gold.PLP.Chemscore.CHOScore>
0.0000

> <Gold.PLP.Chemscore.Metal>
0.0000

> <Gold.Chemscore.Hbonds>
donor molecule, donor type, donor heavy atom, donor atom, acceptor molecule, acceptor atom, score
      L1  H     6    29       P1  8028  0.50
      L1  H     9    30       P1  8028  0.71
      P1  H  6933  6944       L1     8  0.30
      P1  H  6934  6946       L1     8  0.03

> <Gold.PLP.Chemscore.Internal.Correction>
0.1430

> <Gold.Rescore>
     Score         DG    S(hbond)    S(metal)    S(lipo)     H(rot)  DE(clash)    DE(int)     intcor
     17.36     -18.53       1.49        0.00     100.74       1.45       0.18       0.99       ----

> <Gold.Chemscore.Fitness>
17.3612

> <Gold.Chemscore.DG>
-18.5290

> <Gold.Chemscore.ZeroCoef>
-5.4800

> <Gold.Chemscore.Hbond>
1.4920

> <Gold.Chemscore.Metal>
0.0000

> <Gold.Chemscore.Lipo>
100.7417

> <Gold.Chemscore.Internal_Hbond>
0.0000

> <Gold.Chemscore.DEClash>
0.1795

> <Gold.Chemscore.DEInternal>
0.9883

> <Gold.Chemscore.Rot>
1.4536

> <Gold.Chemscore.Internal.Correction>
   9.000000E+99

> <Gold.Chemscore.Hbonds>
donor molecule, donor type, donor heavy atom, donor atom, acceptor molecule, acceptor atom, score
      L1  H     6    29       P1  8028  0.02
      L1  H     9    30       P1  8028  0.12
      P1  H  6933  6944       L1     8  0.31
      P1  H  6934  6946       L1     8  0.06

> <Gold.Chemscore.Hbond.Weighted>
-4.9834

> <Gold.Chemscore.Metal.Weighted>
-0.0000

> <Gold.Chemscore.Lipo.Weighted>
-11.7868

> <Gold.Chemscore.Internal_Hbond.Weighted>
0.0000

> <Gold.Chemscore.DEClash.Weighted>
0.1795

> <Gold.Chemscore.DEInternal.Weighted>
0.9883

> <Gold.Chemscore.Rot.Weighted>
3.7212

> <Gold.Chemscore.Internal.Correction.Weighted>
   9.000000E+99

> <Gold.Protein.RotatedTorsions>
[ 6907 6896 6895 6894 ] final   37.62 input  -60.11 | X-H torsion
[ 7974 7965 7964 7962 ] final  -73.38 input  175.53 | X-H torsion
[ 8008 7997 7996 7995 ] final   11.16 input   59.86 | X-H torsion
[ 10167 10162 10161 10158 ] final  169.43 input  -65.29 | X-H torsion
[ 10718 10713 10712 10709 ] final -102.62 input   66.30 | X-H torsion
[ 10763 10752 10751 10750 ] final -146.37 input  -60.55 | X-H torsion
[ 11005 11000 10999 10996 ] final  -15.81 input  -57.11 | X-H torsion

> <Gold.Protein.ActiveResidues>
 VAL166  LYS551  ARG553  GLY616  TRP617  ASP618  TYR619  PRO620  LYS621  CYS622 
 ASP623  PHE694  ASN695  SER759  ASP760  ASP761  ALA762  ILE779  LEU786  VAL792 
 PHE793  MET794  SER795  GLU796  ALA797  LYS798  CYS799  TRP800  GLU811  SER814 

> <Gold.Protein.RotatedAtoms>
  152.1456  134.9029  160.0550 H   0  0  0  0  0  0  0  0  0  0  0  0  # atno 6907 bound_to 6896
  152.0080  133.3845  159.4216 H   0  0  0  0  0  0  0  0  0  0  0  0  # atno 6908 bound_to 6896
  150.6870  134.3683  159.5025 H   0  0  0  0  0  0  0  0  0  0  0  0  # atno 6909 bound_to 6896
  145.6529  140.9277  143.0975 H   0  0  0  0  0  0  0  0  0  0  0  0  # atno 7974 bound_to 7965
  154.8031  140.2855  155.5907 H   0  0  0  0  0  0  0  0  0  0  0  0  # atno 8008 bound_to 7997
  156.2979  140.2582  156.2833 H   0  0  0  0  0  0  0  0  0  0  0  0  # atno 8009 bound_to 7997
  154.9535  140.0379  157.2145 H   0  0  0  0  0  0  0  0  0  0  0  0  # atno 8010 bound_to 7997
  139.4992  144.3707  151.9728 H   0  0  0  0  0  0  0  0  0  0  0  0  # atno 10167 bound_to 10162
  156.0235  130.5428  150.7134 H   0  0  0  0  0  0  0  0  0  0  0  0  # atno 10718 bound_to 10713
  154.8339  135.3388  154.6651 H   0  0  0  0  0  0  0  0  0  0  0  0  # atno 10763 bound_to 10752
  153.7267  135.6954  153.5004 H   0  0  0  0  0  0  0  0  0  0  0  0  # atno 10764 bound_to 10752
  153.2342  135.4406  155.0580 H   0  0  0  0  0  0  0  0  0  0  0  0  # atno 10765 bound_to 10752
  140.8004  133.8218  155.9464 H   0  0  0  0  0  0  0  0  0  0  0  0  # atno 11005 bound_to 11000
  144.7116  139.8349  143.7412 LP  0  0  0  0  0  0  0  0  0  0  0  0  # atno 17320 bound_to 7965
  146.1189  139.4204  143.0241 LP  0  0  0  0  0  0  0  0  0  0  0  0  # atno 17321 bound_to 7965
  140.3143  144.3502  150.6026 LP  0  0  0  0  0  0  0  0  0  0  0  0  # atno 17342 bound_to 10162
  140.5774  143.2175  151.7491 LP  0  0  0  0  0  0  0  0  0  0  0  0  # atno 17343 bound_to 10162
  157.4767  131.0898  151.0582 LP  0  0  0  0  0  0  0  0  0  0  0  0  # atno 17370 bound_to 10713
  157.1027  130.5988  149.5464 LP  0  0  0  0  0  0  0  0  0  0  0  0  # atno 17371 bound_to 10713
  140.9300  134.2033  157.4870 LP  0  0  0  0  0  0  0  0  0  0  0  0  # atno 17394 bound_to 11000
  139.8722  134.9829  156.5175 LP  0  0  0  0  0  0  0  0  0  0  0  0  # atno 17395 bound_to 11000

$$$$
