AV-unprocessed.smi:2079|AV-procd|sdf|8482|dock6
  -GOLD-   2272011183D 1   1.00000     0.00000
 Structure written by MMmdl.
 41 42  0  0  0  0  0  0  0  0  3 V2000
  145.5870  134.4484  162.0527 C   0  0  0  0  0  0  0  0  0  0  0  0
  146.6460  135.2079  161.3290 C   0  0  0  0  0  0  0  0  0  0  0  0
  147.7434  134.8172  160.6154 C   0  0  0  0  0  0  0  0  0  0  0  0
  148.3189  136.0502  160.2033 C   0  0  0  0  0  0  0  0  0  0  0  0
  149.4235  136.1921  159.4544 N   0  5  0  0  0  0  0  0  0  0  0  0
  149.8332  137.4231  159.0717 C   0  0  0  0  0  0  0  0  0  0  0  0
  149.1573  138.4545  159.0707 O   0  0  0  0  0  0  0  0  0  0  0  0
  151.1087  137.4627  158.6648 N   0  0  0  0  0  0  0  0  0  0  0  0
  151.8013  138.6547  158.1956 C   0  0  0  0  0  0  0  0  0  0  0  0
  151.6613  139.7920  159.2230 C   0  0  0  0  0  0  0  0  0  0  0  0
  152.0464  141.1257  158.6766 N   0  3  1  0  0  0  0  0  0  0  0  0
  151.0488  141.6175  157.6815 C   0  0  0  0  0  0  0  0  0  0  0  0
  151.4924  142.9263  157.0136 C   0  0  0  0  0  0  0  0  0  0  0  0
  151.7412  144.0065  158.0651 C   0  0  0  0  0  0  0  0  0  0  0  0
  152.7672  143.4952  159.0785 C   0  0  0  0  0  0  0  0  0  0  0  0
  152.3324  142.1606  159.7260 C   0  0  2  0  0  0  0  0  0  0  0  0
  153.4219  141.7306  160.7312 C   0  0  0  0  0  0  0  0  0  0  0  0
  147.6234  137.0964  160.6168 N   0  0  0  0  0  0  0  0  0  0  0  0
  146.5525  136.5649  161.3454 O   0  0  0  0  0  0  0  0  0  0  0  0
  145.1381  133.6977  161.4021 H   0  0  0  0  0  0  0  0  0  0  0  0
  144.7942  135.1116  162.3997 H   0  0  0  0  0  0  0  0  0  0  0  0
  146.0050  133.9385  162.9205 H   0  0  0  0  0  0  0  0  0  0  0  0
  148.0826  133.8109  160.4206 H   0  0  0  0  0  0  0  0  0  0  0  0
  151.6293  136.5979  158.6803 H   0  0  0  0  0  0  0  0  0  0  0  0
  152.8546  138.4184  158.0365 H   0  0  0  0  0  0  0  0  0  0  0  0
  151.3787  138.9306  157.2301 H   0  0  0  0  0  0  0  0  0  0  0  0
  150.6433  139.8355  159.6133 H   0  0  0  0  0  0  0  0  0  0  0  0
  152.2973  139.5179  160.0608 H   0  0  0  0  0  0  0  0  0  0  0  0
  150.8900  140.8837  156.8940 H   0  0  0  0  0  0  0  0  0  0  0  0
  150.0858  141.7601  158.1745 H   0  0  0  0  0  0  0  0  0  0  0  0
  152.3996  142.7565  156.4322 H   0  0  0  0  0  0  0  0  0  0  0  0
  150.7304  143.2621  156.3094 H   0  0  0  0  0  0  0  0  0  0  0  0
  152.0994  144.9211  157.5915 H   0  0  0  0  0  0  0  0  0  0  0  0
  150.8086  144.2580  158.5719 H   0  0  0  0  0  0  0  0  0  0  0  0
  153.7313  143.3676  158.5833 H   0  0  0  0  0  0  0  0  0  0  0  0
  152.9170  144.2541  159.8474 H   0  0  0  0  0  0  0  0  0  0  0  0
  151.4099  142.3368  160.2821 H   0  0  0  0  0  0  0  0  0  0  0  0
  153.7221  142.5691  161.3603 H   0  0  0  0  0  0  0  0  0  0  0  0
  154.3154  141.3690  160.2213 H   0  0  0  0  0  0  0  0  0  0  0  0
  153.0787  140.9560  161.4156 H   0  0  0  0  0  0  0  0  0  0  0  0
  152.9133  140.9863  158.1774 H   0  0  0  0  0  0  0  0  0  0  0  0
  1  2  1  0  0  0  0
  1 20  1  0  0  0  0
  1 21  1  0  0  0  0
  1 22  1  0  0  0  0
  2 19  1  0  0  0  0
  2  3  2  0  0  0  0
  3  4  1  0  0  0  0
  3 23  1  0  0  0  0
  4  5  1  0  0  0  0
  4 18  2  0  0  0  0
  5  6  1  0  0  0  0
  6  7  2  0  0  0  0
  6  8  1  0  0  0  0
  8  9  1  0  0  0  0
  8 24  1  0  0  0  0
  9 10  1  0  0  0  0
  9 25  1  0  0  0  0
  9 26  1  0  0  0  0
 10 11  1  0  0  0  0
 10 27  1  0  0  0  0
 10 28  1  0  0  0  0
 11 16  1  0  0  0  0
 11 12  1  0  0  0  0
 11 41  1  0  0  0  0
 12 13  1  0  0  0  0
 12 29  1  0  0  0  0
 12 30  1  0  0  0  0
 13 14  1  0  0  0  0
 13 31  1  0  0  0  0
 13 32  1  0  0  0  0
 14 15  1  0  0  0  0
 14 33  1  0  0  0  0
 14 34  1  0  0  0  0
 15 16  1  0  0  0  0
 15 35  1  0  0  0  0
 15 36  1  0  0  0  0
 16 17  1  0  0  0  0
 16 37  1  0  0  0  0
 17 38  1  0  0  0  0
 17 39  1  0  0  0  0
 17 40  1  0  0  0  0
 18 19  1  0  0  0  0
M  CHG  1   5  -1
M  CHG  1  11   1
M  END
> <s_m_source_file>
AV-unprocessed.smi

> <i_m_source_file_index>
2079

> <i_lp_mmshare_version>
43012

> <i_f3d_flags>
0

> <s_epik_input>
W0NIM11jMVtjSF1jKG5vMSlbTkhdQyg9TylbTkhdW0NIMl1bQ0gyXU4yW0NIMl1bQ0gyXVtDSDJdW0NIMl1bQ0BIXTJbQ0gzXQ==

> <s_epik_cmdline>
J2VwaWtfcHl0aG9uJywgJy1waCcsICc3LjAnLCAnLXRuJywgJzgnLCAnLW1hJywgJzIwMCcsICctbWV0YWxfYmluZGluZycsICctaW1hZScsICc8aW5maWxlLm1hZT4nLCAnLW9tYWUnLCAnPG91dGZpbGUubWFlPic=

> <r_epik_Ionization_Penalty>
6.22371

> <r_epik_Ionization_Penalty_Charging>
6.22362

> <r_epik_Ionization_Penalty_Neutral>
9.40454e-05

> <r_epik_State_Penalty>
6.22363

> <r_epik_Charging_Adjusted_Penalty>
12.4472

> <i_epik_Tot_Q>
0

> <i_epik_Tot_abs_Q>
2

> <r_epik_Metal_State_Penalty>
2.16675

> <b_epik_Metal_Only>
1

> <s_lp_Force_Field>
OPLS_2005

> <r_lp_Energy>
8.88901

> <b_lp_Chiralities_Consistent>
1

> <s_lp_Variant>
AV-unprocessed.smi:2079-8

> <Gold.Version>
5.8.1

> <Gold.Id.Protein>
6NUR|6NUR_protein|mol2

> <Gold.PLP.Fitness>
47.7381

> <Gold.PLP.PLP>
-36.9408

> <Gold.PLP.part.hbond>
-5.0000

> <Gold.PLP.part.metal>
0.0000

> <Gold.PLP.part.buried>
-3.4058

> <Gold.PLP.part.nonpolar>
-30.0559

> <Gold.PLP.part.repulsive>
0.2170

> <Gold.PLP.ligand.clash>
0.0000

> <Gold.PLP.ligand.torsion>
0.2498

> <Gold.PLP.Chemscore.Hbond>
3.7488

> <Gold.PLP.Chemscore.CHOScore>
0.0000

> <Gold.PLP.Chemscore.Metal>
0.0000

> <Gold.Chemscore.Hbonds>
donor molecule, donor type, donor heavy atom, donor atom, acceptor molecule, acceptor atom, score
      P1  H  6896  6907       L1     5  2.00
      P1  H  6931  6943       L1    18  0.41
      P1  H  6934  6947       L1    18  0.83

> <Gold.PLP.Chemscore.Internal.Correction>
0.0505

> <Gold.Rescore>
     Score         DG    S(hbond)    S(metal)    S(lipo)     H(rot)  DE(clash)    DE(int)     intcor
     15.25     -18.59       1.91        0.00      91.27       1.54       0.12       3.22       ----

> <Gold.Chemscore.Fitness>
15.2509

> <Gold.Chemscore.DG>
-18.5930

> <Gold.Chemscore.ZeroCoef>
-5.4800

> <Gold.Chemscore.Hbond>
1.9099

> <Gold.Chemscore.Metal>
0.0000

> <Gold.Chemscore.Lipo>
91.2696

> <Gold.Chemscore.Internal_Hbond>
0.0000

> <Gold.Chemscore.DEClash>
0.1214

> <Gold.Chemscore.DEInternal>
3.2207

> <Gold.Chemscore.Rot>
1.5409

> <Gold.Chemscore.Internal.Correction>
   9.000000E+99

> <Gold.Chemscore.Hbonds>
donor molecule, donor type, donor heavy atom, donor atom, acceptor molecule, acceptor atom, score
      P1  H  6896  6907       L1     5  0.85
      P1  H  6931  6943       L1    18  0.17
      P1  H  6934  6947       L1    18  0.13

> <Gold.Chemscore.Hbond.Weighted>
-6.3791

> <Gold.Chemscore.Metal.Weighted>
-0.0000

> <Gold.Chemscore.Lipo.Weighted>
-10.6785

> <Gold.Chemscore.Internal_Hbond.Weighted>
0.0000

> <Gold.Chemscore.DEClash.Weighted>
0.1214

> <Gold.Chemscore.DEInternal.Weighted>
3.2207

> <Gold.Chemscore.Rot.Weighted>
3.9446

> <Gold.Chemscore.Internal.Correction.Weighted>
   9.000000E+99

> <Gold.Protein.RotatedTorsions>
[ 6907 6896 6895 6894 ] final  -46.52 input  -60.11 | X-H torsion
[ 7974 7965 7964 7962 ] final   89.99 input  175.53 | X-H torsion
[ 8008 7997 7996 7995 ] final   -3.13 input   59.86 | X-H torsion
[ 10167 10162 10161 10158 ] final  168.13 input  -65.29 | X-H torsion
[ 10718 10713 10712 10709 ] final  -79.80 input   66.30 | X-H torsion
[ 10763 10752 10751 10750 ] final   29.02 input  -60.55 | X-H torsion
[ 11005 11000 10999 10996 ] final  -32.77 input  -57.11 | X-H torsion

> <Gold.Protein.ActiveResidues>
 VAL166  LYS551  ARG553  GLY616  TRP617  ASP618  TYR619  PRO620  LYS621  CYS622 
 ASP623  PHE694  ASN695  SER759  ASP760  ASP761  ALA762  ILE779  LEU786  VAL792 
 PHE793  MET794  SER795  GLU796  ALA797  LYS798  CYS799  TRP800  GLU811  SER814 

> <Gold.Protein.RotatedAtoms>
  150.9104  134.8521  159.7421 H   0  0  0  0  0  0  0  0  0  0  0  0  # atno 6907 bound_to 6896
  152.4941  134.4368  159.9540 H   0  0  0  0  0  0  0  0  0  0  0  0  # atno 6908 bound_to 6896
  151.4411  133.3604  159.2817 H   0  0  0  0  0  0  0  0  0  0  0  0  # atno 6909 bound_to 6896
  145.5250  139.2281  143.2651 H   0  0  0  0  0  0  0  0  0  0  0  0  # atno 7974 bound_to 7965
  154.6282  140.2517  155.7466 H   0  0  0  0  0  0  0  0  0  0  0  0  # atno 8008 bound_to 7997
  156.2465  140.2912  156.0541 H   0  0  0  0  0  0  0  0  0  0  0  0  # atno 8009 bound_to 7997
  155.1788  140.0388  157.2868 H   0  0  0  0  0  0  0  0  0  0  0  0  # atno 8010 bound_to 7997
  139.4961  144.3848  151.9582 H   0  0  0  0  0  0  0  0  0  0  0  0  # atno 10167 bound_to 10162
  156.0084  130.4556  150.3703 H   0  0  0  0  0  0  0  0  0  0  0  0  # atno 10718 bound_to 10713
  153.0455  135.6499  154.0827 H   0  0  0  0  0  0  0  0  0  0  0  0  # atno 10763 bound_to 10752
  154.0526  135.2894  155.3339 H   0  0  0  0  0  0  0  0  0  0  0  0  # atno 10764 bound_to 10752
  154.6710  135.5356  153.8204 H   0  0  0  0  0  0  0  0  0  0  0  0  # atno 10765 bound_to 10752
  140.9580  133.7181  156.1324 H   0  0  0  0  0  0  0  0  0  0  0  0  # atno 11005 bound_to 11000
  146.2082  140.6063  142.9072 LP  0  0  0  0  0  0  0  0  0  0  0  0  # atno 17320 bound_to 7965
  144.7656  140.5522  143.6705 LP  0  0  0  0  0  0  0  0  0  0  0  0  # atno 17321 bound_to 7965
  140.3285  144.3345  150.5993 LP  0  0  0  0  0  0  0  0  0  0  0  0  # atno 17342 bound_to 10162
  140.5665  143.2185  151.7675 LP  0  0  0  0  0  0  0  0  0  0  0  0  # atno 17343 bound_to 10162
  157.1788  131.0387  151.2759 LP  0  0  0  0  0  0  0  0  0  0  0  0  # atno 17370 bound_to 10713
  157.4164  130.7413  149.6879 LP  0  0  0  0  0  0  0  0  0  0  0  0  # atno 17371 bound_to 10713
  140.7508  134.4046  157.5541 LP  0  0  0  0  0  0  0  0  0  0  0  0  # atno 17394 bound_to 11000
  139.8868  134.8898  156.2562 LP  0  0  0  0  0  0  0  0  0  0  0  0  # atno 17395 bound_to 11000

$$$$
