AV-unprocessed.smi:1406|AV-procd|sdf|5722|dock3
  -GOLD-   22720 5353D 1   1.00000     0.00000
 Structure written by MMmdl.
 41 43  0  0  0  0  0  0  0  0  2 V2000
  148.1206  141.9039  154.1625 C   0  0  0  0  0  0  0  0  0  0  0  0
  148.9102  140.7605  153.4936 C   0  0  1  0  0  0  0  0  0  0  0  0
  150.0400  140.2113  154.3793 C   0  0  0  0  0  0  0  0  0  0  0  0
  150.8810  139.4344  153.9256 O   0  0  0  0  0  0  0  0  0  0  0  0
  150.0649  140.6524  155.6471 N   0  0  0  0  0  0  0  0  0  0  0  0
  151.1217  140.3570  156.6091 C   0  0  2  0  0  0  0  0  0  0  0  0
  150.6108  139.7099  157.8899 C   0  0  0  0  0  0  0  0  0  0  0  0
  151.7574  139.9504  158.8775 C   0  0  0  0  0  0  0  0  0  0  0  0
  152.4639  141.1745  158.4261 N   0  3  2  0  0  0  0  0  0  0  0  0
  152.5539  142.2376  159.4628 C   0  0  0  0  0  0  0  0  0  0  0  0
  152.9291  143.5881  158.8349 C   0  0  0  0  0  0  0  0  0  0  0  0
  151.8618  144.0590  157.8289 C   0  0  0  0  0  0  0  0  0  0  0  0
  151.0337  142.8921  157.2587 C   0  0  0  0  0  0  0  0  0  0  0  0
  151.8766  141.5988  157.1233 C   0  0  2  0  0  0  0  0  0  0  0  0
  148.0389  139.6711  153.0683 N   0  0  0  0  0  0  0  0  0  0  0  0
  147.8957  139.1054  151.8680 C   0  0  0  0  0  0  0  0  0  0  0  0
  147.0499  138.0850  151.8505 N   0  0  0  0  0  0  0  0  0  0  0  0
  146.6818  138.0709  153.1658 C   0  0  0  0  0  0  0  0  0  0  0  0
  147.2537  138.9916  153.9414 N   0  0  0  0  0  0  0  0  0  0  0  0
  148.7765  142.7357  154.4221 H   0  0  0  0  0  0  0  0  0  0  0  0
  147.6220  141.5780  155.0765 H   0  0  0  0  0  0  0  0  0  0  0  0
  147.3546  142.2913  153.4902 H   0  0  0  0  0  0  0  0  0  0  0  0
  149.3761  141.1698  152.5957 H   0  0  0  0  0  0  0  0  0  0  0  0
  149.3340  141.2816  155.9461 H   0  0  0  0  0  0  0  0  0  0  0  0
  151.8384  139.6707  156.1529 H   0  0  0  0  0  0  0  0  0  0  0  0
  149.7104  140.2182  158.2386 H   0  0  0  0  0  0  0  0  0  0  0  0
  150.3747  138.6523  157.7678 H   0  0  0  0  0  0  0  0  0  0  0  0
  151.3956  140.0155  159.9046 H   0  0  0  0  0  0  0  0  0  0  0  0
  152.4653  139.1219  158.8359 H   0  0  0  0  0  0  0  0  0  0  0  0
  151.5997  142.3381  159.9834 H   0  0  0  0  0  0  0  0  0  0  0  0
  153.2915  141.9429  160.2100 H   0  0  0  0  0  0  0  0  0  0  0  0
  153.0710  144.3441  159.6078 H   0  0  0  0  0  0  0  0  0  0  0  0
  153.8897  143.4882  158.3275 H   0  0  0  0  0  0  0  0  0  0  0  0
  151.1868  144.7722  158.3034 H   0  0  0  0  0  0  0  0  0  0  0  0
  152.3521  144.5997  157.0185 H   0  0  0  0  0  0  0  0  0  0  0  0
  150.1812  142.7008  157.9118 H   0  0  0  0  0  0  0  0  0  0  0  0
  150.6161  143.1959  156.2989 H   0  0  0  0  0  0  0  0  0  0  0  0
  152.6990  141.8158  156.4399 H   0  0  0  0  0  0  0  0  0  0  0  0
  148.4291  139.4405  150.9906 H   0  0  0  0  0  0  0  0  0  0  0  0
  145.9788  137.3551  153.5657 H   0  0  0  0  0  0  0  0  0  0  0  0
  153.4120  140.8933  158.2194 H   0  0  0  0  0  0  0  0  0  0  0  0
  1  2  1  0  0  0  0
  1 20  1  0  0  0  0
  1 21  1  0  0  0  0
  1 22  1  0  0  0  0
  2  3  1  0  0  0  0
  2 15  1  0  0  0  0
  2 23  1  0  0  0  0
  3  4  2  0  0  0  0
  3  5  1  0  0  0  0
  5  6  1  0  0  0  0
  5 24  1  0  0  0  0
  6 14  1  0  0  0  0
  6  7  1  0  0  0  0
  6 25  1  0  0  0  0
  7  8  1  0  0  0  0
  7 26  1  0  0  0  0
  7 27  1  0  0  0  0
  8  9  1  0  0  0  0
  8 28  1  0  0  0  0
  8 29  1  0  0  0  0
  9 14  1  0  0  0  0
  9 10  1  0  0  0  0
  9 41  1  0  0  0  0
 10 11  1  0  0  0  0
 10 30  1  0  0  0  0
 10 31  1  0  0  0  0
 11 12  1  0  0  0  0
 11 32  1  0  0  0  0
 11 33  1  0  0  0  0
 12 13  1  0  0  0  0
 12 34  1  0  0  0  0
 12 35  1  0  0  0  0
 13 14  1  0  0  0  0
 13 36  1  0  0  0  0
 13 37  1  0  0  0  0
 14 38  1  0  0  0  0
 15 19  1  0  0  0  0
 15 16  1  0  0  0  0
 16 17  2  0  0  0  0
 16 39  1  0  0  0  0
 17 18  1  0  0  0  0
 18 19  2  0  0  0  0
 18 40  1  0  0  0  0
M  CHG  1   9   1
M  END
> <s_m_source_file>
AV-unprocessed.smi

> <i_m_source_file_index>
1406

> <i_lp_mmshare_version>
43012

> <i_f3d_flags>
0

> <s_epik_input>
bjFbY0hdbltjSF1uMVtDQEhdKFtDSDNdKUMoPU8pW05IXVtDQEhdKFtDSDJdW0NIMl0yKVtDQEBIXShOMjMpW0NIMl1bQ0gyXVtDSDJdW0NIMl0z

> <s_epik_cmdline>
J2VwaWtfcHl0aG9uJywgJy1waCcsICc3LjAnLCAnLXRuJywgJzgnLCAnLW1hJywgJzIwMCcsICctbWV0YWxfYmluZGluZycsICctaW1hZScsICc8aW5maWxlLm1hZT4nLCAnLW9tYWUnLCAnPG91dGZpbGUubWFlPic=

> <r_lp_tautomer_probability>
1

> <r_epik_Ionization_Penalty>
0.00197066

> <r_epik_Ionization_Penalty_Charging>
0.00196223

> <r_epik_Ionization_Penalty_Neutral>
8.43107e-06

> <r_epik_State_Penalty>
0.00133866

> <r_epik_Charging_Adjusted_Penalty>
0.00330089

> <i_epik_Tot_Q>
1

> <i_epik_Tot_abs_Q>
1

> <r_epik_Metal_State_Penalty>
-0

> <b_epik_Metal_Only>
0

> <s_lp_Force_Field>
OPLS_2005

> <r_lp_Energy>
45.0436

> <b_lp_Chiralities_Consistent>
1

> <s_lp_Variant>
AV-unprocessed.smi:1406-14

> <Gold.Version>
5.8.1

> <Gold.Id.Protein>
6NUR|6NUR_protein|mol2

> <Gold.PLP.Fitness>
38.6574

> <Gold.PLP.PLP>
-33.3201

> <Gold.PLP.part.hbond>
-1.0000

> <Gold.PLP.part.metal>
0.0000

> <Gold.PLP.part.buried>
-1.8018

> <Gold.PLP.part.nonpolar>
-31.5261

> <Gold.PLP.part.repulsive>
1.2534

> <Gold.PLP.ligand.clash>
0.0782

> <Gold.PLP.ligand.torsion>
0.2159

> <Gold.PLP.Chemscore.Hbond>
1.0000

> <Gold.PLP.Chemscore.CHOScore>
0.9150

> <Gold.PLP.Chemscore.Metal>
0.0000

> <Gold.Chemscore.Hbonds>
donor molecule, donor type, donor heavy atom, donor atom, acceptor molecule, acceptor atom, score
      P1  H  7989  7998       L1     4  0.15

> <Gold.PLP.Chemscore.Internal.Correction>
0.1025

> <Gold.Rescore>
     Score         DG    S(hbond)    S(metal)    S(lipo)     H(rot)  DE(clash)    DE(int)     intcor
     12.66     -13.03       0.95        0.00      78.66       1.89       0.19       0.19       ----

> <Gold.Chemscore.Fitness>
12.6557

> <Gold.Chemscore.DG>
-13.0327

> <Gold.Chemscore.ZeroCoef>
-5.4800

> <Gold.Chemscore.Hbond>
0.9518

> <Gold.Chemscore.Metal>
0.0000

> <Gold.Chemscore.Lipo>
78.6607

> <Gold.Chemscore.Internal_Hbond>
0.0000

> <Gold.Chemscore.DEClash>
0.1893

> <Gold.Chemscore.DEInternal>
0.1877

> <Gold.Chemscore.Rot>
1.8865

> <Gold.Chemscore.Internal.Correction>
   9.000000E+99

> <Gold.Chemscore.Hbond.Weighted>
-3.1790

> <Gold.Chemscore.Metal.Weighted>
-0.0000

> <Gold.Chemscore.Lipo.Weighted>
-9.2033

> <Gold.Chemscore.Internal_Hbond.Weighted>
0.0000

> <Gold.Chemscore.DEClash.Weighted>
0.1893

> <Gold.Chemscore.DEInternal.Weighted>
0.1877

> <Gold.Chemscore.Rot.Weighted>
4.8295

> <Gold.Chemscore.Internal.Correction.Weighted>
   9.000000E+99

> <Gold.Protein.RotatedTorsions>
[ 6907 6896 6895 6894 ] final -170.63 input  -60.11 | X-H torsion
[ 7974 7965 7964 7962 ] final  161.29 input  175.53 | X-H torsion
[ 8008 7997 7996 7995 ] final  -32.73 input   59.86 | X-H torsion
[ 10167 10162 10161 10158 ] final  -46.25 input  -65.29 | X-H torsion
[ 10718 10713 10712 10709 ] final  -48.92 input   66.30 | X-H torsion
[ 10763 10752 10751 10750 ] final  -94.62 input  -60.55 | X-H torsion
[ 11005 11000 10999 10996 ] final  132.54 input  -57.11 | X-H torsion

> <Gold.Protein.ActiveResidues>
 VAL166  LYS551  ARG553  GLY616  TRP617  ASP618  TYR619  PRO620  LYS621  CYS622 
 ASP623  PHE694  ASN695  SER759  ASP760  ASP761  ALA762  ILE779  LEU786  VAL792 
 PHE793  MET794  SER795  GLU796  ALA797  LYS798  CYS799  TRP800  GLU811  SER814 

> <Gold.Protein.RotatedAtoms>
  151.5109  133.3485  159.2884 H   0  0  0  0  0  0  0  0  0  0  0  0  # atno 6907 bound_to 6896
  150.8713  134.8089  159.7168 H   0  0  0  0  0  0  0  0  0  0  0  0  # atno 6908 bound_to 6896
  152.4700  134.4993  159.9771 H   0  0  0  0  0  0  0  0  0  0  0  0  # atno 6909 bound_to 6896
  144.7693  139.7877  143.6303 H   0  0  0  0  0  0  0  0  0  0  0  0  # atno 7974 bound_to 7965
  154.4171  140.1730  156.1774 H   0  0  0  0  0  0  0  0  0  0  0  0  # atno 8008 bound_to 7997
  155.9711  140.3385  155.6552 H   0  0  0  0  0  0  0  0  0  0  0  0  # atno 8009 bound_to 7997
  155.6624  140.0702  157.2540 H   0  0  0  0  0  0  0  0  0  0  0  0  # atno 8010 bound_to 7997
  140.6825  143.2840  151.3755 H   0  0  0  0  0  0  0  0  0  0  0  0  # atno 10167 bound_to 10162
  156.1942  130.4154  149.9329 H   0  0  0  0  0  0  0  0  0  0  0  0  # atno 10718 bound_to 10713
  154.7072  135.5151  153.8613 H   0  0  0  0  0  0  0  0  0  0  0  0  # atno 10763 bound_to 10752
  153.0751  135.6614  154.0172 H   0  0  0  0  0  0  0  0  0  0  0  0  # atno 10764 bound_to 10752
  154.0021  135.3010  155.3381 H   0  0  0  0  0  0  0  0  0  0  0  0  # atno 10765 bound_to 10752
  139.9796  134.9552  156.9596 H   0  0  0  0  0  0  0  0  0  0  0  0  # atno 11005 bound_to 11000
  146.1827  139.5027  142.9856 LP  0  0  0  0  0  0  0  0  0  0  0  0  # atno 17320 bound_to 7965
  145.6372  141.0292  143.1831 LP  0  0  0  0  0  0  0  0  0  0  0  0  # atno 17321 bound_to 7965
  139.6158  144.1006  152.2344 LP  0  0  0  0  0  0  0  0  0  0  0  0  # atno 17342 bound_to 10162
  140.0434  144.5989  150.7393 LP  0  0  0  0  0  0  0  0  0  0  0  0  # atno 17343 bound_to 10162
  156.7059  130.8951  151.3604 LP  0  0  0  0  0  0  0  0  0  0  0  0  # atno 17370 bound_to 10713
  157.6948  130.9270  150.0613 LP  0  0  0  0  0  0  0  0  0  0  0  0  # atno 17371 bound_to 10713
  140.5123  134.0989  155.7273 LP  0  0  0  0  0  0  0  0  0  0  0  0  # atno 17394 bound_to 11000
  141.1470  133.9038  157.2192 LP  0  0  0  0  0  0  0  0  0  0  0  0  # atno 17395 bound_to 11000

$$$$
