AV-unprocessed.smi:290|AV-procd|sdf|2226|dock8
  -GOLD-   2262022 83D 1   1.00000     0.00000
 Structure written by MMmdl.
 59 62  0  0  0  0  0  0  0  0  2 V2000
  153.4855  142.4305  160.5811 C   0  0  0  0  0  0  0  0  0  0  0  0
  152.1611  142.9875  160.0356 C   0  0  1  0  0  0  0  0  0  0  0  0
  152.3522  144.3692  159.7454 O   0  0  0  0  0  0  0  0  0  0  0  0
  151.4641  144.7389  158.7061 C   0  0  0  0  0  0  0  0  0  0  0  0
  151.5526  143.5459  157.7673 C   0  0  0  0  0  0  0  0  0  0  0  0
  151.6167  142.3556  158.7225 C   0  0  2  0  0  0  0  0  0  0  0  0
  150.2878  141.9284  158.9707 O   0  0  0  0  0  0  0  0  0  0  0  0
  152.4112  141.1497  158.1556 C   0  0  0  0  0  0  0  0  0  0  0  0
  151.5659  140.0260  157.7812 N   0  0  0  0  0  0  0  0  0  0  0  0
  151.1780  138.9813  158.5912 C   0  0  0  0  0  0  0  0  0  0  0  0
  150.4156  138.0871  158.0230 N   0  0  0  0  0  0  0  0  0  0  0  0
  150.2593  138.5581  156.7264 C   0  0  0  0  0  0  0  0  0  0  0  0
  149.5572  138.0884  155.5874 C   0  0  0  0  0  0  0  0  0  0  0  0
  148.8389  136.9445  155.6241 N   0  0  0  0  0  0  0  0  0  0  0  0
  147.7984  136.9168  156.6399 C   0  0  0  0  0  0  0  0  0  0  0  0
  147.3670  135.4497  156.7575 C   0  0  0  0  0  0  0  0  0  0  0  0
  148.5214  134.6411  156.1257 C   0  0  1  0  0  0  0  0  0  0  0  0
  148.1273  133.7702  154.9739 N   0  3  2  0  0  0  0  0  0  0  0  0
  146.7436  133.2308  155.0198 C   0  0  0  0  0  0  0  0  0  0  0  0
  149.1253  132.7172  154.6547 C   0  0  0  0  0  0  0  0  0  0  0  0
  148.7439  131.9151  153.3986 C   0  0  0  0  0  0  0  0  0  0  0  0
  148.8277  132.7399  152.2558 O   0  0  0  0  0  0  0  0  0  0  0  0
  149.5844  135.7030  155.7793 C   0  0  1  0  0  0  0  0  0  0  0  0
  150.5376  135.3845  154.6095 C   0  0  0  0  0  0  0  0  0  0  0  0
  149.6197  138.8282  154.4488 N   0  0  0  0  0  0  0  0  0  0  0  0
  150.3283  139.9616  154.4296 C   0  0  0  0  0  0  0  0  0  0  0  0
  151.0329  140.5224  155.4155 N   0  0  0  0  0  0  0  0  0  0  0  0
  150.9702  139.7782  156.5569 C   0  0  0  0  0  0  0  0  0  0  0  0
  148.9611  134.0017  156.8908 H   0  0  0  0  0  0  0  0  0  0  0  0
  150.2066  135.8133  156.6694 H   0  0  0  0  0  0  0  0  0  0  0  0
  153.4011  141.3724  160.8289 H   0  0  0  0  0  0  0  0  0  0  0  0
  153.7752  142.9561  161.4912 H   0  0  0  0  0  0  0  0  0  0  0  0
  154.2982  142.5513  159.8645 H   0  0  0  0  0  0  0  0  0  0  0  0
  151.4110  142.9219  160.8264 H   0  0  0  0  0  0  0  0  0  0  0  0
  150.4545  144.8562  159.1026 H   0  0  0  0  0  0  0  0  0  0  0  0
  151.7635  145.6736  158.2319 H   0  0  0  0  0  0  0  0  0  0  0  0
  150.7286  143.4984  157.0539 H   0  0  0  0  0  0  0  0  0  0  0  0
  152.4797  143.6212  157.1979 H   0  0  0  0  0  0  0  0  0  0  0  0
  149.6974  142.4843  158.4853 H   0  0  0  0  0  0  0  0  0  0  0  0
  152.9697  141.4449  157.2670 H   0  0  0  0  0  0  0  0  0  0  0  0
  153.1469  140.8001  158.8812 H   0  0  0  0  0  0  0  0  0  0  0  0
  151.4844  138.9005  159.6241 H   0  0  0  0  0  0  0  0  0  0  0  0
  148.1854  137.2740  157.5956 H   0  0  0  0  0  0  0  0  0  0  0  0
  146.9618  137.5562  156.3562 H   0  0  0  0  0  0  0  0  0  0  0  0
  147.2216  135.1794  157.8038 H   0  0  0  0  0  0  0  0  0  0  0  0
  146.4106  135.2909  156.2635 H   0  0  0  0  0  0  0  0  0  0  0  0
  146.6568  132.3861  155.7028 H   0  0  0  0  0  0  0  0  0  0  0  0
  146.4542  132.8779  154.0296 H   0  0  0  0  0  0  0  0  0  0  0  0
  146.0164  133.9849  155.3174 H   0  0  0  0  0  0  0  0  0  0  0  0
  150.1096  133.1721  154.5337 H   0  0  0  0  0  0  0  0  0  0  0  0
  149.2159  132.0207  155.4903 H   0  0  0  0  0  0  0  0  0  0  0  0
  149.3736  131.0366  153.2620 H   0  0  0  0  0  0  0  0  0  0  0  0
  147.7177  131.5578  153.4867 H   0  0  0  0  0  0  0  0  0  0  0  0
  148.7058  132.2038  151.4863 H   0  0  0  0  0  0  0  0  0  0  0  0
  151.0214  134.4183  154.7545 H   0  0  0  0  0  0  0  0  0  0  0  0
  151.3267  136.1334  154.5344 H   0  0  0  0  0  0  0  0  0  0  0  0
  150.0229  135.3622  153.6496 H   0  0  0  0  0  0  0  0  0  0  0  0
  150.3310  140.4960  153.4910 H   0  0  0  0  0  0  0  0  0  0  0  0
  148.1377  134.3806  154.1688 H   0  0  0  0  0  0  0  0  0  0  0  0
  1  2  1  0  0  0  0
  1 31  1  0  0  0  0
  1 32  1  0  0  0  0
  1 33  1  0  0  0  0
  2  6  1  0  0  0  0
  2  3  1  0  0  0  0
  2 34  1  0  0  0  0
  3  4  1  0  0  0  0
  4  5  1  0  0  0  0
  4 35  1  0  0  0  0
  4 36  1  0  0  0  0
  5  6  1  0  0  0  0
  5 37  1  0  0  0  0
  5 38  1  0  0  0  0
  6  7  1  0  0  0  0
  6  8  1  0  0  0  0
  7 39  1  0  0  0  0
  8  9  1  0  0  0  0
  8 40  1  0  0  0  0
  8 41  1  0  0  0  0
  9 28  1  0  0  0  0
  9 10  1  0  0  0  0
 10 11  2  0  0  0  0
 10 42  1  0  0  0  0
 11 12  1  0  0  0  0
 12 28  2  0  0  0  0
 12 13  1  0  0  0  0
 13 14  1  0  0  0  0
 13 25  2  0  0  0  0
 14 23  1  0  0  0  0
 14 15  1  0  0  0  0
 15 16  1  0  0  0  0
 15 43  1  0  0  0  0
 15 44  1  0  0  0  0
 16 17  1  0  0  0  0
 16 45  1  0  0  0  0
 16 46  1  0  0  0  0
 17 29  1  0  0  0  0
 17 18  1  0  0  0  0
 17 23  1  0  0  0  0
 18 19  1  0  0  0  0
 18 20  1  0  0  0  0
 18 59  1  0  0  0  0
 19 47  1  0  0  0  0
 19 48  1  0  0  0  0
 19 49  1  0  0  0  0
 20 21  1  0  0  0  0
 20 50  1  0  0  0  0
 20 51  1  0  0  0  0
 21 22  1  0  0  0  0
 21 52  1  0  0  0  0
 21 53  1  0  0  0  0
 22 54  1  0  0  0  0
 23 30  1  0  0  0  0
 23 24  1  0  0  0  0
 24 55  1  0  0  0  0
 24 56  1  0  0  0  0
 24 57  1  0  0  0  0
 25 26  1  0  0  0  0
 26 27  2  0  0  0  0
 26 58  1  0  0  0  0
 27 28  1  0  0  0  0
M  CHG  1  18   1
M  END
> <s_m_source_file>
AV-unprocessed.smi

> <i_m_source_file_index>
290

> <i_lp_mmshare_version>
43012

> <i_f3d_flags>
0

> <s_epik_input>
W0NIMl0xW0NIMl1PW0NAQEhdKFtDSDNdKVtDQEBdMShbT0hdKVtDSDJdbihbY0hdbjIpYyhjMjMpbltjSF1uYzNONFtDSDJdW0NIMl1bQ0BIXShbQ0BIXTRbQ0gzXSlOKFtDSDNdKVtDSDJdW0NIMl1bT0hd

> <s_epik_cmdline>
J2VwaWtfcHl0aG9uJywgJy1waCcsICc3LjAnLCAnLXRuJywgJzgnLCAnLW1hJywgJzIwMCcsICctbWV0YWxfYmluZGluZycsICctaW1hZScsICc8aW5maWxlLm1hZT4nLCAnLW9tYWUnLCAnPG91dGZpbGUubWFlPic=

> <r_lp_tautomer_probability>
1

> <r_epik_Ionization_Penalty>
0.0036983

> <r_epik_Ionization_Penalty_Charging>
0.0032725

> <r_epik_Ionization_Penalty_Neutral>
0.000425798

> <r_epik_State_Penalty>
-0

> <r_epik_Charging_Adjusted_Penalty>
0.0032725

> <i_epik_Tot_Q>
1

> <i_epik_Tot_abs_Q>
1

> <r_epik_Metal_State_Penalty>
-0

> <b_epik_Metal_Only>
0

> <s_lp_Force_Field>
OPLS_2005

> <r_lp_Energy>
69.8612

> <b_lp_Chiralities_Consistent>
1

> <s_lp_Variant>
AV-unprocessed.smi:290-12

> <Gold.Version>
5.8.1

> <Gold.Id.Protein>
6NUR|6NUR_protein|mol2

> <Gold.PLP.Fitness>
39.6220

> <Gold.PLP.PLP>
-37.3595

> <Gold.PLP.part.hbond>
-2.8627

> <Gold.PLP.part.metal>
0.0000

> <Gold.PLP.part.buried>
-3.5141

> <Gold.PLP.part.nonpolar>
-30.7129

> <Gold.PLP.part.repulsive>
0.2973

> <Gold.PLP.ligand.clash>
0.0000

> <Gold.PLP.ligand.torsion>
1.9805

> <Gold.PLP.Chemscore.Hbond>
1.0000

> <Gold.PLP.Chemscore.CHOScore>
1.0000

> <Gold.PLP.Chemscore.Metal>
0.0000

> <Gold.Chemscore.Hbonds>
donor molecule, donor type, donor heavy atom, donor atom, acceptor molecule, acceptor atom, score
      L1  H    22    54       P1 10747  1.00
      L1  C    26    58       P1  7957  1.00

> <Gold.PLP.Chemscore.Internal.Correction>
0.2235

> <Gold.Rescore>
     Score         DG    S(hbond)    S(metal)    S(lipo)     H(rot)  DE(clash)    DE(int)     intcor
      7.29      -9.67       0.99        0.00      87.62       3.67       0.29       2.09       ----

> <Gold.Chemscore.Fitness>
7.2871

> <Gold.Chemscore.DG>
-9.6694

> <Gold.Chemscore.ZeroCoef>
-5.4800

> <Gold.Chemscore.Hbond>
0.9947

> <Gold.Chemscore.Metal>
0.0000

> <Gold.Chemscore.Lipo>
87.6191

> <Gold.Chemscore.Internal_Hbond>
0.0000

> <Gold.Chemscore.DEClash>
0.2879

> <Gold.Chemscore.DEInternal>
2.0944

> <Gold.Chemscore.Rot>
3.6658

> <Gold.Chemscore.Internal.Correction>
   9.000000E+99

> <Gold.Chemscore.Hbonds>
donor molecule, donor type, donor heavy atom, donor atom, acceptor molecule, acceptor atom, score
      L1  H    22    54       P1 10747  0.99

> <Gold.Chemscore.Hbond.Weighted>
-3.3223

> <Gold.Chemscore.Metal.Weighted>
-0.0000

> <Gold.Chemscore.Lipo.Weighted>
-10.2514

> <Gold.Chemscore.Internal_Hbond.Weighted>
0.0000

> <Gold.Chemscore.DEClash.Weighted>
0.2879

> <Gold.Chemscore.DEInternal.Weighted>
2.0944

> <Gold.Chemscore.Rot.Weighted>
9.3844

> <Gold.Chemscore.Internal.Correction.Weighted>
   9.000000E+99

> <Gold.Protein.RotatedTorsions>
[ 6907 6896 6895 6894 ] final   59.92 input  -60.11 | X-H torsion
[ 7974 7965 7964 7962 ] final   13.53 input  175.53 | X-H torsion
[ 8008 7997 7996 7995 ] final   75.63 input   59.86 | X-H torsion
[ 10167 10162 10161 10158 ] final   48.68 input  -65.29 | X-H torsion
[ 10718 10713 10712 10709 ] final -134.07 input   66.30 | X-H torsion
[ 10763 10752 10751 10750 ] final   64.07 input  -60.55 | X-H torsion
[ 11005 11000 10999 10996 ] final  -68.94 input  -57.11 | X-H torsion

> <Gold.Protein.ActiveResidues>
 VAL166  LYS551  ARG553  GLY616  TRP617  ASP618  TYR619  PRO620  LYS621  CYS622 
 ASP623  PHE694  ASN695  SER759  ASP760  ASP761  ALA762  ILE779  LEU786  VAL792 
 PHE793  MET794  SER795  GLU796  ALA797  LYS798  CYS799  TRP800  GLU811  SER814 

> <Gold.Protein.RotatedAtoms>
  152.3957  134.6369  160.0089 H   0  0  0  0  0  0  0  0  0  0  0  0  # atno 6907 bound_to 6896
  151.6589  133.3312  159.3177 H   0  0  0  0  0  0  0  0  0  0  0  0  # atno 6908 bound_to 6896
  150.7865  134.6898  159.6535 H   0  0  0  0  0  0  0  0  0  0  0  0  # atno 6909 bound_to 6896
  146.2327  139.9176  142.8515 H   0  0  0  0  0  0  0  0  0  0  0  0  # atno 7974 bound_to 7965
  155.8157  140.3471  155.5484 H   0  0  0  0  0  0  0  0  0  0  0  0  # atno 8008 bound_to 7997
  155.8394  140.0939  157.1764 H   0  0  0  0  0  0  0  0  0  0  0  0  # atno 8009 bound_to 7997
  154.4005  140.1397  156.3698 H   0  0  0  0  0  0  0  0  0  0  0  0  # atno 8010 bound_to 7997
  140.2908  144.3048  150.6241 H   0  0  0  0  0  0  0  0  0  0  0  0  # atno 10167 bound_to 10162
  156.2515  130.7156  151.1057 H   0  0  0  0  0  0  0  0  0  0  0  0  # atno 10718 bound_to 10713
  153.0041  135.5406  154.6451 H   0  0  0  0  0  0  0  0  0  0  0  0  # atno 10763 bound_to 10752
  154.5697  135.2840  155.0841 H   0  0  0  0  0  0  0  0  0  0  0  0  # atno 10764 bound_to 10752
  154.2012  135.6483  153.5140 H   0  0  0  0  0  0  0  0  0  0  0  0  # atno 10765 bound_to 10752
  141.1543  133.6752  156.6523 H   0  0  0  0  0  0  0  0  0  0  0  0  # atno 11005 bound_to 11000
  145.2168  140.9919  143.4068 LP  0  0  0  0  0  0  0  0  0  0  0  0  # atno 17320 bound_to 7965
  144.9644  139.3946  143.6340 LP  0  0  0  0  0  0  0  0  0  0  0  0  # atno 17321 bound_to 7965
  140.5734  143.2178  151.7559 LP  0  0  0  0  0  0  0  0  0  0  0  0  # atno 17342 bound_to 10162
  139.4938  144.4185  152.0004 LP  0  0  0  0  0  0  0  0  0  0  0  0  # atno 17343 bound_to 10162
  157.7216  131.0677  150.6110 LP  0  0  0  0  0  0  0  0  0  0  0  0  # atno 17370 bound_to 10713
  156.6191  130.4401  149.5829 LP  0  0  0  0  0  0  0  0  0  0  0  0  # atno 17371 bound_to 10713
  140.3310  134.7928  157.4326 LP  0  0  0  0  0  0  0  0  0  0  0  0  # atno 17394 bound_to 11000
  140.1016  134.5464  155.8347 LP  0  0  0  0  0  0  0  0  0  0  0  0  # atno 17395 bound_to 11000

$$$$
