AV-unprocessed.smi:1694|AV-procd|sdf|6787|dock4
  -GOLD-   22720 7553D 1   1.00000     0.00000
 Structure written by MMmdl.
 34 35  0  0  0  0  0  0  0  0  1 V2000
  151.6704  144.3944  157.4015 C   0  0  0  0  0  0  0  0  0  0  0  0
  152.0993  143.2074  158.2491 C   0  0  0  0  0  0  0  0  0  0  0  0
  153.1957  143.3491  159.1260 C   0  0  0  0  0  0  0  0  0  0  0  0
  153.5944  142.2526  159.9089 C   0  0  0  0  0  0  0  0  0  0  0  0
  152.8752  141.0530  159.7799 C   0  0  0  0  0  0  0  0  0  0  0  0
  151.8256  140.9098  158.9453 N   0  0  0  0  0  0  0  0  0  0  0  0
  151.4221  141.9596  158.1845 C   0  0  0  0  0  0  0  0  0  0  0  0
  150.3321  141.8893  157.2627 N   0  0  0  0  0  0  0  0  0  0  0  0
  150.2271  141.3281  156.0391 C   0  0  0  0  0  0  0  0  0  0  0  0
  151.1838  140.7559  155.5194 O   0  0  0  0  0  0  0  0  0  0  0  0
  149.0352  141.4471  155.4321 N   0  0  0  0  0  0  0  0  0  0  0  0
  148.6988  140.9316  154.1100 C   0  0  2  0  0  0  0  0  0  0  0  0
  147.2320  141.2458  153.7920 C   0  0  0  0  0  0  0  0  0  0  0  0
  146.8480  140.7317  152.3958 C   0  0  0  0  0  0  0  0  0  0  0  0
  147.3231  139.2971  152.1224 C   0  0  0  0  0  0  0  0  0  0  0  0
  146.8140  138.6568  151.2055 O   0  0  0  0  0  0  0  0  0  0  0  0
  148.3140  138.7832  152.8724 N   0  0  0  0  0  0  0  0  0  0  0  0
  148.9348  139.4098  154.0393 C   0  0  0  0  0  0  0  0  0  0  0  0
  152.3071  145.2615  157.5794 H   0  0  0  0  0  0  0  0  0  0  0  0
  150.6442  144.6787  157.6356 H   0  0  0  0  0  0  0  0  0  0  0  0
  151.7291  144.1483  156.3408 H   0  0  0  0  0  0  0  0  0  0  0  0
  153.7278  144.2863  159.1998 H   0  0  0  0  0  0  0  0  0  0  0  0
  154.4302  142.3290  160.5887 H   0  0  0  0  0  0  0  0  0  0  0  0
  153.1488  140.1844  160.3606 H   0  0  0  0  0  0  0  0  0  0  0  0
  149.4987  142.3675  157.5722 H   0  0  0  0  0  0  0  0  0  0  0  0
  148.3025  141.9309  155.9323 H   0  0  0  0  0  0  0  0  0  0  0  0
  149.3218  141.4266  153.3622 H   0  0  0  0  0  0  0  0  0  0  0  0
  146.5820  140.7908  154.5413 H   0  0  0  0  0  0  0  0  0  0  0  0
  147.0576  142.3212  153.8447 H   0  0  0  0  0  0  0  0  0  0  0  0
  145.7676  140.7904  152.2603 H   0  0  0  0  0  0  0  0  0  0  0  0
  147.2927  141.3763  151.6370 H   0  0  0  0  0  0  0  0  0  0  0  0
  148.6269  137.8500  152.6470 H   0  0  0  0  0  0  0  0  0  0  0  0
  150.0028  139.1900  154.0338 H   0  0  0  0  0  0  0  0  0  0  0  0
  148.5207  138.9262  154.9251 H   0  0  0  0  0  0  0  0  0  0  0  0
  1  2  1  0  0  0  0
  1 19  1  0  0  0  0
  1 20  1  0  0  0  0
  1 21  1  0  0  0  0
  2  7  1  0  0  0  0
  2  3  2  0  0  0  0
  3  4  1  0  0  0  0
  3 22  1  0  0  0  0
  4  5  2  0  0  0  0
  4 23  1  0  0  0  0
  5  6  1  0  0  0  0
  5 24  1  0  0  0  0
  6  7  2  0  0  0  0
  7  8  1  0  0  0  0
  8  9  1  0  0  0  0
  8 25  1  0  0  0  0
  9 10  2  0  0  0  0
  9 11  1  0  0  0  0
 11 12  1  0  0  0  0
 11 26  1  0  0  0  0
 12 18  1  0  0  0  0
 12 13  1  0  0  0  0
 12 27  1  0  0  0  0
 13 14  1  0  0  0  0
 13 28  1  0  0  0  0
 13 29  1  0  0  0  0
 14 15  1  0  0  0  0
 14 30  1  0  0  0  0
 14 31  1  0  0  0  0
 15 16  2  0  0  0  0
 15 17  1  0  0  0  0
 17 18  1  0  0  0  0
 17 32  1  0  0  0  0
 18 33  1  0  0  0  0
 18 34  1  0  0  0  0
M  END
> <s_m_source_file>
AV-unprocessed.smi

> <i_m_source_file_index>
1694

> <i_lp_mmshare_version>
43012

> <i_f3d_flags>
0

> <s_epik_input>
W0NIM11jMVtjSF1bY0hdW2NIXW5jMVtOSF1DKD1PKVtOSF1bQ0BASF0yW0NIMl1bQ0gyXUMoPU8pW05IXVtDSDJdMg==

> <s_epik_cmdline>
J2VwaWtfcHl0aG9uJywgJy1waCcsICc3LjAnLCAnLXRuJywgJzgnLCAnLW1hJywgJzIwMCcsICctbWV0YWxfYmluZGluZycsICctaW1hZScsICc8aW5maWxlLm1hZT4nLCAnLW9tYWUnLCAnPG91dGZpbGUubWFlPic=

> <r_lp_tautomer_probability>
1

> <r_epik_Ionization_Penalty>
5.3746e-05

> <r_epik_Ionization_Penalty_Charging>
0

> <r_epik_Ionization_Penalty_Neutral>
5.3746e-05

> <r_epik_State_Penalty>
-0

> <r_epik_Charging_Adjusted_Penalty>
0

> <i_epik_Tot_Q>
0

> <i_epik_Tot_abs_Q>
0

> <r_epik_Metal_State_Penalty>
-0

> <b_epik_Metal_Only>
0

> <s_lp_Force_Field>
OPLS_2005

> <r_lp_Energy>
12.9813

> <b_lp_Chiralities_Consistent>
1

> <s_lp_Variant>
AV-unprocessed.smi:1694-1

> <Gold.Version>
5.8.1

> <Gold.Id.Protein>
6NUR|6NUR_protein|mol2

> <Gold.PLP.Fitness>
43.1885

> <Gold.PLP.PLP>
-36.7494

> <Gold.PLP.part.hbond>
-4.0387

> <Gold.PLP.part.metal>
0.0000

> <Gold.PLP.part.buried>
1.7206

> <Gold.PLP.part.nonpolar>
-33.6594

> <Gold.PLP.part.repulsive>
0.9807

> <Gold.PLP.ligand.clash>
0.0000

> <Gold.PLP.ligand.torsion>
0.7115

> <Gold.PLP.Chemscore.Hbond>
2.6202

> <Gold.PLP.Chemscore.CHOScore>
0.0000

> <Gold.PLP.Chemscore.Metal>
0.0000

> <Gold.Chemscore.Hbonds>
donor molecule, donor type, donor heavy atom, donor atom, acceptor molecule, acceptor atom, score
      L1  H    17    32       P1  7948  1.00
      P1  H  7954  7966       L1    16  0.99
      P1  H  7989  7998       L1    10  0.71

> <Gold.PLP.Chemscore.Internal.Correction>
0.0015

> <Gold.Rescore>
     Score         DG    S(hbond)    S(metal)    S(lipo)     H(rot)  DE(clash)    DE(int)     intcor
     17.95     -21.65       2.44        0.00      90.57       1.00       1.93       1.77       ----

> <Gold.Chemscore.Fitness>
17.9508

> <Gold.Chemscore.DG>
-21.6544

> <Gold.Chemscore.ZeroCoef>
-5.4800

> <Gold.Chemscore.Hbond>
2.4363

> <Gold.Chemscore.Metal>
0.0000

> <Gold.Chemscore.Lipo>
90.5735

> <Gold.Chemscore.Internal_Hbond>
0.0000

> <Gold.Chemscore.DEClash>
1.9345

> <Gold.Chemscore.DEInternal>
1.7691

> <Gold.Chemscore.Rot>
1.0000

> <Gold.Chemscore.Internal.Correction>
   9.000000E+99

> <Gold.Chemscore.Hbonds>
donor molecule, donor type, donor heavy atom, donor atom, acceptor molecule, acceptor atom, score
      L1  H    17    32       P1  7948  1.00
      P1  H  7954  7966       L1    16  0.78
      P1  H  7989  7998       L1    10  0.68

> <Gold.Chemscore.Hbond.Weighted>
-8.1373

> <Gold.Chemscore.Metal.Weighted>
-0.0000

> <Gold.Chemscore.Lipo.Weighted>
-10.5971

> <Gold.Chemscore.Internal_Hbond.Weighted>
0.0000

> <Gold.Chemscore.DEClash.Weighted>
1.9345

> <Gold.Chemscore.DEInternal.Weighted>
1.7691

> <Gold.Chemscore.Rot.Weighted>
2.5600

> <Gold.Chemscore.Internal.Correction.Weighted>
   9.000000E+99

> <Gold.Protein.RotatedTorsions>
[ 6907 6896 6895 6894 ] final  -52.61 input  -60.11 | X-H torsion
[ 7974 7965 7964 7962 ] final   82.66 input  175.53 | X-H torsion
[ 8008 7997 7996 7995 ] final  119.74 input   59.86 | X-H torsion
[ 10167 10162 10161 10158 ] final  170.79 input  -65.29 | X-H torsion
[ 10718 10713 10712 10709 ] final -124.29 input   66.30 | X-H torsion
[ 10763 10752 10751 10750 ] final -145.16 input  -60.55 | X-H torsion
[ 11005 11000 10999 10996 ] final -125.36 input  -57.11 | X-H torsion

> <Gold.Protein.ActiveResidues>
 VAL166  LYS551  ARG553  GLY616  TRP617  ASP618  TYR619  PRO620  LYS621  CYS622 
 ASP623  PHE694  ASN695  SER759  ASP760  ASP761  ALA762  ILE779  LEU786  VAL792 
 PHE793  MET794  SER795  GLU796  ALA797  LYS798  CYS799  TRP800  GLU811  SER814 

> <Gold.Protein.RotatedAtoms>
  150.8502  134.7825  159.7002 H   0  0  0  0  0  0  0  0  0  0  0  0  # atno 6907 bound_to 6896
  152.4569  134.5268  159.9809 H   0  0  0  0  0  0  0  0  0  0  0  0  # atno 6908 bound_to 6896
  151.5391  133.3398  159.2968 H   0  0  0  0  0  0  0  0  0  0  0  0  # atno 6909 bound_to 6896
  145.6221  139.2388  143.2132 H   0  0  0  0  0  0  0  0  0  0  0  0  # atno 7974 bound_to 7965
  156.2610  140.2846  156.1040 H   0  0  0  0  0  0  0  0  0  0  0  0  # atno 8008 bound_to 7997
  155.1329  140.0394  157.2797 H   0  0  0  0  0  0  0  0  0  0  0  0  # atno 8009 bound_to 7997
  154.6586  140.2561  155.7140 H   0  0  0  0  0  0  0  0  0  0  0  0  # atno 8010 bound_to 7997
  139.5028  144.3558  151.9876 H   0  0  0  0  0  0  0  0  0  0  0  0  # atno 10167 bound_to 10162
  156.1575  130.6578  151.0002 H   0  0  0  0  0  0  0  0  0  0  0  0  # atno 10718 bound_to 10713
  154.8396  135.3420  154.6461 H   0  0  0  0  0  0  0  0  0  0  0  0  # atno 10763 bound_to 10752
  153.7073  135.6966  153.5051 H   0  0  0  0  0  0  0  0  0  0  0  0  # atno 10764 bound_to 10752
  153.2478  135.4363  155.0720 H   0  0  0  0  0  0  0  0  0  0  0  0  # atno 10765 bound_to 10752
  140.9768  134.0729  157.3809 H   0  0  0  0  0  0  0  0  0  0  0  0  # atno 11005 bound_to 11000
  146.1423  140.7041  142.9361 LP  0  0  0  0  0  0  0  0  0  0  0  0  # atno 17320 bound_to 7965
  144.7227  140.4425  143.6996 LP  0  0  0  0  0  0  0  0  0  0  0  0  # atno 17321 bound_to 7965
  140.2994  144.3663  150.6064 LP  0  0  0  0  0  0  0  0  0  0  0  0  # atno 17342 bound_to 10162
  140.5885  143.2169  151.7298 LP  0  0  0  0  0  0  0  0  0  0  0  0  # atno 17343 bound_to 10162
  157.6706  131.0862  150.7620 LP  0  0  0  0  0  0  0  0  0  0  0  0  # atno 17370 bound_to 10713
  156.7685  130.4821  149.5423 LP  0  0  0  0  0  0  0  0  0  0  0  0  # atno 17371 bound_to 10713
  139.8934  135.0130  156.6896 LP  0  0  0  0  0  0  0  0  0  0  0  0  # atno 17394 bound_to 11000
  140.7246  133.9111  155.8170 LP  0  0  0  0  0  0  0  0  0  0  0  0  # atno 17395 bound_to 11000

$$$$
