AV-unprocessed.smi:99|AV-procd|sdf|878|dock3
  -GOLD-   2262017353D 1   1.00000     0.00000
 Structure written by MMmdl.
 53 56  0  0  0  0  0  0  0  0  1 V2000
  144.3004  135.5719  153.7339 O   0  0  0  0  0  0  0  0  0  0  0  0
  144.8399  134.4664  153.8151 C   0  0  0  0  0  0  0  0  0  0  0  0
  145.4342  134.0079  154.9339 O   0  0  0  0  0  0  0  0  0  0  0  0
  145.5093  134.8306  156.0861 C   0  0  0  0  0  0  0  0  0  0  0  0
  146.8634  134.6152  156.7690 C   0  0  1  0  0  0  0  0  0  0  0  0
  147.9244  134.9254  155.8676 O   0  0  0  0  0  0  0  0  0  0  0  0
  149.0304  135.4240  156.5669 C   0  0  1  0  0  0  0  0  0  0  0  0
  149.4051  136.7776  156.0049 N   0  0  0  0  0  0  0  0  0  0  0  0
  148.5244  137.8520  156.0317 C   0  0  0  0  0  0  0  0  0  0  0  0
  148.8416  139.0785  155.5531 C   0  0  0  0  0  0  0  0  0  0  0  0
  150.1594  139.3322  154.9802 C   0  0  0  0  0  0  0  0  0  0  0  0
  150.5368  140.4072  154.5192 O   0  0  0  0  0  0  0  0  0  0  0  0
  151.0173  138.2288  154.9878 N   0  0  0  0  0  0  0  0  0  0  0  0
  150.7038  136.9618  155.4816 C   0  0  0  0  0  0  0  0  0  0  0  0
  151.5458  136.0650  155.4568 O   0  0  0  0  0  0  0  0  0  0  0  0
  148.6308  135.5599  158.0435 C   0  0  2  0  0  0  0  0  0  0  0  0
  149.1085  134.4523  158.7852 O   0  0  0  0  0  0  0  0  0  0  0  0
  147.1134  135.5713  157.9289 C   0  0  2  0  0  0  0  0  0  0  0  0
  146.4546  135.2073  159.1366 O   0  0  0  0  0  0  0  0  0  0  0  0
  146.2493  136.1220  160.1090 C   0  0  0  0  0  0  0  0  0  0  0  0
  146.7872  137.2308  160.1277 O   0  0  0  0  0  0  0  0  0  0  0  0
  145.3097  135.6467  161.1645 C   0  0  0  0  0  0  0  0  0  0  0  0
  145.3199  134.2821  161.5365 C   0  0  0  0  0  0  0  0  0  0  0  0
  144.4420  133.8022  162.5279 C   0  0  0  0  0  0  0  0  0  0  0  0
  143.5431  134.6812  163.1592 C   0  0  0  0  0  0  0  0  0  0  0  0
  143.5237  136.0412  162.7986 C   0  0  0  0  0  0  0  0  0  0  0  0
  144.4011  136.5231  161.8075 C   0  0  0  0  0  0  0  0  0  0  0  0
  144.9044  133.4961  152.6840 C   0  0  0  0  0  0  0  0  0  0  0  0
  145.8769  132.4690  152.7058 C   0  0  0  0  0  0  0  0  0  0  0  0
  145.9585  131.5355  151.6542 C   0  0  0  0  0  0  0  0  0  0  0  0
  145.0686  131.6178  150.5677 C   0  0  0  0  0  0  0  0  0  0  0  0
  144.0973  132.6352  150.5333 C   0  0  0  0  0  0  0  0  0  0  0  0
  144.0142  133.5697  151.5840 C   0  0  0  0  0  0  0  0  0  0  0  0
  151.9439  138.3611  154.6093 H   0  0  0  0  0  0  0  0  0  0  0  0
  145.3772  135.8799  155.8192 H   0  0  0  0  0  0  0  0  0  0  0  0
  144.7028  134.5597  156.7690 H   0  0  0  0  0  0  0  0  0  0  0  0
  146.9716  133.5834  157.1082 H   0  0  0  0  0  0  0  0  0  0  0  0
  149.8879  134.7714  156.3894 H   0  0  0  0  0  0  0  0  0  0  0  0
  147.5381  137.7272  156.4531 H   0  0  0  0  0  0  0  0  0  0  0  0
  148.1163  139.8782  155.5968 H   0  0  0  0  0  0  0  0  0  0  0  0
  149.0231  136.4774  158.4843 H   0  0  0  0  0  0  0  0  0  0  0  0
  148.3662  133.9577  159.0976 H   0  0  0  0  0  0  0  0  0  0  0  0
  146.7910  136.5659  157.6152 H   0  0  0  0  0  0  0  0  0  0  0  0
  146.0005  133.5878  161.0651 H   0  0  0  0  0  0  0  0  0  0  0  0
  144.4587  132.7579  162.8033 H   0  0  0  0  0  0  0  0  0  0  0  0
  142.8696  134.3127  163.9189 H   0  0  0  0  0  0  0  0  0  0  0  0
  142.8340  136.7168  163.2827 H   0  0  0  0  0  0  0  0  0  0  0  0
  144.3599  137.5726  161.5547 H   0  0  0  0  0  0  0  0  0  0  0  0
  146.5707  132.3852  153.5298 H   0  0  0  0  0  0  0  0  0  0  0  0
  146.7043  130.7549  151.6824 H   0  0  0  0  0  0  0  0  0  0  0  0
  145.1306  130.9012  149.7620 H   0  0  0  0  0  0  0  0  0  0  0  0
  143.4131  132.6992  149.7001 H   0  0  0  0  0  0  0  0  0  0  0  0
  143.2557  134.3368  151.5268 H   0  0  0  0  0  0  0  0  0  0  0  0
  1  2  2  0  0  0  0
  2  3  1  0  0  0  0
  2 28  1  0  0  0  0
  3  4  1  0  0  0  0
  4  5  1  0  0  0  0
  4 35  1  0  0  0  0
  4 36  1  0  0  0  0
  5 18  1  0  0  0  0
  5  6  1  0  0  0  0
  5 37  1  0  0  0  0
  6  7  1  0  0  0  0
  7  8  1  0  0  0  0
  7 16  1  0  0  0  0
  7 38  1  0  0  0  0
  8 14  1  0  0  0  0
  8  9  1  0  0  0  0
  9 10  2  0  0  0  0
  9 39  1  0  0  0  0
 10 11  1  0  0  0  0
 10 40  1  0  0  0  0
 11 12  2  0  0  0  0
 11 13  1  0  0  0  0
 13 34  1  0  0  0  0
 13 14  1  0  0  0  0
 14 15  2  0  0  0  0
 16 17  1  0  0  0  0
 16 18  1  0  0  0  0
 16 41  1  0  0  0  0
 17 42  1  0  0  0  0
 18 19  1  0  0  0  0
 18 43  1  0  0  0  0
 19 20  1  0  0  0  0
 20 21  2  0  0  0  0
 20 22  1  0  0  0  0
 22 27  1  0  0  0  0
 22 23  2  0  0  0  0
 23 24  1  0  0  0  0
 23 44  1  0  0  0  0
 24 25  2  0  0  0  0
 24 45  1  0  0  0  0
 25 26  1  0  0  0  0
 25 46  1  0  0  0  0
 26 27  2  0  0  0  0
 26 47  1  0  0  0  0
 27 48  1  0  0  0  0
 28 33  1  0  0  0  0
 28 29  2  0  0  0  0
 29 30  1  0  0  0  0
 29 49  1  0  0  0  0
 30 31  2  0  0  0  0
 30 50  1  0  0  0  0
 31 32  1  0  0  0  0
 31 51  1  0  0  0  0
 32 33  2  0  0  0  0
 32 52  1  0  0  0  0
 33 53  1  0  0  0  0
M  END
> <s_m_source_file>
AV-unprocessed.smi

> <i_m_source_file_index>
99

> <i_lp_mmshare_version>
43012

> <i_f3d_flags>
0

> <s_epik_input>
W2NIXTFbY0hdW2NIXVtjSF1bY0hdYzFDKD1PKU9bQ0gyXVtDQEBIXTJPW0NAQEhdKG4zW2NIXVtjSF1jKD1PKVtuSF1jMz1PKVtDQEBIXShbT0hdKVtDQEhdMk9DKD1PKWM0W2NIXVtjSF1bY0hdW2NIXVtjSF00

> <s_epik_cmdline>
J2VwaWtfcHl0aG9uJywgJy1waCcsICc3LjAnLCAnLXRuJywgJzgnLCAnLW1hJywgJzIwMCcsICctbWV0YWxfYmluZGluZycsICctaW1hZScsICc8aW5maWxlLm1hZT4nLCAnLW9tYWUnLCAnPG91dGZpbGUubWFlPic=

> <r_lp_tautomer_probability>
1

> <r_epik_Ionization_Penalty>
0.00454555

> <r_epik_Ionization_Penalty_Charging>
0.0045191

> <r_epik_Ionization_Penalty_Neutral>
2.64449e-05

> <r_epik_State_Penalty>
-0

> <r_epik_Charging_Adjusted_Penalty>
0.0045191

> <i_epik_Tot_Q>
0

> <i_epik_Tot_abs_Q>
0

> <r_epik_Metal_State_Penalty>
1.27877

> <b_epik_Metal_Only>
0

> <s_epik_Chemistry_Notes>
This compound has an ester and may undergo hydrolysis at high or low pH. This compound contains an acetal/aminal-like group ( X-CH(R)-Y where X, Y are N, S, or O) that may be acid/base labile, releasing an aldehyde.

> <s_lp_Force_Field>
OPLS_2005

> <r_lp_Energy>
38.7636

> <b_lp_Chiralities_Consistent>
1

> <s_lp_Variant>
AV-unprocessed.smi:99-14

> <Gold.Version>
5.8.1

> <Gold.Id.Protein>
6NUR|6NUR_protein|mol2

> <Gold.PLP.Fitness>
46.1875

> <Gold.PLP.PLP>
-36.6117

> <Gold.PLP.part.hbond>
-3.7780

> <Gold.PLP.part.metal>
0.0000

> <Gold.PLP.part.buried>
-7.7802

> <Gold.PLP.part.nonpolar>
-24.9799

> <Gold.PLP.part.repulsive>
0.4824

> <Gold.PLP.ligand.clash>
0.0000

> <Gold.PLP.ligand.torsion>
1.3127

> <Gold.PLP.Chemscore.Hbond>
3.9600

> <Gold.PLP.Chemscore.CHOScore>
0.0000

> <Gold.PLP.Chemscore.Metal>
0.0000

> <Gold.Chemscore.Hbonds>
donor molecule, donor type, donor heavy atom, donor atom, acceptor molecule, acceptor atom, score
      P1  H  6896  6907       L1    17  1.00
      P1  H  6934  6947       L1    21  1.00
      P1  H  7989  7998       L1    12  1.00
      P1  H 10752 10763       L1    15  1.00

> <Gold.PLP.Chemscore.Internal.Correction>
0.3212

> <Gold.Rescore>
     Score         DG    S(hbond)    S(metal)    S(lipo)     H(rot)  DE(clash)    DE(int)     intcor
     18.84     -20.08       3.93        0.00      82.39       3.19       0.03       1.21       ----

> <Gold.Chemscore.Fitness>
18.8378

> <Gold.Chemscore.DG>
-20.0813

> <Gold.Chemscore.ZeroCoef>
-5.4800

> <Gold.Chemscore.Hbond>
3.9307

> <Gold.Chemscore.Metal>
0.0000

> <Gold.Chemscore.Lipo>
82.3921

> <Gold.Chemscore.Internal_Hbond>
0.0000

> <Gold.Chemscore.DEClash>
0.0289

> <Gold.Chemscore.DEInternal>
1.2145

> <Gold.Chemscore.Rot>
3.1903

> <Gold.Chemscore.Internal.Correction>
   9.000000E+99

> <Gold.Chemscore.Hbonds>
donor molecule, donor type, donor heavy atom, donor atom, acceptor molecule, acceptor atom, score
      P1  H  6896  6907       L1    17  0.99
      P1  H  6934  6947       L1    21  0.97
      P1  H  7989  7998       L1    12  0.94
      P1  H 10752 10763       L1    15  1.00

> <Gold.Chemscore.Hbond.Weighted>
-13.1285

> <Gold.Chemscore.Metal.Weighted>
-0.0000

> <Gold.Chemscore.Lipo.Weighted>
-9.6399

> <Gold.Chemscore.Internal_Hbond.Weighted>
0.0000

> <Gold.Chemscore.DEClash.Weighted>
0.0289

> <Gold.Chemscore.DEInternal.Weighted>
1.2145

> <Gold.Chemscore.Rot.Weighted>
8.1671

> <Gold.Chemscore.Internal.Correction.Weighted>
   9.000000E+99

> <Gold.Protein.RotatedTorsions>
[ 6907 6896 6895 6894 ] final  -86.74 input  -60.11 | X-H torsion
[ 7974 7965 7964 7962 ] final  140.95 input  175.53 | X-H torsion
[ 8008 7997 7996 7995 ] final   34.47 input   59.86 | X-H torsion
[ 10167 10162 10161 10158 ] final -157.18 input  -65.29 | X-H torsion
[ 10718 10713 10712 10709 ] final   95.91 input   66.30 | X-H torsion
[ 10763 10752 10751 10750 ] final   61.33 input  -60.55 | X-H torsion
[ 11005 11000 10999 10996 ] final  179.32 input  -57.11 | X-H torsion

> <Gold.Protein.ActiveResidues>
 VAL166  LYS551  ARG553  GLY616  TRP617  ASP618  TYR619  PRO620  LYS621  CYS622 
 ASP623  PHE694  ASN695  SER759  ASP760  ASP761  ALA762  ILE779  LEU786  VAL792 
 PHE793  MET794  SER795  GLU796  ALA797  LYS798  CYS799  TRP800  GLU811  SER814 

> <Gold.Protein.RotatedAtoms>
  150.6866  134.3004  159.4703 H   0  0  0  0  0  0  0  0  0  0  0  0  # atno 6907 bound_to 6896
  152.0900  134.9411  160.0581 H   0  0  0  0  0  0  0  0  0  0  0  0  # atno 6908 bound_to 6896
  152.0730  133.4081  159.4504 H   0  0  0  0  0  0  0  0  0  0  0  0  # atno 6909 bound_to 6896
  144.9140  139.5255  143.5695 H   0  0  0  0  0  0  0  0  0  0  0  0  # atno 7974 bound_to 7965
  155.1553  140.3278  155.4422 H   0  0  0  0  0  0  0  0  0  0  0  0  # atno 8008 bound_to 7997
  156.2560  140.1969  156.6614 H   0  0  0  0  0  0  0  0  0  0  0  0  # atno 8009 bound_to 7997
  154.6443  140.0566  156.9869 H   0  0  0  0  0  0  0  0  0  0  0  0  # atno 8010 bound_to 7997
  139.6791  143.9612  152.2327 H   0  0  0  0  0  0  0  0  0  0  0  0  # atno 10167 bound_to 10162
  157.6933  131.0561  150.4412 H   0  0  0  0  0  0  0  0  0  0  0  0  # atno 10718 bound_to 10713
  152.9947  135.5504  154.6017 H   0  0  0  0  0  0  0  0  0  0  0  0  # atno 10763 bound_to 10752
  154.5357  135.2816  155.1143 H   0  0  0  0  0  0  0  0  0  0  0  0  # atno 10764 bound_to 10752
  154.2440  135.6411  153.5269 H   0  0  0  0  0  0  0  0  0  0  0  0  # atno 10765 bound_to 10752
  140.4049  134.6744  157.4582 H   0  0  0  0  0  0  0  0  0  0  0  0  # atno 11005 bound_to 11000
  146.3172  139.7968  142.8974 LP  0  0  0  0  0  0  0  0  0  0  0  0  # atno 17320 bound_to 7965
  145.3407  141.0287  143.3394 LP  0  0  0  0  0  0  0  0  0  0  0  0  # atno 17321 bound_to 7965
  139.9397  144.6689  150.8279 LP  0  0  0  0  0  0  0  0  0  0  0  0  # atno 17342 bound_to 10162
  140.7646  143.3253  151.2530 LP  0  0  0  0  0  0  0  0  0  0  0  0  # atno 17343 bound_to 10162
  156.4770  130.4065  149.6484 LP  0  0  0  0  0  0  0  0  0  0  0  0  # atno 17370 bound_to 10713
  156.3543  130.7448  151.2412 LP  0  0  0  0  0  0  0  0  0  0  0  0  # atno 17371 bound_to 10713
  140.0309  134.6407  155.9108 LP  0  0  0  0  0  0  0  0  0  0  0  0  # atno 17394 bound_to 11000
  141.1843  133.6552  156.5151 LP  0  0  0  0  0  0  0  0  0  0  0  0  # atno 17395 bound_to 11000

$$$$
