AV-unprocessed.smi:218|AV-procd|sdf|1677|dock10
  -GOLD-   2262020103D 1   1.00000     0.00000
 Structure written by MMmdl.
 54 57  0  0  0  0  0  0  0  0  1 V2000
  151.8756  142.9294  159.5379 C   0  0  0  0  0  0  0  0  0  0  0  0
  152.1411  141.4388  159.7801 C   0  0  0  0  0  0  0  0  0  0  0  0
  153.2715  141.2342  160.8035 C   0  0  0  0  0  0  0  0  0  0  0  0
  152.5044  140.8734  158.5192 O   0  0  0  0  0  0  0  0  0  0  0  0
  152.4227  139.5085  158.3210 C   0  0  0  0  0  0  0  0  0  0  0  0
  151.1456  138.9324  158.1675 C   0  0  0  0  0  0  0  0  0  0  0  0
  151.0445  137.5411  157.9566 C   0  0  0  0  0  0  0  0  0  0  0  0
  149.6911  136.8736  157.7756 C   0  0  0  0  0  0  0  0  0  0  0  0
  148.6340  137.3869  158.6407 N   0  0  0  0  0  0  0  0  0  0  0  0
  147.9540  136.5500  159.4548 C   0  0  0  0  0  0  0  0  0  0  0  0
  147.2323  137.0237  160.5044 N   0  0  0  0  0  0  0  0  0  0  0  0
  146.5646  136.1765  161.2938 C   0  0  0  0  0  0  0  0  0  0  0  0
  146.4812  134.8462  161.2098 N   0  0  0  0  0  0  0  0  0  0  0  0
  147.2013  134.3691  160.1535 C   0  0  0  0  0  0  0  0  0  0  0  0
  147.9600  135.1483  159.2375 C   0  0  0  0  0  0  0  0  0  0  0  0
  148.5618  134.3181  158.3007 N   0  0  0  0  0  0  0  0  0  0  0  0
  148.1763  133.1190  158.6472 C   0  0  0  0  0  0  0  0  0  0  0  0
  147.3521  133.0607  159.7515 N   0  0  0  0  0  0  0  0  0  0  0  0
  146.7326  131.8707  160.4105 C   0  0  1  0  0  0  0  0  0  0  0  0
  145.3448  132.0460  160.3938 O   0  0  0  0  0  0  0  0  0  0  0  0
  144.7120  131.0482  159.5944 C   0  0  1  0  0  0  0  0  0  0  0  0
  143.5174  131.6627  158.8478 C   0  0  0  0  0  0  0  0  0  0  0  0
  142.5846  132.1970  159.7628 O   0  0  0  0  0  0  0  0  0  0  0  0
  145.8281  130.5165  158.6924 C   0  0  2  0  0  0  0  0  0  0  0  0
  145.5980  129.2013  158.2251 O   0  0  0  0  0  0  0  0  0  0  0  0
  147.0510  130.6132  159.5929 C   0  0  2  0  0  0  0  0  0  0  0  0
  147.2147  129.4898  160.4393 O   0  0  0  0  0  0  0  0  0  0  0  0
  152.2284  136.7783  157.9207 C   0  0  0  0  0  0  0  0  0  0  0  0
  153.4588  137.4420  158.0896 C   0  0  0  0  0  0  0  0  0  0  0  0
  153.5619  138.7734  158.2852 N   0  0  0  0  0  0  0  0  0  0  0  0
  147.1372  131.8743  161.4237 H   0  0  0  0  0  0  0  0  0  0  0  0
  144.3741  130.2649  160.2756 H   0  0  0  0  0  0  0  0  0  0  0  0
  145.9604  131.1803  157.8368 H   0  0  0  0  0  0  0  0  0  0  0  0
  147.9711  130.7383  159.0198 H   0  0  0  0  0  0  0  0  0  0  0  0
  151.5814  143.4318  160.4597 H   0  0  0  0  0  0  0  0  0  0  0  0
  151.0726  143.0691  158.8139 H   0  0  0  0  0  0  0  0  0  0  0  0
  152.7629  143.4317  159.1514 H   0  0  0  0  0  0  0  0  0  0  0  0
  151.2138  141.0025  160.1548 H   0  0  0  0  0  0  0  0  0  0  0  0
  153.0225  141.6997  161.7574 H   0  0  0  0  0  0  0  0  0  0  0  0
  154.2041  141.6754  160.4512 H   0  0  0  0  0  0  0  0  0  0  0  0
  153.4583  140.1781  160.9958 H   0  0  0  0  0  0  0  0  0  0  0  0
  150.2616  139.5520  158.2046 H   0  0  0  0  0  0  0  0  0  0  0  0
  149.3756  136.9487  156.7340 H   0  0  0  0  0  0  0  0  0  0  0  0
  149.8088  135.8098  157.9820 H   0  0  0  0  0  0  0  0  0  0  0  0
  148.3103  138.3193  158.4271 H   0  0  0  0  0  0  0  0  0  0  0  0
  146.0188  136.6297  162.1082 H   0  0  0  0  0  0  0  0  0  0  0  0
  148.4858  132.2418  158.0985 H   0  0  0  0  0  0  0  0  0  0  0  0
  143.8564  132.4716  158.2003 H   0  0  0  0  0  0  0  0  0  0  0  0
  143.0271  130.9254  158.2119 H   0  0  0  0  0  0  0  0  0  0  0  0
  142.8883  132.0196  160.6406 H   0  0  0  0  0  0  0  0  0  0  0  0
  146.1929  128.6193  158.6740 H   0  0  0  0  0  0  0  0  0  0  0  0
  147.3583  129.7983  161.3211 H   0  0  0  0  0  0  0  0  0  0  0  0
  152.1986  135.7103  157.7628 H   0  0  0  0  0  0  0  0  0  0  0  0
  154.3857  136.8886  158.0657 H   0  0  0  0  0  0  0  0  0  0  0  0
  1  2  1  0  0  0  0
  1 35  1  0  0  0  0
  1 36  1  0  0  0  0
  1 37  1  0  0  0  0
  2  3  1  0  0  0  0
  2  4  1  0  0  0  0
  2 38  1  0  0  0  0
  3 39  1  0  0  0  0
  3 40  1  0  0  0  0
  3 41  1  0  0  0  0
  4  5  1  0  0  0  0
  5 30  1  0  0  0  0
  5  6  2  0  0  0  0
  6  7  1  0  0  0  0
  6 42  1  0  0  0  0
  7  8  1  0  0  0  0
  7 28  2  0  0  0  0
  8  9  1  0  0  0  0
  8 43  1  0  0  0  0
  8 44  1  0  0  0  0
  9 10  1  0  0  0  0
  9 45  1  0  0  0  0
 10 15  1  0  0  0  0
 10 11  2  0  0  0  0
 11 12  1  0  0  0  0
 12 13  2  0  0  0  0
 12 46  1  0  0  0  0
 13 14  1  0  0  0  0
 14 18  1  0  0  0  0
 14 15  2  0  0  0  0
 15 16  1  0  0  0  0
 16 17  2  0  0  0  0
 17 18  1  0  0  0  0
 17 47  1  0  0  0  0
 18 19  1  0  0  0  0
 19 31  1  0  0  0  0
 19 26  1  0  0  0  0
 19 20  1  0  0  0  0
 20 21  1  0  0  0  0
 21 32  1  0  0  0  0
 21 22  1  0  0  0  0
 21 24  1  0  0  0  0
 22 23  1  0  0  0  0
 22 48  1  0  0  0  0
 22 49  1  0  0  0  0
 23 50  1  0  0  0  0
 24 33  1  0  0  0  0
 24 25  1  0  0  0  0
 24 26  1  0  0  0  0
 25 51  1  0  0  0  0
 26 34  1  0  0  0  0
 26 27  1  0  0  0  0
 27 52  1  0  0  0  0
 28 29  1  0  0  0  0
 28 53  1  0  0  0  0
 29 30  2  0  0  0  0
 29 54  1  0  0  0  0
M  END
> <s_m_source_file>
AV-unprocessed.smi

> <i_m_source_file_index>
218

> <i_lp_mmshare_version>
43012

> <i_f3d_flags>
0

> <s_epik_input>
W0NIM11bQ0hdKFtDSDNdKU9jMVtjSF1jKFtjSF1bY0hdbjEpW0NIMl1bTkhdYyhuW2NIXW4yKWMoYzIzKW5bY0hdbjNbQ0BASF00T1tDQEhdKFtDSDJdW09IXSlbQ0BASF0oW09IXSlbQ0BIXTRbT0hd

> <s_epik_cmdline>
J2VwaWtfcHl0aG9uJywgJy1waCcsICc3LjAnLCAnLXRuJywgJzgnLCAnLW1hJywgJzIwMCcsICctbWV0YWxfYmluZGluZycsICctaW1hZScsICc8aW5maWxlLm1hZT4nLCAnLW9tYWUnLCAnPG91dGZpbGUubWFlPic=

> <r_lp_tautomer_probability>
1

> <r_epik_Ionization_Penalty>
0.00457014

> <r_epik_Ionization_Penalty_Charging>
0

> <r_epik_Ionization_Penalty_Neutral>
0.00457014

> <r_epik_State_Penalty>
-0

> <r_epik_Charging_Adjusted_Penalty>
0

> <i_epik_Tot_Q>
0

> <i_epik_Tot_abs_Q>
0

> <r_epik_Metal_State_Penalty>
-0

> <b_epik_Metal_Only>
0

> <s_epik_Chemistry_Notes>
This compound contains an acetal/aminal-like group ( X-CH(R)-Y where X, Y are N, S, or O) that may be acid/base labile, releasing an aldehyde.

> <s_lp_Force_Field>
OPLS_2005

> <r_lp_Energy>
38.234

> <b_lp_Chiralities_Consistent>
1

> <s_lp_Variant>
AV-unprocessed.smi:218-16

> <Gold.Version>
5.8.1

> <Gold.Id.Protein>
6NUR|6NUR_protein|mol2

> <Gold.PLP.Fitness>
49.1553

> <Gold.PLP.PLP>
-40.1720

> <Gold.PLP.part.hbond>
-5.0000

> <Gold.PLP.part.metal>
0.0000

> <Gold.PLP.part.buried>
-6.2008

> <Gold.PLP.part.nonpolar>
-29.5958

> <Gold.PLP.part.repulsive>
0.2989

> <Gold.PLP.ligand.clash>
0.0000

> <Gold.PLP.ligand.torsion>
0.7290

> <Gold.PLP.Chemscore.Hbond>
3.4573

> <Gold.PLP.Chemscore.CHOScore>
0.0000

> <Gold.PLP.Chemscore.Metal>
0.0000

> <Gold.Chemscore.Hbonds>
donor molecule, donor type, donor heavy atom, donor atom, acceptor molecule, acceptor atom, score
      P1  H  6896  6909       L1    16  0.09
      P1  H  6934  6947       L1    11  0.98
      P1  H  7997  8009       L1    30  0.67

> <Gold.PLP.Chemscore.Internal.Correction>
0.0693

> <Gold.Rescore>
     Score         DG    S(hbond)    S(metal)    S(lipo)     H(rot)  DE(clash)    DE(int)     intcor
      4.55      -6.56       2.06        0.00      57.53       4.90       0.00       2.00       ----

> <Gold.Chemscore.Fitness>
4.5549

> <Gold.Chemscore.DG>
-6.5564

> <Gold.Chemscore.ZeroCoef>
-5.4800

> <Gold.Chemscore.Hbond>
2.0650

> <Gold.Chemscore.Metal>
0.0000

> <Gold.Chemscore.Lipo>
57.5287

> <Gold.Chemscore.Internal_Hbond>
0.0000

> <Gold.Chemscore.DEClash>
0.0000

> <Gold.Chemscore.DEInternal>
2.0015

> <Gold.Chemscore.Rot>
4.9029

> <Gold.Chemscore.Internal.Correction>
   9.000000E+99

> <Gold.Chemscore.Hbonds>
donor molecule, donor type, donor heavy atom, donor atom, acceptor molecule, acceptor atom, score
      P1  H  6934  6947       L1    11  0.86
      P1  H  7997  8009       L1    30  0.08

> <Gold.Chemscore.Hbond.Weighted>
-6.8971

> <Gold.Chemscore.Metal.Weighted>
-0.0000

> <Gold.Chemscore.Lipo.Weighted>
-6.7309

> <Gold.Chemscore.Internal_Hbond.Weighted>
0.0000

> <Gold.Chemscore.DEClash.Weighted>
0.0000

> <Gold.Chemscore.DEInternal.Weighted>
2.0015

> <Gold.Chemscore.Rot.Weighted>
12.5515

> <Gold.Chemscore.Internal.Correction.Weighted>
   9.000000E+99

> <Gold.Protein.RotatedTorsions>
[ 6907 6896 6895 6894 ] final   36.78 input  -60.11 | X-H torsion
[ 7974 7965 7964 7962 ] final  -36.16 input  175.53 | X-H torsion
[ 8008 7997 7996 7995 ] final  160.43 input   59.86 | X-H torsion
[ 10167 10162 10161 10158 ] final -134.95 input  -65.29 | X-H torsion
[ 10718 10713 10712 10709 ] final   94.88 input   66.30 | X-H torsion
[ 10763 10752 10751 10750 ] final   71.17 input  -60.55 | X-H torsion
[ 11005 11000 10999 10996 ] final  -83.80 input  -57.11 | X-H torsion

> <Gold.Protein.ActiveResidues>
 VAL166  LYS551  ARG553  GLY616  TRP617  ASP618  TYR619  PRO620  LYS621  CYS622 
 ASP623  PHE694  ASN695  SER759  ASP760  ASP761  ALA762  ILE779  LEU786  VAL792 
 PHE793  MET794  SER795  GLU796  ALA797  LYS798  CYS799  TRP800  GLU811  SER814 

> <Gold.Protein.RotatedAtoms>
  152.1343  134.9111  160.0556 H   0  0  0  0  0  0  0  0  0  0  0  0  # atno 6907 bound_to 6896
  152.0203  133.3891  159.4264 H   0  0  0  0  0  0  0  0  0  0  0  0  # atno 6908 bound_to 6896
  150.6859  134.3554  159.4971 H   0  0  0  0  0  0  0  0  0  0  0  0  # atno 6909 bound_to 6896
  146.0685  140.6245  142.8963 H   0  0  0  0  0  0  0  0  0  0  0  0  # atno 7974 bound_to 7965
  156.2173  140.1804  156.7560 H   0  0  0  0  0  0  0  0  0  0  0  0  # atno 8008 bound_to 7997
  154.5810  140.0666  156.9133 H   0  0  0  0  0  0  0  0  0  0  0  0  # atno 8009 bound_to 7997
  155.2502  140.3328  155.4285 H   0  0  0  0  0  0  0  0  0  0  0  0  # atno 8010 bound_to 7997
  139.8828  143.6817  152.2624 H   0  0  0  0  0  0  0  0  0  0  0  0  # atno 10167 bound_to 10162
  157.6944  131.0527  150.4254 H   0  0  0  0  0  0  0  0  0  0  0  0  # atno 10718 bound_to 10713
  153.0383  135.5147  154.7552 H   0  0  0  0  0  0  0  0  0  0  0  0  # atno 10763 bound_to 10752
  154.6510  135.2925  154.9989 H   0  0  0  0  0  0  0  0  0  0  0  0  # atno 10764 bound_to 10752
  154.0873  135.6655  153.4899 H   0  0  0  0  0  0  0  0  0  0  0  0  # atno 10765 bound_to 10752
  141.1655  133.7313  156.8773 H   0  0  0  0  0  0  0  0  0  0  0  0  # atno 11005 bound_to 11000
  144.7217  140.4395  143.7003 LP  0  0  0  0  0  0  0  0  0  0  0  0  # atno 17320 bound_to 7965
  145.6433  139.1553  143.2903 LP  0  0  0  0  0  0  0  0  0  0  0  0  # atno 17321 bound_to 7965
  139.7180  144.7608  151.1002 LP  0  0  0  0  0  0  0  0  0  0  0  0  # atno 17342 bound_to 10162
  140.7741  143.5244  150.9497 LP  0  0  0  0  0  0  0  0  0  0  0  0  # atno 17343 bound_to 10162
  156.4626  130.4035  149.6567 LP  0  0  0  0  0  0  0  0  0  0  0  0  # atno 17370 bound_to 10713
  156.3677  130.7514  151.2494 LP  0  0  0  0  0  0  0  0  0  0  0  0  # atno 17371 bound_to 10713
  140.1739  134.9080  157.2867 LP  0  0  0  0  0  0  0  0  0  0  0  0  # atno 17394 bound_to 11000
  140.2471  134.3727  155.7457 LP  0  0  0  0  0  0  0  0  0  0  0  0  # atno 17395 bound_to 11000

$$$$
