AV-unprocessed.smi:1433|AV-procd|sdf|5841|dock8
  -GOLD-   22720 5503D 1   1.00000     0.00000
 Structure written by MMmdl.
 45 46  0  0  0  0  0  0  0  0  2 V2000
  152.2957  138.8873  154.6551 C   0  0  0  0  0  0  0  0  0  0  0  0
  151.0896  137.9673  154.4365 C   0  0  2  0  0  0  0  0  0  0  0  0
  149.8264  138.7574  154.0474 C   0  0  0  0  0  0  0  0  0  0  0  0
  148.6492  137.8557  153.9298 N   0  3  2  0  0  0  0  0  0  0  0  0
  147.3716  138.4909  153.4681 C   0  0  2  0  0  0  0  0  0  0  0  0
  146.9610  139.6085  154.4522 C   0  0  0  0  0  0  0  0  0  0  0  0
  146.1993  137.4892  153.2658 C   0  0  0  0  0  0  0  0  0  0  0  0
  146.4647  136.4926  152.2324 N   0  0  0  0  0  0  0  0  0  0  0  0
  145.6127  135.5262  151.8551 C   0  0  0  0  0  0  0  0  0  0  0  0
  144.5056  135.3603  152.3670 O   0  0  0  0  0  0  0  0  0  0  0  0
  146.0776  134.6101  150.7229 C   0  0  0  0  0  0  0  0  0  0  0  0
  145.3564  133.3508  150.7461 N   0  0  0  0  0  0  0  0  0  0  0  0
  145.8664  132.0734  150.8522 C   0  0  0  0  0  0  0  0  0  0  0  0
  144.8080  131.2108  150.8410 C   0  0  0  0  0  0  0  0  0  0  0  0
  143.6765  132.0658  150.7248 C   0  0  0  0  0  0  0  0  0  0  0  0
  144.0071  133.3461  150.6684 N   0  0  0  0  0  0  0  0  0  0  0  0
  148.4755  137.1014  155.2002 C   0  0  0  0  0  0  0  0  0  0  0  0
  149.7588  136.3490  155.5998 C   0  0  1  0  0  0  0  0  0  0  0  0
  150.0461  135.1125  154.7295 C   0  0  0  0  0  0  0  0  0  0  0  0
  150.8601  137.2531  155.6460 O   0  0  0  0  0  0  0  0  0  0  0  0
  152.5268  139.4535  153.7523 H   0  0  0  0  0  0  0  0  0  0  0  0
  153.1823  138.3110  154.9207 H   0  0  0  0  0  0  0  0  0  0  0  0
  152.1089  139.6002  155.4588 H   0  0  0  0  0  0  0  0  0  0  0  0
  151.3427  137.2679  153.6393 H   0  0  0  0  0  0  0  0  0  0  0  0
  149.6191  139.5362  154.7835 H   0  0  0  0  0  0  0  0  0  0  0  0
  150.0336  139.2483  153.0971 H   0  0  0  0  0  0  0  0  0  0  0  0
  147.5706  138.9479  152.4976 H   0  0  0  0  0  0  0  0  0  0  0  0
  146.0750  140.1431  154.1099 H   0  0  0  0  0  0  0  0  0  0  0  0
  147.7387  140.3599  154.5779 H   0  0  0  0  0  0  0  0  0  0  0  0
  146.7375  139.1995  155.4380 H   0  0  0  0  0  0  0  0  0  0  0  0
  145.9742  136.9481  154.1861 H   0  0  0  0  0  0  0  0  0  0  0  0
  145.2919  138.0249  152.9845 H   0  0  0  0  0  0  0  0  0  0  0  0
  147.3499  136.5570  151.7501 H   0  0  0  0  0  0  0  0  0  0  0  0
  145.9355  135.0938  149.7550 H   0  0  0  0  0  0  0  0  0  0  0  0
  147.1445  134.4067  150.8259 H   0  0  0  0  0  0  0  0  0  0  0  0
  146.9280  131.8880  150.9277 H   0  0  0  0  0  0  0  0  0  0  0  0
  144.8372  130.1333  150.9072 H   0  0  0  0  0  0  0  0  0  0  0  0
  142.6316  131.7958  150.6811 H   0  0  0  0  0  0  0  0  0  0  0  0
  148.2103  137.8034  155.9926 H   0  0  0  0  0  0  0  0  0  0  0  0
  147.6525  136.3917  155.1304 H   0  0  0  0  0  0  0  0  0  0  0  0
  149.6256  135.9889  156.6206 H   0  0  0  0  0  0  0  0  0  0  0  0
  149.2439  134.3801  154.8232 H   0  0  0  0  0  0  0  0  0  0  0  0
  150.9715  134.6264  155.0390 H   0  0  0  0  0  0  0  0  0  0  0  0
  150.1347  135.3595  153.6720 H   0  0  0  0  0  0  0  0  0  0  0  0
  148.8958  137.1816  153.2191 H   0  0  0  0  0  0  0  0  0  0  0  0
  1  2  1  0  0  0  0
  1 21  1  0  0  0  0
  1 22  1  0  0  0  0
  1 23  1  0  0  0  0
  2 20  1  0  0  0  0
  2  3  1  0  0  0  0
  2 24  1  0  0  0  0
  3  4  1  0  0  0  0
  3 25  1  0  0  0  0
  3 26  1  0  0  0  0
  4  5  1  0  0  0  0
  4 17  1  0  0  0  0
  4 45  1  0  0  0  0
  5  6  1  0  0  0  0
  5  7  1  0  0  0  0
  5 27  1  0  0  0  0
  6 28  1  0  0  0  0
  6 29  1  0  0  0  0
  6 30  1  0  0  0  0
  7  8  1  0  0  0  0
  7 31  1  0  0  0  0
  7 32  1  0  0  0  0
  8  9  1  0  0  0  0
  8 33  1  0  0  0  0
  9 10  2  0  0  0  0
  9 11  1  0  0  0  0
 11 12  1  0  0  0  0
 11 34  1  0  0  0  0
 11 35  1  0  0  0  0
 12 16  1  0  0  0  0
 12 13  1  0  0  0  0
 13 14  2  0  0  0  0
 13 36  1  0  0  0  0
 14 15  1  0  0  0  0
 14 37  1  0  0  0  0
 15 16  2  0  0  0  0
 15 38  1  0  0  0  0
 17 18  1  0  0  0  0
 17 39  1  0  0  0  0
 17 40  1  0  0  0  0
 18 19  1  0  0  0  0
 18 20  1  0  0  0  0
 18 41  1  0  0  0  0
 19 42  1  0  0  0  0
 19 43  1  0  0  0  0
 19 44  1  0  0  0  0
M  CHG  1   4   1
M  END
> <s_m_source_file>
AV-unprocessed.smi

> <i_m_source_file_index>
1433

> <i_lp_mmshare_version>
43012

> <i_f3d_flags>
0

> <s_epik_input>
W0NIM11bQ0BASF0xW0NIMl1OKFtDSDJdW0NASF0oTzEpW0NIM10pW0NASF0oW0NIM10pW0NIMl1bTkhdQyg9TylbQ0gyXW4yW2NIXVtjSF1bY0hdbjI=

> <s_epik_cmdline>
J2VwaWtfcHl0aG9uJywgJy1waCcsICc3LjAnLCAnLXRuJywgJzgnLCAnLW1hJywgJzIwMCcsICctbWV0YWxfYmluZGluZycsICctaW1hZScsICc8aW5maWxlLm1hZT4nLCAnLW9tYWUnLCAnPG91dGZpbGUubWFlPic=

> <r_lp_tautomer_probability>
1

> <r_epik_Ionization_Penalty>
0.748405

> <r_epik_Ionization_Penalty_Charging>
0.748396

> <r_epik_Ionization_Penalty_Neutral>
8.54426e-06

> <r_epik_State_Penalty>
0.775162

> <r_epik_Charging_Adjusted_Penalty>
1.52356

> <i_epik_Tot_Q>
1

> <i_epik_Tot_abs_Q>
1

> <r_epik_Metal_State_Penalty>
0.775167

> <b_epik_Metal_Only>
0

> <s_lp_Force_Field>
OPLS_2005

> <r_lp_Energy>
22.7015

> <b_lp_Chiralities_Consistent>
1

> <s_lp_Variant>
AV-unprocessed.smi:1433-7

> <Gold.Version>
5.8.1

> <Gold.Id.Protein>
6NUR|6NUR_protein|mol2

> <Gold.PLP.Fitness>
46.7373

> <Gold.PLP.PLP>
-32.4451

> <Gold.PLP.part.hbond>
-2.0000

> <Gold.PLP.part.metal>
0.0000

> <Gold.PLP.part.buried>
-5.2584

> <Gold.PLP.part.nonpolar>
-26.0345

> <Gold.PLP.part.repulsive>
0.3886

> <Gold.PLP.ligand.clash>
0.0000

> <Gold.PLP.ligand.torsion>
0.3528

> <Gold.PLP.Chemscore.Hbond>
2.9920

> <Gold.PLP.Chemscore.CHOScore>
1.9839

> <Gold.PLP.Chemscore.Metal>
0.0000

> <Gold.Chemscore.Hbonds>
donor molecule, donor type, donor heavy atom, donor atom, acceptor molecule, acceptor atom, score
      L1  H     4    45       P1  7948  2.00
      L1  H     8    33       P1  7948  0.91
      L1  C    13    36       P1 10747  1.00
      L1  C    15    38       P1 10952  0.91

> <Gold.PLP.Chemscore.Internal.Correction>
0.0699

> <Gold.Rescore>
     Score         DG    S(hbond)    S(metal)    S(lipo)     H(rot)  DE(clash)    DE(int)     intcor
     15.15     -16.68       1.92        0.00      81.78       1.87       0.03       1.50       ----

> <Gold.Chemscore.Fitness>
15.1457

> <Gold.Chemscore.DG>
-16.6822

> <Gold.Chemscore.ZeroCoef>
-5.4800

> <Gold.Chemscore.Hbond>
1.9192

> <Gold.Chemscore.Metal>
0.0000

> <Gold.Chemscore.Lipo>
81.7787

> <Gold.Chemscore.Internal_Hbond>
0.0000

> <Gold.Chemscore.DEClash>
0.0323

> <Gold.Chemscore.DEInternal>
1.5042

> <Gold.Chemscore.Rot>
1.8657

> <Gold.Chemscore.Internal.Correction>
   9.000000E+99

> <Gold.Chemscore.Hbonds>
donor molecule, donor type, donor heavy atom, donor atom, acceptor molecule, acceptor atom, score
      L1  H     4    45       P1  7948  1.00
      L1  H     8    33       P1  7948  0.89

> <Gold.Chemscore.Hbond.Weighted>
-6.4103

> <Gold.Chemscore.Metal.Weighted>
-0.0000

> <Gold.Chemscore.Lipo.Weighted>
-9.5681

> <Gold.Chemscore.Internal_Hbond.Weighted>
0.0000

> <Gold.Chemscore.DEClash.Weighted>
0.0323

> <Gold.Chemscore.DEInternal.Weighted>
1.5042

> <Gold.Chemscore.Rot.Weighted>
4.7761

> <Gold.Chemscore.Internal.Correction.Weighted>
   9.000000E+99

> <Gold.Protein.RotatedTorsions>
[ 6907 6896 6895 6894 ] final  -96.97 input  -60.11 | X-H torsion
[ 7974 7965 7964 7962 ] final   42.31 input  175.53 | X-H torsion
[ 8008 7997 7996 7995 ] final  139.89 input   59.86 | X-H torsion
[ 10167 10162 10161 10158 ] final   96.00 input  -65.29 | X-H torsion
[ 10718 10713 10712 10709 ] final  155.94 input   66.30 | X-H torsion
[ 10763 10752 10751 10750 ] final  157.84 input  -60.55 | X-H torsion
[ 11005 11000 10999 10996 ] final  -18.19 input  -57.11 | X-H torsion

> <Gold.Protein.ActiveResidues>
 VAL166  LYS551  ARG553  GLY616  TRP617  ASP618  TYR619  PRO620  LYS621  CYS622 
 ASP623  PHE694  ASN695  SER759  ASP760  ASP761  ALA762  ILE779  LEU786  VAL792 
 PHE793  MET794  SER795  GLU796  ALA797  LYS798  CYS799  TRP800  GLU811  SER814 

> <Gold.Protein.RotatedAtoms>
  150.7003  134.1420  159.4108 H   0  0  0  0  0  0  0  0  0  0  0  0  # atno 6907 bound_to 6896
  151.9405  135.0213  160.0545 H   0  0  0  0  0  0  0  0  0  0  0  0  # atno 6908 bound_to 6896
  152.2098  133.4867  159.5140 H   0  0  0  0  0  0  0  0  0  0  0  0  # atno 6909 bound_to 6896
  146.0751  139.5315  142.9573 H   0  0  0  0  0  0  0  0  0  0  0  0  # atno 7974 bound_to 7965
  156.2985  140.2356  156.4311 H   0  0  0  0  0  0  0  0  0  0  0  0  # atno 8008 bound_to 7997
  154.8269  140.0435  157.1470 H   0  0  0  0  0  0  0  0  0  0  0  0  # atno 8009 bound_to 7997
  154.9251  140.3009  155.5200 H   0  0  0  0  0  0  0  0  0  0  0  0  # atno 8010 bound_to 7997
  139.7936  144.6842  150.9859 H   0  0  0  0  0  0  0  0  0  0  0  0  # atno 10167 bound_to 10162
  157.2117  131.0699  151.1965 H   0  0  0  0  0  0  0  0  0  0  0  0  # atno 10718 bound_to 10713
  154.2066  135.2788  155.2972 H   0  0  0  0  0  0  0  0  0  0  0  0  # atno 10763 bound_to 10752
  154.5812  135.5589  153.7190 H   0  0  0  0  0  0  0  0  0  0  0  0  # atno 10764 bound_to 10752
  153.0074  135.6345  154.2205 H   0  0  0  0  0  0  0  0  0  0  0  0  # atno 10765 bound_to 10752
  140.8243  133.8044  155.9692 H   0  0  0  0  0  0  0  0  0  0  0  0  # atno 11005 bound_to 11000
  145.6321  141.0302  143.1857 LP  0  0  0  0  0  0  0  0  0  0  0  0  # atno 17320 bound_to 7965
  144.7256  139.7887  143.7366 LP  0  0  0  0  0  0  0  0  0  0  0  0  # atno 17321 bound_to 7965
  140.7820  143.4355  151.0630 LP  0  0  0  0  0  0  0  0  0  0  0  0  # atno 17342 bound_to 10162
  139.8030  143.8057  152.3165 LP  0  0  0  0  0  0  0  0  0  0  0  0  # atno 17343 bound_to 10162
  157.3666  130.7159  149.6536 LP  0  0  0  0  0  0  0  0  0  0  0  0  # atno 17370 bound_to 10713
  155.9690  130.4210  150.4452 LP  0  0  0  0  0  0  0  0  0  0  0  0  # atno 17371 bound_to 10713
  140.9065  134.2313  157.5011 LP  0  0  0  0  0  0  0  0  0  0  0  0  # atno 17394 bound_to 11000
  139.8707  134.9731  156.4796 LP  0  0  0  0  0  0  0  0  0  0  0  0  # atno 17395 bound_to 11000

$$$$
