AV-unprocessed.smi:1840|AV-procd|sdf|7493|dock8
  -GOLD-   22720 9193D 1   1.00000     0.00000
 Structure written by MMmdl.
 43 44  0  0  0  0  0  0  0  0  1 V2000
  145.1940  135.7250  150.8827 C   0  0  0  0  0  0  0  0  0  0  0  0
  145.4955  135.3213  152.3324 C   0  0  1  0  0  0  0  0  0  0  0  0
  145.8104  133.8148  152.4445 C   0  0  0  0  0  0  0  0  0  0  0  0
  145.1417  133.0253  151.4242 N   0  0  0  0  0  0  0  0  0  0  0  0
  145.6986  132.1445  150.5208 C   0  0  0  0  0  0  0  0  0  0  0  0
  144.6820  131.6516  149.7542 C   0  0  0  0  0  0  0  0  0  0  0  0
  143.5242  132.2934  150.2754 C   0  0  0  0  0  0  0  0  0  0  0  0
  143.8019  133.1131  151.2764 N   0  0  0  0  0  0  0  0  0  0  0  0
  146.6140  136.1230  152.8279 N   0  0  0  0  0  0  0  0  0  0  0  0
  146.6754  136.7178  154.0282 C   0  0  0  0  0  0  0  0  0  0  0  0
  145.7706  136.6858  154.8625 O   0  0  0  0  0  0  0  0  0  0  0  0
  147.8514  137.3341  154.2146 N   0  0  0  0  0  0  0  0  0  0  0  0
  148.2594  138.0607  155.4190 C   0  0  2  0  0  0  0  0  0  0  0  0
  147.4537  139.3706  155.5390 C   0  0  0  0  0  0  0  0  0  0  0  0
  147.8639  140.4083  154.4798 C   0  0  0  0  0  0  0  0  0  0  0  0
  149.3747  140.6806  154.5239 C   0  0  0  0  0  0  0  0  0  0  0  0
  150.1808  139.3810  154.3723 C   0  0  0  0  0  0  0  0  0  0  0  0
  149.7851  138.3401  155.4399 C   0  0  2  0  0  0  0  0  0  0  0  0
  150.6382  137.0654  155.3238 C   0  0  0  0  0  0  0  0  0  0  0  0
  144.3484  135.1622  150.4866 H   0  0  0  0  0  0  0  0  0  0  0  0
  146.0499  135.5409  150.2325 H   0  0  0  0  0  0  0  0  0  0  0  0
  144.9441  136.7844  150.8137 H   0  0  0  0  0  0  0  0  0  0  0  0
  144.5979  135.5320  152.9168 H   0  0  0  0  0  0  0  0  0  0  0  0
  146.8835  133.6496  152.3404 H   0  0  0  0  0  0  0  0  0  0  0  0
  145.5332  133.4380  153.4307 H   0  0  0  0  0  0  0  0  0  0  0  0
  146.7606  131.9507  150.4949 H   0  0  0  0  0  0  0  0  0  0  0  0
  144.7548  130.9425  148.9433 H   0  0  0  0  0  0  0  0  0  0  0  0
  142.4976  132.1914  149.9563 H   0  0  0  0  0  0  0  0  0  0  0  0
  147.4150  136.2053  152.2190 H   0  0  0  0  0  0  0  0  0  0  0  0
  148.5290  137.2889  153.4678 H   0  0  0  0  0  0  0  0  0  0  0  0
  148.0163  137.4576  156.2956 H   0  0  0  0  0  0  0  0  0  0  0  0
  146.3850  139.1656  155.4667 H   0  0  0  0  0  0  0  0  0  0  0  0
  147.6117  139.7964  156.5308 H   0  0  0  0  0  0  0  0  0  0  0  0
  147.5848  140.0539  153.4870 H   0  0  0  0  0  0  0  0  0  0  0  0
  147.3155  141.3369  154.6398 H   0  0  0  0  0  0  0  0  0  0  0  0
  149.6491  141.3818  153.7354 H   0  0  0  0  0  0  0  0  0  0  0  0
  149.6322  141.1617  155.4685 H   0  0  0  0  0  0  0  0  0  0  0  0
  150.0254  138.9693  153.3743 H   0  0  0  0  0  0  0  0  0  0  0  0
  151.2455  139.6041  154.4481 H   0  0  0  0  0  0  0  0  0  0  0  0
  150.0128  138.7771  156.4135 H   0  0  0  0  0  0  0  0  0  0  0  0
  150.5364  136.6045  154.3415 H   0  0  0  0  0  0  0  0  0  0  0  0
  150.3473  136.3273  156.0716 H   0  0  0  0  0  0  0  0  0  0  0  0
  151.6950  137.2873  155.4724 H   0  0  0  0  0  0  0  0  0  0  0  0
  1  2  1  0  0  0  0
  1 20  1  0  0  0  0
  1 21  1  0  0  0  0
  1 22  1  0  0  0  0
  2  3  1  0  0  0  0
  2  9  1  0  0  0  0
  2 23  1  0  0  0  0
  3  4  1  0  0  0  0
  3 24  1  0  0  0  0
  3 25  1  0  0  0  0
  4  8  1  0  0  0  0
  4  5  1  0  0  0  0
  5  6  2  0  0  0  0
  5 26  1  0  0  0  0
  6  7  1  0  0  0  0
  6 27  1  0  0  0  0
  7  8  2  0  0  0  0
  7 28  1  0  0  0  0
  9 10  1  0  0  0  0
  9 29  1  0  0  0  0
 10 11  2  0  0  0  0
 10 12  1  0  0  0  0
 12 13  1  0  0  0  0
 12 30  1  0  0  0  0
 13 18  1  0  0  0  0
 13 14  1  0  0  0  0
 13 31  1  0  0  0  0
 14 15  1  0  0  0  0
 14 32  1  0  0  0  0
 14 33  1  0  0  0  0
 15 16  1  0  0  0  0
 15 34  1  0  0  0  0
 15 35  1  0  0  0  0
 16 17  1  0  0  0  0
 16 36  1  0  0  0  0
 16 37  1  0  0  0  0
 17 18  1  0  0  0  0
 17 38  1  0  0  0  0
 17 39  1  0  0  0  0
 18 19  1  0  0  0  0
 18 40  1  0  0  0  0
 19 41  1  0  0  0  0
 19 42  1  0  0  0  0
 19 43  1  0  0  0  0
M  END
> <s_m_source_file>
AV-unprocessed.smi

> <i_m_source_file_index>
1840

> <i_lp_mmshare_version>
43012

> <i_f3d_flags>
0

> <s_epik_input>
bjFbY0hdW2NIXVtjSF1uMVtDSDJdW0NAQEhdKFtDSDNdKVtOSF1DKD1PKVtOSF1bQ0BASF0yW0NIMl1bQ0gyXVtDSDJdW0NIMl1bQ0BIXTJbQ0gzXQ==

> <s_epik_cmdline>
J2VwaWtfcHl0aG9uJywgJy1waCcsICc3LjAnLCAnLXRuJywgJzgnLCAnLW1hJywgJzIwMCcsICctbWV0YWxfYmluZGluZycsICctaW1hZScsICc8aW5maWxlLm1hZT4nLCAnLW9tYWUnLCAnPG91dGZpbGUubWFlPic=

> <r_lp_tautomer_probability>
1

> <r_epik_Ionization_Penalty>
7.38659e-05

> <r_epik_Ionization_Penalty_Charging>
0

> <r_epik_Ionization_Penalty_Neutral>
7.38659e-05

> <r_epik_State_Penalty>
-0

> <r_epik_Charging_Adjusted_Penalty>
0

> <i_epik_Tot_Q>
0

> <i_epik_Tot_abs_Q>
0

> <r_epik_Metal_State_Penalty>
-0

> <b_epik_Metal_Only>
0

> <s_lp_Force_Field>
OPLS_2005

> <r_lp_Energy>
6.71394

> <b_lp_Chiralities_Consistent>
1

> <s_lp_Variant>
AV-unprocessed.smi:1840-6

> <Gold.Version>
5.8.1

> <Gold.Id.Protein>
6NUR|6NUR_protein|mol2

> <Gold.PLP.Fitness>
39.0781

> <Gold.PLP.PLP>
-27.1290

> <Gold.PLP.part.hbond>
-1.8516

> <Gold.PLP.part.metal>
0.0000

> <Gold.PLP.part.buried>
-1.3192

> <Gold.PLP.part.nonpolar>
-24.6911

> <Gold.PLP.part.repulsive>
0.2351

> <Gold.PLP.ligand.clash>
0.0000

> <Gold.PLP.ligand.torsion>
0.7718

> <Gold.PLP.Chemscore.Hbond>
1.8233

> <Gold.PLP.Chemscore.CHOScore>
2.6648

> <Gold.PLP.Chemscore.Metal>
0.0000

> <Gold.Chemscore.Hbonds>
donor molecule, donor type, donor heavy atom, donor atom, acceptor molecule, acceptor atom, score
      L1  H     9    29       P1  7948  1.00
      L1  H    12    30       P1  7948  0.83
      L1  C     5    26       P1 10747  1.00
      L1  C     7    28       P1 10186  0.45
      L1  C     7    28       P1 10952  1.00

> <Gold.PLP.Chemscore.Internal.Correction>
0.0284

> <Gold.Rescore>
     Score         DG    S(hbond)    S(metal)    S(lipo)     H(rot)  DE(clash)    DE(int)     intcor
     14.51     -16.63       1.80        0.00      78.08       1.56       0.20       1.92       ----

> <Gold.Chemscore.Fitness>
14.5129

> <Gold.Chemscore.DG>
-16.6308

> <Gold.Chemscore.ZeroCoef>
-5.4800

> <Gold.Chemscore.Hbond>
1.7972

> <Gold.Chemscore.Metal>
0.0000

> <Gold.Chemscore.Lipo>
78.0834

> <Gold.Chemscore.Internal_Hbond>
0.0000

> <Gold.Chemscore.DEClash>
0.1978

> <Gold.Chemscore.DEInternal>
1.9201

> <Gold.Chemscore.Rot>
1.5576

> <Gold.Chemscore.Internal.Correction>
   9.000000E+99

> <Gold.Chemscore.Hbonds>
donor molecule, donor type, donor heavy atom, donor atom, acceptor molecule, acceptor atom, score
      L1  H     9    29       P1  7948  0.96
      L1  H    12    30       P1  7948  0.82

> <Gold.Chemscore.Hbond.Weighted>
-6.0025

> <Gold.Chemscore.Metal.Weighted>
-0.0000

> <Gold.Chemscore.Lipo.Weighted>
-9.1358

> <Gold.Chemscore.Internal_Hbond.Weighted>
0.0000

> <Gold.Chemscore.DEClash.Weighted>
0.1978

> <Gold.Chemscore.DEInternal.Weighted>
1.9201

> <Gold.Chemscore.Rot.Weighted>
3.9875

> <Gold.Chemscore.Internal.Correction.Weighted>
   9.000000E+99

> <Gold.Protein.RotatedTorsions>
[ 6907 6896 6895 6894 ] final   82.96 input  -60.11 | X-H torsion
[ 7974 7965 7964 7962 ] final -138.55 input  175.53 | X-H torsion
[ 8008 7997 7996 7995 ] final -118.56 input   59.86 | X-H torsion
[ 10167 10162 10161 10158 ] final  -96.90 input  -65.29 | X-H torsion
[ 10718 10713 10712 10709 ] final   78.17 input   66.30 | X-H torsion
[ 10763 10752 10751 10750 ] final  -31.52 input  -60.55 | X-H torsion
[ 11005 11000 10999 10996 ] final  -74.70 input  -57.11 | X-H torsion

> <Gold.Protein.ActiveResidues>
 VAL166  LYS551  ARG553  GLY616  TRP617  ASP618  TYR619  PRO620  LYS621  CYS622 
 ASP623  PHE694  ASN695  SER759  ASP760  ASP761  ALA762  ILE779  LEU786  VAL792 
 PHE793  MET794  SER795  GLU796  ALA797  LYS798  CYS799  TRP800  GLU811  SER814 

> <Gold.Protein.RotatedAtoms>
  152.5314  134.2968  159.9063 H   0  0  0  0  0  0  0  0  0  0  0  0  # atno 6907 bound_to 6896
  151.2920  133.4155  159.2641 H   0  0  0  0  0  0  0  0  0  0  0  0  # atno 6908 bound_to 6896
  151.0193  134.9472  159.8107 H   0  0  0  0  0  0  0  0  0  0  0  0  # atno 6909 bound_to 6896
  144.8749  140.6423  143.5243 H   0  0  0  0  0  0  0  0  0  0  0  0  # atno 7974 bound_to 7965
  155.1016  140.0396  157.2698 H   0  0  0  0  0  0  0  0  0  0  0  0  # atno 8008 bound_to 7997
  154.6753  140.2621  155.6939 H   0  0  0  0  0  0  0  0  0  0  0  0  # atno 8009 bound_to 7997
  156.2674  140.2789  156.1278 H   0  0  0  0  0  0  0  0  0  0  0  0  # atno 8010 bound_to 7997
  140.2890  143.3233  152.0365 H   0  0  0  0  0  0  0  0  0  0  0  0  # atno 10167 bound_to 10162
  157.6736  130.9856  150.1748 H   0  0  0  0  0  0  0  0  0  0  0  0  # atno 10718 bound_to 10713
  153.7986  135.6892  153.4859 H   0  0  0  0  0  0  0  0  0  0  0  0  # atno 10763 bound_to 10752
  153.1703  135.4545  154.9891 H   0  0  0  0  0  0  0  0  0  0  0  0  # atno 10764 bound_to 10752
  154.8015  135.3340  154.7477 H   0  0  0  0  0  0  0  0  0  0  0  0  # atno 10765 bound_to 10752
  141.1638  133.6920  156.7404 H   0  0  0  0  0  0  0  0  0  0  0  0  # atno 11005 bound_to 11000
  145.4061  139.1588  143.4151 LP  0  0  0  0  0  0  0  0  0  0  0  0  # atno 17320 bound_to 7965
  146.2956  140.4161  142.8723 LP  0  0  0  0  0  0  0  0  0  0  0  0  # atno 17321 bound_to 7965
  139.4943  144.6538  151.6617 LP  0  0  0  0  0  0  0  0  0  0  0  0  # atno 17342 bound_to 10162
  140.5748  144.0047  150.6236 LP  0  0  0  0  0  0  0  0  0  0  0  0  # atno 17343 bound_to 10162
  156.2494  130.3699  149.8249 LP  0  0  0  0  0  0  0  0  0  0  0  0  # atno 17370 bound_to 10713
  156.6026  130.8553  151.3435 LP  0  0  0  0  0  0  0  0  0  0  0  0  # atno 17371 bound_to 10713
  140.2679  134.8415  157.3819 LP  0  0  0  0  0  0  0  0  0  0  0  0  # atno 17394 bound_to 11000
  140.1549  134.4802  155.7935 LP  0  0  0  0  0  0  0  0  0  0  0  0  # atno 17395 bound_to 11000

$$$$
