AV-unprocessed.smi:101|AV-procd|sdf|921|dock1
  -GOLD-   2262017423D 1   1.00000     0.00000
 Structure written by MMmdl.
 44 46  0  0  0  0  0  0  0  0  1 V2000
  140.7958  137.6456  153.1731 C   0  0  0  0  0  0  0  0  0  0  0  0
  141.9684  136.6924  153.3369 C   0  0  0  0  0  0  0  0  0  0  0  0
  143.2588  137.1045  153.2442 C   0  0  0  0  0  0  0  0  0  0  0  0
  144.3516  136.2572  153.3897 N   0  0  0  0  0  0  0  0  0  0  0  0
  145.7869  136.7469  153.2965 C   0  0  2  0  0  0  0  0  0  0  0  0
  145.9403  137.9010  154.0685 O   0  0  0  0  0  0  0  0  0  0  0  0
  146.0432  139.0381  153.2193 C   0  0  1  0  0  0  0  0  0  0  0  0
  146.6778  140.2226  153.9584 C   0  0  0  0  0  0  0  0  0  0  0  0
  147.9271  139.7977  154.4766 O   0  0  0  0  0  0  0  0  0  0  0  0
  149.0079  140.5938  154.3878 C   0  0  0  0  0  0  0  0  0  0  0  0
  148.9739  141.7463  153.9522 O   0  0  0  0  0  0  0  0  0  0  0  0
  150.2531  139.9292  154.8703 C   0  0  0  0  0  0  0  0  0  0  0  0
  150.7117  138.7598  154.2200 C   0  0  0  0  0  0  0  0  0  0  0  0
  151.8821  138.1087  154.6562 C   0  0  0  0  0  0  0  0  0  0  0  0
  152.6089  138.6200  155.7472 C   0  0  0  0  0  0  0  0  0  0  0  0
  152.1643  139.7836  156.4015 C   0  0  0  0  0  0  0  0  0  0  0  0
  150.9936  140.4356  155.9676 C   0  0  0  0  0  0  0  0  0  0  0  0
  146.8152  138.4976  152.0139 C   0  0  1  0  0  0  0  0  0  0  0  0
  148.2025  138.4280  152.2894 O   0  0  0  0  0  0  0  0  0  0  0  0
  146.2265  137.1010  151.8512 C   0  0  2  0  0  0  0  0  0  0  0  0
  145.1578  137.1472  150.9206 O   0  0  0  0  0  0  0  0  0  0  0  0
  144.1312  134.8897  153.6531 C   0  0  0  0  0  0  0  0  0  0  0  0
  145.0505  134.0831  153.7889 O   0  0  0  0  0  0  0  0  0  0  0  0
  142.8072  134.4661  153.7474 N   0  0  0  0  0  0  0  0  0  0  0  0
  141.6815  135.2806  153.6055 C   0  0  0  0  0  0  0  0  0  0  0  0
  140.5590  134.7887  153.7097 O   0  0  0  0  0  0  0  0  0  0  0  0
  142.6472  133.4869  153.9338 H   0  0  0  0  0  0  0  0  0  0  0  0
  141.1268  138.6693  152.9942 H   0  0  0  0  0  0  0  0  0  0  0  0
  140.1770  137.6477  154.0711 H   0  0  0  0  0  0  0  0  0  0  0  0
  140.1745  137.3427  152.3296 H   0  0  0  0  0  0  0  0  0  0  0  0
  143.4255  138.1524  153.0484 H   0  0  0  0  0  0  0  0  0  0  0  0
  146.3956  135.9646  153.7541 H   0  0  0  0  0  0  0  0  0  0  0  0
  145.0449  139.3190  152.8795 H   0  0  0  0  0  0  0  0  0  0  0  0
  146.8028  141.0750  153.2889 H   0  0  0  0  0  0  0  0  0  0  0  0
  146.0393  140.5365  154.7851 H   0  0  0  0  0  0  0  0  0  0  0  0
  150.1697  138.3477  153.3808 H   0  0  0  0  0  0  0  0  0  0  0  0
  152.2215  137.2152  154.1530 H   0  0  0  0  0  0  0  0  0  0  0  0
  153.5057  138.1198  156.0821 H   0  0  0  0  0  0  0  0  0  0  0  0
  152.7215  140.1775  157.2386 H   0  0  0  0  0  0  0  0  0  0  0  0
  150.6805  141.3259  156.4936 H   0  0  0  0  0  0  0  0  0  0  0  0
  146.6775  139.1199  151.1283 H   0  0  0  0  0  0  0  0  0  0  0  0
  148.6011  139.2485  152.0426 H   0  0  0  0  0  0  0  0  0  0  0  0
  146.9610  136.3758  151.4983 H   0  0  0  0  0  0  0  0  0  0  0  0
  145.1378  138.0098  150.5346 H   0  0  0  0  0  0  0  0  0  0  0  0
  1  2  1  0  0  0  0
  1 28  1  0  0  0  0
  1 29  1  0  0  0  0
  1 30  1  0  0  0  0
  2 25  1  0  0  0  0
  2  3  2  0  0  0  0
  3  4  1  0  0  0  0
  3 31  1  0  0  0  0
  4  5  1  0  0  0  0
  4 22  1  0  0  0  0
  5 20  1  0  0  0  0
  5  6  1  0  0  0  0
  5 32  1  0  0  0  0
  6  7  1  0  0  0  0
  7  8  1  0  0  0  0
  7 18  1  0  0  0  0
  7 33  1  0  0  0  0
  8  9  1  0  0  0  0
  8 34  1  0  0  0  0
  8 35  1  0  0  0  0
  9 10  1  0  0  0  0
 10 11  2  0  0  0  0
 10 12  1  0  0  0  0
 12 17  1  0  0  0  0
 12 13  2  0  0  0  0
 13 14  1  0  0  0  0
 13 36  1  0  0  0  0
 14 15  2  0  0  0  0
 14 37  1  0  0  0  0
 15 16  1  0  0  0  0
 15 38  1  0  0  0  0
 16 17  2  0  0  0  0
 16 39  1  0  0  0  0
 17 40  1  0  0  0  0
 18 19  1  0  0  0  0
 18 20  1  0  0  0  0
 18 41  1  0  0  0  0
 19 42  1  0  0  0  0
 20 21  1  0  0  0  0
 20 43  1  0  0  0  0
 21 44  1  0  0  0  0
 22 23  2  0  0  0  0
 22 24  1  0  0  0  0
 24 27  1  0  0  0  0
 24 25  1  0  0  0  0
 25 26  2  0  0  0  0
M  END
> <s_m_source_file>
AV-unprocessed.smi

> <i_m_source_file_index>
101

> <i_lp_mmshare_version>
43012

> <i_f3d_flags>
0

> <s_epik_input>
Tz1jMVtuSF1jKD1PKW4oW2NIXWMxW0NIM10pW0NAQEhdMk9bQ0BIXShbQ0BASF0oW09IXSlbQ0BIXTJbT0hdKVtDSDJdT0MoPU8pYzNbY0hdW2NIXVtjSF1bY0hdW2NIXTM=

> <s_epik_cmdline>
J2VwaWtfcHl0aG9uJywgJy1waCcsICc3LjAnLCAnLXRuJywgJzgnLCAnLW1hJywgJzIwMCcsICctbWV0YWxfYmluZGluZycsICctaW1hZScsICc8aW5maWxlLm1hZT4nLCAnLW9tYWUnLCAnPG91dGZpbGUubWFlPic=

> <r_lp_tautomer_probability>
0.999537

> <r_epik_Ionization_Penalty>
0.00263537

> <r_epik_Ionization_Penalty_Charging>
0.00263428

> <r_epik_Ionization_Penalty_Neutral>
1.09111e-06

> <r_epik_State_Penalty>
0.00183335

> <r_epik_Charging_Adjusted_Penalty>
0.00446763

> <i_epik_Tot_Q>
0

> <i_epik_Tot_abs_Q>
0

> <r_epik_Metal_State_Penalty>
1.00528

> <b_epik_Metal_Only>
0

> <s_epik_Chemistry_Notes>
This compound has an ester and may undergo hydrolysis at high or low pH. This compound contains an acetal/aminal-like group ( X-CH(R)-Y where X, Y are N, S, or O) that may be acid/base labile, releasing an aldehyde.

> <s_lp_Force_Field>
OPLS_2005

> <r_lp_Energy>
37.3052

> <b_lp_Chiralities_Consistent>
1

> <s_lp_Variant>
AV-unprocessed.smi:101-9

> <Gold.Version>
5.8.1

> <Gold.Id.Protein>
6NUR|6NUR_protein|mol2

> <Gold.PLP.Fitness>
52.4660

> <Gold.PLP.PLP>
-40.4687

> <Gold.PLP.part.hbond>
-5.0178

> <Gold.PLP.part.metal>
0.0000

> <Gold.PLP.part.buried>
-0.1554

> <Gold.PLP.part.nonpolar>
-36.5639

> <Gold.PLP.part.repulsive>
0.7409

> <Gold.PLP.ligand.clash>
0.0000

> <Gold.PLP.ligand.torsion>
1.7649

> <Gold.PLP.Chemscore.Hbond>
4.0150

> <Gold.PLP.Chemscore.CHOScore>
1.0000

> <Gold.PLP.Chemscore.Metal>
0.0000

> <Gold.Chemscore.Hbonds>
donor molecule, donor type, donor heavy atom, donor atom, acceptor molecule, acceptor atom, score
      L1  H    19    42       P1  7957  0.98
      L1  H    21    44       P1 10171  0.46
      L1  H    24    27       P1 10957  1.00
      P1  H  8011  8017       L1    11  0.58
      P1  H 10995 11001       L1    26  0.01
      P1  H 11000 11005       L1    26  0.81
      L1  C     3    31       P1 10175  1.00

> <Gold.PLP.Chemscore.Internal.Correction>
0.4822

> <Gold.Rescore>
     Score         DG    S(hbond)    S(metal)    S(lipo)     H(rot)  DE(clash)    DE(int)     intcor
     14.19     -20.64       4.17        0.00      83.06       3.32       1.84       4.60       ----

> <Gold.Chemscore.Fitness>
14.1892

> <Gold.Chemscore.DG>
-20.6360

> <Gold.Chemscore.ZeroCoef>
-5.4800

> <Gold.Chemscore.Hbond>
4.1707

> <Gold.Chemscore.Metal>
0.0000

> <Gold.Chemscore.Lipo>
83.0585

> <Gold.Chemscore.Internal_Hbond>
0.0000

> <Gold.Chemscore.DEClash>
1.8435

> <Gold.Chemscore.DEInternal>
4.6033

> <Gold.Chemscore.Rot>
3.3172

> <Gold.Chemscore.Internal.Correction>
   9.000000E+99

> <Gold.Chemscore.Hbonds>
donor molecule, donor type, donor heavy atom, donor atom, acceptor molecule, acceptor atom, score
      L1  H    19    42       P1  7957  0.86
      L1  H    21    44       P1 10171  0.46
      L1  H    24    27       P1 10957  1.00
      P1  H  8011  8017       L1    11  0.56
      P1  H 10995 11001       L1    26  0.02
      P1  H 11000 11005       L1    26  0.52

> <Gold.Chemscore.Hbond.Weighted>
-13.9301

> <Gold.Chemscore.Metal.Weighted>
-0.0000

> <Gold.Chemscore.Lipo.Weighted>
-9.7178

> <Gold.Chemscore.Internal_Hbond.Weighted>
0.0000

> <Gold.Chemscore.DEClash.Weighted>
1.8435

> <Gold.Chemscore.DEInternal.Weighted>
4.6033

> <Gold.Chemscore.Rot.Weighted>
8.4920

> <Gold.Chemscore.Internal.Correction.Weighted>
   9.000000E+99

> <Gold.Protein.RotatedTorsions>
[ 6907 6896 6895 6894 ] final   48.94 input  -60.11 | X-H torsion
[ 7974 7965 7964 7962 ] final -173.21 input  175.53 | X-H torsion
[ 8008 7997 7996 7995 ] final  -90.45 input   59.86 | X-H torsion
[ 10167 10162 10161 10158 ] final  118.05 input  -65.29 | X-H torsion
[ 10718 10713 10712 10709 ] final   71.80 input   66.30 | X-H torsion
[ 10763 10752 10751 10750 ] final  -86.96 input  -60.55 | X-H torsion
[ 11005 11000 10999 10996 ] final   40.59 input  -57.11 | X-H torsion

> <Gold.Protein.ActiveResidues>
 VAL166  LYS551  ARG553  GLY616  TRP617  ASP618  TYR619  PRO620  LYS621  CYS622 
 ASP623  PHE694  ASN695  SER759  ASP760  ASP761  ALA762  ILE779  LEU786  VAL792 
 PHE793  MET794  SER795  GLU796  ALA797  LYS798  CYS799  TRP800  GLU811  SER814 

> <Gold.Protein.RotatedAtoms>
  152.2852  134.7784  160.0388 H   0  0  0  0  0  0  0  0  0  0  0  0  # atno 6907 bound_to 6896
  151.8350  133.3409  159.3633 H   0  0  0  0  0  0  0  0  0  0  0  0  # atno 6908 bound_to 6896
  150.7206  134.5375  159.5775 H   0  0  0  0  0  0  0  0  0  0  0  0  # atno 6909 bound_to 6896
  144.7140  140.1657  143.6372 H   0  0  0  0  0  0  0  0  0  0  0  0  # atno 7974 bound_to 7965
  154.6987  140.0530  157.0436 H   0  0  0  0  0  0  0  0  0  0  0  0  # atno 8008 bound_to 7997
  155.0715  140.3200  155.4610 H   0  0  0  0  0  0  0  0  0  0  0  0  # atno 8009 bound_to 7997
  156.2753  140.2081  156.5843 H   0  0  0  0  0  0  0  0  0  0  0  0  # atno 8010 bound_to 7997
  139.6137  144.7087  151.2786 H   0  0  0  0  0  0  0  0  0  0  0  0  # atno 10167 bound_to 10162
  157.6470  130.9546  150.0839 H   0  0  0  0  0  0  0  0  0  0  0  0  # atno 10718 bound_to 10713
  154.6283  135.5430  153.7652 H   0  0  0  0  0  0  0  0  0  0  0  0  # atno 10763 bound_to 10752
  153.0272  135.6429  154.1338 H   0  0  0  0  0  0  0  0  0  0  0  0  # atno 10764 bound_to 10752
  154.1270  135.2916  155.3174 H   0  0  0  0  0  0  0  0  0  0  0  0  # atno 10765 bound_to 10752
  140.1916  134.3979  155.8143 H   0  0  0  0  0  0  0  0  0  0  0  0  # atno 11005 bound_to 11000
  145.8990  139.2419  143.1505 LP  0  0  0  0  0  0  0  0  0  0  0  0  # atno 17320 bound_to 7965
  145.9829  140.8667  143.0105 LP  0  0  0  0  0  0  0  0  0  0  0  0  # atno 17321 bound_to 7965
  140.7337  143.6788  150.8019 LP  0  0  0  0  0  0  0  0  0  0  0  0  # atno 17342 bound_to 10162
  140.0387  143.5368  152.2727 LP  0  0  0  0  0  0  0  0  0  0  0  0  # atno 17343 bound_to 10162
  156.1808  130.3650  149.9038 LP  0  0  0  0  0  0  0  0  0  0  0  0  # atno 17370 bound_to 10713
  156.6991  130.8926  151.3597 LP  0  0  0  0  0  0  0  0  0  0  0  0  # atno 17371 bound_to 10713
  141.2226  133.7049  156.8105 LP  0  0  0  0  0  0  0  0  0  0  0  0  # atno 17394 bound_to 11000
  140.2153  134.8797  157.3319 LP  0  0  0  0  0  0  0  0  0  0  0  0  # atno 17395 bound_to 11000

$$$$
