AV-unprocessed.smi:1254|AV-procd|sdf|5280|dock2
  -GOLD-   22720 4403D 1   1.00000     0.00000
 Structure written by MMmdl.
 44 45  0  0  0  0  0  0  0  0  2 V2000
  146.0261  132.6676  161.9591 C   0  0  0  0  0  0  0  0  0  0  0  0
  146.5554  134.0582  161.8772 C   0  0  0  0  0  0  0  0  0  0  0  0
  146.9646  134.8375  160.8326 C   0  0  0  0  0  0  0  0  0  0  0  0
  147.3423  136.0543  161.4636 C   0  0  0  0  0  0  0  0  0  0  0  0
  147.8303  137.1422  160.8479 N   0  5  0  0  0  0  0  0  0  0  0  0
  148.5995  137.0116  159.7423 C   0  0  0  0  0  0  0  0  0  0  0  0
  149.1715  135.9856  159.3674 O   0  0  0  0  0  0  0  0  0  0  0  0
  148.7134  138.1416  159.0299 N   0  0  0  0  0  0  0  0  0  0  0  0
  149.4655  138.3054  157.7899 C   0  0  0  0  0  0  0  0  0  0  0  0
  149.6561  139.7895  157.4348 C   0  0  1  0  0  0  0  0  0  0  0  0
  150.6200  140.4916  158.4113 C   0  0  0  0  0  0  0  0  0  0  0  0
  150.8487  141.8884  158.0550 N   0  0  0  0  0  0  0  0  0  0  0  0
  151.7583  142.5259  159.0085 C   0  0  0  0  0  0  0  0  0  0  0  0
  151.6645  144.0639  159.1049 C   0  0  0  0  0  0  0  0  0  0  0  0
  152.5306  144.7217  158.0205 C   0  0  0  0  0  0  0  0  0  0  0  0
  152.0683  144.5731  160.4981 C   0  0  0  0  0  0  0  0  0  0  0  0
  151.3362  141.9517  156.6788 C   0  0  0  0  0  0  0  0  0  0  0  0
  150.3890  141.2370  155.7006 C   0  0  0  0  0  0  0  0  0  0  0  0
  150.2004  139.8911  156.1212 O   0  0  0  0  0  0  0  0  0  0  0  0
  147.1926  136.0103  162.7771 N   0  0  0  0  0  0  0  0  0  0  0  0
  146.6820  134.7355  163.0498 O   0  0  0  0  0  0  0  0  0  0  0  0
  146.7767  131.9936  162.3717 H   0  0  0  0  0  0  0  0  0  0  0  0
  145.7463  132.2996  160.9719 H   0  0  0  0  0  0  0  0  0  0  0  0
  145.1437  132.6256  162.5977 H   0  0  0  0  0  0  0  0  0  0  0  0
  146.9872  134.5817  159.7837 H   0  0  0  0  0  0  0  0  0  0  0  0
  148.2250  138.9544  159.3758 H   0  0  0  0  0  0  0  0  0  0  0  0
  150.4393  137.8390  157.9406 H   0  0  0  0  0  0  0  0  0  0  0  0
  148.9934  137.7675  156.9661 H   0  0  0  0  0  0  0  0  0  0  0  0
  148.6862  140.2901  157.4621 H   0  0  0  0  0  0  0  0  0  0  0  0
  150.2116  140.4334  159.4209 H   0  0  0  0  0  0  0  0  0  0  0  0
  151.5704  139.9555  158.4290 H   0  0  0  0  0  0  0  0  0  0  0  0
  151.5684  142.1205  160.0035 H   0  0  0  0  0  0  0  0  0  0  0  0
  152.7839  142.2426  158.7668 H   0  0  0  0  0  0  0  0  0  0  0  0
  150.6381  144.3758  158.9147 H   0  0  0  0  0  0  0  0  0  0  0  0
  153.5839  144.4685  158.1461 H   0  0  0  0  0  0  0  0  0  0  0  0
  152.4432  145.8080  158.0521 H   0  0  0  0  0  0  0  0  0  0  0  0
  152.2272  144.3974  157.0247 H   0  0  0  0  0  0  0  0  0  0  0  0
  153.0930  144.2908  160.7418 H   0  0  0  0  0  0  0  0  0  0  0  0
  151.4180  144.1666  161.2731 H   0  0  0  0  0  0  0  0  0  0  0  0
  152.0003  145.6599  160.5539 H   0  0  0  0  0  0  0  0  0  0  0  0
  151.4438  142.9875  156.3599 H   0  0  0  0  0  0  0  0  0  0  0  0
  152.3268  141.4986  156.6156 H   0  0  0  0  0  0  0  0  0  0  0  0
  149.4266  141.7484  155.6490 H   0  0  0  0  0  0  0  0  0  0  0  0
  150.8083  141.2400  154.6945 H   0  0  0  0  0  0  0  0  0  0  0  0
  1  2  1  0  0  0  0
  1 22  1  0  0  0  0
  1 23  1  0  0  0  0
  1 24  1  0  0  0  0
  2 21  1  0  0  0  0
  2  3  2  0  0  0  0
  3  4  1  0  0  0  0
  3 25  1  0  0  0  0
  4  5  1  0  0  0  0
  4 20  2  0  0  0  0
  5  6  1  0  0  0  0
  6  7  2  0  0  0  0
  6  8  1  0  0  0  0
  8  9  1  0  0  0  0
  8 26  1  0  0  0  0
  9 10  1  0  0  0  0
  9 27  1  0  0  0  0
  9 28  1  0  0  0  0
 10 19  1  0  0  0  0
 10 11  1  0  0  0  0
 10 29  1  0  0  0  0
 11 12  1  0  0  0  0
 11 30  1  0  0  0  0
 11 31  1  0  0  0  0
 12 13  1  0  0  0  0
 12 17  1  0  0  0  0
 13 14  1  0  0  0  0
 13 32  1  0  0  0  0
 13 33  1  0  0  0  0
 14 15  1  0  0  0  0
 14 16  1  0  0  0  0
 14 34  1  0  0  0  0
 15 35  1  0  0  0  0
 15 36  1  0  0  0  0
 15 37  1  0  0  0  0
 16 38  1  0  0  0  0
 16 39  1  0  0  0  0
 16 40  1  0  0  0  0
 17 18  1  0  0  0  0
 17 41  1  0  0  0  0
 17 42  1  0  0  0  0
 18 19  1  0  0  0  0
 18 43  1  0  0  0  0
 18 44  1  0  0  0  0
 20 21  1  0  0  0  0
M  CHG  1   5  -1
M  END
> <s_m_source_file>
AV-unprocessed.smi

> <i_m_source_file_index>
1254

> <i_lp_mmshare_version>
43012

> <i_f3d_flags>
0

> <s_epik_input>
W0NIM11jMVtjSF1jKG5vMSlbTkhdQyg9TylbTkhdW0NIMl1bQ0BASF0yW0NIMl1OKFtDSDJdW0NIMl1PMilbQ0gyXVtDSF0oW0NIM10pW0NIM10=

> <s_epik_cmdline>
J2VwaWtfcHl0aG9uJywgJy1waCcsICc3LjAnLCAnLXRuJywgJzgnLCAnLW1hJywgJzIwMCcsICctbWV0YWxfYmluZGluZycsICctaW1hZScsICc8aW5maWxlLm1hZT4nLCAnLW9tYWUnLCAnPG91dGZpbGUubWFlPic=

> <r_epik_Ionization_Penalty>
7.56718

> <r_epik_Ionization_Penalty_Charging>
6.43435

> <r_epik_Ionization_Penalty_Neutral>
1.13283

> <r_epik_State_Penalty>
7.60314

> <r_epik_Charging_Adjusted_Penalty>
14.0375

> <i_epik_Tot_Q>
-1

> <i_epik_Tot_abs_Q>
1

> <r_epik_Metal_State_Penalty>
3.53636

> <b_epik_Metal_Only>
1

> <s_lp_Force_Field>
OPLS_2005

> <r_lp_Energy>
16.636

> <b_lp_Chiralities_Consistent>
1

> <s_lp_Variant>
AV-unprocessed.smi:1254-12

> <Gold.Version>
5.8.1

> <Gold.Id.Protein>
6NUR|6NUR_protein|mol2

> <Gold.PLP.Fitness>
49.0928

> <Gold.PLP.PLP>
-37.5294

> <Gold.PLP.part.hbond>
-3.6630

> <Gold.PLP.part.metal>
0.0000

> <Gold.PLP.part.buried>
-7.1084

> <Gold.PLP.part.nonpolar>
-28.2288

> <Gold.PLP.part.repulsive>
1.0901

> <Gold.PLP.ligand.clash>
0.0000

> <Gold.PLP.ligand.torsion>
0.9480

> <Gold.PLP.Chemscore.Hbond>
4.3676

> <Gold.PLP.Chemscore.CHOScore>
0.0000

> <Gold.PLP.Chemscore.Metal>
0.0000

> <Gold.Chemscore.Hbonds>
donor molecule, donor type, donor heavy atom, donor atom, acceptor molecule, acceptor atom, score
      P1  H  6896  6907       L1     7  0.86
      P1  H  6931  6943       L1     5  1.61
      P1  H  6934  6947       L1     5  1.70

> <Gold.PLP.Chemscore.Internal.Correction>
0.3565

> <Gold.Rescore>
     Score         DG    S(hbond)    S(metal)    S(lipo)     H(rot)  DE(clash)    DE(int)     intcor
     16.01     -18.54       1.92        0.00      92.97       1.65       0.33       2.20       ----

> <Gold.Chemscore.Fitness>
16.0126

> <Gold.Chemscore.DG>
-18.5429

> <Gold.Chemscore.ZeroCoef>
-5.4800

> <Gold.Chemscore.Hbond>
1.9208

> <Gold.Chemscore.Metal>
0.0000

> <Gold.Chemscore.Lipo>
92.9750

> <Gold.Chemscore.Internal_Hbond>
0.0000

> <Gold.Chemscore.DEClash>
0.3260

> <Gold.Chemscore.DEInternal>
2.2044

> <Gold.Chemscore.Rot>
1.6526

> <Gold.Chemscore.Internal.Correction>
   9.000000E+99

> <Gold.Chemscore.Hbonds>
donor molecule, donor type, donor heavy atom, donor atom, acceptor molecule, acceptor atom, score
      P1  H  6896  6907       L1     7  0.82
      P1  H  6931  6943       L1     5  0.14
      P1  H  6934  6947       L1     5  0.53

> <Gold.Chemscore.Hbond.Weighted>
-6.4156

> <Gold.Chemscore.Metal.Weighted>
-0.0000

> <Gold.Chemscore.Lipo.Weighted>
-10.8781

> <Gold.Chemscore.Internal_Hbond.Weighted>
0.0000

> <Gold.Chemscore.DEClash.Weighted>
0.3260

> <Gold.Chemscore.DEInternal.Weighted>
2.2044

> <Gold.Chemscore.Rot.Weighted>
4.2308

> <Gold.Chemscore.Internal.Correction.Weighted>
   9.000000E+99

> <Gold.Protein.RotatedTorsions>
[ 6907 6896 6895 6894 ] final  -74.13 input  -60.11 | X-H torsion
[ 7974 7965 7964 7962 ] final -154.27 input  175.53 | X-H torsion
[ 8008 7997 7996 7995 ] final  -10.09 input   59.86 | X-H torsion
[ 10167 10162 10161 10158 ] final   22.04 input  -65.29 | X-H torsion
[ 10718 10713 10712 10709 ] final  155.53 input   66.30 | X-H torsion
[ 10763 10752 10751 10750 ] final  157.28 input  -60.55 | X-H torsion
[ 11005 11000 10999 10996 ] final   87.08 input  -57.11 | X-H torsion

> <Gold.Protein.ActiveResidues>
 VAL166  LYS551  ARG553  GLY616  TRP617  ASP618  TYR619  PRO620  LYS621  CYS622 
 ASP623  PHE694  ASN695  SER759  ASP760  ASP761  ALA762  ILE779  LEU786  VAL792 
 PHE793  MET794  SER795  GLU796  ALA797  LYS798  CYS799  TRP800  GLU811  SER814 

> <Gold.Protein.RotatedAtoms>
  150.7104  134.4915  159.5517 H   0  0  0  0  0  0  0  0  0  0  0  0  # atno 6907 bound_to 6896
  152.2531  134.8109  160.0452 H   0  0  0  0  0  0  0  0  0  0  0  0  # atno 6908 bound_to 6896
  151.8849  133.3468  159.3815 H   0  0  0  0  0  0  0  0  0  0  0  0  # atno 6909 bound_to 6896
  144.7698  140.4412  143.5915 H   0  0  0  0  0  0  0  0  0  0  0  0  # atno 7974 bound_to 7965
  154.5586  140.2338  155.8371 H   0  0  0  0  0  0  0  0  0  0  0  0  # atno 8008 bound_to 7997
  156.2010  140.3052  155.9486 H   0  0  0  0  0  0  0  0  0  0  0  0  # atno 8009 bound_to 7997
  155.2932  140.0427  157.3015 H   0  0  0  0  0  0  0  0  0  0  0  0  # atno 8010 bound_to 7997
  140.5380  143.9727  150.6502 H   0  0  0  0  0  0  0  0  0  0  0  0  # atno 10167 bound_to 10162
  157.2171  131.0710  151.1935 H   0  0  0  0  0  0  0  0  0  0  0  0  # atno 10718 bound_to 10713
  154.1978  135.2792  155.3001 H   0  0  0  0  0  0  0  0  0  0  0  0  # atno 10763 bound_to 10752
  154.5878  135.5569  153.7252 H   0  0  0  0  0  0  0  0  0  0  0  0  # atno 10764 bound_to 10752
  153.0095  135.6361  154.2116 H   0  0  0  0  0  0  0  0  0  0  0  0  # atno 10765 bound_to 10752
  139.8928  134.8398  156.2810 H   0  0  0  0  0  0  0  0  0  0  0  0  # atno 11005 bound_to 11000
  145.6359  139.1543  143.2943 LP  0  0  0  0  0  0  0  0  0  0  0  0  # atno 17320 bound_to 7965
  146.1835  140.6459  142.9178 LP  0  0  0  0  0  0  0  0  0  0  0  0  # atno 17321 bound_to 7965
  140.3120  143.3192  152.0870 LP  0  0  0  0  0  0  0  0  0  0  0  0  # atno 17342 bound_to 10162
  139.4978  144.6630  151.6421 LP  0  0  0  0  0  0  0  0  0  0  0  0  # atno 17343 bound_to 10162
  157.3614  130.7133  149.6504 LP  0  0  0  0  0  0  0  0  0  0  0  0  # atno 17370 bound_to 10713
  155.9685  130.4224  150.4517 LP  0  0  0  0  0  0  0  0  0  0  0  0  # atno 17371 bound_to 10713
  141.0038  133.7135  156.1003 LP  0  0  0  0  0  0  0  0  0  0  0  0  # atno 17394 bound_to 11000
  140.7461  134.4096  157.5548 LP  0  0  0  0  0  0  0  0  0  0  0  0  # atno 17395 bound_to 11000

$$$$
