AV-unprocessed.smi:573|AV-procd|sdf|2968|dock2
  -GOLD-   2262023473D 1   1.00000     0.00000
 Structure written by MMmdl.
 45 47  0  0  0  0  0  0  0  0  2 V2000
  146.6002  142.5118  154.1717 C   0  0  0  0  0  0  0  0  0  0  0  0
  147.4324  141.2232  154.1621 C   0  0  1  0  0  0  0  0  0  0  0  0
  147.3374  140.6743  152.8635 O   0  0  0  0  0  0  0  0  0  0  0  0
  148.9099  141.4995  154.4999 C   0  0  0  0  0  0  0  0  0  0  0  0
  149.3207  140.8814  155.7530 N   0  0  0  0  0  0  0  0  0  0  0  0
  150.1594  141.5903  156.6213 C   0  0  0  0  0  0  0  0  0  0  0  0
  150.3626  142.9349  156.6209 N   0  3  0  0  0  0  0  0  0  0  0  0
  151.2836  143.2412  157.6259 C   0  0  0  0  0  0  0  0  0  0  0  0
  151.8216  144.4621  158.0206 C   0  0  0  0  0  0  0  0  0  0  0  0
  152.7499  144.4322  159.0817 C   0  0  0  0  0  0  0  0  0  0  0  0
  153.1134  143.2216  159.7064 C   0  0  0  0  0  0  0  0  0  0  0  0
  152.5631  141.9882  159.3001 C   0  0  0  0  0  0  0  0  0  0  0  0
  151.6411  142.0234  158.2539 C   0  0  0  0  0  0  0  0  0  0  0  0
  150.9078  141.0228  157.6012 N   0  0  0  0  0  0  0  0  0  0  0  0
  151.0491  139.6168  158.0056 C   0  0  0  0  0  0  0  0  0  0  0  0
  151.5230  138.7282  156.8441 C   0  0  2  0  0  0  0  0  0  0  0  0
  152.3051  139.5291  155.7861 C   0  0  0  0  0  0  0  0  0  0  0  0
  152.7126  138.6223  154.6194 C   0  0  0  0  0  0  0  0  0  0  0  0
  151.4787  137.8946  154.0746 C   0  0  0  0  0  0  0  0  0  0  0  0
  150.7309  137.1820  155.2130 C   0  0  0  0  0  0  0  0  0  0  0  0
  150.3887  138.1181  156.2304 O   0  0  0  0  0  0  0  0  0  0  0  0
  146.6097  142.9758  155.1582 H   0  0  0  0  0  0  0  0  0  0  0  0
  145.5596  142.3110  153.9140 H   0  0  0  0  0  0  0  0  0  0  0  0
  146.9863  143.2408  153.4581 H   0  0  0  0  0  0  0  0  0  0  0  0
  147.0028  140.5212  154.8783 H   0  0  0  0  0  0  0  0  0  0  0  0
  148.2056  140.4395  152.5734 H   0  0  0  0  0  0  0  0  0  0  0  0
  149.5662  141.2135  153.6769 H   0  0  0  0  0  0  0  0  0  0  0  0
  149.0475  142.5729  154.6325 H   0  0  0  0  0  0  0  0  0  0  0  0
  149.2941  139.8737  155.8185 H   0  0  0  0  0  0  0  0  0  0  0  0
  151.5482  145.3910  157.5413 H   0  0  0  0  0  0  0  0  0  0  0  0
  153.1945  145.3565  159.4213 H   0  0  0  0  0  0  0  0  0  0  0  0
  153.8309  143.2386  160.5141 H   0  0  0  0  0  0  0  0  0  0  0  0
  152.8559  141.0676  159.7826 H   0  0  0  0  0  0  0  0  0  0  0  0
  151.7284  139.5528  158.8554 H   0  0  0  0  0  0  0  0  0  0  0  0
  150.0765  139.2791  158.3651 H   0  0  0  0  0  0  0  0  0  0  0  0
  152.1650  137.9443  157.2505 H   0  0  0  0  0  0  0  0  0  0  0  0
  151.6872  140.3471  155.4130 H   0  0  0  0  0  0  0  0  0  0  0  0
  153.1906  139.9834  156.2315 H   0  0  0  0  0  0  0  0  0  0  0  0
  153.1894  139.2061  153.8316 H   0  0  0  0  0  0  0  0  0  0  0  0
  153.4489  137.8932  154.9603 H   0  0  0  0  0  0  0  0  0  0  0  0
  150.8121  138.6123  153.5946 H   0  0  0  0  0  0  0  0  0  0  0  0
  151.7720  137.1775  153.3073 H   0  0  0  0  0  0  0  0  0  0  0  0
  149.8167  136.7259  154.8330 H   0  0  0  0  0  0  0  0  0  0  0  0
  151.3359  136.3770  155.6336 H   0  0  0  0  0  0  0  0  0  0  0  0
  149.9162  143.5829  155.9848 H   0  0  0  0  0  0  0  0  0  0  0  0
  1  2  1  0  0  0  0
  1 22  1  0  0  0  0
  1 23  1  0  0  0  0
  1 24  1  0  0  0  0
  2  3  1  0  0  0  0
  2  4  1  0  0  0  0
  2 25  1  0  0  0  0
  3 26  1  0  0  0  0
  4  5  1  0  0  0  0
  4 27  1  0  0  0  0
  4 28  1  0  0  0  0
  5  6  1  0  0  0  0
  5 29  1  0  0  0  0
  6 14  1  0  0  0  0
  6  7  2  0  0  0  0
  7  8  1  0  0  0  0
  7 45  1  0  0  0  0
  8 13  2  0  0  0  0
  8  9  1  0  0  0  0
  9 10  2  0  0  0  0
  9 30  1  0  0  0  0
 10 11  1  0  0  0  0
 10 31  1  0  0  0  0
 11 12  2  0  0  0  0
 11 32  1  0  0  0  0
 12 13  1  0  0  0  0
 12 33  1  0  0  0  0
 13 14  1  0  0  0  0
 14 15  1  0  0  0  0
 15 16  1  0  0  0  0
 15 34  1  0  0  0  0
 15 35  1  0  0  0  0
 16 21  1  0  0  0  0
 16 17  1  0  0  0  0
 16 36  1  0  0  0  0
 17 18  1  0  0  0  0
 17 37  1  0  0  0  0
 17 38  1  0  0  0  0
 18 19  1  0  0  0  0
 18 39  1  0  0  0  0
 18 40  1  0  0  0  0
 19 20  1  0  0  0  0
 19 41  1  0  0  0  0
 19 42  1  0  0  0  0
 20 21  1  0  0  0  0
 20 43  1  0  0  0  0
 20 44  1  0  0  0  0
M  CHG  1   7   1
M  END
> <s_m_source_file>
AV-unprocessed.smi

> <i_m_source_file_index>
573

> <i_lp_mmshare_version>
43012

> <i_f3d_flags>
0

> <s_epik_input>
W0NIM11bQ0BIXShbT0hdKVtDSDJdW05IXWMobjEpbihjKGMxMilbY0hdW2NIXVtjSF1bY0hdMilbQ0gyXVtDQEBIXTNbQ0gyXVtDSDJdW0NIMl1bQ0gyXU8z

> <s_epik_cmdline>
J2VwaWtfcHl0aG9uJywgJy1waCcsICc3LjAnLCAnLXRuJywgJzgnLCAnLW1hJywgJzIwMCcsICctbWV0YWxfYmluZGluZycsICctaW1hZScsICc8aW5maWxlLm1hZT4nLCAnLW9tYWUnLCAnPG91dGZpbGUubWFlPic=

> <r_epik_Ionization_Penalty>
0.0692245

> <r_epik_Ionization_Penalty_Charging>
0.0692223

> <r_epik_Ionization_Penalty_Neutral>
2.1869e-06

> <r_epik_State_Penalty>
0.0606215

> <r_epik_Charging_Adjusted_Penalty>
0.129844

> <i_epik_Tot_Q>
1

> <i_epik_Tot_abs_Q>
1

> <r_epik_Metal_State_Penalty>
2.77811

> <b_epik_Metal_Only>
0

> <s_lp_Force_Field>
OPLS_2005

> <r_lp_Energy>
22.2685

> <b_lp_Chiralities_Consistent>
1

> <s_lp_Variant>
AV-unprocessed.smi:573-2

> <Gold.Version>
5.8.1

> <Gold.Id.Protein>
6NUR|6NUR_protein|mol2

> <Gold.PLP.Fitness>
55.2184

> <Gold.PLP.PLP>
-49.5235

> <Gold.PLP.part.hbond>
-2.0000

> <Gold.PLP.part.metal>
0.0000

> <Gold.PLP.part.buried>
-4.9985

> <Gold.PLP.part.nonpolar>
-42.8431

> <Gold.PLP.part.repulsive>
0.1416

> <Gold.PLP.ligand.clash>
0.5575

> <Gold.PLP.ligand.torsion>
1.3561

> <Gold.PLP.Chemscore.Hbond>
2.9760

> <Gold.PLP.Chemscore.CHOScore>
0.0000

> <Gold.PLP.Chemscore.Metal>
0.0000

> <Gold.Chemscore.Hbonds>
donor molecule, donor type, donor heavy atom, donor atom, acceptor molecule, acceptor atom, score
      L1  H     3    26       P1  7957  1.00
      L1  H     7    45       P1  8028  2.00

> <Gold.PLP.Chemscore.Internal.Correction>
0.0365

> <Gold.Rescore>
     Score         DG    S(hbond)    S(metal)    S(lipo)     H(rot)  DE(clash)    DE(int)     intcor
     19.70     -21.53       1.94        0.00     127.19       2.07       0.52       1.30       ----

> <Gold.Chemscore.Fitness>
19.7037

> <Gold.Chemscore.DG>
-21.5267

> <Gold.Chemscore.ZeroCoef>
-5.4800

> <Gold.Chemscore.Hbond>
1.9356

> <Gold.Chemscore.Metal>
0.0000

> <Gold.Chemscore.Lipo>
127.1881

> <Gold.Chemscore.Internal_Hbond>
0.0000

> <Gold.Chemscore.DEClash>
0.5236

> <Gold.Chemscore.DEInternal>
1.2994

> <Gold.Chemscore.Rot>
2.0699

> <Gold.Chemscore.Internal.Correction>
   9.000000E+99

> <Gold.Chemscore.Hbonds>
donor molecule, donor type, donor heavy atom, donor atom, acceptor molecule, acceptor atom, score
      L1  H     3    26       P1  7957  0.92
      L1  H     7    45       P1  8028  0.93

> <Gold.Chemscore.Hbond.Weighted>
-6.4648

> <Gold.Chemscore.Metal.Weighted>
-0.0000

> <Gold.Chemscore.Lipo.Weighted>
-14.8810

> <Gold.Chemscore.Internal_Hbond.Weighted>
0.0000

> <Gold.Chemscore.DEClash.Weighted>
0.5236

> <Gold.Chemscore.DEInternal.Weighted>
1.2994

> <Gold.Chemscore.Rot.Weighted>
5.2991

> <Gold.Chemscore.Internal.Correction.Weighted>
   9.000000E+99

> <Gold.Protein.RotatedTorsions>
[ 6907 6896 6895 6894 ] final  154.85 input  -60.11 | X-H torsion
[ 7974 7965 7964 7962 ] final   21.91 input  175.53 | X-H torsion
[ 8008 7997 7996 7995 ] final   32.97 input   59.86 | X-H torsion
[ 10167 10162 10161 10158 ] final   94.46 input  -65.29 | X-H torsion
[ 10718 10713 10712 10709 ] final   30.18 input   66.30 | X-H torsion
[ 10763 10752 10751 10750 ] final    4.23 input  -60.55 | X-H torsion
[ 11005 11000 10999 10996 ] final  -11.68 input  -57.11 | X-H torsion

> <Gold.Protein.ActiveResidues>
 VAL166  LYS551  ARG553  GLY616  TRP617  ASP618  TYR619  PRO620  LYS621  CYS622 
 ASP623  PHE694  ASN695  SER759  ASP760  ASP761  ALA762  ILE779  LEU786  VAL792 
 PHE793  MET794  SER795  GLU796  ALA797  LYS798  CYS799  TRP800  GLU811  SER814 

> <Gold.Protein.RotatedAtoms>
  152.0526  133.4026  159.4383 H   0  0  0  0  0  0  0  0  0  0  0  0  # atno 6907 bound_to 6896
  150.6869  134.3291  159.4828 H   0  0  0  0  0  0  0  0  0  0  0  0  # atno 6908 bound_to 6896
  152.1102  134.9279  160.0617 H   0  0  0  0  0  0  0  0  0  0  0  0  # atno 6909 bound_to 6896
  146.2051  139.7960  142.8732 H   0  0  0  0  0  0  0  0  0  0  0  0  # atno 7974 bound_to 7965
  155.1310  140.3257  155.4474 H   0  0  0  0  0  0  0  0  0  0  0  0  # atno 8008 bound_to 7997
  156.2634  140.2010  156.6378 H   0  0  0  0  0  0  0  0  0  0  0  0  # atno 8009 bound_to 7997
  154.6612  140.0547  157.0051 H   0  0  0  0  0  0  0  0  0  0  0  0  # atno 8010 bound_to 7997
  139.8082  144.6785  150.9676 H   0  0  0  0  0  0  0  0  0  0  0  0  # atno 10167 bound_to 10162
  157.2563  130.7139  149.6431 H   0  0  0  0  0  0  0  0  0  0  0  0  # atno 10718 bound_to 10713
  153.2737  135.6934  153.7454 H   0  0  0  0  0  0  0  0  0  0  0  0  # atno 10763 bound_to 10752
  153.6468  135.3384  155.3089 H   0  0  0  0  0  0  0  0  0  0  0  0  # atno 10764 bound_to 10752
  154.8472  135.4445  154.1768 H   0  0  0  0  0  0  0  0  0  0  0  0  # atno 10765 bound_to 10752
  140.7578  133.8540  155.9099 H   0  0  0  0  0  0  0  0  0  0  0  0  # atno 11005 bound_to 11000
  145.3347  141.0274  143.3426 LP  0  0  0  0  0  0  0  0  0  0  0  0  # atno 17320 bound_to 7965
  144.8774  139.4952  143.6739 LP  0  0  0  0  0  0  0  0  0  0  0  0  # atno 17321 bound_to 7965
  140.7818  143.4212  151.0838 LP  0  0  0  0  0  0  0  0  0  0  0  0  # atno 17342 bound_to 10162
  139.7880  143.8259  152.3148 LP  0  0  0  0  0  0  0  0  0  0  0  0  # atno 17343 bound_to 10162
  155.9665  130.4411  150.5329 LP  0  0  0  0  0  0  0  0  0  0  0  0  # atno 17370 bound_to 10713
  157.3224  131.0684  151.1922 LP  0  0  0  0  0  0  0  0  0  0  0  0  # atno 17371 bound_to 10713
  140.9691  134.1554  157.4591 LP  0  0  0  0  0  0  0  0  0  0  0  0  # atno 17394 bound_to 11000
  139.8776  134.9972  156.5835 LP  0  0  0  0  0  0  0  0  0  0  0  0  # atno 17395 bound_to 11000

$$$$
