AV-unprocessed.smi:1047|AV-procd|sdf|4591|dock10
  -GOLD-   22720 3 73D 1   1.00000     0.00000
 Structure written by MMmdl.
 57 59  0  0  0  0  0  0  0  0  3 V2000
  146.8315  129.2844  152.9071 C   0  0  0  0  0  0  0  0  0  0  0  0
  148.1163  130.0844  153.1669 C   0  0  0  0  0  0  0  0  0  0  0  0
  147.9142  131.3891  153.7949 N   0  0  0  0  0  0  0  0  0  0  0  0
  146.8745  132.1453  153.1057 C   0  0  0  0  0  0  0  0  0  0  0  0
  146.6477  133.5250  153.7462 C   0  0  0  0  0  0  0  0  0  0  0  0
  147.8759  134.2452  153.7699 O   0  0  0  0  0  0  0  0  0  0  0  0
  148.9057  133.5669  154.4854 C   0  0  2  0  0  0  0  0  0  0  0  0
  150.1688  134.4376  154.4487 C   0  0  0  0  0  0  0  0  0  0  0  0
  149.8344  135.8672  154.6022 N   0  3  0  0  0  0  0  0  0  0  0  0
  150.9422  136.6922  155.1250 C   0  0  0  0  0  0  0  0  0  0  0  0
  150.5552  138.1796  155.1815 C   0  0  1  0  0  0  0  0  0  0  0  0
  149.1446  138.2846  155.2095 O   0  0  0  0  0  0  0  0  0  0  0  0
  151.1527  138.8852  156.4152 C   0  0  0  0  0  0  0  0  0  0  0  0
  150.8735  140.3288  156.4368 N   0  0  0  0  0  0  0  0  0  0  0  0
  150.1686  141.0875  155.5538 C   0  0  0  0  0  0  0  0  0  0  0  0
  150.1890  142.3715  156.0057 N   0  3  0  0  0  0  0  0  0  0  0  0
  150.9180  142.4357  157.1945 C   0  0  0  0  0  0  0  0  0  0  0  0
  151.2133  143.5126  158.0217 C   0  0  0  0  0  0  0  0  0  0  0  0
  151.9862  143.2475  159.1745 C   0  0  0  0  0  0  0  0  0  0  0  0
  152.3264  144.4026  160.1010 C   0  0  0  0  0  0  0  0  0  0  0  0
  152.4367  141.9338  159.4645 C   0  0  0  0  0  0  0  0  0  0  0  0
  153.2675  141.6607  160.7070 C   0  0  0  0  0  0  0  0  0  0  0  0
  152.1252  140.8513  158.6105 C   0  0  0  0  0  0  0  0  0  0  0  0
  151.3625  141.1290  157.4779 C   0  0  0  0  0  0  0  0  0  0  0  0
  149.1361  132.1887  153.8325 C   0  0  0  0  0  0  0  0  0  0  0  0
  147.0529  128.3790  152.3419 H   0  0  0  0  0  0  0  0  0  0  0  0
  146.1152  129.8679  152.3279 H   0  0  0  0  0  0  0  0  0  0  0  0
  146.3474  128.9758  153.8333 H   0  0  0  0  0  0  0  0  0  0  0  0
  148.8034  129.4857  153.7664 H   0  0  0  0  0  0  0  0  0  0  0  0
  148.6088  130.2308  152.2046 H   0  0  0  0  0  0  0  0  0  0  0  0
  147.1453  132.2762  152.0568 H   0  0  0  0  0  0  0  0  0  0  0  0
  145.9389  131.5849  153.1182 H   0  0  0  0  0  0  0  0  0  0  0  0
  145.9120  134.0924  153.1760 H   0  0  0  0  0  0  0  0  0  0  0  0
  146.2575  133.4221  154.7600 H   0  0  0  0  0  0  0  0  0  0  0  0
  148.5939  133.4260  155.5221 H   0  0  0  0  0  0  0  0  0  0  0  0
  150.8393  134.1488  155.2592 H   0  0  0  0  0  0  0  0  0  0  0  0
  150.7079  134.2821  153.5131 H   0  0  0  0  0  0  0  0  0  0  0  0
  149.5609  136.2287  153.6994 H   0  0  0  0  0  0  0  0  0  0  0  0
  151.2385  136.3354  156.1126 H   0  0  0  0  0  0  0  0  0  0  0  0
  151.8031  136.5621  154.4679 H   0  0  0  0  0  0  0  0  0  0  0  0
  150.9157  138.6804  154.2816 H   0  0  0  0  0  0  0  0  0  0  0  0
  148.8521  138.2156  156.1055 H   0  0  0  0  0  0  0  0  0  0  0  0
  150.8014  138.4324  157.3427 H   0  0  0  0  0  0  0  0  0  0  0  0
  152.2376  138.7729  156.4155 H   0  0  0  0  0  0  0  0  0  0  0  0
  149.6801  140.7356  154.6564 H   0  0  0  0  0  0  0  0  0  0  0  0
  150.8668  144.5103  157.7947 H   0  0  0  0  0  0  0  0  0  0  0  0
  153.4060  144.5451  160.1538 H   0  0  0  0  0  0  0  0  0  0  0  0
  151.9517  144.2112  161.1068 H   0  0  0  0  0  0  0  0  0  0  0  0
  151.8834  145.3365  159.7538 H   0  0  0  0  0  0  0  0  0  0  0  0
  153.5549  140.6111  160.7736 H   0  0  0  0  0  0  0  0  0  0  0  0
  152.7035  141.9092  161.6064 H   0  0  0  0  0  0  0  0  0  0  0  0
  154.1813  142.2552  160.6953 H   0  0  0  0  0  0  0  0  0  0  0  0
  152.4679  139.8531  158.8371 H   0  0  0  0  0  0  0  0  0  0  0  0
  149.9101  131.6638  154.3919 H   0  0  0  0  0  0  0  0  0  0  0  0
  149.5196  132.3237  152.8196 H   0  0  0  0  0  0  0  0  0  0  0  0
  149.0486  135.9504  155.2317 H   0  0  0  0  0  0  0  0  0  0  0  0
  149.7376  143.1458  155.5356 H   0  0  0  0  0  0  0  0  0  0  0  0
  1  2  1  0  0  0  0
  1 26  1  0  0  0  0
  1 27  1  0  0  0  0
  1 28  1  0  0  0  0
  2  3  1  0  0  0  0
  2 29  1  0  0  0  0
  2 30  1  0  0  0  0
  3 25  1  0  0  0  0
  3  4  1  0  0  0  0
  4  5  1  0  0  0  0
  4 31  1  0  0  0  0
  4 32  1  0  0  0  0
  5  6  1  0  0  0  0
  5 33  1  0  0  0  0
  5 34  1  0  0  0  0
  6  7  1  0  0  0  0
  7  8  1  0  0  0  0
  7 25  1  0  0  0  0
  7 35  1  0  0  0  0
  8  9  1  0  0  0  0
  8 36  1  0  0  0  0
  8 37  1  0  0  0  0
  9 10  1  0  0  0  0
  9 38  1  0  0  0  0
  9 56  1  0  0  0  0
 10 11  1  0  0  0  0
 10 39  1  0  0  0  0
 10 40  1  0  0  0  0
 11 12  1  0  0  0  0
 11 13  1  0  0  0  0
 11 41  1  0  0  0  0
 12 42  1  0  0  0  0
 13 14  1  0  0  0  0
 13 43  1  0  0  0  0
 13 44  1  0  0  0  0
 14 24  1  0  0  0  0
 14 15  1  0  0  0  0
 15 16  2  0  0  0  0
 15 45  1  0  0  0  0
 16 17  1  0  0  0  0
 16 57  1  0  0  0  0
 17 24  2  0  0  0  0
 17 18  1  0  0  0  0
 18 19  2  0  0  0  0
 18 46  1  0  0  0  0
 19 20  1  0  0  0  0
 19 21  1  0  0  0  0
 20 47  1  0  0  0  0
 20 48  1  0  0  0  0
 20 49  1  0  0  0  0
 21 22  1  0  0  0  0
 21 23  2  0  0  0  0
 22 50  1  0  0  0  0
 22 51  1  0  0  0  0
 22 52  1  0  0  0  0
 23 24  1  0  0  0  0
 23 53  1  0  0  0  0
 25 54  1  0  0  0  0
 25 55  1  0  0  0  0
M  CHG  1   9   1
M  CHG  1  16   1
M  END
> <s_m_source_file>
AV-unprocessed.smi

> <i_m_source_file_index>
1047

> <i_lp_mmshare_version>
43012

> <i_f3d_flags>
0

> <s_epik_input>
W0NIM11bQ0gyXU4xW0NIMl1bQ0gyXU9bQ0BIXShbQ0gyXTEpW0NIMl1bTkhdW0NIMl1bQ0BIXShbT0hdKVtDSDJdbihbY0hdbjIpYyhjMjMpW2NIXWMoW0NIM10pYyhbY0hdMylbQ0gzXQ==

> <s_epik_cmdline>
J2VwaWtfcHl0aG9uJywgJy1waCcsICc3LjAnLCAnLXRuJywgJzgnLCAnLW1hJywgJzIwMCcsICctbWV0YWxfYmluZGluZycsICctaW1hZScsICc8aW5maWxlLm1hZT4nLCAnLW9tYWUnLCAnPG91dGZpbGUubWFlPic=

> <r_epik_Ionization_Penalty>
1.75732

> <r_epik_Ionization_Penalty_Charging>
1.18089

> <r_epik_Ionization_Penalty_Neutral>
0.576429

> <r_epik_State_Penalty>
1.69377

> <r_epik_Charging_Adjusted_Penalty>
2.87466

> <i_epik_Tot_Q>
2

> <i_epik_Tot_abs_Q>
2

> <r_epik_Metal_State_Penalty>
5.70174

> <b_epik_Metal_Only>
0

> <s_lp_Force_Field>
OPLS_2005

> <r_lp_Energy>
38.6305

> <b_lp_Chiralities_Consistent>
1

> <s_lp_Variant>
AV-unprocessed.smi:1047-32

> <Gold.Version>
5.8.1

> <Gold.Id.Protein>
6NUR|6NUR_protein|mol2

> <Gold.PLP.Fitness>
56.4380

> <Gold.PLP.PLP>
-46.1752

> <Gold.PLP.part.hbond>
-2.0000

> <Gold.PLP.part.metal>
0.0000

> <Gold.PLP.part.buried>
-5.4123

> <Gold.PLP.part.nonpolar>
-39.0397

> <Gold.PLP.part.repulsive>
1.3937

> <Gold.PLP.ligand.clash>
0.0000

> <Gold.PLP.ligand.torsion>
0.9052

> <Gold.PLP.Chemscore.Hbond>
3.9840

> <Gold.PLP.Chemscore.CHOScore>
0.0000

> <Gold.PLP.Chemscore.Metal>
0.0000

> <Gold.Chemscore.Hbonds>
donor molecule, donor type, donor heavy atom, donor atom, acceptor molecule, acceptor atom, score
      L1  H     9    38       P1  7948  2.00
      L1  H    16    57       P1  8028  1.95

> <Gold.PLP.Chemscore.Internal.Correction>
0.1212

> <Gold.Rescore>
     Score         DG    S(hbond)    S(metal)    S(lipo)     H(rot)  DE(clash)    DE(int)     intcor
     17.89     -19.92       1.85        0.00     129.51       2.69       0.07       1.96       ----

> <Gold.Chemscore.Fitness>
17.8905

> <Gold.Chemscore.DG>
-19.9182

> <Gold.Chemscore.ZeroCoef>
-5.4800

> <Gold.Chemscore.Hbond>
1.8491

> <Gold.Chemscore.Metal>
0.0000

> <Gold.Chemscore.Lipo>
129.5120

> <Gold.Chemscore.Internal_Hbond>
0.0000

> <Gold.Chemscore.DEClash>
0.0669

> <Gold.Chemscore.DEInternal>
1.9607

> <Gold.Chemscore.Rot>
2.6917

> <Gold.Chemscore.Internal.Correction>
   9.000000E+99

> <Gold.Chemscore.Hbonds>
donor molecule, donor type, donor heavy atom, donor atom, acceptor molecule, acceptor atom, score
      L1  H     9    38       P1  7948  0.55
      L1  H    16    57       P1  8028  0.93

> <Gold.Chemscore.Hbond.Weighted>
-6.1759

> <Gold.Chemscore.Metal.Weighted>
-0.0000

> <Gold.Chemscore.Lipo.Weighted>
-15.1529

> <Gold.Chemscore.Internal_Hbond.Weighted>
0.0000

> <Gold.Chemscore.DEClash.Weighted>
0.0669

> <Gold.Chemscore.DEInternal.Weighted>
1.9607

> <Gold.Chemscore.Rot.Weighted>
6.8907

> <Gold.Chemscore.Internal.Correction.Weighted>
   9.000000E+99

> <Gold.Protein.RotatedTorsions>
[ 6907 6896 6895 6894 ] final   73.65 input  -60.11 | X-H torsion
[ 7974 7965 7964 7962 ] final  -10.07 input  175.53 | X-H torsion
[ 8008 7997 7996 7995 ] final  167.49 input   59.86 | X-H torsion
[ 10167 10162 10161 10158 ] final  -23.29 input  -65.29 | X-H torsion
[ 10718 10713 10712 10709 ] final  174.50 input   66.30 | X-H torsion
[ 10763 10752 10751 10750 ] final   27.66 input  -60.55 | X-H torsion
[ 11005 11000 10999 10996 ] final   60.10 input  -57.11 | X-H torsion

> <Gold.Protein.ActiveResidues>
 VAL166  LYS551  ARG553  GLY616  TRP617  ASP618  TYR619  PRO620  LYS621  CYS622 
 ASP623  PHE694  ASN695  SER759  ASP760  ASP761  ALA762  ILE779  LEU786  VAL792 
 PHE793  MET794  SER795  GLU796  ALA797  LYS798  CYS799  TRP800  GLU811  SER814 

> <Gold.Protein.RotatedAtoms>
  152.4935  134.4389  159.9536 H   0  0  0  0  0  0  0  0  0  0  0  0  # atno 6907 bound_to 6896
  151.4372  133.3647  159.2784 H   0  0  0  0  0  0  0  0  0  0  0  0  # atno 6908 bound_to 6896
  150.9113  134.8553  159.7487 H   0  0  0  0  0  0  0  0  0  0  0  0  # atno 6909 bound_to 6896
  146.2232  140.2710  142.8357 H   0  0  0  0  0  0  0  0  0  0  0  0  # atno 7974 bound_to 7965
  156.1629  140.1615  156.8581 H   0  0  0  0  0  0  0  0  0  0  0  0  # atno 8008 bound_to 7997
  154.5178  140.0785  156.8150 H   0  0  0  0  0  0  0  0  0  0  0  0  # atno 8009 bound_to 7997
  155.3671  140.3398  155.4244 H   0  0  0  0  0  0  0  0  0  0  0  0  # atno 8010 bound_to 7997
  140.7288  143.4457  151.0591 H   0  0  0  0  0  0  0  0  0  0  0  0  # atno 10167 bound_to 10162
  156.9486  131.0024  151.2953 H   0  0  0  0  0  0  0  0  0  0  0  0  # atno 10718 bound_to 10713
  153.0541  135.6532  154.0620 H   0  0  0  0  0  0  0  0  0  0  0  0  # atno 10763 bound_to 10752
  154.0302  135.2912  155.3371 H   0  0  0  0  0  0  0  0  0  0  0  0  # atno 10764 bound_to 10752
  154.6847  135.5306  153.8377 H   0  0  0  0  0  0  0  0  0  0  0  0  # atno 10765 bound_to 10752
  140.0256  134.6088  155.9577 H   0  0  0  0  0  0  0  0  0  0  0  0  # atno 11005 bound_to 11000
  144.9268  140.7930  143.5714 LP  0  0  0  0  0  0  0  0  0  0  0  0  # atno 17320 bound_to 7965
  145.2650  139.1977  143.4871 LP  0  0  0  0  0  0  0  0  0  0  0  0  # atno 17321 bound_to 7965
  139.8128  143.7927  152.3172 LP  0  0  0  0  0  0  0  0  0  0  0  0  # atno 17342 bound_to 10162
  139.7983  144.7384  150.9860 LP  0  0  0  0  0  0  0  0  0  0  0  0  # atno 17343 bound_to 10162
  157.5737  130.8328  149.8426 LP  0  0  0  0  0  0  0  0  0  0  0  0  # atno 17370 bound_to 10713
  156.0372  130.3748  150.1528 LP  0  0  0  0  0  0  0  0  0  0  0  0  # atno 17371 bound_to 10713
  141.1801  133.6545  156.4984 LP  0  0  0  0  0  0  0  0  0  0  0  0  # atno 17394 bound_to 11000
  140.4312  134.7100  157.4943 LP  0  0  0  0  0  0  0  0  0  0  0  0  # atno 17395 bound_to 11000

$$$$
