AV-unprocessed.smi:1759|AV-procd|sdf|7087|dock3
  -GOLD-   22720 8303D 1   1.00000     0.00000
 Structure written by MMmdl.
 31 32  0  0  0  0  0  0  0  0  1 V2000
  147.9785  141.9749  154.2208 C   0  0  0  0  0  0  0  0  0  0  0  0
  147.4957  140.6608  153.7113 C   0  0  0  0  0  0  0  0  0  0  0  0
  146.5729  140.3116  152.7658 C   0  0  0  0  0  0  0  0  0  0  0  0
  146.6155  138.8922  152.7866 C   0  0  0  0  0  0  0  0  0  0  0  0
  145.7896  138.1270  151.9247 N   0  0  0  0  0  0  0  0  0  0  0  0
  145.4352  136.8382  152.0616 C   0  0  0  0  0  0  0  0  0  0  0  0
  145.7616  136.1082  152.9980 O   0  0  0  0  0  0  0  0  0  0  0  0
  144.6646  136.4340  151.0420 N   0  0  0  0  0  0  0  0  0  0  0  0
  144.0921  135.0998  150.9064 C   0  0  0  0  0  0  0  0  0  0  0  0
  145.1559  134.0736  150.4837 C   0  0  2  0  0  0  0  0  0  0  0  0
  144.5871  132.6835  150.2015 C   0  0  0  0  0  0  0  0  0  0  0  0
  145.7761  131.7977  150.4936 C   0  0  0  0  0  0  0  0  0  0  0  0
  146.3853  132.4968  151.7036 C   0  0  0  0  0  0  0  0  0  0  0  0
  146.1095  133.8836  151.5284 O   0  0  0  0  0  0  0  0  0  0  0  0
  147.4848  138.4178  153.6659 N   0  0  0  0  0  0  0  0  0  0  0  0
  148.0533  139.5490  154.2632 O   0  0  0  0  0  0  0  0  0  0  0  0
  147.4704  142.7983  153.7187 H   0  0  0  0  0  0  0  0  0  0  0  0
  149.0497  142.0843  154.0509 H   0  0  0  0  0  0  0  0  0  0  0  0
  147.7939  142.0654  155.2913 H   0  0  0  0  0  0  0  0  0  0  0  0
  145.9675  140.9678  152.1582 H   0  0  0  0  0  0  0  0  0  0  0  0
  145.4359  138.6111  151.1129 H   0  0  0  0  0  0  0  0  0  0  0  0
  144.4403  137.1003  150.3175 H   0  0  0  0  0  0  0  0  0  0  0  0
  143.6536  134.8133  151.8625 H   0  0  0  0  0  0  0  0  0  0  0  0
  143.2739  135.1160  150.1840 H   0  0  0  0  0  0  0  0  0  0  0  0
  145.6933  134.4194  149.5991 H   0  0  0  0  0  0  0  0  0  0  0  0
  143.7733  132.4512  150.8902 H   0  0  0  0  0  0  0  0  0  0  0  0
  144.2136  132.5772  149.1827 H   0  0  0  0  0  0  0  0  0  0  0  0
  145.5027  130.7609  150.6914 H   0  0  0  0  0  0  0  0  0  0  0  0
  146.4741  131.8162  149.6555 H   0  0  0  0  0  0  0  0  0  0  0  0
  145.8983  132.1614  152.6201 H   0  0  0  0  0  0  0  0  0  0  0  0
  147.4549  132.3095  151.8002 H   0  0  0  0  0  0  0  0  0  0  0  0
  1  2  1  0  0  0  0
  1 17  1  0  0  0  0
  1 18  1  0  0  0  0
  1 19  1  0  0  0  0
  2 16  1  0  0  0  0
  2  3  2  0  0  0  0
  3  4  1  0  0  0  0
  3 20  1  0  0  0  0
  4  5  1  0  0  0  0
  4 15  2  0  0  0  0
  5  6  1  0  0  0  0
  5 21  1  0  0  0  0
  6  7  2  0  0  0  0
  6  8  1  0  0  0  0
  8  9  1  0  0  0  0
  8 22  1  0  0  0  0
  9 10  1  0  0  0  0
  9 23  1  0  0  0  0
  9 24  1  0  0  0  0
 10 14  1  0  0  0  0
 10 11  1  0  0  0  0
 10 25  1  0  0  0  0
 11 12  1  0  0  0  0
 11 26  1  0  0  0  0
 11 27  1  0  0  0  0
 12 13  1  0  0  0  0
 12 28  1  0  0  0  0
 12 29  1  0  0  0  0
 13 14  1  0  0  0  0
 13 30  1  0  0  0  0
 13 31  1  0  0  0  0
 15 16  1  0  0  0  0
M  END
> <s_m_source_file>
AV-unprocessed.smi

> <i_m_source_file_index>
1759

> <i_lp_mmshare_version>
43012

> <i_f3d_flags>
0

> <s_epik_input>
W0NIM11jMVtjSF1jKG5vMSlbTkhdQyg9TylbTkhdW0NIMl1bQ0BASF0yW0NIMl1bQ0gyXVtDSDJdTzI=

> <s_epik_cmdline>
J2VwaWtfcHl0aG9uJywgJy1waCcsICc3LjAnLCAnLXRuJywgJzgnLCAnLW1hJywgJzIwMCcsICctbWV0YWxfYmluZGluZycsICctaW1hZScsICc8aW5maWxlLm1hZT4nLCAnLW9tYWUnLCAnPG91dGZpbGUubWFlPic=

> <r_lp_tautomer_probability>
1

> <r_epik_Ionization_Penalty>
2.1743e-05

> <r_epik_Ionization_Penalty_Charging>
0

> <r_epik_Ionization_Penalty_Neutral>
2.1743e-05

> <r_epik_State_Penalty>
-0

> <r_epik_Charging_Adjusted_Penalty>
0

> <i_epik_Tot_Q>
0

> <i_epik_Tot_abs_Q>
0

> <r_epik_Metal_State_Penalty>
-0

> <b_epik_Metal_Only>
0

> <s_lp_Force_Field>
OPLS_2005

> <r_lp_Energy>
14.3546

> <b_lp_Chiralities_Consistent>
1

> <s_lp_Variant>
AV-unprocessed.smi:1759-1

> <Gold.Version>
5.8.1

> <Gold.Id.Protein>
6NUR|6NUR_protein|mol2

> <Gold.PLP.Fitness>
31.5366

> <Gold.PLP.PLP>
-26.3533

> <Gold.PLP.part.hbond>
-2.3755

> <Gold.PLP.part.metal>
0.0000

> <Gold.PLP.part.buried>
-0.7357

> <Gold.PLP.part.nonpolar>
-24.6161

> <Gold.PLP.part.repulsive>
0.8598

> <Gold.PLP.ligand.clash>
0.0000

> <Gold.PLP.ligand.torsion>
0.2050

> <Gold.PLP.Chemscore.Hbond>
1.8640

> <Gold.PLP.Chemscore.CHOScore>
0.0000

> <Gold.PLP.Chemscore.Metal>
0.0000

> <Gold.Chemscore.Hbonds>
donor molecule, donor type, donor heavy atom, donor atom, acceptor molecule, acceptor atom, score
      L1  H     5    21       P1 10171  0.85
      L1  H     8    22       P1 10171  1.00

> <Gold.PLP.Chemscore.Internal.Correction>
0.0014

> <Gold.Rescore>
     Score         DG    S(hbond)    S(metal)    S(lipo)     H(rot)  DE(clash)    DE(int)     intcor
     12.01     -15.31       1.68        0.00      64.36       1.30       0.46       2.84       ----

> <Gold.Chemscore.Fitness>
12.0067

> <Gold.Chemscore.DG>
-15.3079

> <Gold.Chemscore.ZeroCoef>
-5.4800

> <Gold.Chemscore.Hbond>
1.6817

> <Gold.Chemscore.Metal>
0.0000

> <Gold.Chemscore.Lipo>
64.3605

> <Gold.Chemscore.Internal_Hbond>
0.0000

> <Gold.Chemscore.DEClash>
0.4565

> <Gold.Chemscore.DEInternal>
2.8447

> <Gold.Chemscore.Rot>
1.2965

> <Gold.Chemscore.Internal.Correction>
   9.000000E+99

> <Gold.Chemscore.Hbonds>
donor molecule, donor type, donor heavy atom, donor atom, acceptor molecule, acceptor atom, score
      L1  H     5    21       P1 10171  0.78
      L1  H     8    22       P1 10171  0.97

> <Gold.Chemscore.Hbond.Weighted>
-5.6168

> <Gold.Chemscore.Metal.Weighted>
-0.0000

> <Gold.Chemscore.Lipo.Weighted>
-7.5302

> <Gold.Chemscore.Internal_Hbond.Weighted>
0.0000

> <Gold.Chemscore.DEClash.Weighted>
0.4565

> <Gold.Chemscore.DEInternal.Weighted>
2.8447

> <Gold.Chemscore.Rot.Weighted>
3.3192

> <Gold.Chemscore.Internal.Correction.Weighted>
   9.000000E+99

> <Gold.Protein.RotatedTorsions>
[ 6907 6896 6895 6894 ] final -107.75 input  -60.11 | X-H torsion
[ 7974 7965 7964 7962 ] final -161.72 input  175.53 | X-H torsion
[ 8008 7997 7996 7995 ] final -138.63 input   59.86 | X-H torsion
[ 10167 10162 10161 10158 ] final  -61.45 input  -65.29 | X-H torsion
[ 10718 10713 10712 10709 ] final  -93.24 input   66.30 | X-H torsion
[ 10763 10752 10751 10750 ] final   -5.83 input  -60.55 | X-H torsion
[ 11005 11000 10999 10996 ] final  165.15 input  -57.11 | X-H torsion

> <Gold.Protein.ActiveResidues>
 VAL166  LYS551  ARG553  GLY616  TRP617  ASP618  TYR619  PRO620  LYS621  CYS622 
 ASP623  PHE694  ASN695  SER759  ASP760  ASP761  ALA762  ILE779  LEU786  VAL792 
 PHE793  MET794  SER795  GLU796  ALA797  LYS798  CYS799  TRP800  GLU811  SER814 

> <Gold.Protein.RotatedAtoms>
  150.7462  133.9779  159.3566 H   0  0  0  0  0  0  0  0  0  0  0  0  # atno 6907 bound_to 6896
  151.7718  135.0782  160.0370 H   0  0  0  0  0  0  0  0  0  0  0  0  # atno 6908 bound_to 6896
  152.3334  133.5947  159.5861 H   0  0  0  0  0  0  0  0  0  0  0  0  # atno 6909 bound_to 6896
  144.7381  140.3357  143.6144 H   0  0  0  0  0  0  0  0  0  0  0  0  # atno 7974 bound_to 7965
  155.4315  140.0525  157.3018 H   0  0  0  0  0  0  0  0  0  0  0  0  # atno 8008 bound_to 7997
  154.4858  140.2100  155.9617 H   0  0  0  0  0  0  0  0  0  0  0  0  # atno 8009 bound_to 7997
  156.1272  140.3178  155.8300 H   0  0  0  0  0  0  0  0  0  0  0  0  # atno 8010 bound_to 7997
  140.6005  143.2360  151.5939 H   0  0  0  0  0  0  0  0  0  0  0  0  # atno 10167 bound_to 10162
  156.0011  130.5019  150.5746 H   0  0  0  0  0  0  0  0  0  0  0  0  # atno 10718 bound_to 10713
  153.4040  135.7006  153.6406 H   0  0  0  0  0  0  0  0  0  0  0  0  # atno 10763 bound_to 10752
  153.4927  135.3669  155.2500 H   0  0  0  0  0  0  0  0  0  0  0  0  # atno 10764 bound_to 10752
  154.8712  135.4093  154.3380 H   0  0  0  0  0  0  0  0  0  0  0  0  # atno 10765 bound_to 10752
  140.2531  134.7961  157.3521 H   0  0  0  0  0  0  0  0  0  0  0  0  # atno 11005 bound_to 11000
  145.7426  139.1769  143.2367 LP  0  0  0  0  0  0  0  0  0  0  0  0  # atno 17320 bound_to 7965
  146.1122  140.7414  142.9497 LP  0  0  0  0  0  0  0  0  0  0  0  0  # atno 17321 bound_to 7965
  139.5288  144.2979  152.1098 LP  0  0  0  0  0  0  0  0  0  0  0  0  # atno 17342 bound_to 10162
  140.2159  144.4516  150.6364 LP  0  0  0  0  0  0  0  0  0  0  0  0  # atno 17343 bound_to 10162
  157.3635  131.0754  151.1616 LP  0  0  0  0  0  0  0  0  0  0  0  0  # atno 17370 bound_to 10713
  157.2393  130.6562  149.5883 LP  0  0  0  0  0  0  0  0  0  0  0  0  # atno 17371 bound_to 10713
  140.1538  134.4816  155.7942 LP  0  0  0  0  0  0  0  0  0  0  0  0  # atno 17394 bound_to 11000
  141.2199  133.6873  156.7425 LP  0  0  0  0  0  0  0  0  0  0  0  0  # atno 17395 bound_to 11000

$$$$
