AV-unprocessed.smi:2240|AV-procd|sdf|9057|dock3
  -GOLD-   2272012263D 1   1.00000     0.00000
 Structure written by MMmdl.
 37 38  0  0  0  0  0  0  0  0  1 V2000
  146.3784  141.2488  156.6498 C   0  0  0  0  0  0  0  0  0  0  0  0
  147.7963  141.2843  156.5504 O   0  0  0  0  0  0  0  0  0  0  0  0
  148.3447  140.9284  155.2807 C   0  0  0  0  0  0  0  0  0  0  0  0
  149.8714  141.1128  155.2422 C   0  0  0  0  0  0  0  0  0  0  0  0
  150.3290  142.0279  156.2833 N   0  0  0  0  0  0  0  0  0  0  0  0
  150.9970  141.6798  157.3921 C   0  0  0  0  0  0  0  0  0  0  0  0
  151.3305  140.5232  157.6518 O   0  0  0  0  0  0  0  0  0  0  0  0
  151.2286  142.7497  158.1730 N   0  0  0  0  0  0  0  0  0  0  0  0
  151.8516  142.7935  159.4485 C   0  0  0  0  0  0  0  0  0  0  0  0
  152.7265  141.7568  159.8637 C   0  0  0  0  0  0  0  0  0  0  0  0
  153.3516  141.8427  161.1225 C   0  0  0  0  0  0  0  0  0  0  0  0
  153.0990  142.9657  161.9318 C   0  0  0  0  0  0  0  0  0  0  0  0
  153.7460  143.1021  163.2941 C   0  0  0  0  0  0  0  0  0  0  0  0
  152.2296  143.9563  161.4357 C   0  0  0  0  0  0  0  0  0  0  0  0
  151.6309  143.8768  160.2286 N   0  0  0  0  0  0  0  0  0  0  0  0
  147.7632  139.5585  154.8780 C   0  0  0  0  0  0  0  0  0  0  0  0
  147.4991  140.1251  153.4824 C   0  0  0  0  0  0  0  0  0  0  0  0
  147.5032  141.5116  154.1269 C   0  0  0  0  0  0  0  0  0  0  0  0
  146.0887  141.4210  157.6862 H   0  0  0  0  0  0  0  0  0  0  0  0
  145.9708  140.2836  156.3489 H   0  0  0  0  0  0  0  0  0  0  0  0
  145.9122  142.0292  156.0493 H   0  0  0  0  0  0  0  0  0  0  0  0
  150.3758  140.1493  155.3319 H   0  0  0  0  0  0  0  0  0  0  0  0
  150.1905  141.5090  154.2787 H   0  0  0  0  0  0  0  0  0  0  0  0
  150.0928  143.0016  156.1601 H   0  0  0  0  0  0  0  0  0  0  0  0
  150.8084  143.6160  157.8706 H   0  0  0  0  0  0  0  0  0  0  0  0
  152.9386  140.9057  159.2345 H   0  0  0  0  0  0  0  0  0  0  0  0
  154.0177  141.0605  161.4561 H   0  0  0  0  0  0  0  0  0  0  0  0
  153.6995  144.1317  163.6499 H   0  0  0  0  0  0  0  0  0  0  0  0
  154.7942  142.8051  163.2509 H   0  0  0  0  0  0  0  0  0  0  0  0
  153.2374  142.4653  164.0180 H   0  0  0  0  0  0  0  0  0  0  0  0
  152.0081  144.8385  162.0184 H   0  0  0  0  0  0  0  0  0  0  0  0
  148.4664  138.7266  154.8972 H   0  0  0  0  0  0  0  0  0  0  0  0
  146.8418  139.3095  155.4075 H   0  0  0  0  0  0  0  0  0  0  0  0
  148.3339  139.9719  152.7966 H   0  0  0  0  0  0  0  0  0  0  0  0
  146.5481  139.8283  153.0395 H   0  0  0  0  0  0  0  0  0  0  0  0
  146.5046  141.8269  154.4352 H   0  0  0  0  0  0  0  0  0  0  0  0
  148.0025  142.2822  153.5390 H   0  0  0  0  0  0  0  0  0  0  0  0
  1  2  1  0  0  0  0
  1 19  1  0  0  0  0
  1 20  1  0  0  0  0
  1 21  1  0  0  0  0
  2  3  1  0  0  0  0
  3 18  1  0  0  0  0
  3  4  1  0  0  0  0
  3 16  1  0  0  0  0
  4  5  1  0  0  0  0
  4 22  1  0  0  0  0
  4 23  1  0  0  0  0
  5  6  1  0  0  0  0
  5 24  1  0  0  0  0
  6  7  2  0  0  0  0
  6  8  1  0  0  0  0
  8  9  1  0  0  0  0
  8 25  1  0  0  0  0
  9 15  1  0  0  0  0
  9 10  2  0  0  0  0
 10 11  1  0  0  0  0
 10 26  1  0  0  0  0
 11 12  2  0  0  0  0
 11 27  1  0  0  0  0
 12 13  1  0  0  0  0
 12 14  1  0  0  0  0
 13 28  1  0  0  0  0
 13 29  1  0  0  0  0
 13 30  1  0  0  0  0
 14 15  2  0  0  0  0
 14 31  1  0  0  0  0
 16 17  1  0  0  0  0
 16 32  1  0  0  0  0
 16 33  1  0  0  0  0
 17 18  1  0  0  0  0
 17 34  1  0  0  0  0
 17 35  1  0  0  0  0
 18 36  1  0  0  0  0
 18 37  1  0  0  0  0
M  END
> <s_m_source_file>
AV-unprocessed.smi

> <i_m_source_file_index>
2240

> <i_lp_mmshare_version>
43012

> <i_f3d_flags>
0

> <s_epik_input>
W0NIMl0xW0NIMl1bQ0gyXUMxKE9bQ0gzXSlbQ0gyXVtOSF1DKD1PKVtOSF1jMltjSF1bY0hdYyhbQ0gzXSlbY0hdbjI=

> <s_epik_cmdline>
J2VwaWtfcHl0aG9uJywgJy1waCcsICc3LjAnLCAnLXRuJywgJzgnLCAnLW1hJywgJzIwMCcsICctbWV0YWxfYmluZGluZycsICctaW1hZScsICc8aW5maWxlLm1hZT4nLCAnLW9tYWUnLCAnPG91dGZpbGUubWFlPic=

> <r_lp_tautomer_probability>
1

> <r_epik_Ionization_Penalty>
5.83017e-05

> <r_epik_Ionization_Penalty_Charging>
0

> <r_epik_Ionization_Penalty_Neutral>
5.83017e-05

> <r_epik_State_Penalty>
-0

> <r_epik_Charging_Adjusted_Penalty>
0

> <i_epik_Tot_Q>
0

> <i_epik_Tot_abs_Q>
0

> <r_epik_Metal_State_Penalty>
-0

> <b_epik_Metal_Only>
0

> <s_lp_Force_Field>
OPLS_2005

> <r_lp_Energy>
21.5554

> <b_lp_Chiralities_Consistent>
1

> <s_lp_Variant>
AV-unprocessed.smi:2240-1

> <Gold.Version>
5.8.1

> <Gold.Id.Protein>
6NUR|6NUR_protein|mol2

> <Gold.PLP.Fitness>
40.9772

> <Gold.PLP.PLP>
-40.0278

> <Gold.PLP.part.hbond>
-1.0000

> <Gold.PLP.part.metal>
0.0000

> <Gold.PLP.part.buried>
-5.6038

> <Gold.PLP.part.nonpolar>
-33.1862

> <Gold.PLP.part.repulsive>
0.3362

> <Gold.PLP.ligand.clash>
0.0000

> <Gold.PLP.ligand.torsion>
1.1225

> <Gold.PLP.Chemscore.Hbond>
0.9760

> <Gold.PLP.Chemscore.CHOScore>
0.0000

> <Gold.PLP.Chemscore.Metal>
0.0000

> <Gold.Chemscore.Hbonds>
donor molecule, donor type, donor heavy atom, donor atom, acceptor molecule, acceptor atom, score
      L1  H     5    24       P1  8028  0.68

> <Gold.PLP.Chemscore.Internal.Correction>
0.2664

> <Gold.Rescore>
     Score         DG    S(hbond)    S(metal)    S(lipo)     H(rot)  DE(clash)    DE(int)     intcor
     16.39     -19.07       1.96        0.00      92.05       1.45       0.14       2.55       ----

> <Gold.Chemscore.Fitness>
16.3922

> <Gold.Chemscore.DG>
-19.0740

> <Gold.Chemscore.ZeroCoef>
-5.4800

> <Gold.Chemscore.Hbond>
1.9587

> <Gold.Chemscore.Metal>
0.0000

> <Gold.Chemscore.Lipo>
92.0507

> <Gold.Chemscore.Internal_Hbond>
0.0000

> <Gold.Chemscore.DEClash>
0.1354

> <Gold.Chemscore.DEInternal>
2.5464

> <Gold.Chemscore.Rot>
1.4523

> <Gold.Chemscore.Internal.Correction>
   9.000000E+99

> <Gold.Chemscore.Hbonds>
donor molecule, donor type, donor heavy atom, donor atom, acceptor molecule, acceptor atom, score
      L1  H     5    24       P1  8028  0.68

> <Gold.Chemscore.Hbond.Weighted>
-6.5419

> <Gold.Chemscore.Metal.Weighted>
-0.0000

> <Gold.Chemscore.Lipo.Weighted>
-10.7699

> <Gold.Chemscore.Internal_Hbond.Weighted>
0.0000

> <Gold.Chemscore.DEClash.Weighted>
0.1354

> <Gold.Chemscore.DEInternal.Weighted>
2.5464

> <Gold.Chemscore.Rot.Weighted>
3.7179

> <Gold.Chemscore.Internal.Correction.Weighted>
   9.000000E+99

> <Gold.Protein.RotatedTorsions>
[ 6907 6896 6895 6894 ] final   43.46 input  -60.11 | X-H torsion
[ 7974 7965 7964 7962 ] final    7.12 input  175.53 | X-H torsion
[ 8008 7997 7996 7995 ] final -159.50 input   59.86 | X-H torsion
[ 10167 10162 10161 10158 ] final  -23.12 input  -65.29 | X-H torsion
[ 10718 10713 10712 10709 ] final    1.26 input   66.30 | X-H torsion
[ 10763 10752 10751 10750 ] final -139.24 input  -60.55 | X-H torsion
[ 11005 11000 10999 10996 ] final -117.10 input  -57.11 | X-H torsion

> <Gold.Protein.ActiveResidues>
 VAL166  LYS551  ARG553  GLY616  TRP617  ASP618  TYR619  PRO620  LYS621  CYS622 
 ASP623  PHE694  ASN695  SER759  ASP760  ASP761  ALA762  ILE779  LEU786  VAL792 
 PHE793  MET794  SER795  GLU796  ALA797  LYS798  CYS799  TRP800  GLU811  SER814 

> <Gold.Protein.RotatedAtoms>
  152.2205  134.8417  160.0486 H   0  0  0  0  0  0  0  0  0  0  0  0  # atno 6907 bound_to 6896
  151.9202  133.3578  159.3902 H   0  0  0  0  0  0  0  0  0  0  0  0  # atno 6908 bound_to 6896
  150.6999  134.4568  159.5406 H   0  0  0  0  0  0  0  0  0  0  0  0  # atno 6909 bound_to 6896
  146.2429  140.0130  142.8405 H   0  0  0  0  0  0  0  0  0  0  0  0  # atno 7974 bound_to 7965
  155.7635  140.0842  157.2143 H   0  0  0  0  0  0  0  0  0  0  0  0  # atno 8008 bound_to 7997
  154.4001  140.1538  156.2917 H   0  0  0  0  0  0  0  0  0  0  0  0  # atno 8009 bound_to 7997
  155.8816  140.3420  155.5894 H   0  0  0  0  0  0  0  0  0  0  0  0  # atno 8010 bound_to 7997
  140.7287  143.4472  151.0570 H   0  0  0  0  0  0  0  0  0  0  0  0  # atno 10167 bound_to 10162
  156.8456  130.5536  149.5674 H   0  0  0  0  0  0  0  0  0  0  0  0  # atno 10718 bound_to 10713
  154.8615  135.3588  154.5514 H   0  0  0  0  0  0  0  0  0  0  0  0  # atno 10763 bound_to 10752
  153.6132  135.7008  153.5343 H   0  0  0  0  0  0  0  0  0  0  0  0  # atno 10764 bound_to 10752
  153.3191  135.4156  155.1362 H   0  0  0  0  0  0  0  0  0  0  0  0  # atno 10765 bound_to 10752
  141.0377  133.9884  157.3044 H   0  0  0  0  0  0  0  0  0  0  0  0  # atno 11005 bound_to 11000
  145.1310  140.9518  143.4544 LP  0  0  0  0  0  0  0  0  0  0  0  0  # atno 17320 bound_to 7965
  145.0388  139.3278  143.5987 LP  0  0  0  0  0  0  0  0  0  0  0  0  # atno 17321 bound_to 7965
  139.8144  143.7906  152.3173 LP  0  0  0  0  0  0  0  0  0  0  0  0  # atno 17342 bound_to 10162
  139.7967  144.7390  150.9881 LP  0  0  0  0  0  0  0  0  0  0  0  0  # atno 17343 bound_to 10162
  156.0856  130.5856  150.9643 LP  0  0  0  0  0  0  0  0  0  0  0  0  # atno 17370 bound_to 10713
  157.6332  131.0919  150.8401 LP  0  0  0  0  0  0  0  0  0  0  0  0  # atno 17371 bound_to 10713
  139.9253  135.0201  156.8211 LP  0  0  0  0  0  0  0  0  0  0  0  0  # atno 17394 bound_to 11000
  140.6292  133.9922  155.7654 LP  0  0  0  0  0  0  0  0  0  0  0  0  # atno 17395 bound_to 11000

$$$$
