AV-unprocessed.smi:312|AV-procd|sdf|2307|dock3
  -GOLD-   2262022203D 1   1.00000     0.00000
 Structure written by MMmdl.
 35 36  0  0  0  0  0  0  0  0  1 V2000
  150.7590  139.3971  156.4959 C   0  0  0  0  0  0  0  0  0  0  0  0
  150.4430  140.8998  156.5003 C   0  0  2  0  0  0  0  0  0  0  0  0
  150.3950  141.4763  155.0728 C   0  0  0  0  0  0  0  0  0  0  0  0
  149.2736  140.9583  154.3103 N   0  0  0  0  0  0  0  0  0  0  0  0
  148.3212  141.6934  153.6167 C   0  0  0  0  0  0  0  0  0  0  0  0
  147.4631  140.7827  153.0428 C   0  0  0  0  0  0  0  0  0  0  0  0
  147.8643  139.4894  153.3703 N   0  0  0  0  0  0  0  0  0  0  0  0
  148.9411  139.6735  154.1231 C   0  0  0  0  0  0  0  0  0  0  0  0
  151.4438  141.6111  157.2929 N   0  0  0  0  0  0  0  0  0  0  0  0
  151.6137  141.5005  158.6192 C   0  0  0  0  0  0  0  0  0  0  0  0
  150.9483  140.7419  159.3253 O   0  0  0  0  0  0  0  0  0  0  0  0
  152.7008  142.3923  159.2414 C   0  0  0  0  0  0  0  0  0  0  0  0
  152.7545  142.2578  160.7813 C   0  0  0  0  0  0  0  0  0  0  0  0
  152.4250  143.6384  161.3648 C   0  0  0  0  0  0  0  0  0  0  0  0
  151.7420  144.4056  160.2359 C   0  0  0  0  0  0  0  0  0  0  0  0
  152.4275  143.8843  158.9741 C   0  0  0  0  0  0  0  0  0  0  0  0
  150.0148  138.8420  155.9244 H   0  0  0  0  0  0  0  0  0  0  0  0
  150.7625  138.9929  157.5089 H   0  0  0  0  0  0  0  0  0  0  0  0
  151.7356  139.1975  156.0536 H   0  0  0  0  0  0  0  0  0  0  0  0
  149.4559  141.0332  156.9472 H   0  0  0  0  0  0  0  0  0  0  0  0
  150.3338  142.5655  155.0972 H   0  0  0  0  0  0  0  0  0  0  0  0
  151.3102  141.2260  154.5348 H   0  0  0  0  0  0  0  0  0  0  0  0
  148.3349  142.7731  153.5871 H   0  0  0  0  0  0  0  0  0  0  0  0
  146.5948  140.9572  152.4248 H   0  0  0  0  0  0  0  0  0  0  0  0
  149.5045  138.8538  154.5443 H   0  0  0  0  0  0  0  0  0  0  0  0
  152.0398  142.2571  156.7958 H   0  0  0  0  0  0  0  0  0  0  0  0
  153.6671  142.1221  158.8118 H   0  0  0  0  0  0  0  0  0  0  0  0
  152.0403  141.5200  161.1513 H   0  0  0  0  0  0  0  0  0  0  0  0
  153.7396  141.9275  161.1128 H   0  0  0  0  0  0  0  0  0  0  0  0
  151.8057  143.5769  162.2601 H   0  0  0  0  0  0  0  0  0  0  0  0
  153.3501  144.1470  161.6395 H   0  0  0  0  0  0  0  0  0  0  0  0
  150.6793  144.1611  160.2106 H   0  0  0  0  0  0  0  0  0  0  0  0
  151.8333  145.4863  160.3472 H   0  0  0  0  0  0  0  0  0  0  0  0
  153.3746  144.4058  158.8303 H   0  0  0  0  0  0  0  0  0  0  0  0
  151.8261  144.0641  158.0814 H   0  0  0  0  0  0  0  0  0  0  0  0
  1  2  1  0  0  0  0
  1 17  1  0  0  0  0
  1 18  1  0  0  0  0
  1 19  1  0  0  0  0
  2  3  1  0  0  0  0
  2  9  1  0  0  0  0
  2 20  1  0  0  0  0
  3  4  1  0  0  0  0
  3 21  1  0  0  0  0
  3 22  1  0  0  0  0
  4  8  1  0  0  0  0
  4  5  1  0  0  0  0
  5  6  2  0  0  0  0
  5 23  1  0  0  0  0
  6  7  1  0  0  0  0
  6 24  1  0  0  0  0
  7  8  2  0  0  0  0
  8 25  1  0  0  0  0
  9 10  1  0  0  0  0
  9 26  1  0  0  0  0
 10 11  2  0  0  0  0
 10 12  1  0  0  0  0
 12 16  1  0  0  0  0
 12 13  1  0  0  0  0
 12 27  1  0  0  0  0
 13 14  1  0  0  0  0
 13 28  1  0  0  0  0
 13 29  1  0  0  0  0
 14 15  1  0  0  0  0
 14 30  1  0  0  0  0
 14 31  1  0  0  0  0
 15 16  1  0  0  0  0
 15 32  1  0  0  0  0
 15 33  1  0  0  0  0
 16 34  1  0  0  0  0
 16 35  1  0  0  0  0
M  END
> <s_m_source_file>
AV-unprocessed.smi

> <i_m_source_file_index>
312

> <i_lp_mmshare_version>
43012

> <i_f3d_flags>
0

> <s_epik_input>
W2NIXTFuW2NIXVtjSF1uMVtDSDJdW0NAQEhdKFtDSDNdKVtOSF1DKD1PKVtDSF0yW0NIMl1bQ0gyXVtDSDJdW0NIMl0y

> <s_epik_cmdline>
J2VwaWtfcHl0aG9uJywgJy1waCcsICc3LjAnLCAnLXRuJywgJzgnLCAnLW1hJywgJzIwMCcsICctbWV0YWxfYmluZGluZycsICctaW1hZScsICc8aW5maWxlLm1hZT4nLCAnLW9tYWUnLCAnPG91dGZpbGUubWFlPic=

> <r_lp_tautomer_probability>
1

> <r_epik_Ionization_Penalty>
0.642614

> <r_epik_Ionization_Penalty_Charging>
0.642614

> <r_epik_Ionization_Penalty_Neutral>
3.44135e-08

> <r_epik_State_Penalty>
0.660429

> <r_epik_Charging_Adjusted_Penalty>
1.30304

> <i_epik_Tot_Q>
0

> <i_epik_Tot_abs_Q>
0

> <r_epik_Metal_State_Penalty>
0.31224

> <b_epik_Metal_Only>
0

> <s_lp_Force_Field>
OPLS_2005

> <r_lp_Energy>
22.1454

> <b_lp_Chiralities_Consistent>
1

> <s_lp_Variant>
AV-unprocessed.smi:312-3

> <Gold.Version>
5.8.1

> <Gold.Id.Protein>
6NUR|6NUR_protein|mol2

> <Gold.PLP.Fitness>
42.8824

> <Gold.PLP.PLP>
-37.2202

> <Gold.PLP.part.hbond>
0.0000

> <Gold.PLP.part.metal>
0.0000

> <Gold.PLP.part.buried>
-2.2620

> <Gold.PLP.part.nonpolar>
-34.8805

> <Gold.PLP.part.repulsive>
0.7499

> <Gold.PLP.ligand.clash>
0.0000

> <Gold.PLP.ligand.torsion>
0.1824

> <Gold.PLP.Chemscore.Hbond>
0.0000

> <Gold.PLP.Chemscore.CHOScore>
2.0000

> <Gold.PLP.Chemscore.Metal>
0.0000

> <Gold.Chemscore.Hbonds>
donor molecule, donor type, donor heavy atom, donor atom, acceptor molecule, acceptor atom, score
      L1  C     5    23       P1  8028  0.19

> <Gold.PLP.Chemscore.Internal.Correction>
0.0270

> <Gold.Rescore>
     Score         DG    S(hbond)    S(metal)    S(lipo)     H(rot)  DE(clash)    DE(int)     intcor
     11.23     -11.80       0.00        0.00      92.43       1.76       0.02       0.55       ----

> <Gold.Chemscore.Fitness>
11.2262

> <Gold.Chemscore.DG>
-11.7980

> <Gold.Chemscore.ZeroCoef>
-5.4800

> <Gold.Chemscore.Hbond>
0.0000

> <Gold.Chemscore.Metal>
0.0000

> <Gold.Chemscore.Lipo>
92.4292

> <Gold.Chemscore.Internal_Hbond>
0.0000

> <Gold.Chemscore.DEClash>
0.0174

> <Gold.Chemscore.DEInternal>
0.5544

> <Gold.Chemscore.Rot>
1.7563

> <Gold.Chemscore.Internal.Correction>
   9.000000E+99

> <Gold.Chemscore.Hbond.Weighted>
-0.0000

> <Gold.Chemscore.Metal.Weighted>
-0.0000

> <Gold.Chemscore.Lipo.Weighted>
-10.8142

> <Gold.Chemscore.Internal_Hbond.Weighted>
0.0000

> <Gold.Chemscore.DEClash.Weighted>
0.0174

> <Gold.Chemscore.DEInternal.Weighted>
0.5544

> <Gold.Chemscore.Rot.Weighted>
4.4962

> <Gold.Chemscore.Internal.Correction.Weighted>
   9.000000E+99

> <Gold.Protein.RotatedTorsions>
[ 6907 6896 6895 6894 ] final   42.62 input  -60.11 | X-H torsion
[ 7974 7965 7964 7962 ] final  -86.05 input  175.53 | X-H torsion
[ 8008 7997 7996 7995 ] final  -87.68 input   59.86 | X-H torsion
[ 10167 10162 10161 10158 ] final -168.82 input  -65.29 | X-H torsion
[ 10718 10713 10712 10709 ] final  -75.85 input   66.30 | X-H torsion
[ 10763 10752 10751 10750 ] final  115.99 input  -60.55 | X-H torsion
[ 11005 11000 10999 10996 ] final    2.46 input  -57.11 | X-H torsion

> <Gold.Protein.ActiveResidues>
 VAL166  LYS551  ARG553  GLY616  TRP617  ASP618  TYR619  PRO620  LYS621  CYS622 
 ASP623  PHE694  ASN695  SER759  ASP760  ASP761  ALA762  ILE779  LEU786  VAL792 
 PHE793  MET794  SER795  GLU796  ALA797  LYS798  CYS799  TRP800  GLU811  SER814 

> <Gold.Protein.RotatedAtoms>
  152.2101  134.8509  160.0498 H   0  0  0  0  0  0  0  0  0  0  0  0  # atno 6907 bound_to 6896
  151.9330  133.3611  159.3946 H   0  0  0  0  0  0  0  0  0  0  0  0  # atno 6908 bound_to 6896
  150.6974  134.4442  159.5350 H   0  0  0  0  0  0  0  0  0  0  0  0  # atno 6909 bound_to 6896
  145.4851  140.9555  143.1843 H   0  0  0  0  0  0  0  0  0  0  0  0  # atno 7974 bound_to 7965
  154.6661  140.0563  157.0115 H   0  0  0  0  0  0  0  0  0  0  0  0  # atno 8008 bound_to 7997
  155.1157  140.3242  155.4491 H   0  0  0  0  0  0  0  0  0  0  0  0  # atno 8009 bound_to 7997
  156.2638  140.2006  156.6280 H   0  0  0  0  0  0  0  0  0  0  0  0  # atno 8010 bound_to 7997
  139.5961  144.1109  152.1691 H   0  0  0  0  0  0  0  0  0  0  0  0  # atno 10167 bound_to 10162
  156.0194  130.4451  150.3105 H   0  0  0  0  0  0  0  0  0  0  0  0  # atno 10718 bound_to 10713
  153.5305  135.3579  155.2673 H   0  0  0  0  0  0  0  0  0  0  0  0  # atno 10763 bound_to 10752
  154.8727  135.4067  154.3157 H   0  0  0  0  0  0  0  0  0  0  0  0  # atno 10764 bound_to 10752
  153.3845  135.7069  153.6608 H   0  0  0  0  0  0  0  0  0  0  0  0  # atno 10765 bound_to 10752
  140.6040  133.9809  155.8145 H   0  0  0  0  0  0  0  0  0  0  0  0  # atno 11005 bound_to 11000
  144.7866  139.6414  143.7131 LP  0  0  0  0  0  0  0  0  0  0  0  0  # atno 17320 bound_to 7965
  146.2318  139.5828  142.9550 LP  0  0  0  0  0  0  0  0  0  0  0  0  # atno 17321 bound_to 7965
  140.0694  144.5791  150.7203 LP  0  0  0  0  0  0  0  0  0  0  0  0  # atno 17342 bound_to 10162
  140.7213  143.2591  151.4269 LP  0  0  0  0  0  0  0  0  0  0  0  0  # atno 17343 bound_to 10162
  157.1207  131.0246  151.3010 LP  0  0  0  0  0  0  0  0  0  0  0  0  # atno 17370 bound_to 10713
  157.4630  130.7664  149.7253 LP  0  0  0  0  0  0  0  0  0  0  0  0  # atno 17371 bound_to 10713
  141.0853  134.0000  157.3323 LP  0  0  0  0  0  0  0  0  0  0  0  0  # atno 17394 bound_to 11000
  139.9220  135.0201  156.8099 LP  0  0  0  0  0  0  0  0  0  0  0  0  # atno 17395 bound_to 11000

$$$$
