AV-unprocessed.smi:570|AV-procd|sdf|2962|dock8
  -GOLD-   2262023463D 1   1.00000     0.00000
 Structure written by MMmdl.
 39 40  0  0  0  0  0  0  0  0  2 V2000
  147.3495  136.5424  162.2744 C   0  0  0  0  0  0  0  0  0  0  0  0
  148.3815  136.7659  161.3301 O   0  0  0  0  0  0  0  0  0  0  0  0
  147.9313  136.6379  159.9878 C   0  0  0  0  0  0  0  0  0  0  0  0
  149.1217  136.5425  159.0106 C   0  0  0  0  0  0  0  0  0  0  0  0
  150.3169  137.4613  159.3386 C   0  0  0  0  0  0  0  0  0  0  0  0
  151.5489  136.8674  158.8282 N   0  5  0  0  0  0  0  0  0  0  0  0
  152.0125  137.0406  157.5556 C   0  0  0  0  0  0  0  0  0  0  0  0
  152.5759  136.2261  156.8156 O   0  0  0  0  0  0  0  0  0  0  0  0
  151.7707  138.4414  157.0369 C   0  0  0  0  0  0  0  0  0  0  0  0
  151.9490  139.4740  157.9005 N   0  0  0  0  0  0  0  0  0  0  0  0
  151.7289  140.7231  157.4790 C   0  0  0  0  0  0  0  0  0  0  0  0
  151.9297  141.7616  158.3978 N   0  0  0  0  0  0  0  0  0  0  0  0
  151.3221  143.0827  158.2217 C   0  0  0  0  0  0  0  0  0  0  0  0
  152.2201  144.1809  158.8161 C   0  0  0  0  0  0  0  0  0  0  0  0
  152.4984  143.8895  160.1800 O   0  0  0  0  0  0  0  0  0  0  0  0
  153.2033  142.6617  160.3173 C   0  0  0  0  0  0  0  0  0  0  0  0
  152.3465  141.5036  159.7787 C   0  0  0  0  0  0  0  0  0  0  0  0
  151.3314  141.0528  156.2450 N   0  0  0  0  0  0  0  0  0  0  0  0
  151.1477  140.0509  155.3614 C   0  0  0  0  0  0  0  0  0  0  0  0
  151.3564  138.7007  155.7020 C   0  0  0  0  0  0  0  0  0  0  0  0
  151.1339  137.4798  154.4947 Cl  0  0  0  0  0  0  0  0  0  0  0  0
  147.7461  136.6547  163.2835 H   0  0  0  0  0  0  0  0  0  0  0  0
  146.9423  135.5348  162.1830 H   0  0  0  0  0  0  0  0  0  0  0  0
  146.5386  137.2612  162.1497 H   0  0  0  0  0  0  0  0  0  0  0  0
  147.3413  135.7238  159.9069 H   0  0  0  0  0  0  0  0  0  0  0  0
  147.2633  137.4615  159.7250 H   0  0  0  0  0  0  0  0  0  0  0  0
  149.4563  135.5053  158.9603 H   0  0  0  0  0  0  0  0  0  0  0  0
  148.7600  136.7894  158.0114 H   0  0  0  0  0  0  0  0  0  0  0  0
  150.1378  138.4452  158.9033 H   0  0  0  0  0  0  0  0  0  0  0  0
  150.3584  137.6149  160.4177 H   0  0  0  0  0  0  0  0  0  0  0  0
  151.1431  143.3179  157.1731 H   0  0  0  0  0  0  0  0  0  0  0  0
  150.3500  143.0866  158.7159 H   0  0  0  0  0  0  0  0  0  0  0  0
  153.1507  144.2696  158.2531 H   0  0  0  0  0  0  0  0  0  0  0  0
  151.7193  145.1472  158.7562 H   0  0  0  0  0  0  0  0  0  0  0  0
  154.1582  142.7149  159.7919 H   0  0  0  0  0  0  0  0  0  0  0  0
  153.4295  142.4992  161.3710 H   0  0  0  0  0  0  0  0  0  0  0  0
  151.4554  141.3770  160.3945 H   0  0  0  0  0  0  0  0  0  0  0  0
  152.9261  140.5847  159.8667 H   0  0  0  0  0  0  0  0  0  0  0  0
  150.8366  140.3326  154.3663 H   0  0  0  0  0  0  0  0  0  0  0  0
  1  2  1  0  0  0  0
  1 22  1  0  0  0  0
  1 23  1  0  0  0  0
  1 24  1  0  0  0  0
  2  3  1  0  0  0  0
  3  4  1  0  0  0  0
  3 25  1  0  0  0  0
  3 26  1  0  0  0  0
  4  5  1  0  0  0  0
  4 27  1  0  0  0  0
  4 28  1  0  0  0  0
  5  6  1  0  0  0  0
  5 29  1  0  0  0  0
  5 30  1  0  0  0  0
  6  7  1  0  0  0  0
  7  8  2  0  0  0  0
  7  9  1  0  0  0  0
  9 20  1  0  0  0  0
  9 10  2  0  0  0  0
 10 11  1  0  0  0  0
 11 12  1  0  0  0  0
 11 18  2  0  0  0  0
 12 17  1  0  0  0  0
 12 13  1  0  0  0  0
 13 14  1  0  0  0  0
 13 31  1  0  0  0  0
 13 32  1  0  0  0  0
 14 15  1  0  0  0  0
 14 33  1  0  0  0  0
 14 34  1  0  0  0  0
 15 16  1  0  0  0  0
 16 17  1  0  0  0  0
 16 35  1  0  0  0  0
 16 36  1  0  0  0  0
 17 37  1  0  0  0  0
 17 38  1  0  0  0  0
 18 19  1  0  0  0  0
 19 20  2  0  0  0  0
 19 39  1  0  0  0  0
 20 21  1  0  0  0  0
M  CHG  1   6  -1
M  END
> <s_m_source_file>
AV-unprocessed.smi

> <i_m_source_file_index>
570

> <i_lp_mmshare_version>
43012

> <i_f3d_flags>
0

> <s_epik_input>
W0NIM11PW0NIMl1bQ0gyXVtDSDJdW05IXUMoPU8pYzFuYyhuW2NIXWMxQ2wpTjJbQ0gyXVtDSDJdT1tDSDJdW0NIMl0y

> <s_epik_cmdline>
J2VwaWtfcHl0aG9uJywgJy1waCcsICc3LjAnLCAnLXRuJywgJzgnLCAnLW1hJywgJzIwMCcsICctbWV0YWxfYmluZGluZycsICctaW1hZScsICc8aW5maWxlLm1hZT4nLCAnLW9tYWUnLCAnPG91dGZpbGUubWFlPic=

> <r_lp_tautomer_probability>
1

> <r_epik_Ionization_Penalty>
6.0123

> <r_epik_Ionization_Penalty_Charging>
6.01228

> <r_epik_Ionization_Penalty_Neutral>
2.47988e-05

> <r_epik_State_Penalty>
6.01226

> <r_epik_Charging_Adjusted_Penalty>
12.0245

> <i_epik_Tot_Q>
-1

> <i_epik_Tot_abs_Q>
1

> <r_epik_Metal_State_Penalty>
1.96418

> <b_epik_Metal_Only>
1

> <s_lp_Force_Field>
OPLS_2005

> <r_lp_Energy>
20.8632

> <b_lp_Chiralities_Consistent>
1

> <s_lp_Variant>
AV-unprocessed.smi:570-2

> <Gold.Version>
5.8.1

> <Gold.Id.Protein>
6NUR|6NUR_protein|mol2

> <Gold.PLP.Fitness>
47.6281

> <Gold.PLP.PLP>
-38.7532

> <Gold.PLP.part.hbond>
-3.0716

> <Gold.PLP.part.metal>
0.0000

> <Gold.PLP.part.buried>
-4.5915

> <Gold.PLP.part.nonpolar>
-32.1529

> <Gold.PLP.part.repulsive>
0.0562

> <Gold.PLP.ligand.clash>
0.0000

> <Gold.PLP.ligand.torsion>
1.4867

> <Gold.PLP.Chemscore.Hbond>
3.8560

> <Gold.PLP.Chemscore.CHOScore>
0.0000

> <Gold.PLP.Chemscore.Metal>
0.0000

> <Gold.Chemscore.Hbonds>
donor molecule, donor type, donor heavy atom, donor atom, acceptor molecule, acceptor atom, score
      P1  H  6896  6909       L1     6  1.55
      P1  H  6931  6943       L1     2  1.00
      P1  H 10752 10765       L1     8  1.00

> <Gold.PLP.Chemscore.Internal.Correction>
0.2802

> <Gold.Rescore>
     Score         DG    S(hbond)    S(metal)    S(lipo)     H(rot)  DE(clash)    DE(int)     intcor
     16.42     -18.97       2.03        0.00      92.14       1.59       0.05       2.50       ----

> <Gold.Chemscore.Fitness>
16.4187

> <Gold.Chemscore.DG>
-18.9655

> <Gold.Chemscore.ZeroCoef>
-5.4800

> <Gold.Chemscore.Hbond>
2.0324

> <Gold.Chemscore.Metal>
0.0000

> <Gold.Chemscore.Lipo>
92.1391

> <Gold.Chemscore.Internal_Hbond>
0.0000

> <Gold.Chemscore.DEClash>
0.0512

> <Gold.Chemscore.DEInternal>
2.4956

> <Gold.Chemscore.Rot>
1.5949

> <Gold.Chemscore.Internal.Correction>
   9.000000E+99

> <Gold.Chemscore.Hbonds>
donor molecule, donor type, donor heavy atom, donor atom, acceptor molecule, acceptor atom, score
      P1  H  6896  6909       L1     6  0.16
      P1  H  6931  6943       L1     2  0.30
      P1  H 10752 10765       L1     8  0.99

> <Gold.Chemscore.Hbond.Weighted>
-6.7882

> <Gold.Chemscore.Metal.Weighted>
-0.0000

> <Gold.Chemscore.Lipo.Weighted>
-10.7803

> <Gold.Chemscore.Internal_Hbond.Weighted>
0.0000

> <Gold.Chemscore.DEClash.Weighted>
0.0512

> <Gold.Chemscore.DEInternal.Weighted>
2.4956

> <Gold.Chemscore.Rot.Weighted>
4.0830

> <Gold.Chemscore.Internal.Correction.Weighted>
   9.000000E+99

> <Gold.Protein.RotatedTorsions>
[ 6907 6896 6895 6894 ] final  121.78 input  -60.11 | X-H torsion
[ 7974 7965 7964 7962 ] final -177.00 input  175.53 | X-H torsion
[ 8008 7997 7996 7995 ] final  111.47 input   59.86 | X-H torsion
[ 10167 10162 10161 10158 ] final  -67.52 input  -65.29 | X-H torsion
[ 10718 10713 10712 10709 ] final -152.45 input   66.30 | X-H torsion
[ 10763 10752 10751 10750 ] final -135.67 input  -60.55 | X-H torsion
[ 11005 11000 10999 10996 ] final   91.92 input  -57.11 | X-H torsion

> <Gold.Protein.ActiveResidues>
 VAL166  LYS551  ARG553  GLY616  TRP617  ASP618  TYR619  PRO620  LYS621  CYS622 
 ASP623  PHE694  ASN695  SER759  ASP760  ASP761  ALA762  ILE779  LEU786  VAL792 
 PHE793  MET794  SER795  GLU796  ALA797  LYS798  CYS799  TRP800  GLU811  SER814 

> <Gold.Protein.RotatedAtoms>
  152.4295  133.7253  159.6556 H   0  0  0  0  0  0  0  0  0  0  0  0  # atno 6907 bound_to 6896
  150.8173  133.8303  159.3160 H   0  0  0  0  0  0  0  0  0  0  0  0  # atno 6908 bound_to 6896
  151.5996  135.1050  160.0109 H   0  0  0  0  0  0  0  0  0  0  0  0  # atno 6909 bound_to 6896
  144.7127  140.1085  143.6412 H   0  0  0  0  0  0  0  0  0  0  0  0  # atno 7974 bound_to 7965
  156.2126  140.3018  155.9767 H   0  0  0  0  0  0  0  0  0  0  0  0  # atno 8008 bound_to 7997
  155.2686  140.0432  157.3022 H   0  0  0  0  0  0  0  0  0  0  0  0  # atno 8009 bound_to 7997
  154.5721  140.2351  155.8184 H   0  0  0  0  0  0  0  0  0  0  0  0  # atno 8010 bound_to 7997
  140.5576  143.2312  151.6790 H   0  0  0  0  0  0  0  0  0  0  0  0  # atno 10167 bound_to 10162
  156.4726  130.8266  151.2495 H   0  0  0  0  0  0  0  0  0  0  0  0  # atno 10718 bound_to 10713
  154.8698  135.3696  154.4937 H   0  0  0  0  0  0  0  0  0  0  0  0  # atno 10763 bound_to 10752
  153.5582  135.7023  153.5564 H   0  0  0  0  0  0  0  0  0  0  0  0  # atno 10764 bound_to 10752
  153.3652  135.4036  155.1712 H   0  0  0  0  0  0  0  0  0  0  0  0  # atno 10765 bound_to 10752
  139.8831  134.8702  156.3497 H   0  0  0  0  0  0  0  0  0  0  0  0  # atno 11005 bound_to 11000
  145.9475  139.2711  143.1232 LP  0  0  0  0  0  0  0  0  0  0  0  0  # atno 17320 bound_to 7965
  145.9358  140.9015  143.0333 LP  0  0  0  0  0  0  0  0  0  0  0  0  # atno 17321 bound_to 7965
  139.5055  144.3715  152.0465 LP  0  0  0  0  0  0  0  0  0  0  0  0  # atno 17342 bound_to 10162
  140.2838  144.3830  150.6110 LP  0  0  0  0  0  0  0  0  0  0  0  0  # atno 17343 bound_to 10162
  157.7490  131.0071  150.3177 LP  0  0  0  0  0  0  0  0  0  0  0  0  # atno 17370 bound_to 10713
  156.3602  130.3846  149.7257 LP  0  0  0  0  0  0  0  0  0  0  0  0  # atno 17371 bound_to 10713
  140.9602  133.7393  156.0391 LP  0  0  0  0  0  0  0  0  0  0  0  0  # atno 17394 bound_to 11000
  140.7998  134.3521  157.5442 LP  0  0  0  0  0  0  0  0  0  0  0  0  # atno 17395 bound_to 11000

$$$$
