AV-unprocessed.smi:2297|AV-procd|sdf|9223|dock2
  -GOLD-   2272012443D 1   1.00000     0.00000
 Structure written by MMmdl.
 44 45  0  0  0  0  0  0  0  0  1 V2000
  154.3971  139.8238  160.0080 C   0  0  0  0  0  0  0  0  0  0  0  0
  153.7466  141.1259  160.4285 C   0  0  0  0  0  0  0  0  0  0  0  0
  153.8722  141.5888  161.7535 C   0  0  0  0  0  0  0  0  0  0  0  0
  153.2674  142.8011  162.1382 C   0  0  0  0  0  0  0  0  0  0  0  0
  153.4042  143.2911  163.5653 C   0  0  0  0  0  0  0  0  0  0  0  0
  152.5371  143.5496  161.1923 C   0  0  0  0  0  0  0  0  0  0  0  0
  152.4007  143.0998  159.8630 C   0  0  0  0  0  0  0  0  0  0  0  0
  151.6701  143.8956  159.0072 O   0  0  0  0  0  0  0  0  0  0  0  0
  151.5111  143.4695  157.6601 C   0  0  0  0  0  0  0  0  0  0  0  0
  150.6018  142.2311  157.6354 C   0  0  1  0  0  0  0  0  0  0  0  0
  149.2674  142.6958  157.6662 O   0  0  0  0  0  0  0  0  0  0  0  0
  150.8100  141.3764  156.3641 C   0  0  0  0  0  0  0  0  0  0  0  0
  149.5828  140.6653  155.9689 N   0  0  0  0  0  0  0  0  0  0  0  0
  149.0699  139.7447  156.8984 C   0  0  0  0  0  0  0  0  0  0  0  0
  147.9964  139.0650  156.6602 N   0  0  0  0  0  0  0  0  0  0  0  0
  147.3136  139.2416  155.4534 C   0  0  0  0  0  0  0  0  0  0  0  0
  146.0663  138.3941  155.2757 C   0  0  0  0  0  0  0  0  0  0  0  0
  147.7542  140.1223  154.5138 C   0  0  0  0  0  0  0  0  0  0  0  0
  147.0521  140.3555  153.1818 C   0  0  0  0  0  0  0  0  0  0  0  0
  148.9743  140.9043  154.7716 C   0  0  0  0  0  0  0  0  0  0  0  0
  149.4252  141.7217  153.9670 O   0  0  0  0  0  0  0  0  0  0  0  0
  153.0137  141.8779  159.4879 C   0  0  0  0  0  0  0  0  0  0  0  0
  154.8709  139.3234  160.8531 H   0  0  0  0  0  0  0  0  0  0  0  0
  155.1592  140.0098  159.2505 H   0  0  0  0  0  0  0  0  0  0  0  0
  153.6526  139.1475  159.5870 H   0  0  0  0  0  0  0  0  0  0  0  0
  154.4325  141.0150  162.4776 H   0  0  0  0  0  0  0  0  0  0  0  0
  152.9439  144.2707  163.6972 H   0  0  0  0  0  0  0  0  0  0  0  0
  154.4566  143.3707  163.8392 H   0  0  0  0  0  0  0  0  0  0  0  0
  152.9223  142.5933  164.2506 H   0  0  0  0  0  0  0  0  0  0  0  0
  152.0729  144.4800  161.4852 H   0  0  0  0  0  0  0  0  0  0  0  0
  151.0528  144.2722  157.0797 H   0  0  0  0  0  0  0  0  0  0  0  0
  152.4785  143.2356  157.2120 H   0  0  0  0  0  0  0  0  0  0  0  0
  150.7844  141.6432  158.5358 H   0  0  0  0  0  0  0  0  0  0  0  0
  149.1428  143.3024  156.9524 H   0  0  0  0  0  0  0  0  0  0  0  0
  151.2085  141.9855  155.5506 H   0  0  0  0  0  0  0  0  0  0  0  0
  151.5942  140.6385  156.5451 H   0  0  0  0  0  0  0  0  0  0  0  0
  149.6358  139.6519  157.8271 H   0  0  0  0  0  0  0  0  0  0  0  0
  146.1673  137.7424  154.4074 H   0  0  0  0  0  0  0  0  0  0  0  0
  145.1906  139.0285  155.1368 H   0  0  0  0  0  0  0  0  0  0  0  0
  145.8867  137.7640  156.1478 H   0  0  0  0  0  0  0  0  0  0  0  0
  146.7595  141.4019  153.0890 H   0  0  0  0  0  0  0  0  0  0  0  0
  146.1546  139.7521  153.0577 H   0  0  0  0  0  0  0  0  0  0  0  0
  147.7237  140.1173  152.3565 H   0  0  0  0  0  0  0  0  0  0  0  0
  152.9376  141.4975  158.4804 H   0  0  0  0  0  0  0  0  0  0  0  0
  1  2  1  0  0  0  0
  1 23  1  0  0  0  0
  1 24  1  0  0  0  0
  1 25  1  0  0  0  0
  2 22  1  0  0  0  0
  2  3  2  0  0  0  0
  3  4  1  0  0  0  0
  3 26  1  0  0  0  0
  4  5  1  0  0  0  0
  4  6  2  0  0  0  0
  5 27  1  0  0  0  0
  5 28  1  0  0  0  0
  5 29  1  0  0  0  0
  6  7  1  0  0  0  0
  6 30  1  0  0  0  0
  7  8  1  0  0  0  0
  7 22  2  0  0  0  0
  8  9  1  0  0  0  0
  9 10  1  0  0  0  0
  9 31  1  0  0  0  0
  9 32  1  0  0  0  0
 10 11  1  0  0  0  0
 10 12  1  0  0  0  0
 10 33  1  0  0  0  0
 11 34  1  0  0  0  0
 12 13  1  0  0  0  0
 12 35  1  0  0  0  0
 12 36  1  0  0  0  0
 13 20  1  0  0  0  0
 13 14  1  0  0  0  0
 14 15  2  0  0  0  0
 14 37  1  0  0  0  0
 15 16  1  0  0  0  0
 16 17  1  0  0  0  0
 16 18  2  0  0  0  0
 17 38  1  0  0  0  0
 17 39  1  0  0  0  0
 17 40  1  0  0  0  0
 18 19  1  0  0  0  0
 18 20  1  0  0  0  0
 19 41  1  0  0  0  0
 19 42  1  0  0  0  0
 19 43  1  0  0  0  0
 20 21  2  0  0  0  0
 22 44  1  0  0  0  0
M  END
> <s_m_source_file>
AV-unprocessed.smi

> <i_m_source_file_index>
2297

> <i_lp_mmshare_version>
43012

> <i_f3d_flags>
0

> <s_epik_input>
W0NIM11jMVtjSF1jKFtDSDNdKVtjSF1jKFtjSF0xKU9bQ0gyXVtDQEhdKFtPSF0pW0NIMl1uMltjSF1uYyhbQ0gzXSljKFtDSDNdKWMyPU8=

> <s_epik_cmdline>
J2VwaWtfcHl0aG9uJywgJy1waCcsICc3LjAnLCAnLXRuJywgJzgnLCAnLW1hJywgJzIwMCcsICctbWV0YWxfYmluZGluZycsICctaW1hZScsICc8aW5maWxlLm1hZT4nLCAnLW9tYWUnLCAnPG91dGZpbGUubWFlPic=

> <r_lp_tautomer_probability>
1

> <r_epik_Ionization_Penalty>
3.72236e-05

> <r_epik_Ionization_Penalty_Charging>
8.38864e-08

> <r_epik_Ionization_Penalty_Neutral>
3.71397e-05

> <r_epik_State_Penalty>
-0

> <r_epik_Charging_Adjusted_Penalty>
8.38864e-08

> <i_epik_Tot_Q>
0

> <i_epik_Tot_abs_Q>
0

> <r_epik_Metal_State_Penalty>
-0

> <b_epik_Metal_Only>
0

> <s_lp_Force_Field>
OPLS_2005

> <r_lp_Energy>
22.4286

> <b_lp_Chiralities_Consistent>
1

> <s_lp_Variant>
AV-unprocessed.smi:2297-2

> <Gold.Version>
5.8.1

> <Gold.Id.Protein>
6NUR|6NUR_protein|mol2

> <Gold.PLP.Fitness>
49.4580

> <Gold.PLP.PLP>
-45.7464

> <Gold.PLP.part.hbond>
-3.0000

> <Gold.PLP.part.metal>
0.0000

> <Gold.PLP.part.buried>
-3.6231

> <Gold.PLP.part.nonpolar>
-38.6473

> <Gold.PLP.part.repulsive>
0.2717

> <Gold.PLP.ligand.clash>
0.0000

> <Gold.PLP.ligand.torsion>
0.6196

> <Gold.PLP.Chemscore.Hbond>
1.6271

> <Gold.PLP.Chemscore.CHOScore>
0.0000

> <Gold.PLP.Chemscore.Metal>
0.0000

> <Gold.Chemscore.Hbonds>
donor molecule, donor type, donor heavy atom, donor atom, acceptor molecule, acceptor atom, score
      L1  H    11    34       P1  8028  1.00
      P1  H  7989  7998       L1    21  0.02
      P1  H  8011  8017       L1    21  0.58

> <Gold.PLP.Chemscore.Internal.Correction>
0.0696

> <Gold.Rescore>
     Score         DG    S(hbond)    S(metal)    S(lipo)     H(rot)  DE(clash)    DE(int)     intcor
     19.31     -20.10       1.82        0.00     123.91       2.32       0.13       0.66       ----

> <Gold.Chemscore.Fitness>
19.3124

> <Gold.Chemscore.DG>
-20.1022

> <Gold.Chemscore.ZeroCoef>
-5.4800

> <Gold.Chemscore.Hbond>
1.8184

> <Gold.Chemscore.Metal>
0.0000

> <Gold.Chemscore.Lipo>
123.9084

> <Gold.Chemscore.Internal_Hbond>
0.0000

> <Gold.Chemscore.DEClash>
0.1322

> <Gold.Chemscore.DEInternal>
0.6575

> <Gold.Chemscore.Rot>
2.3236

> <Gold.Chemscore.Internal.Correction>
   9.000000E+99

> <Gold.Chemscore.Hbonds>
donor molecule, donor type, donor heavy atom, donor atom, acceptor molecule, acceptor atom, score
      L1  H    11    34       P1  8028  0.88
      P1  H  7989  7998       L1    21  0.01
      P1  H  8011  8017       L1    21  0.58

> <Gold.Chemscore.Hbond.Weighted>
-6.0733

> <Gold.Chemscore.Metal.Weighted>
-0.0000

> <Gold.Chemscore.Lipo.Weighted>
-14.4973

> <Gold.Chemscore.Internal_Hbond.Weighted>
0.0000

> <Gold.Chemscore.DEClash.Weighted>
0.1322

> <Gold.Chemscore.DEInternal.Weighted>
0.6575

> <Gold.Chemscore.Rot.Weighted>
5.9484

> <Gold.Chemscore.Internal.Correction.Weighted>
   9.000000E+99

> <Gold.Protein.RotatedTorsions>
[ 6907 6896 6895 6894 ] final -170.16 input  -60.11 | X-H torsion
[ 7974 7965 7964 7962 ] final  122.05 input  175.53 | X-H torsion
[ 8008 7997 7996 7995 ] final  103.18 input   59.86 | X-H torsion
[ 10167 10162 10161 10158 ] final  158.27 input  -65.29 | X-H torsion
[ 10718 10713 10712 10709 ] final -136.14 input   66.30 | X-H torsion
[ 10763 10752 10751 10750 ] final    5.81 input  -60.55 | X-H torsion
[ 11005 11000 10999 10996 ] final    8.76 input  -57.11 | X-H torsion

> <Gold.Protein.ActiveResidues>
 VAL166  LYS551  ARG553  GLY616  TRP617  ASP618  TYR619  PRO620  LYS621  CYS622 
 ASP623  PHE694  ASN695  SER759  ASP760  ASP761  ALA762  ILE779  LEU786  VAL792 
 PHE793  MET794  SER795  GLU796  ALA797  LYS798  CYS799  TRP800  GLU811  SER814 

> <Gold.Protein.RotatedAtoms>
  151.5033  133.3500  159.2872 H   0  0  0  0  0  0  0  0  0  0  0  0  # atno 6907 bound_to 6896
  150.8759  134.8144  159.7200 H   0  0  0  0  0  0  0  0  0  0  0  0  # atno 6908 bound_to 6896
  152.4730  134.4923  159.9751 H   0  0  0  0  0  0  0  0  0  0  0  0  # atno 6909 bound_to 6896
  145.1122  139.3445  143.4757 H   0  0  0  0  0  0  0  0  0  0  0  0  # atno 7974 bound_to 7965
  156.1461  140.3169  155.8572 H   0  0  0  0  0  0  0  0  0  0  0  0  # atno 8008 bound_to 7997
  155.4062  140.0503  157.3051 H   0  0  0  0  0  0  0  0  0  0  0  0  # atno 8009 bound_to 7997
  154.5017  140.2132  155.9344 H   0  0  0  0  0  0  0  0  0  0  0  0  # atno 8010 bound_to 7997
  139.4826  144.4840  151.8404 H   0  0  0  0  0  0  0  0  0  0  0  0  # atno 10167 bound_to 10162
  156.2738  130.7281  151.1256 H   0  0  0  0  0  0  0  0  0  0  0  0  # atno 10718 bound_to 10713
  153.2550  135.6917  153.7638 H   0  0  0  0  0  0  0  0  0  0  0  0  # atno 10763 bound_to 10752
  153.6719  135.3343  155.3156 H   0  0  0  0  0  0  0  0  0  0  0  0  # atno 10764 bound_to 10752
  154.8409  135.4502  154.1520 H   0  0  0  0  0  0  0  0  0  0  0  0  # atno 10765 bound_to 10752
  140.5333  134.0445  155.7880 H   0  0  0  0  0  0  0  0  0  0  0  0  # atno 11005 bound_to 11000
  146.3525  140.1045  142.8606 LP  0  0  0  0  0  0  0  0  0  0  0  0  # atno 17320 bound_to 7965
  145.0835  140.9237  143.4811 LP  0  0  0  0  0  0  0  0  0  0  0  0  # atno 17321 bound_to 7965
  140.4318  144.2105  150.5888 LP  0  0  0  0  0  0  0  0  0  0  0  0  # atno 17342 bound_to 10162
  140.4771  143.2392  151.9007 LP  0  0  0  0  0  0  0  0  0  0  0  0  # atno 17343 bound_to 10162
  157.7292  131.0625  150.5782 LP  0  0  0  0  0  0  0  0  0  0  0  0  # atno 17370 bound_to 10713
  156.5881  130.4322  149.5948 LP  0  0  0  0  0  0  0  0  0  0  0  0  # atno 17371 bound_to 10713
  141.1269  133.9368  157.2617 LP  0  0  0  0  0  0  0  0  0  0  0  0  # atno 17394 bound_to 11000
  139.9542  135.0169  156.9081 LP  0  0  0  0  0  0  0  0  0  0  0  0  # atno 17395 bound_to 11000

$$$$
