AV-unprocessed.smi:3204|AV-procd|sdf|12253|dock5
  -GOLD-   2272018 83D 1   1.00000     0.00000
 Structure written by MMmdl.
 30 31  0  0  0  0  0  0  0  0  1 V2000
  152.8926  142.5378  161.9320 C   0  0  0  0  0  0  0  0  0  0  0  0
  153.2486  141.8619  160.6029 C   0  0  0  0  0  0  0  0  0  0  0  0
  152.6106  142.5577  159.4149 C   0  0  0  0  0  0  0  0  0  0  0  0
  152.9965  143.8316  159.1778 N   0  0  0  0  0  0  0  0  0  0  0  0
  152.4458  144.4405  158.1251 C   0  0  0  0  0  0  0  0  0  0  0  0
  151.5543  143.9204  157.2775 N   0  0  0  0  0  0  0  0  0  0  0  0
  151.1605  142.6432  157.4988 C   0  0  0  0  0  0  0  0  0  0  0  0
  150.2334  142.0440  156.6340 N   0  0  0  0  0  0  0  0  0  0  0  0
  150.6546  141.3490  155.4228 C   0  0  1  0  0  0  0  0  0  0  0  0
  151.5774  140.1742  155.7510 C   0  0  0  0  0  0  0  0  0  0  0  0
  151.3687  139.2753  154.6774 O   0  0  0  0  0  0  0  0  0  0  0  0
  149.9718  139.2454  154.4288 C   0  0  0  0  0  0  0  0  0  0  0  0
  149.4973  140.6843  154.6697 C   0  0  2  0  0  0  0  0  0  0  0  0
  149.2869  141.3219  153.4261 O   0  0  0  0  0  0  0  0  0  0  0  0
  151.6754  141.9023  158.5844 C   0  0  0  0  0  0  0  0  0  0  0  0
  151.2945  140.6215  158.8131 F   0  0  0  0  0  0  0  0  0  0  0  0
  153.3603  142.0190  162.7690 H   0  0  0  0  0  0  0  0  0  0  0  0
  151.8151  142.5366  162.0996 H   0  0  0  0  0  0  0  0  0  0  0  0
  153.2340  143.5732  161.9490 H   0  0  0  0  0  0  0  0  0  0  0  0
  154.3313  141.8408  160.4761 H   0  0  0  0  0  0  0  0  0  0  0  0
  152.9239  140.8209  160.6219 H   0  0  0  0  0  0  0  0  0  0  0  0
  152.7535  145.4587  157.9391 H   0  0  0  0  0  0  0  0  0  0  0  0
  149.2461  142.1288  156.8291 H   0  0  0  0  0  0  0  0  0  0  0  0
  151.1932  142.0341  154.7657 H   0  0  0  0  0  0  0  0  0  0  0  0
  152.6232  140.4717  155.8315 H   0  0  0  0  0  0  0  0  0  0  0  0
  151.2887  139.6834  156.6825 H   0  0  0  0  0  0  0  0  0  0  0  0
  149.7501  138.8697  153.4290 H   0  0  0  0  0  0  0  0  0  0  0  0
  149.5056  138.5706  155.1483 H   0  0  0  0  0  0  0  0  0  0  0  0
  148.5653  140.6888  155.2368 H   0  0  0  0  0  0  0  0  0  0  0  0
  149.0675  140.6602  152.7875 H   0  0  0  0  0  0  0  0  0  0  0  0
  1  2  1  0  0  0  0
  1 17  1  0  0  0  0
  1 18  1  0  0  0  0
  1 19  1  0  0  0  0
  2  3  1  0  0  0  0
  2 20  1  0  0  0  0
  2 21  1  0  0  0  0
  3 15  1  0  0  0  0
  3  4  2  0  0  0  0
  4  5  1  0  0  0  0
  5  6  2  0  0  0  0
  5 22  1  0  0  0  0
  6  7  1  0  0  0  0
  7  8  1  0  0  0  0
  7 15  2  0  0  0  0
  8  9  1  0  0  0  0
  8 23  1  0  0  0  0
  9 13  1  0  0  0  0
  9 10  1  0  0  0  0
  9 24  1  0  0  0  0
 10 11  1  0  0  0  0
 10 25  1  0  0  0  0
 10 26  1  0  0  0  0
 11 12  1  0  0  0  0
 12 13  1  0  0  0  0
 12 27  1  0  0  0  0
 12 28  1  0  0  0  0
 13 14  1  0  0  0  0
 13 29  1  0  0  0  0
 14 30  1  0  0  0  0
 15 16  1  0  0  0  0
M  END
> <s_m_source_file>
AV-unprocessed.smi

> <i_m_source_file_index>
3204

> <i_lp_mmshare_version>
43012

> <i_f3d_flags>
0

> <s_epik_input>
W0NIM11bQ0gyXWMxbltjSF1uYyhjMUYpW05IXVtDQEBIXTJbQ0gyXU9bQ0gyXVtDQEhdMltPSF0=

> <s_epik_cmdline>
J2VwaWtfcHl0aG9uJywgJy1waCcsICc3LjAnLCAnLXRuJywgJzgnLCAnLW1hJywgJzIwMCcsICctbWV0YWxfYmluZGluZycsICctaW1hZScsICc8aW5maWxlLm1hZT4nLCAnLW9tYWUnLCAnPG91dGZpbGUubWFlPic=

> <r_lp_tautomer_probability>
1

> <r_epik_Ionization_Penalty>
0.000484964

> <r_epik_Ionization_Penalty_Charging>
0

> <r_epik_Ionization_Penalty_Neutral>
0.000484964

> <r_epik_State_Penalty>
-0

> <r_epik_Charging_Adjusted_Penalty>
0

> <i_epik_Tot_Q>
0

> <i_epik_Tot_abs_Q>
0

> <r_epik_Metal_State_Penalty>
-0

> <b_epik_Metal_Only>
0

> <s_lp_Force_Field>
OPLS_2005

> <r_lp_Energy>
13.9367

> <b_lp_Chiralities_Consistent>
1

> <s_lp_Variant>
AV-unprocessed.smi:3204-4

> <Gold.Version>
5.8.1

> <Gold.Id.Protein>
6NUR|6NUR_protein|mol2

> <Gold.PLP.Fitness>
44.9448

> <Gold.PLP.PLP>
-40.8766

> <Gold.PLP.part.hbond>
-4.3531

> <Gold.PLP.part.metal>
0.0000

> <Gold.PLP.part.buried>
-5.4456

> <Gold.PLP.part.nonpolar>
-31.7590

> <Gold.PLP.part.repulsive>
0.8081

> <Gold.PLP.ligand.clash>
0.0000

> <Gold.PLP.ligand.torsion>
0.7673

> <Gold.PLP.Chemscore.Hbond>
1.8640

> <Gold.PLP.Chemscore.CHOScore>
0.0000

> <Gold.PLP.Chemscore.Metal>
0.0000

> <Gold.Chemscore.Hbonds>
donor molecule, donor type, donor heavy atom, donor atom, acceptor molecule, acceptor atom, score
      L1  H    14    30       P1  7957  0.80
      P1  H  7989  7998       L1    11  0.20
      P1  H  8011  8017       L1    14  0.74

> <Gold.PLP.Chemscore.Internal.Correction>
0.0108

> <Gold.Rescore>
     Score         DG    S(hbond)    S(metal)    S(lipo)     H(rot)  DE(clash)    DE(int)     intcor
     11.30     -12.28       0.96        0.00      70.78       1.83       0.21       0.77       ----

> <Gold.Chemscore.Fitness>
11.3040

> <Gold.Chemscore.DG>
-12.2820

> <Gold.Chemscore.ZeroCoef>
-5.4800

> <Gold.Chemscore.Hbond>
0.9627

> <Gold.Chemscore.Metal>
0.0000

> <Gold.Chemscore.Lipo>
70.7756

> <Gold.Chemscore.Internal_Hbond>
0.0000

> <Gold.Chemscore.DEClash>
0.2074

> <Gold.Chemscore.DEInternal>
0.7707

> <Gold.Chemscore.Rot>
1.8337

> <Gold.Chemscore.Internal.Correction>
   9.000000E+99

> <Gold.Chemscore.Hbonds>
donor molecule, donor type, donor heavy atom, donor atom, acceptor molecule, acceptor atom, score
      L1  H    14    30       P1  7957  0.80
      P1  H  8011  8017       L1    14  0.09

> <Gold.Chemscore.Hbond.Weighted>
-3.2155

> <Gold.Chemscore.Metal.Weighted>
-0.0000

> <Gold.Chemscore.Lipo.Weighted>
-8.2807

> <Gold.Chemscore.Internal_Hbond.Weighted>
0.0000

> <Gold.Chemscore.DEClash.Weighted>
0.2074

> <Gold.Chemscore.DEInternal.Weighted>
0.7707

> <Gold.Chemscore.Rot.Weighted>
4.6942

> <Gold.Chemscore.Internal.Correction.Weighted>
   9.000000E+99

> <Gold.Protein.RotatedTorsions>
[ 6907 6896 6895 6894 ] final   28.60 input  -60.11 | X-H torsion
[ 7974 7965 7964 7962 ] final  -19.93 input  175.53 | X-H torsion
[ 8008 7997 7996 7995 ] final   51.03 input   59.86 | X-H torsion
[ 10167 10162 10161 10158 ] final -123.43 input  -65.29 | X-H torsion
[ 10718 10713 10712 10709 ] final -142.41 input   66.30 | X-H torsion
[ 10763 10752 10751 10750 ] final   42.11 input  -60.55 | X-H torsion
[ 11005 11000 10999 10996 ] final  -88.59 input  -57.11 | X-H torsion

> <Gold.Protein.ActiveResidues>
 VAL166  LYS551  ARG553  GLY616  TRP617  ASP618  TYR619  PRO620  LYS621  CYS622 
 ASP623  PHE694  ASN695  SER759  ASP760  ASP761  ALA762  ILE779  LEU786  VAL792 
 PHE793  MET794  SER795  GLU796  ALA797  LYS798  CYS799  TRP800  GLU811  SER814 

> <Gold.Protein.RotatedAtoms>
  152.0193  134.9832  160.0569 H   0  0  0  0  0  0  0  0  0  0  0  0  # atno 6907 bound_to 6896
  152.1353  133.4427  159.4748 H   0  0  0  0  0  0  0  0  0  0  0  0  # atno 6908 bound_to 6896
  150.6860  134.2290  159.4470 H   0  0  0  0  0  0  0  0  0  0  0  0  # atno 6909 bound_to 6896
  146.1815  140.4131  142.8492 H   0  0  0  0  0  0  0  0  0  0  0  0  # atno 7974 bound_to 7965
  155.4285  140.3449  155.4278 H   0  0  0  0  0  0  0  0  0  0  0  0  # atno 8008 bound_to 7997
  156.1350  140.1525  156.9038 H   0  0  0  0  0  0  0  0  0  0  0  0  # atno 8009 bound_to 7997
  154.4925  140.0837  156.7605 H   0  0  0  0  0  0  0  0  0  0  0  0  # atno 8010 bound_to 7997
  140.0036  143.5514  152.2293 H   0  0  0  0  0  0  0  0  0  0  0  0  # atno 10167 bound_to 10162
  156.3456  130.7661  151.1805 H   0  0  0  0  0  0  0  0  0  0  0  0  # atno 10718 bound_to 10713
  152.9891  135.6142  154.2896 H   0  0  0  0  0  0  0  0  0  0  0  0  # atno 10763 bound_to 10752
  154.2622  135.2782  155.2775 H   0  0  0  0  0  0  0  0  0  0  0  0  # atno 10764 bound_to 10752
  154.5196  135.5818  153.6727 H   0  0  0  0  0  0  0  0  0  0  0  0  # atno 10765 bound_to 10752
  141.1599  133.7579  156.9473 H   0  0  0  0  0  0  0  0  0  0  0  0  # atno 11005 bound_to 11000
  144.8324  140.6727  143.6282 LP  0  0  0  0  0  0  0  0  0  0  0  0  # atno 17320 bound_to 7965
  145.4062  139.1588  143.4151 LP  0  0  0  0  0  0  0  0  0  0  0  0  # atno 17321 bound_to 7965
  139.6254  144.7636  151.2650 LP  0  0  0  0  0  0  0  0  0  0  0  0  # atno 17342 bound_to 10162
  140.7409  143.6573  150.8195 LP  0  0  0  0  0  0  0  0  0  0  0  0  # atno 17343 bound_to 10162
  157.7453  131.0442  150.4781 LP  0  0  0  0  0  0  0  0  0  0  0  0  # atno 17370 bound_to 10713
  156.4969  130.4108  149.6375 LP  0  0  0  0  0  0  0  0  0  0  0  0  # atno 17371 bound_to 10713
  140.1281  134.9374  157.2298 LP  0  0  0  0  0  0  0  0  0  0  0  0  # atno 17394 bound_to 11000
  140.2987  134.3156  155.7295 LP  0  0  0  0  0  0  0  0  0  0  0  0  # atno 17395 bound_to 11000

$$$$
