AV-unprocessed.smi:933|AV-procd|sdf|4204|dock8
  -GOLD-   22720 2113D 1   1.00000     0.00000
 Structure written by MMmdl.
 42 43  0  0  0  0  0  0  0  0  1 V2000
  154.3986  138.5174  154.5040 C   0  0  0  0  0  0  0  0  0  0  0  0
  153.4281  139.0900  155.5421 C   0  0  0  0  0  0  0  0  0  0  0  0
  151.9994  138.9295  155.1430 C   0  0  0  0  0  0  0  0  0  0  0  0
  151.1322  139.9435  155.0858 N   0  0  0  0  0  0  0  0  0  0  0  0
  149.8602  139.5427  154.6650 C   0  0  0  0  0  0  0  0  0  0  0  0
  148.7557  140.5508  154.5652 C   0  0  0  0  0  0  0  0  0  0  0  0
  148.2932  141.0383  155.9449 C   0  0  0  0  0  0  0  0  0  0  0  0
  149.1021  142.1690  156.3925 N   0  0  0  0  0  0  0  0  0  0  0  0
  150.2483  142.1189  157.0925 C   0  0  0  0  0  0  0  0  0  0  0  0
  150.7520  141.0522  157.4393 O   0  0  0  0  0  0  0  0  0  0  0  0
  150.7835  143.3196  157.3707 N   0  0  0  0  0  0  0  0  0  0  0  0
  151.9978  143.5454  158.1497 C   0  0  1  0  0  0  0  0  0  0  0  0
  152.2408  145.0559  158.3260 C   0  0  0  0  0  0  0  0  0  0  0  0
  151.9176  145.3657  159.7867 C   0  0  0  0  0  0  0  0  0  0  0  0
  152.2956  144.0858  160.5241 C   0  0  0  0  0  0  0  0  0  0  0  0
  151.8661  142.9602  159.5761 C   0  0  2  0  0  0  0  0  0  0  0  0
  152.6519  141.6585  159.7881 C   0  0  0  0  0  0  0  0  0  0  0  0
  149.7815  138.2018  154.3825 C   0  0  0  0  0  0  0  0  0  0  0  0
  151.3037  137.3938  154.6382 S   0  0  0  0  0  0  0  0  0  0  0  0
  155.4322  138.6486  154.8249 H   0  0  0  0  0  0  0  0  0  0  0  0
  154.2831  139.0154  153.5409 H   0  0  0  0  0  0  0  0  0  0  0  0
  154.2287  137.4512  154.3530 H   0  0  0  0  0  0  0  0  0  0  0  0
  153.5790  138.5974  156.5031 H   0  0  0  0  0  0  0  0  0  0  0  0
  153.6344  140.1494  155.6987 H   0  0  0  0  0  0  0  0  0  0  0  0
  149.0862  141.4027  153.9692 H   0  0  0  0  0  0  0  0  0  0  0  0
  147.9083  140.1211  154.0292 H   0  0  0  0  0  0  0  0  0  0  0  0
  147.2446  141.3374  155.9030 H   0  0  0  0  0  0  0  0  0  0  0  0
  148.3720  140.2242  156.6676 H   0  0  0  0  0  0  0  0  0  0  0  0
  148.7751  143.0848  156.1201 H   0  0  0  0  0  0  0  0  0  0  0  0
  150.2994  144.1405  157.0374 H   0  0  0  0  0  0  0  0  0  0  0  0
  152.8562  143.1173  157.6282 H   0  0  0  0  0  0  0  0  0  0  0  0
  153.2939  145.2725  158.1410 H   0  0  0  0  0  0  0  0  0  0  0  0
  151.6631  145.6736  157.6367 H   0  0  0  0  0  0  0  0  0  0  0  0
  152.4515  146.2403  160.1591 H   0  0  0  0  0  0  0  0  0  0  0  0
  150.8485  145.5530  159.8967 H   0  0  0  0  0  0  0  0  0  0  0  0
  153.3759  144.0615  160.6757 H   0  0  0  0  0  0  0  0  0  0  0  0
  151.8216  144.0120  161.5034 H   0  0  0  0  0  0  0  0  0  0  0  0
  150.8130  142.7570  159.7799 H   0  0  0  0  0  0  0  0  0  0  0  0
  153.7180  141.8036  159.6112 H   0  0  0  0  0  0  0  0  0  0  0  0
  152.3050  140.8776  159.1112 H   0  0  0  0  0  0  0  0  0  0  0  0
  152.5294  141.2909  160.8070 H   0  0  0  0  0  0  0  0  0  0  0  0
  148.9240  137.6421  154.0399 H   0  0  0  0  0  0  0  0  0  0  0  0
  1  2  1  0  0  0  0
  1 20  1  0  0  0  0
  1 21  1  0  0  0  0
  1 22  1  0  0  0  0
  2  3  1  0  0  0  0
  2 23  1  0  0  0  0
  2 24  1  0  0  0  0
  3 19  1  0  0  0  0
  3  4  2  0  0  0  0
  4  5  1  0  0  0  0
  5  6  1  0  0  0  0
  5 18  2  0  0  0  0
  6  7  1  0  0  0  0
  6 25  1  0  0  0  0
  6 26  1  0  0  0  0
  7  8  1  0  0  0  0
  7 27  1  0  0  0  0
  7 28  1  0  0  0  0
  8  9  1  0  0  0  0
  8 29  1  0  0  0  0
  9 10  2  0  0  0  0
  9 11  1  0  0  0  0
 11 12  1  0  0  0  0
 11 30  1  0  0  0  0
 12 16  1  0  0  0  0
 12 13  1  0  0  0  0
 12 31  1  0  0  0  0
 13 14  1  0  0  0  0
 13 32  1  0  0  0  0
 13 33  1  0  0  0  0
 14 15  1  0  0  0  0
 14 34  1  0  0  0  0
 14 35  1  0  0  0  0
 15 16  1  0  0  0  0
 15 36  1  0  0  0  0
 15 37  1  0  0  0  0
 16 17  1  0  0  0  0
 16 38  1  0  0  0  0
 17 39  1  0  0  0  0
 17 40  1  0  0  0  0
 17 41  1  0  0  0  0
 18 19  1  0  0  0  0
 18 42  1  0  0  0  0
M  END
> <s_m_source_file>
AV-unprocessed.smi

> <i_m_source_file_index>
933

> <i_lp_mmshare_version>
43012

> <i_f3d_flags>
0

> <s_epik_input>
W0NIM11bQ0gyXWMxbmMoW2NIXXMxKVtDSDJdW0NIMl1bTkhdQyg9TylbTkhdW0NAQEhdMltDSDJdW0NIMl1bQ0gyXVtDQEhdMltDSDNd

> <s_epik_cmdline>
J2VwaWtfcHl0aG9uJywgJy1waCcsICc3LjAnLCAnLXRuJywgJzgnLCAnLW1hJywgJzIwMCcsICctbWV0YWxfYmluZGluZycsICctaW1hZScsICc8aW5maWxlLm1hZT4nLCAnLW9tYWUnLCAnPG91dGZpbGUubWFlPic=

> <r_epik_Ionization_Penalty>
0.00203408

> <r_epik_Ionization_Penalty_Charging>
0

> <r_epik_Ionization_Penalty_Neutral>
0.00203408

> <r_epik_State_Penalty>
0.0013452

> <r_epik_Charging_Adjusted_Penalty>
0.0013452

> <i_epik_Tot_Q>
0

> <i_epik_Tot_abs_Q>
0

> <r_epik_Metal_State_Penalty>
-0

> <b_epik_Metal_Only>
0

> <s_lp_Force_Field>
OPLS_2005

> <r_lp_Energy>
18.1851

> <b_lp_Chiralities_Consistent>
1

> <s_lp_Variant>
AV-unprocessed.smi:933-4

> <Gold.Version>
5.8.1

> <Gold.Id.Protein>
6NUR|6NUR_protein|mol2

> <Gold.PLP.Fitness>
51.5593

> <Gold.PLP.PLP>
-41.4935

> <Gold.PLP.part.hbond>
-3.0000

> <Gold.PLP.part.metal>
0.0000

> <Gold.PLP.part.buried>
1.4437

> <Gold.PLP.part.nonpolar>
-40.8909

> <Gold.PLP.part.repulsive>
0.1342

> <Gold.PLP.ligand.clash>
0.0000

> <Gold.PLP.ligand.torsion>
0.5029

> <Gold.PLP.Chemscore.Hbond>
2.8320

> <Gold.PLP.Chemscore.CHOScore>
0.8485

> <Gold.PLP.Chemscore.Metal>
0.0000

> <Gold.Chemscore.Hbonds>
donor molecule, donor type, donor heavy atom, donor atom, acceptor molecule, acceptor atom, score
      L1  H     8    29       P1  8028  1.00
      L1  H    11    30       P1  8028  0.84
      P1  H  7989  7998       L1     4  0.90
      L1  C    18    42       P1  7948  0.73

> <Gold.PLP.Chemscore.Internal.Correction>
0.0300

> <Gold.Rescore>
     Score         DG    S(hbond)    S(metal)    S(lipo)     H(rot)  DE(clash)    DE(int)     intcor
     19.63     -26.23       2.69        0.00     134.37       1.55       4.36       2.24       ----

> <Gold.Chemscore.Fitness>
19.6273

> <Gold.Chemscore.DG>
-26.2295

> <Gold.Chemscore.ZeroCoef>
-5.4800

> <Gold.Chemscore.Hbond>
2.6923

> <Gold.Chemscore.Metal>
0.0000

> <Gold.Chemscore.Lipo>
134.3657

> <Gold.Chemscore.Internal_Hbond>
0.0000

> <Gold.Chemscore.DEClash>
4.3589

> <Gold.Chemscore.DEInternal>
2.2432

> <Gold.Chemscore.Rot>
1.5482

> <Gold.Chemscore.Internal.Correction>
   9.000000E+99

> <Gold.Chemscore.Hbonds>
donor molecule, donor type, donor heavy atom, donor atom, acceptor molecule, acceptor atom, score
      L1  H     8    29       P1  8028  0.99
      L1  H    11    30       P1  8028  0.74
      P1  H  7989  7998       L1     4  0.07

> <Gold.Chemscore.Hbond.Weighted>
-8.9922

> <Gold.Chemscore.Metal.Weighted>
-0.0000

> <Gold.Chemscore.Lipo.Weighted>
-15.7208

> <Gold.Chemscore.Internal_Hbond.Weighted>
0.0000

> <Gold.Chemscore.DEClash.Weighted>
4.3589

> <Gold.Chemscore.DEInternal.Weighted>
2.2432

> <Gold.Chemscore.Rot.Weighted>
3.9635

> <Gold.Chemscore.Internal.Correction.Weighted>
   9.000000E+99

> <Gold.Protein.RotatedTorsions>
[ 6907 6896 6895 6894 ] final   31.49 input  -60.11 | X-H torsion
[ 7974 7965 7964 7962 ] final   -9.85 input  175.53 | X-H torsion
[ 8008 7997 7996 7995 ] final   76.45 input   59.86 | X-H torsion
[ 10167 10162 10161 10158 ] final   24.83 input  -65.29 | X-H torsion
[ 10718 10713 10712 10709 ] final -144.48 input   66.30 | X-H torsion
[ 10763 10752 10751 10750 ] final  176.48 input  -60.55 | X-H torsion
[ 11005 11000 10999 10996 ] final  -27.84 input  -57.11 | X-H torsion

> <Gold.Protein.ActiveResidues>
 VAL166  LYS551  ARG553  GLY616  TRP617  ASP618  TYR619  PRO620  LYS621  CYS622 
 ASP623  PHE694  ASN695  SER759  ASP760  ASP761  ALA762  ILE779  LEU786  VAL792 
 PHE793  MET794  SER795  GLU796  ALA797  LYS798  CYS799  TRP800  GLU811  SER814 

> <Gold.Protein.RotatedAtoms>
  152.0610  134.9594  160.0574 H   0  0  0  0  0  0  0  0  0  0  0  0  # atno 6907 bound_to 6896
  152.0957  133.4219  159.4572 H   0  0  0  0  0  0  0  0  0  0  0  0  # atno 6908 bound_to 6896
  150.6838  134.2738  159.4642 H   0  0  0  0  0  0  0  0  0  0  0  0  # atno 6909 bound_to 6896
  146.2239  140.2677  142.8355 H   0  0  0  0  0  0  0  0  0  0  0  0  # atno 7974 bound_to 7965
  155.8276  140.3467  155.5552 H   0  0  0  0  0  0  0  0  0  0  0  0  # atno 8008 bound_to 7997
  155.8276  140.0922  157.1831 H   0  0  0  0  0  0  0  0  0  0  0  0  # atno 8009 bound_to 7997
  154.4004  140.1418  156.3563 H   0  0  0  0  0  0  0  0  0  0  0  0  # atno 8010 bound_to 7997
  140.5156  144.0088  150.6392 H   0  0  0  0  0  0  0  0  0  0  0  0  # atno 10167 bound_to 10162
  156.3706  130.7786  151.1966 H   0  0  0  0  0  0  0  0  0  0  0  0  # atno 10718 bound_to 10713
  154.4816  135.2775  155.1566 H   0  0  0  0  0  0  0  0  0  0  0  0  # atno 10763 bound_to 10752
  154.3274  135.6197  153.5539 H   0  0  0  0  0  0  0  0  0  0  0  0  # atno 10764 bound_to 10752
  152.9876  135.5757  154.5218 H   0  0  0  0  0  0  0  0  0  0  0  0  # atno 10765 bound_to 10752
  140.9155  133.7433  156.0729 H   0  0  0  0  0  0  0  0  0  0  0  0  # atno 11005 bound_to 11000
  144.9292  140.7955  143.5700 LP  0  0  0  0  0  0  0  0  0  0  0  0  # atno 17320 bound_to 7965
  145.2619  139.1989  143.4887 LP  0  0  0  0  0  0  0  0  0  0  0  0  # atno 17321 bound_to 7965
  140.3422  143.3012  152.0576 LP  0  0  0  0  0  0  0  0  0  0  0  0  # atno 17342 bound_to 10162
  139.4908  144.6434  151.6829 LP  0  0  0  0  0  0  0  0  0  0  0  0  # atno 17343 bound_to 10162
  157.7483  131.0373  150.4451 LP  0  0  0  0  0  0  0  0  0  0  0  0  # atno 17370 bound_to 10713
  156.4677  130.4046  149.6537 LP  0  0  0  0  0  0  0  0  0  0  0  0  # atno 17371 bound_to 10713
  140.8055  134.3460  157.5427 LP  0  0  0  0  0  0  0  0  0  0  0  0  # atno 17394 bound_to 11000
  139.8765  134.9223  156.3297 LP  0  0  0  0  0  0  0  0  0  0  0  0  # atno 17395 bound_to 11000

$$$$
