AV-unprocessed.smi:1669|AV-procd|sdf|6692|dock7
  -GOLD-   22720 7423D 1   1.00000     0.00000
 Structure written by MMmdl.
 49 51  0  0  0  0  0  0  0  0  3 V2000
  146.9421  138.8169  151.5335 C   0  0  0  0  0  0  0  0  0  0  0  0
  147.1608  138.1261  152.8261 N   0  3  2  0  0  0  0  0  0  0  0  0
  145.9151  137.5290  153.3730 C   0  0  0  0  0  0  0  0  0  0  0  0
  145.6177  136.1762  152.7525 C   0  0  0  0  0  0  0  0  0  0  0  0
  145.3805  136.0761  151.3651 C   0  0  0  0  0  0  0  0  0  0  0  0
  145.1024  134.8238  150.7834 C   0  0  0  0  0  0  0  0  0  0  0  0
  145.0619  133.6675  151.5861 C   0  0  0  0  0  0  0  0  0  0  0  0
  145.3004  133.7632  152.9707 C   0  0  0  0  0  0  0  0  0  0  0  0
  145.5793  135.0148  153.5533 C   0  0  0  0  0  0  0  0  0  0  0  0
  147.8714  138.9866  153.8060 C   0  0  0  0  0  0  0  0  0  0  0  0
  148.7247  138.1651  154.7931 C   0  0  1  0  0  0  0  0  0  0  0  0
  148.7235  136.8137  154.3762 O   0  0  0  0  0  0  0  0  0  0  0  0
  150.1768  138.6789  154.8555 C   0  0  0  0  0  0  0  0  0  0  0  0
  150.3122  139.9324  155.6139 N   0  0  0  0  0  0  0  0  0  0  0  0
  149.9281  141.2036  155.2984 C   0  0  0  0  0  0  0  0  0  0  0  0
  149.2455  141.6430  154.0417 C   0  0  0  0  0  0  0  0  0  0  0  0
  148.0613  142.3748  154.2781 O   0  0  0  0  0  0  0  0  0  0  0  0
  150.2822  142.0007  156.3471 N   0  3  0  0  0  0  0  0  0  0  0  0
  150.8906  141.2350  157.3419 C   0  0  0  0  0  0  0  0  0  0  0  0
  151.4109  141.5961  158.5808 C   0  0  0  0  0  0  0  0  0  0  0  0
  151.9628  140.5594  159.3616 C   0  0  0  0  0  0  0  0  0  0  0  0
  151.9828  139.2259  158.9033 C   0  0  0  0  0  0  0  0  0  0  0  0
  151.4532  138.8721  157.6445 C   0  0  0  0  0  0  0  0  0  0  0  0
  150.9104  139.9036  156.8789 C   0  0  0  0  0  0  0  0  0  0  0  0
  146.2798  139.6749  151.6561 H   0  0  0  0  0  0  0  0  0  0  0  0
  146.5014  138.1464  150.7960 H   0  0  0  0  0  0  0  0  0  0  0  0
  147.8873  139.1714  151.1208 H   0  0  0  0  0  0  0  0  0  0  0  0
  145.9976  137.3825  154.4499 H   0  0  0  0  0  0  0  0  0  0  0  0
  145.0764  138.2112  153.2251 H   0  0  0  0  0  0  0  0  0  0  0  0
  145.4091  136.9594  150.7436 H   0  0  0  0  0  0  0  0  0  0  0  0
  144.9204  134.7495  149.7212 H   0  0  0  0  0  0  0  0  0  0  0  0
  144.8482  132.7072  151.1399 H   0  0  0  0  0  0  0  0  0  0  0  0
  145.2699  132.8758  153.5858 H   0  0  0  0  0  0  0  0  0  0  0  0
  145.7611  135.0794  154.6162 H   0  0  0  0  0  0  0  0  0  0  0  0
  148.5264  139.6873  153.2851 H   0  0  0  0  0  0  0  0  0  0  0  0
  147.1422  139.5969  154.3413 H   0  0  0  0  0  0  0  0  0  0  0  0
  148.2936  138.2048  155.7927 H   0  0  0  0  0  0  0  0  0  0  0  0
  148.7645  136.7901  153.4319 H   0  0  0  0  0  0  0  0  0  0  0  0
  150.8222  137.9355  155.3253 H   0  0  0  0  0  0  0  0  0  0  0  0
  150.5762  138.8401  153.8534 H   0  0  0  0  0  0  0  0  0  0  0  0
  149.9282  142.2600  153.4575 H   0  0  0  0  0  0  0  0  0  0  0  0
  149.0053  140.7658  153.4406 H   0  0  0  0  0  0  0  0  0  0  0  0
  148.2942  143.2175  154.6378 H   0  0  0  0  0  0  0  0  0  0  0  0
  151.3953  142.6168  158.9344 H   0  0  0  0  0  0  0  0  0  0  0  0
  152.3775  140.7916  160.3321 H   0  0  0  0  0  0  0  0  0  0  0  0
  152.4123  138.4583  159.5310 H   0  0  0  0  0  0  0  0  0  0  0  0
  151.4726  137.8474  157.3043 H   0  0  0  0  0  0  0  0  0  0  0  0
  147.7902  137.3603  152.6307 H   0  0  0  0  0  0  0  0  0  0  0  0
  150.1139  142.9985  156.3742 H   0  0  0  0  0  0  0  0  0  0  0  0
  1  2  1  0  0  0  0
  1 25  1  0  0  0  0
  1 26  1  0  0  0  0
  1 27  1  0  0  0  0
  2  3  1  0  0  0  0
  2 10  1  0  0  0  0
  2 48  1  0  0  0  0
  3  4  1  0  0  0  0
  3 28  1  0  0  0  0
  3 29  1  0  0  0  0
  4  9  1  0  0  0  0
  4  5  2  0  0  0  0
  5  6  1  0  0  0  0
  5 30  1  0  0  0  0
  6  7  2  0  0  0  0
  6 31  1  0  0  0  0
  7  8  1  0  0  0  0
  7 32  1  0  0  0  0
  8  9  2  0  0  0  0
  8 33  1  0  0  0  0
  9 34  1  0  0  0  0
 10 11  1  0  0  0  0
 10 35  1  0  0  0  0
 10 36  1  0  0  0  0
 11 12  1  0  0  0  0
 11 13  1  0  0  0  0
 11 37  1  0  0  0  0
 12 38  1  0  0  0  0
 13 14  1  0  0  0  0
 13 39  1  0  0  0  0
 13 40  1  0  0  0  0
 14 24  1  0  0  0  0
 14 15  1  0  0  0  0
 15 16  1  0  0  0  0
 15 18  2  0  0  0  0
 16 17  1  0  0  0  0
 16 41  1  0  0  0  0
 16 42  1  0  0  0  0
 17 43  1  0  0  0  0
 18 19  1  0  0  0  0
 18 49  1  0  0  0  0
 19 24  2  0  0  0  0
 19 20  1  0  0  0  0
 20 21  2  0  0  0  0
 20 44  1  0  0  0  0
 21 22  1  0  0  0  0
 21 45  1  0  0  0  0
 22 23  2  0  0  0  0
 22 46  1  0  0  0  0
 23 24  1  0  0  0  0
 23 47  1  0  0  0  0
M  CHG  1   2   1
M  CHG  1  18   1
M  END
> <s_m_source_file>
AV-unprocessed.smi

> <i_m_source_file_index>
1669

> <i_lp_mmshare_version>
43012

> <i_f3d_flags>
0

> <s_epik_input>
W2NIXTFbY0hdW2NIXVtjSF1bY0hdYzFbQ0gyXU4oW0NIM10pW0NIMl1bQ0BIXShbT0hdKVtDSDJdbihjKG4yKVtDSDJdW09IXSljKGMyMylbY0hdW2NIXVtjSF1bY0hdMw==

> <s_epik_cmdline>
J2VwaWtfcHl0aG9uJywgJy1waCcsICc3LjAnLCAnLXRuJywgJzgnLCAnLW1hJywgJzIwMCcsICctbWV0YWxfYmluZGluZycsICctaW1hZScsICc8aW5maWxlLm1hZT4nLCAnLW9tYWUnLCAnPG91dGZpbGUubWFlPic=

> <r_epik_Ionization_Penalty>
1.57484

> <r_epik_Ionization_Penalty_Charging>
1.57398

> <r_epik_Ionization_Penalty_Neutral>
0.000858917

> <r_epik_State_Penalty>
1.64997

> <r_epik_Charging_Adjusted_Penalty>
3.22395

> <i_epik_Tot_Q>
2

> <i_epik_Tot_abs_Q>
2

> <r_epik_Metal_State_Penalty>
5.70481

> <b_epik_Metal_Only>
0

> <s_lp_Force_Field>
OPLS_2005

> <r_lp_Energy>
22.4556

> <b_lp_Chiralities_Consistent>
1

> <s_lp_Variant>
AV-unprocessed.smi:1669-10

> <Gold.Version>
5.8.1

> <Gold.Id.Protein>
6NUR|6NUR_protein|mol2

> <Gold.PLP.Fitness>
56.8331

> <Gold.PLP.PLP>
-41.6518

> <Gold.PLP.part.hbond>
-3.5686

> <Gold.PLP.part.metal>
0.0000

> <Gold.PLP.part.buried>
-1.9504

> <Gold.PLP.part.nonpolar>
-37.0341

> <Gold.PLP.part.repulsive>
0.1325

> <Gold.PLP.ligand.clash>
0.0000

> <Gold.PLP.ligand.torsion>
1.6168

> <Gold.PLP.Chemscore.Hbond>
5.9840

> <Gold.PLP.Chemscore.CHOScore>
0.0000

> <Gold.PLP.Chemscore.Metal>
0.0000

> <Gold.Chemscore.Hbonds>
donor molecule, donor type, donor heavy atom, donor atom, acceptor molecule, acceptor atom, score
      L1  H     2    48       P1  7948  2.00
      L1  H    12    38       P1  7948  1.00
      L1  H    17    43       P1  8028  1.00
      L1  H    18    49       P1  8028  0.97

> <Gold.PLP.Chemscore.Internal.Correction>
0.4628

> <Gold.Rescore>
     Score         DG    S(hbond)    S(metal)    S(lipo)     H(rot)  DE(clash)    DE(int)     intcor
     17.14     -20.78       3.59        0.00      99.82       3.27       1.71       1.93       ----

> <Gold.Chemscore.Fitness>
17.1410

> <Gold.Chemscore.DG>
-20.7831

> <Gold.Chemscore.ZeroCoef>
-5.4800

> <Gold.Chemscore.Hbond>
3.5930

> <Gold.Chemscore.Metal>
0.0000

> <Gold.Chemscore.Lipo>
99.8167

> <Gold.Chemscore.Internal_Hbond>
0.0000

> <Gold.Chemscore.DEClash>
1.7139

> <Gold.Chemscore.DEInternal>
1.9282

> <Gold.Chemscore.Rot>
3.2718

> <Gold.Chemscore.Internal.Correction>
   9.000000E+99

> <Gold.Chemscore.Hbonds>
donor molecule, donor type, donor heavy atom, donor atom, acceptor molecule, acceptor atom, score
      L1  H     2    48       P1  7948  1.00
      L1  H    12    38       P1  7948  1.00
      L1  H    17    43       P1  8028  0.99
      L1  H    18    49       P1  8028  0.46

> <Gold.Chemscore.Hbond.Weighted>
-12.0005

> <Gold.Chemscore.Metal.Weighted>
-0.0000

> <Gold.Chemscore.Lipo.Weighted>
-11.6786

> <Gold.Chemscore.Internal_Hbond.Weighted>
0.0000

> <Gold.Chemscore.DEClash.Weighted>
1.7139

> <Gold.Chemscore.DEInternal.Weighted>
1.9282

> <Gold.Chemscore.Rot.Weighted>
8.3759

> <Gold.Chemscore.Internal.Correction.Weighted>
   9.000000E+99

> <Gold.Protein.RotatedTorsions>
[ 6907 6896 6895 6894 ] final -117.92 input  -60.11 | X-H torsion
[ 7974 7965 7964 7962 ] final   52.51 input  175.53 | X-H torsion
[ 8008 7997 7996 7995 ] final  106.66 input   59.86 | X-H torsion
[ 10167 10162 10161 10158 ] final   38.25 input  -65.29 | X-H torsion
[ 10718 10713 10712 10709 ] final  -65.96 input   66.30 | X-H torsion
[ 10763 10752 10751 10750 ] final  146.35 input  -60.55 | X-H torsion
[ 11005 11000 10999 10996 ] final  -97.54 input  -57.11 | X-H torsion

> <Gold.Protein.ActiveResidues>
 VAL166  LYS551  ARG553  GLY616  TRP617  ASP618  TYR619  PRO620  LYS621  CYS622 
 ASP623  PHE694  ASN695  SER759  ASP760  ASP761  ALA762  ILE779  LEU786  VAL792 
 PHE793  MET794  SER795  GLU796  ALA797  LYS798  CYS799  TRP800  GLU811  SER814 

> <Gold.Protein.RotatedAtoms>
  150.8177  133.8308  159.3152 H   0  0  0  0  0  0  0  0  0  0  0  0  # atno 6907 bound_to 6896
  151.6075  135.1041  160.0083 H   0  0  0  0  0  0  0  0  0  0  0  0  # atno 6908 bound_to 6896
  152.4267  133.7167  159.6567 H   0  0  0  0  0  0  0  0  0  0  0  0  # atno 6909 bound_to 6896
  145.9806  139.4239  143.0134 H   0  0  0  0  0  0  0  0  0  0  0  0  # atno 7974 bound_to 7965
  156.1761  140.3109  155.9062 H   0  0  0  0  0  0  0  0  0  0  0  0  # atno 8008 bound_to 7997
  155.3484  140.0469  157.3063 H   0  0  0  0  0  0  0  0  0  0  0  0  # atno 8009 bound_to 7997
  154.5292  140.2224  155.8845 H   0  0  0  0  0  0  0  0  0  0  0  0  # atno 8010 bound_to 7997
  140.3955  144.1795  150.6132 H   0  0  0  0  0  0  0  0  0  0  0  0  # atno 10167 bound_to 10162
  156.0639  130.4255  150.1639 H   0  0  0  0  0  0  0  0  0  0  0  0  # atno 10718 bound_to 10713
  154.0205  135.2906  155.3381 H   0  0  0  0  0  0  0  0  0  0  0  0  # atno 10763 bound_to 10752
  154.7049  135.5173  153.8583 H   0  0  0  0  0  0  0  0  0  0  0  0  # atno 10764 bound_to 10752
  153.0683  135.6639  154.0427 H   0  0  0  0  0  0  0  0  0  0  0  0  # atno 10765 bound_to 10752
  141.1375  133.8179  157.0720 H   0  0  0  0  0  0  0  0  0  0  0  0  # atno 11005 bound_to 11000
  145.7775  140.9870  143.1117 LP  0  0  0  0  0  0  0  0  0  0  0  0  # atno 17320 bound_to 7965
  144.6860  139.9523  143.7478 LP  0  0  0  0  0  0  0  0  0  0  0  0  # atno 17321 bound_to 7965
  140.4795  143.2384  151.8975 LP  0  0  0  0  0  0  0  0  0  0  0  0  # atno 17342 bound_to 10162
  139.4787  144.5284  151.8701 LP  0  0  0  0  0  0  0  0  0  0  0  0  # atno 17343 bound_to 10162
  156.9703  130.9832  151.3460 LP  0  0  0  0  0  0  0  0  0  0  0  0  # atno 17370 bound_to 10713
  157.5668  130.8283  149.8338 LP  0  0  0  0  0  0  0  0  0  0  0  0  # atno 17371 bound_to 10713
  140.0505  134.9808  157.1128 LP  0  0  0  0  0  0  0  0  0  0  0  0  # atno 17394 bound_to 11000
  140.3997  134.2096  155.7164 LP  0  0  0  0  0  0  0  0  0  0  0  0  # atno 17395 bound_to 11000

$$$$
