AV-unprocessed.smi:2690|AV-procd|sdf|10388|dock1
  -GOLD-   2272014423D 1   1.00000     0.00000
 Structure written by MMmdl.
 47 49  0  0  0  0  0  0  0  0  1 V2000
  152.7500  143.1746  161.5947 C   0  0  0  0  0  0  0  0  0  0  0  0
  152.4526  143.0695  160.0922 C   0  0  2  0  0  0  0  0  0  0  0  0
  151.0939  143.6991  159.7401 C   0  0  0  0  0  0  0  0  0  0  0  0
  150.7966  143.6079  158.2328 C   0  0  0  0  0  0  0  0  0  0  0  0
  150.8832  142.1633  157.6808 C   0  0  1  0  0  0  0  0  0  0  0  0
  149.8208  141.4099  158.2396 O   0  0  0  0  0  0  0  0  0  0  0  0
  150.7366  142.1132  156.1390 C   0  0  0  0  0  0  0  0  0  0  0  0
  150.5561  140.7734  155.6010 N   0  0  0  0  0  0  0  0  0  0  0  0
  149.4174  140.2704  155.0117 C   0  0  0  0  0  0  0  0  0  0  0  0
  149.5002  139.0332  154.6036 N   0  0  0  0  0  0  0  0  0  0  0  0
  150.7914  138.6527  154.9461 C   0  0  0  0  0  0  0  0  0  0  0  0
  151.5375  137.4557  154.7920 C   0  0  0  0  0  0  0  0  0  0  0  0
  150.9927  136.3677  154.2029 N   0  0  0  0  0  0  0  0  0  0  0  0
  151.3407  135.0161  154.6319 C   0  0  0  0  0  0  0  0  0  0  0  0
  150.5406  133.9608  153.8501 C   0  0  0  0  0  0  0  0  0  0  0  0
  151.1105  134.8717  156.1418 C   0  0  0  0  0  0  0  0  0  0  0  0
  152.8133  137.4419  155.2603 N   0  0  0  0  0  0  0  0  0  0  0  0
  153.3257  138.5310  155.8423 C   0  0  0  0  0  0  0  0  0  0  0  0
  152.7470  139.7155  156.0534 N   0  0  0  0  0  0  0  0  0  0  0  0
  151.4674  139.7315  155.5812 C   0  0  0  0  0  0  0  0  0  0  0  0
  152.2163  141.5025  158.1007 C   0  0  0  0  0  0  0  0  0  0  0  0
  152.4961  141.6091  159.6103 C   0  0  0  0  0  0  0  0  0  0  0  0
  152.0025  142.6436  162.1850 H   0  0  0  0  0  0  0  0  0  0  0  0
  152.7560  144.2144  161.9225 H   0  0  0  0  0  0  0  0  0  0  0  0
  153.7254  142.7493  161.8326 H   0  0  0  0  0  0  0  0  0  0  0  0
  153.2299  143.6235  159.5637 H   0  0  0  0  0  0  0  0  0  0  0  0
  150.3007  143.2034  160.3012 H   0  0  0  0  0  0  0  0  0  0  0  0
  151.0780  144.7451  160.0480 H   0  0  0  0  0  0  0  0  0  0  0  0
  149.8128  144.0365  158.0388 H   0  0  0  0  0  0  0  0  0  0  0  0
  151.5108  144.2367  157.6995 H   0  0  0  0  0  0  0  0  0  0  0  0
  149.6118  140.7039  157.6473 H   0  0  0  0  0  0  0  0  0  0  0  0
  149.8876  142.7215  155.8246 H   0  0  0  0  0  0  0  0  0  0  0  0
  151.6145  142.5522  155.6624 H   0  0  0  0  0  0  0  0  0  0  0  0
  148.5184  140.8571  154.8892 H   0  0  0  0  0  0  0  0  0  0  0  0
  150.4039  136.4283  153.3847 H   0  0  0  0  0  0  0  0  0  0  0  0
  152.4038  134.8507  154.4534 H   0  0  0  0  0  0  0  0  0  0  0  0
  150.8071  132.9528  154.1683 H   0  0  0  0  0  0  0  0  0  0  0  0
  150.7321  134.0241  152.7788 H   0  0  0  0  0  0  0  0  0  0  0  0
  149.4680  134.0842  154.0024 H   0  0  0  0  0  0  0  0  0  0  0  0
  151.3915  133.8767  156.4878 H   0  0  0  0  0  0  0  0  0  0  0  0
  150.0638  135.0314  156.4031 H   0  0  0  0  0  0  0  0  0  0  0  0
  151.7077  135.5935  156.7002 H   0  0  0  0  0  0  0  0  0  0  0  0
  154.3447  138.4404  156.1883 H   0  0  0  0  0  0  0  0  0  0  0  0
  152.2280  140.4538  157.8004 H   0  0  0  0  0  0  0  0  0  0  0  0
  153.0374  141.9782  157.5628 H   0  0  0  0  0  0  0  0  0  0  0  0
  153.4722  141.1745  159.8284 H   0  0  0  0  0  0  0  0  0  0  0  0
  151.7669  141.0151  160.1632 H   0  0  0  0  0  0  0  0  0  0  0  0
  1  2  1  0  0  0  0
  1 23  1  0  0  0  0
  1 24  1  0  0  0  0
  1 25  1  0  0  0  0
  2 22  1  0  0  0  0
  2  3  1  0  0  0  0
  2 26  1  0  0  0  0
  3  4  1  0  0  0  0
  3 27  1  0  0  0  0
  3 28  1  0  0  0  0
  4  5  1  0  0  0  0
  4 29  1  0  0  0  0
  4 30  1  0  0  0  0
  5  6  1  0  0  0  0
  5  7  1  0  0  0  0
  5 21  1  0  0  0  0
  6 31  1  0  0  0  0
  7  8  1  0  0  0  0
  7 32  1  0  0  0  0
  7 33  1  0  0  0  0
  8 20  1  0  0  0  0
  8  9  1  0  0  0  0
  9 10  2  0  0  0  0
  9 34  1  0  0  0  0
 10 11  1  0  0  0  0
 11 20  2  0  0  0  0
 11 12  1  0  0  0  0
 12 13  1  0  0  0  0
 12 17  2  0  0  0  0
 13 14  1  0  0  0  0
 13 35  1  0  0  0  0
 14 15  1  0  0  0  0
 14 16  1  0  0  0  0
 14 36  1  0  0  0  0
 15 37  1  0  0  0  0
 15 38  1  0  0  0  0
 15 39  1  0  0  0  0
 16 40  1  0  0  0  0
 16 41  1  0  0  0  0
 16 42  1  0  0  0  0
 17 18  1  0  0  0  0
 18 19  2  0  0  0  0
 18 43  1  0  0  0  0
 19 20  1  0  0  0  0
 21 22  1  0  0  0  0
 21 44  1  0  0  0  0
 21 45  1  0  0  0  0
 22 46  1  0  0  0  0
 22 47  1  0  0  0  0
M  END
> <s_m_source_file>
AV-unprocessed.smi

> <i_m_source_file_index>
2690

> <i_lp_mmshare_version>
43012

> <i_f3d_flags>
0

> <s_epik_input>
W0NIMl0xW0NIMl1bQ0BIXShbQ0gzXSlbQ0gyXVtDSDJdW0NAQF0xKFtPSF0pW0NIMl1uKFtjSF1uMiljKGMyMyluW2NIXW5jM1tOSF1bQ0hdKFtDSDNdKVtDSDNd

> <s_epik_cmdline>
J2VwaWtfcHl0aG9uJywgJy1waCcsICc3LjAnLCAnLXRuJywgJzgnLCAnLW1hJywgJzIwMCcsICctbWV0YWxfYmluZGluZycsICctaW1hZScsICc8aW5maWxlLm1hZT4nLCAnLW9tYWUnLCAnPG91dGZpbGUubWFlPic=

> <r_lp_tautomer_probability>
1

> <r_epik_Ionization_Penalty>
0.00225104

> <r_epik_Ionization_Penalty_Charging>
0

> <r_epik_Ionization_Penalty_Neutral>
0.00225104

> <r_epik_State_Penalty>
-0

> <r_epik_Charging_Adjusted_Penalty>
0

> <i_epik_Tot_Q>
0

> <i_epik_Tot_abs_Q>
0

> <r_epik_Metal_State_Penalty>
-0

> <b_epik_Metal_Only>
0

> <s_lp_Force_Field>
OPLS_2005

> <r_lp_Energy>
15.1895

> <b_lp_Chiralities_Consistent>
1

> <s_lp_Variant>
AV-unprocessed.smi:2690-1

> <Gold.Version>
5.8.1

> <Gold.Id.Protein>
6NUR|6NUR_protein|mol2

> <Gold.PLP.Fitness>
52.5584

> <Gold.PLP.PLP>
-44.5267

> <Gold.PLP.part.hbond>
-3.9514

> <Gold.PLP.part.metal>
0.0000

> <Gold.PLP.part.buried>
-5.8269

> <Gold.PLP.part.nonpolar>
-35.1876

> <Gold.PLP.part.repulsive>
0.2389

> <Gold.PLP.ligand.clash>
0.0000

> <Gold.PLP.ligand.torsion>
0.3865

> <Gold.PLP.Chemscore.Hbond>
2.9120

> <Gold.PLP.Chemscore.CHOScore>
0.0000

> <Gold.PLP.Chemscore.Metal>
0.0000

> <Gold.Chemscore.Hbonds>
donor molecule, donor type, donor heavy atom, donor atom, acceptor molecule, acceptor atom, score
      L1  H    13    35       P1  7948  0.24
      P1  H  7997  8009       L1    19  0.05
      P1  H 10752 10763       L1    17  0.30

> <Gold.PLP.Chemscore.Internal.Correction>
0.0687

> <Gold.Rescore>
     Score         DG    S(hbond)    S(metal)    S(lipo)     H(rot)  DE(clash)    DE(int)     intcor
     16.09     -18.27       1.98        0.00      97.65       2.05       0.33       1.84       ----

> <Gold.Chemscore.Fitness>
16.0932

> <Gold.Chemscore.DG>
-18.2667

> <Gold.Chemscore.ZeroCoef>
-5.4800

> <Gold.Chemscore.Hbond>
1.9810

> <Gold.Chemscore.Metal>
0.0000

> <Gold.Chemscore.Lipo>
97.6490

> <Gold.Chemscore.Internal_Hbond>
0.0000

> <Gold.Chemscore.DEClash>
0.3348

> <Gold.Chemscore.DEInternal>
1.8387

> <Gold.Chemscore.Rot>
2.0526

> <Gold.Chemscore.Internal.Correction>
   9.000000E+99

> <Gold.Chemscore.Hbonds>
donor molecule, donor type, donor heavy atom, donor atom, acceptor molecule, acceptor atom, score
      P1  H 10752 10763       L1    17  0.03

> <Gold.Chemscore.Hbond.Weighted>
-6.6164

> <Gold.Chemscore.Metal.Weighted>
-0.0000

> <Gold.Chemscore.Lipo.Weighted>
-11.4249

> <Gold.Chemscore.Internal_Hbond.Weighted>
0.0000

> <Gold.Chemscore.DEClash.Weighted>
0.3348

> <Gold.Chemscore.DEInternal.Weighted>
1.8387

> <Gold.Chemscore.Rot.Weighted>
5.2546

> <Gold.Chemscore.Internal.Correction.Weighted>
   9.000000E+99

> <Gold.Protein.RotatedTorsions>
[ 6907 6896 6895 6894 ] final  123.65 input  -60.11 | X-H torsion
[ 7974 7965 7964 7962 ] final -158.38 input  175.53 | X-H torsion
[ 8008 7997 7996 7995 ] final -173.32 input   59.86 | X-H torsion
[ 10167 10162 10161 10158 ] final   77.32 input  -65.29 | X-H torsion
[ 10718 10713 10712 10709 ] final  151.74 input   66.30 | X-H torsion
[ 10763 10752 10751 10750 ] final   78.03 input  -60.55 | X-H torsion
[ 11005 11000 10999 10996 ] final   61.15 input  -57.11 | X-H torsion

> <Gold.Protein.ActiveResidues>
 VAL166  LYS551  ARG553  GLY616  TRP617  ASP618  TYR619  PRO620  LYS621  CYS622 
 ASP623  PHE694  ASN695  SER759  ASP760  ASP761  ALA762  ILE779  LEU786  VAL792 
 PHE793  MET794  SER795  GLU796  ALA797  LYS798  CYS799  TRP800  GLU811  SER814 

> <Gold.Protein.RotatedAtoms>
  152.4144  133.7015  159.6426 H   0  0  0  0  0  0  0  0  0  0  0  0  # atno 6907 bound_to 6896
  150.8022  133.8566  159.3229 H   0  0  0  0  0  0  0  0  0  0  0  0  # atno 6908 bound_to 6896
  151.6299  135.1026  160.0171 H   0  0  0  0  0  0  0  0  0  0  0  0  # atno 6909 bound_to 6896
  144.7508  140.3836  143.6049 H   0  0  0  0  0  0  0  0  0  0  0  0  # atno 7974 bound_to 7965
  155.9559  140.1135  157.0937 H   0  0  0  0  0  0  0  0  0  0  0  0  # atno 8008 bound_to 7997
  154.4120  140.1191  156.5180 H   0  0  0  0  0  0  0  0  0  0  0  0  # atno 8009 bound_to 7997
  155.6783  140.3473  155.4847 H   0  0  0  0  0  0  0  0  0  0  0  0  # atno 8010 bound_to 7997
  139.9828  144.5814  150.7885 H   0  0  0  0  0  0  0  0  0  0  0  0  # atno 10167 bound_to 10162
  157.2668  131.0809  151.1628 H   0  0  0  0  0  0  0  0  0  0  0  0  # atno 10718 bound_to 10713
  153.0843  135.4892  154.8565 H   0  0  0  0  0  0  0  0  0  0  0  0  # atno 10763 bound_to 10752
  154.7191  135.3035  154.9079 H   0  0  0  0  0  0  0  0  0  0  0  0  # atno 10764 bound_to 10752
  153.9749  135.6797  153.4801 H   0  0  0  0  0  0  0  0  0  0  0  0  # atno 10765 bound_to 10752
  140.0181  134.6194  155.9679 H   0  0  0  0  0  0  0  0  0  0  0  0  # atno 11005 bound_to 11000
  145.6951  139.1648  143.2624 LP  0  0  0  0  0  0  0  0  0  0  0  0  # atno 17320 bound_to 7965
  146.1455  140.6998  142.9347 LP  0  0  0  0  0  0  0  0  0  0  0  0  # atno 17321 bound_to 7965
  140.7483  143.2920  151.3306 LP  0  0  0  0  0  0  0  0  0  0  0  0  # atno 17342 bound_to 10162
  139.6397  144.0563  152.2544 LP  0  0  0  0  0  0  0  0  0  0  0  0  # atno 17343 bound_to 10162
  157.3116  130.6892  149.6219 LP  0  0  0  0  0  0  0  0  0  0  0  0  # atno 17370 bound_to 10713
  155.9663  130.4362  150.5123 LP  0  0  0  0  0  0  0  0  0  0  0  0  # atno 17371 bound_to 10713
  141.1756  133.6540  156.4817 LP  0  0  0  0  0  0  0  0  0  0  0  0  # atno 17394 bound_to 11000
  140.4435  134.6994  157.5003 LP  0  0  0  0  0  0  0  0  0  0  0  0  # atno 17395 bound_to 11000

$$$$
