AV-unprocessed.smi:350|AV-procd|sdf|2399|dock6
  -GOLD-   2262022333D 1   1.00000     0.00000
 Structure written by MMmdl.
 35 36  0  0  0  0  0  0  0  0  1 V2000
  149.9392  144.1127  159.2286 C   0  0  0  0  0  0  0  0  0  0  0  0
  150.8567  142.9364  159.0304 C   0  0  0  0  0  0  0  0  0  0  0  0
  150.4950  142.0592  158.1529 N   0  0  0  0  0  0  0  0  0  0  0  0
  151.2607  140.9393  157.8968 N   0  0  0  0  0  0  0  0  0  0  0  0
  150.6922  140.0510  156.8751 C   0  0  0  0  0  0  0  0  0  0  0  0
  150.5100  140.7604  155.5152 C   0  0  1  0  0  0  0  0  0  0  0  0
  150.8167  139.8459  154.4810 O   0  0  0  0  0  0  0  0  0  0  0  0
  149.0972  141.3053  155.3687 C   0  0  0  0  0  0  0  0  0  0  0  0
  148.2743  141.4857  156.5027 C   0  0  0  0  0  0  0  0  0  0  0  0
  146.9702  141.9981  156.3601 C   0  0  0  0  0  0  0  0  0  0  0  0
  146.4811  142.3346  155.0830 C   0  0  0  0  0  0  0  0  0  0  0  0
  144.8836  142.9626  154.9075 Cl  0  0  0  0  0  0  0  0  0  0  0  0
  147.2983  142.1600  153.9494 C   0  0  0  0  0  0  0  0  0  0  0  0
  148.6027  141.6485  154.0920 C   0  0  0  0  0  0  0  0  0  0  0  0
  152.4397  140.6463  158.5164 C   0  0  0  0  0  0  0  0  0  0  0  0
  153.0888  139.6311  158.2596 O   0  0  0  0  0  0  0  0  0  0  0  0
  152.8464  141.6460  159.5068 C   0  0  0  0  0  0  0  0  0  0  0  0
  154.0768  141.3782  160.1791 C   0  0  0  0  0  0  0  0  0  0  0  0
  155.0739  141.1796  160.7326 N   0  0  0  0  0  0  0  0  0  0  0  0
  152.1022  142.7500  159.7677 C   0  0  0  0  0  0  0  0  0  0  0  0
  152.4793  143.8175  160.7858 C   0  0  0  0  0  0  0  0  0  0  0  0
  149.5781  144.1522  160.2563 H   0  0  0  0  0  0  0  0  0  0  0  0
  149.0663  144.0621  158.5761 H   0  0  0  0  0  0  0  0  0  0  0  0
  150.4563  145.0480  159.0141 H   0  0  0  0  0  0  0  0  0  0  0  0
  151.2958  139.1486  156.7576 H   0  0  0  0  0  0  0  0  0  0  0  0
  149.7236  139.6959  157.2325 H   0  0  0  0  0  0  0  0  0  0  0  0
  151.2071  141.5949  155.4308 H   0  0  0  0  0  0  0  0  0  0  0  0
  150.0222  139.3993  154.2316 H   0  0  0  0  0  0  0  0  0  0  0  0
  148.6418  141.2335  157.4868 H   0  0  0  0  0  0  0  0  0  0  0  0
  146.3468  142.1330  157.2318 H   0  0  0  0  0  0  0  0  0  0  0  0
  146.9260  142.4191  152.9690 H   0  0  0  0  0  0  0  0  0  0  0  0
  149.2222  141.5221  153.2161 H   0  0  0  0  0  0  0  0  0  0  0  0
  153.4078  143.5830  161.3055 H   0  0  0  0  0  0  0  0  0  0  0  0
  151.6996  143.9206  161.5411 H   0  0  0  0  0  0  0  0  0  0  0  0
  152.6130  144.7820  160.2950 H   0  0  0  0  0  0  0  0  0  0  0  0
  1  2  1  0  0  0  0
  1 22  1  0  0  0  0
  1 23  1  0  0  0  0
  1 24  1  0  0  0  0
  2 20  1  0  0  0  0
  2  3  2  0  0  0  0
  3  4  1  0  0  0  0
  4  5  1  0  0  0  0
  4 15  1  0  0  0  0
  5  6  1  0  0  0  0
  5 25  1  0  0  0  0
  5 26  1  0  0  0  0
  6  7  1  0  0  0  0
  6  8  1  0  0  0  0
  6 27  1  0  0  0  0
  7 28  1  0  0  0  0
  8 14  1  0  0  0  0
  8  9  2  0  0  0  0
  9 10  1  0  0  0  0
  9 29  1  0  0  0  0
 10 11  2  0  0  0  0
 10 30  1  0  0  0  0
 11 12  1  0  0  0  0
 11 13  1  0  0  0  0
 13 14  2  0  0  0  0
 13 31  1  0  0  0  0
 14 32  1  0  0  0  0
 15 16  2  0  0  0  0
 15 17  1  0  0  0  0
 17 18  1  0  0  0  0
 17 20  2  0  0  0  0
 18 19  3  0  0  0  0
 20 21  1  0  0  0  0
 21 33  1  0  0  0  0
 21 34  1  0  0  0  0
 21 35  1  0  0  0  0
M  END
> <s_m_source_file>
AV-unprocessed.smi

> <i_m_source_file_index>
350

> <i_lp_mmshare_version>
43012

> <i_f3d_flags>
0

> <s_epik_input>
TiNDYyhjMVtDSDNdKWMoPU8pbihuYzFbQ0gzXSlbQ0gyXVtDQEhdKFtPSF0pYzJbY0hdW2NIXWMoQ2wpW2NIXVtjSF0y

> <s_epik_cmdline>
J2VwaWtfcHl0aG9uJywgJy1waCcsICc3LjAnLCAnLXRuJywgJzgnLCAnLW1hJywgJzIwMCcsICctbWV0YWxfYmluZGluZycsICctaW1hZScsICc8aW5maWxlLm1hZT4nLCAnLW9tYWUnLCAnPG91dGZpbGUubWFlPic=

> <r_lp_tautomer_probability>
1

> <r_epik_Ionization_Penalty>
1.17315e-07

> <r_epik_Ionization_Penalty_Charging>
1.40848e-10

> <r_epik_Ionization_Penalty_Neutral>
1.17174e-07

> <r_epik_State_Penalty>
-0

> <r_epik_Charging_Adjusted_Penalty>
1.40848e-10

> <i_epik_Tot_Q>
0

> <i_epik_Tot_abs_Q>
0

> <r_epik_Metal_State_Penalty>
-0

> <b_epik_Metal_Only>
0

> <s_lp_Force_Field>
OPLS_2005

> <r_lp_Energy>
28.138

> <b_lp_Chiralities_Consistent>
1

> <s_lp_Variant>
AV-unprocessed.smi:350-2

> <Gold.Version>
5.8.1

> <Gold.Id.Protein>
6NUR|6NUR_protein|mol2

> <Gold.PLP.Fitness>
46.0498

> <Gold.PLP.PLP>
-42.0677

> <Gold.PLP.part.hbond>
-3.0000

> <Gold.PLP.part.metal>
0.0000

> <Gold.PLP.part.buried>
-5.4374

> <Gold.PLP.part.nonpolar>
-34.6419

> <Gold.PLP.part.repulsive>
0.0656

> <Gold.PLP.ligand.clash>
0.0000

> <Gold.PLP.ligand.torsion>
1.0117

> <Gold.PLP.Chemscore.Hbond>
2.0000

> <Gold.PLP.Chemscore.CHOScore>
0.0000

> <Gold.PLP.Chemscore.Metal>
0.0000

> <Gold.Chemscore.Hbonds>
donor molecule, donor type, donor heavy atom, donor atom, acceptor molecule, acceptor atom, score
      P1  H  7989  7998       L1     7  0.95
      P1  H  7997  8009       L1    16  1.00

> <Gold.PLP.Chemscore.Internal.Correction>
0.0055

> <Gold.Rescore>
     Score         DG    S(hbond)    S(metal)    S(lipo)     H(rot)  DE(clash)    DE(int)     intcor
     15.99     -17.18       1.85        0.00      88.80       1.90       0.19       1.01       ----

> <Gold.Chemscore.Fitness>
15.9873

> <Gold.Chemscore.DG>
-17.1822

> <Gold.Chemscore.ZeroCoef>
-5.4800

> <Gold.Chemscore.Hbond>
1.8530

> <Gold.Chemscore.Metal>
0.0000

> <Gold.Chemscore.Lipo>
88.7961

> <Gold.Chemscore.Internal_Hbond>
0.0000

> <Gold.Chemscore.DEClash>
0.1895

> <Gold.Chemscore.DEInternal>
1.0054

> <Gold.Chemscore.Rot>
1.9047

> <Gold.Chemscore.Internal.Correction>
   9.000000E+99

> <Gold.Chemscore.Hbonds>
donor molecule, donor type, donor heavy atom, donor atom, acceptor molecule, acceptor atom, score
      P1  H  7989  7998       L1     7  0.21
      P1  H  7997  8009       L1    16  0.76

> <Gold.Chemscore.Hbond.Weighted>
-6.1891

> <Gold.Chemscore.Metal.Weighted>
-0.0000

> <Gold.Chemscore.Lipo.Weighted>
-10.3891

> <Gold.Chemscore.Internal_Hbond.Weighted>
0.0000

> <Gold.Chemscore.DEClash.Weighted>
0.1895

> <Gold.Chemscore.DEInternal.Weighted>
1.0054

> <Gold.Chemscore.Rot.Weighted>
4.8760

> <Gold.Chemscore.Internal.Correction.Weighted>
   9.000000E+99

> <Gold.Protein.RotatedTorsions>
[ 6907 6896 6895 6894 ] final  135.96 input  -60.11 | X-H torsion
[ 7974 7965 7964 7962 ] final   98.60 input  175.53 | X-H torsion
[ 8008 7997 7996 7995 ] final  153.44 input   59.86 | X-H torsion
[ 10167 10162 10161 10158 ] final  142.52 input  -65.29 | X-H torsion
[ 10718 10713 10712 10709 ] final   -9.17 input   66.30 | X-H torsion
[ 10763 10752 10751 10750 ] final  -29.12 input  -60.55 | X-H torsion
[ 11005 11000 10999 10996 ] final  173.34 input  -57.11 | X-H torsion

> <Gold.Protein.ActiveResidues>
 VAL166  LYS551  ARG553  GLY616  TRP617  ASP618  TYR619  PRO620  LYS621  CYS622 
 ASP623  PHE694  ASN695  SER759  ASP760  ASP761  ALA762  ILE779  LEU786  VAL792 
 PHE793  MET794  SER795  GLU796  ALA797  LYS798  CYS799  TRP800  GLU811  SER814 

> <Gold.Protein.RotatedAtoms>
  152.2946  133.5595  159.5579 H   0  0  0  0  0  0  0  0  0  0  0  0  # atno 6907 bound_to 6896
  150.7250  134.0379  159.3764 H   0  0  0  0  0  0  0  0  0  0  0  0  # atno 6908 bound_to 6896
  151.8283  135.0630  160.0484 H   0  0  0  0  0  0  0  0  0  0  0  0  # atno 6909 bound_to 6896
  145.4100  139.2335  143.3253 H   0  0  0  0  0  0  0  0  0  0  0  0  # atno 7974 bound_to 7965
  156.2581  140.1993  156.6490 H   0  0  0  0  0  0  0  0  0  0  0  0  # atno 8008 bound_to 7997
  154.6551  140.0567  157.0024 H   0  0  0  0  0  0  0  0  0  0  0  0  # atno 8009 bound_to 7997
  155.1360  140.3238  155.4466 H   0  0  0  0  0  0  0  0  0  0  0  0  # atno 8010 bound_to 7997
  139.4992  144.6101  151.6290 H   0  0  0  0  0  0  0  0  0  0  0  0  # atno 10167 bound_to 10162
  156.6920  130.5068  149.5941 H   0  0  0  0  0  0  0  0  0  0  0  0  # atno 10718 bound_to 10713
  153.7595  135.6920  153.4928 H   0  0  0  0  0  0  0  0  0  0  0  0  # atno 10763 bound_to 10752
  153.1948  135.4458  155.0193 H   0  0  0  0  0  0  0  0  0  0  0  0  # atno 10764 bound_to 10752
  154.8158  135.3398  154.7111 H   0  0  0  0  0  0  0  0  0  0  0  0  # atno 10765 bound_to 10752
  140.3395  134.7289  157.4192 H   0  0  0  0  0  0  0  0  0  0  0  0  # atno 11005 bound_to 11000
  146.2709  140.4810  142.8815 LP  0  0  0  0  0  0  0  0  0  0  0  0  # atno 17320 bound_to 7965
  144.8315  140.6715  143.6288 LP  0  0  0  0  0  0  0  0  0  0  0  0  # atno 17321 bound_to 7965
  140.5774  144.0005  150.6249 LP  0  0  0  0  0  0  0  0  0  0  0  0  # atno 17342 bound_to 10162
  140.3143  143.3178  152.0848 LP  0  0  0  0  0  0  0  0  0  0  0  0  # atno 17343 bound_to 10162
  156.1791  130.6487  151.0930 LP  0  0  0  0  0  0  0  0  0  0  0  0  # atno 17370 bound_to 10713
  157.7005  131.0777  150.6834 LP  0  0  0  0  0  0  0  0  0  0  0  0  # atno 17371 bound_to 10713
  140.0793  134.5753  155.8557 LP  0  0  0  0  0  0  0  0  0  0  0  0  # atno 17394 bound_to 11000
  141.2042  133.6637  156.6109 LP  0  0  0  0  0  0  0  0  0  0  0  0  # atno 17395 bound_to 11000

$$$$
