AV-unprocessed.smi:2997|AV-procd|sdf|11414|dock2
  -GOLD-   2272016333D 1   1.00000     0.00000
 Structure written by MMmdl.
 39 41  0  0  0  0  0  0  0  0  2 V2000
  153.6767  142.4000  163.4846 C   0  0  0  0  0  0  0  0  0  0  0  0
  153.1630  142.7942  162.1101 C   0  0  0  0  0  0  0  0  0  0  0  0
  152.3806  143.9654  161.9929 C   0  0  0  0  0  0  0  0  0  0  0  0
  151.9230  144.2979  160.7233 C   0  0  0  0  0  0  0  0  0  0  0  0
  151.1433  145.3695  160.2823 N   0  3  0  0  0  0  0  0  0  0  0  0
  150.9531  145.2698  158.9373 C   0  0  0  0  0  0  0  0  0  0  0  0
  151.5991  144.1495  158.5145 N   0  0  0  0  0  0  0  0  0  0  0  0
  151.7193  143.5823  157.1650 C   0  0  0  0  0  0  0  0  0  0  0  0
  150.6074  142.5653  156.8445 C   0  0  2  0  0  0  0  0  0  0  0  0
  150.2478  141.8730  158.0259 O   0  0  0  0  0  0  0  0  0  0  0  0
  151.0415  141.5622  155.7593 C   0  0  0  0  0  0  0  0  0  0  0  0
  149.9382  141.1538  154.9076 N   0  0  0  0  0  0  0  0  0  0  0  0
  148.8443  141.8945  154.5120 C   0  0  0  0  0  0  0  0  0  0  0  0
  148.0730  141.0906  153.7225 C   0  0  0  0  0  0  0  0  0  0  0  0
  148.7883  139.8610  153.6912 C   0  0  0  0  0  0  0  0  0  0  0  0
  149.9036  139.9017  154.4023 N   0  0  0  0  0  0  0  0  0  0  0  0
  152.2195  143.5119  159.5930 C   0  0  0  0  0  0  0  0  0  0  0  0
  152.9914  142.3569  159.6896 C   0  0  0  0  0  0  0  0  0  0  0  0
  153.4650  142.0008  160.9728 C   0  0  0  0  0  0  0  0  0  0  0  0
  154.3066  140.7434  161.1109 C   0  0  0  0  0  0  0  0  0  0  0  0
  153.3414  143.0985  164.2518 H   0  0  0  0  0  0  0  0  0  0  0  0
  154.7668  142.3894  163.4974 H   0  0  0  0  0  0  0  0  0  0  0  0
  153.3167  141.4081  163.7582 H   0  0  0  0  0  0  0  0  0  0  0  0
  152.1482  144.5749  162.8538 H   0  0  0  0  0  0  0  0  0  0  0  0
  150.3961  145.9571  158.3170 H   0  0  0  0  0  0  0  0  0  0  0  0
  151.7227  144.4007  156.4439 H   0  0  0  0  0  0  0  0  0  0  0  0
  152.6985  143.1062  157.0961 H   0  0  0  0  0  0  0  0  0  0  0  0
  149.7238  143.1007  156.4949 H   0  0  0  0  0  0  0  0  0  0  0  0
  149.9310  142.5021  158.6568 H   0  0  0  0  0  0  0  0  0  0  0  0
  151.8085  142.0071  155.1244 H   0  0  0  0  0  0  0  0  0  0  0  0
  151.4892  140.6761  156.2130 H   0  0  0  0  0  0  0  0  0  0  0  0
  148.7069  142.9195  154.8232 H   0  0  0  0  0  0  0  0  0  0  0  0
  147.1402  141.3423  153.2399 H   0  0  0  0  0  0  0  0  0  0  0  0
  148.5318  138.9463  153.1774 H   0  0  0  0  0  0  0  0  0  0  0  0
  153.2208  141.7542  158.8234 H   0  0  0  0  0  0  0  0  0  0  0  0
  154.4716  140.2654  160.1449 H   0  0  0  0  0  0  0  0  0  0  0  0
  153.8103  140.0215  161.7598 H   0  0  0  0  0  0  0  0  0  0  0  0
  155.2823  140.9792  161.5360 H   0  0  0  0  0  0  0  0  0  0  0  0
  150.7692  146.1161  160.8539 H   0  0  0  0  0  0  0  0  0  0  0  0
  1  2  1  0  0  0  0
  1 21  1  0  0  0  0
  1 22  1  0  0  0  0
  1 23  1  0  0  0  0
  2 19  1  0  0  0  0
  2  3  2  0  0  0  0
  3  4  1  0  0  0  0
  3 24  1  0  0  0  0
  4 17  2  0  0  0  0
  4  5  1  0  0  0  0
  5  6  2  0  0  0  0
  5 39  1  0  0  0  0
  6  7  1  0  0  0  0
  6 25  1  0  0  0  0
  7  8  1  0  0  0  0
  7 17  1  0  0  0  0
  8  9  1  0  0  0  0
  8 26  1  0  0  0  0
  8 27  1  0  0  0  0
  9 10  1  0  0  0  0
  9 11  1  0  0  0  0
  9 28  1  0  0  0  0
 10 29  1  0  0  0  0
 11 12  1  0  0  0  0
 11 30  1  0  0  0  0
 11 31  1  0  0  0  0
 12 16  1  0  0  0  0
 12 13  1  0  0  0  0
 13 14  2  0  0  0  0
 13 32  1  0  0  0  0
 14 15  1  0  0  0  0
 14 33  1  0  0  0  0
 15 16  2  0  0  0  0
 15 34  1  0  0  0  0
 17 18  1  0  0  0  0
 18 19  2  0  0  0  0
 18 35  1  0  0  0  0
 19 20  1  0  0  0  0
 20 36  1  0  0  0  0
 20 37  1  0  0  0  0
 20 38  1  0  0  0  0
M  CHG  1   5   1
M  END
> <s_m_source_file>
AV-unprocessed.smi

> <i_m_source_file_index>
2997

> <i_lp_mmshare_version>
43012

> <i_f3d_flags>
0

> <s_epik_input>
W0NIM11jKFtjSF0xKWMoW0NIM10pW2NIXWMoYzEyKW4oW2NIXW4yKVtDSDJdW0NASF0oW09IXSlbQ0gyXW4zW2NIXVtjSF1bY0hdbjM=

> <s_epik_cmdline>
J2VwaWtfcHl0aG9uJywgJy1waCcsICc3LjAnLCAnLXRuJywgJzgnLCAnLW1hJywgJzIwMCcsICctbWV0YWxfYmluZGluZycsICctaW1hZScsICc8aW5maWxlLm1hZT4nLCAnLW9tYWUnLCAnPG91dGZpbGUubWFlPic=

> <r_lp_tautomer_probability>
1

> <r_epik_Ionization_Penalty>
1.09215

> <r_epik_Ionization_Penalty_Charging>
1.09214

> <r_epik_Ionization_Penalty_Neutral>
1.42327e-05

> <r_epik_State_Penalty>
1.14852

> <r_epik_Charging_Adjusted_Penalty>
2.24066

> <i_epik_Tot_Q>
1

> <i_epik_Tot_abs_Q>
1

> <r_epik_Metal_State_Penalty>
1.23686

> <b_epik_Metal_Only>
0

> <s_lp_Force_Field>
OPLS_2005

> <r_lp_Energy>
13.1956

> <b_lp_Chiralities_Consistent>
1

> <s_lp_Variant>
AV-unprocessed.smi:2997-3

> <Gold.Version>
5.8.1

> <Gold.Id.Protein>
6NUR|6NUR_protein|mol2

> <Gold.PLP.Fitness>
57.5527

> <Gold.PLP.PLP>
-51.9984

> <Gold.PLP.part.hbond>
0.0000

> <Gold.PLP.part.metal>
0.0000

> <Gold.PLP.part.buried>
-4.1129

> <Gold.PLP.part.nonpolar>
-48.0916

> <Gold.PLP.part.repulsive>
0.3047

> <Gold.PLP.ligand.clash>
0.0000

> <Gold.PLP.ligand.torsion>
1.4563

> <Gold.PLP.Chemscore.Hbond>
0.0000

> <Gold.PLP.Chemscore.CHOScore>
2.8186

> <Gold.PLP.Chemscore.Metal>
0.0000

> <Gold.Chemscore.Hbonds>
donor molecule, donor type, donor heavy atom, donor atom, acceptor molecule, acceptor atom, score
      L1  C     6    25       P1  8029  0.63
      L1  C    13    32       P1  8028  0.86
      L1  C    15    34       P1  7957  0.11

> <Gold.PLP.Chemscore.Internal.Correction>
0.0112

> <Gold.Rescore>
     Score         DG    S(hbond)    S(metal)    S(lipo)     H(rot)  DE(clash)    DE(int)     intcor
     14.20     -15.55       0.00        0.00     134.46       2.21       0.26       1.09       ----

> <Gold.Chemscore.Fitness>
14.1970

> <Gold.Chemscore.DG>
-15.5469

> <Gold.Chemscore.ZeroCoef>
-5.4800

> <Gold.Chemscore.Hbond>
0.0000

> <Gold.Chemscore.Metal>
0.0000

> <Gold.Chemscore.Lipo>
134.4599

> <Gold.Chemscore.Internal_Hbond>
0.0000

> <Gold.Chemscore.DEClash>
0.2631

> <Gold.Chemscore.DEInternal>
1.0869

> <Gold.Chemscore.Rot>
2.2129

> <Gold.Chemscore.Internal.Correction>
   9.000000E+99

> <Gold.Chemscore.Hbond.Weighted>
-0.0000

> <Gold.Chemscore.Metal.Weighted>
-0.0000

> <Gold.Chemscore.Lipo.Weighted>
-15.7318

> <Gold.Chemscore.Internal_Hbond.Weighted>
0.0000

> <Gold.Chemscore.DEClash.Weighted>
0.2631

> <Gold.Chemscore.DEInternal.Weighted>
1.0869

> <Gold.Chemscore.Rot.Weighted>
5.6649

> <Gold.Chemscore.Internal.Correction.Weighted>
   9.000000E+99

> <Gold.Protein.RotatedTorsions>
[ 6907 6896 6895 6894 ] final  -76.27 input  -60.11 | X-H torsion
[ 7974 7965 7964 7962 ] final -159.74 input  175.53 | X-H torsion
[ 8008 7997 7996 7995 ] final   79.88 input   59.86 | X-H torsion
[ 10167 10162 10161 10158 ] final  -11.63 input  -65.29 | X-H torsion
[ 10718 10713 10712 10709 ] final   32.28 input   66.30 | X-H torsion
[ 10763 10752 10751 10750 ] final -136.96 input  -60.55 | X-H torsion
[ 11005 11000 10999 10996 ] final  -39.35 input  -57.11 | X-H torsion

> <Gold.Protein.ActiveResidues>
 VAL166  LYS551  ARG553  GLY616  TRP617  ASP618  TYR619  PRO620  LYS621  CYS622 
 ASP623  PHE694  ASN695  SER759  ASP760  ASP761  ALA762  ILE779  LEU786  VAL792 
 PHE793  MET794  SER795  GLU796  ALA797  LYS798  CYS799  TRP800  GLU811  SER814 

> <Gold.Protein.RotatedAtoms>
  150.7032  134.4596  159.5374 H   0  0  0  0  0  0  0  0  0  0  0  0  # atno 6907 bound_to 6896
  152.2273  134.8352  160.0487 H   0  0  0  0  0  0  0  0  0  0  0  0  # atno 6908 bound_to 6896
  151.9181  133.3543  159.3924 H   0  0  0  0  0  0  0  0  0  0  0  0  # atno 6909 bound_to 6896
  144.7453  140.3642  143.6089 H   0  0  0  0  0  0  0  0  0  0  0  0  # atno 7974 bound_to 7965
  155.8758  140.3446  155.5853 H   0  0  0  0  0  0  0  0  0  0  0  0  # atno 8008 bound_to 7997
  155.7776  140.0854  157.2095 H   0  0  0  0  0  0  0  0  0  0  0  0  # atno 8009 bound_to 7997
  154.4020  140.1506  156.3002 H   0  0  0  0  0  0  0  0  0  0  0  0  # atno 8010 bound_to 7997
  140.7143  143.5619  150.9187 H   0  0  0  0  0  0  0  0  0  0  0  0  # atno 10167 bound_to 10162
  157.2832  130.7265  149.6568 H   0  0  0  0  0  0  0  0  0  0  0  0  # atno 10718 bound_to 10713
  154.8672  135.3657  154.5145 H   0  0  0  0  0  0  0  0  0  0  0  0  # atno 10763 bound_to 10752
  153.5779  135.7019  153.5481 H   0  0  0  0  0  0  0  0  0  0  0  0  # atno 10764 bound_to 10752
  153.3484  135.4079  155.1589 H   0  0  0  0  0  0  0  0  0  0  0  0  # atno 10765 bound_to 10752
  141.0095  133.6915  156.2175 H   0  0  0  0  0  0  0  0  0  0  0  0  # atno 11005 bound_to 11000
  145.7145  139.1693  143.2519 LP  0  0  0  0  0  0  0  0  0  0  0  0  # atno 17320 bound_to 7965
  146.1322  140.7170  142.9406 LP  0  0  0  0  0  0  0  0  0  0  0  0  # atno 17321 bound_to 7965
  139.9344  143.6455  152.3069 LP  0  0  0  0  0  0  0  0  0  0  0  0  # atno 17342 bound_to 10162
  139.6917  144.7646  151.1426 LP  0  0  0  0  0  0  0  0  0  0  0  0  # atno 17343 bound_to 10162
  155.9665  130.4332  150.4995 LP  0  0  0  0  0  0  0  0  0  0  0  0  # atno 17370 bound_to 10713
  157.2942  131.0632  151.2113 LP  0  0  0  0  0  0  0  0  0  0  0  0  # atno 17371 bound_to 10713
  140.6757  134.4820  157.5588 LP  0  0  0  0  0  0  0  0  0  0  0  0  # atno 17394 bound_to 11000
  139.9082  134.8403  156.1627 LP  0  0  0  0  0  0  0  0  0  0  0  0  # atno 17395 bound_to 11000

$$$$
