AV-unprocessed.smi:626|AV-procd|sdf|3112|dock1
  -GOLD-   22720 0 33D 1   1.00000     0.00000
 Structure written by MMmdl.
 34 36  0  0  0  0  0  0  0  0  1 V2000
  147.5148  139.4144  153.8463 C   0  0  0  0  0  0  0  0  0  0  0  0
  148.8305  139.0348  154.3372 N   0  0  0  0  0  0  0  0  0  0  0  0
  149.8694  139.8770  154.4402 C   0  0  0  0  0  0  0  0  0  0  0  0
  149.8109  141.0640  154.1182 O   0  0  0  0  0  0  0  0  0  0  0  0
  151.1736  139.2947  154.9902 C   0  0  0  0  0  0  0  0  0  0  0  0
  151.5677  139.9842  156.2573 C   0  0  0  0  0  0  0  0  0  0  0  0
  152.6708  139.6457  156.9146 N   0  0  0  0  0  0  0  0  0  0  0  0
  152.6771  140.5225  158.0086 O   0  0  0  0  0  0  0  0  0  0  0  0
  151.5496  141.2667  157.8981 C   0  0  0  0  0  0  0  0  0  0  0  0
  151.3263  142.3758  158.8810 C   0  0  1  0  0  0  0  0  0  0  0  0
  152.6143  142.8963  159.5529 C   0  0  0  0  0  0  0  0  0  0  0  0
  152.5031  144.4204  159.3568 C   0  0  2  0  0  0  0  0  0  0  0  0
  151.3371  144.9738  160.1998 C   0  0  0  0  0  0  0  0  0  0  0  0
  150.0938  144.4851  159.4291 C   0  0  0  0  0  0  0  0  0  0  0  0
  150.7112  143.6621  158.2823 C   0  0  1  0  0  0  0  0  0  0  0  0
  151.9379  144.5071  157.9448 C   0  0  0  0  0  0  0  0  0  0  0  0
  150.8467  141.0049  156.7975 N   0  0  0  0  0  0  0  0  0  0  0  0
  146.8767  138.5339  153.7729 H   0  0  0  0  0  0  0  0  0  0  0  0
  147.5814  139.8693  152.8570 H   0  0  0  0  0  0  0  0  0  0  0  0
  147.0408  140.1243  154.5252 H   0  0  0  0  0  0  0  0  0  0  0  0
  148.9581  138.0747  154.6235 H   0  0  0  0  0  0  0  0  0  0  0  0
  151.0727  138.2234  155.1710 H   0  0  0  0  0  0  0  0  0  0  0  0
  151.9618  139.4167  154.2461 H   0  0  0  0  0  0  0  0  0  0  0  0
  150.6545  141.9812  159.6450 H   0  0  0  0  0  0  0  0  0  0  0  0
  152.6858  142.6070  160.6019 H   0  0  0  0  0  0  0  0  0  0  0  0
  153.5037  142.5213  159.0439 H   0  0  0  0  0  0  0  0  0  0  0  0
  153.4443  144.9494  159.5090 H   0  0  0  0  0  0  0  0  0  0  0  0
  151.3619  144.6056  161.2261 H   0  0  0  0  0  0  0  0  0  0  0  0
  151.3622  146.0637  160.2340 H   0  0  0  0  0  0  0  0  0  0  0  0
  149.4173  143.8993  160.0526 H   0  0  0  0  0  0  0  0  0  0  0  0
  149.5312  145.3325  159.0352 H   0  0  0  0  0  0  0  0  0  0  0  0
  150.0164  143.4865  157.4600 H   0  0  0  0  0  0  0  0  0  0  0  0
  151.6918  145.5255  157.6384 H   0  0  0  0  0  0  0  0  0  0  0  0
  152.5870  144.0576  157.1920 H   0  0  0  0  0  0  0  0  0  0  0  0
  1  2  1  0  0  0  0
  1 18  1  0  0  0  0
  1 19  1  0  0  0  0
  1 20  1  0  0  0  0
  2  3  1  0  0  0  0
  2 21  1  0  0  0  0
  3  4  2  0  0  0  0
  3  5  1  0  0  0  0
  5  6  1  0  0  0  0
  5 22  1  0  0  0  0
  5 23  1  0  0  0  0
  6 17  1  0  0  0  0
  6  7  2  0  0  0  0
  7  8  1  0  0  0  0
  8  9  1  0  0  0  0
  9 10  1  0  0  0  0
  9 17  2  0  0  0  0
 10 15  1  0  0  0  0
 10 11  1  0  0  0  0
 10 24  1  0  0  0  0
 11 12  1  0  0  0  0
 11 25  1  0  0  0  0
 11 26  1  0  0  0  0
 12 16  1  0  0  0  0
 12 13  1  0  0  0  0
 12 27  1  0  0  0  0
 13 14  1  0  0  0  0
 13 28  1  0  0  0  0
 13 29  1  0  0  0  0
 14 15  1  0  0  0  0
 14 30  1  0  0  0  0
 14 31  1  0  0  0  0
 15 16  1  0  0  0  0
 15 32  1  0  0  0  0
 16 33  1  0  0  0  0
 16 34  1  0  0  0  0
M  END
> <s_m_source_file>
AV-unprocessed.smi

> <i_m_source_file_index>
626

> <i_lp_mmshare_version>
43012

> <i_f3d_flags>
0

> <s_epik_input>
W0NIM11bTkhdQyg9TylbQ0gyXWMxbm9jKG4xKVtDQEhdKFtDSDJdW0NAQEhdMjMpW0NAQEhdKFtDSDJdMylbQ0gyXVtDSDJdMg==

> <s_epik_cmdline>
J2VwaWtfcHl0aG9uJywgJy1waCcsICc3LjAnLCAnLXRuJywgJzgnLCAnLW1hJywgJzIwMCcsICctbWV0YWxfYmluZGluZycsICctaW1hZScsICc8aW5maWxlLm1hZT4nLCAnLW9tYWUnLCAnPG91dGZpbGUubWFlPic=

> <r_lp_tautomer_probability>
1

> <r_epik_Ionization_Penalty>
1.02916e-07

> <r_epik_Ionization_Penalty_Charging>
0

> <r_epik_Ionization_Penalty_Neutral>
1.02916e-07

> <r_epik_State_Penalty>
-0

> <r_epik_Charging_Adjusted_Penalty>
0

> <i_epik_Tot_Q>
0

> <i_epik_Tot_abs_Q>
0

> <r_epik_Metal_State_Penalty>
-0

> <b_epik_Metal_Only>
0

> <s_lp_Force_Field>
OPLS_2005

> <r_lp_Energy>
48.5493

> <b_lp_Chiralities_Consistent>
1

> <s_lp_Variant>
AV-unprocessed.smi:626-4

> <Gold.Version>
5.8.1

> <Gold.Id.Protein>
6NUR|6NUR_protein|mol2

> <Gold.PLP.Fitness>
41.0975

> <Gold.PLP.PLP>
-38.1404

> <Gold.PLP.part.hbond>
-3.9302

> <Gold.PLP.part.metal>
0.0000

> <Gold.PLP.part.buried>
-2.1812

> <Gold.PLP.part.nonpolar>
-31.8472

> <Gold.PLP.part.repulsive>
0.2658

> <Gold.PLP.ligand.clash>
0.0000

> <Gold.PLP.ligand.torsion>
0.6832

> <Gold.PLP.Chemscore.Hbond>
1.4124

> <Gold.PLP.Chemscore.CHOScore>
0.0000

> <Gold.PLP.Chemscore.Metal>
0.0000

> <Gold.Chemscore.Hbonds>
donor molecule, donor type, donor heavy atom, donor atom, acceptor molecule, acceptor atom, score
      P1  H  7989  7998       L1     4  0.19
      P1  H  7997  8008       L1     7  0.80
      P1  H  8011  8017       L1     4  0.38

> <Gold.PLP.Chemscore.Internal.Correction>
0.0865

> <Gold.Rescore>
     Score         DG    S(hbond)    S(metal)    S(lipo)     H(rot)  DE(clash)    DE(int)     intcor
     11.74     -13.83       0.42        0.00      94.74       1.61       0.10       1.99       ----

> <Gold.Chemscore.Fitness>
11.7427

> <Gold.Chemscore.DG>
-13.8291

> <Gold.Chemscore.ZeroCoef>
-5.4800

> <Gold.Chemscore.Hbond>
0.4166

> <Gold.Chemscore.Metal>
0.0000

> <Gold.Chemscore.Lipo>
94.7380

> <Gold.Chemscore.Internal_Hbond>
0.0000

> <Gold.Chemscore.DEClash>
0.0999

> <Gold.Chemscore.DEInternal>
1.9865

> <Gold.Chemscore.Rot>
1.6119

> <Gold.Chemscore.Internal.Correction>
   9.000000E+99

> <Gold.Chemscore.Hbonds>
donor molecule, donor type, donor heavy atom, donor atom, acceptor molecule, acceptor atom, score
      P1  H  7997  8008       L1     7  0.11
      P1  H  8011  8017       L1     4  0.39

> <Gold.Chemscore.Hbond.Weighted>
-1.3913

> <Gold.Chemscore.Metal.Weighted>
-0.0000

> <Gold.Chemscore.Lipo.Weighted>
-11.0843

> <Gold.Chemscore.Internal_Hbond.Weighted>
0.0000

> <Gold.Chemscore.DEClash.Weighted>
0.0999

> <Gold.Chemscore.DEInternal.Weighted>
1.9865

> <Gold.Chemscore.Rot.Weighted>
4.1266

> <Gold.Chemscore.Internal.Correction.Weighted>
   9.000000E+99

> <Gold.Protein.RotatedTorsions>
[ 6907 6896 6895 6894 ] final  -58.76 input  -60.11 | X-H torsion
[ 7974 7965 7964 7962 ] final   27.13 input  175.53 | X-H torsion
[ 8008 7997 7996 7995 ] final  -37.31 input   59.86 | X-H torsion
[ 10167 10162 10161 10158 ] final  129.48 input  -65.29 | X-H torsion
[ 10718 10713 10712 10709 ] final  -16.47 input   66.30 | X-H torsion
[ 10763 10752 10751 10750 ] final  -60.85 input  -60.55 | X-H torsion
[ 11005 11000 10999 10996 ] final  -36.17 input  -57.11 | X-H torsion

> <Gold.Protein.ActiveResidues>
 VAL166  LYS551  ARG553  GLY616  TRP617  ASP618  TYR619  PRO620  LYS621  CYS622 
 ASP623  PHE694  ASN695  SER759  ASP760  ASP761  ALA762  ILE779  LEU786  VAL792 
 PHE793  MET794  SER795  GLU796  ALA797  LYS798  CYS799  TRP800  GLU811  SER814 

> <Gold.Protein.RotatedAtoms>
  150.7982  134.7057  159.6574 H   0  0  0  0  0  0  0  0  0  0  0  0  # atno 6907 bound_to 6896
  152.4096  134.6143  160.0044 H   0  0  0  0  0  0  0  0  0  0  0  0  # atno 6908 bound_to 6896
  151.6390  133.3290  159.3162 H   0  0  0  0  0  0  0  0  0  0  0  0  # atno 6909 bound_to 6896
  146.1800  139.7233  142.8907 H   0  0  0  0  0  0  0  0  0  0  0  0  # atno 7974 bound_to 7965
  154.4056  140.1607  156.2516 H   0  0  0  0  0  0  0  0  0  0  0  0  # atno 8008 bound_to 7997
  155.9114  140.3427  155.6079 H   0  0  0  0  0  0  0  0  0  0  0  0  # atno 8009 bound_to 7997
  155.7332  140.0783  157.2270 H   0  0  0  0  0  0  0  0  0  0  0  0  # atno 8010 bound_to 7997
  139.5476  144.6786  151.4425 H   0  0  0  0  0  0  0  0  0  0  0  0  # atno 10167 bound_to 10162
  156.5872  130.4789  149.6295 H   0  0  0  0  0  0  0  0  0  0  0  0  # atno 10718 bound_to 10713
  154.2755  135.6282  153.5326 H   0  0  0  0  0  0  0  0  0  0  0  0  # atno 10763 bound_to 10752
  152.9873  135.5620  154.5553 H   0  0  0  0  0  0  0  0  0  0  0  0  # atno 10764 bound_to 10752
  154.5132  135.2878  155.1300 H   0  0  0  0  0  0  0  0  0  0  0  0  # atno 10765 bound_to 10752
  140.9854  133.7033  156.1756 H   0  0  0  0  0  0  0  0  0  0  0  0  # atno 11005 bound_to 11000
  145.4102  141.0395  143.3021 LP  0  0  0  0  0  0  0  0  0  0  0  0  # atno 17320 bound_to 7965
  144.8300  139.5645  143.6948 LP  0  0  0  0  0  0  0  0  0  0  0  0  # atno 17321 bound_to 7965
  140.6729  143.8254  150.7021 LP  0  0  0  0  0  0  0  0  0  0  0  0  # atno 17342 bound_to 10162
  140.1684  143.4215  152.2018 LP  0  0  0  0  0  0  0  0  0  0  0  0  # atno 17343 bound_to 10162
  156.2581  130.6946  151.1706 LP  0  0  0  0  0  0  0  0  0  0  0  0  # atno 17370 bound_to 10713
  157.7312  131.0610  150.5687 LP  0  0  0  0  0  0  0  0  0  0  0  0  # atno 17371 bound_to 10713
  140.7122  134.4449  157.5581 LP  0  0  0  0  0  0  0  0  0  0  0  0  # atno 17394 bound_to 11000
  139.8968  134.8651  156.2071 LP  0  0  0  0  0  0  0  0  0  0  0  0  # atno 17395 bound_to 11000

$$$$
