AV-unprocessed.smi:2658|AV-procd|sdf|10310|dock7
  -GOLD-   2272014323D 1   1.00000     0.00000
 Structure written by MMmdl.
 47 49  0  0  0  0  0  0  0  0  2 V2000
  151.9591  144.8372  160.3634 C   0  0  0  0  0  0  0  0  0  0  0  0
  151.8425  143.5847  159.5112 C   0  0  0  0  0  0  0  0  0  0  0  0
  151.0181  143.6237  158.3642 C   0  0  0  0  0  0  0  0  0  0  0  0
  150.9251  142.4600  157.6098 C   0  0  0  0  0  0  0  0  0  0  0  0
  150.2032  142.1791  156.4479 N   0  3  0  0  0  0  0  0  0  0  0  0
  150.4246  140.8881  156.0764 C   0  0  0  0  0  0  0  0  0  0  0  0
  151.2781  140.3401  156.9832 N   0  0  0  0  0  0  0  0  0  0  0  0
  151.8273  138.9784  157.0492 C   0  0  0  0  0  0  0  0  0  0  0  0
  151.2435  138.1583  158.2182 C   0  0  2  0  0  0  0  0  0  0  0  0
  151.8418  136.8815  158.3162 O   0  0  0  0  0  0  0  0  0  0  0  0
  149.7166  137.9928  158.1548 C   0  0  0  0  0  0  0  0  0  0  0  0
  149.1959  137.7992  159.4676 O   0  0  0  0  0  0  0  0  0  0  0  0
  148.8318  136.5248  159.8500 C   0  0  0  0  0  0  0  0  0  0  0  0
  148.2169  136.3413  161.1028 C   0  0  0  0  0  0  0  0  0  0  0  0
  147.8532  135.0323  161.4704 C   0  0  0  0  0  0  0  0  0  0  0  0
  147.1905  134.7574  162.8072 C   0  0  0  0  0  0  0  0  0  0  0  0
  148.1322  134.0025  160.5440 C   0  0  0  0  0  0  0  0  0  0  0  0
  147.7770  132.5553  160.8294 C   0  0  0  0  0  0  0  0  0  0  0  0
  148.7283  134.2418  159.3526 N   0  0  0  0  0  0  0  0  0  0  0  0
  149.0756  135.4865  159.0093 N   0  0  0  0  0  0  0  0  0  0  0  0
  151.6195  141.2851  157.9583 C   0  0  0  0  0  0  0  0  0  0  0  0
  152.4397  141.2317  159.0830 C   0  0  0  0  0  0  0  0  0  0  0  0
  152.5450  142.4039  159.8654 C   0  0  0  0  0  0  0  0  0  0  0  0
  153.4282  142.3729  161.1011 C   0  0  0  0  0  0  0  0  0  0  0  0
  151.3619  145.6537  159.9565 H   0  0  0  0  0  0  0  0  0  0  0  0
  152.9948  145.1736  160.4119 H   0  0  0  0  0  0  0  0  0  0  0  0
  151.6101  144.6430  161.3779 H   0  0  0  0  0  0  0  0  0  0  0  0
  150.4798  144.5188  158.0891 H   0  0  0  0  0  0  0  0  0  0  0  0
  149.9972  140.3881  155.2190 H   0  0  0  0  0  0  0  0  0  0  0  0
  151.5893  138.4908  156.1030 H   0  0  0  0  0  0  0  0  0  0  0  0
  152.9150  139.0345  157.0973 H   0  0  0  0  0  0  0  0  0  0  0  0
  151.4814  138.6723  159.1501 H   0  0  0  0  0  0  0  0  0  0  0  0
  152.2052  136.7878  159.1835 H   0  0  0  0  0  0  0  0  0  0  0  0
  149.2612  138.8584  157.6702 H   0  0  0  0  0  0  0  0  0  0  0  0
  149.4823  137.1162  157.5482 H   0  0  0  0  0  0  0  0  0  0  0  0
  148.0335  137.1809  161.7571 H   0  0  0  0  0  0  0  0  0  0  0  0
  147.7831  134.0503  163.3880 H   0  0  0  0  0  0  0  0  0  0  0  0
  146.1954  134.3368  162.6607 H   0  0  0  0  0  0  0  0  0  0  0  0
  147.0882  135.6717  163.3924 H   0  0  0  0  0  0  0  0  0  0  0  0
  146.7094  132.4575  161.0276 H   0  0  0  0  0  0  0  0  0  0  0  0
  148.3254  132.1944  161.6997 H   0  0  0  0  0  0  0  0  0  0  0  0
  148.0218  131.9099  159.9848 H   0  0  0  0  0  0  0  0  0  0  0  0
  152.9709  140.3324  159.3567 H   0  0  0  0  0  0  0  0  0  0  0  0
  153.8958  141.3967  161.2331 H   0  0  0  0  0  0  0  0  0  0  0  0
  152.8426  142.5850  161.9959 H   0  0  0  0  0  0  0  0  0  0  0  0
  154.2231  143.1148  161.0226 H   0  0  0  0  0  0  0  0  0  0  0  0
  149.6002  142.8183  155.9458 H   0  0  0  0  0  0  0  0  0  0  0  0
  1  2  1  0  0  0  0
  1 25  1  0  0  0  0
  1 26  1  0  0  0  0
  1 27  1  0  0  0  0
  2 23  1  0  0  0  0
  2  3  2  0  0  0  0
  3  4  1  0  0  0  0
  3 28  1  0  0  0  0
  4 21  2  0  0  0  0
  4  5  1  0  0  0  0
  5  6  2  0  0  0  0
  5 47  1  0  0  0  0
  6  7  1  0  0  0  0
  6 29  1  0  0  0  0
  7  8  1  0  0  0  0
  7 21  1  0  0  0  0
  8  9  1  0  0  0  0
  8 30  1  0  0  0  0
  8 31  1  0  0  0  0
  9 10  1  0  0  0  0
  9 11  1  0  0  0  0
  9 32  1  0  0  0  0
 10 33  1  0  0  0  0
 11 12  1  0  0  0  0
 11 34  1  0  0  0  0
 11 35  1  0  0  0  0
 12 13  1  0  0  0  0
 13 20  1  0  0  0  0
 13 14  2  0  0  0  0
 14 15  1  0  0  0  0
 14 36  1  0  0  0  0
 15 16  1  0  0  0  0
 15 17  2  0  0  0  0
 16 37  1  0  0  0  0
 16 38  1  0  0  0  0
 16 39  1  0  0  0  0
 17 18  1  0  0  0  0
 17 19  1  0  0  0  0
 18 40  1  0  0  0  0
 18 41  1  0  0  0  0
 18 42  1  0  0  0  0
 19 20  2  0  0  0  0
 21 22  1  0  0  0  0
 22 23  2  0  0  0  0
 22 43  1  0  0  0  0
 23 24  1  0  0  0  0
 24 44  1  0  0  0  0
 24 45  1  0  0  0  0
 24 46  1  0  0  0  0
M  CHG  1   5   1
M  END
> <s_m_source_file>
AV-unprocessed.smi

> <i_m_source_file_index>
2658

> <i_lp_mmshare_version>
43012

> <i_f3d_flags>
0

> <s_epik_input>
W0NIM11jKFtjSF0xKWMoW0NIM10pW2NIXWMoYzEyKW4oW2NIXW4yKVtDSDJdW0NASF0oW09IXSlbQ0gyXU9jM1tjSF1jKFtDSDNdKWMoW0NIM10pbm4z

> <s_epik_cmdline>
J2VwaWtfcHl0aG9uJywgJy1waCcsICc3LjAnLCAnLXRuJywgJzgnLCAnLW1hJywgJzIwMCcsICctbWV0YWxfYmluZGluZycsICctaW1hZScsICc8aW5maWxlLm1hZT4nLCAnLW9tYWUnLCAnPG91dGZpbGUubWFlPic=

> <r_lp_tautomer_probability>
1

> <r_epik_Ionization_Penalty>
1.0494

> <r_epik_Ionization_Penalty_Charging>
1.04926

> <r_epik_Ionization_Penalty_Neutral>
0.000140304

> <r_epik_State_Penalty>
1.10197

> <r_epik_Charging_Adjusted_Penalty>
2.15123

> <i_epik_Tot_Q>
1

> <i_epik_Tot_abs_Q>
1

> <r_epik_Metal_State_Penalty>
1.19636

> <b_epik_Metal_Only>
0

> <s_lp_Force_Field>
OPLS_2005

> <r_lp_Energy>
21.5781

> <b_lp_Chiralities_Consistent>
1

> <s_lp_Variant>
AV-unprocessed.smi:2658-3

> <Gold.Version>
5.8.1

> <Gold.Id.Protein>
6NUR|6NUR_protein|mol2

> <Gold.PLP.Fitness>
55.8333

> <Gold.PLP.PLP>
-50.7819

> <Gold.PLP.part.hbond>
-5.1992

> <Gold.PLP.part.metal>
0.0000

> <Gold.PLP.part.buried>
-6.4303

> <Gold.PLP.part.nonpolar>
-40.2893

> <Gold.PLP.part.repulsive>
0.0692

> <Gold.PLP.ligand.clash>
0.0000

> <Gold.PLP.ligand.torsion>
0.6880

> <Gold.PLP.Chemscore.Hbond>
2.1312

> <Gold.PLP.Chemscore.CHOScore>
0.0000

> <Gold.PLP.Chemscore.Metal>
0.0000

> <Gold.Chemscore.Hbonds>
donor molecule, donor type, donor heavy atom, donor atom, acceptor molecule, acceptor atom, score
      L1  H     5    47       P1  8028  1.87
      P1  H  6896  6907       L1    20  0.09

> <Gold.PLP.Chemscore.Internal.Correction>
0.0339

> <Gold.Rescore>
     Score         DG    S(hbond)    S(metal)    S(lipo)     H(rot)  DE(clash)    DE(int)     intcor
     16.36     -17.08       0.99        0.00     124.96       2.47       0.01       0.71       ----

> <Gold.Chemscore.Fitness>
16.3560

> <Gold.Chemscore.DG>
-17.0810

> <Gold.Chemscore.ZeroCoef>
-5.4800

> <Gold.Chemscore.Hbond>
0.9881

> <Gold.Chemscore.Metal>
0.0000

> <Gold.Chemscore.Lipo>
124.9584

> <Gold.Chemscore.Internal_Hbond>
0.0000

> <Gold.Chemscore.DEClash>
0.0103

> <Gold.Chemscore.DEInternal>
0.7147

> <Gold.Chemscore.Rot>
2.4685

> <Gold.Chemscore.Internal.Correction>
   9.000000E+99

> <Gold.Chemscore.Hbonds>
donor molecule, donor type, donor heavy atom, donor atom, acceptor molecule, acceptor atom, score
      L1  H     5    47       P1  8028  0.85

> <Gold.Chemscore.Hbond.Weighted>
-3.3003

> <Gold.Chemscore.Metal.Weighted>
-0.0000

> <Gold.Chemscore.Lipo.Weighted>
-14.6201

> <Gold.Chemscore.Internal_Hbond.Weighted>
0.0000

> <Gold.Chemscore.DEClash.Weighted>
0.0103

> <Gold.Chemscore.DEInternal.Weighted>
0.7147

> <Gold.Chemscore.Rot.Weighted>
6.3194

> <Gold.Chemscore.Internal.Correction.Weighted>
   9.000000E+99

> <Gold.Protein.RotatedTorsions>
[ 6907 6896 6895 6894 ] final  -44.99 input  -60.11 | X-H torsion
[ 7974 7965 7964 7962 ] final   78.24 input  175.53 | X-H torsion
[ 8008 7997 7996 7995 ] final  -94.84 input   59.86 | X-H torsion
[ 10167 10162 10161 10158 ] final  154.90 input  -65.29 | X-H torsion
[ 10718 10713 10712 10709 ] final   54.55 input   66.30 | X-H torsion
[ 10763 10752 10751 10750 ] final  -75.99 input  -60.55 | X-H torsion
[ 11005 11000 10999 10996 ] final -124.57 input  -57.11 | X-H torsion

> <Gold.Protein.ActiveResidues>
 VAL166  LYS551  ARG553  GLY616  TRP617  ASP618  TYR619  PRO620  LYS621  CYS622 
 ASP623  PHE694  ASN695  SER759  ASP760  ASP761  ALA762  ILE779  LEU786  VAL792 
 PHE793  MET794  SER795  GLU796  ALA797  LYS798  CYS799  TRP800  GLU811  SER814 

> <Gold.Protein.RotatedAtoms>
  150.9268  134.8684  159.7524 H   0  0  0  0  0  0  0  0  0  0  0  0  # atno 6907 bound_to 6896
  152.5019  134.4138  159.9467 H   0  0  0  0  0  0  0  0  0  0  0  0  # atno 6908 bound_to 6896
  151.4168  133.3671  159.2786 H   0  0  0  0  0  0  0  0  0  0  0  0  # atno 6909 bound_to 6896
  145.6797  139.2520  143.1821 H   0  0  0  0  0  0  0  0  0  0  0  0  # atno 7974 bound_to 7965
  154.7536  140.0485  157.0914 H   0  0  0  0  0  0  0  0  0  0  0  0  # atno 8008 bound_to 7997
  155.0026  140.3126  155.4842 H   0  0  0  0  0  0  0  0  0  0  0  0  # atno 8009 bound_to 7997
  156.2890  140.2198  156.5136 H   0  0  0  0  0  0  0  0  0  0  0  0  # atno 8010 bound_to 7997
  139.4822  144.5146  151.7971 H   0  0  0  0  0  0  0  0  0  0  0  0  # atno 10167 bound_to 10162
  157.5267  130.8602  149.8631 H   0  0  0  0  0  0  0  0  0  0  0  0  # atno 10718 bound_to 10713
  154.4939  135.5813  153.6479 H   0  0  0  0  0  0  0  0  0  0  0  0  # atno 10763 bound_to 10752
  152.9867  135.6119  154.3090 H   0  0  0  0  0  0  0  0  0  0  0  0  # atno 10764 bound_to 10752
  154.2992  135.2847  155.2598 H   0  0  0  0  0  0  0  0  0  0  0  0  # atno 10765 bound_to 10752
  140.9831  134.0645  157.3742 H   0  0  0  0  0  0  0  0  0  0  0  0  # atno 11005 bound_to 11000
  146.0975  140.7583  142.9565 LP  0  0  0  0  0  0  0  0  0  0  0  0  # atno 17320 bound_to 7965
  144.7030  140.3734  143.7141 LP  0  0  0  0  0  0  0  0  0  0  0  0  # atno 17321 bound_to 7965
  140.4653  144.1664  150.5911 LP  0  0  0  0  0  0  0  0  0  0  0  0  # atno 17342 bound_to 10162
  140.4441  143.2514  151.9435 LP  0  0  0  0  0  0  0  0  0  0  0  0  # atno 17343 bound_to 10162
  156.0392  130.3743  150.1479 LP  0  0  0  0  0  0  0  0  0  0  0  0  # atno 17370 bound_to 10713
  156.9665  130.9821  151.3468 LP  0  0  0  0  0  0  0  0  0  0  0  0  # atno 17371 bound_to 10713
  139.8958  135.0143  156.7023 LP  0  0  0  0  0  0  0  0  0  0  0  0  # atno 17394 bound_to 11000
  140.7156  133.9185  155.8113 LP  0  0  0  0  0  0  0  0  0  0  0  0  # atno 17395 bound_to 11000

$$$$
