AV-unprocessed.smi:598|AV-procd|sdf|3023|dock5
  -GOLD-   2262023533D 1   1.00000     0.00000
 Structure written by MMmdl.
 43 44  0  0  0  0  0  0  0  0  3 V2000
  153.5844  141.9679  160.7677 C   0  0  0  0  0  0  0  0  0  0  0  0
  153.0888  142.4409  159.3884 C   0  0  2  0  0  0  0  0  0  0  0  0
  152.8237  143.9591  159.4295 C   0  0  0  0  0  0  0  0  0  0  0  0
  152.3609  144.4930  158.0701 C   0  0  0  0  0  0  0  0  0  0  0  0
  151.1010  143.7581  157.6040 C   0  0  0  0  0  0  0  0  0  0  0  0
  151.3304  142.2355  157.5363 C   0  0  2  0  0  0  0  0  0  0  0  0
  150.0871  141.5796  157.1333 N   0  0  0  0  0  0  0  0  0  0  0  0
  149.9405  140.7739  156.0705 C   0  0  0  0  0  0  0  0  0  0  0  0
  150.8644  140.4853  155.3087 O   0  0  0  0  0  0  0  0  0  0  0  0
  148.5339  140.1984  155.8532 C   0  0  0  0  0  0  0  0  0  0  0  0
  147.5574  141.2070  155.4086 N   0  0  0  0  0  0  0  0  0  0  0  0
  146.4150  141.3914  156.2126 C   0  0  0  0  0  0  0  0  0  0  0  0
  145.4541  142.2820  155.8976 C   0  0  0  0  0  0  0  0  0  0  0  0
  144.2847  142.4539  156.7313 N   0  3  0  0  0  0  0  0  0  0  0  0
  143.4623  143.3102  156.4220 O   0  0  0  0  0  0  0  0  0  0  0  0
  144.1495  141.7415  157.7217 O   0  5  0  0  0  0  0  0  0  0  0  0
  145.6288  143.0627  154.6881 C   0  0  0  0  0  0  0  0  0  0  0  0
  146.7171  142.8881  153.9128 C   0  0  0  0  0  0  0  0  0  0  0  0
  147.7593  141.9149  154.2551 C   0  0  0  0  0  0  0  0  0  0  0  0
  148.7531  141.7466  153.5481 O   0  0  0  0  0  0  0  0  0  0  0  0
  151.8359  141.6653  158.8896 C   0  0  1  0  0  0  0  0  0  0  0  0
  152.1006  140.1469  158.7870 C   0  0  0  0  0  0  0  0  0  0  0  0
  152.7921  142.0228  161.5151 H   0  0  0  0  0  0  0  0  0  0  0  0
  154.4123  142.5849  161.1182 H   0  0  0  0  0  0  0  0  0  0  0  0
  153.9507  140.9424  160.7386 H   0  0  0  0  0  0  0  0  0  0  0  0
  153.8971  142.2693  158.6755 H   0  0  0  0  0  0  0  0  0  0  0  0
  152.0681  144.1817  160.1843 H   0  0  0  0  0  0  0  0  0  0  0  0
  153.7274  144.4884  159.7337 H   0  0  0  0  0  0  0  0  0  0  0  0
  152.1635  145.5630  158.1380 H   0  0  0  0  0  0  0  0  0  0  0  0
  153.1554  144.3695  157.3334 H   0  0  0  0  0  0  0  0  0  0  0  0
  150.2792  143.9792  158.2867 H   0  0  0  0  0  0  0  0  0  0  0  0
  150.8009  144.1390  156.6270 H   0  0  0  0  0  0  0  0  0  0  0  0
  152.0959  142.0355  156.7836 H   0  0  0  0  0  0  0  0  0  0  0  0
  149.2755  141.7571  157.7072 H   0  0  0  0  0  0  0  0  0  0  0  0
  148.6079  139.3887  155.1260 H   0  0  0  0  0  0  0  0  0  0  0  0
  148.1894  139.7225  156.7735 H   0  0  0  0  0  0  0  0  0  0  0  0
  146.3749  140.7573  157.0865 H   0  0  0  0  0  0  0  0  0  0  0  0
  144.8882  143.7920  154.3946 H   0  0  0  0  0  0  0  0  0  0  0  0
  146.8262  143.4797  153.0156 H   0  0  0  0  0  0  0  0  0  0  0  0
  151.0433  141.8098  159.6258 H   0  0  0  0  0  0  0  0  0  0  0  0
  152.9248  139.9359  158.1052 H   0  0  0  0  0  0  0  0  0  0  0  0
  151.2277  139.6041  158.4249 H   0  0  0  0  0  0  0  0  0  0  0  0
  152.3467  139.7121  159.7547 H   0  0  0  0  0  0  0  0  0  0  0  0
  1  2  1  0  0  0  0
  1 23  1  0  0  0  0
  1 24  1  0  0  0  0
  1 25  1  0  0  0  0
  2 21  1  0  0  0  0
  2  3  1  0  0  0  0
  2 26  1  0  0  0  0
  3  4  1  0  0  0  0
  3 27  1  0  0  0  0
  3 28  1  0  0  0  0
  4  5  1  0  0  0  0
  4 29  1  0  0  0  0
  4 30  1  0  0  0  0
  5  6  1  0  0  0  0
  5 31  1  0  0  0  0
  5 32  1  0  0  0  0
  6  7  1  0  0  0  0
  6 21  1  0  0  0  0
  6 33  1  0  0  0  0
  7  8  1  0  0  0  0
  7 34  1  0  0  0  0
  8  9  2  0  0  0  0
  8 10  1  0  0  0  0
 10 11  1  0  0  0  0
 10 35  1  0  0  0  0
 10 36  1  0  0  0  0
 11 19  1  0  0  0  0
 11 12  1  0  0  0  0
 12 13  2  0  0  0  0
 12 37  1  0  0  0  0
 13 14  1  0  0  0  0
 13 17  1  0  0  0  0
 14 15  2  0  0  0  0
 14 16  1  0  0  0  0
 17 18  2  0  0  0  0
 17 38  1  0  0  0  0
 18 19  1  0  0  0  0
 18 39  1  0  0  0  0
 19 20  2  0  0  0  0
 21 22  1  0  0  0  0
 21 40  1  0  0  0  0
 22 41  1  0  0  0  0
 22 42  1  0  0  0  0
 22 43  1  0  0  0  0
M  CHG  1  14   1
M  CHG  1  16  -1
M  END
> <s_m_source_file>
AV-unprocessed.smi

> <i_m_source_file_index>
598

> <i_lp_mmshare_version>
43012

> <i_f3d_flags>
0

> <s_epik_input>
W0NIM11bQ0BASF0xW0NIMl1bQ0gyXVtDSDJdW0NASF0oW0NASF0xW0NIM10pW05IXUMoPU8pW0NIMl1uMltjSF1jKFtOK10oPU8pW08tXSlbY0hdW2NIXWMyPU8=

> <s_epik_cmdline>
J2VwaWtfcHl0aG9uJywgJy1waCcsICc3LjAnLCAnLXRuJywgJzgnLCAnLW1hJywgJzIwMCcsICctbWV0YWxfYmluZGluZycsICctaW1hZScsICc8aW5maWxlLm1hZT4nLCAnLW9tYWUnLCAnPG91dGZpbGUubWFlPic=

> <r_lp_tautomer_probability>
1

> <r_epik_Ionization_Penalty>
1.91291e-08

> <r_epik_Ionization_Penalty_Charging>
8.21931e-11

> <r_epik_Ionization_Penalty_Neutral>
1.90469e-08

> <r_epik_State_Penalty>
-0

> <r_epik_Charging_Adjusted_Penalty>
8.21931e-11

> <i_epik_Tot_Q>
0

> <i_epik_Tot_abs_Q>
2

> <r_epik_Metal_State_Penalty>
-0

> <b_epik_Metal_Only>
0

> <s_lp_Force_Field>
OPLS_2005

> <r_lp_Energy>
24.1223

> <b_lp_Chiralities_Consistent>
1

> <s_lp_Variant>
AV-unprocessed.smi:598-3

> <Gold.Version>
5.8.1

> <Gold.Id.Protein>
6NUR|6NUR_protein|mol2

> <Gold.PLP.Fitness>
46.2656

> <Gold.PLP.PLP>
-41.4853

> <Gold.PLP.part.hbond>
-2.0851

> <Gold.PLP.part.metal>
0.0000

> <Gold.PLP.part.buried>
-3.4873

> <Gold.PLP.part.nonpolar>
-36.5076

> <Gold.PLP.part.repulsive>
1.3339

> <Gold.PLP.ligand.clash>
0.0000

> <Gold.PLP.ligand.torsion>
0.1349

> <Gold.PLP.Chemscore.Hbond>
1.6800

> <Gold.PLP.Chemscore.CHOScore>
0.0000

> <Gold.PLP.Chemscore.Metal>
0.0000

> <Gold.Chemscore.Hbonds>
donor molecule, donor type, donor heavy atom, donor atom, acceptor molecule, acceptor atom, score
      P1  H  7989  7998       L1     9  0.99
      P1  H  8011  8017       L1    20  0.64

> <Gold.PLP.Chemscore.Internal.Correction>
0.0101

> <Gold.Rescore>
     Score         DG    S(hbond)    S(metal)    S(lipo)     H(rot)  DE(clash)    DE(int)     intcor
     16.22     -19.18       1.57        0.00     105.92       1.54       0.47       2.49       ----

> <Gold.Chemscore.Fitness>
16.2205

> <Gold.Chemscore.DG>
-19.1807

> <Gold.Chemscore.ZeroCoef>
-5.4800

> <Gold.Chemscore.Hbond>
1.5713

> <Gold.Chemscore.Metal>
0.0000

> <Gold.Chemscore.Lipo>
105.9238

> <Gold.Chemscore.Internal_Hbond>
0.0000

> <Gold.Chemscore.DEClash>
0.4653

> <Gold.Chemscore.DEInternal>
2.4949

> <Gold.Chemscore.Rot>
1.5393

> <Gold.Chemscore.Internal.Correction>
   9.000000E+99

> <Gold.Chemscore.Hbonds>
donor molecule, donor type, donor heavy atom, donor atom, acceptor molecule, acceptor atom, score
      P1  H  7989  7998       L1     9  0.90
      P1  H  8011  8017       L1    20  0.64

> <Gold.Chemscore.Hbond.Weighted>
-5.2483

> <Gold.Chemscore.Metal.Weighted>
-0.0000

> <Gold.Chemscore.Lipo.Weighted>
-12.3931

> <Gold.Chemscore.Internal_Hbond.Weighted>
0.0000

> <Gold.Chemscore.DEClash.Weighted>
0.4653

> <Gold.Chemscore.DEInternal.Weighted>
2.4949

> <Gold.Chemscore.Rot.Weighted>
3.9407

> <Gold.Chemscore.Internal.Correction.Weighted>
   9.000000E+99

> <Gold.Protein.RotatedTorsions>
[ 6907 6896 6895 6894 ] final   65.80 input  -60.11 | X-H torsion
[ 7974 7965 7964 7962 ] final -142.88 input  175.53 | X-H torsion
[ 8008 7997 7996 7995 ] final  151.09 input   59.86 | X-H torsion
[ 10167 10162 10161 10158 ] final  143.17 input  -65.29 | X-H torsion
[ 10718 10713 10712 10709 ] final  -56.05 input   66.30 | X-H torsion
[ 10763 10752 10751 10750 ] final -122.42 input  -60.55 | X-H torsion
[ 11005 11000 10999 10996 ] final   58.21 input  -57.11 | X-H torsion

> <Gold.Protein.ActiveResidues>
 VAL166  LYS551  ARG553  GLY616  TRP617  ASP618  TYR619  PRO620  LYS621  CYS622 
 ASP623  PHE694  ASN695  SER759  ASP760  ASP761  ALA762  ILE779  LEU786  VAL792 
 PHE793  MET794  SER795  GLU796  ALA797  LYS798  CYS799  TRP800  GLU811  SER814 

> <Gold.Protein.RotatedAtoms>
  152.4434  134.5544  159.9875 H   0  0  0  0  0  0  0  0  0  0  0  0  # atno 6907 bound_to 6896
  151.5635  133.3394  159.2983 H   0  0  0  0  0  0  0  0  0  0  0  0  # atno 6908 bound_to 6896
  150.8345  134.7646  159.6945 H   0  0  0  0  0  0  0  0  0  0  0  0  # atno 6909 bound_to 6896
  144.8410  140.5903  143.5452 H   0  0  0  0  0  0  0  0  0  0  0  0  # atno 7974 bound_to 7965
  156.2688  140.2057  156.6121 H   0  0  0  0  0  0  0  0  0  0  0  0  # atno 8008 bound_to 7997
  154.6823  140.0538  157.0303 H   0  0  0  0  0  0  0  0  0  0  0  0  # atno 8009 bound_to 7997
  155.0983  140.3203  155.4557 H   0  0  0  0  0  0  0  0  0  0  0  0  # atno 8010 bound_to 7997
  139.4976  144.6058  151.6381 H   0  0  0  0  0  0  0  0  0  0  0  0  # atno 10167 bound_to 10162
  156.1320  130.4159  150.0252 H   0  0  0  0  0  0  0  0  0  0  0  0  # atno 10718 bound_to 10713
  154.8689  135.4133  154.2779 H   0  0  0  0  0  0  0  0  0  0  0  0  # atno 10763 bound_to 10752
  153.3677  135.7006  153.6668 H   0  0  0  0  0  0  0  0  0  0  0  0  # atno 10764 bound_to 10752
  153.5542  135.3622  155.2744 H   0  0  0  0  0  0  0  0  0  0  0  0  # atno 10765 bound_to 10752
  140.0394  134.5895  155.9401 H   0  0  0  0  0  0  0  0  0  0  0  0  # atno 11005 bound_to 11000
  145.4694  139.1505  143.3823 LP  0  0  0  0  0  0  0  0  0  0  0  0  # atno 17320 bound_to 7965
  146.2703  140.4826  142.8817 LP  0  0  0  0  0  0  0  0  0  0  0  0  # atno 17321 bound_to 7965
  140.5720  144.0093  150.6221 LP  0  0  0  0  0  0  0  0  0  0  0  0  # atno 17342 bound_to 10162
  140.3213  143.3135  152.0781 LP  0  0  0  0  0  0  0  0  0  0  0  0  # atno 17343 bound_to 10162
  156.8162  130.9342  151.3643 LP  0  0  0  0  0  0  0  0  0  0  0  0  # atno 17370 bound_to 10713
  157.6497  130.8874  149.9608 LP  0  0  0  0  0  0  0  0  0  0  0  0  # atno 17371 bound_to 10713
  141.1875  133.6560  156.5284 LP  0  0  0  0  0  0  0  0  0  0  0  0  # atno 17394 bound_to 11000
  140.4094  134.7286  157.4827 LP  0  0  0  0  0  0  0  0  0  0  0  0  # atno 17395 bound_to 11000

$$$$
