AV-unprocessed.smi:3336|AV-procd|sdf|12854|dock6
  -GOLD-   2272019243D 1   1.00000     0.00000
 Structure written by MMmdl.
 42 43  0  0  0  0  0  0  0  0  2 V2000
  146.3718  138.5622  150.9606 C   0  0  0  0  0  0  0  0  0  0  0  0
  146.6242  138.5204  152.4800 C   0  0  1  0  0  0  0  0  0  0  0  0
  146.2939  137.1430  153.0910 C   0  0  0  0  0  0  0  0  0  0  0  0
  144.9640  136.6716  152.7480 N   0  0  0  0  0  0  0  0  0  0  0  0
  143.7464  137.2588  153.0223 C   0  0  0  0  0  0  0  0  0  0  0  0
  142.7790  136.4537  152.4927 C   0  0  0  0  0  0  0  0  0  0  0  0
  143.5126  135.3887  151.8987 C   0  0  0  0  0  0  0  0  0  0  0  0
  144.8203  135.5238  152.0509 N   0  0  0  0  0  0  0  0  0  0  0  0
  148.0317  138.8666  152.7905 N   0  3  0  0  0  0  0  0  0  0  0  0
  148.2770  139.4860  154.1167 C   0  0  2  0  0  0  0  0  0  0  0  0
  147.5810  140.8566  154.1660 C   0  0  0  0  0  0  0  0  0  0  0  0
  149.7872  139.6418  154.4012 C   0  0  0  0  0  0  0  0  0  0  0  0
  150.2292  140.7812  154.5612 O   0  0  0  0  0  0  0  0  0  0  0  0
  150.5867  138.5479  154.4739 N   0  0  0  0  0  0  0  0  0  0  0  0
  152.0295  138.6349  154.7253 C   0  0  0  0  0  0  0  0  0  0  0  0
  152.3394  137.9376  156.0609 C   0  0  0  0  0  0  0  0  0  0  0  0
  151.9043  136.5823  156.0016 O   0  0  0  0  0  0  0  0  0  0  0  0
  150.5100  136.4575  155.7372 C   0  0  0  0  0  0  0  0  0  0  0  0
  150.1677  137.1427  154.4010 C   0  0  0  0  0  0  0  0  0  0  0  0
  145.3271  138.3577  150.7252 H   0  0  0  0  0  0  0  0  0  0  0  0
  146.9789  137.8214  150.4393 H   0  0  0  0  0  0  0  0  0  0  0  0
  146.6043  139.5384  150.5363 H   0  0  0  0  0  0  0  0  0  0  0  0
  145.9751  139.2562  152.9566 H   0  0  0  0  0  0  0  0  0  0  0  0
  147.0193  136.3986  152.7594 H   0  0  0  0  0  0  0  0  0  0  0  0
  146.3666  137.1856  154.1789 H   0  0  0  0  0  0  0  0  0  0  0  0
  143.6691  138.1886  153.5667 H   0  0  0  0  0  0  0  0  0  0  0  0
  141.7100  136.6041  152.5215 H   0  0  0  0  0  0  0  0  0  0  0  0
  143.1367  134.5286  151.3642 H   0  0  0  0  0  0  0  0  0  0  0  0
  148.5800  138.0183  152.7575 H   0  0  0  0  0  0  0  0  0  0  0  0
  147.8224  138.8328  154.8587 H   0  0  0  0  0  0  0  0  0  0  0  0
  147.7030  141.3402  155.1352 H   0  0  0  0  0  0  0  0  0  0  0  0
  146.5098  140.7549  153.9894 H   0  0  0  0  0  0  0  0  0  0  0  0
  147.9778  141.5335  153.4082 H   0  0  0  0  0  0  0  0  0  0  0  0
  152.5672  138.1449  153.9122 H   0  0  0  0  0  0  0  0  0  0  0  0
  152.4002  139.6602  154.7541 H   0  0  0  0  0  0  0  0  0  0  0  0
  153.4115  137.9565  156.2568 H   0  0  0  0  0  0  0  0  0  0  0  0
  151.8522  138.4515  156.8909 H   0  0  0  0  0  0  0  0  0  0  0  0
  150.2526  135.3989  155.6957 H   0  0  0  0  0  0  0  0  0  0  0  0
  149.9365  136.8927  156.5570 H   0  0  0  0  0  0  0  0  0  0  0  0
  149.1097  136.9999  154.1963 H   0  0  0  0  0  0  0  0  0  0  0  0
  150.6985  136.6526  153.5835 H   0  0  0  0  0  0  0  0  0  0  0  0
  148.3649  139.4903  152.0698 H   0  0  0  0  0  0  0  0  0  0  0  0
  1  2  1  0  0  0  0
  1 20  1  0  0  0  0
  1 21  1  0  0  0  0
  1 22  1  0  0  0  0
  2  3  1  0  0  0  0
  2  9  1  0  0  0  0
  2 23  1  0  0  0  0
  3  4  1  0  0  0  0
  3 24  1  0  0  0  0
  3 25  1  0  0  0  0
  4  8  1  0  0  0  0
  4  5  1  0  0  0  0
  5  6  2  0  0  0  0
  5 26  1  0  0  0  0
  6  7  1  0  0  0  0
  6 27  1  0  0  0  0
  7  8  2  0  0  0  0
  7 28  1  0  0  0  0
  9 10  1  0  0  0  0
  9 29  1  0  0  0  0
  9 42  1  0  0  0  0
 10 11  1  0  0  0  0
 10 12  1  0  0  0  0
 10 30  1  0  0  0  0
 11 31  1  0  0  0  0
 11 32  1  0  0  0  0
 11 33  1  0  0  0  0
 12 13  2  0  0  0  0
 12 14  1  0  0  0  0
 14 19  1  0  0  0  0
 14 15  1  0  0  0  0
 15 16  1  0  0  0  0
 15 34  1  0  0  0  0
 15 35  1  0  0  0  0
 16 17  1  0  0  0  0
 16 36  1  0  0  0  0
 16 37  1  0  0  0  0
 17 18  1  0  0  0  0
 18 19  1  0  0  0  0
 18 38  1  0  0  0  0
 18 39  1  0  0  0  0
 19 40  1  0  0  0  0
 19 41  1  0  0  0  0
M  CHG  1   9   1
M  END
> <s_m_source_file>
AV-unprocessed.smi

> <i_m_source_file_index>
3336

> <i_lp_mmshare_version>
43012

> <i_f3d_flags>
0

> <s_epik_input>
bjFbY0hdW2NIXVtjSF1uMVtDSDJdW0NAQEhdKFtDSDNdKVtOSF1bQ0BIXShbQ0gzXSlDKD1PKU4yW0NIMl1bQ0gyXU9bQ0gyXVtDSDJdMg==

> <s_epik_cmdline>
J2VwaWtfcHl0aG9uJywgJy1waCcsICc3LjAnLCAnLXRuJywgJzgnLCAnLW1hJywgJzIwMCcsICctbWV0YWxfYmluZGluZycsICctaW1hZScsICc8aW5maWxlLm1hZT4nLCAnLW9tYWUnLCAnPG91dGZpbGUubWFlPic=

> <r_lp_tautomer_probability>
1

> <r_epik_Ionization_Penalty>
0.200288

> <r_epik_Ionization_Penalty_Charging>
0.200285

> <r_epik_Ionization_Penalty_Neutral>
3.37705e-06

> <r_epik_State_Penalty>
0.190126

> <r_epik_Charging_Adjusted_Penalty>
0.39041

> <i_epik_Tot_Q>
1

> <i_epik_Tot_abs_Q>
1

> <r_epik_Metal_State_Penalty>
0.190133

> <b_epik_Metal_Only>
0

> <s_lp_Force_Field>
OPLS_2005

> <r_lp_Energy>
27.5118

> <b_lp_Chiralities_Consistent>
1

> <s_lp_Variant>
AV-unprocessed.smi:3336-2

> <Gold.Version>
5.8.1

> <Gold.Id.Protein>
6NUR|6NUR_protein|mol2

> <Gold.PLP.Fitness>
46.1362

> <Gold.PLP.PLP>
-29.1405

> <Gold.PLP.part.hbond>
-4.0000

> <Gold.PLP.part.metal>
0.0000

> <Gold.PLP.part.buried>
3.8320

> <Gold.PLP.part.nonpolar>
-29.0981

> <Gold.PLP.part.repulsive>
0.3353

> <Gold.PLP.ligand.clash>
0.0000

> <Gold.PLP.ligand.torsion>
0.3564

> <Gold.PLP.Chemscore.Hbond>
4.7280

> <Gold.PLP.Chemscore.CHOScore>
1.1474

> <Gold.PLP.Chemscore.Metal>
0.0000

> <Gold.Chemscore.Hbonds>
donor molecule, donor type, donor heavy atom, donor atom, acceptor molecule, acceptor atom, score
      L1  H     9    29       P1  7948  1.92
      L1  H     9    42       P1  7957  0.99
      P1  H  7989  7998       L1    13  0.78
      P1  H 10752 10763       L1    17  1.00
      L1  C     5    26       P1 10175  0.87
      L1  C     7    28       P1 10186  0.28

> <Gold.PLP.Chemscore.Internal.Correction>
0.0824

> <Gold.Rescore>
     Score         DG    S(hbond)    S(metal)    S(lipo)     H(rot)  DE(clash)    DE(int)     intcor
     16.58     -19.54       3.07        0.00      73.11       1.85       2.61       0.35       ----

> <Gold.Chemscore.Fitness>
16.5830

> <Gold.Chemscore.DG>
-19.5434

> <Gold.Chemscore.ZeroCoef>
-5.4800

> <Gold.Chemscore.Hbond>
3.0706

> <Gold.Chemscore.Metal>
0.0000

> <Gold.Chemscore.Lipo>
73.1115

> <Gold.Chemscore.Internal_Hbond>
0.0000

> <Gold.Chemscore.DEClash>
2.6125

> <Gold.Chemscore.DEInternal>
0.3479

> <Gold.Chemscore.Rot>
1.8541

> <Gold.Chemscore.Internal.Correction>
   9.000000E+99

> <Gold.Chemscore.Hbonds>
donor molecule, donor type, donor heavy atom, donor atom, acceptor molecule, acceptor atom, score
      L1  H     9    29       P1  7948  0.88
      L1  H     9    42       P1  7957  0.94
      P1  H  7989  7998       L1    13  0.39
      P1  H 10752 10763       L1    17  0.76

> <Gold.Chemscore.Hbond.Weighted>
-10.2559

> <Gold.Chemscore.Metal.Weighted>
-0.0000

> <Gold.Chemscore.Lipo.Weighted>
-8.5541

> <Gold.Chemscore.Internal_Hbond.Weighted>
0.0000

> <Gold.Chemscore.DEClash.Weighted>
2.6125

> <Gold.Chemscore.DEInternal.Weighted>
0.3479

> <Gold.Chemscore.Rot.Weighted>
4.7465

> <Gold.Chemscore.Internal.Correction.Weighted>
   9.000000E+99

> <Gold.Protein.RotatedTorsions>
[ 6907 6896 6895 6894 ] final  -79.40 input  -60.11 | X-H torsion
[ 7974 7965 7964 7962 ] final   30.17 input  175.53 | X-H torsion
[ 8008 7997 7996 7995 ] final -173.86 input   59.86 | X-H torsion
[ 10167 10162 10161 10158 ] final -157.63 input  -65.29 | X-H torsion
[ 10718 10713 10712 10709 ] final -157.83 input   66.30 | X-H torsion
[ 10763 10752 10751 10750 ] final   81.15 input  -60.55 | X-H torsion
[ 11005 11000 10999 10996 ] final  171.57 input  -57.11 | X-H torsion

> <Gold.Protein.ActiveResidues>
 VAL166  LYS551  ARG553  GLY616  TRP617  ASP618  TYR619  PRO620  LYS621  CYS622 
 ASP623  PHE694  ASN695  SER759  ASP760  ASP761  ALA762  ILE779  LEU786  VAL792 
 PHE793  MET794  SER795  GLU796  ALA797  LYS798  CYS799  TRP800  GLU811  SER814 

> <Gold.Protein.RotatedAtoms>
  150.6950  134.4127  159.5168 H   0  0  0  0  0  0  0  0  0  0  0  0  # atno 6907 bound_to 6896
  152.1882  134.8692  160.0529 H   0  0  0  0  0  0  0  0  0  0  0  0  # atno 6908 bound_to 6896
  151.9657  133.3674  159.4089 H   0  0  0  0  0  0  0  0  0  0  0  0  # atno 6909 bound_to 6896
  146.1628  139.6824  142.9022 H   0  0  0  0  0  0  0  0  0  0  0  0  # atno 7974 bound_to 7965
  155.9627  140.1147  157.0881 H   0  0  0  0  0  0  0  0  0  0  0  0  # atno 8008 bound_to 7997
  154.4136  140.1178  156.5268 H   0  0  0  0  0  0  0  0  0  0  0  0  # atno 8009 bound_to 7997
  155.6699  140.3473  155.4816 H   0  0  0  0  0  0  0  0  0  0  0  0  # atno 8010 bound_to 7997
  139.6755  143.9671  152.2308 H   0  0  0  0  0  0  0  0  0  0  0  0  # atno 10167 bound_to 10162
  156.5457  130.8583  151.2763 H   0  0  0  0  0  0  0  0  0  0  0  0  # atno 10718 bound_to 10713
  153.1092  135.4776  154.9005 H   0  0  0  0  0  0  0  0  0  0  0  0  # atno 10763 bound_to 10752
  154.7463  135.3094  154.8641 H   0  0  0  0  0  0  0  0  0  0  0  0  # atno 10764 bound_to 10752
  153.9235  135.6852  153.4800 H   0  0  0  0  0  0  0  0  0  0  0  0  # atno 10765 bound_to 10752
  140.3204  134.7442  157.4059 H   0  0  0  0  0  0  0  0  0  0  0  0  # atno 11005 bound_to 11000
  145.4545  141.0430  143.2786 LP  0  0  0  0  0  0  0  0  0  0  0  0  # atno 17320 bound_to 7965
  144.8050  139.6068  143.7055 LP  0  0  0  0  0  0  0  0  0  0  0  0  # atno 17321 bound_to 7965
  139.9447  144.6659  150.8231 LP  0  0  0  0  0  0  0  0  0  0  0  0  # atno 17342 bound_to 10162
  140.7634  143.3221  151.2598 LP  0  0  0  0  0  0  0  0  0  0  0  0  # atno 17343 bound_to 10162
  157.7397  130.9836  150.2330 LP  0  0  0  0  0  0  0  0  0  0  0  0  # atno 17370 bound_to 10713
  156.2931  130.3748  149.7822 LP  0  0  0  0  0  0  0  0  0  0  0  0  # atno 17371 bound_to 10713
  140.0947  134.5553  155.8410 LP  0  0  0  0  0  0  0  0  0  0  0  0  # atno 17394 bound_to 11000
  141.2088  133.6677  156.6395 LP  0  0  0  0  0  0  0  0  0  0  0  0  # atno 17395 bound_to 11000

$$$$
