AV-unprocessed.smi:2706|AV-procd|sdf|10450|dock3
  -GOLD-   2272014493D 1   1.00000     0.00000
 Structure written by MMmdl.
 44 47  0  0  0  0  0  0  0  0  2 V2000
  146.3744  131.2880  152.5316 C   0  0  0  0  0  0  0  0  0  0  0  0
  147.0745  132.5677  152.5432 N   0  0  0  0  0  0  0  0  0  0  0  0
  146.6645  133.6349  151.6395 C   0  0  0  0  0  0  0  0  0  0  0  0
  148.0716  132.8143  153.5107 C   0  0  0  0  0  0  0  0  0  0  0  0
  148.5359  131.8289  154.4144 C   0  0  0  0  0  0  0  0  0  0  0  0
  149.5398  132.1564  155.3466 C   0  0  0  0  0  0  0  0  0  0  0  0
  150.0651  133.4627  155.3717 C   0  0  0  0  0  0  0  0  0  0  0  0
  149.5678  134.4288  154.4634 C   0  0  0  0  0  0  0  0  0  0  0  0
  150.0300  135.7702  154.3839 N   0  0  0  0  0  0  0  0  0  0  0  0
  151.0153  136.3593  155.0842 C   0  0  0  0  0  0  0  0  0  0  0  0
  151.6981  135.8096  155.9485 O   0  0  0  0  0  0  0  0  0  0  0  0
  151.1557  137.6453  154.7342 N   0  0  0  0  0  0  0  0  0  0  0  0
  152.0975  138.5632  155.2910 C   0  0  2  0  0  0  0  0  0  0  0  0
  151.8690  139.1739  156.6688 C   0  0  2  0  0  0  0  0  0  0  0  0
  150.5485  139.4131  157.4053 C   0  0  1  0  0  0  0  0  0  0  0  0
  150.6088  140.8365  158.0006 C   0  0  0  0  0  0  0  0  0  0  0  0
  150.4846  141.7297  156.7396 C   0  0  0  0  0  0  0  0  0  0  0  0
  150.3714  140.6877  155.6057 C   0  0  2  0  0  0  0  0  0  0  0  0
  149.5037  139.6475  156.3143 C   0  0  0  0  0  0  0  0  0  0  0  0
  151.7488  140.0388  155.4475 C   0  0  2  0  0  0  0  0  0  0  0  0
  148.6131  134.0552  153.5806 N   0  3  0  0  0  0  0  0  0  0  0  0
  145.8215  131.1463  153.4605 H   0  0  0  0  0  0  0  0  0  0  0  0
  147.0793  130.4640  152.4172 H   0  0  0  0  0  0  0  0  0  0  0  0
  145.6632  131.2321  151.7071 H   0  0  0  0  0  0  0  0  0  0  0  0
  146.2992  134.4949  152.2018 H   0  0  0  0  0  0  0  0  0  0  0  0
  145.8638  133.3071  150.9761 H   0  0  0  0  0  0  0  0  0  0  0  0
  147.5014  133.9539  151.0174 H   0  0  0  0  0  0  0  0  0  0  0  0
  148.1408  130.8242  154.4057 H   0  0  0  0  0  0  0  0  0  0  0  0
  149.9074  131.4093  156.0345 H   0  0  0  0  0  0  0  0  0  0  0  0
  150.8464  133.6929  156.0797 H   0  0  0  0  0  0  0  0  0  0  0  0
  149.5087  136.3721  153.7637 H   0  0  0  0  0  0  0  0  0  0  0  0
  150.5472  138.0123  154.0170 H   0  0  0  0  0  0  0  0  0  0  0  0
  153.1417  138.3683  155.0500 H   0  0  0  0  0  0  0  0  0  0  0  0
  152.7592  139.2884  157.2849 H   0  0  0  0  0  0  0  0  0  0  0  0
  150.3129  138.6266  158.1226 H   0  0  0  0  0  0  0  0  0  0  0  0
  149.7758  141.0131  158.6823 H   0  0  0  0  0  0  0  0  0  0  0  0
  151.5336  141.0182  158.5495 H   0  0  0  0  0  0  0  0  0  0  0  0
  149.5895  142.3510  156.7931 H   0  0  0  0  0  0  0  0  0  0  0  0
  151.3427  142.3909  156.6119 H   0  0  0  0  0  0  0  0  0  0  0  0
  149.9734  141.0745  154.6674 H   0  0  0  0  0  0  0  0  0  0  0  0
  149.2461  138.7749  155.7215 H   0  0  0  0  0  0  0  0  0  0  0  0
  148.5662  140.0570  156.6967 H   0  0  0  0  0  0  0  0  0  0  0  0
  152.5581  140.7369  155.2402 H   0  0  0  0  0  0  0  0  0  0  0  0
  148.2681  134.7543  152.9232 H   0  0  0  0  0  0  0  0  0  0  0  0
  1  2  1  0  0  0  0
  1 22  1  0  0  0  0
  1 23  1  0  0  0  0
  1 24  1  0  0  0  0
  2  3  1  0  0  0  0
  2  4  1  0  0  0  0
  3 25  1  0  0  0  0
  3 26  1  0  0  0  0
  3 27  1  0  0  0  0
  4 21  1  0  0  0  0
  4  5  2  0  0  0  0
  5  6  1  0  0  0  0
  5 28  1  0  0  0  0
  6  7  2  0  0  0  0
  6 29  1  0  0  0  0
  7  8  1  0  0  0  0
  7 30  1  0  0  0  0
  8  9  1  0  0  0  0
  8 21  2  0  0  0  0
  9 10  1  0  0  0  0
  9 31  1  0  0  0  0
 10 11  2  0  0  0  0
 10 12  1  0  0  0  0
 12 13  1  0  0  0  0
 12 32  1  0  0  0  0
 13 20  1  0  0  0  0
 13 14  1  0  0  0  0
 13 33  1  0  0  0  0
 14 20  1  0  0  0  0
 14 15  1  0  0  0  0
 14 34  1  0  0  0  0
 15 19  1  0  0  0  0
 15 16  1  0  0  0  0
 15 35  1  0  0  0  0
 16 17  1  0  0  0  0
 16 36  1  0  0  0  0
 16 37  1  0  0  0  0
 17 18  1  0  0  0  0
 17 38  1  0  0  0  0
 17 39  1  0  0  0  0
 18 19  1  0  0  0  0
 18 20  1  0  0  0  0
 18 40  1  0  0  0  0
 19 41  1  0  0  0  0
 19 42  1  0  0  0  0
 20 43  1  0  0  0  0
 21 44  1  0  0  0  0
M  CHG  1  21   1
M  END
> <s_m_source_file>
AV-unprocessed.smi

> <i_m_source_file_index>
2706

> <i_lp_mmshare_version>
43012

> <i_f3d_flags>
0

> <s_epik_input>
W0NIM11OKFtDSDNdKWMxW2NIXVtjSF1bY0hdYyhuMSlbTkhdQyg9TylbTkhdW0NASF0yW0NAQEhdM1tDQEBIXShbQ0gyXTQpW0NIMl1bQ0gyXVtDQEBIXTRbQ0BIXTIz

> <s_epik_cmdline>
J2VwaWtfcHl0aG9uJywgJy1waCcsICc3LjAnLCAnLXRuJywgJzgnLCAnLW1hJywgJzIwMCcsICctbWV0YWxfYmluZGluZycsICctaW1hZScsICc8aW5maWxlLm1hZT4nLCAnLW9tYWUnLCAnPG91dGZpbGUubWFlPic=

> <r_lp_tautomer_probability>
0.999994

> <r_epik_Ionization_Penalty>
1.8105

> <r_epik_Ionization_Penalty_Charging>
1.79227

> <r_epik_Ionization_Penalty_Neutral>
0.0182286

> <r_epik_State_Penalty>
1.90588

> <r_epik_Charging_Adjusted_Penalty>
3.69815

> <i_epik_Tot_Q>
1

> <i_epik_Tot_abs_Q>
1

> <r_epik_Metal_State_Penalty>
1.93501

> <b_epik_Metal_Only>
0

> <s_lp_Force_Field>
OPLS_2005

> <r_lp_Energy>
91.4336

> <b_lp_Chiralities_Consistent>
1

> <s_lp_Variant>
AV-unprocessed.smi:2706-7

> <Gold.Version>
5.8.1

> <Gold.Id.Protein>
6NUR|6NUR_protein|mol2

> <Gold.PLP.Fitness>
45.1261

> <Gold.PLP.PLP>
-35.1788

> <Gold.PLP.part.hbond>
-3.7826

> <Gold.PLP.part.metal>
0.0000

> <Gold.PLP.part.buried>
0.3869

> <Gold.PLP.part.nonpolar>
-31.4979

> <Gold.PLP.part.repulsive>
0.1863

> <Gold.PLP.ligand.clash>
0.0000

> <Gold.PLP.ligand.torsion>
0.2996

> <Gold.PLP.Chemscore.Hbond>
3.4960

> <Gold.PLP.Chemscore.CHOScore>
0.0000

> <Gold.PLP.Chemscore.Metal>
0.0000

> <Gold.Chemscore.Hbonds>
donor molecule, donor type, donor heavy atom, donor atom, acceptor molecule, acceptor atom, score
      L1  H     9    31       P1  7948  0.66
      L1  H    21    44       P1  7948  1.54
      P1  H 10752 10764       L1    11  1.00

> <Gold.PLP.Chemscore.Internal.Correction>
0.0584

> <Gold.Rescore>
     Score         DG    S(hbond)    S(metal)    S(lipo)     H(rot)  DE(clash)    DE(int)     intcor
     15.23     -17.41       1.82        0.00      71.87       1.00       0.67       1.50       ----

> <Gold.Chemscore.Fitness>
15.2322

> <Gold.Chemscore.DG>
-17.4054

> <Gold.Chemscore.ZeroCoef>
-5.4800

> <Gold.Chemscore.Hbond>
1.8193

> <Gold.Chemscore.Metal>
0.0000

> <Gold.Chemscore.Lipo>
71.8722

> <Gold.Chemscore.Internal_Hbond>
0.0000

> <Gold.Chemscore.DEClash>
0.6746

> <Gold.Chemscore.DEInternal>
1.4986

> <Gold.Chemscore.Rot>
1.0000

> <Gold.Chemscore.Internal.Correction>
   9.000000E+99

> <Gold.Chemscore.Hbonds>
donor molecule, donor type, donor heavy atom, donor atom, acceptor molecule, acceptor atom, score
      L1  H     9    31       P1  7948  0.46
      L1  H    21    44       P1  7948  0.49
      P1  H 10752 10764       L1    11  0.54

> <Gold.Chemscore.Hbond.Weighted>
-6.0763

> <Gold.Chemscore.Metal.Weighted>
-0.0000

> <Gold.Chemscore.Lipo.Weighted>
-8.4090

> <Gold.Chemscore.Internal_Hbond.Weighted>
0.0000

> <Gold.Chemscore.DEClash.Weighted>
0.6746

> <Gold.Chemscore.DEInternal.Weighted>
1.4986

> <Gold.Chemscore.Rot.Weighted>
2.5600

> <Gold.Chemscore.Internal.Correction.Weighted>
   9.000000E+99

> <Gold.Protein.RotatedTorsions>
[ 6907 6896 6895 6894 ] final -133.72 input  -60.11 | X-H torsion
[ 7974 7965 7964 7962 ] final   68.61 input  175.53 | X-H torsion
[ 8008 7997 7996 7995 ] final  129.97 input   59.86 | X-H torsion
[ 10167 10162 10161 10158 ] final  134.87 input  -65.29 | X-H torsion
[ 10718 10713 10712 10709 ] final -130.46 input   66.30 | X-H torsion
[ 10763 10752 10751 10750 ] final  -18.85 input  -60.55 | X-H torsion
[ 11005 11000 10999 10996 ] final   65.78 input  -57.11 | X-H torsion

> <Gold.Protein.ActiveResidues>
 VAL166  LYS551  ARG553  GLY616  TRP617  ASP618  TYR619  PRO620  LYS621  CYS622 
 ASP623  PHE694  ASN695  SER759  ASP760  ASP761  ALA762  ILE779  LEU786  VAL792 
 PHE793  MET794  SER795  GLU796  ALA797  LYS798  CYS799  TRP800  GLU811  SER814 

> <Gold.Protein.RotatedAtoms>
  150.9773  133.6281  159.2727 H   0  0  0  0  0  0  0  0  0  0  0  0  # atno 6907 bound_to 6896
  151.3549  135.0891  159.9425 H   0  0  0  0  0  0  0  0  0  0  0  0  # atno 6908 bound_to 6896
  152.5204  133.9359  159.7657 H   0  0  0  0  0  0  0  0  0  0  0  0  # atno 6909 bound_to 6896
  145.8005  139.2980  143.1157 H   0  0  0  0  0  0  0  0  0  0  0  0  # atno 7974 bound_to 7965
  156.2946  140.2607  156.2685 H   0  0  0  0  0  0  0  0  0  0  0  0  # atno 8008 bound_to 7997
  154.9718  140.0391  157.2256 H   0  0  0  0  0  0  0  0  0  0  0  0  # atno 8009 bound_to 7997
  154.7851  140.2802  155.6038 H   0  0  0  0  0  0  0  0  0  0  0  0  # atno 8010 bound_to 7997
  139.5239  144.6546  151.5202 H   0  0  0  0  0  0  0  0  0  0  0  0  # atno 10167 bound_to 10162
  156.2146  130.6940  151.0688 H   0  0  0  0  0  0  0  0  0  0  0  0  # atno 10718 bound_to 10713
  153.5956  135.7001  153.5405 H   0  0  0  0  0  0  0  0  0  0  0  0  # atno 10763 bound_to 10752
  153.3140  135.4093  155.1360 H   0  0  0  0  0  0  0  0  0  0  0  0  # atno 10764 bound_to 10752
  154.8592  135.3679  154.5490 H   0  0  0  0  0  0  0  0  0  0  0  0  # atno 10765 bound_to 10752
  139.9873  134.6647  156.0153 H   0  0  0  0  0  0  0  0  0  0  0  0  # atno 11005 bound_to 11000
  145.9882  140.8625  143.0079 LP  0  0  0  0  0  0  0  0  0  0  0  0  # atno 17320 bound_to 7965
  144.6769  140.2178  143.7370 LP  0  0  0  0  0  0  0  0  0  0  0  0  # atno 17321 bound_to 7965
  140.6365  143.8973  150.6652 LP  0  0  0  0  0  0  0  0  0  0  0  0  # atno 17342 bound_to 10162
  140.2294  143.3747  152.1578 LP  0  0  0  0  0  0  0  0  0  0  0  0  # atno 17343 bound_to 10162
  157.7056  131.0757  150.6676 LP  0  0  0  0  0  0  0  0  0  0  0  0  # atno 17370 bound_to 10713
  156.6737  130.4547  149.5649 LP  0  0  0  0  0  0  0  0  0  0  0  0  # atno 17371 bound_to 10713
  141.1536  133.6545  156.4089 LP  0  0  0  0  0  0  0  0  0  0  0  0  # atno 17394 bound_to 11000
  140.4977  134.6515  157.5236 LP  0  0  0  0  0  0  0  0  0  0  0  0  # atno 17395 bound_to 11000

$$$$
