AV-unprocessed.smi:544|AV-procd|sdf|2879|dock2
  -GOLD-   2262023373D 1   1.00000     0.00000
 Structure written by MMmdl.
 48 50  0  0  0  0  0  0  0  0  2 V2000
  146.6154  142.8229  154.2197 C   0  0  0  0  0  0  0  0  0  0  0  0
  147.5248  141.6765  153.7719 C   0  0  0  0  0  0  0  0  0  0  0  0
  148.8590  141.9766  154.1442 O   0  0  0  0  0  0  0  0  0  0  0  0
  149.2741  141.2761  155.3046 C   0  0  0  0  0  0  0  0  0  0  0  0
  150.6252  141.8463  155.7674 C   0  0  0  0  0  0  0  0  0  0  0  0
  151.2882  140.9876  156.7456 N   0  0  0  0  0  0  0  0  0  0  0  0
  151.7276  141.2932  158.0019 C   0  0  0  0  0  0  0  0  0  0  0  0
  151.5806  142.5562  158.5942 N   0  0  0  0  0  0  0  0  0  0  0  0
  151.2005  143.8126  157.9429 C   0  0  0  0  0  0  0  0  0  0  0  0
  152.1582  144.9629  158.3013 C   0  0  0  0  0  0  0  0  0  0  0  0
  152.2056  145.1690  159.8198 C   0  0  0  0  0  0  0  0  0  0  0  0
  152.5108  143.8364  160.5231 C   0  0  1  0  0  0  0  0  0  0  0  0
  152.4830  143.9868  162.0498 C   0  0  0  0  0  0  0  0  0  0  0  0
  151.5243  142.7513  160.0452 C   0  0  0  0  0  0  0  0  0  0  0  0
  152.3506  140.2866  158.6208 N   0  0  0  0  0  0  0  0  0  0  0  0
  152.2934  139.2554  157.6991 C   0  0  0  0  0  0  0  0  0  0  0  0
  151.6703  139.6532  156.5588 C   0  0  0  0  0  0  0  0  0  0  0  0
  151.4906  138.7795  155.3764 C   0  0  0  0  0  0  0  0  0  0  0  0
  150.9444  139.1932  154.3559 O   0  0  0  0  0  0  0  0  0  0  0  0
  151.9974  137.5221  155.5791 N   0  5  0  0  0  0  0  0  0  0  0  0
  152.6267  137.0766  156.7213 C   0  0  0  0  0  0  0  0  0  0  0  0
  153.0542  135.9257  156.8214 O   0  0  0  0  0  0  0  0  0  0  0  0
  152.7887  137.9257  157.7838 N   0  0  0  0  0  0  0  0  0  0  0  0
  153.4582  137.4813  159.0096 C   0  0  0  0  0  0  0  0  0  0  0  0
  145.5786  142.6258  153.9474 H   0  0  0  0  0  0  0  0  0  0  0  0
  146.9115  143.7625  153.7528 H   0  0  0  0  0  0  0  0  0  0  0  0
  146.6585  142.9567  155.3009 H   0  0  0  0  0  0  0  0  0  0  0  0
  147.2040  140.7439  154.2384 H   0  0  0  0  0  0  0  0  0  0  0  0
  147.4555  141.5469  152.6909 H   0  0  0  0  0  0  0  0  0  0  0  0
  148.5210  141.3746  156.0861 H   0  0  0  0  0  0  0  0  0  0  0  0
  149.3601  140.2122  155.0846 H   0  0  0  0  0  0  0  0  0  0  0  0
  151.2886  141.9841  154.9139 H   0  0  0  0  0  0  0  0  0  0  0  0
  150.5006  142.8432  156.1817 H   0  0  0  0  0  0  0  0  0  0  0  0
  151.1479  143.6925  156.8654 H   0  0  0  0  0  0  0  0  0  0  0  0
  150.1874  144.0710  158.2539 H   0  0  0  0  0  0  0  0  0  0  0  0
  153.1604  144.7478  157.9301 H   0  0  0  0  0  0  0  0  0  0  0  0
  151.8373  145.8820  157.8102 H   0  0  0  0  0  0  0  0  0  0  0  0
  152.9564  145.9177  160.0745 H   0  0  0  0  0  0  0  0  0  0  0  0
  151.2458  145.5573  160.1634 H   0  0  0  0  0  0  0  0  0  0  0  0
  153.5175  143.5243  160.2399 H   0  0  0  0  0  0  0  0  0  0  0  0
  151.4964  144.2918  162.4000 H   0  0  0  0  0  0  0  0  0  0  0  0
  153.2020  144.7356  162.3835 H   0  0  0  0  0  0  0  0  0  0  0  0
  152.7348  143.0466  162.5414 H   0  0  0  0  0  0  0  0  0  0  0  0
  150.5044  143.0092  160.3337 H   0  0  0  0  0  0  0  0  0  0  0  0
  151.7578  141.8138  160.5507 H   0  0  0  0  0  0  0  0  0  0  0  0
  152.9191  136.6452  159.4566 H   0  0  0  0  0  0  0  0  0  0  0  0
  153.5239  138.2663  159.7622 H   0  0  0  0  0  0  0  0  0  0  0  0
  154.4759  137.1542  158.7922 H   0  0  0  0  0  0  0  0  0  0  0  0
  1  2  1  0  0  0  0
  1 25  1  0  0  0  0
  1 26  1  0  0  0  0
  1 27  1  0  0  0  0
  2  3  1  0  0  0  0
  2 28  1  0  0  0  0
  2 29  1  0  0  0  0
  3  4  1  0  0  0  0
  4  5  1  0  0  0  0
  4 30  1  0  0  0  0
  4 31  1  0  0  0  0
  5  6  1  0  0  0  0
  5 32  1  0  0  0  0
  5 33  1  0  0  0  0
  6 17  1  0  0  0  0
  6  7  1  0  0  0  0
  7  8  1  0  0  0  0
  7 15  2  0  0  0  0
  8 14  1  0  0  0  0
  8  9  1  0  0  0  0
  9 10  1  0  0  0  0
  9 34  1  0  0  0  0
  9 35  1  0  0  0  0
 10 11  1  0  0  0  0
 10 36  1  0  0  0  0
 10 37  1  0  0  0  0
 11 12  1  0  0  0  0
 11 38  1  0  0  0  0
 11 39  1  0  0  0  0
 12 13  1  0  0  0  0
 12 14  1  0  0  0  0
 12 40  1  0  0  0  0
 13 41  1  0  0  0  0
 13 42  1  0  0  0  0
 13 43  1  0  0  0  0
 14 44  1  0  0  0  0
 14 45  1  0  0  0  0
 15 16  1  0  0  0  0
 16 23  1  0  0  0  0
 16 17  2  0  0  0  0
 17 18  1  0  0  0  0
 18 19  2  0  0  0  0
 18 20  1  0  0  0  0
 20 21  1  0  0  0  0
 21 22  2  0  0  0  0
 21 23  1  0  0  0  0
 23 24  1  0  0  0  0
 24 46  1  0  0  0  0
 24 47  1  0  0  0  0
 24 48  1  0  0  0  0
M  CHG  1  20  -1
M  END
> <s_m_source_file>
AV-unprocessed.smi

> <i_m_source_file_index>
544

> <i_lp_mmshare_version>
43012

> <i_f3d_flags>
0

> <s_epik_input>
W0NIM11uMWMoPU8pW25IXWMoPU8pYyhjMTIpbihbQ0gyXVtDSDJdT1tDSDJdW0NIM10pYyhuMilOM1tDSDJdW0NIMl1bQ0gyXVtDQEBIXShbQ0gzXSlbQ0gyXTM=

> <s_epik_cmdline>
J2VwaWtfcHl0aG9uJywgJy1waCcsICc3LjAnLCAnLXRuJywgJzgnLCAnLW1hJywgJzIwMCcsICctbWV0YWxfYmluZGluZycsICctaW1hZScsICc8aW5maWxlLm1hZT4nLCAnLW9tYWUnLCAnPG91dGZpbGUubWFlPic=

> <r_lp_tautomer_probability>
1

> <r_epik_Ionization_Penalty>
5.1213

> <r_epik_Ionization_Penalty_Charging>
0.0741877

> <r_epik_Ionization_Penalty_Neutral>
5.04711

> <r_epik_State_Penalty>
5.04142

> <r_epik_Charging_Adjusted_Penalty>
5.11561

> <i_epik_Tot_Q>
-1

> <i_epik_Tot_abs_Q>
1

> <r_epik_Metal_State_Penalty>
1.14934

> <b_epik_Metal_Only>
1

> <s_lp_Force_Field>
OPLS_2005

> <r_lp_Energy>
41.9091

> <b_lp_Chiralities_Consistent>
1

> <s_lp_Variant>
AV-unprocessed.smi:544-3

> <Gold.Version>
5.8.1

> <Gold.Id.Protein>
6NUR|6NUR_protein|mol2

> <Gold.PLP.Fitness>
53.4296

> <Gold.PLP.PLP>
-47.2479

> <Gold.PLP.part.hbond>
-4.3834

> <Gold.PLP.part.metal>
0.0000

> <Gold.PLP.part.buried>
-4.8672

> <Gold.PLP.part.nonpolar>
-37.6497

> <Gold.PLP.part.repulsive>
0.3661

> <Gold.PLP.ligand.clash>
0.3897

> <Gold.PLP.ligand.torsion>
0.5783

> <Gold.PLP.Chemscore.Hbond>
2.5193

> <Gold.PLP.Chemscore.CHOScore>
0.0000

> <Gold.PLP.Chemscore.Metal>
0.0000

> <Gold.Chemscore.Hbonds>
donor molecule, donor type, donor heavy atom, donor atom, acceptor molecule, acceptor atom, score
      P1  H  7989  7998       L1    19  1.00
      P1  H  8011  8017       L1     3  0.37
      P1  H 10752 10764       L1    22  1.00

> <Gold.PLP.Chemscore.Internal.Correction>
0.1701

> <Gold.Rescore>
     Score         DG    S(hbond)    S(metal)    S(lipo)     H(rot)  DE(clash)    DE(int)     intcor
     16.27     -19.77       1.59        0.00     110.73       1.55       0.62       2.88       ----

> <Gold.Chemscore.Fitness>
16.2698

> <Gold.Chemscore.DG>
-19.7700

> <Gold.Chemscore.ZeroCoef>
-5.4800

> <Gold.Chemscore.Hbond>
1.5903

> <Gold.Chemscore.Metal>
0.0000

> <Gold.Chemscore.Lipo>
110.7289

> <Gold.Chemscore.Internal_Hbond>
0.0000

> <Gold.Chemscore.DEClash>
0.6199

> <Gold.Chemscore.DEInternal>
2.8803

> <Gold.Chemscore.Rot>
1.5534

> <Gold.Chemscore.Internal.Correction>
   9.000000E+99

> <Gold.Chemscore.Hbonds>
donor molecule, donor type, donor heavy atom, donor atom, acceptor molecule, acceptor atom, score
      P1  H  7989  7998       L1    19  0.94
      P1  H  8011  8017       L1     3  0.16
      P1  H 10752 10764       L1    22  0.74

> <Gold.Chemscore.Hbond.Weighted>
-5.3115

> <Gold.Chemscore.Metal.Weighted>
-0.0000

> <Gold.Chemscore.Lipo.Weighted>
-12.9553

> <Gold.Chemscore.Internal_Hbond.Weighted>
0.0000

> <Gold.Chemscore.DEClash.Weighted>
0.6199

> <Gold.Chemscore.DEInternal.Weighted>
2.8803

> <Gold.Chemscore.Rot.Weighted>
3.9768

> <Gold.Chemscore.Internal.Correction.Weighted>
   9.000000E+99

> <Gold.Protein.RotatedTorsions>
[ 6907 6896 6895 6894 ] final  -52.02 input  -60.11 | X-H torsion
[ 7974 7965 7964 7962 ] final -161.47 input  175.53 | X-H torsion
[ 8008 7997 7996 7995 ] final   70.69 input   59.86 | X-H torsion
[ 10167 10162 10161 10158 ] final  121.51 input  -65.29 | X-H torsion
[ 10718 10713 10712 10709 ] final   58.81 input   66.30 | X-H torsion
[ 10763 10752 10751 10750 ] final   -0.19 input  -60.55 | X-H torsion
[ 11005 11000 10999 10996 ] final -152.42 input  -57.11 | X-H torsion

> <Gold.Protein.ActiveResidues>
 VAL166  LYS551  ARG553  GLY616  TRP617  ASP618  TYR619  PRO620  LYS621  CYS622 
 ASP623  PHE694  ASN695  SER759  ASP760  ASP761  ALA762  ILE779  LEU786  VAL792 
 PHE793  MET794  SER795  GLU796  ALA797  LYS798  CYS799  TRP800  GLU811  SER814 

> <Gold.Protein.RotatedAtoms>
  150.8557  134.7895  159.7043 H   0  0  0  0  0  0  0  0  0  0  0  0  # atno 6907 bound_to 6896
  152.4609  134.5183  159.9784 H   0  0  0  0  0  0  0  0  0  0  0  0  # atno 6908 bound_to 6896
  151.5296  133.3413  159.2951 H   0  0  0  0  0  0  0  0  0  0  0  0  # atno 6909 bound_to 6896
  144.7390  140.3393  143.6138 H   0  0  0  0  0  0  0  0  0  0  0  0  # atno 7974 bound_to 7965
  155.7427  140.3490  155.5112 H   0  0  0  0  0  0  0  0  0  0  0  0  # atno 8008 bound_to 7997
  155.9079  140.1045  157.1323 H   0  0  0  0  0  0  0  0  0  0  0  0  # atno 8009 bound_to 7997
  154.4052  140.1273  156.4506 H   0  0  0  0  0  0  0  0  0  0  0  0  # atno 8010 bound_to 7997
  139.5915  144.7027  151.3278 H   0  0  0  0  0  0  0  0  0  0  0  0  # atno 10167 bound_to 10162
  157.5626  130.8847  149.9135 H   0  0  0  0  0  0  0  0  0  0  0  0  # atno 10718 bound_to 10713
  153.3287  135.6974  153.6967 H   0  0  0  0  0  0  0  0  0  0  0  0  # atno 10763 bound_to 10752
  153.5778  135.3504  155.2863 H   0  0  0  0  0  0  0  0  0  0  0  0  # atno 10764 bound_to 10752
  154.8613  135.4287  154.2470 H   0  0  0  0  0  0  0  0  0  0  0  0  # atno 10765 bound_to 10752
  140.7190  134.3748  157.5186 H   0  0  0  0  0  0  0  0  0  0  0  0  # atno 11005 bound_to 11000
  145.7391  139.1759  143.2386 LP  0  0  0  0  0  0  0  0  0  0  0  0  # atno 17320 bound_to 7965
  146.1148  140.7384  142.9486 LP  0  0  0  0  0  0  0  0  0  0  0  0  # atno 17321 bound_to 7965
  140.7177  143.7221  150.7688 LP  0  0  0  0  0  0  0  0  0  0  0  0  # atno 17342 bound_to 10162
  140.0778  143.4998  152.2546 LP  0  0  0  0  0  0  0  0  0  0  0  0  # atno 17343 bound_to 10162
  156.0677  130.3690  150.0843 LP  0  0  0  0  0  0  0  0  0  0  0  0  # atno 17370 bound_to 10713
  156.9005  130.9619  151.3577 LP  0  0  0  0  0  0  0  0  0  0  0  0  # atno 17371 bound_to 10713
  139.8852  134.8942  156.2654 LP  0  0  0  0  0  0  0  0  0  0  0  0  # atno 17394 bound_to 11000
  141.0019  133.7146  156.0974 LP  0  0  0  0  0  0  0  0  0  0  0  0  # atno 17395 bound_to 11000

$$$$
