AV-unprocessed.smi:45|AV-procd|sdf|417|dock4
  -GOLD-   2262016293D 1   1.00000     0.00000
 Structure written by MMmdl.
 60 63  0  0  0  0  0  0  0  0  3 V2000
  146.0942  134.2501  161.5113 C   0  0  0  0  0  0  0  0  0  0  0  0
  146.3118  134.9255  160.2815 O   0  0  0  0  0  0  0  0  0  0  0  0
  146.6218  134.1706  159.1691 C   0  0  0  0  0  0  0  0  0  0  0  0
  146.7846  132.7621  159.1919 C   0  0  0  0  0  0  0  0  0  0  0  0
  147.1117  132.0606  158.0158 C   0  0  0  0  0  0  0  0  0  0  0  0
  147.2842  132.7513  156.7995 C   0  0  0  0  0  0  0  0  0  0  0  0
  147.6659  132.0039  155.5363 C   0  0  0  0  0  0  0  0  0  0  0  0
  148.0473  132.8976  154.4542 N   0  0  0  0  0  0  0  0  0  0  0  0
  149.1849  133.6965  154.6386 C   0  0  0  0  0  0  0  0  0  0  0  0
  149.0336  135.0472  154.6408 N   0  3  0  0  0  0  0  0  0  0  0  0
  150.0891  135.8532  154.8478 C   0  0  0  0  0  0  0  0  0  0  0  0
  149.8848  137.2321  154.8338 N   0  0  0  0  0  0  0  0  0  0  0  0
  148.5608  137.8047  154.6170 C   0  0  0  0  0  0  0  0  0  0  0  0
  148.7902  139.1279  153.8890 C   0  0  0  0  0  0  0  0  0  0  0  0
  150.1645  139.5561  154.3867 C   0  0  0  0  0  0  0  0  0  0  0  0
  150.9193  138.2278  154.5477 C   0  0  1  0  0  0  0  0  0  0  0  0
  152.0134  138.2977  155.6340 C   0  0  0  0  0  0  0  0  0  0  0  0
  152.8651  139.3983  155.3960 O   0  0  0  0  0  0  0  0  0  0  0  0
  151.3231  135.3726  155.0550 N   0  0  0  0  0  0  0  0  0  0  0  0
  151.5217  134.0399  155.0655 C   0  0  0  0  0  0  0  0  0  0  0  0
  150.4659  133.1348  154.8543 C   0  0  0  0  0  0  0  0  0  0  0  0
  150.6966  131.6510  154.8709 C   0  0  0  0  0  0  0  0  0  0  0  0
  149.9061  130.9286  154.2544 O   0  0  0  0  0  0  0  0  0  0  0  0
  151.7622  131.3230  155.6509 N   0  5  0  0  0  0  0  0  0  0  0  0
  152.5981  130.1431  155.4183 C   0  0  0  0  0  0  0  0  0  0  0  0
  153.4546  130.2808  154.1610 C   0  0  0  0  0  0  0  0  0  0  0  0
  152.8563  130.0270  152.9897 N   0  0  0  0  0  0  0  0  0  0  0  0
  153.6013  130.1802  151.8734 C   0  0  0  0  0  0  0  0  0  0  0  0
  154.9489  130.5878  151.9313 C   0  0  0  0  0  0  0  0  0  0  0  0
  155.4721  130.8300  153.2168 C   0  0  0  0  0  0  0  0  0  0  0  0
  154.7234  130.6740  154.3302 N   0  0  0  0  0  0  0  0  0  0  0  0
  147.1188  134.1495  156.7689 C   0  0  0  0  0  0  0  0  0  0  0  0
  146.7909  134.8534  157.9439 C   0  0  0  0  0  0  0  0  0  0  0  0
  146.6139  136.5700  157.8732 Cl  0  0  0  0  0  0  0  0  0  0  0  0
  151.3702  137.9601  153.5909 H   0  0  0  0  0  0  0  0  0  0  0  0
  145.8792  134.9820  162.2898 H   0  0  0  0  0  0  0  0  0  0  0  0
  146.9785  133.6905  161.8203 H   0  0  0  0  0  0  0  0  0  0  0  0
  145.2404  133.5740  161.4497 H   0  0  0  0  0  0  0  0  0  0  0  0
  146.6673  132.1942  160.1020 H   0  0  0  0  0  0  0  0  0  0  0  0
  147.2380  130.9884  158.0529 H   0  0  0  0  0  0  0  0  0  0  0  0
  148.5003  131.3382  155.7590 H   0  0  0  0  0  0  0  0  0  0  0  0
  146.8289  131.3770  155.2247 H   0  0  0  0  0  0  0  0  0  0  0  0
  147.9435  132.5094  153.5266 H   0  0  0  0  0  0  0  0  0  0  0  0
  147.9136  137.1472  154.0350 H   0  0  0  0  0  0  0  0  0  0  0  0
  148.0911  137.9737  155.5865 H   0  0  0  0  0  0  0  0  0  0  0  0
  148.8243  138.9577  152.8120 H   0  0  0  0  0  0  0  0  0  0  0  0
  148.0123  139.8648  154.0912 H   0  0  0  0  0  0  0  0  0  0  0  0
  150.6655  140.2470  153.7081 H   0  0  0  0  0  0  0  0  0  0  0  0
  150.0580  140.0547  155.3513 H   0  0  0  0  0  0  0  0  0  0  0  0
  151.5704  138.3948  156.6258 H   0  0  0  0  0  0  0  0  0  0  0  0
  152.6287  137.3992  155.6480 H   0  0  0  0  0  0  0  0  0  0  0  0
  152.3334  140.1666  155.2530 H   0  0  0  0  0  0  0  0  0  0  0  0
  152.5321  133.6992  155.2393 H   0  0  0  0  0  0  0  0  0  0  0  0
  153.2450  129.9317  156.2718 H   0  0  0  0  0  0  0  0  0  0  0  0
  151.9844  129.2485  155.3067 H   0  0  0  0  0  0  0  0  0  0  0  0
  153.1190  129.9802  150.9280 H   0  0  0  0  0  0  0  0  0  0  0  0
  155.5450  130.7135  151.0398 H   0  0  0  0  0  0  0  0  0  0  0  0
  156.4943  131.1503  153.3520 H   0  0  0  0  0  0  0  0  0  0  0  0
  147.2543  134.6908  155.8439 H   0  0  0  0  0  0  0  0  0  0  0  0
  148.1056  135.4405  154.4882 H   0  0  0  0  0  0  0  0  0  0  0  0
  1  2  1  0  0  0  0
  1 36  1  0  0  0  0
  1 37  1  0  0  0  0
  1 38  1  0  0  0  0
  2  3  1  0  0  0  0
  3 33  1  0  0  0  0
  3  4  2  0  0  0  0
  4  5  1  0  0  0  0
  4 39  1  0  0  0  0
  5  6  2  0  0  0  0
  5 40  1  0  0  0  0
  6  7  1  0  0  0  0
  6 32  1  0  0  0  0
  7  8  1  0  0  0  0
  7 41  1  0  0  0  0
  7 42  1  0  0  0  0
  8  9  1  0  0  0  0
  8 43  1  0  0  0  0
  9 21  1  0  0  0  0
  9 10  2  0  0  0  0
 10 11  1  0  0  0  0
 10 60  1  0  0  0  0
 11 12  1  0  0  0  0
 11 19  2  0  0  0  0
 12 16  1  0  0  0  0
 12 13  1  0  0  0  0
 13 14  1  0  0  0  0
 13 44  1  0  0  0  0
 13 45  1  0  0  0  0
 14 15  1  0  0  0  0
 14 46  1  0  0  0  0
 14 47  1  0  0  0  0
 15 16  1  0  0  0  0
 15 48  1  0  0  0  0
 15 49  1  0  0  0  0
 16 35  1  0  0  0  0
 16 17  1  0  0  0  0
 17 18  1  0  0  0  0
 17 50  1  0  0  0  0
 17 51  1  0  0  0  0
 18 52  1  0  0  0  0
 19 20  1  0  0  0  0
 20 21  2  0  0  0  0
 20 53  1  0  0  0  0
 21 22  1  0  0  0  0
 22 23  2  0  0  0  0
 22 24  1  0  0  0  0
 24 25  1  0  0  0  0
 25 26  1  0  0  0  0
 25 54  1  0  0  0  0
 25 55  1  0  0  0  0
 26 31  1  0  0  0  0
 26 27  2  0  0  0  0
 27 28  1  0  0  0  0
 28 29  2  0  0  0  0
 28 56  1  0  0  0  0
 29 30  1  0  0  0  0
 29 57  1  0  0  0  0
 30 31  2  0  0  0  0
 30 58  1  0  0  0  0
 32 33  2  0  0  0  0
 32 59  1  0  0  0  0
 33 34  1  0  0  0  0
M  CHG  1  10   1
M  CHG  1  24  -1
M  END
> <s_m_source_file>
AV-unprocessed.smi

> <i_m_source_file_index>
45

> <i_lp_mmshare_version>
43012

> <i_f3d_flags>
0

> <s_epik_input>
W0NIM11PYzFbY0hdW2NIXWMoW2NIXWMxQ2wpW0NIMl1bTkhdYzJuYyhOM1tDSDJdW0NIMl1bQ0gyXVtDQEhdM1tDSDJdW09IXSluW2NIXWMyQyg9TylbTkhdW0NIMl1jNG5bY0hdW2NIXVtjSF1uNA==

> <s_epik_cmdline>
J2VwaWtfcHl0aG9uJywgJy1waCcsICc3LjAnLCAnLXRuJywgJzgnLCAnLW1hJywgJzIwMCcsICctbWV0YWxfYmluZGluZycsICctaW1hZScsICc8aW5maWxlLm1hZT4nLCAnLW9tYWUnLCAnPG91dGZpbGUubWFlPic=

> <r_lp_tautomer_probability>
0.424989

> <r_epik_Ionization_Penalty>
7.51351

> <r_epik_Ionization_Penalty_Charging>
7.51312

> <r_epik_Ionization_Penalty_Neutral>
0.00038389

> <r_epik_State_Penalty>
8.64696

> <r_epik_Charging_Adjusted_Penalty>
16.1601

> <i_epik_Tot_Q>
0

> <i_epik_Tot_abs_Q>
2

> <r_epik_Metal_State_Penalty>
4.61083

> <b_epik_Metal_Only>
1

> <s_epik_Chemistry_Notes>
This compound contains an electron-poor aromatic ring that is susceptible to covalent hydrolysis at low pH, typically resulting in measured values for nitrogen ring protonation that are around two units higher than predicted values.

> <s_lp_Force_Field>
OPLS_2005

> <r_lp_Energy>
39.4565

> <b_lp_Chiralities_Consistent>
1

> <s_lp_Variant>
AV-unprocessed.smi:45-11

> <Gold.Version>
5.8.1

> <Gold.Id.Protein>
6NUR|6NUR_protein|mol2

> <Gold.PLP.Fitness>
59.8343

> <Gold.PLP.PLP>
-42.2822

> <Gold.PLP.part.hbond>
-5.6782

> <Gold.PLP.part.metal>
0.0000

> <Gold.PLP.part.buried>
-1.5332

> <Gold.PLP.part.nonpolar>
-35.1138

> <Gold.PLP.part.repulsive>
0.0658

> <Gold.PLP.ligand.clash>
0.0000

> <Gold.PLP.ligand.torsion>
1.0989

> <Gold.PLP.Chemscore.Hbond>
5.2536

> <Gold.PLP.Chemscore.CHOScore>
0.9985

> <Gold.PLP.Chemscore.Metal>
0.0000

> <Gold.Chemscore.Hbonds>
donor molecule, donor type, donor heavy atom, donor atom, acceptor molecule, acceptor atom, score
      P1  H  7997  8008       L1    18  0.99
      P1  H 10752 10763       L1    19  0.35

> <Gold.PLP.Chemscore.Internal.Correction>
0.9936

> <Gold.Rescore>
     Score         DG    S(hbond)    S(metal)    S(lipo)     H(rot)  DE(clash)    DE(int)     intcor
     14.89     -18.10       2.74        0.00      98.63       3.16       0.12       3.08       ----

> <Gold.Chemscore.Fitness>
14.8913

> <Gold.Chemscore.DG>
-18.0957

> <Gold.Chemscore.ZeroCoef>
-5.4800

> <Gold.Chemscore.Hbond>
2.7418

> <Gold.Chemscore.Metal>
0.0000

> <Gold.Chemscore.Lipo>
98.6346

> <Gold.Chemscore.Internal_Hbond>
0.0000

> <Gold.Chemscore.DEClash>
0.1233

> <Gold.Chemscore.DEInternal>
3.0811

> <Gold.Chemscore.Rot>
3.1571

> <Gold.Chemscore.Internal.Correction>
   9.000000E+99

> <Gold.Chemscore.Hbonds>
donor molecule, donor type, donor heavy atom, donor atom, acceptor molecule, acceptor atom, score
      P1  H  7997  8008       L1    18  0.24
      P1  H 10752 10763       L1    19  0.01

> <Gold.Chemscore.Hbond.Weighted>
-9.1576

> <Gold.Chemscore.Metal.Weighted>
-0.0000

> <Gold.Chemscore.Lipo.Weighted>
-11.5402

> <Gold.Chemscore.Internal_Hbond.Weighted>
0.0000

> <Gold.Chemscore.DEClash.Weighted>
0.1233

> <Gold.Chemscore.DEInternal.Weighted>
3.0811

> <Gold.Chemscore.Rot.Weighted>
8.0822

> <Gold.Chemscore.Internal.Correction.Weighted>
   9.000000E+99

> <Gold.Protein.RotatedTorsions>
[ 6907 6896 6895 6894 ] final   51.25 input  -60.11 | X-H torsion
[ 7974 7965 7964 7962 ] final   97.84 input  175.53 | X-H torsion
[ 8008 7997 7996 7995 ] final   -4.10 input   59.86 | X-H torsion
[ 10167 10162 10161 10158 ] final  139.72 input  -65.29 | X-H torsion
[ 10718 10713 10712 10709 ] final  124.82 input   66.30 | X-H torsion
[ 10763 10752 10751 10750 ] final   64.71 input  -60.55 | X-H torsion
[ 11005 11000 10999 10996 ] final   44.32 input  -57.11 | X-H torsion

> <Gold.Protein.ActiveResidues>
 VAL166  LYS551  ARG553  GLY616  TRP617  ASP618  TYR619  PRO620  LYS621  CYS622 
 ASP623  PHE694  ASN695  SER759  ASP760  ASP761  ALA762  ILE779  LEU786  VAL792 
 PHE793  MET794  SER795  GLU796  ALA797  LYS798  CYS799  TRP800  GLU811  SER814 

> <Gold.Protein.RotatedAtoms>
  152.3107  134.7501  160.0336 H   0  0  0  0  0  0  0  0  0  0  0  0  # atno 6907 bound_to 6896
  151.7983  133.3362  159.3527 H   0  0  0  0  0  0  0  0  0  0  0  0  # atno 6908 bound_to 6896
  150.7318  134.5708  159.5934 H   0  0  0  0  0  0  0  0  0  0  0  0  # atno 6909 bound_to 6896
  145.4201  139.2322  143.3201 H   0  0  0  0  0  0  0  0  0  0  0  0  # atno 7974 bound_to 7965
  154.6179  140.2492  155.7586 H   0  0  0  0  0  0  0  0  0  0  0  0  # atno 8008 bound_to 7997
  156.2409  140.2933  156.0391 H   0  0  0  0  0  0  0  0  0  0  0  0  # atno 8009 bound_to 7997
  155.1945  140.0392  157.2897 H   0  0  0  0  0  0  0  0  0  0  0  0  # atno 8010 bound_to 7997
  139.5070  144.6277  151.5895 H   0  0  0  0  0  0  0  0  0  0  0  0  # atno 10167 bound_to 10162
  157.5554  131.1092  150.8631 H   0  0  0  0  0  0  0  0  0  0  0  0  # atno 10718 bound_to 10713
  153.0066  135.5383  154.6553 H   0  0  0  0  0  0  0  0  0  0  0  0  # atno 10763 bound_to 10752
  154.5775  135.2847  155.0768 H   0  0  0  0  0  0  0  0  0  0  0  0  # atno 10764 bound_to 10752
  154.1910  135.6500  153.5112 H   0  0  0  0  0  0  0  0  0  0  0  0  # atno 10765 bound_to 10752
  140.1563  134.4398  155.8347 H   0  0  0  0  0  0  0  0  0  0  0  0  # atno 11005 bound_to 11000
  146.2661  140.4924  142.8833 LP  0  0  0  0  0  0  0  0  0  0  0  0  # atno 17320 bound_to 7965
  144.8251  140.6614  143.6327 LP  0  0  0  0  0  0  0  0  0  0  0  0  # atno 17321 bound_to 7965
  140.6000  143.9627  150.6380 LP  0  0  0  0  0  0  0  0  0  0  0  0  # atno 17342 bound_to 10162
  140.2835  143.3373  152.1129 LP  0  0  0  0  0  0  0  0  0  0  0  0  # atno 17343 bound_to 10162
  156.9144  130.5292  149.5280 LP  0  0  0  0  0  0  0  0  0  0  0  0  # atno 17370 bound_to 10713
  156.0614  130.5665  150.9199 LP  0  0  0  0  0  0  0  0  0  0  0  0  # atno 17371 bound_to 10713
  141.2205  133.6894  156.7513 LP  0  0  0  0  0  0  0  0  0  0  0  0  # atno 17394 bound_to 11000
  140.2544  134.8516  157.3698 LP  0  0  0  0  0  0  0  0  0  0  0  0  # atno 17395 bound_to 11000

$$$$
