AV-unprocessed.smi:1723|AV-procd|sdf|6945|dock3
  -GOLD-   22720 8153D 1   1.00000     0.00000
 Structure written by MMmdl.
 38 38  0  0  0  0  0  0  0  0  1 V2000
  147.4630  141.5909  153.8936 C   0  0  0  0  0  0  0  0  0  0  0  0
  147.0372  140.1630  153.5348 C   0  0  0  0  0  0  0  0  0  0  0  0
  148.1286  139.1280  153.8413 C   0  0  0  0  0  0  0  0  0  0  0  0
  148.1881  138.7557  155.3270 C   0  0  0  0  0  0  0  0  0  0  0  0
  149.3792  138.0127  155.5584 O   0  0  0  0  0  0  0  0  0  0  0  0
  150.5665  138.5677  154.9988 C   0  0  2  0  0  0  0  0  0  0  0  0
  151.6405  137.4693  155.0098 C   0  0  0  0  0  0  0  0  0  0  0  0
  151.0130  139.7959  155.8087 C   0  0  0  0  0  0  0  0  0  0  0  0
  151.0281  140.9015  155.2686 O   0  0  0  0  0  0  0  0  0  0  0  0
  151.3941  139.5438  157.0769 N   0  0  0  0  0  0  0  0  0  0  0  0
  151.8541  140.4266  158.0691 C   0  0  0  0  0  0  0  0  0  0  0  0
  151.5748  141.7555  158.1231 C   0  0  0  0  0  0  0  0  0  0  0  0
  152.0783  142.6077  159.1874 C   0  0  0  0  0  0  0  0  0  0  0  0
  151.8314  144.1085  159.1894 C   0  0  0  0  0  0  0  0  0  0  0  0
  152.0556  144.6344  160.3944 F   0  0  0  0  0  0  0  0  0  0  0  0
  152.6220  144.7246  158.3103 F   0  0  0  0  0  0  0  0  0  0  0  0
  150.5659  144.3592  158.8564 F   0  0  0  0  0  0  0  0  0  0  0  0
  152.8441  142.0135  160.1208 C   0  0  0  0  0  0  0  0  0  0  0  0
  153.1166  140.6444  160.0863 N   0  0  0  0  0  0  0  0  0  0  0  0
  152.6754  139.8059  159.1220 C   0  0  0  0  0  0  0  0  0  0  0  0
  152.9637  138.6101  159.1600 O   0  0  0  0  0  0  0  0  0  0  0  0
  153.6836  140.2707  160.8338 H   0  0  0  0  0  0  0  0  0  0  0  0
  146.6675  142.3016  153.6687 H   0  0  0  0  0  0  0  0  0  0  0  0
  148.3466  141.8915  153.3298 H   0  0  0  0  0  0  0  0  0  0  0  0
  147.6964  141.6779  154.9550 H   0  0  0  0  0  0  0  0  0  0  0  0
  146.1292  139.9095  154.0830 H   0  0  0  0  0  0  0  0  0  0  0  0
  146.7807  140.1217  152.4756 H   0  0  0  0  0  0  0  0  0  0  0  0
  147.9519  138.2270  153.2527 H   0  0  0  0  0  0  0  0  0  0  0  0
  149.0981  139.5170  153.5280 H   0  0  0  0  0  0  0  0  0  0  0  0
  148.1886  139.6582  155.9398 H   0  0  0  0  0  0  0  0  0  0  0  0
  147.3043  138.1755  155.5945 H   0  0  0  0  0  0  0  0  0  0  0  0
  150.3797  138.8519  153.9612 H   0  0  0  0  0  0  0  0  0  0  0  0
  152.5877  137.8360  154.6127 H   0  0  0  0  0  0  0  0  0  0  0  0
  151.3326  136.6232  154.3952 H   0  0  0  0  0  0  0  0  0  0  0  0
  151.8216  137.0937  156.0179 H   0  0  0  0  0  0  0  0  0  0  0  0
  151.3818  138.5732  157.3567 H   0  0  0  0  0  0  0  0  0  0  0  0
  150.9491  142.2251  157.3825 H   0  0  0  0  0  0  0  0  0  0  0  0
  153.3057  142.5314  160.9486 H   0  0  0  0  0  0  0  0  0  0  0  0
  1  2  1  0  0  0  0
  1 23  1  0  0  0  0
  1 24  1  0  0  0  0
  1 25  1  0  0  0  0
  2  3  1  0  0  0  0
  2 26  1  0  0  0  0
  2 27  1  0  0  0  0
  3  4  1  0  0  0  0
  3 28  1  0  0  0  0
  3 29  1  0  0  0  0
  4  5  1  0  0  0  0
  4 30  1  0  0  0  0
  4 31  1  0  0  0  0
  5  6  1  0  0  0  0
  6  7  1  0  0  0  0
  6  8  1  0  0  0  0
  6 32  1  0  0  0  0
  7 33  1  0  0  0  0
  7 34  1  0  0  0  0
  7 35  1  0  0  0  0
  8  9  2  0  0  0  0
  8 10  1  0  0  0  0
 10 11  1  0  0  0  0
 10 36  1  0  0  0  0
 11 20  1  0  0  0  0
 11 12  2  0  0  0  0
 12 13  1  0  0  0  0
 12 37  1  0  0  0  0
 13 14  1  0  0  0  0
 13 18  2  0  0  0  0
 14 15  1  0  0  0  0
 14 16  1  0  0  0  0
 14 17  1  0  0  0  0
 18 19  1  0  0  0  0
 18 38  1  0  0  0  0
 19 22  1  0  0  0  0
 19 20  1  0  0  0  0
 20 21  2  0  0  0  0
M  END
> <s_m_source_file>
AV-unprocessed.smi

> <i_m_source_file_index>
1723

> <i_lp_mmshare_version>
43012

> <i_f3d_flags>
0

> <s_epik_input>
W0NIM11bQ0gyXVtDSDJdW0NIMl1PW0NASF0oW0NIM10pQyg9TylbTkhdYzFbY0hdYyhDKEYpKEYpRilbY0hdW25IXWMxPU8=

> <s_epik_cmdline>
J2VwaWtfcHl0aG9uJywgJy1waCcsICc3LjAnLCAnLXRuJywgJzgnLCAnLW1hJywgJzIwMCcsICctbWV0YWxfYmluZGluZycsICctaW1hZScsICc8aW5maWxlLm1hZT4nLCAnLW9tYWUnLCAnPG91dGZpbGUubWFlPic=

> <r_lp_tautomer_probability>
0.999

> <r_epik_Ionization_Penalty>
0.00763408

> <r_epik_Ionization_Penalty_Charging>
0.00763398

> <r_epik_Ionization_Penalty_Neutral>
9.29819e-08

> <r_epik_State_Penalty>
0.00571302

> <r_epik_Charging_Adjusted_Penalty>
0.013347

> <i_epik_Tot_Q>
0

> <i_epik_Tot_abs_Q>
0

> <r_epik_Metal_State_Penalty>
0.392814

> <b_epik_Metal_Only>
0

> <s_lp_Force_Field>
OPLS_2005

> <r_lp_Energy>
19.1413

> <b_lp_Chiralities_Consistent>
1

> <s_lp_Variant>
AV-unprocessed.smi:1723-1

> <Gold.Version>
5.8.1

> <Gold.Id.Protein>
6NUR|6NUR_protein|mol2

> <Gold.PLP.Fitness>
43.2192

> <Gold.PLP.PLP>
-43.1411

> <Gold.PLP.part.hbond>
-1.0000

> <Gold.PLP.part.metal>
0.0000

> <Gold.PLP.part.buried>
-4.0877

> <Gold.PLP.part.nonpolar>
-37.3807

> <Gold.PLP.part.repulsive>
0.2804

> <Gold.PLP.ligand.clash>
0.0000

> <Gold.PLP.ligand.torsion>
1.1929

> <Gold.PLP.Chemscore.Hbond>
0.7360

> <Gold.PLP.Chemscore.CHOScore>
0.0000

> <Gold.PLP.Chemscore.Metal>
0.0000

> <Gold.Chemscore.Hbonds>
donor molecule, donor type, donor heavy atom, donor atom, acceptor molecule, acceptor atom, score
      P1  H  7989  7998       L1     9  0.74

> <Gold.PLP.Chemscore.Internal.Correction>
0.2559

> <Gold.Rescore>
     Score         DG    S(hbond)    S(metal)    S(lipo)     H(rot)  DE(clash)    DE(int)     intcor
     11.87     -12.67       0.98        0.00      77.08       1.99       0.09       0.71       ----

> <Gold.Chemscore.Fitness>
11.8653

> <Gold.Chemscore.DG>
-12.6673

> <Gold.Chemscore.ZeroCoef>
-5.4800

> <Gold.Chemscore.Hbond>
0.9804

> <Gold.Chemscore.Metal>
0.0000

> <Gold.Chemscore.Lipo>
77.0836

> <Gold.Chemscore.Internal_Hbond>
0.0000

> <Gold.Chemscore.DEClash>
0.0929

> <Gold.Chemscore.DEInternal>
0.7091

> <Gold.Chemscore.Rot>
1.9946

> <Gold.Chemscore.Internal.Correction>
   9.000000E+99

> <Gold.Chemscore.Hbonds>
donor molecule, donor type, donor heavy atom, donor atom, acceptor molecule, acceptor atom, score
      P1  H  7989  7998       L1     9  0.67

> <Gold.Chemscore.Hbond.Weighted>
-3.2747

> <Gold.Chemscore.Metal.Weighted>
-0.0000

> <Gold.Chemscore.Lipo.Weighted>
-9.0188

> <Gold.Chemscore.Internal_Hbond.Weighted>
0.0000

> <Gold.Chemscore.DEClash.Weighted>
0.0929

> <Gold.Chemscore.DEInternal.Weighted>
0.7091

> <Gold.Chemscore.Rot.Weighted>
5.1062

> <Gold.Chemscore.Internal.Correction.Weighted>
   9.000000E+99

> <Gold.Protein.RotatedTorsions>
[ 6907 6896 6895 6894 ] final  117.12 input  -60.11 | X-H torsion
[ 7974 7965 7964 7962 ] final -109.45 input  175.53 | X-H torsion
[ 8008 7997 7996 7995 ] final -168.99 input   59.86 | X-H torsion
[ 10167 10162 10161 10158 ] final  -95.33 input  -65.29 | X-H torsion
[ 10718 10713 10712 10709 ] final   79.97 input   66.30 | X-H torsion
[ 10763 10752 10751 10750 ] final  116.74 input  -60.55 | X-H torsion
[ 11005 11000 10999 10996 ] final   63.75 input  -57.11 | X-H torsion

> <Gold.Protein.ActiveResidues>
 VAL166  LYS551  ARG553  GLY616  TRP617  ASP618  TYR619  PRO620  LYS621  CYS622 
 ASP623  PHE694  ASN695  SER759  ASP760  ASP761  ALA762  ILE779  LEU786  VAL792 
 PHE793  MET794  SER795  GLU796  ALA797  LYS798  CYS799  TRP800  GLU811  SER814 

> <Gold.Protein.RotatedAtoms>
  152.4633  133.7869  159.6880 H   0  0  0  0  0  0  0  0  0  0  0  0  # atno 6907 bound_to 6896
  150.8586  133.7667  159.3006 H   0  0  0  0  0  0  0  0  0  0  0  0  # atno 6908 bound_to 6896
  151.5240  135.1070  159.9937 H   0  0  0  0  0  0  0  0  0  0  0  0  # atno 6909 bound_to 6896
  145.1804  140.8968  143.3483 H   0  0  0  0  0  0  0  0  0  0  0  0  # atno 7974 bound_to 7965
  155.8989  140.1037  157.1364 H   0  0  0  0  0  0  0  0  0  0  0  0  # atno 8008 bound_to 7997
  154.4024  140.1296  156.4475 H   0  0  0  0  0  0  0  0  0  0  0  0  # atno 8009 bound_to 7997
  155.7446  140.3466  155.5123 H   0  0  0  0  0  0  0  0  0  0  0  0  # atno 8010 bound_to 7997
  140.3053  143.3137  152.0205 H   0  0  0  0  0  0  0  0  0  0  0  0  # atno 10167 bound_to 10162
  157.6792  130.9938  150.2011 H   0  0  0  0  0  0  0  0  0  0  0  0  # atno 10718 bound_to 10713
  153.5418  135.3557  155.2721 H   0  0  0  0  0  0  0  0  0  0  0  0  # atno 10763 bound_to 10752
  154.8716  135.4093  154.3035 H   0  0  0  0  0  0  0  0  0  0  0  0  # atno 10764 bound_to 10752
  153.3744  135.7065  153.6681 H   0  0  0  0  0  0  0  0  0  0  0  0  # atno 10765 bound_to 10752
  140.0004  134.6452  155.9941 H   0  0  0  0  0  0  0  0  0  0  0  0  # atno 11005 bound_to 11000
  145.0142  139.3482  143.6105 LP  0  0  0  0  0  0  0  0  0  0  0  0  # atno 17320 bound_to 7965
  146.3454  139.9416  142.8740 LP  0  0  0  0  0  0  0  0  0  0  0  0  # atno 17321 bound_to 7965
  139.4906  144.6425  151.6847 LP  0  0  0  0  0  0  0  0  0  0  0  0  # atno 17342 bound_to 10162
  140.5615  144.0260  150.6172 LP  0  0  0  0  0  0  0  0  0  0  0  0  # atno 17343 bound_to 10162
  156.2701  130.3721  149.8040 LP  0  0  0  0  0  0  0  0  0  0  0  0  # atno 17370 bound_to 10713
  156.5759  130.8445  151.3369 LP  0  0  0  0  0  0  0  0  0  0  0  0  # atno 17371 bound_to 10713
  141.1637  133.6537  156.4406 LP  0  0  0  0  0  0  0  0  0  0  0  0  # atno 17394 bound_to 11000
  140.4739  134.6727  157.5141 LP  0  0  0  0  0  0  0  0  0  0  0  0  # atno 17395 bound_to 11000

$$$$
