AV-unprocessed.smi:278|AV-procd|sdf|2092|dock10
  -GOLD-   2262021373D 1   1.00000     0.00000
 Structure written by MMmdl.
 50 54  0  0  0  0  0  0  0  0  1 V2000
  153.7383  138.6192  154.6729 O   0  0  0  0  0  0  0  0  0  0  0  0
  152.4794  138.2004  155.3075 S   0  0  0  0  0  0  0  0  0  0  0  0
  151.8765  136.8960  154.9921 O   0  0  0  0  0  0  0  0  0  0  0  0
  152.6496  138.3562  157.1279 C   0  0  0  0  0  0  0  0  0  0  0  0
  151.9083  139.6411  157.5211 C   0  0  0  0  0  0  0  0  0  0  0  0
  150.7692  139.8941  156.5169 C   0  0  2  0  0  0  0  0  0  0  0  0
  149.5559  138.9777  156.7074 C   0  0  0  0  0  0  0  0  0  0  0  0
  148.9682  138.8442  155.3818 N   0  0  0  0  0  0  0  0  0  0  0  0
  147.9645  137.9590  155.1463 C   0  0  0  0  0  0  0  0  0  0  0  0
  147.7473  136.9576  156.0406 N   0  0  0  0  0  0  0  0  0  0  0  0
  146.7756  136.0638  155.8376 C   0  0  0  0  0  0  0  0  0  0  0  0
  145.9097  135.9884  154.8262 N   0  0  0  0  0  0  0  0  0  0  0  0
  146.1088  136.9979  153.9321 C   0  0  0  0  0  0  0  0  0  0  0  0
  147.0996  138.0183  154.0138 C   0  0  0  0  0  0  0  0  0  0  0  0
  146.9786  138.8740  152.9234 N   0  0  0  0  0  0  0  0  0  0  0  0
  145.9887  138.3797  152.2320 C   0  0  0  0  0  0  0  0  0  0  0  0
  145.4152  137.2471  152.7618 N   0  0  0  0  0  0  0  0  0  0  0  0
  144.3186  136.4820  152.1978 C   0  0  0  0  0  0  0  0  0  0  0  0
  144.7745  135.4864  151.1095 C   0  0  1  0  0  0  0  0  0  0  0  0
  145.5750  136.2051  150.1928 O   0  0  0  0  0  0  0  0  0  0  0  0
  145.5758  134.2782  151.6451 C   0  0  2  0  0  0  0  0  0  0  0  0
  145.7569  133.1378  150.6423 C   0  0  0  0  0  0  0  0  0  0  0  0
  146.0474  131.9385  151.5282 C   0  0  0  0  0  0  0  0  0  0  0  0
  145.4678  132.3386  152.8875 C   0  0  0  0  0  0  0  0  0  0  0  0
  144.8697  133.6109  152.6814 O   0  0  0  0  0  0  0  0  0  0  0  0
  149.9734  139.0995  154.3577 C   0  0  0  0  0  0  0  0  0  0  0  0
  151.2385  139.5485  155.1031 C   0  0  2  0  0  0  0  0  0  0  0  0
  150.4384  140.9328  156.5559 H   0  0  0  0  0  0  0  0  0  0  0  0
  151.7315  140.3906  154.6165 H   0  0  0  0  0  0  0  0  0  0  0  0
  152.1818  137.4838  157.5842 H   0  0  0  0  0  0  0  0  0  0  0  0
  153.7028  138.3700  157.4086 H   0  0  0  0  0  0  0  0  0  0  0  0
  151.5452  139.6001  158.5485 H   0  0  0  0  0  0  0  0  0  0  0  0
  152.6073  140.4765  157.4670 H   0  0  0  0  0  0  0  0  0  0  0  0
  149.8598  137.9946  157.0698 H   0  0  0  0  0  0  0  0  0  0  0  0
  148.8451  139.3990  157.4192 H   0  0  0  0  0  0  0  0  0  0  0  0
  146.6792  135.2979  156.5931 H   0  0  0  0  0  0  0  0  0  0  0  0
  145.6561  138.8243  151.3051 H   0  0  0  0  0  0  0  0  0  0  0  0
  143.8196  135.9527  153.0107 H   0  0  0  0  0  0  0  0  0  0  0  0
  143.5889  137.1813  151.7867 H   0  0  0  0  0  0  0  0  0  0  0  0
  143.9025  135.1228  150.5645 H   0  0  0  0  0  0  0  0  0  0  0  0
  145.6233  135.7130  149.3875 H   0  0  0  0  0  0  0  0  0  0  0  0
  146.5488  134.5999  152.0219 H   0  0  0  0  0  0  0  0  0  0  0  0
  144.8290  132.9707  150.0928 H   0  0  0  0  0  0  0  0  0  0  0  0
  146.5491  133.3290  149.9180 H   0  0  0  0  0  0  0  0  0  0  0  0
  145.5913  131.0292  151.1353 H   0  0  0  0  0  0  0  0  0  0  0  0
  147.1214  131.7682  151.6116 H   0  0  0  0  0  0  0  0  0  0  0  0
  144.7293  131.6248  153.2528 H   0  0  0  0  0  0  0  0  0  0  0  0
  146.2575  132.4250  153.6349 H   0  0  0  0  0  0  0  0  0  0  0  0
  150.1568  138.2287  153.7276 H   0  0  0  0  0  0  0  0  0  0  0  0
  149.6134  139.9035  153.7151 H   0  0  0  0  0  0  0  0  0  0  0  0
  1  2  2  0  0  0  0
  2 27  1  0  0  0  0
  2  3  2  0  0  0  0
  2  4  1  0  0  0  0
  4  5  1  0  0  0  0
  4 30  1  0  0  0  0
  4 31  1  0  0  0  0
  5  6  1  0  0  0  0
  5 32  1  0  0  0  0
  5 33  1  0  0  0  0
  6 28  1  0  0  0  0
  6 27  1  0  0  0  0
  6  7  1  0  0  0  0
  7  8  1  0  0  0  0
  7 34  1  0  0  0  0
  7 35  1  0  0  0  0
  8  9  1  0  0  0  0
  8 26  1  0  0  0  0
  9 14  1  0  0  0  0
  9 10  2  0  0  0  0
 10 11  1  0  0  0  0
 11 12  2  0  0  0  0
 11 36  1  0  0  0  0
 12 13  1  0  0  0  0
 13 17  1  0  0  0  0
 13 14  2  0  0  0  0
 14 15  1  0  0  0  0
 15 16  2  0  0  0  0
 16 17  1  0  0  0  0
 16 37  1  0  0  0  0
 17 18  1  0  0  0  0
 18 19  1  0  0  0  0
 18 38  1  0  0  0  0
 18 39  1  0  0  0  0
 19 20  1  0  0  0  0
 19 21  1  0  0  0  0
 19 40  1  0  0  0  0
 20 41  1  0  0  0  0
 21 25  1  0  0  0  0
 21 22  1  0  0  0  0
 21 42  1  0  0  0  0
 22 23  1  0  0  0  0
 22 43  1  0  0  0  0
 22 44  1  0  0  0  0
 23 24  1  0  0  0  0
 23 45  1  0  0  0  0
 23 46  1  0  0  0  0
 24 25  1  0  0  0  0
 24 47  1  0  0  0  0
 24 48  1  0  0  0  0
 26 27  1  0  0  0  0
 26 49  1  0  0  0  0
 26 50  1  0  0  0  0
 27 29  1  0  0  0  0
M  END
> <s_m_source_file>
AV-unprocessed.smi

> <i_m_source_file_index>
278

> <i_lp_mmshare_version>
43012

> <i_f3d_flags>
0

> <s_epik_input>
W0NIMl0xW0NIMl1TKD1PKSg9TylbQ0BASF0oW0NAQEhdMTIpW0NIMl1OKFtDSDJdMiljKG5bY0hdbjMpYyhjMzQpbltjSF1uNFtDSDJdW0NASF0oW09IXSlbQ0BASF01W0NIMl1bQ0gyXVtDSDJdTzU=

> <s_epik_cmdline>
J2VwaWtfcHl0aG9uJywgJy1waCcsICc3LjAnLCAnLXRuJywgJzgnLCAnLW1hJywgJzIwMCcsICctbWV0YWxfYmluZGluZycsICctaW1hZScsICc8aW5maWxlLm1hZT4nLCAnLW9tYWUnLCAnPG91dGZpbGUubWFlPic=

> <r_lp_tautomer_probability>
1

> <r_epik_Ionization_Penalty>
0.000636766

> <r_epik_Ionization_Penalty_Charging>
0

> <r_epik_Ionization_Penalty_Neutral>
0.000636766

> <r_epik_State_Penalty>
0.000329976

> <r_epik_Charging_Adjusted_Penalty>
0.000329976

> <i_epik_Tot_Q>
0

> <i_epik_Tot_abs_Q>
0

> <r_epik_Metal_State_Penalty>
-0

> <b_epik_Metal_Only>
0

> <s_lp_Force_Field>
OPLS_2005

> <r_lp_Energy>
49.0353

> <b_lp_Chiralities_Consistent>
1

> <s_lp_Variant>
AV-unprocessed.smi:278-6

> <Gold.Version>
5.8.1

> <Gold.Id.Protein>
6NUR|6NUR_protein|mol2

> <Gold.PLP.Fitness>
44.7037

> <Gold.PLP.PLP>
-33.9731

> <Gold.PLP.part.hbond>
-4.0000

> <Gold.PLP.part.metal>
0.0000

> <Gold.PLP.part.buried>
-3.1485

> <Gold.PLP.part.nonpolar>
-28.1620

> <Gold.PLP.part.repulsive>
0.5193

> <Gold.PLP.ligand.clash>
0.0000

> <Gold.PLP.ligand.torsion>
1.0288

> <Gold.PLP.Chemscore.Hbond>
2.9760

> <Gold.PLP.Chemscore.CHOScore>
1.1854

> <Gold.PLP.Chemscore.Metal>
0.0000

> <Gold.Chemscore.Hbonds>
donor molecule, donor type, donor heavy atom, donor atom, acceptor molecule, acceptor atom, score
      L1  H    20    41       P1  7921  1.00
      P1  H  7997  8010       L1     1  0.80
      P1  H 10752 10764       L1     3  1.00
      L1  C    16    37       P1 10171  1.00
      L1  C    16    37       P1 10175  0.11

> <Gold.PLP.Chemscore.Internal.Correction>
0.3038

> <Gold.Rescore>
     Score         DG    S(hbond)    S(metal)    S(lipo)     H(rot)  DE(clash)    DE(int)     intcor
     15.43     -17.48       2.87        0.00      67.42       2.13       0.32       1.73       ----

> <Gold.Chemscore.Fitness>
15.4326

> <Gold.Chemscore.DG>
-17.4830

> <Gold.Chemscore.ZeroCoef>
-5.4800

> <Gold.Chemscore.Hbond>
2.8681

> <Gold.Chemscore.Metal>
0.0000

> <Gold.Chemscore.Lipo>
67.4191

> <Gold.Chemscore.Internal_Hbond>
0.0000

> <Gold.Chemscore.DEClash>
0.3221

> <Gold.Chemscore.DEInternal>
1.7283

> <Gold.Chemscore.Rot>
2.1346

> <Gold.Chemscore.Internal.Correction>
   9.000000E+99

> <Gold.Chemscore.Hbonds>
donor molecule, donor type, donor heavy atom, donor atom, acceptor molecule, acceptor atom, score
      L1  H    20    41       P1  7921  0.94
      P1  H  7997  8010       L1     1  0.54
      P1  H 10752 10764       L1     3  0.92

> <Gold.Chemscore.Hbond.Weighted>
-9.5796

> <Gold.Chemscore.Metal.Weighted>
-0.0000

> <Gold.Chemscore.Lipo.Weighted>
-7.8880

> <Gold.Chemscore.Internal_Hbond.Weighted>
0.0000

> <Gold.Chemscore.DEClash.Weighted>
0.3221

> <Gold.Chemscore.DEInternal.Weighted>
1.7283

> <Gold.Chemscore.Rot.Weighted>
5.4646

> <Gold.Chemscore.Internal.Correction.Weighted>
   9.000000E+99

> <Gold.Protein.RotatedTorsions>
[ 6907 6896 6895 6894 ] final   71.12 input  -60.11 | X-H torsion
[ 7974 7965 7964 7962 ] final   83.68 input  175.53 | X-H torsion
[ 8008 7997 7996 7995 ] final  111.84 input   59.86 | X-H torsion
[ 10167 10162 10161 10158 ] final  107.27 input  -65.29 | X-H torsion
[ 10718 10713 10712 10709 ] final  129.56 input   66.30 | X-H torsion
[ 10763 10752 10751 10750 ] final  -59.54 input  -60.55 | X-H torsion
[ 11005 11000 10999 10996 ] final   67.77 input  -57.11 | X-H torsion

> <Gold.Protein.ActiveResidues>
 VAL166  LYS551  ARG553  GLY616  TRP617  ASP618  TYR619  PRO620  LYS621  CYS622 
 ASP623  PHE694  ASN695  SER759  ASP760  ASP761  ALA762  ILE779  LEU786  VAL792 
 PHE793  MET794  SER795  GLU796  ALA797  LYS798  CYS799  TRP800  GLU811  SER814 

> <Gold.Protein.RotatedAtoms>
  152.4791  134.4767  159.9652 H   0  0  0  0  0  0  0  0  0  0  0  0  # atno 6907 bound_to 6896
  151.4777  133.3548  159.2841 H   0  0  0  0  0  0  0  0  0  0  0  0  # atno 6908 bound_to 6896
  150.8850  134.8273  159.7313 H   0  0  0  0  0  0  0  0  0  0  0  0  # atno 6909 bound_to 6896
  145.6088  139.2364  143.2204 H   0  0  0  0  0  0  0  0  0  0  0  0  # atno 7974 bound_to 7965
  156.2152  140.3011  155.9822 H   0  0  0  0  0  0  0  0  0  0  0  0  # atno 8008 bound_to 7997
  155.2624  140.0430  157.3016 H   0  0  0  0  0  0  0  0  0  0  0  0  # atno 8009 bound_to 7997
  154.5757  140.2361  155.8135 H   0  0  0  0  0  0  0  0  0  0  0  0  # atno 8010 bound_to 7997
  139.6940  144.7104  151.1298 H   0  0  0  0  0  0  0  0  0  0  0  0  # atno 10167 bound_to 10162
  157.5143  131.1097  150.9247 H   0  0  0  0  0  0  0  0  0  0  0  0  # atno 10718 bound_to 10713
  154.2552  135.6318  153.5254 H   0  0  0  0  0  0  0  0  0  0  0  0  # atno 10763 bound_to 10752
  152.9905  135.5574  154.5764 H   0  0  0  0  0  0  0  0  0  0  0  0  # atno 10764 bound_to 10752
  154.5300  135.2888  155.1163 H   0  0  0  0  0  0  0  0  0  0  0  0  # atno 10765 bound_to 10752
  139.9751  134.6836  156.0370 H   0  0  0  0  0  0  0  0  0  0  0  0  # atno 11005 bound_to 11000
  146.1520  140.6911  142.9317 LP  0  0  0  0  0  0  0  0  0  0  0  0  # atno 17320 bound_to 7965
  144.7279  140.4581  143.6960 LP  0  0  0  0  0  0  0  0  0  0  0  0  # atno 17321 bound_to 7965
  140.7691  143.5518  150.9196 LP  0  0  0  0  0  0  0  0  0  0  0  0  # atno 17342 bound_to 10162
  139.9196  143.6621  152.3099 LP  0  0  0  0  0  0  0  0  0  0  0  0  # atno 17343 bound_to 10162
  156.9878  130.5551  149.5301 LP  0  0  0  0  0  0  0  0  0  0  0  0  # atno 17370 bound_to 10713
  156.0310  130.5401  150.8533 LP  0  0  0  0  0  0  0  0  0  0  0  0  # atno 17371 bound_to 10713
  141.1428  133.6561  156.3780 LP  0  0  0  0  0  0  0  0  0  0  0  0  # atno 17394 bound_to 11000
  140.5212  134.6302  157.5318 LP  0  0  0  0  0  0  0  0  0  0  0  0  # atno 17395 bound_to 11000

$$$$
