AV-unprocessed.smi:2678|AV-procd|sdf|10369|dock1
  -GOLD-   2272014393D 1   1.00000     0.00000
 Structure written by MMmdl.
 46 47  0  0  0  0  0  0  0  0  1 V2000
  152.3493  142.4439  159.8650 C   0  0  0  0  0  0  0  0  0  0  0  0
  152.1806  142.6992  158.3615 C   0  0  0  0  0  0  0  0  0  0  0  0
  152.2134  144.2006  158.0341 C   0  0  0  0  0  0  0  0  0  0  0  0
  150.9281  142.1030  157.9058 N   0  0  0  0  0  0  0  0  0  0  0  0
  150.8157  140.9511  157.2251 C   0  0  0  0  0  0  0  0  0  0  0  0
  151.7888  140.2688  156.9042 O   0  0  0  0  0  0  0  0  0  0  0  0
  149.3849  140.5116  156.8606 C   0  0  1  0  0  0  0  0  0  0  0  0
  148.6990  141.4732  155.8623 C   0  0  0  0  0  0  0  0  0  0  0  0
  149.1719  141.2912  154.4084 C   0  0  0  0  0  0  0  0  0  0  0  0
  149.0343  139.8297  153.9563 C   0  0  0  0  0  0  0  0  0  0  0  0
  149.8062  138.8818  154.8904 C   0  0  2  0  0  0  0  0  0  0  0  0
  149.6255  137.4991  154.4430 N   0  0  0  0  0  0  0  0  0  0  0  0
  149.9674  136.3656  155.0831 C   0  0  0  0  0  0  0  0  0  0  0  0
  150.5221  136.3981  156.1793 O   0  0  0  0  0  0  0  0  0  0  0  0
  149.6681  135.2395  154.4062 N   0  0  0  0  0  0  0  0  0  0  0  0
  149.8983  133.8870  154.7740 C   0  0  0  0  0  0  0  0  0  0  0  0
  149.4283  132.7684  154.0444 C   0  0  0  0  0  0  0  0  0  0  0  0
  149.7418  131.4758  154.5075 C   0  0  0  0  0  0  0  0  0  0  0  0
  150.5175  131.3493  155.6764 C   0  0  0  0  0  0  0  0  0  0  0  0
  150.9828  132.4068  156.3741 N   0  0  0  0  0  0  0  0  0  0  0  0
  150.6795  133.6428  155.9234 C   0  0  0  0  0  0  0  0  0  0  0  0
  149.3260  139.0522  156.3517 C   0  0  0  0  0  0  0  0  0  0  0  0
  153.2931  142.8529  160.2271 H   0  0  0  0  0  0  0  0  0  0  0  0
  152.3475  141.3759  160.0857 H   0  0  0  0  0  0  0  0  0  0  0  0
  151.5453  142.9051  160.4397 H   0  0  0  0  0  0  0  0  0  0  0  0
  153.0117  142.2125  157.8475 H   0  0  0  0  0  0  0  0  0  0  0  0
  153.1477  144.6528  158.3679 H   0  0  0  0  0  0  0  0  0  0  0  0
  151.3946  144.7310  158.5211 H   0  0  0  0  0  0  0  0  0  0  0  0
  152.1316  144.3755  156.9609 H   0  0  0  0  0  0  0  0  0  0  0  0
  150.0800  142.6031  158.1299 H   0  0  0  0  0  0  0  0  0  0  0  0
  148.8049  140.5480  157.7845 H   0  0  0  0  0  0  0  0  0  0  0  0
  147.6216  141.3080  155.9028 H   0  0  0  0  0  0  0  0  0  0  0  0
  148.8507  142.5091  156.1698 H   0  0  0  0  0  0  0  0  0  0  0  0
  148.5898  141.9362  153.7499 H   0  0  0  0  0  0  0  0  0  0  0  0
  150.2083  141.6125  154.3045 H   0  0  0  0  0  0  0  0  0  0  0  0
  147.9785  139.5549  153.9367 H   0  0  0  0  0  0  0  0  0  0  0  0
  149.3996  139.7273  152.9338 H   0  0  0  0  0  0  0  0  0  0  0  0
  150.8633  139.1367  154.8120 H   0  0  0  0  0  0  0  0  0  0  0  0
  149.2045  137.3878  153.5319 H   0  0  0  0  0  0  0  0  0  0  0  0
  149.2782  135.3746  153.4845 H   0  0  0  0  0  0  0  0  0  0  0  0
  148.8511  132.8720  153.1393 H   0  0  0  0  0  0  0  0  0  0  0  0
  149.3984  130.6010  153.9756 H   0  0  0  0  0  0  0  0  0  0  0  0
  150.7755  130.3723  156.0575 H   0  0  0  0  0  0  0  0  0  0  0  0
  151.0704  134.4656  156.5047 H   0  0  0  0  0  0  0  0  0  0  0  0
  149.9047  138.4096  157.0166 H   0  0  0  0  0  0  0  0  0  0  0  0
  148.2959  138.7013  156.4292 H   0  0  0  0  0  0  0  0  0  0  0  0
  1  2  1  0  0  0  0
  1 23  1  0  0  0  0
  1 24  1  0  0  0  0
  1 25  1  0  0  0  0
  2  3  1  0  0  0  0
  2  4  1  0  0  0  0
  2 26  1  0  0  0  0
  3 27  1  0  0  0  0
  3 28  1  0  0  0  0
  3 29  1  0  0  0  0
  4  5  1  0  0  0  0
  4 30  1  0  0  0  0
  5  6  2  0  0  0  0
  5  7  1  0  0  0  0
  7 22  1  0  0  0  0
  7  8  1  0  0  0  0
  7 31  1  0  0  0  0
  8  9  1  0  0  0  0
  8 32  1  0  0  0  0
  8 33  1  0  0  0  0
  9 10  1  0  0  0  0
  9 34  1  0  0  0  0
  9 35  1  0  0  0  0
 10 11  1  0  0  0  0
 10 36  1  0  0  0  0
 10 37  1  0  0  0  0
 11 12  1  0  0  0  0
 11 22  1  0  0  0  0
 11 38  1  0  0  0  0
 12 13  1  0  0  0  0
 12 39  1  0  0  0  0
 13 14  2  0  0  0  0
 13 15  1  0  0  0  0
 15 16  1  0  0  0  0
 15 40  1  0  0  0  0
 16 21  1  0  0  0  0
 16 17  2  0  0  0  0
 17 18  1  0  0  0  0
 17 41  1  0  0  0  0
 18 19  2  0  0  0  0
 18 42  1  0  0  0  0
 19 20  1  0  0  0  0
 19 43  1  0  0  0  0
 20 21  2  0  0  0  0
 21 44  1  0  0  0  0
 22 45  1  0  0  0  0
 22 46  1  0  0  0  0
M  END
> <s_m_source_file>
AV-unprocessed.smi

> <i_m_source_file_index>
2678

> <i_lp_mmshare_version>
43012

> <i_f3d_flags>
0

> <s_epik_input>
W0NIM11bQ0hdKFtDSDNdKVtOSF1DKD1PKVtDQEBIXTFbQ0gyXVtDSDJdW0NIMl1bQ0BIXShbQ0gyXTEpW05IXUMoPU8pW05IXWMyW2NIXVtjSF1bY0hdbltjSF0y

> <s_epik_cmdline>
J2VwaWtfcHl0aG9uJywgJy1waCcsICc3LjAnLCAnLXRuJywgJzgnLCAnLW1hJywgJzIwMCcsICctbWV0YWxfYmluZGluZycsICctaW1hZScsICc8aW5maWxlLm1hZT4nLCAnLW9tYWUnLCAnPG91dGZpbGUubWFlPic=

> <r_epik_Ionization_Penalty>
0.00482944

> <r_epik_Ionization_Penalty_Charging>
0

> <r_epik_Ionization_Penalty_Neutral>
0.00482944

> <r_epik_State_Penalty>
0.00347168

> <r_epik_Charging_Adjusted_Penalty>
0.00347168

> <i_epik_Tot_Q>
0

> <i_epik_Tot_abs_Q>
0

> <r_epik_Metal_State_Penalty>
-0

> <b_epik_Metal_Only>
0

> <s_lp_Force_Field>
OPLS_2005

> <r_lp_Energy>
20.538

> <b_lp_Chiralities_Consistent>
1

> <s_lp_Variant>
AV-unprocessed.smi:2678-4

> <Gold.Version>
5.8.1

> <Gold.Id.Protein>
6NUR|6NUR_protein|mol2

> <Gold.PLP.Fitness>
42.1814

> <Gold.PLP.PLP>
-37.2142

> <Gold.PLP.part.hbond>
-2.0000

> <Gold.PLP.part.metal>
0.0000

> <Gold.PLP.part.buried>
-1.8520

> <Gold.PLP.part.nonpolar>
-32.6221

> <Gold.PLP.part.repulsive>
0.1228

> <Gold.PLP.ligand.clash>
0.0000

> <Gold.PLP.ligand.torsion>
0.4896

> <Gold.PLP.Chemscore.Hbond>
1.9600

> <Gold.PLP.Chemscore.CHOScore>
0.0000

> <Gold.PLP.Chemscore.Metal>
0.0000

> <Gold.Chemscore.Hbonds>
donor molecule, donor type, donor heavy atom, donor atom, acceptor molecule, acceptor atom, score
      L1  H    12    39       P1  7948  0.96
      L1  H    15    40       P1  7948  1.00

> <Gold.PLP.Chemscore.Internal.Correction>
0.0664

> <Gold.Rescore>
     Score         DG    S(hbond)    S(metal)    S(lipo)     H(rot)  DE(clash)    DE(int)     intcor
     13.55     -17.16       1.40        0.00      91.70       1.46       0.58       3.02       ----

> <Gold.Chemscore.Fitness>
13.5546

> <Gold.Chemscore.DG>
-17.1592

> <Gold.Chemscore.ZeroCoef>
-5.4800

> <Gold.Chemscore.Hbond>
1.4039

> <Gold.Chemscore.Metal>
0.0000

> <Gold.Chemscore.Lipo>
91.6957

> <Gold.Chemscore.Internal_Hbond>
0.0000

> <Gold.Chemscore.DEClash>
0.5844

> <Gold.Chemscore.DEInternal>
3.0202

> <Gold.Chemscore.Rot>
1.4603

> <Gold.Chemscore.Internal.Correction>
   9.000000E+99

> <Gold.Chemscore.Hbonds>
donor molecule, donor type, donor heavy atom, donor atom, acceptor molecule, acceptor atom, score
      L1  H    12    39       P1  7948  0.86
      L1  H    15    40       P1  7948  0.25

> <Gold.Chemscore.Hbond.Weighted>
-4.6891

> <Gold.Chemscore.Metal.Weighted>
-0.0000

> <Gold.Chemscore.Lipo.Weighted>
-10.7284

> <Gold.Chemscore.Internal_Hbond.Weighted>
0.0000

> <Gold.Chemscore.DEClash.Weighted>
0.5844

> <Gold.Chemscore.DEInternal.Weighted>
3.0202

> <Gold.Chemscore.Rot.Weighted>
3.7383

> <Gold.Chemscore.Internal.Correction.Weighted>
   9.000000E+99

> <Gold.Protein.RotatedTorsions>
[ 6907 6896 6895 6894 ] final  -82.62 input  -60.11 | X-H torsion
[ 7974 7965 7964 7962 ] final   21.68 input  175.53 | X-H torsion
[ 8008 7997 7996 7995 ] final  -49.49 input   59.86 | X-H torsion
[ 10167 10162 10161 10158 ] final   35.56 input  -65.29 | X-H torsion
[ 10718 10713 10712 10709 ] final   31.14 input   66.30 | X-H torsion
[ 10763 10752 10751 10750 ] final -100.44 input  -60.55 | X-H torsion
[ 11005 11000 10999 10996 ] final -174.90 input  -57.11 | X-H torsion

> <Gold.Protein.ActiveResidues>
 VAL166  LYS551  ARG553  GLY616  TRP617  ASP618  TYR619  PRO620  LYS621  CYS622 
 ASP623  PHE694  ASN695  SER759  ASP760  ASP761  ALA762  ILE779  LEU786  VAL792 
 PHE793  MET794  SER795  GLU796  ALA797  LYS798  CYS799  TRP800  GLU811  SER814 

> <Gold.Protein.RotatedAtoms>
  150.6895  134.3637  159.4961 H   0  0  0  0  0  0  0  0  0  0  0  0  # atno 6907 bound_to 6896
  152.1463  134.9021  160.0560 H   0  0  0  0  0  0  0  0  0  0  0  0  # atno 6908 bound_to 6896
  152.0135  133.3836  159.4266 H   0  0  0  0  0  0  0  0  0  0  0  0  # atno 6909 bound_to 6896
  146.2061  139.7993  142.8725 H   0  0  0  0  0  0  0  0  0  0  0  0  # atno 7974 bound_to 7965
  154.4045  140.1295  156.4511 H   0  0  0  0  0  0  0  0  0  0  0  0  # atno 8008 bound_to 7997
  155.7365  140.3490  155.5064 H   0  0  0  0  0  0  0  0  0  0  0  0  # atno 8009 bound_to 7997
  155.9079  140.1030  157.1292 H   0  0  0  0  0  0  0  0  0  0  0  0  # atno 8010 bound_to 7997
  140.4211  144.1459  150.6148 H   0  0  0  0  0  0  0  0  0  0  0  0  # atno 10167 bound_to 10162
  157.2687  130.7197  149.6492 H   0  0  0  0  0  0  0  0  0  0  0  0  # atno 10718 bound_to 10713
  154.7579  135.4935  153.9409 H   0  0  0  0  0  0  0  0  0  0  0  0  # atno 10763 bound_to 10752
  153.1217  135.6733  153.9332 H   0  0  0  0  0  0  0  0  0  0  0  0  # atno 10764 bound_to 10752
  153.9062  135.3104  155.3427 H   0  0  0  0  0  0  0  0  0  0  0  0  # atno 10765 bound_to 10752
  140.4694  134.6180  157.4875 H   0  0  0  0  0  0  0  0  0  0  0  0  # atno 11005 bound_to 11000
  145.3314  141.0267  143.3444 LP  0  0  0  0  0  0  0  0  0  0  0  0  # atno 17320 bound_to 7965
  144.8796  139.4922  143.6729 LP  0  0  0  0  0  0  0  0  0  0  0  0  # atno 17321 bound_to 7965
  140.4533  143.2478  151.9319 LP  0  0  0  0  0  0  0  0  0  0  0  0  # atno 17342 bound_to 10162
  139.4782  144.5541  151.8341 LP  0  0  0  0  0  0  0  0  0  0  0  0  # atno 17343 bound_to 10162
  155.9663  130.4374  150.5176 LP  0  0  0  0  0  0  0  0  0  0  0  0  # atno 17370 bound_to 10713
  157.3095  131.0661  151.2011 LP  0  0  0  0  0  0  0  0  0  0  0  0  # atno 17371 bound_to 10713
  139.9895  134.7008  155.9715 LP  0  0  0  0  0  0  0  0  0  0  0  0  # atno 17394 bound_to 11000
  141.1584  133.6541  156.4238 LP  0  0  0  0  0  0  0  0  0  0  0  0  # atno 17395 bound_to 11000

$$$$
