AV-unprocessed.smi:227|AV-procd|sdf|1732|dock2
  -GOLD-   2262020223D 1   1.00000     0.00000
 Structure written by MMmdl.
 54 58  0  0  0  0  0  0  0  0  1 V2000
  149.3205  133.1911  158.6008 O   0  0  0  0  0  0  0  0  0  0  0  0
  149.5286  131.8380  158.2518 C   0  0  0  0  0  0  0  0  0  0  0  0
  150.7060  131.6840  157.2580 C   0  0  1  0  0  0  0  0  0  0  0  0
  150.6965  132.7678  156.1515 C   0  0  0  0  0  0  0  0  0  0  0  0
  149.7208  132.5060  155.1077 N   0  0  0  0  0  0  0  0  0  0  0  0
  149.5808  131.3386  154.3943 C   0  0  0  0  0  0  0  0  0  0  0  0
  148.6216  131.3402  153.5100 N   0  0  0  0  0  0  0  0  0  0  0  0
  148.0631  132.6094  153.6116 C   0  0  0  0  0  0  0  0  0  0  0  0
  146.9959  133.2842  152.9521 C   0  0  0  0  0  0  0  0  0  0  0  0
  146.2474  132.7180  151.9705 N   0  0  0  0  0  0  0  0  0  0  0  0
  144.8289  132.4472  152.1274 C   0  0  2  0  0  0  0  0  0  0  0  0
  144.5461  131.5541  150.9045 C   0  0  0  0  0  0  0  0  0  0  0  0
  145.5203  132.1407  149.8639 C   0  0  0  0  0  0  0  0  0  0  0  0
  146.1278  133.3177  150.6496 C   0  0  1  0  0  0  0  0  0  0  0  0
  145.0317  134.4081  150.7880 C   0  0  2  0  0  0  0  0  0  0  0  0
  145.5064  135.8673  150.9656 C   0  0  0  0  0  0  0  0  0  0  0  0
  145.6333  136.5821  149.7560 O   0  0  0  0  0  0  0  0  0  0  0  0
  144.1669  133.8266  151.9236 C   0  0  0  0  0  0  0  0  0  0  0  0
  146.7098  134.5490  153.3603 N   0  0  0  0  0  0  0  0  0  0  0  0
  147.4358  135.1309  154.3187 C   0  0  0  0  0  0  0  0  0  0  0  0
  148.4669  134.6326  155.0023 N   0  0  0  0  0  0  0  0  0  0  0  0
  148.7440  133.3547  154.6163 C   0  0  0  0  0  0  0  0  0  0  0  0
  152.0764  131.6122  157.9781 C   0  0  2  0  0  0  0  0  0  0  0  0
  151.9988  131.4257  159.4834 C   0  0  0  0  0  0  0  0  0  0  0  0
  153.3914  131.8541  159.9306 C   0  0  0  0  0  0  0  0  0  0  0  0
  153.7861  132.8772  159.0242 O   0  0  0  0  0  0  0  0  0  0  0  0
  152.9100  132.8961  157.9012 C   0  0  0  0  0  0  0  0  0  0  0  0
  148.4685  133.2712  159.0016 H   0  0  0  0  0  0  0  0  0  0  0  0
  149.7113  131.2680  159.1624 H   0  0  0  0  0  0  0  0  0  0  0  0
  148.6056  131.4387  157.8316 H   0  0  0  0  0  0  0  0  0  0  0  0
  150.5582  130.7254  156.7583 H   0  0  0  0  0  0  0  0  0  0  0  0
  150.4950  133.7493  156.5822 H   0  0  0  0  0  0  0  0  0  0  0  0
  151.6737  132.8378  155.6741 H   0  0  0  0  0  0  0  0  0  0  0  0
  150.2132  130.4779  154.5569 H   0  0  0  0  0  0  0  0  0  0  0  0
  144.5550  131.9691  153.0687 H   0  0  0  0  0  0  0  0  0  0  0  0
  144.7919  130.5123  151.1137 H   0  0  0  0  0  0  0  0  0  0  0  0
  143.5044  131.6013  150.5851 H   0  0  0  0  0  0  0  0  0  0  0  0
  146.2903  131.4110  149.6094 H   0  0  0  0  0  0  0  0  0  0  0  0
  145.0288  132.4433  148.9385 H   0  0  0  0  0  0  0  0  0  0  0  0
  147.0519  133.6811  150.2031 H   0  0  0  0  0  0  0  0  0  0  0  0
  144.4375  134.4152  149.8729 H   0  0  0  0  0  0  0  0  0  0  0  0
  144.8158  136.4059  151.6150 H   0  0  0  0  0  0  0  0  0  0  0  0
  146.4766  135.8777  151.4627 H   0  0  0  0  0  0  0  0  0  0  0  0
  144.9306  137.2117  149.7022 H   0  0  0  0  0  0  0  0  0  0  0  0
  143.1123  133.7531  151.6562 H   0  0  0  0  0  0  0  0  0  0  0  0
  144.2368  134.4255  152.8320 H   0  0  0  0  0  0  0  0  0  0  0  0
  147.1491  136.1402  154.5741 H   0  0  0  0  0  0  0  0  0  0  0  0
  152.6648  130.7918  157.5634 H   0  0  0  0  0  0  0  0  0  0  0  0
  151.2472  132.0892  159.9137 H   0  0  0  0  0  0  0  0  0  0  0  0
  151.7644  130.4035  159.7814 H   0  0  0  0  0  0  0  0  0  0  0  0
  153.4107  132.2035  160.9630 H   0  0  0  0  0  0  0  0  0  0  0  0
  154.0913  131.0224  159.8411 H   0  0  0  0  0  0  0  0  0  0  0  0
  153.4710  132.9724  156.9696 H   0  0  0  0  0  0  0  0  0  0  0  0
  152.2727  133.7776  157.9839 H   0  0  0  0  0  0  0  0  0  0  0  0
  1  2  1  0  0  0  0
  1 28  1  0  0  0  0
  2  3  1  0  0  0  0
  2 29  1  0  0  0  0
  2 30  1  0  0  0  0
  3  4  1  0  0  0  0
  3 23  1  0  0  0  0
  3 31  1  0  0  0  0
  4  5  1  0  0  0  0
  4 32  1  0  0  0  0
  4 33  1  0  0  0  0
  5 22  1  0  0  0  0
  5  6  1  0  0  0  0
  6  7  2  0  0  0  0
  6 34  1  0  0  0  0
  7  8  1  0  0  0  0
  8 22  2  0  0  0  0
  8  9  1  0  0  0  0
  9 10  1  0  0  0  0
  9 19  2  0  0  0  0
 10 14  1  0  0  0  0
 10 11  1  0  0  0  0
 11 18  1  0  0  0  0
 11 12  1  0  0  0  0
 11 35  1  0  0  0  0
 12 13  1  0  0  0  0
 12 36  1  0  0  0  0
 12 37  1  0  0  0  0
 13 14  1  0  0  0  0
 13 38  1  0  0  0  0
 13 39  1  0  0  0  0
 14 15  1  0  0  0  0
 14 40  1  0  0  0  0
 15 16  1  0  0  0  0
 15 18  1  0  0  0  0
 15 41  1  0  0  0  0
 16 17  1  0  0  0  0
 16 42  1  0  0  0  0
 16 43  1  0  0  0  0
 17 44  1  0  0  0  0
 18 45  1  0  0  0  0
 18 46  1  0  0  0  0
 19 20  1  0  0  0  0
 20 21  2  0  0  0  0
 20 47  1  0  0  0  0
 21 22  1  0  0  0  0
 23 27  1  0  0  0  0
 23 24  1  0  0  0  0
 23 48  1  0  0  0  0
 24 25  1  0  0  0  0
 24 49  1  0  0  0  0
 24 50  1  0  0  0  0
 25 26  1  0  0  0  0
 25 51  1  0  0  0  0
 25 52  1  0  0  0  0
 26 27  1  0  0  0  0
 27 53  1  0  0  0  0
 27 54  1  0  0  0  0
M  END
> <s_m_source_file>
AV-unprocessed.smi

> <i_m_source_file_index>
227

> <i_lp_mmshare_version>
43012

> <i_f3d_flags>
0

> <s_epik_input>
W0NIMl0xT1tDSDJdW0NIMl1bQ0BIXTFbQ0BIXShbQ0gyXVtPSF0pW0NIMl1uKFtjSF1uMiljKGMyMyluW2NIXW5jM04oW0NASF00NSlbQ0BASF0oW0NIMl1bQ0gyXTQpW0NASF0oW0NIMl01KVtDSDJdW09IXQ==

> <s_epik_cmdline>
J2VwaWtfcHl0aG9uJywgJy1waCcsICc3LjAnLCAnLXRuJywgJzgnLCAnLW1hJywgJzIwMCcsICctbWV0YWxfYmluZGluZycsICctaW1hZScsICc8aW5maWxlLm1hZT4nLCAnLW9tYWUnLCAnPG91dGZpbGUubWFlPic=

> <r_lp_tautomer_probability>
1

> <r_epik_Ionization_Penalty>
0.0055791

> <r_epik_Ionization_Penalty_Charging>
0

> <r_epik_Ionization_Penalty_Neutral>
0.0055791

> <r_epik_State_Penalty>
0.00401299

> <r_epik_Charging_Adjusted_Penalty>
0.00401299

> <i_epik_Tot_Q>
0

> <i_epik_Tot_abs_Q>
0

> <r_epik_Metal_State_Penalty>
-0

> <b_epik_Metal_Only>
0

> <s_lp_Force_Field>
OPLS_2005

> <r_lp_Energy>
91.5057

> <b_lp_Chiralities_Consistent>
1

> <s_lp_Variant>
AV-unprocessed.smi:227-6

> <Gold.Version>
5.8.1

> <Gold.Id.Protein>
6NUR|6NUR_protein|mol2

> <Gold.PLP.Fitness>
42.9792

> <Gold.PLP.PLP>
-41.0071

> <Gold.PLP.part.hbond>
-3.0000

> <Gold.PLP.part.metal>
0.0000

> <Gold.PLP.part.buried>
-5.3642

> <Gold.PLP.part.nonpolar>
-33.8338

> <Gold.PLP.part.repulsive>
1.7297

> <Gold.PLP.ligand.clash>
0.0000

> <Gold.PLP.ligand.torsion>
2.1197

> <Gold.PLP.Chemscore.Hbond>
2.0039

> <Gold.PLP.Chemscore.CHOScore>
0.0000

> <Gold.PLP.Chemscore.Metal>
0.0000

> <Gold.Chemscore.Hbonds>
donor molecule, donor type, donor heavy atom, donor atom, acceptor molecule, acceptor atom, score
      L1  H    17    44       P1 10171  1.00
      P1  H  6896  6909       L1     1  1.00

> <Gold.PLP.Chemscore.Internal.Correction>
0.1997

> <Gold.Rescore>
     Score         DG    S(hbond)    S(metal)    S(lipo)     H(rot)  DE(clash)    DE(int)     intcor
      6.97     -12.54       1.88        0.00      85.63       3.61       1.85       3.71       ----

> <Gold.Chemscore.Fitness>
6.9731

> <Gold.Chemscore.DG>
-12.5362

> <Gold.Chemscore.ZeroCoef>
-5.4800

> <Gold.Chemscore.Hbond>
1.8778

> <Gold.Chemscore.Metal>
0.0000

> <Gold.Chemscore.Lipo>
85.6295

> <Gold.Chemscore.Internal_Hbond>
0.0000

> <Gold.Chemscore.DEClash>
1.8506

> <Gold.Chemscore.DEInternal>
3.7125

> <Gold.Chemscore.Rot>
3.6071

> <Gold.Chemscore.Internal.Correction>
   9.000000E+99

> <Gold.Chemscore.Hbonds>
donor molecule, donor type, donor heavy atom, donor atom, acceptor molecule, acceptor atom, score
      L1  H    17    44       P1 10171  1.00
      P1  H  6896  6909       L1     1  0.55

> <Gold.Chemscore.Hbond.Weighted>
-6.2717

> <Gold.Chemscore.Metal.Weighted>
-0.0000

> <Gold.Chemscore.Lipo.Weighted>
-10.0186

> <Gold.Chemscore.Internal_Hbond.Weighted>
0.0000

> <Gold.Chemscore.DEClash.Weighted>
1.8506

> <Gold.Chemscore.DEInternal.Weighted>
3.7125

> <Gold.Chemscore.Rot.Weighted>
9.2342

> <Gold.Chemscore.Internal.Correction.Weighted>
   9.000000E+99

> <Gold.Protein.RotatedTorsions>
[ 6907 6896 6895 6894 ] final   -2.69 input  -60.11 | X-H torsion
[ 7974 7965 7964 7962 ] final -135.49 input  175.53 | X-H torsion
[ 8008 7997 7996 7995 ] final    6.99 input   59.86 | X-H torsion
[ 10167 10162 10161 10158 ] final  -22.98 input  -65.29 | X-H torsion
[ 10718 10713 10712 10709 ] final  100.98 input   66.30 | X-H torsion
[ 10763 10752 10751 10750 ] final  146.28 input  -60.55 | X-H torsion
[ 11005 11000 10999 10996 ] final -134.39 input  -57.11 | X-H torsion

> <Gold.Protein.ActiveResidues>
 VAL166  LYS551  ARG553  GLY616  TRP617  ASP618  TYR619  PRO620  LYS621  CYS622 
 ASP623  PHE694  ASN695  SER759  ASP760  ASP761  ALA762  ILE779  LEU786  VAL792 
 PHE793  MET794  SER795  GLU796  ALA797  LYS798  CYS799  TRP800  GLU811  SER814 

> <Gold.Protein.RotatedAtoms>
  151.5259  135.1068  159.9890 H   0  0  0  0  0  0  0  0  0  0  0  0  # atno 6907 bound_to 6896
  152.4600  133.7798  159.6855 H   0  0  0  0  0  0  0  0  0  0  0  0  # atno 6908 bound_to 6896
  150.8558  133.7652  159.3034 H   0  0  0  0  0  0  0  0  0  0  0  0  # atno 6909 bound_to 6896
  144.9009  140.6770  143.5085 H   0  0  0  0  0  0  0  0  0  0  0  0  # atno 7974 bound_to 7965
  154.7481  140.2762  155.6315 H   0  0  0  0  0  0  0  0  0  0  0  0  # atno 8008 bound_to 7997
  156.2889  140.2684  156.2154 H   0  0  0  0  0  0  0  0  0  0  0  0  # atno 8009 bound_to 7997
  155.0172  140.0372  157.2412 H   0  0  0  0  0  0  0  0  0  0  0  0  # atno 8010 bound_to 7997
  140.7287  143.4485  151.0551 H   0  0  0  0  0  0  0  0  0  0  0  0  # atno 10167 bound_to 10162
  157.6841  131.0713  150.5183 H   0  0  0  0  0  0  0  0  0  0  0  0  # atno 10718 bound_to 10713
  154.0193  135.2907  155.3383 H   0  0  0  0  0  0  0  0  0  0  0  0  # atno 10763 bound_to 10752
  154.7056  135.5171  153.8593 H   0  0  0  0  0  0  0  0  0  0  0  0  # atno 10764 bound_to 10752
  153.0688  135.6640  154.0416 H   0  0  0  0  0  0  0  0  0  0  0  0  # atno 10765 bound_to 10752
  140.8995  134.1709  157.4471 H   0  0  0  0  0  0  0  0  0  0  0  0  # atno 11005 bound_to 11000
  145.3618  139.1680  143.4379 LP  0  0  0  0  0  0  0  0  0  0  0  0  # atno 17320 bound_to 7965
  146.3108  140.3681  142.8671 LP  0  0  0  0  0  0  0  0  0  0  0  0  # atno 17321 bound_to 7965
  139.8159  143.7886  152.3174 LP  0  0  0  0  0  0  0  0  0  0  0  0  # atno 17342 bound_to 10162
  139.7952  144.7395  150.9900 LP  0  0  0  0  0  0  0  0  0  0  0  0  # atno 17343 bound_to 10162
  156.5498  130.4228  149.6113 LP  0  0  0  0  0  0  0  0  0  0  0  0  # atno 17370 bound_to 10713
  156.2913  130.7125  151.1975 LP  0  0  0  0  0  0  0  0  0  0  0  0  # atno 17371 bound_to 10713
  139.8740  134.9892  156.5446 LP  0  0  0  0  0  0  0  0  0  0  0  0  # atno 17394 bound_to 11000
  140.8248  133.8325  155.8929 LP  0  0  0  0  0  0  0  0  0  0  0  0  # atno 17395 bound_to 11000

$$$$
