AV-unprocessed.smi:1816|AV-procd|sdf|7366|dock4
  -GOLD-   22720 9 33D 1   1.00000     0.00000
 Structure written by MMmdl.
 35 36  0  0  0  0  0  0  0  0  3 V2000
  151.0365  139.6699  157.6445 C   0  0  0  0  0  0  0  0  0  0  0  0
  152.1058  138.8663  158.4176 C   0  0  2  0  0  0  0  0  0  0  0  0
  151.5257  137.5056  158.8763 C   0  0  0  0  0  0  0  0  0  0  0  0
  150.2388  137.6478  159.5562 N   0  0  0  0  0  0  0  0  0  0  0  0
  149.3155  136.6928  159.7357 C   0  0  0  0  0  0  0  0  0  0  0  0
  149.4866  135.5701  159.2575 O   0  0  0  0  0  0  0  0  0  0  0  0
  148.2584  137.0949  160.4745 N   0  5  0  0  0  0  0  0  0  0  0  0
  147.6258  136.2191  161.2722 C   0  0  0  0  0  0  0  0  0  0  0  0
  148.0240  134.9503  161.4204 N   0  0  0  0  0  0  0  0  0  0  0  0
  147.2261  134.2180  162.3014 C   0  0  0  0  0  0  0  0  0  0  0  0
  146.1998  134.9477  162.8402 C   0  0  0  0  0  0  0  0  0  0  0  0
  146.2067  136.5874  162.2561 S   0  0  0  0  0  0  0  0  0  0  0  0
  152.6706  139.6305  159.5683 N   0  3  0  0  0  0  0  0  0  0  0  0
  153.9745  139.1407  160.0611 C   0  0  0  0  0  0  0  0  0  0  0  0
  154.4854  140.2474  160.9798 C   0  0  0  0  0  0  0  0  0  0  0  0
  153.9047  141.5363  160.3919 C   0  0  0  0  0  0  0  0  0  0  0  0
  152.8560  141.0847  159.3664 C   0  0  0  0  0  0  0  0  0  0  0  0
  150.5805  139.0593  156.8648 H   0  0  0  0  0  0  0  0  0  0  0  0
  151.4592  140.5437  157.1491 H   0  0  0  0  0  0  0  0  0  0  0  0
  150.2373  140.0140  158.3020 H   0  0  0  0  0  0  0  0  0  0  0  0
  152.9208  138.6666  157.7201 H   0  0  0  0  0  0  0  0  0  0  0  0
  151.3618  136.8720  158.0044 H   0  0  0  0  0  0  0  0  0  0  0  0
  152.2349  136.9601  159.4997 H   0  0  0  0  0  0  0  0  0  0  0  0
  150.0401  138.5524  159.9590 H   0  0  0  0  0  0  0  0  0  0  0  0
  147.4621  133.1807  162.4869 H   0  0  0  0  0  0  0  0  0  0  0  0
  145.4460  134.6242  163.5419 H   0  0  0  0  0  0  0  0  0  0  0  0
  153.9033  138.1843  160.5771 H   0  0  0  0  0  0  0  0  0  0  0  0
  154.6601  139.0160  159.2213 H   0  0  0  0  0  0  0  0  0  0  0  0
  154.0945  140.0956  161.9869 H   0  0  0  0  0  0  0  0  0  0  0  0
  155.5739  140.2653  161.0453 H   0  0  0  0  0  0  0  0  0  0  0  0
  153.4553  142.1472  161.1761 H   0  0  0  0  0  0  0  0  0  0  0  0
  154.6782  142.1358  159.9102 H   0  0  0  0  0  0  0  0  0  0  0  0
  153.2373  141.2701  158.3609 H   0  0  0  0  0  0  0  0  0  0  0  0
  151.9153  141.6250  159.4779 H   0  0  0  0  0  0  0  0  0  0  0  0
  152.0189  139.5338  160.3350 H   0  0  0  0  0  0  0  0  0  0  0  0
  1  2  1  0  0  0  0
  1 18  1  0  0  0  0
  1 19  1  0  0  0  0
  1 20  1  0  0  0  0
  2  3  1  0  0  0  0
  2 13  1  0  0  0  0
  2 21  1  0  0  0  0
  3  4  1  0  0  0  0
  3 22  1  0  0  0  0
  3 23  1  0  0  0  0
  4  5  1  0  0  0  0
  4 24  1  0  0  0  0
  5  6  2  0  0  0  0
  5  7  1  0  0  0  0
  7  8  1  0  0  0  0
  8 12  1  0  0  0  0
  8  9  2  0  0  0  0
  9 10  1  0  0  0  0
 10 11  2  0  0  0  0
 10 25  1  0  0  0  0
 11 12  1  0  0  0  0
 11 26  1  0  0  0  0
 13 17  1  0  0  0  0
 13 14  1  0  0  0  0
 13 35  1  0  0  0  0
 14 15  1  0  0  0  0
 14 27  1  0  0  0  0
 14 28  1  0  0  0  0
 15 16  1  0  0  0  0
 15 29  1  0  0  0  0
 15 30  1  0  0  0  0
 16 17  1  0  0  0  0
 16 31  1  0  0  0  0
 16 32  1  0  0  0  0
 17 33  1  0  0  0  0
 17 34  1  0  0  0  0
M  CHG  1   7  -1
M  CHG  1  13   1
M  END
> <s_m_source_file>
AV-unprocessed.smi

> <i_m_source_file_index>
1816

> <i_lp_mmshare_version>
43012

> <i_f3d_flags>
0

> <s_epik_input>
W0NIMl0xW0NIMl1bQ0gyXVtDSDJdTjFbQ0BIXShbQ0gzXSlbQ0gyXVtOSF1DKD1PKVtOSF1jMm5bY0hdW2NIXXMy

> <s_epik_cmdline>
J2VwaWtfcHl0aG9uJywgJy1waCcsICc3LjAnLCAnLXRuJywgJzgnLCAnLW1hJywgJzIwMCcsICctbWV0YWxfYmluZGluZycsICctaW1hZScsICc8aW5maWxlLm1hZT4nLCAnLW9tYWUnLCAnPG91dGZpbGUubWFlPic=

> <r_lp_tautomer_probability>
0.999

> <r_epik_Ionization_Penalty>
6.21769

> <r_epik_Ionization_Penalty_Charging>
5.38662

> <r_epik_Ionization_Penalty_Neutral>
0.831074

> <r_epik_State_Penalty>
5.38626

> <r_epik_Charging_Adjusted_Penalty>
10.7729

> <i_epik_Tot_Q>
0

> <i_epik_Tot_abs_Q>
2

> <r_epik_Metal_State_Penalty>
1.41347

> <b_epik_Metal_Only>
1

> <s_lp_Force_Field>
OPLS_2005

> <r_lp_Energy>
25.8125

> <b_lp_Chiralities_Consistent>
1

> <s_lp_Variant>
AV-unprocessed.smi:1816-3

> <Gold.Version>
5.8.1

> <Gold.Id.Protein>
6NUR|6NUR_protein|mol2

> <Gold.PLP.Fitness>
39.6118

> <Gold.PLP.PLP>
-29.8753

> <Gold.PLP.part.hbond>
-3.0000

> <Gold.PLP.part.metal>
0.0000

> <Gold.PLP.part.buried>
-4.5656

> <Gold.PLP.part.nonpolar>
-25.0351

> <Gold.PLP.part.repulsive>
1.6423

> <Gold.PLP.ligand.clash>
0.0000

> <Gold.PLP.ligand.torsion>
0.7932

> <Gold.PLP.Chemscore.Hbond>
3.7533

> <Gold.PLP.Chemscore.CHOScore>
0.0000

> <Gold.PLP.Chemscore.Metal>
0.0000

> <Gold.Chemscore.Hbonds>
donor molecule, donor type, donor heavy atom, donor atom, acceptor molecule, acceptor atom, score
      P1  H  6896  6907       L1     6  1.00
      P1  H  6931  6943       L1     7  1.49
      P1  H  6934  6947       L1     7  0.62

> <Gold.PLP.Chemscore.Internal.Correction>
0.0631

> <Gold.Rescore>
     Score         DG    S(hbond)    S(metal)    S(lipo)     H(rot)  DE(clash)    DE(int)     intcor
     11.48     -14.07       1.29        0.00      70.96       1.57       0.31       2.28       ----

> <Gold.Chemscore.Fitness>
11.4795

> <Gold.Chemscore.DG>
-14.0725

> <Gold.Chemscore.ZeroCoef>
-5.4800

> <Gold.Chemscore.Hbond>
1.2910

> <Gold.Chemscore.Metal>
0.0000

> <Gold.Chemscore.Lipo>
70.9621

> <Gold.Chemscore.Internal_Hbond>
0.0000

> <Gold.Chemscore.DEClash>
0.3133

> <Gold.Chemscore.DEInternal>
2.2797

> <Gold.Chemscore.Rot>
1.5710

> <Gold.Chemscore.Internal.Correction>
   9.000000E+99

> <Gold.Chemscore.Hbonds>
donor molecule, donor type, donor heavy atom, donor atom, acceptor molecule, acceptor atom, score
      P1  H  6896  6907       L1     6  0.97
      P1  H  6931  6943       L1     7  0.07
      P1  H  6934  6947       L1     7  0.12

> <Gold.Chemscore.Hbond.Weighted>
-4.3118

> <Gold.Chemscore.Metal.Weighted>
-0.0000

> <Gold.Chemscore.Lipo.Weighted>
-8.3026

> <Gold.Chemscore.Internal_Hbond.Weighted>
0.0000

> <Gold.Chemscore.DEClash.Weighted>
0.3133

> <Gold.Chemscore.DEInternal.Weighted>
2.2797

> <Gold.Chemscore.Rot.Weighted>
4.0219

> <Gold.Chemscore.Internal.Correction.Weighted>
   9.000000E+99

> <Gold.Protein.RotatedTorsions>
[ 6907 6896 6895 6894 ] final  -70.05 input  -60.11 | X-H torsion
[ 7974 7965 7964 7962 ] final  154.02 input  175.53 | X-H torsion
[ 8008 7997 7996 7995 ] final   67.37 input   59.86 | X-H torsion
[ 10167 10162 10161 10158 ] final  -48.63 input  -65.29 | X-H torsion
[ 10718 10713 10712 10709 ] final -172.06 input   66.30 | X-H torsion
[ 10763 10752 10751 10750 ] final  -22.56 input  -60.55 | X-H torsion
[ 11005 11000 10999 10996 ] final   64.08 input  -57.11 | X-H torsion

> <Gold.Protein.ActiveResidues>
 VAL166  LYS551  ARG553  GLY616  TRP617  ASP618  TYR619  PRO620  LYS621  CYS622 
 ASP623  PHE694  ASN695  SER759  ASP760  ASP761  ALA762  ILE779  LEU786  VAL792 
 PHE793  MET794  SER795  GLU796  ALA797  LYS798  CYS799  TRP800  GLU811  SER814 

> <Gold.Protein.RotatedAtoms>
  150.7276  134.5508  159.5793 H   0  0  0  0  0  0  0  0  0  0  0  0  # atno 6907 bound_to 6896
  152.2996  134.7624  160.0369 H   0  0  0  0  0  0  0  0  0  0  0  0  # atno 6908 bound_to 6896
  151.8209  133.3359  159.3620 H   0  0  0  0  0  0  0  0  0  0  0  0  # atno 6909 bound_to 6896
  144.8116  139.6878  143.6139 H   0  0  0  0  0  0  0  0  0  0  0  0  # atno 7974 bound_to 7965
  155.6919  140.3496  155.4897 H   0  0  0  0  0  0  0  0  0  0  0  0  # atno 8008 bound_to 7997
  155.9517  140.1120  157.0994 H   0  0  0  0  0  0  0  0  0  0  0  0  # atno 8009 bound_to 7997
  154.4123  140.1193  156.5047 H   0  0  0  0  0  0  0  0  0  0  0  0  # atno 8010 bound_to 7997
  140.6722  143.2731  151.4099 H   0  0  0  0  0  0  0  0  0  0  0  0  # atno 10167 bound_to 10162
  156.7500  130.9374  151.3114 H   0  0  0  0  0  0  0  0  0  0  0  0  # atno 10718 bound_to 10713
  153.6538  135.6979  153.5200 H   0  0  0  0  0  0  0  0  0  0  0  0  # atno 10763 bound_to 10752
  153.2685  135.4222  155.0964 H   0  0  0  0  0  0  0  0  0  0  0  0  # atno 10764 bound_to 10752
  154.8469  135.3572  154.6083 H   0  0  0  0  0  0  0  0  0  0  0  0  # atno 10765 bound_to 10752
  139.9982  134.6484  155.9974 H   0  0  0  0  0  0  0  0  0  0  0  0  # atno 11005 bound_to 11000
  146.2415  139.6011  142.9488 LP  0  0  0  0  0  0  0  0  0  0  0  0  # atno 17320 bound_to 7965
  145.5311  141.0427  143.2382 LP  0  0  0  0  0  0  0  0  0  0  0  0  # atno 17321 bound_to 7965
  139.5996  144.1324  152.2183 LP  0  0  0  0  0  0  0  0  0  0  0  0  # atno 17342 bound_to 10162
  140.0704  144.5784  150.7196 LP  0  0  0  0  0  0  0  0  0  0  0  0  # atno 17343 bound_to 10162
  157.6781  130.9114  150.0200 LP  0  0  0  0  0  0  0  0  0  0  0  0  # atno 17370 bound_to 10713
  156.1408  130.3642  149.9586 LP  0  0  0  0  0  0  0  0  0  0  0  0  # atno 17371 bound_to 10713
  141.1621  133.6538  156.4355 LP  0  0  0  0  0  0  0  0  0  0  0  0  # atno 17394 bound_to 11000
  140.4778  134.6693  157.5157 LP  0  0  0  0  0  0  0  0  0  0  0  0  # atno 17395 bound_to 11000

$$$$
