AV-unprocessed.smi:1782|AV-procd|sdf|7190|dock5
  -GOLD-   22720 8433D 1   1.00000     0.00000
 Structure written by MMmdl.
 42 44  0  0  0  0  0  0  0  0  2 V2000
  151.3563  138.3165  158.5117 O   0  0  0  0  0  0  0  0  0  0  0  0
  151.9861  139.2596  158.0351 C   0  0  0  0  0  0  0  0  0  0  0  0
  153.2516  139.7551  158.7576 C   0  0  0  0  0  0  0  0  0  0  0  0
  153.0759  140.9815  159.5585 N   0  0  0  0  0  0  0  0  0  0  0  0
  153.4819  140.9237  160.9037 C   0  0  0  0  0  0  0  0  0  0  0  0
  153.3647  141.9779  161.7221 C   0  0  0  0  0  0  0  0  0  0  0  0
  152.8040  143.1957  161.1898 C   0  0  0  0  0  0  0  0  0  0  0  0
  152.4003  143.2809  159.9011 C   0  0  0  0  0  0  0  0  0  0  0  0
  151.7989  144.5601  159.3231 C   0  0  0  0  0  0  0  0  0  0  0  0
  152.3844  144.8734  158.1668 F   0  0  0  0  0  0  0  0  0  0  0  0
  150.4933  144.4029  159.1007 F   0  0  0  0  0  0  0  0  0  0  0  0
  151.9492  145.5954  160.1506 F   0  0  0  0  0  0  0  0  0  0  0  0
  152.5333  142.1121  159.0077 C   0  0  0  0  0  0  0  0  0  0  0  0
  152.1682  142.1359  157.8312 O   0  0  0  0  0  0  0  0  0  0  0  0
  151.6154  139.8771  156.9008 N   0  0  0  0  0  0  0  0  0  0  0  0
  150.4641  139.5119  156.0850 C   0  0  2  0  0  0  0  0  0  0  0  0
  150.7017  138.3393  155.1381 C   0  0  0  0  0  0  0  0  0  0  0  0
  149.5941  138.5261  154.0957 C   0  0  0  0  0  0  0  0  0  0  0  0
  149.3040  139.9807  154.0388 N   0  3  1  0  0  0  0  0  0  0  0  0
  147.8600  140.2993  154.0729 C   0  0  0  0  0  0  0  0  0  0  0  0
  147.3071  140.7459  152.7405 C   0  0  0  0  0  0  0  0  0  0  0  0
  147.5603  141.7603  153.8349 C   0  0  0  0  0  0  0  0  0  0  0  0
  150.0793  140.6310  155.1183 C   0  0  0  0  0  0  0  0  0  0  0  0
  153.6163  138.9430  159.3881 H   0  0  0  0  0  0  0  0  0  0  0  0
  154.0369  139.9023  158.0140 H   0  0  0  0  0  0  0  0  0  0  0  0
  153.8867  139.9747  161.2246 H   0  0  0  0  0  0  0  0  0  0  0  0
  153.6798  141.9169  162.7536 H   0  0  0  0  0  0  0  0  0  0  0  0
  152.7094  144.0468  161.8477 H   0  0  0  0  0  0  0  0  0  0  0  0
  152.1819  140.6475  156.5767 H   0  0  0  0  0  0  0  0  0  0  0  0
  149.6117  139.2922  156.7313 H   0  0  0  0  0  0  0  0  0  0  0  0
  151.6804  138.4271  154.6633 H   0  0  0  0  0  0  0  0  0  0  0  0
  150.6533  137.3704  155.6361 H   0  0  0  0  0  0  0  0  0  0  0  0
  149.8841  138.1453  153.1162 H   0  0  0  0  0  0  0  0  0  0  0  0
  148.7045  137.9778  154.4110 H   0  0  0  0  0  0  0  0  0  0  0  0
  147.2489  139.7132  154.7576 H   0  0  0  0  0  0  0  0  0  0  0  0
  147.9764  140.7539  151.8818 H   0  0  0  0  0  0  0  0  0  0  0  0
  146.2701  140.5009  152.5194 H   0  0  0  0  0  0  0  0  0  0  0  0
  146.6904  142.1824  154.3344 H   0  0  0  0  0  0  0  0  0  0  0  0
  148.3977  142.4435  153.7034 H   0  0  0  0  0  0  0  0  0  0  0  0
  149.5305  141.4358  155.6101 H   0  0  0  0  0  0  0  0  0  0  0  0
  150.9720  141.0698  154.6696 H   0  0  0  0  0  0  0  0  0  0  0  0
  149.6655  140.3327  153.1639 H   0  0  0  0  0  0  0  0  0  0  0  0
  1  2  2  0  0  0  0
  2  3  1  0  0  0  0
  2 15  1  0  0  0  0
  3  4  1  0  0  0  0
  3 24  1  0  0  0  0
  3 25  1  0  0  0  0
  4 13  1  0  0  0  0
  4  5  1  0  0  0  0
  5  6  2  0  0  0  0
  5 26  1  0  0  0  0
  6  7  1  0  0  0  0
  6 27  1  0  0  0  0
  7  8  2  0  0  0  0
  7 28  1  0  0  0  0
  8  9  1  0  0  0  0
  8 13  1  0  0  0  0
  9 10  1  0  0  0  0
  9 11  1  0  0  0  0
  9 12  1  0  0  0  0
 13 14  2  0  0  0  0
 15 16  1  0  0  0  0
 15 29  1  0  0  0  0
 16 23  1  0  0  0  0
 16 17  1  0  0  0  0
 16 30  1  0  0  0  0
 17 18  1  0  0  0  0
 17 31  1  0  0  0  0
 17 32  1  0  0  0  0
 18 19  1  0  0  0  0
 18 33  1  0  0  0  0
 18 34  1  0  0  0  0
 19 20  1  0  0  0  0
 19 23  1  0  0  0  0
 19 42  1  0  0  0  0
 20 22  1  0  0  0  0
 20 21  1  0  0  0  0
 20 35  1  0  0  0  0
 21 22  1  0  0  0  0
 21 36  1  0  0  0  0
 21 37  1  0  0  0  0
 22 38  1  0  0  0  0
 22 39  1  0  0  0  0
 23 40  1  0  0  0  0
 23 41  1  0  0  0  0
M  CHG  1  19   1
M  END
> <s_m_source_file>
AV-unprocessed.smi

> <i_m_source_file_index>
1782

> <i_lp_mmshare_version>
43012

> <i_f3d_flags>
0

> <s_epik_input>
W0NIMl0xW0NIMl1bQ0hdMU4oW0NIMl0yKVtDSDJdW0NIMl1bQ0BIXTJbTkhdQyg9TylbQ0gyXW4zW2NIXVtjSF1bY0hdYyhDKEYpKEYpRiljMz1P

> <s_epik_cmdline>
J2VwaWtfcHl0aG9uJywgJy1waCcsICc3LjAnLCAnLXRuJywgJzgnLCAnLW1hJywgJzIwMCcsICctbWV0YWxfYmluZGluZycsICctaW1hZScsICc8aW5maWxlLm1hZT4nLCAnLW9tYWUnLCAnPG91dGZpbGUubWFlPic=

> <r_lp_tautomer_probability>
1

> <r_epik_Ionization_Penalty>
0.00106789

> <r_epik_Ionization_Penalty_Charging>
0.00106781

> <r_epik_Ionization_Penalty_Neutral>
8.2288e-08

> <r_epik_State_Penalty>
0.000699156

> <r_epik_Charging_Adjusted_Penalty>
0.00176697

> <i_epik_Tot_Q>
1

> <i_epik_Tot_abs_Q>
1

> <r_epik_Metal_State_Penalty>
-0

> <b_epik_Metal_Only>
0

> <s_lp_Force_Field>
OPLS_2005

> <r_lp_Energy>
47.5501

> <b_lp_Chiralities_Consistent>
1

> <s_lp_Variant>
AV-unprocessed.smi:1782-3

> <Gold.Version>
5.8.1

> <Gold.Id.Protein>
6NUR|6NUR_protein|mol2

> <Gold.PLP.Fitness>
52.4903

> <Gold.PLP.PLP>
-52.2825

> <Gold.PLP.part.hbond>
-1.0000

> <Gold.PLP.part.metal>
0.0000

> <Gold.PLP.part.buried>
-3.3052

> <Gold.PLP.part.nonpolar>
-47.0669

> <Gold.PLP.part.repulsive>
0.2559

> <Gold.PLP.ligand.clash>
0.0000

> <Gold.PLP.ligand.torsion>
1.5893

> <Gold.PLP.Chemscore.Hbond>
0.5967

> <Gold.PLP.Chemscore.CHOScore>
0.0000

> <Gold.PLP.Chemscore.Metal>
0.0000

> <Gold.Chemscore.Hbonds>
donor molecule, donor type, donor heavy atom, donor atom, acceptor molecule, acceptor atom, score
      L1  H    19    42       P1  7957  0.86

> <Gold.PLP.Chemscore.Internal.Correction>
1.5963

> <Gold.Rescore>
     Score         DG    S(hbond)    S(metal)    S(lipo)     H(rot)  DE(clash)    DE(int)     intcor
     11.15     -15.83       0.69        0.00     108.45       1.81       0.34       4.33       ----

> <Gold.Chemscore.Fitness>
11.1550

> <Gold.Chemscore.DG>
-15.8297

> <Gold.Chemscore.ZeroCoef>
-5.4800

> <Gold.Chemscore.Hbond>
0.6870

> <Gold.Chemscore.Metal>
0.0000

> <Gold.Chemscore.Lipo>
108.4535

> <Gold.Chemscore.Internal_Hbond>
0.0000

> <Gold.Chemscore.DEClash>
0.3449

> <Gold.Chemscore.DEInternal>
4.3299

> <Gold.Chemscore.Rot>
1.8101

> <Gold.Chemscore.Internal.Correction>
   9.000000E+99

> <Gold.Chemscore.Hbonds>
donor molecule, donor type, donor heavy atom, donor atom, acceptor molecule, acceptor atom, score
      L1  H    19    42       P1  7957  0.79

> <Gold.Chemscore.Hbond.Weighted>
-2.2945

> <Gold.Chemscore.Metal.Weighted>
-0.0000

> <Gold.Chemscore.Lipo.Weighted>
-12.6891

> <Gold.Chemscore.Internal_Hbond.Weighted>
0.0000

> <Gold.Chemscore.DEClash.Weighted>
0.3449

> <Gold.Chemscore.DEInternal.Weighted>
4.3299

> <Gold.Chemscore.Rot.Weighted>
4.6338

> <Gold.Chemscore.Internal.Correction.Weighted>
   9.000000E+99

> <Gold.Protein.RotatedTorsions>
[ 6907 6896 6895 6894 ] final  -33.95 input  -60.11 | X-H torsion
[ 7974 7965 7964 7962 ] final  -87.39 input  175.53 | X-H torsion
[ 8008 7997 7996 7995 ] final  118.01 input   59.86 | X-H torsion
[ 10167 10162 10161 10158 ] final  -99.05 input  -65.29 | X-H torsion
[ 10718 10713 10712 10709 ] final   75.29 input   66.30 | X-H torsion
[ 10763 10752 10751 10750 ] final   72.35 input  -60.55 | X-H torsion
[ 11005 11000 10999 10996 ] final   88.34 input  -57.11 | X-H torsion

> <Gold.Protein.ActiveResidues>
 VAL166  LYS551  ARG553  GLY616  TRP617  ASP618  TYR619  PRO620  LYS621  CYS622 
 ASP623  PHE694  ASN695  SER759  ASP760  ASP761  ALA762  ILE779  LEU786  VAL792 
 PHE793  MET794  SER795  GLU796  ALA797  LYS798  CYS799  TRP800  GLU811  SER814 

> <Gold.Protein.RotatedAtoms>
  151.0590  134.9723  159.8250 H   0  0  0  0  0  0  0  0  0  0  0  0  # atno 6907 bound_to 6896
  152.5392  134.2442  159.8884 H   0  0  0  0  0  0  0  0  0  0  0  0  # atno 6908 bound_to 6896
  151.2461  133.4331  159.2643 H   0  0  0  0  0  0  0  0  0  0  0  0  # atno 6909 bound_to 6896
  145.4671  140.9560  143.1937 H   0  0  0  0  0  0  0  0  0  0  0  0  # atno 7974 bound_to 7965
  156.2524  140.2884  156.0768 H   0  0  0  0  0  0  0  0  0  0  0  0  # atno 8008 bound_to 7997
  155.1610  140.0399  157.2860 H   0  0  0  0  0  0  0  0  0  0  0  0  # atno 8009 bound_to 7997
  154.6392  140.2518  155.7348 H   0  0  0  0  0  0  0  0  0  0  0  0  # atno 8010 bound_to 7997
  140.2665  143.3372  152.0576 H   0  0  0  0  0  0  0  0  0  0  0  0  # atno 10167 bound_to 10162
  157.6628  130.9719  150.1332 H   0  0  0  0  0  0  0  0  0  0  0  0  # atno 10718 bound_to 10713
  153.0453  135.5103  154.7730 H   0  0  0  0  0  0  0  0  0  0  0  0  # atno 10763 bound_to 10752
  154.6635  135.2942  154.9838 H   0  0  0  0  0  0  0  0  0  0  0  0  # atno 10764 bound_to 10752
  154.0681  135.6681  153.4873 H   0  0  0  0  0  0  0  0  0  0  0  0  # atno 10765 bound_to 10752
  139.8899  134.8481  156.2986 H   0  0  0  0  0  0  0  0  0  0  0  0  # atno 11005 bound_to 11000
  144.7967  139.6220  143.7089 LP  0  0  0  0  0  0  0  0  0  0  0  0  # atno 17320 bound_to 7965
  146.2418  139.6016  142.9486 LP  0  0  0  0  0  0  0  0  0  0  0  0  # atno 17321 bound_to 7965
  139.5001  144.6684  151.6300 LP  0  0  0  0  0  0  0  0  0  0  0  0  # atno 17342 bound_to 10162
  140.5924  143.9756  150.6333 LP  0  0  0  0  0  0  0  0  0  0  0  0  # atno 17343 bound_to 10162
  156.2173  130.3671  149.8598 LP  0  0  0  0  0  0  0  0  0  0  0  0  # atno 17370 bound_to 10713
  156.6460  130.8724  151.3523 LP  0  0  0  0  0  0  0  0  0  0  0  0  # atno 17371 bound_to 10713
  140.9928  133.7198  156.0840 LP  0  0  0  0  0  0  0  0  0  0  0  0  # atno 17394 bound_to 11000
  140.7602  134.3948  157.5527 LP  0  0  0  0  0  0  0  0  0  0  0  0  # atno 17395 bound_to 11000

$$$$
