AV-unprocessed.smi:2623|AV-procd|sdf|10232|dock6
  -GOLD-   2272014243D 1   1.00000     0.00000
 Structure written by MMmdl.
 41 43  0  0  0  0  0  0  0  0  2 V2000
  147.1137  138.4017  151.1781 O   0  0  0  0  0  0  0  0  0  0  0  0
  146.2126  137.9124  152.1492 C   0  0  0  0  0  0  0  0  0  0  0  0
  145.7546  136.5144  151.8778 C   0  0  0  0  0  0  0  0  0  0  0  0
  146.5453  135.4562  151.5379 N   0  3  0  0  0  0  0  0  0  0  0  0
  145.7616  134.3158  151.3586 C   0  0  0  0  0  0  0  0  0  0  0  0
  146.1101  133.0142  151.0117 C   0  0  0  0  0  0  0  0  0  0  0  0
  145.0557  132.0827  150.9106 C   0  0  0  0  0  0  0  0  0  0  0  0
  143.7179  132.4588  151.1503 C   0  0  0  0  0  0  0  0  0  0  0  0
  143.3770  133.7816  151.5016 C   0  0  0  0  0  0  0  0  0  0  0  0
  144.4255  134.6956  151.6000 C   0  0  0  0  0  0  0  0  0  0  0  0
  144.4697  136.0571  151.9193 N   0  0  0  0  0  0  0  0  0  0  0  0
  143.2151  136.7615  152.2277 C   0  0  0  0  0  0  0  0  0  0  0  0
  142.9351  136.8609  153.7411 C   0  0  1  0  0  0  0  0  0  0  0  0
  143.3976  138.1121  154.2105 O   0  0  0  0  0  0  0  0  0  0  0  0
  141.4354  136.7399  154.0552 C   0  0  0  0  0  0  0  0  0  0  0  0
  140.7830  137.9348  153.6461 O   0  0  0  0  0  0  0  0  0  0  0  0
  139.4336  138.0620  153.8978 C   0  0  0  0  0  0  0  0  0  0  0  0
  138.8296  139.2865  153.5438 C   0  0  0  0  0  0  0  0  0  0  0  0
  137.4560  139.5043  153.7651 C   0  0  0  0  0  0  0  0  0  0  0  0
  136.6687  138.4936  154.3463 C   0  0  0  0  0  0  0  0  0  0  0  0
  137.2578  137.2670  154.7055 C   0  0  0  0  0  0  0  0  0  0  0  0
  138.6318  137.0492  154.4834 C   0  0  0  0  0  0  0  0  0  0  0  0
  147.6587  139.0612  151.5805 H   0  0  0  0  0  0  0  0  0  0  0  0
  146.6952  137.9512  153.1261 H   0  0  0  0  0  0  0  0  0  0  0  0
  145.3436  138.5697  152.1897 H   0  0  0  0  0  0  0  0  0  0  0  0
  147.1341  132.7244  150.8271 H   0  0  0  0  0  0  0  0  0  0  0  0
  145.2775  131.0595  150.6437 H   0  0  0  0  0  0  0  0  0  0  0  0
  142.9367  131.7174  151.0631 H   0  0  0  0  0  0  0  0  0  0  0  0
  142.3493  134.0596  151.6839 H   0  0  0  0  0  0  0  0  0  0  0  0
  143.2751  137.7576  151.7874 H   0  0  0  0  0  0  0  0  0  0  0  0
  142.4007  136.2496  151.7133 H   0  0  0  0  0  0  0  0  0  0  0  0
  143.4790  136.0704  154.2594 H   0  0  0  0  0  0  0  0  0  0  0  0
  143.3713  138.7289  153.4952 H   0  0  0  0  0  0  0  0  0  0  0  0
  141.0073  135.8593  153.5728 H   0  0  0  0  0  0  0  0  0  0  0  0
  141.3019  136.6285  155.1326 H   0  0  0  0  0  0  0  0  0  0  0  0
  139.4263  140.0680  153.0965 H   0  0  0  0  0  0  0  0  0  0  0  0
  137.0072  140.4471  153.4887 H   0  0  0  0  0  0  0  0  0  0  0  0
  135.6149  138.6588  154.5165 H   0  0  0  0  0  0  0  0  0  0  0  0
  136.6551  136.4903  155.1524 H   0  0  0  0  0  0  0  0  0  0  0  0
  139.0462  136.0954  154.7722 H   0  0  0  0  0  0  0  0  0  0  0  0
  147.5504  135.5180  151.4378 H   0  0  0  0  0  0  0  0  0  0  0  0
  1  2  1  0  0  0  0
  1 23  1  0  0  0  0
  2  3  1  0  0  0  0
  2 24  1  0  0  0  0
  2 25  1  0  0  0  0
  3 11  1  0  0  0  0
  3  4  2  0  0  0  0
  4  5  1  0  0  0  0
  4 41  1  0  0  0  0
  5 10  2  0  0  0  0
  5  6  1  0  0  0  0
  6  7  2  0  0  0  0
  6 26  1  0  0  0  0
  7  8  1  0  0  0  0
  7 27  1  0  0  0  0
  8  9  2  0  0  0  0
  8 28  1  0  0  0  0
  9 10  1  0  0  0  0
  9 29  1  0  0  0  0
 10 11  1  0  0  0  0
 11 12  1  0  0  0  0
 12 13  1  0  0  0  0
 12 30  1  0  0  0  0
 12 31  1  0  0  0  0
 13 14  1  0  0  0  0
 13 15  1  0  0  0  0
 13 32  1  0  0  0  0
 14 33  1  0  0  0  0
 15 16  1  0  0  0  0
 15 34  1  0  0  0  0
 15 35  1  0  0  0  0
 16 17  1  0  0  0  0
 17 22  1  0  0  0  0
 17 18  2  0  0  0  0
 18 19  1  0  0  0  0
 18 36  1  0  0  0  0
 19 20  2  0  0  0  0
 19 37  1  0  0  0  0
 20 21  1  0  0  0  0
 20 38  1  0  0  0  0
 21 22  2  0  0  0  0
 21 39  1  0  0  0  0
 22 40  1  0  0  0  0
M  CHG  1   4   1
M  END
> <s_m_source_file>
AV-unprocessed.smi

> <i_m_source_file_index>
2623

> <i_lp_mmshare_version>
43012

> <i_f3d_flags>
0

> <s_epik_input>
W2NIXTFbY0hdW2NIXVtjSF1jKGMxMiluKGMobjIpW0NIMl1bT0hdKVtDSDJdW0NASF0oW09IXSlbQ0gyXU9jM1tjSF1bY0hdW2NIXVtjSF1bY0hdMw==

> <s_epik_cmdline>
J2VwaWtfcHl0aG9uJywgJy1waCcsICc3LjAnLCAnLXRuJywgJzgnLCAnLW1hJywgJzIwMCcsICctbWV0YWxfYmluZGluZycsICctaW1hZScsICc8aW5maWxlLm1hZT4nLCAnLW9tYWUnLCAnPG91dGZpbGUubWFlPic=

> <r_lp_tautomer_probability>
1

> <r_epik_Ionization_Penalty>
1.40416

> <r_epik_Ionization_Penalty_Charging>
1.4033

> <r_epik_Ionization_Penalty_Neutral>
0.000858184

> <r_epik_State_Penalty>
1.48564

> <r_epik_Charging_Adjusted_Penalty>
2.88894

> <i_epik_Tot_Q>
1

> <i_epik_Tot_abs_Q>
1

> <r_epik_Metal_State_Penalty>
5.52809

> <b_epik_Metal_Only>
0

> <s_lp_Force_Field>
OPLS_2005

> <r_lp_Energy>
19.2357

> <b_lp_Chiralities_Consistent>
1

> <s_lp_Variant>
AV-unprocessed.smi:2623-4

> <Gold.Version>
5.8.1

> <Gold.Id.Protein>
6NUR|6NUR_protein|mol2

> <Gold.PLP.Fitness>
54.3700

> <Gold.PLP.PLP>
-43.1590

> <Gold.PLP.part.hbond>
-4.9505

> <Gold.PLP.part.metal>
0.0000

> <Gold.PLP.part.buried>
-4.4901

> <Gold.PLP.part.nonpolar>
-33.9163

> <Gold.PLP.part.repulsive>
0.2418

> <Gold.PLP.ligand.clash>
0.0000

> <Gold.PLP.ligand.torsion>
1.0581

> <Gold.PLP.Chemscore.Hbond>
4.4329

> <Gold.PLP.Chemscore.CHOScore>
0.0000

> <Gold.PLP.Chemscore.Metal>
0.0000

> <Gold.Chemscore.Hbonds>
donor molecule, donor type, donor heavy atom, donor atom, acceptor molecule, acceptor atom, score
      L1  H     1    23       P1  7957  0.46
      L1  H     4    41       P1  7948  2.00
      L1  H    14    33       P1 10175  1.00
      P1  H  7954  7966       L1     1  1.00

> <Gold.PLP.Chemscore.Internal.Correction>
0.0286

> <Gold.Rescore>
     Score         DG    S(hbond)    S(metal)    S(lipo)     H(rot)  DE(clash)    DE(int)     intcor
     17.78     -19.15       2.98        0.00     100.16       3.13       0.08       1.28       ----

> <Gold.Chemscore.Fitness>
17.7835

> <Gold.Chemscore.DG>
-19.1466

> <Gold.Chemscore.ZeroCoef>
-5.4800

> <Gold.Chemscore.Hbond>
2.9828

> <Gold.Chemscore.Metal>
0.0000

> <Gold.Chemscore.Lipo>
100.1557

> <Gold.Chemscore.Internal_Hbond>
0.0000

> <Gold.Chemscore.DEClash>
0.0791

> <Gold.Chemscore.DEInternal>
1.2841

> <Gold.Chemscore.Rot>
3.1305

> <Gold.Chemscore.Internal.Correction>
   9.000000E+99

> <Gold.Chemscore.Hbonds>
donor molecule, donor type, donor heavy atom, donor atom, acceptor molecule, acceptor atom, score
      L1  H     1    23       P1  7957  0.42
      L1  H     4    41       P1  7948  0.82
      L1  H    14    33       P1 10175  0.95
      P1  H  7954  7966       L1     1  0.25

> <Gold.Chemscore.Hbond.Weighted>
-9.9625

> <Gold.Chemscore.Metal.Weighted>
-0.0000

> <Gold.Chemscore.Lipo.Weighted>
-11.7182

> <Gold.Chemscore.Internal_Hbond.Weighted>
0.0000

> <Gold.Chemscore.DEClash.Weighted>
0.0791

> <Gold.Chemscore.DEInternal.Weighted>
1.2841

> <Gold.Chemscore.Rot.Weighted>
8.0141

> <Gold.Chemscore.Internal.Correction.Weighted>
   9.000000E+99

> <Gold.Protein.RotatedTorsions>
[ 6907 6896 6895 6894 ] final -113.87 input  -60.11 | X-H torsion
[ 7974 7965 7964 7962 ] final    1.38 input  175.53 | X-H torsion
[ 8008 7997 7996 7995 ] final  -86.50 input   59.86 | X-H torsion
[ 10167 10162 10161 10158 ] final -162.41 input  -65.29 | X-H torsion
[ 10718 10713 10712 10709 ] final  167.39 input   66.30 | X-H torsion
[ 10763 10752 10751 10750 ] final  -14.85 input  -60.55 | X-H torsion
[ 11005 11000 10999 10996 ] final -151.57 input  -57.11 | X-H torsion

> <Gold.Protein.ActiveResidues>
 VAL166  LYS551  ARG553  GLY616  TRP617  ASP618  TYR619  PRO620  LYS621  CYS622 
 ASP623  PHE694  ASN695  SER759  ASP760  ASP761  ALA762  ILE779  LEU786  VAL792 
 PHE793  MET794  SER795  GLU796  ALA797  LYS798  CYS799  TRP800  GLU811  SER814 

> <Gold.Protein.RotatedAtoms>
  150.7860  133.8883  159.3305 H   0  0  0  0  0  0  0  0  0  0  0  0  # atno 6907 bound_to 6896
  151.6733  135.0971  160.0211 H   0  0  0  0  0  0  0  0  0  0  0  0  # atno 6908 bound_to 6896
  152.3924  133.6659  159.6284 H   0  0  0  0  0  0  0  0  0  0  0  0  # atno 6909 bound_to 6896
  146.2440  140.0995  142.8348 H   0  0  0  0  0  0  0  0  0  0  0  0  # atno 7974 bound_to 7965
  154.6526  140.0577  156.9973 H   0  0  0  0  0  0  0  0  0  0  0  0  # atno 8008 bound_to 7997
  155.1348  140.3260  155.4447 H   0  0  0  0  0  0  0  0  0  0  0  0  # atno 8009 bound_to 7997
  156.2583  140.1974  156.6466 H   0  0  0  0  0  0  0  0  0  0  0  0  # atno 8010 bound_to 7997
  139.6394  144.0288  152.2080 H   0  0  0  0  0  0  0  0  0  0  0  0  # atno 10167 bound_to 10162
  157.0522  131.0316  151.2677 H   0  0  0  0  0  0  0  0  0  0  0  0  # atno 10718 bound_to 10713
  153.5345  135.7014  153.5667 H   0  0  0  0  0  0  0  0  0  0  0  0  # atno 10763 bound_to 10752
  153.3660  135.3957  155.1753 H   0  0  0  0  0  0  0  0  0  0  0  0  # atno 10764 bound_to 10752
  154.8681  135.3800  154.4845 H   0  0  0  0  0  0  0  0  0  0  0  0  # atno 10765 bound_to 10752
  140.7282  134.3651  157.5171 H   0  0  0  0  0  0  0  0  0  0  0  0  # atno 11005 bound_to 11000
  145.0580  140.9067  143.4955 LP  0  0  0  0  0  0  0  0  0  0  0  0  # atno 17320 bound_to 7965
  145.1105  139.2760  143.5639 LP  0  0  0  0  0  0  0  0  0  0  0  0  # atno 17321 bound_to 7965
  139.9974  144.6318  150.7760 LP  0  0  0  0  0  0  0  0  0  0  0  0  # atno 17342 bound_to 10162
  140.7483  143.2920  151.3306 LP  0  0  0  0  0  0  0  0  0  0  0  0  # atno 17343 bound_to 10162
  157.5021  130.7886  149.7616 LP  0  0  0  0  0  0  0  0  0  0  0  0  # atno 17370 bound_to 10713
  156.0004  130.3883  150.2628 LP  0  0  0  0  0  0  0  0  0  0  0  0  # atno 17371 bound_to 10713
  139.8832  134.9000  156.2780 LP  0  0  0  0  0  0  0  0  0  0  0  0  # atno 17394 bound_to 11000
  140.9944  133.7189  156.0864 LP  0  0  0  0  0  0  0  0  0  0  0  0  # atno 17395 bound_to 11000

$$$$
