AV-unprocessed.smi:2194|AV-procd|sdf|8903|dock1
  -GOLD-   2272012113D 1   1.00000     0.00000
 Structure written by MMmdl.
 45 47  0  0  0  0  0  0  0  0  1 V2000
  153.9151  130.8898  163.0382 C   0  0  0  0  0  0  0  0  0  0  0  0
  154.1071  132.3743  163.2704 C   0  0  0  0  0  0  0  0  0  0  0  0
  153.7915  132.9450  164.5192 C   0  0  0  0  0  0  0  0  0  0  0  0
  153.9730  134.3252  164.7310 C   0  0  0  0  0  0  0  0  0  0  0  0
  154.4715  135.1546  163.7054 C   0  0  0  0  0  0  0  0  0  0  0  0
  154.6177  136.4935  163.9991 O   0  0  0  0  0  0  0  0  0  0  0  0
  155.2253  137.3332  163.0264 C   0  0  0  0  0  0  0  0  0  0  0  0
  155.1519  138.7901  163.5067 C   0  0  1  0  0  0  0  0  0  0  0  0
  155.7433  138.8656  164.7888 O   0  0  0  0  0  0  0  0  0  0  0  0
  155.8477  139.7648  162.5347 C   0  0  0  0  0  0  0  0  0  0  0  0
  155.1275  139.9116  161.2785 N   0  0  0  0  0  0  0  0  0  0  0  0
  155.2349  139.1022  160.2055 C   0  0  0  0  0  0  0  0  0  0  0  0
  154.4700  139.4248  159.1623 N   0  0  0  0  0  0  0  0  0  0  0  0
  153.8099  140.5585  159.6242 C   0  0  0  0  0  0  0  0  0  0  0  0
  154.1901  140.8680  160.8882 C   0  0  0  0  0  0  0  0  0  0  0  0
  153.6455  142.0125  161.6271 C   0  0  0  0  0  0  0  0  0  0  0  0
  154.0034  142.2650  162.7784 O   0  0  0  0  0  0  0  0  0  0  0  0
  152.7224  142.7409  160.9248 N   0  0  0  0  0  0  0  0  0  0  0  0
  152.1351  143.9021  161.6202 C   0  0  0  0  0  0  0  0  0  0  0  0
  152.2838  142.4488  159.6440 C   0  0  0  0  0  0  0  0  0  0  0  0
  151.4094  143.1234  159.0934 O   0  0  0  0  0  0  0  0  0  0  0  0
  152.8412  141.3783  158.9897 N   0  0  0  0  0  0  0  0  0  0  0  0
  152.4164  141.0517  157.6254 C   0  0  0  0  0  0  0  0  0  0  0  0
  154.7903  134.5731  162.4520 C   0  0  0  0  0  0  0  0  0  0  0  0
  154.6085  133.1927  162.2391 C   0  0  0  0  0  0  0  0  0  0  0  0
  153.1405  130.4890  163.6927 H   0  0  0  0  0  0  0  0  0  0  0  0
  154.8441  130.3548  163.2364 H   0  0  0  0  0  0  0  0  0  0  0  0
  153.6192  130.6943  162.0068 H   0  0  0  0  0  0  0  0  0  0  0  0
  153.4095  132.3272  165.3189 H   0  0  0  0  0  0  0  0  0  0  0  0
  153.7269  134.7522  165.6923 H   0  0  0  0  0  0  0  0  0  0  0  0
  156.2695  137.0411  162.9013 H   0  0  0  0  0  0  0  0  0  0  0  0
  154.7274  137.2321  162.0603 H   0  0  0  0  0  0  0  0  0  0  0  0
  154.1048  139.0752  163.6173 H   0  0  0  0  0  0  0  0  0  0  0  0
  156.4704  138.2627  164.8202 H   0  0  0  0  0  0  0  0  0  0  0  0
  155.9875  140.7430  162.9926 H   0  0  0  0  0  0  0  0  0  0  0  0
  156.8497  139.4006  162.3044 H   0  0  0  0  0  0  0  0  0  0  0  0
  155.8926  138.2455  160.1909 H   0  0  0  0  0  0  0  0  0  0  0  0
  151.7089  144.6501  160.9508 H   0  0  0  0  0  0  0  0  0  0  0  0
  152.8738  144.4407  162.2164 H   0  0  0  0  0  0  0  0  0  0  0  0
  151.3419  143.5701  162.2913 H   0  0  0  0  0  0  0  0  0  0  0  0
  152.5153  141.9188  156.9705 H   0  0  0  0  0  0  0  0  0  0  0  0
  151.3724  140.7356  157.6183 H   0  0  0  0  0  0  0  0  0  0  0  0
  153.0049  140.2490  157.1815 H   0  0  0  0  0  0  0  0  0  0  0  0
  155.1775  135.1644  161.6363 H   0  0  0  0  0  0  0  0  0  0  0  0
  154.8565  132.7636  161.2792 H   0  0  0  0  0  0  0  0  0  0  0  0
  1  2  1  0  0  0  0
  1 26  1  0  0  0  0
  1 27  1  0  0  0  0
  1 28  1  0  0  0  0
  2 25  1  0  0  0  0
  2  3  2  0  0  0  0
  3  4  1  0  0  0  0
  3 29  1  0  0  0  0
  4  5  2  0  0  0  0
  4 30  1  0  0  0  0
  5  6  1  0  0  0  0
  5 24  1  0  0  0  0
  6  7  1  0  0  0  0
  7  8  1  0  0  0  0
  7 31  1  0  0  0  0
  7 32  1  0  0  0  0
  8  9  1  0  0  0  0
  8 10  1  0  0  0  0
  8 33  1  0  0  0  0
  9 34  1  0  0  0  0
 10 11  1  0  0  0  0
 10 35  1  0  0  0  0
 10 36  1  0  0  0  0
 11 15  1  0  0  0  0
 11 12  1  0  0  0  0
 12 13  2  0  0  0  0
 12 37  1  0  0  0  0
 13 14  1  0  0  0  0
 14 22  1  0  0  0  0
 14 15  2  0  0  0  0
 15 16  1  0  0  0  0
 16 17  2  0  0  0  0
 16 18  1  0  0  0  0
 18 19  1  0  0  0  0
 18 20  1  0  0  0  0
 19 38  1  0  0  0  0
 19 39  1  0  0  0  0
 19 40  1  0  0  0  0
 20 21  2  0  0  0  0
 20 22  1  0  0  0  0
 22 23  1  0  0  0  0
 23 41  1  0  0  0  0
 23 42  1  0  0  0  0
 23 43  1  0  0  0  0
 24 25  2  0  0  0  0
 24 44  1  0  0  0  0
 25 45  1  0  0  0  0
M  END
> <s_m_source_file>
AV-unprocessed.smi

> <i_m_source_file_index>
2194

> <i_lp_mmshare_version>
43012

> <i_f3d_flags>
0

> <s_epik_input>
W0NIM11jMVtjSF1bY0hdYyhbY0hdW2NIXTEpT1tDSDJdW0NASF0oW09IXSlbQ0gyXW4oW2NIXW4yKWMoYzIzKWMoPU8pbihbQ0gzXSljKD1PKW4zW0NIM10=

> <s_epik_cmdline>
J2VwaWtfcHl0aG9uJywgJy1waCcsICc3LjAnLCAnLXRuJywgJzgnLCAnLW1hJywgJzIwMCcsICctbWV0YWxfYmluZGluZycsICctaW1hZScsICc8aW5maWxlLm1hZT4nLCAnLW9tYWUnLCAnPG91dGZpbGUubWFlPic=

> <r_lp_tautomer_probability>
1

> <r_epik_Ionization_Penalty>
1.06124e-06

> <r_epik_Ionization_Penalty_Charging>
3.25921e-09

> <r_epik_Ionization_Penalty_Neutral>
1.05798e-06

> <r_epik_State_Penalty>
-0

> <r_epik_Charging_Adjusted_Penalty>
3.25921e-09

> <i_epik_Tot_Q>
0

> <i_epik_Tot_abs_Q>
0

> <r_epik_Metal_State_Penalty>
-0

> <b_epik_Metal_Only>
0

> <s_lp_Force_Field>
OPLS_2005

> <r_lp_Energy>
38.6758

> <b_lp_Chiralities_Consistent>
1

> <s_lp_Variant>
AV-unprocessed.smi:2194-2

> <Gold.Version>
5.8.1

> <Gold.Id.Protein>
6NUR|6NUR_protein|mol2

> <Gold.PLP.Fitness>
47.9215

> <Gold.PLP.PLP>
-45.7946

> <Gold.PLP.part.hbond>
-2.0000

> <Gold.PLP.part.metal>
0.0000

> <Gold.PLP.part.buried>
-3.3419

> <Gold.PLP.part.nonpolar>
-39.4501

> <Gold.PLP.part.repulsive>
0.1197

> <Gold.PLP.ligand.clash>
0.0000

> <Gold.PLP.ligand.torsion>
0.4455

> <Gold.PLP.Chemscore.Hbond>
1.0000

> <Gold.PLP.Chemscore.CHOScore>
0.0000

> <Gold.PLP.Chemscore.Metal>
0.0000

> <Gold.Chemscore.Hbonds>
donor molecule, donor type, donor heavy atom, donor atom, acceptor molecule, acceptor atom, score
      P1  H  7997  8009       L1    13  1.00

> <Gold.PLP.Chemscore.Internal.Correction>
0.0179

> <Gold.Rescore>
     Score         DG    S(hbond)    S(metal)    S(lipo)     H(rot)  DE(clash)    DE(int)     intcor
     11.28     -11.86       0.83        0.00      89.64       2.69       0.16       0.42       ----

> <Gold.Chemscore.Fitness>
11.2828

> <Gold.Chemscore.DG>
-11.8641

> <Gold.Chemscore.ZeroCoef>
-5.4800

> <Gold.Chemscore.Hbond>
0.8321

> <Gold.Chemscore.Metal>
0.0000

> <Gold.Chemscore.Lipo>
89.6354

> <Gold.Chemscore.Internal_Hbond>
0.0000

> <Gold.Chemscore.DEClash>
0.1647

> <Gold.Chemscore.DEInternal>
0.4167

> <Gold.Chemscore.Rot>
2.6885

> <Gold.Chemscore.Internal.Correction>
   9.000000E+99

> <Gold.Chemscore.Hbonds>
donor molecule, donor type, donor heavy atom, donor atom, acceptor molecule, acceptor atom, score
      P1  H  7997  8009       L1    13  0.28

> <Gold.Chemscore.Hbond.Weighted>
-2.7793

> <Gold.Chemscore.Metal.Weighted>
-0.0000

> <Gold.Chemscore.Lipo.Weighted>
-10.4873

> <Gold.Chemscore.Internal_Hbond.Weighted>
0.0000

> <Gold.Chemscore.DEClash.Weighted>
0.1647

> <Gold.Chemscore.DEInternal.Weighted>
0.4167

> <Gold.Chemscore.Rot.Weighted>
6.8825

> <Gold.Chemscore.Internal.Correction.Weighted>
   9.000000E+99

> <Gold.Protein.RotatedTorsions>
[ 6907 6896 6895 6894 ] final   17.84 input  -60.11 | X-H torsion
[ 7974 7965 7964 7962 ] final  109.59 input  175.53 | X-H torsion
[ 8008 7997 7996 7995 ] final  126.77 input   59.86 | X-H torsion
[ 10167 10162 10161 10158 ] final   16.50 input  -65.29 | X-H torsion
[ 10718 10713 10712 10709 ] final -108.37 input   66.30 | X-H torsion
[ 10763 10752 10751 10750 ] final  163.47 input  -60.55 | X-H torsion
[ 11005 11000 10999 10996 ] final  157.94 input  -57.11 | X-H torsion

> <Gold.Protein.ActiveResidues>
 VAL166  LYS551  ARG553  GLY616  TRP617  ASP618  TYR619  PRO620  LYS621  CYS622 
 ASP623  PHE694  ASN695  SER759  ASP760  ASP761  ALA762  ILE779  LEU786  VAL792 
 PHE793  MET794  SER795  GLU796  ALA797  LYS798  CYS799  TRP800  GLU811  SER814 

> <Gold.Protein.RotatedAtoms>
  151.8560  135.0541  160.0463 H   0  0  0  0  0  0  0  0  0  0  0  0  # atno 6907 bound_to 6896
  152.2700  133.5369  159.5441 H   0  0  0  0  0  0  0  0  0  0  0  0  # atno 6908 bound_to 6896
  150.7148  134.0627  159.3879 H   0  0  0  0  0  0  0  0  0  0  0  0  # atno 6909 bound_to 6896
  145.2658  139.2685  143.3993 H   0  0  0  0  0  0  0  0  0  0  0  0  # atno 7974 bound_to 7965
  156.2873  140.2685  156.2164 H   0  0  0  0  0  0  0  0  0  0  0  0  # atno 8008 bound_to 7997
  155.0212  140.0386  157.2456 H   0  0  0  0  0  0  0  0  0  0  0  0  # atno 8009 bound_to 7997
  154.7434  140.2729  155.6359 H   0  0  0  0  0  0  0  0  0  0  0  0  # atno 8010 bound_to 7997
  140.5793  143.9013  150.6776 H   0  0  0  0  0  0  0  0  0  0  0  0  # atno 10167 bound_to 10162
  156.0482  130.5710  150.7952 H   0  0  0  0  0  0  0  0  0  0  0  0  # atno 10718 bound_to 10713
  154.2942  135.2760  155.2641 H   0  0  0  0  0  0  0  0  0  0  0  0  # atno 10763 bound_to 10752
  154.5106  135.5783  153.6605 H   0  0  0  0  0  0  0  0  0  0  0  0  # atno 10764 bound_to 10752
  152.9910  135.6180  154.3108 H   0  0  0  0  0  0  0  0  0  0  0  0  # atno 10765 bound_to 10752
  140.1817  134.8470  157.2811 H   0  0  0  0  0  0  0  0  0  0  0  0  # atno 11005 bound_to 11000
  146.3261  140.3087  142.8625 LP  0  0  0  0  0  0  0  0  0  0  0  0  # atno 17320 bound_to 7965
  144.9378  140.8046  143.5649 LP  0  0  0  0  0  0  0  0  0  0  0  0  # atno 17321 bound_to 7965
  140.2508  143.3595  152.1407 LP  0  0  0  0  0  0  0  0  0  0  0  0  # atno 17342 bound_to 10162
  139.5160  144.6971  151.5598 LP  0  0  0  0  0  0  0  0  0  0  0  0  # atno 17343 bound_to 10162
  157.5381  131.0939  150.9864 LP  0  0  0  0  0  0  0  0  0  0  0  0  # atno 17370 bound_to 10713
  157.0154  130.5653  149.5325 LP  0  0  0  0  0  0  0  0  0  0  0  0  # atno 17371 bound_to 10713
  140.2259  134.3967  155.7544 LP  0  0  0  0  0  0  0  0  0  0  0  0  # atno 17394 bound_to 11000
  141.2223  133.7190  156.8564 LP  0  0  0  0  0  0  0  0  0  0  0  0  # atno 17395 bound_to 11000

$$$$
