AV-unprocessed.smi:3318|AV-procd|sdf|12764|dock2
  -GOLD-   2272019103D 1   1.00000     0.00000
 Structure written by MMmdl.
 44 45  0  0  0  0  0  0  0  0  2 V2000
  149.9897  141.4078  158.3556 C   0  0  0  0  0  0  0  0  0  0  0  0
  151.1436  140.5500  157.8196 C   0  0  0  0  0  0  0  0  0  0  0  0
  151.6973  141.0496  156.4707 C   0  0  0  0  0  0  0  0  0  0  0  0
  150.9461  140.5422  155.3213 N   0  0  0  0  0  0  0  0  0  0  0  0
  149.5798  141.0663  155.3812 C   0  0  0  0  0  0  0  0  0  0  0  0
  148.7898  140.6400  154.1321 C   0  0  0  0  0  0  0  0  0  0  0  0
  148.7324  139.1104  154.0101 C   0  0  0  0  0  0  0  0  0  0  0  0
  148.0447  138.7259  152.7577 N   0  3  0  0  0  0  0  0  0  0  0  0
  146.5966  138.4622  152.8880 C   0  0  0  0  0  0  0  0  0  0  0  0
  146.3443  137.1531  153.6487 C   0  0  0  0  0  0  0  0  0  0  0  0
  145.6138  136.1271  152.8028 C   0  0  0  0  0  0  0  0  0  0  0  0
  145.6092  136.2239  151.3949 C   0  0  0  0  0  0  0  0  0  0  0  0
  144.9133  135.2459  150.6577 C   0  0  0  0  0  0  0  0  0  0  0  0
  144.2516  134.2159  151.3534 C   0  0  0  0  0  0  0  0  0  0  0  0
  144.3156  134.2085  152.7610 C   0  0  0  0  0  0  0  0  0  0  0  0
  144.9797  135.1417  153.4773 N   0  0  0  0  0  0  0  0  0  0  0  0
  150.1680  138.5596  154.0721 C   0  0  0  0  0  0  0  0  0  0  0  0
  150.9062  139.0759  155.3200 C   0  0  0  0  0  0  0  0  0  0  0  0
  149.5932  140.9892  159.2808 H   0  0  0  0  0  0  0  0  0  0  0  0
  149.1713  141.4608  157.6372 H   0  0  0  0  0  0  0  0  0  0  0  0
  150.3171  142.4258  158.5677 H   0  0  0  0  0  0  0  0  0  0  0  0
  151.9291  140.4730  158.5701 H   0  0  0  0  0  0  0  0  0  0  0  0
  150.7760  139.5331  157.6803 H   0  0  0  0  0  0  0  0  0  0  0  0
  151.7145  142.1404  156.4481 H   0  0  0  0  0  0  0  0  0  0  0  0
  152.7363  140.7252  156.3971 H   0  0  0  0  0  0  0  0  0  0  0  0
  149.0805  140.7188  156.2872 H   0  0  0  0  0  0  0  0  0  0  0  0
  149.6064  142.1560  155.4286 H   0  0  0  0  0  0  0  0  0  0  0  0
  147.7799  141.0490  154.1809 H   0  0  0  0  0  0  0  0  0  0  0  0
  149.2560  141.0714  153.2445 H   0  0  0  0  0  0  0  0  0  0  0  0
  148.1597  138.7225  154.8539 H   0  0  0  0  0  0  0  0  0  0  0  0
  148.1544  139.4872  152.1031 H   0  0  0  0  0  0  0  0  0  0  0  0
  146.1180  139.2897  153.4115 H   0  0  0  0  0  0  0  0  0  0  0  0
  146.1493  138.4043  151.8948 H   0  0  0  0  0  0  0  0  0  0  0  0
  147.2910  136.7295  153.9868 H   0  0  0  0  0  0  0  0  0  0  0  0
  145.7578  137.3492  154.5477 H   0  0  0  0  0  0  0  0  0  0  0  0
  146.1254  137.0264  150.8884 H   0  0  0  0  0  0  0  0  0  0  0  0
  144.8879  135.2850  149.5786 H   0  0  0  0  0  0  0  0  0  0  0  0
  143.7082  133.4490  150.8209 H   0  0  0  0  0  0  0  0  0  0  0  0
  143.8193  133.4335  153.3263 H   0  0  0  0  0  0  0  0  0  0  0  0
  150.1603  137.4698  154.0918 H   0  0  0  0  0  0  0  0  0  0  0  0
  150.7209  138.8497  153.1772 H   0  0  0  0  0  0  0  0  0  0  0  0
  151.9152  138.6666  155.3165 H   0  0  0  0  0  0  0  0  0  0  0  0
  150.4184  138.7120  156.2259 H   0  0  0  0  0  0  0  0  0  0  0  0
  148.4984  137.9082  152.3758 H   0  0  0  0  0  0  0  0  0  0  0  0
  1  2  1  0  0  0  0
  1 19  1  0  0  0  0
  1 20  1  0  0  0  0
  1 21  1  0  0  0  0
  2  3  1  0  0  0  0
  2 22  1  0  0  0  0
  2 23  1  0  0  0  0
  3  4  1  0  0  0  0
  3 24  1  0  0  0  0
  3 25  1  0  0  0  0
  4 18  1  0  0  0  0
  4  5  1  0  0  0  0
  5  6  1  0  0  0  0
  5 26  1  0  0  0  0
  5 27  1  0  0  0  0
  6  7  1  0  0  0  0
  6 28  1  0  0  0  0
  6 29  1  0  0  0  0
  7  8  1  0  0  0  0
  7 17  1  0  0  0  0
  7 30  1  0  0  0  0
  8  9  1  0  0  0  0
  8 31  1  0  0  0  0
  8 44  1  0  0  0  0
  9 10  1  0  0  0  0
  9 32  1  0  0  0  0
  9 33  1  0  0  0  0
 10 11  1  0  0  0  0
 10 34  1  0  0  0  0
 10 35  1  0  0  0  0
 11 16  1  0  0  0  0
 11 12  2  0  0  0  0
 12 13  1  0  0  0  0
 12 36  1  0  0  0  0
 13 14  2  0  0  0  0
 13 37  1  0  0  0  0
 14 15  1  0  0  0  0
 14 38  1  0  0  0  0
 15 16  2  0  0  0  0
 15 39  1  0  0  0  0
 17 18  1  0  0  0  0
 17 40  1  0  0  0  0
 17 41  1  0  0  0  0
 18 42  1  0  0  0  0
 18 43  1  0  0  0  0
M  CHG  1   8   1
M  END
> <s_m_source_file>
AV-unprocessed.smi

> <i_m_source_file_index>
3318

> <i_lp_mmshare_version>
43012

> <i_f3d_flags>
0

> <s_epik_input>
W0NIM11bQ0gyXVtDSDJdTjFbQ0gyXVtDSDJdW0NIXShbQ0gyXVtDSDJdMSlbTkhdW0NIMl1bQ0gyXWMyW2NIXVtjSF1bY0hdW2NIXW4y

> <s_epik_cmdline>
J2VwaWtfcHl0aG9uJywgJy1waCcsICc3LjAnLCAnLXRuJywgJzgnLCAnLW1hJywgJzIwMCcsICctbWV0YWxfYmluZGluZycsICctaW1hZScsICc8aW5maWxlLm1hZT4nLCAnLW9tYWUnLCAnPG91dGZpbGUubWFlPic=

> <r_epik_Ionization_Penalty>
1.50803

> <r_epik_Ionization_Penalty_Charging>
0.000531593

> <r_epik_Ionization_Penalty_Neutral>
1.5075

> <r_epik_State_Penalty>
1.60727

> <r_epik_Charging_Adjusted_Penalty>
1.6078

> <i_epik_Tot_Q>
1

> <i_epik_Tot_abs_Q>
1

> <r_epik_Metal_State_Penalty>
1.6087

> <b_epik_Metal_Only>
0

> <s_lp_Force_Field>
OPLS_2005

> <r_lp_Energy>
19.6285

> <b_lp_Chiralities_Consistent>
1

> <s_lp_Variant>
AV-unprocessed.smi:3318-3

> <Gold.Version>
5.8.1

> <Gold.Id.Protein>
6NUR|6NUR_protein|mol2

> <Gold.PLP.Fitness>
43.6699

> <Gold.PLP.PLP>
-31.8622

> <Gold.PLP.part.hbond>
-3.0000

> <Gold.PLP.part.metal>
0.0000

> <Gold.PLP.part.buried>
-3.8044

> <Gold.PLP.part.nonpolar>
-26.1477

> <Gold.PLP.part.repulsive>
0.1562

> <Gold.PLP.ligand.clash>
0.0000

> <Gold.PLP.ligand.torsion>
1.2998

> <Gold.PLP.Chemscore.Hbond>
3.7760

> <Gold.PLP.Chemscore.CHOScore>
0.9784

> <Gold.PLP.Chemscore.Metal>
0.0000

> <Gold.Chemscore.Hbonds>
donor molecule, donor type, donor heavy atom, donor atom, acceptor molecule, acceptor atom, score
      L1  H     8    31       P1  7957  0.62
      L1  H     8    44       P1  7948  2.00
      P1  H  7989  7998       L1     4  0.94
      L1  C    15    39       P1 10957  1.00

> <Gold.PLP.Chemscore.Internal.Correction>
0.1439

> <Gold.Rescore>
     Score         DG    S(hbond)    S(metal)    S(lipo)     H(rot)  DE(clash)    DE(int)     intcor
     17.49     -18.42       1.99        0.00      86.27       1.48       0.06       0.86       ----

> <Gold.Chemscore.Fitness>
17.4936

> <Gold.Chemscore.DG>
-18.4192

> <Gold.Chemscore.ZeroCoef>
-5.4800

> <Gold.Chemscore.Hbond>
1.9896

> <Gold.Chemscore.Metal>
0.0000

> <Gold.Chemscore.Lipo>
86.2667

> <Gold.Chemscore.Internal_Hbond>
0.0000

> <Gold.Chemscore.DEClash>
0.0645

> <Gold.Chemscore.DEInternal>
0.8611

> <Gold.Chemscore.Rot>
1.4840

> <Gold.Chemscore.Internal.Correction>
   9.000000E+99

> <Gold.Chemscore.Hbonds>
donor molecule, donor type, donor heavy atom, donor atom, acceptor molecule, acceptor atom, score
      L1  H     8    31       P1  7957  0.62
      L1  H     8    44       P1  7948  1.00
      P1  H  7989  7998       L1     4  0.17

> <Gold.Chemscore.Hbond.Weighted>
-6.6451

> <Gold.Chemscore.Metal.Weighted>
-0.0000

> <Gold.Chemscore.Lipo.Weighted>
-10.0932

> <Gold.Chemscore.Internal_Hbond.Weighted>
0.0000

> <Gold.Chemscore.DEClash.Weighted>
0.0645

> <Gold.Chemscore.DEInternal.Weighted>
0.8611

> <Gold.Chemscore.Rot.Weighted>
3.7991

> <Gold.Chemscore.Internal.Correction.Weighted>
   9.000000E+99

> <Gold.Protein.RotatedTorsions>
[ 6907 6896 6895 6894 ] final  125.28 input  -60.11 | X-H torsion
[ 7974 7965 7964 7962 ] final  135.23 input  175.53 | X-H torsion
[ 8008 7997 7996 7995 ] final  119.36 input   59.86 | X-H torsion
[ 10167 10162 10161 10158 ] final  -15.19 input  -65.29 | X-H torsion
[ 10718 10713 10712 10709 ] final  -49.45 input   66.30 | X-H torsion
[ 10763 10752 10751 10750 ] final  -35.86 input  -60.55 | X-H torsion
[ 11005 11000 10999 10996 ] final  -42.84 input  -57.11 | X-H torsion

> <Gold.Protein.ActiveResidues>
 VAL166  LYS551  ARG553  GLY616  TRP617  ASP618  TYR619  PRO620  LYS621  CYS622 
 ASP623  PHE694  ASN695  SER759  ASP760  ASP761  ALA762  ILE779  LEU786  VAL792 
 PHE793  MET794  SER795  GLU796  ALA797  LYS798  CYS799  TRP800  GLU811  SER814 

> <Gold.Protein.RotatedAtoms>
  152.4005  133.6811  159.6312 H   0  0  0  0  0  0  0  0  0  0  0  0  # atno 6907 bound_to 6896
  150.7897  133.8799  159.3291 H   0  0  0  0  0  0  0  0  0  0  0  0  # atno 6908 bound_to 6896
  151.6566  135.0996  160.0222 H   0  0  0  0  0  0  0  0  0  0  0  0  # atno 6909 bound_to 6896
  144.9685  139.4632  143.5445 H   0  0  0  0  0  0  0  0  0  0  0  0  # atno 7974 bound_to 7965
  156.2592  140.2854  156.0980 H   0  0  0  0  0  0  0  0  0  0  0  0  # atno 8008 bound_to 7997
  155.1391  140.0395  157.2811 H   0  0  0  0  0  0  0  0  0  0  0  0  # atno 8009 bound_to 7997
  154.6543  140.2552  155.7185 H   0  0  0  0  0  0  0  0  0  0  0  0  # atno 8010 bound_to 7997
  140.7214  143.5244  150.9595 H   0  0  0  0  0  0  0  0  0  0  0  0  # atno 10167 bound_to 10162
  156.1892  130.4152  149.9396 H   0  0  0  0  0  0  0  0  0  0  0  0  # atno 10718 bound_to 10713
  153.8701  135.6832  153.4775 H   0  0  0  0  0  0  0  0  0  0  0  0  # atno 10763 bound_to 10752
  153.1292  135.4705  154.9319 H   0  0  0  0  0  0  0  0  0  0  0  0  # atno 10764 bound_to 10752
  154.7718  135.3241  154.8124 H   0  0  0  0  0  0  0  0  0  0  0  0  # atno 10765 bound_to 10752
  141.0343  133.6806  156.2651 H   0  0  0  0  0  0  0  0  0  0  0  0  # atno 11005 bound_to 11000
  146.3375  139.8881  142.8813 LP  0  0  0  0  0  0  0  0  0  0  0  0  # atno 17320 bound_to 7965
  145.2595  141.0072  143.3835 LP  0  0  0  0  0  0  0  0  0  0  0  0  # atno 17321 bound_to 7965
  139.8962  143.6892  152.3138 LP  0  0  0  0  0  0  0  0  0  0  0  0  # atno 17342 bound_to 10162
  139.7225  144.7599  151.0932 LP  0  0  0  0  0  0  0  0  0  0  0  0  # atno 17343 bound_to 10162
  156.7142  130.8982  151.3612 LP  0  0  0  0  0  0  0  0  0  0  0  0  # atno 17370 bound_to 10713
  157.6918  130.9241  150.0534 LP  0  0  0  0  0  0  0  0  0  0  0  0  # atno 17371 bound_to 10713
  140.6350  134.5225  157.5563 LP  0  0  0  0  0  0  0  0  0  0  0  0  # atno 17394 bound_to 11000
  139.9230  134.8112  156.1154 LP  0  0  0  0  0  0  0  0  0  0  0  0  # atno 17395 bound_to 11000

$$$$
