AV-unprocessed.smi:164|AV-procd|sdf|1385|dock7
  -GOLD-   2262019113D 1   1.00000     0.00000
 Structure written by MMmdl.
 53 55  0  0  0  0  0  0  0  0  1 V2000
  151.9133  144.8032  159.4640 C   0  0  0  0  0  0  0  0  0  0  0  0
  152.3479  143.3493  159.3959 C   0  0  0  0  0  0  0  0  0  0  0  0
  153.4875  142.9423  160.1196 C   0  0  0  0  0  0  0  0  0  0  0  0
  153.9202  141.6054  160.0740 C   0  0  0  0  0  0  0  0  0  0  0  0
  153.2105  140.6570  159.3124 C   0  0  0  0  0  0  0  0  0  0  0  0
  153.6914  139.2182  159.2684 C   0  0  0  0  0  0  0  0  0  0  0  0
  152.0561  141.0514  158.5980 C   0  0  0  0  0  0  0  0  0  0  0  0
  151.3664  140.1180  157.8690 O   0  0  0  0  0  0  0  0  0  0  0  0
  151.4106  140.3470  156.4666 C   0  0  0  0  0  0  0  0  0  0  0  0
  150.6691  139.2231  155.7261 C   0  0  1  0  0  0  0  0  0  0  0  0
  151.1675  139.1817  154.4042 O   0  0  0  0  0  0  0  0  0  0  0  0
  150.8278  137.8469  156.4098 C   0  0  0  0  0  0  0  0  0  0  0  0
  149.9981  136.8129  155.8145 N   0  0  0  0  0  0  0  0  0  0  0  0
  148.6007  136.8758  156.0342 C   0  0  0  0  0  0  0  0  0  0  0  0
  148.0805  137.7719  156.7010 O   0  0  0  0  0  0  0  0  0  0  0  0
  147.8424  135.7916  155.4197 C   0  0  0  0  0  0  0  0  0  0  0  0
  146.5049  135.7624  155.5462 F   0  0  0  0  0  0  0  0  0  0  0  0
  148.4611  134.8125  154.7246 C   0  0  0  0  0  0  0  0  0  0  0  0
  149.8349  134.7613  154.5508 N   0  0  0  0  0  0  0  0  0  0  0  0
  150.5075  133.6478  153.7748 C   0  0  1  0  0  0  0  0  0  0  0  0
  151.3389  132.7546  154.7159 C   0  0  0  0  0  0  0  0  0  0  0  0
  150.8379  131.3619  154.3877 C   0  0  0  0  0  0  0  0  0  0  0  0
  149.4077  131.6359  153.9477 C   0  0  0  0  0  0  0  0  0  0  0  0
  149.5399  132.8275  153.1837 O   0  0  0  0  0  0  0  0  0  0  0  0
  150.6461  135.7800  155.0966 C   0  0  0  0  0  0  0  0  0  0  0  0
  151.8717  135.7525  154.9581 O   0  0  0  0  0  0  0  0  0  0  0  0
  151.6313  142.4039  158.6204 C   0  0  0  0  0  0  0  0  0  0  0  0
  150.4118  142.8370  157.8173 C   0  0  0  0  0  0  0  0  0  0  0  0
  152.4834  145.3533  160.2132 H   0  0  0  0  0  0  0  0  0  0  0  0
  150.8583  144.8790  159.7286 H   0  0  0  0  0  0  0  0  0  0  0  0
  152.0665  145.2907  158.5009 H   0  0  0  0  0  0  0  0  0  0  0  0
  154.0407  143.6571  160.7113 H   0  0  0  0  0  0  0  0  0  0  0  0
  154.7997  141.3113  160.6280 H   0  0  0  0  0  0  0  0  0  0  0  0
  153.6576  138.8308  158.2496 H   0  0  0  0  0  0  0  0  0  0  0  0
  153.0618  138.5888  159.8973 H   0  0  0  0  0  0  0  0  0  0  0  0
  154.7187  139.1342  159.6241 H   0  0  0  0  0  0  0  0  0  0  0  0
  150.9197  141.2967  156.2499 H   0  0  0  0  0  0  0  0  0  0  0  0
  152.4379  140.4362  156.1089 H   0  0  0  0  0  0  0  0  0  0  0  0
  149.6152  139.4990  155.6698 H   0  0  0  0  0  0  0  0  0  0  0  0
  150.6100  138.6175  153.8903 H   0  0  0  0  0  0  0  0  0  0  0  0
  151.8637  137.5035  156.4266 H   0  0  0  0  0  0  0  0  0  0  0  0
  150.5477  137.8979  157.4638 H   0  0  0  0  0  0  0  0  0  0  0  0
  147.8364  134.0445  154.2952 H   0  0  0  0  0  0  0  0  0  0  0  0
  151.0903  134.1428  152.9958 H   0  0  0  0  0  0  0  0  0  0  0  0
  152.4064  132.8809  154.5329 H   0  0  0  0  0  0  0  0  0  0  0  0
  151.1258  132.9997  155.7577 H   0  0  0  0  0  0  0  0  0  0  0  0
  151.4096  130.9425  153.5589 H   0  0  0  0  0  0  0  0  0  0  0  0
  150.9008  130.6746  155.2318 H   0  0  0  0  0  0  0  0  0  0  0  0
  148.9838  130.8241  153.3565 H   0  0  0  0  0  0  0  0  0  0  0  0
  148.7626  131.8088  154.8102 H   0  0  0  0  0  0  0  0  0  0  0  0
  150.1194  142.0933  157.0764 H   0  0  0  0  0  0  0  0  0  0  0  0
  150.6102  143.7621  157.2764 H   0  0  0  0  0  0  0  0  0  0  0  0
  149.5640  143.0019  158.4822 H   0  0  0  0  0  0  0  0  0  0  0  0
  1  2  1  0  0  0  0
  1 29  1  0  0  0  0
  1 30  1  0  0  0  0
  1 31  1  0  0  0  0
  2 27  1  0  0  0  0
  2  3  2  0  0  0  0
  3  4  1  0  0  0  0
  3 32  1  0  0  0  0
  4  5  2  0  0  0  0
  4 33  1  0  0  0  0
  5  6  1  0  0  0  0
  5  7  1  0  0  0  0
  6 34  1  0  0  0  0
  6 35  1  0  0  0  0
  6 36  1  0  0  0  0
  7  8  1  0  0  0  0
  7 27  2  0  0  0  0
  8  9  1  0  0  0  0
  9 10  1  0  0  0  0
  9 37  1  0  0  0  0
  9 38  1  0  0  0  0
 10 11  1  0  0  0  0
 10 12  1  0  0  0  0
 10 39  1  0  0  0  0
 11 40  1  0  0  0  0
 12 13  1  0  0  0  0
 12 41  1  0  0  0  0
 12 42  1  0  0  0  0
 13 25  1  0  0  0  0
 13 14  1  0  0  0  0
 14 15  2  0  0  0  0
 14 16  1  0  0  0  0
 16 17  1  0  0  0  0
 16 18  2  0  0  0  0
 18 19  1  0  0  0  0
 18 43  1  0  0  0  0
 19 20  1  0  0  0  0
 19 25  1  0  0  0  0
 20 24  1  0  0  0  0
 20 21  1  0  0  0  0
 20 44  1  0  0  0  0
 21 22  1  0  0  0  0
 21 45  1  0  0  0  0
 21 46  1  0  0  0  0
 22 23  1  0  0  0  0
 22 47  1  0  0  0  0
 22 48  1  0  0  0  0
 23 24  1  0  0  0  0
 23 49  1  0  0  0  0
 23 50  1  0  0  0  0
 25 26  2  0  0  0  0
 27 28  1  0  0  0  0
 28 51  1  0  0  0  0
 28 52  1  0  0  0  0
 28 53  1  0  0  0  0
M  END
> <s_m_source_file>
AV-unprocessed.smi

> <i_m_source_file_index>
164

> <i_lp_mmshare_version>
43012

> <i_f3d_flags>
0

> <s_epik_input>
W0NIM11jMVtjSF1bY0hdYyhbQ0gzXSljKGMxW0NIM10pT1tDSDJdW0NASF0oW09IXSlbQ0gyXW4yYyg9TyljKEYpW2NIXW4oYzI9TylbQ0BASF0zW0NIMl1bQ0gyXVtDSDJdTzM=

> <s_epik_cmdline>
J2VwaWtfcHl0aG9uJywgJy1waCcsICc3LjAnLCAnLXRuJywgJzgnLCAnLW1hJywgJzIwMCcsICctbWV0YWxfYmluZGluZycsICctaW1hZScsICc8aW5maWxlLm1hZT4nLCAnLW9tYWUnLCAnPG91dGZpbGUubWFlPic=

> <r_lp_tautomer_probability>
1

> <r_epik_Ionization_Penalty>
1.45842e-07

> <r_epik_Ionization_Penalty_Charging>
2.86622e-08

> <r_epik_Ionization_Penalty_Neutral>
1.1718e-07

> <r_epik_State_Penalty>
-0

> <r_epik_Charging_Adjusted_Penalty>
2.86622e-08

> <i_epik_Tot_Q>
0

> <i_epik_Tot_abs_Q>
0

> <r_epik_Metal_State_Penalty>
-0

> <b_epik_Metal_Only>
0

> <s_epik_Chemistry_Notes>
This compound contains an acetal/aminal-like group ( X-CH(R)-Y where X, Y are N, S, or O) that may be acid/base labile, releasing an aldehyde.

> <s_lp_Force_Field>
OPLS_2005

> <r_lp_Energy>
46.8287

> <b_lp_Chiralities_Consistent>
1

> <s_lp_Variant>
AV-unprocessed.smi:164-4

> <Gold.Version>
5.8.1

> <Gold.Id.Protein>
6NUR|6NUR_protein|mol2

> <Gold.PLP.Fitness>
48.4032

> <Gold.PLP.PLP>
-43.3789

> <Gold.PLP.part.hbond>
-2.0000

> <Gold.PLP.part.metal>
0.0000

> <Gold.PLP.part.buried>
-1.4201

> <Gold.PLP.part.nonpolar>
-39.0826

> <Gold.PLP.part.repulsive>
0.2715

> <Gold.PLP.ligand.clash>
0.0000

> <Gold.PLP.ligand.torsion>
0.5344

> <Gold.PLP.Chemscore.Hbond>
2.0000

> <Gold.PLP.Chemscore.CHOScore>
0.0000

> <Gold.PLP.Chemscore.Metal>
0.0000

> <Gold.Chemscore.Hbonds>
donor molecule, donor type, donor heavy atom, donor atom, acceptor molecule, acceptor atom, score
      P1  H  7989  7998       L1    11  1.00
      P1  H 10752 10763       L1    26  0.02

> <Gold.PLP.Chemscore.Internal.Correction>
0.0931

> <Gold.Rescore>
     Score         DG    S(hbond)    S(metal)    S(lipo)     H(rot)  DE(clash)    DE(int)     intcor
     17.11     -18.13       1.66        0.00     120.63       2.73       0.04       0.98       ----

> <Gold.Chemscore.Fitness>
17.1145

> <Gold.Chemscore.DG>
-18.1348

> <Gold.Chemscore.ZeroCoef>
-5.4800

> <Gold.Chemscore.Hbond>
1.6568

> <Gold.Chemscore.Metal>
0.0000

> <Gold.Chemscore.Lipo>
120.6302

> <Gold.Chemscore.Internal_Hbond>
0.0000

> <Gold.Chemscore.DEClash>
0.0407

> <Gold.Chemscore.DEInternal>
0.9795

> <Gold.Chemscore.Rot>
2.7315

> <Gold.Chemscore.Internal.Correction>
   9.000000E+99

> <Gold.Chemscore.Hbonds>
donor molecule, donor type, donor heavy atom, donor atom, acceptor molecule, acceptor atom, score
      P1  H  7989  7998       L1    11  0.82
      P1  H 10752 10763       L1    26  0.07

> <Gold.Chemscore.Hbond.Weighted>
-5.5335

> <Gold.Chemscore.Metal.Weighted>
-0.0000

> <Gold.Chemscore.Lipo.Weighted>
-14.1137

> <Gold.Chemscore.Internal_Hbond.Weighted>
0.0000

> <Gold.Chemscore.DEClash.Weighted>
0.0407

> <Gold.Chemscore.DEInternal.Weighted>
0.9795

> <Gold.Chemscore.Rot.Weighted>
6.9925

> <Gold.Chemscore.Internal.Correction.Weighted>
   9.000000E+99

> <Gold.Protein.RotatedTorsions>
[ 6907 6896 6895 6894 ] final   41.94 input  -60.11 | X-H torsion
[ 7974 7965 7964 7962 ] final  -52.25 input  175.53 | X-H torsion
[ 8008 7997 7996 7995 ] final   31.49 input   59.86 | X-H torsion
[ 10167 10162 10161 10158 ] final   28.31 input  -65.29 | X-H torsion
[ 10718 10713 10712 10709 ] final -150.92 input   66.30 | X-H torsion
[ 10763 10752 10751 10750 ] final   71.25 input  -60.55 | X-H torsion
[ 11005 11000 10999 10996 ] final -140.21 input  -57.11 | X-H torsion

> <Gold.Protein.ActiveResidues>
 VAL166  LYS551  ARG553  GLY616  TRP617  ASP618  TYR619  PRO620  LYS621  CYS622 
 ASP623  PHE694  ASN695  SER759  ASP760  ASP761  ALA762  ILE779  LEU786  VAL792 
 PHE793  MET794  SER795  GLU796  ALA797  LYS798  CYS799  TRP800  GLU811  SER814 

> <Gold.Protein.RotatedAtoms>
  152.2016  134.8583  160.0507 H   0  0  0  0  0  0  0  0  0  0  0  0  # atno 6907 bound_to 6896
  151.9434  133.3639  159.3981 H   0  0  0  0  0  0  0  0  0  0  0  0  # atno 6908 bound_to 6896
  150.6956  134.4339  159.5305 H   0  0  0  0  0  0  0  0  0  0  0  0  # atno 6909 bound_to 6896
  145.9100  140.7923  142.9700 H   0  0  0  0  0  0  0  0  0  0  0  0  # atno 7974 bound_to 7965
  155.1072  140.3235  155.4531 H   0  0  0  0  0  0  0  0  0  0  0  0  # atno 8008 bound_to 7997
  156.2701  140.2050  156.6144 H   0  0  0  0  0  0  0  0  0  0  0  0  # atno 8009 bound_to 7997
  154.6784  140.0529  157.0227 H   0  0  0  0  0  0  0  0  0  0  0  0  # atno 8010 bound_to 7997
  140.4863  144.0537  150.6282 H   0  0  0  0  0  0  0  0  0  0  0  0  # atno 10167 bound_to 10162
  156.4525  130.8174  151.2405 H   0  0  0  0  0  0  0  0  0  0  0  0  # atno 10718 bound_to 10713
  153.0388  135.5144  154.7565 H   0  0  0  0  0  0  0  0  0  0  0  0  # atno 10763 bound_to 10752
  154.6519  135.2926  154.9978 H   0  0  0  0  0  0  0  0  0  0  0  0  # atno 10764 bound_to 10752
  154.0859  135.6657  153.4897 H   0  0  0  0  0  0  0  0  0  0  0  0  # atno 10765 bound_to 10752
  140.8445  134.2361  157.4793 H   0  0  0  0  0  0  0  0  0  0  0  0  # atno 11005 bound_to 11000
  144.6742  140.1810  143.7405 LP  0  0  0  0  0  0  0  0  0  0  0  0  # atno 17320 bound_to 7965
  145.8684  139.2259  143.1676 LP  0  0  0  0  0  0  0  0  0  0  0  0  # atno 17321 bound_to 7965
  140.3793  143.2811  152.0188 LP  0  0  0  0  0  0  0  0  0  0  0  0  # atno 17342 bound_to 10162
  139.4842  144.6167  151.7332 LP  0  0  0  0  0  0  0  0  0  0  0  0  # atno 17343 bound_to 10162
  157.7502  131.0133  150.3419 LP  0  0  0  0  0  0  0  0  0  0  0  0  # atno 17370 bound_to 10713
  156.3801  130.3879  149.7108 LP  0  0  0  0  0  0  0  0  0  0  0  0  # atno 17371 bound_to 10713
  139.8703  134.9652  156.4521 LP  0  0  0  0  0  0  0  0  0  0  0  0  # atno 17394 bound_to 11000
  140.8859  133.7884  155.9517 LP  0  0  0  0  0  0  0  0  0  0  0  0  # atno 17395 bound_to 11000

$$$$
