AV-unprocessed.smi:2603|AV-procd|sdf|10188|dock8
  -GOLD-   2272014203D 1   1.00000     0.00000
 Structure written by MMmdl.
 35 36  0  0  0  0  0  0  0  0  1 V2000
  153.6931  141.8852  160.6431 C   0  0  0  0  0  0  0  0  0  0  0  0
  152.5198  142.5841  159.9526 C   0  0  0  0  0  0  0  0  0  0  0  0
  151.9324  141.6899  159.0235 O   0  0  0  0  0  0  0  0  0  0  0  0
  150.8817  142.2993  158.2961 C   0  0  1  0  0  0  0  0  0  0  0  0
  151.2775  143.6114  157.6818 C   0  0  0  0  0  0  0  0  0  0  0  0
  151.1407  142.3757  156.8092 C   0  0  2  0  0  0  0  0  0  0  0  0
  150.0091  142.2900  155.9468 N   0  0  0  0  0  0  0  0  0  0  0  0
  149.7619  141.2966  155.0806 C   0  0  0  0  0  0  0  0  0  0  0  0
  150.5075  140.3310  154.9167 O   0  0  0  0  0  0  0  0  0  0  0  0
  148.4628  141.4025  154.2825 C   0  0  0  0  0  0  0  0  0  0  0  0
  147.3072  141.6236  155.2247 C   0  0  0  0  0  0  0  0  0  0  0  0
  147.0767  141.0280  156.4992 C   0  0  0  0  0  0  0  0  0  0  0  0
  147.9163  140.0231  157.2348 C   0  0  0  0  0  0  0  0  0  0  0  0
  145.9498  141.4522  157.0455 N   0  0  0  0  0  0  0  0  0  0  0  0
  145.3973  142.3564  156.1332 O   0  0  0  0  0  0  0  0  0  0  0  0
  146.2215  142.4385  155.0582 C   0  0  0  0  0  0  0  0  0  0  0  0
  145.8018  143.3533  153.9576 C   0  0  0  0  0  0  0  0  0  0  0  0
  154.1666  142.5452  161.3700 H   0  0  0  0  0  0  0  0  0  0  0  0
  154.4511  141.5860  159.9191 H   0  0  0  0  0  0  0  0  0  0  0  0
  153.3601  140.9907  161.1699 H   0  0  0  0  0  0  0  0  0  0  0  0
  151.7819  142.8936  160.6944 H   0  0  0  0  0  0  0  0  0  0  0  0
  152.8690  143.4817  159.4403 H   0  0  0  0  0  0  0  0  0  0  0  0
  149.8754  142.1667  158.6909 H   0  0  0  0  0  0  0  0  0  0  0  0
  150.5097  144.3782  157.5998 H   0  0  0  0  0  0  0  0  0  0  0  0
  152.2827  143.9792  157.8773 H   0  0  0  0  0  0  0  0  0  0  0  0
  152.0734  141.9382  156.4549 H   0  0  0  0  0  0  0  0  0  0  0  0
  149.3337  143.0375  156.0103 H   0  0  0  0  0  0  0  0  0  0  0  0
  148.5497  142.2104  153.5554 H   0  0  0  0  0  0  0  0  0  0  0  0
  148.3298  140.4895  153.7009 H   0  0  0  0  0  0  0  0  0  0  0  0
  147.5561  139.0099  157.0551 H   0  0  0  0  0  0  0  0  0  0  0  0
  147.8957  140.1988  158.3108 H   0  0  0  0  0  0  0  0  0  0  0  0
  148.9577  140.0655  156.9167 H   0  0  0  0  0  0  0  0  0  0  0  0
  145.8608  142.8481  152.9935 H   0  0  0  0  0  0  0  0  0  0  0  0
  146.4472  144.2308  153.9195 H   0  0  0  0  0  0  0  0  0  0  0  0
  144.7756  143.6936  154.0976 H   0  0  0  0  0  0  0  0  0  0  0  0
  1  2  1  0  0  0  0
  1 18  1  0  0  0  0
  1 19  1  0  0  0  0
  1 20  1  0  0  0  0
  2  3  1  0  0  0  0
  2 21  1  0  0  0  0
  2 22  1  0  0  0  0
  3  4  1  0  0  0  0
  4  6  1  0  0  0  0
  4  5  1  0  0  0  0
  4 23  1  0  0  0  0
  5  6  1  0  0  0  0
  5 24  1  0  0  0  0
  5 25  1  0  0  0  0
  6  7  1  0  0  0  0
  6 26  1  0  0  0  0
  7  8  1  0  0  0  0
  7 27  1  0  0  0  0
  8  9  2  0  0  0  0
  8 10  1  0  0  0  0
 10 11  1  0  0  0  0
 10 28  1  0  0  0  0
 10 29  1  0  0  0  0
 11 16  2  0  0  0  0
 11 12  1  0  0  0  0
 12 13  1  0  0  0  0
 12 14  2  0  0  0  0
 13 30  1  0  0  0  0
 13 31  1  0  0  0  0
 13 32  1  0  0  0  0
 14 15  1  0  0  0  0
 15 16  1  0  0  0  0
 16 17  1  0  0  0  0
 17 33  1  0  0  0  0
 17 34  1  0  0  0  0
 17 35  1  0  0  0  0
M  END
> <s_m_source_file>
AV-unprocessed.smi

> <i_m_source_file_index>
2603

> <i_lp_mmshare_version>
43012

> <i_f3d_flags>
0

> <s_epik_input>
W0NIM11bQ0gyXU9bQ0BASF0xW0NIMl1bQ0BIXTFbTkhdQyg9TylbQ0gyXWMyYyhbQ0gzXSlub2MyW0NIM10=

> <s_epik_cmdline>
J2VwaWtfcHl0aG9uJywgJy1waCcsICc3LjAnLCAnLXRuJywgJzgnLCAnLW1hJywgJzIwMCcsICctbWV0YWxfYmluZGluZycsICctaW1hZScsICc8aW5maWxlLm1hZT4nLCAnLW9tYWUnLCAnPG91dGZpbGUubWFlPic=

> <r_lp_tautomer_probability>
1

> <r_epik_Ionization_Penalty>
2.37325e-08

> <r_epik_Ionization_Penalty_Charging>
0

> <r_epik_Ionization_Penalty_Neutral>
2.37325e-08

> <r_epik_State_Penalty>
-0

> <r_epik_Charging_Adjusted_Penalty>
0

> <i_epik_Tot_Q>
0

> <i_epik_Tot_abs_Q>
0

> <r_epik_Metal_State_Penalty>
-0

> <b_epik_Metal_Only>
0

> <s_lp_Force_Field>
OPLS_2005

> <r_lp_Energy>
9.74593

> <b_lp_Chiralities_Consistent>
1

> <s_lp_Variant>
AV-unprocessed.smi:2603-4

> <Gold.Version>
5.8.1

> <Gold.Id.Protein>
6NUR|6NUR_protein|mol2

> <Gold.PLP.Fitness>
39.3254

> <Gold.PLP.PLP>
-34.1732

> <Gold.PLP.part.hbond>
-2.0000

> <Gold.PLP.part.metal>
0.0000

> <Gold.PLP.part.buried>
-4.9185

> <Gold.PLP.part.nonpolar>
-27.7096

> <Gold.PLP.part.repulsive>
0.3703

> <Gold.PLP.ligand.clash>
0.0000

> <Gold.PLP.ligand.torsion>
0.7577

> <Gold.PLP.Chemscore.Hbond>
2.0000

> <Gold.PLP.Chemscore.CHOScore>
0.0000

> <Gold.PLP.Chemscore.Metal>
0.0000

> <Gold.Chemscore.Hbonds>
donor molecule, donor type, donor heavy atom, donor atom, acceptor molecule, acceptor atom, score
      L1  H     7    27       P1  8028  0.98
      P1  H  7989  7998       L1     9  1.00

> <Gold.PLP.Chemscore.Internal.Correction>
0.6676

> <Gold.Rescore>
     Score         DG    S(hbond)    S(metal)    S(lipo)     H(rot)  DE(clash)    DE(int)     intcor
     14.26     -15.26       1.60        0.00      75.01       1.69       0.30       0.70       ----

> <Gold.Chemscore.Fitness>
14.2611

> <Gold.Chemscore.DG>
-15.2623

> <Gold.Chemscore.ZeroCoef>
-5.4800

> <Gold.Chemscore.Hbond>
1.5989

> <Gold.Chemscore.Metal>
0.0000

> <Gold.Chemscore.Lipo>
75.0141

> <Gold.Chemscore.Internal_Hbond>
0.0000

> <Gold.Chemscore.DEClash>
0.3030

> <Gold.Chemscore.DEInternal>
0.6982

> <Gold.Chemscore.Rot>
1.6933

> <Gold.Chemscore.Internal.Correction>
   9.000000E+99

> <Gold.Chemscore.Hbonds>
donor molecule, donor type, donor heavy atom, donor atom, acceptor molecule, acceptor atom, score
      L1  H     7    27       P1  8028  0.93
      P1  H  7989  7998       L1     9  0.39

> <Gold.Chemscore.Hbond.Weighted>
-5.3404

> <Gold.Chemscore.Metal.Weighted>
-0.0000

> <Gold.Chemscore.Lipo.Weighted>
-8.7766

> <Gold.Chemscore.Internal_Hbond.Weighted>
0.0000

> <Gold.Chemscore.DEClash.Weighted>
0.3030

> <Gold.Chemscore.DEInternal.Weighted>
0.6982

> <Gold.Chemscore.Rot.Weighted>
4.3348

> <Gold.Chemscore.Internal.Correction.Weighted>
   9.000000E+99

> <Gold.Protein.RotatedTorsions>
[ 6907 6896 6895 6894 ] final   89.23 input  -60.11 | X-H torsion
[ 7974 7965 7964 7962 ] final  113.08 input  175.53 | X-H torsion
[ 8008 7997 7996 7995 ] final  -82.44 input   59.86 | X-H torsion
[ 10167 10162 10161 10158 ] final  111.54 input  -65.29 | X-H torsion
[ 10718 10713 10712 10709 ] final -155.14 input   66.30 | X-H torsion
[ 10763 10752 10751 10750 ] final  -39.46 input  -60.55 | X-H torsion
[ 11005 11000 10999 10996 ] final  114.15 input  -57.11 | X-H torsion

> <Gold.Protein.ActiveResidues>
 VAL166  LYS551  ARG553  GLY616  TRP617  ASP618  TYR619  PRO620  LYS621  CYS622 
 ASP623  PHE694  ASN695  SER759  ASP760  ASP761  ALA762  ILE779  LEU786  VAL792 
 PHE793  MET794  SER795  GLU796  ALA797  LYS798  CYS799  TRP800  GLU811  SER814 

> <Gold.Protein.RotatedAtoms>
  152.5434  134.1998  159.8707 H   0  0  0  0  0  0  0  0  0  0  0  0  # atno 6907 bound_to 6896
  151.1987  133.4616  159.2603 H   0  0  0  0  0  0  0  0  0  0  0  0  # atno 6908 bound_to 6896
  151.1010  134.9985  159.8504 H   0  0  0  0  0  0  0  0  0  0  0  0  # atno 6909 bound_to 6896
  145.2215  139.2860  143.4216 H   0  0  0  0  0  0  0  0  0  0  0  0  # atno 7974 bound_to 7965
  154.6086  140.0633  156.9464 H   0  0  0  0  0  0  0  0  0  0  0  0  # atno 8008 bound_to 7997
  155.2011  140.3315  155.4325 H   0  0  0  0  0  0  0  0  0  0  0  0  # atno 8009 bound_to 7997
  156.2363  140.1864  156.7094 H   0  0  0  0  0  0  0  0  0  0  0  0  # atno 8010 bound_to 7997
  139.6603  144.7129  151.1877 H   0  0  0  0  0  0  0  0  0  0  0  0  # atno 10167 bound_to 10162
  156.5088  130.8425  151.2638 H   0  0  0  0  0  0  0  0  0  0  0  0  # atno 10718 bound_to 10713
  153.9297  135.6773  153.4746 H   0  0  0  0  0  0  0  0  0  0  0  0  # atno 10763 bound_to 10752
  153.0986  135.4839  154.8821 H   0  0  0  0  0  0  0  0  0  0  0  0  # atno 10764 bound_to 10752
  154.7434  135.3166  154.8645 H   0  0  0  0  0  0  0  0  0  0  0  0  # atno 10765 bound_to 10752
  139.8972  134.9563  156.6848 H   0  0  0  0  0  0  0  0  0  0  0  0  # atno 11005 bound_to 11000
  146.3375  140.2522  142.8599 LP  0  0  0  0  0  0  0  0  0  0  0  0  # atno 17320 bound_to 7965
  144.9761  140.8415  143.5425 LP  0  0  0  0  0  0  0  0  0  0  0  0  # atno 17321 bound_to 7965
  140.7577  143.6005  150.8705 LP  0  0  0  0  0  0  0  0  0  0  0  0  # atno 17342 bound_to 10162
  139.9661  143.6108  152.2988 LP  0  0  0  0  0  0  0  0  0  0  0  0  # atno 17343 bound_to 10162
  157.7453  130.9956  150.2751 LP  0  0  0  0  0  0  0  0  0  0  0  0  # atno 17370 bound_to 10713
  156.3260  130.3793  149.7532 LP  0  0  0  0  0  0  0  0  0  0  0  0  # atno 17371 bound_to 10713
  140.7271  133.9091  155.8186 LP  0  0  0  0  0  0  0  0  0  0  0  0  # atno 17394 bound_to 11000
  141.0182  134.0925  157.4149 LP  0  0  0  0  0  0  0  0  0  0  0  0  # atno 17395 bound_to 11000

$$$$
