AV-unprocessed.smi:240|AV-procd|sdf|1833|dock9
  -GOLD-   2262020443D 1   1.00000     0.00000
 Structure written by MMmdl.
 55 59  0  0  0  0  0  0  0  0  1 V2000
  149.6543  140.7103  153.3868 O   0  0  0  0  0  0  0  0  0  0  0  0
  150.1331  140.0218  154.5243 C   0  0  1  0  0  0  0  0  0  0  0  0
  150.8330  141.0499  155.4212 C   0  0  0  0  0  0  0  0  0  0  0  0
  149.7285  141.6576  156.3040 C   0  0  0  0  0  0  0  0  0  0  0  0
  148.5059  140.7331  156.1789 C   0  0  0  0  0  0  0  0  0  0  0  0
  149.0167  139.4875  155.4400 C   0  0  1  0  0  0  0  0  0  0  0  0
  147.9427  138.5126  154.8506 C   0  0  2  0  0  0  0  0  0  0  0  0
  146.9781  139.1711  153.8272 C   0  0  0  0  0  0  0  0  0  0  0  0
  146.0022  138.2421  153.3712 O   0  0  0  0  0  0  0  0  0  0  0  0
  145.1859  137.7689  154.4308 C   0  0  0  0  0  0  0  0  0  0  0  0
  146.0736  137.0080  155.4196 C   0  0  0  0  0  0  0  0  0  0  0  0
  147.1452  137.8683  155.9089 N   0  0  0  0  0  0  0  0  0  0  0  0
  147.8148  137.2380  156.9018 C   0  0  0  0  0  0  0  0  0  0  0  0
  149.1694  137.1312  156.8557 N   0  0  0  0  0  0  0  0  0  0  0  0
  149.8216  136.5007  157.8372 C   0  0  0  0  0  0  0  0  0  0  0  0
  149.3234  135.9123  158.9275 N   0  0  0  0  0  0  0  0  0  0  0  0
  147.9630  136.0092  158.9673 C   0  0  0  0  0  0  0  0  0  0  0  0
  147.1384  136.6506  158.0022 C   0  0  0  0  0  0  0  0  0  0  0  0
  145.8041  136.5579  158.3742 N   0  0  0  0  0  0  0  0  0  0  0  0
  145.8371  135.8970  159.4993 C   0  0  0  0  0  0  0  0  0  0  0  0
  147.0917  135.5190  159.9248 N   0  0  0  0  0  0  0  0  0  0  0  0
  147.4155  134.7784  161.1353 C   0  0  0  0  0  0  0  0  0  0  0  0
  147.0305  135.5184  162.4394 C   0  0  2  0  0  0  0  0  0  0  0  0
  147.5160  134.7790  163.5458 O   0  0  0  0  0  0  0  0  0  0  0  0
  145.5172  135.6949  162.5847 C   0  0  0  0  0  0  0  0  0  0  0  0
  145.3066  137.1857  162.3503 C   0  0  0  0  0  0  0  0  0  0  0  0
  146.4674  137.7559  162.9273 O   0  0  0  0  0  0  0  0  0  0  0  0
  147.5704  136.9612  162.5157 C   0  0  0  0  0  0  0  0  0  0  0  0
  149.5455  140.0873  152.6844 H   0  0  0  0  0  0  0  0  0  0  0  0
  150.8126  139.2319  154.2025 H   0  0  0  0  0  0  0  0  0  0  0  0
  151.5521  140.5338  156.0588 H   0  0  0  0  0  0  0  0  0  0  0  0
  151.3886  141.8032  154.8610 H   0  0  0  0  0  0  0  0  0  0  0  0
  150.0644  141.7336  157.3388 H   0  0  0  0  0  0  0  0  0  0  0  0
  149.4743  142.6642  155.9702 H   0  0  0  0  0  0  0  0  0  0  0  0
  148.0794  140.4847  157.1512 H   0  0  0  0  0  0  0  0  0  0  0  0
  147.7316  141.2393  155.6036 H   0  0  0  0  0  0  0  0  0  0  0  0
  149.5721  138.9199  156.1871 H   0  0  0  0  0  0  0  0  0  0  0  0
  148.4738  137.7193  154.3222 H   0  0  0  0  0  0  0  0  0  0  0  0
  146.4748  140.0419  154.2476 H   0  0  0  0  0  0  0  0  0  0  0  0
  147.5113  139.5045  152.9404 H   0  0  0  0  0  0  0  0  0  0  0  0
  144.6704  138.5977  154.9189 H   0  0  0  0  0  0  0  0  0  0  0  0
  144.4210  137.1073  154.0245 H   0  0  0  0  0  0  0  0  0  0  0  0
  145.4678  136.6490  156.2531 H   0  0  0  0  0  0  0  0  0  0  0  0
  146.5028  136.1313  154.9319 H   0  0  0  0  0  0  0  0  0  0  0  0
  150.8958  136.4600  157.7334 H   0  0  0  0  0  0  0  0  0  0  0  0
  144.9393  135.6609  160.0521 H   0  0  0  0  0  0  0  0  0  0  0  0
  146.9084  133.8137  161.0925 H   0  0  0  0  0  0  0  0  0  0  0  0
  148.4841  134.5599  161.1251 H   0  0  0  0  0  0  0  0  0  0  0  0
  148.0967  135.3341  164.0438 H   0  0  0  0  0  0  0  0  0  0  0  0
  144.9381  135.0812  161.8937 H   0  0  0  0  0  0  0  0  0  0  0  0
  145.1883  135.4466  163.5953 H   0  0  0  0  0  0  0  0  0  0  0  0
  145.2720  137.4150  161.2837 H   0  0  0  0  0  0  0  0  0  0  0  0
  144.3959  137.5621  162.8164 H   0  0  0  0  0  0  0  0  0  0  0  0
  148.4196  137.0768  163.1906 H   0  0  0  0  0  0  0  0  0  0  0  0
  147.8813  137.3184  161.5338 H   0  0  0  0  0  0  0  0  0  0  0  0
  1  2  1  0  0  0  0
  1 29  1  0  0  0  0
  2  6  1  0  0  0  0
  2  3  1  0  0  0  0
  2 30  1  0  0  0  0
  3  4  1  0  0  0  0
  3 31  1  0  0  0  0
  3 32  1  0  0  0  0
  4  5  1  0  0  0  0
  4 33  1  0  0  0  0
  4 34  1  0  0  0  0
  5  6  1  0  0  0  0
  5 35  1  0  0  0  0
  5 36  1  0  0  0  0
  6  7  1  0  0  0  0
  6 37  1  0  0  0  0
  7 12  1  0  0  0  0
  7  8  1  0  0  0  0
  7 38  1  0  0  0  0
  8  9  1  0  0  0  0
  8 39  1  0  0  0  0
  8 40  1  0  0  0  0
  9 10  1  0  0  0  0
 10 11  1  0  0  0  0
 10 41  1  0  0  0  0
 10 42  1  0  0  0  0
 11 12  1  0  0  0  0
 11 43  1  0  0  0  0
 11 44  1  0  0  0  0
 12 13  1  0  0  0  0
 13 18  1  0  0  0  0
 13 14  2  0  0  0  0
 14 15  1  0  0  0  0
 15 16  2  0  0  0  0
 15 45  1  0  0  0  0
 16 17  1  0  0  0  0
 17 21  1  0  0  0  0
 17 18  2  0  0  0  0
 18 19  1  0  0  0  0
 19 20  2  0  0  0  0
 20 21  1  0  0  0  0
 20 46  1  0  0  0  0
 21 22  1  0  0  0  0
 22 23  1  0  0  0  0
 22 47  1  0  0  0  0
 22 48  1  0  0  0  0
 23 28  1  0  0  0  0
 23 24  1  0  0  0  0
 23 25  1  0  0  0  0
 24 49  1  0  0  0  0
 25 26  1  0  0  0  0
 25 50  1  0  0  0  0
 25 51  1  0  0  0  0
 26 27  1  0  0  0  0
 26 52  1  0  0  0  0
 26 53  1  0  0  0  0
 27 28  1  0  0  0  0
 28 54  1  0  0  0  0
 28 55  1  0  0  0  0
M  END
> <s_m_source_file>
AV-unprocessed.smi

> <i_m_source_file_index>
240

> <i_lp_mmshare_version>
43012

> <i_f3d_flags>
0

> <s_epik_input>
W09IXVtDQEBIXTFbQ0gyXVtDSDJdW0NIMl1bQ0BIXTFbQ0BASF0yW0NIMl1PW0NIMl1bQ0gyXU4yYyhuW2NIXW4zKWMoYzM0KW5bY0hdbjRbQ0gyXVtDQEBdNShbT0hdKVtDSDJdW0NIMl1PW0NIMl01

> <s_epik_cmdline>
J2VwaWtfcHl0aG9uJywgJy1waCcsICc3LjAnLCAnLXRuJywgJzgnLCAnLW1hJywgJzIwMCcsICctbWV0YWxfYmluZGluZycsICctaW1hZScsICc8aW5maWxlLm1hZT4nLCAnLW9tYWUnLCAnPG91dGZpbGUubWFlPic=

> <r_lp_tautomer_probability>
1

> <r_epik_Ionization_Penalty>
0.000130618

> <r_epik_Ionization_Penalty_Charging>
0

> <r_epik_Ionization_Penalty_Neutral>
0.000130618

> <r_epik_State_Penalty>
-0

> <r_epik_Charging_Adjusted_Penalty>
0

> <i_epik_Tot_Q>
0

> <i_epik_Tot_abs_Q>
0

> <r_epik_Metal_State_Penalty>
-0

> <b_epik_Metal_Only>
0

> <s_lp_Force_Field>
OPLS_2005

> <r_lp_Energy>
64.6726

> <b_lp_Chiralities_Consistent>
1

> <s_lp_Variant>
AV-unprocessed.smi:240-10

> <Gold.Version>
5.8.1

> <Gold.Id.Protein>
6NUR|6NUR_protein|mol2

> <Gold.PLP.Fitness>
38.5345

> <Gold.PLP.PLP>
-30.9864

> <Gold.PLP.part.hbond>
-5.6886

> <Gold.PLP.part.metal>
0.0000

> <Gold.PLP.part.buried>
-1.5691

> <Gold.PLP.part.nonpolar>
-21.6664

> <Gold.PLP.part.repulsive>
0.2308

> <Gold.PLP.ligand.clash>
0.0000

> <Gold.PLP.ligand.torsion>
0.2045

> <Gold.PLP.Chemscore.Hbond>
2.5780

> <Gold.PLP.Chemscore.CHOScore>
0.0000

> <Gold.PLP.Chemscore.Metal>
0.0000

> <Gold.Chemscore.Hbonds>
donor molecule, donor type, donor heavy atom, donor atom, acceptor molecule, acceptor atom, score
      L1  H     1    29       P1  7957  0.78
      P1  H  6896  6907       L1    16  1.00
      P1  H  8011  8017       L1     1  1.00

> <Gold.PLP.Chemscore.Internal.Correction>
0.2230

> <Gold.Rescore>
     Score         DG    S(hbond)    S(metal)    S(lipo)     H(rot)  DE(clash)    DE(int)     intcor
      9.68     -12.65       1.91        0.00      72.60       3.00       0.51       2.46       ----

> <Gold.Chemscore.Fitness>
9.6789

> <Gold.Chemscore.DG>
-12.6481

> <Gold.Chemscore.ZeroCoef>
-5.4800

> <Gold.Chemscore.Hbond>
1.9055

> <Gold.Chemscore.Metal>
0.0000

> <Gold.Chemscore.Lipo>
72.5961

> <Gold.Chemscore.Internal_Hbond>
0.0000

> <Gold.Chemscore.DEClash>
0.5140

> <Gold.Chemscore.DEInternal>
2.4552

> <Gold.Chemscore.Rot>
3.0039

> <Gold.Chemscore.Internal.Correction>
   9.000000E+99

> <Gold.Chemscore.Hbonds>
donor molecule, donor type, donor heavy atom, donor atom, acceptor molecule, acceptor atom, score
      L1  H     1    29       P1  7957  0.72
      P1  H  6896  6907       L1    16  0.54
      P1  H  8011  8017       L1     1  0.24

> <Gold.Chemscore.Hbond.Weighted>
-6.3643

> <Gold.Chemscore.Metal.Weighted>
-0.0000

> <Gold.Chemscore.Lipo.Weighted>
-8.4937

> <Gold.Chemscore.Internal_Hbond.Weighted>
0.0000

> <Gold.Chemscore.DEClash.Weighted>
0.5140

> <Gold.Chemscore.DEInternal.Weighted>
2.4552

> <Gold.Chemscore.Rot.Weighted>
7.6899

> <Gold.Chemscore.Internal.Correction.Weighted>
   9.000000E+99

> <Gold.Protein.RotatedTorsions>
[ 6907 6896 6895 6894 ] final  -54.72 input  -60.11 | X-H torsion
[ 7974 7965 7964 7962 ] final  120.32 input  175.53 | X-H torsion
[ 8008 7997 7996 7995 ] final  170.43 input   59.86 | X-H torsion
[ 10167 10162 10161 10158 ] final  -89.40 input  -65.29 | X-H torsion
[ 10718 10713 10712 10709 ] final -153.26 input   66.30 | X-H torsion
[ 10763 10752 10751 10750 ] final  127.04 input  -60.55 | X-H torsion
[ 11005 11000 10999 10996 ] final -119.61 input  -57.11 | X-H torsion

> <Gold.Protein.ActiveResidues>
 VAL166  LYS551  ARG553  GLY616  TRP617  ASP618  TYR619  PRO620  LYS621  CYS622 
 ASP623  PHE694  ASN695  SER759  ASP760  ASP761  ALA762  ILE779  LEU786  VAL792 
 PHE793  MET794  SER795  GLU796  ALA797  LYS798  CYS799  TRP800  GLU811  SER814 

> <Gold.Protein.RotatedAtoms>
  150.8314  134.7568  159.6856 H   0  0  0  0  0  0  0  0  0  0  0  0  # atno 6907 bound_to 6896
  152.4418  134.5573  159.9894 H   0  0  0  0  0  0  0  0  0  0  0  0  # atno 6908 bound_to 6896
  151.5733  133.3349  159.3030 H   0  0  0  0  0  0  0  0  0  0  0  0  # atno 6909 bound_to 6896
  145.1325  139.3318  143.4658 H   0  0  0  0  0  0  0  0  0  0  0  0  # atno 7974 bound_to 7965
  156.1366  140.1538  156.8985 H   0  0  0  0  0  0  0  0  0  0  0  0  # atno 8008 bound_to 7997
  154.4952  140.0840  156.7720 H   0  0  0  0  0  0  0  0  0  0  0  0  # atno 8009 bound_to 7997
  155.4158  140.3421  155.4269 H   0  0  0  0  0  0  0  0  0  0  0  0  # atno 8010 bound_to 7997
  140.3652  143.2822  151.9567 H   0  0  0  0  0  0  0  0  0  0  0  0  # atno 10167 bound_to 10162
  156.4834  130.8314  151.2540 H   0  0  0  0  0  0  0  0  0  0  0  0  # atno 10718 bound_to 10713
  153.7030  135.3280  155.3229 H   0  0  0  0  0  0  0  0  0  0  0  0  # atno 10763 bound_to 10752
  154.8407  135.4458  154.1392 H   0  0  0  0  0  0  0  0  0  0  0  0  # atno 10764 bound_to 10752
  153.2464  135.6976  153.7805 H   0  0  0  0  0  0  0  0  0  0  0  0  # atno 10765 bound_to 10752
  141.0203  134.0134  157.3292 H   0  0  0  0  0  0  0  0  0  0  0  0  # atno 11005 bound_to 11000
  146.3512  140.1330  142.8596 LP  0  0  0  0  0  0  0  0  0  0  0  0  # atno 17320 bound_to 7965
  145.0620  140.9094  143.4933 LP  0  0  0  0  0  0  0  0  0  0  0  0  # atno 17321 bound_to 7965
  139.4809  144.5957  151.7695 LP  0  0  0  0  0  0  0  0  0  0  0  0  # atno 17342 bound_to 10162
  140.5088  144.1057  150.5989 LP  0  0  0  0  0  0  0  0  0  0  0  0  # atno 17343 bound_to 10162
  157.7481  131.0037  150.3049 LP  0  0  0  0  0  0  0  0  0  0  0  0  # atno 17370 bound_to 10713
  156.3499  130.3829  149.7338 LP  0  0  0  0  0  0  0  0  0  0  0  0  # atno 17371 bound_to 10713
  139.9142  135.0194  156.7814 LP  0  0  0  0  0  0  0  0  0  0  0  0  # atno 17394 bound_to 11000
  140.6584  133.9667  155.7792 LP  0  0  0  0  0  0  0  0  0  0  0  0  # atno 17395 bound_to 11000

$$$$
