AV-unprocessed.smi:101|AV-procd|sdf|913|dock8
  -GOLD-   2262017413D 1   1.00000     0.00000
 Structure written by MMmdl.
 44 46  0  0  0  0  0  0  0  0  1 V2000
  140.8468  137.7994  153.0296 C   0  0  0  0  0  0  0  0  0  0  0  0
  141.9869  136.8095  153.2074 C   0  0  0  0  0  0  0  0  0  0  0  0
  143.2746  137.1221  152.9118 C   0  0  0  0  0  0  0  0  0  0  0  0
  144.3405  136.2387  153.0597 N   0  0  0  0  0  0  0  0  0  0  0  0
  145.7796  136.6263  152.7523 C   0  0  2  0  0  0  0  0  0  0  0  0
  146.4128  137.0141  153.9341 O   0  0  0  0  0  0  0  0  0  0  0  0
  146.3163  138.4264  154.0699 C   0  0  1  0  0  0  0  0  0  0  0  0
  147.2444  138.9386  155.1778 C   0  0  0  0  0  0  0  0  0  0  0  0
  146.8665  140.2750  155.4608 O   0  0  0  0  0  0  0  0  0  0  0  0
  147.1344  141.2624  154.5894 C   0  0  0  0  0  0  0  0  0  0  0  0
  148.0613  141.2253  153.7779 O   0  0  0  0  0  0  0  0  0  0  0  0
  146.1872  142.4079  154.7134 C   0  0  0  0  0  0  0  0  0  0  0  0
  145.5372  142.6415  155.9474 C   0  0  0  0  0  0  0  0  0  0  0  0
  144.6365  143.7149  156.0916 C   0  0  0  0  0  0  0  0  0  0  0  0
  144.3748  144.5676  155.0031 C   0  0  0  0  0  0  0  0  0  0  0  0
  145.0148  144.3458  153.7699 C   0  0  0  0  0  0  0  0  0  0  0  0
  145.9159  143.2734  153.6241 C   0  0  0  0  0  0  0  0  0  0  0  0
  146.6112  138.8946  152.6453 C   0  0  1  0  0  0  0  0  0  0  0  0
  148.0095  138.8870  152.4045 O   0  0  0  0  0  0  0  0  0  0  0  0
  145.8486  137.8582  151.8146 C   0  0  1  0  0  0  0  0  0  0  0  0
  146.4678  137.5863  150.5711 O   0  0  0  0  0  0  0  0  0  0  0  0
  144.0957  134.9607  153.6051 C   0  0  0  0  0  0  0  0  0  0  0  0
  144.9925  134.1469  153.8227 O   0  0  0  0  0  0  0  0  0  0  0  0
  142.7733  134.6362  153.9003 N   0  0  0  0  0  0  0  0  0  0  0  0
  141.6720  135.4774  153.7289 C   0  0  0  0  0  0  0  0  0  0  0  0
  140.5473  135.0732  154.0193 O   0  0  0  0  0  0  0  0  0  0  0  0
  142.5962  133.7164  154.2766 H   0  0  0  0  0  0  0  0  0  0  0  0
  141.1966  138.7593  152.6484 H   0  0  0  0  0  0  0  0  0  0  0  0
  140.3484  137.9812  153.9823 H   0  0  0  0  0  0  0  0  0  0  0  0
  140.1100  137.4100  152.3263 H   0  0  0  0  0  0  0  0  0  0  0  0
  143.4566  138.1215  152.5469 H   0  0  0  0  0  0  0  0  0  0  0  0
  146.2432  135.7202  152.3577 H   0  0  0  0  0  0  0  0  0  0  0  0
  145.2866  138.6982  154.3116 H   0  0  0  0  0  0  0  0  0  0  0  0
  147.1704  138.3141  156.0693 H   0  0  0  0  0  0  0  0  0  0  0  0
  148.2814  138.9236  154.8400 H   0  0  0  0  0  0  0  0  0  0  0  0
  145.7217  141.9996  156.7970 H   0  0  0  0  0  0  0  0  0  0  0  0
  144.1457  143.8836  157.0387 H   0  0  0  0  0  0  0  0  0  0  0  0
  143.6841  145.3903  155.1142 H   0  0  0  0  0  0  0  0  0  0  0  0
  144.8148  144.9991  152.9333 H   0  0  0  0  0  0  0  0  0  0  0  0
  146.3892  143.1321  152.6633 H   0  0  0  0  0  0  0  0  0  0  0  0
  146.2404  139.9045  152.4663 H   0  0  0  0  0  0  0  0  0  0  0  0
  148.2534  138.0398  152.0647 H   0  0  0  0  0  0  0  0  0  0  0  0
  144.8403  138.2320  151.6302 H   0  0  0  0  0  0  0  0  0  0  0  0
  145.8883  137.8721  149.8811 H   0  0  0  0  0  0  0  0  0  0  0  0
  1  2  1  0  0  0  0
  1 28  1  0  0  0  0
  1 29  1  0  0  0  0
  1 30  1  0  0  0  0
  2 25  1  0  0  0  0
  2  3  2  0  0  0  0
  3  4  1  0  0  0  0
  3 31  1  0  0  0  0
  4  5  1  0  0  0  0
  4 22  1  0  0  0  0
  5 20  1  0  0  0  0
  5  6  1  0  0  0  0
  5 32  1  0  0  0  0
  6  7  1  0  0  0  0
  7  8  1  0  0  0  0
  7 18  1  0  0  0  0
  7 33  1  0  0  0  0
  8  9  1  0  0  0  0
  8 34  1  0  0  0  0
  8 35  1  0  0  0  0
  9 10  1  0  0  0  0
 10 11  2  0  0  0  0
 10 12  1  0  0  0  0
 12 17  1  0  0  0  0
 12 13  2  0  0  0  0
 13 14  1  0  0  0  0
 13 36  1  0  0  0  0
 14 15  2  0  0  0  0
 14 37  1  0  0  0  0
 15 16  1  0  0  0  0
 15 38  1  0  0  0  0
 16 17  2  0  0  0  0
 16 39  1  0  0  0  0
 17 40  1  0  0  0  0
 18 19  1  0  0  0  0
 18 20  1  0  0  0  0
 18 41  1  0  0  0  0
 19 42  1  0  0  0  0
 20 21  1  0  0  0  0
 20 43  1  0  0  0  0
 21 44  1  0  0  0  0
 22 23  2  0  0  0  0
 22 24  1  0  0  0  0
 24 27  1  0  0  0  0
 24 25  1  0  0  0  0
 25 26  2  0  0  0  0
M  END
> <s_m_source_file>
AV-unprocessed.smi

> <i_m_source_file_index>
101

> <i_lp_mmshare_version>
43012

> <i_f3d_flags>
0

> <s_epik_input>
Tz1jMVtuSF1jKD1PKW4oW2NIXWMxW0NIM10pW0NAQEhdMk9bQ0BIXShbQ0BASF0oW09IXSlbQ0BIXTJbT0hdKVtDSDJdT0MoPU8pYzNbY0hdW2NIXVtjSF1bY0hdW2NIXTM=

> <s_epik_cmdline>
J2VwaWtfcHl0aG9uJywgJy1waCcsICc3LjAnLCAnLXRuJywgJzgnLCAnLW1hJywgJzIwMCcsICctbWV0YWxfYmluZGluZycsICctaW1hZScsICc8aW5maWxlLm1hZT4nLCAnLW9tYWUnLCAnPG91dGZpbGUubWFlPic=

> <r_lp_tautomer_probability>
0.999537

> <r_epik_Ionization_Penalty>
0.00263537

> <r_epik_Ionization_Penalty_Charging>
0.00263428

> <r_epik_Ionization_Penalty_Neutral>
1.09111e-06

> <r_epik_State_Penalty>
0.00183335

> <r_epik_Charging_Adjusted_Penalty>
0.00446763

> <i_epik_Tot_Q>
0

> <i_epik_Tot_abs_Q>
0

> <r_epik_Metal_State_Penalty>
1.00528

> <b_epik_Metal_Only>
0

> <s_epik_Chemistry_Notes>
This compound has an ester and may undergo hydrolysis at high or low pH. This compound contains an acetal/aminal-like group ( X-CH(R)-Y where X, Y are N, S, or O) that may be acid/base labile, releasing an aldehyde.

> <s_lp_Force_Field>
OPLS_2005

> <r_lp_Energy>
35.8118

> <b_lp_Chiralities_Consistent>
1

> <s_lp_Variant>
AV-unprocessed.smi:101-1

> <Gold.Version>
5.8.1

> <Gold.Id.Protein>
6NUR|6NUR_protein|mol2

> <Gold.PLP.Fitness>
57.1452

> <Gold.PLP.PLP>
-42.2904

> <Gold.PLP.part.hbond>
-7.2943

> <Gold.PLP.part.metal>
0.0000

> <Gold.PLP.part.buried>
-8.6667

> <Gold.PLP.part.nonpolar>
-27.6971

> <Gold.PLP.part.repulsive>
0.5883

> <Gold.PLP.ligand.clash>
0.0000

> <Gold.PLP.ligand.torsion>
1.3442

> <Gold.PLP.Chemscore.Hbond>
4.4752

> <Gold.PLP.Chemscore.CHOScore>
1.3543

> <Gold.PLP.Chemscore.Metal>
0.0000

> <Gold.Chemscore.Hbonds>
donor molecule, donor type, donor heavy atom, donor atom, acceptor molecule, acceptor atom, score
      L1  H    19    42       P1  7948  1.00
      L1  H    21    44       P1 10171  0.56
      L1  H    24    27       P1 10957  1.00
      P1  H  7954  7966       L1    21  0.98
      P1  H 11000 11005       L1    26  1.00
      L1  C     3    31       P1 10171  0.29
      L1  C     3    31       P1 10175  1.00

> <Gold.PLP.Chemscore.Internal.Correction>
0.0547

> <Gold.Rescore>
     Score         DG    S(hbond)    S(metal)    S(lipo)     H(rot)  DE(clash)    DE(int)     intcor
     15.70     -19.42       4.40        0.00      66.02       3.32       1.19       2.53       ----

> <Gold.Chemscore.Fitness>
15.6957

> <Gold.Chemscore.DG>
-19.4180

> <Gold.Chemscore.ZeroCoef>
-5.4800

> <Gold.Chemscore.Hbond>
4.4029

> <Gold.Chemscore.Metal>
0.0000

> <Gold.Chemscore.Lipo>
66.0201

> <Gold.Chemscore.Internal_Hbond>
0.0000

> <Gold.Chemscore.DEClash>
1.1877

> <Gold.Chemscore.DEInternal>
2.5346

> <Gold.Chemscore.Rot>
3.3172

> <Gold.Chemscore.Internal.Correction>
   9.000000E+99

> <Gold.Chemscore.Hbonds>
donor molecule, donor type, donor heavy atom, donor atom, acceptor molecule, acceptor atom, score
      L1  H    19    42       P1  7948  1.00
      L1  H    21    44       P1 10171  0.55
      L1  H    24    27       P1 10957  0.95
      P1  H  7954  7966       L1    21  0.42
      P1  H 11000 11005       L1    26  0.96

> <Gold.Chemscore.Hbond.Weighted>
-14.7056

> <Gold.Chemscore.Metal.Weighted>
-0.0000

> <Gold.Chemscore.Lipo.Weighted>
-7.7243

> <Gold.Chemscore.Internal_Hbond.Weighted>
0.0000

> <Gold.Chemscore.DEClash.Weighted>
1.1877

> <Gold.Chemscore.DEInternal.Weighted>
2.5346

> <Gold.Chemscore.Rot.Weighted>
8.4920

> <Gold.Chemscore.Internal.Correction.Weighted>
   9.000000E+99

> <Gold.Protein.RotatedTorsions>
[ 6907 6896 6895 6894 ] final -111.69 input  -60.11 | X-H torsion
[ 7974 7965 7964 7962 ] final -173.92 input  175.53 | X-H torsion
[ 8008 7997 7996 7995 ] final  -27.36 input   59.86 | X-H torsion
[ 10167 10162 10161 10158 ] final  -99.14 input  -65.29 | X-H torsion
[ 10718 10713 10712 10709 ] final  -88.64 input   66.30 | X-H torsion
[ 10763 10752 10751 10750 ] final   26.75 input  -60.55 | X-H torsion
[ 11005 11000 10999 10996 ] final   31.27 input  -57.11 | X-H torsion

> <Gold.Protein.ActiveResidues>
 VAL166  LYS551  ARG553  GLY616  TRP617  ASP618  TYR619  PRO620  LYS621  CYS622 
 ASP623  PHE694  ASN695  SER759  ASP760  ASP761  ALA762  ILE779  LEU786  VAL792 
 PHE793  MET794  SER795  GLU796  ALA797  LYS798  CYS799  TRP800  GLU811  SER814 

> <Gold.Protein.RotatedAtoms>
  150.7708  133.9198  159.3394 H   0  0  0  0  0  0  0  0  0  0  0  0  # atno 6907 bound_to 6896
  151.7085  135.0915  160.0273 H   0  0  0  0  0  0  0  0  0  0  0  0  # atno 6908 bound_to 6896
  152.3724  133.6398  159.6133 H   0  0  0  0  0  0  0  0  0  0  0  0  # atno 6909 bound_to 6896
  144.7135  140.1549  143.6381 H   0  0  0  0  0  0  0  0  0  0  0  0  # atno 7974 bound_to 7965
  154.4381  140.1874  156.0919 H   0  0  0  0  0  0  0  0  0  0  0  0  # atno 8008 bound_to 7997
  156.0359  140.3325  155.7164 H   0  0  0  0  0  0  0  0  0  0  0  0  # atno 8009 bound_to 7997
  155.5771  140.0618  157.2783 H   0  0  0  0  0  0  0  0  0  0  0  0  # atno 8010 bound_to 7997
  140.2656  143.3378  152.0584 H   0  0  0  0  0  0  0  0  0  0  0  0  # atno 10167 bound_to 10162
  155.9983  130.4843  150.5050 H   0  0  0  0  0  0  0  0  0  0  0  0  # atno 10718 bound_to 10713
  153.0601  135.6553  154.0483 H   0  0  0  0  0  0  0  0  0  0  0  0  # atno 10763 bound_to 10752
  154.0152  135.2925  155.3389 H   0  0  0  0  0  0  0  0  0  0  0  0  # atno 10764 bound_to 10752
  154.6935  135.5273  153.8494 H   0  0  0  0  0  0  0  0  0  0  0  0  # atno 10765 bound_to 10752
  140.2857  134.2922  155.7789 H   0  0  0  0  0  0  0  0  0  0  0  0  # atno 11005 bound_to 11000
  145.9083  139.2472  143.1452 LP  0  0  0  0  0  0  0  0  0  0  0  0  # atno 17320 bound_to 7965
  145.9742  140.8736  143.0147 LP  0  0  0  0  0  0  0  0  0  0  0  0  # atno 17321 bound_to 7965
  139.5004  144.6690  151.6287 LP  0  0  0  0  0  0  0  0  0  0  0  0  # atno 17342 bound_to 10162
  140.5931  143.9744  150.6337 LP  0  0  0  0  0  0  0  0  0  0  0  0  # atno 17343 bound_to 10162
  157.3030  131.0649  151.2055 LP  0  0  0  0  0  0  0  0  0  0  0  0  # atno 17370 bound_to 10713
  157.3027  130.6851  149.6173 LP  0  0  0  0  0  0  0  0  0  0  0  0  # atno 17371 bound_to 10713
  141.2155  133.7553  156.9548 LP  0  0  0  0  0  0  0  0  0  0  0  0  # atno 17394 bound_to 11000
  140.1242  134.9397  157.2247 LP  0  0  0  0  0  0  0  0  0  0  0  0  # atno 17395 bound_to 11000

$$$$
