AV-unprocessed.smi:3112|AV-procd|sdf|11845|dock4
  -GOLD-   2272017223D 1   1.00000     0.00000
 Structure written by MMmdl.
 36 36  0  0  0  0  0  0  0  0  1 V2000
  147.5758  141.8193  154.3943 C   0  0  0  0  0  0  0  0  0  0  0  0
  149.0694  141.5260  154.1989 C   0  0  0  0  0  0  0  0  0  0  0  0
  149.7214  140.8479  155.4204 C   0  0  1  0  0  0  0  0  0  0  0  0
  151.0599  140.4866  155.1438 O   0  0  0  0  0  0  0  0  0  0  0  0
  149.6855  141.6894  156.7102 C   0  0  0  0  0  0  0  0  0  0  0  0
  150.7318  142.7155  156.7363 N   0  0  0  0  0  0  0  0  0  0  0  0
  151.1871  143.1027  158.0750 C   0  0  2  0  0  0  0  0  0  0  0  0
  151.6588  144.5681  158.0169 C   0  0  0  0  0  0  0  0  0  0  0  0
  152.2968  142.1458  158.6060 C   0  0  2  0  0  0  0  0  0  0  0  0
  152.0055  140.6488  158.3917 C   0  0  0  0  0  0  0  0  0  0  0  0
  152.5938  142.3872  160.0130 N   0  0  0  0  0  0  0  0  0  0  0  0
  153.4969  141.7262  160.8202 C   0  0  0  0  0  0  0  0  0  0  0  0
  153.4309  142.2955  162.0595 C   0  0  0  0  0  0  0  0  0  0  0  0
  152.4446  143.3102  161.9130 C   0  0  0  0  0  0  0  0  0  0  0  0
  151.9453  143.3630  160.6892 N   0  0  0  0  0  0  0  0  0  0  0  0
  147.1636  142.3267  153.5218 H   0  0  0  0  0  0  0  0  0  0  0  0
  147.4095  142.4608  155.2602 H   0  0  0  0  0  0  0  0  0  0  0  0
  147.0062  140.9016  154.5415 H   0  0  0  0  0  0  0  0  0  0  0  0
  149.2015  140.9103  153.3085 H   0  0  0  0  0  0  0  0  0  0  0  0
  149.5822  142.4673  153.9981 H   0  0  0  0  0  0  0  0  0  0  0  0
  149.1861  139.9200  155.6244 H   0  0  0  0  0  0  0  0  0  0  0  0
  151.4880  140.2740  155.9586 H   0  0  0  0  0  0  0  0  0  0  0  0
  148.7121  142.1769  156.7770 H   0  0  0  0  0  0  0  0  0  0  0  0
  149.7466  141.0327  157.5755 H   0  0  0  0  0  0  0  0  0  0  0  0
  150.3994  143.5366  156.2412 H   0  0  0  0  0  0  0  0  0  0  0  0
  150.3421  143.0757  158.7648 H   0  0  0  0  0  0  0  0  0  0  0  0
  151.8892  144.9609  159.0072 H   0  0  0  0  0  0  0  0  0  0  0  0
  150.8861  145.2116  157.5949 H   0  0  0  0  0  0  0  0  0  0  0  0
  152.5516  144.6738  157.3997 H   0  0  0  0  0  0  0  0  0  0  0  0
  153.2136  142.3715  158.0586 H   0  0  0  0  0  0  0  0  0  0  0  0
  152.0281  140.3871  157.3344 H   0  0  0  0  0  0  0  0  0  0  0  0
  151.0318  140.3673  158.7938 H   0  0  0  0  0  0  0  0  0  0  0  0
  152.7583  140.0303  158.8816 H   0  0  0  0  0  0  0  0  0  0  0  0
  154.1063  140.9151  160.4491 H   0  0  0  0  0  0  0  0  0  0  0  0
  154.0005  142.0280  162.9371 H   0  0  0  0  0  0  0  0  0  0  0  0
  152.0789  144.0053  162.6543 H   0  0  0  0  0  0  0  0  0  0  0  0
  1  2  1  0  0  0  0
  1 16  1  0  0  0  0
  1 17  1  0  0  0  0
  1 18  1  0  0  0  0
  2  3  1  0  0  0  0
  2 19  1  0  0  0  0
  2 20  1  0  0  0  0
  3  4  1  0  0  0  0
  3  5  1  0  0  0  0
  3 21  1  0  0  0  0
  4 22  1  0  0  0  0
  5  6  1  0  0  0  0
  5 23  1  0  0  0  0
  5 24  1  0  0  0  0
  6  7  1  0  0  0  0
  6 25  1  0  0  0  0
  7  8  1  0  0  0  0
  7  9  1  0  0  0  0
  7 26  1  0  0  0  0
  8 27  1  0  0  0  0
  8 28  1  0  0  0  0
  8 29  1  0  0  0  0
  9 10  1  0  0  0  0
  9 11  1  0  0  0  0
  9 30  1  0  0  0  0
 10 31  1  0  0  0  0
 10 32  1  0  0  0  0
 10 33  1  0  0  0  0
 11 15  1  0  0  0  0
 11 12  1  0  0  0  0
 12 13  2  0  0  0  0
 12 34  1  0  0  0  0
 13 14  1  0  0  0  0
 13 35  1  0  0  0  0
 14 15  2  0  0  0  0
 14 36  1  0  0  0  0
M  END
> <s_m_source_file>
AV-unprocessed.smi

> <i_m_source_file_index>
3112

> <i_lp_mmshare_version>
43012

> <i_f3d_flags>
0

> <s_epik_input>
W0NIM11bQ0gyXVtDQEhdKFtPSF0pW0NIMl1bTkhdW0NASF0oW0NIM10pW0NASF0oW0NIM10pbjFbY0hdW2NIXVtjSF1uMQ==

> <s_epik_cmdline>
J2VwaWtfcHl0aG9uJywgJy1waCcsICc3LjAnLCAnLXRuJywgJzgnLCAnLW1hJywgJzIwMCcsICctbWV0YWxfYmluZGluZycsICctaW1hZScsICc8aW5maWxlLm1hZT4nLCAnLW9tYWUnLCAnPG91dGZpbGUubWFlPic=

> <r_lp_tautomer_probability>
1

> <r_epik_Ionization_Penalty>
2.16876

> <r_epik_Ionization_Penalty_Charging>
0

> <r_epik_Ionization_Penalty_Neutral>
2.16876

> <r_epik_State_Penalty>
2.30854

> <r_epik_Charging_Adjusted_Penalty>
2.30854

> <i_epik_Tot_Q>
0

> <i_epik_Tot_abs_Q>
0

> <r_epik_Metal_State_Penalty>
2.3073

> <b_epik_Metal_Only>
0

> <s_lp_Force_Field>
OPLS_2005

> <r_lp_Energy>
23.3328

> <b_lp_Chiralities_Consistent>
1

> <s_lp_Variant>
AV-unprocessed.smi:3112-10

> <Gold.Version>
5.8.1

> <Gold.Id.Protein>
6NUR|6NUR_protein|mol2

> <Gold.PLP.Fitness>
45.0700

> <Gold.PLP.PLP>
-40.6189

> <Gold.PLP.part.hbond>
-2.0000

> <Gold.PLP.part.metal>
0.0000

> <Gold.PLP.part.buried>
-4.1881

> <Gold.PLP.part.nonpolar>
-33.8198

> <Gold.PLP.part.repulsive>
0.0783

> <Gold.PLP.ligand.clash>
0.0000

> <Gold.PLP.ligand.torsion>
0.8540

> <Gold.PLP.Chemscore.Hbond>
2.0000

> <Gold.PLP.Chemscore.CHOScore>
0.0000

> <Gold.PLP.Chemscore.Metal>
0.0000

> <Gold.Chemscore.Hbonds>
donor molecule, donor type, donor heavy atom, donor atom, acceptor molecule, acceptor atom, score
      L1  H     6    25       P1  8028  1.00
      P1  H  7989  7998       L1     4  0.99

> <Gold.PLP.Chemscore.Internal.Correction>
0.1590

> <Gold.Rescore>
     Score         DG    S(hbond)    S(metal)    S(lipo)     H(rot)  DE(clash)    DE(int)     intcor
     14.98     -17.05       1.91        0.00      94.99       2.31       0.03       2.04       ----

> <Gold.Chemscore.Fitness>
14.9774

> <Gold.Chemscore.DG>
-17.0462

> <Gold.Chemscore.ZeroCoef>
-5.4800

> <Gold.Chemscore.Hbond>
1.9066

> <Gold.Chemscore.Metal>
0.0000

> <Gold.Chemscore.Lipo>
94.9889

> <Gold.Chemscore.Internal_Hbond>
0.0000

> <Gold.Chemscore.DEClash>
0.0292

> <Gold.Chemscore.DEInternal>
2.0396

> <Gold.Chemscore.Rot>
2.3108

> <Gold.Chemscore.Internal.Correction>
   9.000000E+99

> <Gold.Chemscore.Hbonds>
donor molecule, donor type, donor heavy atom, donor atom, acceptor molecule, acceptor atom, score
      L1  H     6    25       P1  8028  0.92
      P1  H  7989  7998       L1     4  0.88

> <Gold.Chemscore.Hbond.Weighted>
-6.3681

> <Gold.Chemscore.Metal.Weighted>
-0.0000

> <Gold.Chemscore.Lipo.Weighted>
-11.1137

> <Gold.Chemscore.Internal_Hbond.Weighted>
0.0000

> <Gold.Chemscore.DEClash.Weighted>
0.0292

> <Gold.Chemscore.DEInternal.Weighted>
2.0396

> <Gold.Chemscore.Rot.Weighted>
5.9157

> <Gold.Chemscore.Internal.Correction.Weighted>
   9.000000E+99

> <Gold.Protein.RotatedTorsions>
[ 6907 6896 6895 6894 ] final   96.71 input  -60.11 | X-H torsion
[ 7974 7965 7964 7962 ] final -163.15 input  175.53 | X-H torsion
[ 8008 7997 7996 7995 ] final -175.04 input   59.86 | X-H torsion
[ 10167 10162 10161 10158 ] final   62.96 input  -65.29 | X-H torsion
[ 10718 10713 10712 10709 ] final   18.13 input   66.30 | X-H torsion
[ 10763 10752 10751 10750 ] final  -52.53 input  -60.55 | X-H torsion
[ 11005 11000 10999 10996 ] final -171.31 input  -57.11 | X-H torsion

> <Gold.Protein.ActiveResidues>
 VAL166  LYS551  ARG553  GLY616  TRP617  ASP618  TYR619  PRO620  LYS621  CYS622 
 ASP623  PHE694  ASN695  SER759  ASP760  ASP761  ALA762  ILE779  LEU786  VAL792 
 PHE793  MET794  SER795  GLU796  ALA797  LYS798  CYS799  TRP800  GLU811  SER814 

> <Gold.Protein.RotatedAtoms>
  152.5432  134.0845  159.8249 H   0  0  0  0  0  0  0  0  0  0  0  0  # atno 6907 bound_to 6896
  151.0942  133.5285  159.2620 H   0  0  0  0  0  0  0  0  0  0  0  0  # atno 6908 bound_to 6896
  151.2064  135.0472  159.8947 H   0  0  0  0  0  0  0  0  0  0  0  0  # atno 6909 bound_to 6896
  144.7335  140.3149  143.6181 H   0  0  0  0  0  0  0  0  0  0  0  0  # atno 7974 bound_to 7965
  155.9777  140.1175  157.0755 H   0  0  0  0  0  0  0  0  0  0  0  0  # atno 8008 bound_to 7997
  154.4174  140.1150  156.5460 H   0  0  0  0  0  0  0  0  0  0  0  0  # atno 8009 bound_to 7997
  155.6513  140.3473  155.4751 H   0  0  0  0  0  0  0  0  0  0  0  0  # atno 8010 bound_to 7997
  140.1382  144.4578  150.6826 H   0  0  0  0  0  0  0  0  0  0  0  0  # atno 10167 bound_to 10162
  157.0920  130.6432  149.5851 H   0  0  0  0  0  0  0  0  0  0  0  0  # atno 10718 bound_to 10713
  154.1441  135.6500  153.4949 H   0  0  0  0  0  0  0  0  0  0  0  0  # atno 10763 bound_to 10752
  153.0157  135.5322  154.6874 H   0  0  0  0  0  0  0  0  0  0  0  0  # atno 10764 bound_to 10752
  154.6144  135.2957  155.0367 H   0  0  0  0  0  0  0  0  0  0  0  0  # atno 10765 bound_to 10752
  140.5096  134.5814  157.5014 H   0  0  0  0  0  0  0  0  0  0  0  0  # atno 11005 bound_to 11000
  145.7628  139.1830  143.2257 LP  0  0  0  0  0  0  0  0  0  0  0  0  # atno 17320 bound_to 7965
  146.0973  140.7586  142.9566 LP  0  0  0  0  0  0  0  0  0  0  0  0  # atno 17321 bound_to 7965
  140.6776  143.2312  151.5467 LP  0  0  0  0  0  0  0  0  0  0  0  0  # atno 17342 bound_to 10162
  139.5485  144.2457  152.1487 LP  0  0  0  0  0  0  0  0  0  0  0  0  # atno 17343 bound_to 10162
  155.9895  130.4943  150.7219 LP  0  0  0  0  0  0  0  0  0  0  0  0  # atno 17370 bound_to 10713
  157.4713  131.0893  151.0639 LP  0  0  0  0  0  0  0  0  0  0  0  0  # atno 17371 bound_to 10713
  139.9666  134.7362  156.0126 LP  0  0  0  0  0  0  0  0  0  0  0  0  # atno 17394 bound_to 11000
  141.1392  133.6568  156.3681 LP  0  0  0  0  0  0  0  0  0  0  0  0  # atno 17395 bound_to 11000

$$$$
