AV-unprocessed.smi:478|AV-procd|sdf|2671|dock7
  -GOLD-   2262023 83D 1   1.00000     0.00000
 Structure written by MMmdl.
 41 42  0  0  0  0  0  0  0  0  1 V2000
  154.3041  138.9693  159.8427 C   0  0  0  0  0  0  0  0  0  0  0  0
  153.4104  138.0459  159.1360 N   0  0  0  0  0  0  0  0  0  0  0  0
  151.9967  138.2546  159.4687 C   0  0  0  0  0  0  0  0  0  0  0  0
  153.7883  137.7256  157.4764 S   0  0  0  0  0  0  0  0  0  0  0  0
  154.6939  138.7907  157.0179 O   0  0  0  0  0  0  0  0  0  0  0  0
  154.2091  136.3188  157.3806 O   0  0  0  0  0  0  0  0  0  0  0  0
  152.2330  137.8884  156.5582 C   0  0  0  0  0  0  0  0  0  0  0  0
  151.3225  136.7715  156.4484 C   0  0  0  0  0  0  0  0  0  0  0  0
  150.1070  136.9399  155.8908 C   0  0  0  0  0  0  0  0  0  0  0  0
  149.6660  138.2449  155.3842 C   0  0  0  0  0  0  0  0  0  0  0  0
  148.5633  138.4040  154.8602 O   0  0  0  0  0  0  0  0  0  0  0  0
  150.5542  139.2753  155.5364 N   0  0  0  0  0  0  0  0  0  0  0  0
  150.2147  140.6350  155.0867 C   0  0  0  0  0  0  0  0  0  0  0  0
  149.9457  141.5866  156.2609 C   0  0  0  0  0  0  0  0  0  0  0  0
  148.9548  141.3991  156.9708 O   0  0  0  0  0  0  0  0  0  0  0  0
  150.8531  142.5785  156.4176 N   0  0  0  0  0  0  0  0  0  0  0  0
  150.9283  143.5831  157.3231 C   0  0  0  0  0  0  0  0  0  0  0  0
  150.0702  143.7003  158.1966 O   0  0  0  0  0  0  0  0  0  0  0  0
  151.9713  144.4273  157.2168 N   0  0  0  0  0  0  0  0  0  0  0  0
  152.8608  144.5203  156.1049 C   0  0  0  0  0  0  0  0  0  0  0  0
  154.2936  144.0830  156.3202 C   0  0  0  0  0  0  0  0  0  0  0  0
  153.9725  145.5446  156.1748 C   0  0  0  0  0  0  0  0  0  0  0  0
  151.8148  139.0943  156.1394 C   0  0  0  0  0  0  0  0  0  0  0  0
  154.0806  138.9845  160.9099 H   0  0  0  0  0  0  0  0  0  0  0  0
  154.1939  139.9792  159.4462 H   0  0  0  0  0  0  0  0  0  0  0  0
  155.3427  138.6611  159.7228 H   0  0  0  0  0  0  0  0  0  0  0  0
  151.8555  138.2850  160.5495 H   0  0  0  0  0  0  0  0  0  0  0  0
  151.3861  137.4428  159.0754 H   0  0  0  0  0  0  0  0  0  0  0  0
  151.6417  139.1940  159.0429 H   0  0  0  0  0  0  0  0  0  0  0  0
  151.6154  135.7968  156.8100 H   0  0  0  0  0  0  0  0  0  0  0  0
  149.4392  136.0944  155.8141 H   0  0  0  0  0  0  0  0  0  0  0  0
  151.0235  141.0564  154.4880 H   0  0  0  0  0  0  0  0  0  0  0  0
  149.3527  140.6045  154.4171 H   0  0  0  0  0  0  0  0  0  0  0  0
  151.6061  142.5693  155.7451 H   0  0  0  0  0  0  0  0  0  0  0  0
  152.1505  145.0489  157.9930 H   0  0  0  0  0  0  0  0  0  0  0  0
  152.4479  144.3282  155.1156 H   0  0  0  0  0  0  0  0  0  0  0  0
  154.5756  143.7288  157.3099 H   0  0  0  0  0  0  0  0  0  0  0  0
  154.7988  143.5940  155.4898 H   0  0  0  0  0  0  0  0  0  0  0  0
  154.2629  146.0325  155.2465 H   0  0  0  0  0  0  0  0  0  0  0  0
  154.0385  146.1644  157.0670 H   0  0  0  0  0  0  0  0  0  0  0  0
  152.4013  139.9947  156.2522 H   0  0  0  0  0  0  0  0  0  0  0  0
  1  2  1  0  0  0  0
  1 24  1  0  0  0  0
  1 25  1  0  0  0  0
  1 26  1  0  0  0  0
  2  3  1  0  0  0  0
  2  4  1  0  0  0  0
  3 27  1  0  0  0  0
  3 28  1  0  0  0  0
  3 29  1  0  0  0  0
  4  5  2  0  0  0  0
  4  6  2  0  0  0  0
  4  7  1  0  0  0  0
  7 23  2  0  0  0  0
  7  8  1  0  0  0  0
  8  9  2  0  0  0  0
  8 30  1  0  0  0  0
  9 10  1  0  0  0  0
  9 31  1  0  0  0  0
 10 11  2  0  0  0  0
 10 12  1  0  0  0  0
 12 13  1  0  0  0  0
 12 23  1  0  0  0  0
 13 14  1  0  0  0  0
 13 32  1  0  0  0  0
 13 33  1  0  0  0  0
 14 15  2  0  0  0  0
 14 16  1  0  0  0  0
 16 17  1  0  0  0  0
 16 34  1  0  0  0  0
 17 18  2  0  0  0  0
 17 19  1  0  0  0  0
 19 20  1  0  0  0  0
 19 35  1  0  0  0  0
 20 22  1  0  0  0  0
 20 21  1  0  0  0  0
 20 36  1  0  0  0  0
 21 22  1  0  0  0  0
 21 37  1  0  0  0  0
 21 38  1  0  0  0  0
 22 39  1  0  0  0  0
 22 40  1  0  0  0  0
 23 41  1  0  0  0  0
M  END
> <s_m_source_file>
AV-unprocessed.smi

> <i_m_source_file_index>
478

> <i_lp_mmshare_version>
43012

> <i_f3d_flags>
0

> <s_epik_input>
W0NIM11OKFtDSDNdKVMoPU8pKD1PKWMxW2NIXVtjSF1jKD1PKW4oW2NIXTEpW0NIMl1DKD1PKVtOSF1DKD1PKVtOSF1bQ0hdMltDSDJdW0NIMl0y

> <s_epik_cmdline>
J2VwaWtfcHl0aG9uJywgJy1waCcsICc3LjAnLCAnLXRuJywgJzgnLCAnLW1hJywgJzIwMCcsICctbWV0YWxfYmluZGluZycsICctaW1hZScsICc8aW5maWxlLm1hZT4nLCAnLW9tYWUnLCAnPG91dGZpbGUubWFlPic=

> <r_lp_tautomer_probability>
1

> <r_epik_Ionization_Penalty>
3.37124e-05

> <r_epik_Ionization_Penalty_Charging>
7.23904e-09

> <r_epik_Ionization_Penalty_Neutral>
3.37051e-05

> <r_epik_State_Penalty>
-0

> <r_epik_Charging_Adjusted_Penalty>
7.23904e-09

> <i_epik_Tot_Q>
0

> <i_epik_Tot_abs_Q>
0

> <r_epik_Metal_State_Penalty>
-0

> <b_epik_Metal_Only>
0

> <s_lp_Force_Field>
OPLS_2005

> <r_lp_Energy>
28.3578

> <b_lp_Chiralities_Consistent>
1

> <s_lp_Variant>
AV-unprocessed.smi:478-1

> <Gold.Version>
5.8.1

> <Gold.Id.Protein>
6NUR|6NUR_protein|mol2

> <Gold.PLP.Fitness>
41.0579

> <Gold.PLP.PLP>
-35.5121

> <Gold.PLP.part.hbond>
-3.4411

> <Gold.PLP.part.metal>
0.0000

> <Gold.PLP.part.buried>
-3.8086

> <Gold.PLP.part.nonpolar>
-30.4697

> <Gold.PLP.part.repulsive>
2.3344

> <Gold.PLP.ligand.clash>
0.0000

> <Gold.PLP.ligand.torsion>
1.5372

> <Gold.PLP.Chemscore.Hbond>
2.0000

> <Gold.PLP.Chemscore.CHOScore>
0.0000

> <Gold.PLP.Chemscore.Metal>
0.0000

> <Gold.Chemscore.Hbonds>
donor molecule, donor type, donor heavy atom, donor atom, acceptor molecule, acceptor atom, score
      P1  H  7997  8010       L1     5  0.08
      P1  H 10752 10764       L1     6  0.33

> <Gold.PLP.Chemscore.Internal.Correction>
2.6202

> <Gold.Rescore>
     Score         DG    S(hbond)    S(metal)    S(lipo)     H(rot)  DE(clash)    DE(int)     intcor
     10.67     -14.01       1.30        0.00      78.45       1.95       0.43       2.92       ----

> <Gold.Chemscore.Fitness>
10.6651

> <Gold.Chemscore.DG>
-14.0070

> <Gold.Chemscore.ZeroCoef>
-5.4800

> <Gold.Chemscore.Hbond>
1.2964

> <Gold.Chemscore.Metal>
0.0000

> <Gold.Chemscore.Lipo>
78.4502

> <Gold.Chemscore.Internal_Hbond>
0.0000

> <Gold.Chemscore.DEClash>
0.4261

> <Gold.Chemscore.DEInternal>
2.9158

> <Gold.Chemscore.Rot>
1.9459

> <Gold.Chemscore.Internal.Correction>
   9.000000E+99

> <Gold.Chemscore.Hbonds>
donor molecule, donor type, donor heavy atom, donor atom, acceptor molecule, acceptor atom, score
      P1  H  7997  8010       L1     5  0.08
      P1  H 10752 10764       L1     6  0.26

> <Gold.Chemscore.Hbond.Weighted>
-4.3299

> <Gold.Chemscore.Metal.Weighted>
-0.0000

> <Gold.Chemscore.Lipo.Weighted>
-9.1787

> <Gold.Chemscore.Internal_Hbond.Weighted>
0.0000

> <Gold.Chemscore.DEClash.Weighted>
0.4261

> <Gold.Chemscore.DEInternal.Weighted>
2.9158

> <Gold.Chemscore.Rot.Weighted>
4.9815

> <Gold.Chemscore.Internal.Correction.Weighted>
   9.000000E+99

> <Gold.Protein.RotatedTorsions>
[ 6907 6896 6895 6894 ] final  136.88 input  -60.11 | X-H torsion
[ 7974 7965 7964 7962 ] final -117.62 input  175.53 | X-H torsion
[ 8008 7997 7996 7995 ] final   50.07 input   59.86 | X-H torsion
[ 10167 10162 10161 10158 ] final  -74.13 input  -65.29 | X-H torsion
[ 10718 10713 10712 10709 ] final   -6.36 input   66.30 | X-H torsion
[ 10763 10752 10751 10750 ] final    3.57 input  -60.55 | X-H torsion
[ 11005 11000 10999 10996 ] final -130.03 input  -57.11 | X-H torsion

> <Gold.Protein.ActiveResidues>
 VAL166  LYS551  ARG553  GLY616  TRP617  ASP618  TYR619  PRO620  LYS621  CYS622 
 ASP623  PHE694  ASN695  SER759  ASP760  ASP761  ALA762  ILE779  LEU786  VAL792 
 PHE793  MET794  SER795  GLU796  ALA797  LYS798  CYS799  TRP800  GLU811  SER814 

> <Gold.Protein.RotatedAtoms>
  152.2843  133.5500  159.5517 H   0  0  0  0  0  0  0  0  0  0  0  0  # atno 6907 bound_to 6896
  150.7209  134.0519  159.3810 H   0  0  0  0  0  0  0  0  0  0  0  0  # atno 6908 bound_to 6896
  151.8428  135.0584  160.0501 H   0  0  0  0  0  0  0  0  0  0  0  0  # atno 6909 bound_to 6896
  145.0832  140.8440  143.4027 H   0  0  0  0  0  0  0  0  0  0  0  0  # atno 7974 bound_to 7965
  155.4127  140.3443  155.4265 H   0  0  0  0  0  0  0  0  0  0  0  0  # atno 8008 bound_to 7997
  156.1439  140.1550  156.8908 H   0  0  0  0  0  0  0  0  0  0  0  0  # atno 8009 bound_to 7997
  154.4994  140.0819  156.7747 H   0  0  0  0  0  0  0  0  0  0  0  0  # atno 8010 bound_to 7997
  140.5053  143.2354  151.7685 H   0  0  0  0  0  0  0  0  0  0  0  0  # atno 10167 bound_to 10162
  156.7330  130.5186  149.5841 H   0  0  0  0  0  0  0  0  0  0  0  0  # atno 10718 bound_to 10713
  153.2818  135.6941  153.7378 H   0  0  0  0  0  0  0  0  0  0  0  0  # atno 10763 bound_to 10752
  153.6363  135.3401  155.3058 H   0  0  0  0  0  0  0  0  0  0  0  0  # atno 10764 bound_to 10752
  154.8497  135.4421  154.1873 H   0  0  0  0  0  0  0  0  0  0  0  0  # atno 10765 bound_to 10752
  140.9381  134.1230  157.4175 H   0  0  0  0  0  0  0  0  0  0  0  0  # atno 11005 bound_to 11000
  145.1154  139.2729  143.5616 LP  0  0  0  0  0  0  0  0  0  0  0  0  # atno 17320 bound_to 7965
  146.3531  140.0762  142.8620 LP  0  0  0  0  0  0  0  0  0  0  0  0  # atno 17321 bound_to 7965
  139.4882  144.4466  151.9703 LP  0  0  0  0  0  0  0  0  0  0  0  0  # atno 17342 bound_to 10162
  140.3556  144.3035  150.5942 LP  0  0  0  0  0  0  0  0  0  0  0  0  # atno 17343 bound_to 10162
  156.1516  130.6314  151.0603 LP  0  0  0  0  0  0  0  0  0  0  0  0  # atno 17370 bound_to 10713
  157.6851  131.0827  150.7265 LP  0  0  0  0  0  0  0  0  0  0  0  0  # atno 17371 bound_to 10713
  139.8813  135.0027  156.6145 LP  0  0  0  0  0  0  0  0  0  0  0  0  # atno 17394 bound_to 11000
  140.7772  133.8690  155.8538 LP  0  0  0  0  0  0  0  0  0  0  0  0  # atno 17395 bound_to 11000

$$$$
