AV-unprocessed.smi:2481|AV-procd|sdf|9774|dock4
  -GOLD-   2272013413D 1   1.00000     0.00000
 Structure written by MMmdl.
 37 38  0  0  0  0  0  0  0  0  1 V2000
  147.8247  145.4977  160.5569 C   0  0  0  0  0  0  0  0  0  0  0  0
  146.9850  144.3158  160.5250 N   0  0  0  0  0  0  0  0  0  0  0  0
  146.0711  144.0838  161.4964 N   0  0  0  0  0  0  0  0  0  0  0  0
  145.5192  142.9329  161.1112 C   0  0  0  0  0  0  0  0  0  0  0  0
  146.0058  142.3926  159.9549 N   0  0  0  0  0  0  0  0  0  0  0  0
  146.9158  143.3113  159.6466 C   0  0  0  0  0  0  0  0  0  0  0  0
  147.7706  143.2966  158.5121 N   0  0  0  0  0  0  0  0  0  0  0  0
  148.3486  142.2328  157.9293 C   0  0  0  0  0  0  0  0  0  0  0  0
  148.2154  141.0640  158.2925 O   0  0  0  0  0  0  0  0  0  0  0  0
  149.1007  142.6043  156.8833 N   0  0  0  0  0  0  0  0  0  0  0  0
  149.8700  141.7028  156.0272 C   0  0  1  0  0  0  0  0  0  0  0  0
  150.8637  140.9033  156.8964 C   0  0  0  0  0  0  0  0  0  0  0  0
  151.6567  139.8845  156.0671 C   0  0  0  0  0  0  0  0  0  0  0  0
  150.7119  138.9422  155.3117 C   0  0  0  0  0  0  0  0  0  0  0  0
  149.7401  139.7344  154.4252 C   0  0  0  0  0  0  0  0  0  0  0  0
  148.9207  140.7653  155.2351 C   0  0  2  0  0  0  0  0  0  0  0  0
  147.9574  141.5518  154.3176 C   0  0  0  0  0  0  0  0  0  0  0  0
  147.2936  142.5693  155.0381 O   0  0  0  0  0  0  0  0  0  0  0  0
  148.8718  145.2075  160.4652 H   0  0  0  0  0  0  0  0  0  0  0  0
  147.6898  146.0390  161.4944 H   0  0  0  0  0  0  0  0  0  0  0  0
  147.5622  146.1543  159.7271 H   0  0  0  0  0  0  0  0  0  0  0  0
  144.7343  142.4641  161.6864 H   0  0  0  0  0  0  0  0  0  0  0  0
  147.9638  144.1975  158.1007 H   0  0  0  0  0  0  0  0  0  0  0  0
  149.1476  143.5875  156.6587 H   0  0  0  0  0  0  0  0  0  0  0  0
  150.4386  142.2913  155.3041 H   0  0  0  0  0  0  0  0  0  0  0  0
  151.5569  141.5821  157.3946 H   0  0  0  0  0  0  0  0  0  0  0  0
  150.3240  140.3803  157.6872 H   0  0  0  0  0  0  0  0  0  0  0  0
  152.2989  140.4082  155.3578 H   0  0  0  0  0  0  0  0  0  0  0  0
  152.3165  139.3084  156.7167 H   0  0  0  0  0  0  0  0  0  0  0  0
  151.2896  138.2474  154.7015 H   0  0  0  0  0  0  0  0  0  0  0  0
  150.1493  138.3363  156.0232 H   0  0  0  0  0  0  0  0  0  0  0  0
  150.3013  140.2451  153.6415 H   0  0  0  0  0  0  0  0  0  0  0  0
  149.0738  139.0358  153.9183 H   0  0  0  0  0  0  0  0  0  0  0  0
  148.3177  140.2164  155.9608 H   0  0  0  0  0  0  0  0  0  0  0  0
  148.4925  142.0310  153.4980 H   0  0  0  0  0  0  0  0  0  0  0  0
  147.2193  140.8857  153.8693 H   0  0  0  0  0  0  0  0  0  0  0  0
  147.9395  143.1776  155.3637 H   0  0  0  0  0  0  0  0  0  0  0  0
  1  2  1  0  0  0  0
  1 19  1  0  0  0  0
  1 20  1  0  0  0  0
  1 21  1  0  0  0  0
  2  6  1  0  0  0  0
  2  3  1  0  0  0  0
  3  4  2  0  0  0  0
  4  5  1  0  0  0  0
  4 22  1  0  0  0  0
  5  6  2  0  0  0  0
  6  7  1  0  0  0  0
  7  8  1  0  0  0  0
  7 23  1  0  0  0  0
  8  9  2  0  0  0  0
  8 10  1  0  0  0  0
 10 11  1  0  0  0  0
 10 24  1  0  0  0  0
 11 16  1  0  0  0  0
 11 12  1  0  0  0  0
 11 25  1  0  0  0  0
 12 13  1  0  0  0  0
 12 26  1  0  0  0  0
 12 27  1  0  0  0  0
 13 14  1  0  0  0  0
 13 28  1  0  0  0  0
 13 29  1  0  0  0  0
 14 15  1  0  0  0  0
 14 30  1  0  0  0  0
 14 31  1  0  0  0  0
 15 16  1  0  0  0  0
 15 32  1  0  0  0  0
 15 33  1  0  0  0  0
 16 17  1  0  0  0  0
 16 34  1  0  0  0  0
 17 18  1  0  0  0  0
 17 35  1  0  0  0  0
 17 36  1  0  0  0  0
 18 37  1  0  0  0  0
M  END
> <s_m_source_file>
AV-unprocessed.smi

> <i_m_source_file_index>
2481

> <i_lp_mmshare_version>
43012

> <i_f3d_flags>
0

> <s_epik_input>
W0NIM11uMW5bY0hdbmMxW05IXUMoPU8pW05IXVtDQEBIXTJbQ0gyXVtDSDJdW0NIMl1bQ0gyXVtDQEhdMltDSDJdW09IXQ==

> <s_epik_cmdline>
J2VwaWtfcHl0aG9uJywgJy1waCcsICc3LjAnLCAnLXRuJywgJzgnLCAnLW1hJywgJzIwMCcsICctbWV0YWxfYmluZGluZycsICctaW1hZScsICc8aW5maWxlLm1hZT4nLCAnLW9tYWUnLCAnPG91dGZpbGUubWFlPic=

> <r_lp_tautomer_probability>
1

> <r_epik_Ionization_Penalty>
2.32704e-05

> <r_epik_Ionization_Penalty_Charging>
0

> <r_epik_Ionization_Penalty_Neutral>
2.32704e-05

> <r_epik_State_Penalty>
-0

> <r_epik_Charging_Adjusted_Penalty>
0

> <i_epik_Tot_Q>
0

> <i_epik_Tot_abs_Q>
0

> <r_epik_Metal_State_Penalty>
-0

> <b_epik_Metal_Only>
0

> <s_lp_Force_Field>
OPLS_2005

> <r_lp_Energy>
12.9645

> <b_lp_Chiralities_Consistent>
1

> <s_lp_Variant>
AV-unprocessed.smi:2481-4

> <Gold.Version>
5.8.1

> <Gold.Id.Protein>
6NUR|6NUR_protein|mol2

> <Gold.PLP.Fitness>
42.7922

> <Gold.PLP.PLP>
-31.5701

> <Gold.PLP.part.hbond>
-4.7472

> <Gold.PLP.part.metal>
0.0000

> <Gold.PLP.part.buried>
-5.3042

> <Gold.PLP.part.nonpolar>
-22.7145

> <Gold.PLP.part.repulsive>
0.2033

> <Gold.PLP.ligand.clash>
0.0000

> <Gold.PLP.ligand.torsion>
0.3079

> <Gold.PLP.Chemscore.Hbond>
3.9420

> <Gold.PLP.Chemscore.CHOScore>
0.0000

> <Gold.PLP.Chemscore.Metal>
0.0000

> <Gold.Chemscore.Hbonds>
donor molecule, donor type, donor heavy atom, donor atom, acceptor molecule, acceptor atom, score
      L1  H     7    23       P1  8029  1.00
      L1  H    10    24       P1  8028  0.98
      L1  H    18    37       P1  8028  1.00
      P1  H  6934  6946       L1     5  0.90

> <Gold.PLP.Chemscore.Internal.Correction>
0.0120

> <Gold.Rescore>
     Score         DG    S(hbond)    S(metal)    S(lipo)     H(rot)  DE(clash)    DE(int)     intcor
     11.56     -15.38       2.74        0.00      49.76       1.99       0.25       3.57       ----

> <Gold.Chemscore.Fitness>
11.5620

> <Gold.Chemscore.DG>
-15.3788

> <Gold.Chemscore.ZeroCoef>
-5.4800

> <Gold.Chemscore.Hbond>
2.7439

> <Gold.Chemscore.Metal>
0.0000

> <Gold.Chemscore.Lipo>
49.7648

> <Gold.Chemscore.Internal_Hbond>
0.0000

> <Gold.Chemscore.DEClash>
0.2476

> <Gold.Chemscore.DEInternal>
3.5692

> <Gold.Chemscore.Rot>
1.9877

> <Gold.Chemscore.Internal.Correction>
   9.000000E+99

> <Gold.Chemscore.Hbonds>
donor molecule, donor type, donor heavy atom, donor atom, acceptor molecule, acceptor atom, score
      L1  H     7    23       P1  8029  0.25
      L1  H    10    24       P1  8028  0.81
      L1  H    18    37       P1  8028  0.70
      P1  H  6934  6946       L1     5  0.12

> <Gold.Chemscore.Hbond.Weighted>
-9.1648

> <Gold.Chemscore.Metal.Weighted>
-0.0000

> <Gold.Chemscore.Lipo.Weighted>
-5.8225

> <Gold.Chemscore.Internal_Hbond.Weighted>
0.0000

> <Gold.Chemscore.DEClash.Weighted>
0.2476

> <Gold.Chemscore.DEInternal.Weighted>
3.5692

> <Gold.Chemscore.Rot.Weighted>
5.0885

> <Gold.Chemscore.Internal.Correction.Weighted>
   9.000000E+99

> <Gold.Protein.RotatedTorsions>
[ 6907 6896 6895 6894 ] final -171.08 input  -60.11 | X-H torsion
[ 7974 7965 7964 7962 ] final   67.18 input  175.53 | X-H torsion
[ 8008 7997 7996 7995 ] final   51.21 input   59.86 | X-H torsion
[ 10167 10162 10161 10158 ] final  -17.59 input  -65.29 | X-H torsion
[ 10718 10713 10712 10709 ] final -167.44 input   66.30 | X-H torsion
[ 10763 10752 10751 10750 ] final  -35.72 input  -60.55 | X-H torsion
[ 11005 11000 10999 10996 ] final  -97.88 input  -57.11 | X-H torsion

> <Gold.Protein.ActiveResidues>
 VAL166  LYS551  ARG553  GLY616  TRP617  ASP618  TYR619  PRO620  LYS621  CYS622 
 ASP623  PHE694  ASN695  SER759  ASP760  ASP761  ALA762  ILE779  LEU786  VAL792 
 PHE793  MET794  SER795  GLU796  ALA797  LYS798  CYS799  TRP800  GLU811  SER814 

> <Gold.Protein.RotatedAtoms>
  151.5181  133.3472  159.2896 H   0  0  0  0  0  0  0  0  0  0  0  0  # atno 6907 bound_to 6896
  150.8669  134.8037  159.7137 H   0  0  0  0  0  0  0  0  0  0  0  0  # atno 6908 bound_to 6896
  152.4671  134.5059  159.9791 H   0  0  0  0  0  0  0  0  0  0  0  0  # atno 6909 bound_to 6896
  145.8178  139.3068  143.1061 H   0  0  0  0  0  0  0  0  0  0  0  0  # atno 7974 bound_to 7965
  155.4315  140.3451  155.4280 H   0  0  0  0  0  0  0  0  0  0  0  0  # atno 8008 bound_to 7997
  156.1334  140.1520  156.9062 H   0  0  0  0  0  0  0  0  0  0  0  0  # atno 8009 bound_to 7997
  154.4912  140.0840  156.7579 H   0  0  0  0  0  0  0  0  0  0  0  0  # atno 8010 bound_to 7997
  140.7249  143.5000  150.9881 H   0  0  0  0  0  0  0  0  0  0  0  0  # atno 10167 bound_to 10162
  156.6824  130.9127  151.3059 H   0  0  0  0  0  0  0  0  0  0  0  0  # atno 10718 bound_to 10713
  153.8678  135.6834  153.4777 H   0  0  0  0  0  0  0  0  0  0  0  0  # atno 10763 bound_to 10752
  153.1305  135.4700  154.9338 H   0  0  0  0  0  0  0  0  0  0  0  0  # atno 10764 bound_to 10752
  154.7728  135.3244  154.8104 H   0  0  0  0  0  0  0  0  0  0  0  0  # atno 10765 bound_to 10752
  141.1364  133.8204  157.0766 H   0  0  0  0  0  0  0  0  0  0  0  0  # atno 11005 bound_to 11000
  145.9708  140.8762  143.0163 LP  0  0  0  0  0  0  0  0  0  0  0  0  # atno 17320 bound_to 7965
  144.6750  140.1943  143.7393 LP  0  0  0  0  0  0  0  0  0  0  0  0  # atno 17321 bound_to 7965
  139.8709  143.7193  152.3166 LP  0  0  0  0  0  0  0  0  0  0  0  0  # atno 17342 bound_to 10162
  139.7442  144.7551  151.0606 LP  0  0  0  0  0  0  0  0  0  0  0  0  # atno 17343 bound_to 10162
  157.7038  130.9363  150.0868 LP  0  0  0  0  0  0  0  0  0  0  0  0  # atno 17370 bound_to 10713
  156.1857  130.3652  149.8975 LP  0  0  0  0  0  0  0  0  0  0  0  0  # atno 17371 bound_to 10713
  140.0478  134.9821  157.1081 LP  0  0  0  0  0  0  0  0  0  0  0  0  # atno 17394 bound_to 11000
  140.4036  134.2056  155.7163 LP  0  0  0  0  0  0  0  0  0  0  0  0  # atno 17395 bound_to 11000

$$$$
