AV-unprocessed.smi:3298|AV-procd|sdf|12644|dock3
  -GOLD-   2272018573D 1   1.00000     0.00000
 Structure written by MMmdl.
 36 37  0  0  0  0  0  0  0  0  2 V2000
  146.2833  143.0748  154.1029 C   0  0  0  0  0  0  0  0  0  0  0  0
  147.2565  141.9148  154.1099 C   0  0  0  0  0  0  0  0  0  0  0  0
  146.9617  140.6801  153.4930 C   0  0  0  0  0  0  0  0  0  0  0  0
  147.9058  139.6310  153.5464 C   0  0  0  0  0  0  0  0  0  0  0  0
  147.5769  138.4070  152.9057 N   0  0  0  0  0  0  0  0  0  0  0  0
  146.3548  137.9469  152.5880 C   0  0  0  0  0  0  0  0  0  0  0  0
  145.2972  138.5379  152.8067 O   0  0  0  0  0  0  0  0  0  0  0  0
  146.4243  136.7601  151.9689 N   0  0  0  0  0  0  0  0  0  0  0  0
  145.2762  136.0275  151.4464 C   0  0  2  0  0  0  0  0  0  0  0  0
  144.4113  135.5298  152.5717 C   0  0  0  0  0  0  0  0  0  0  0  0
  144.2384  134.2105  152.5428 C   0  0  0  0  0  0  0  0  0  0  0  0
  144.9613  133.5498  151.3967 C   0  0  2  0  0  0  0  0  0  0  0  0
  145.9213  132.4396  151.8587 C   0  0  0  0  0  0  0  0  0  0  0  0
  146.3911  131.6959  150.7540 O   0  0  0  0  0  0  0  0  0  0  0  0
  145.6867  134.7299  150.7008 C   0  0  0  0  0  0  0  0  0  0  0  0
  149.1441  139.8632  154.1959 C   0  0  0  0  0  0  0  0  0  0  0  0
  149.3855  141.1180  154.7903 C   0  0  0  0  0  0  0  0  0  0  0  0
  148.4451  142.0850  154.7297 N   0  3  0  0  0  0  0  0  0  0  0  0
  144.6708  136.6716  150.8062 H   0  0  0  0  0  0  0  0  0  0  0  0
  144.2138  133.1322  150.7208 H   0  0  0  0  0  0  0  0  0  0  0  0
  145.2849  142.7461  153.8129 H   0  0  0  0  0  0  0  0  0  0  0  0
  146.6111  143.8386  153.3974 H   0  0  0  0  0  0  0  0  0  0  0  0
  146.2162  143.5261  155.0933 H   0  0  0  0  0  0  0  0  0  0  0  0
  146.0149  140.5367  152.9924 H   0  0  0  0  0  0  0  0  0  0  0  0
  148.3591  137.8601  152.5767 H   0  0  0  0  0  0  0  0  0  0  0  0
  147.3327  136.3430  151.8275 H   0  0  0  0  0  0  0  0  0  0  0  0
  143.9757  136.1967  153.3014 H   0  0  0  0  0  0  0  0  0  0  0  0
  143.6433  133.6481  153.2473 H   0  0  0  0  0  0  0  0  0  0  0  0
  146.7795  132.8725  152.3730 H   0  0  0  0  0  0  0  0  0  0  0  0
  145.4285  131.7667  152.5613 H   0  0  0  0  0  0  0  0  0  0  0  0
  147.3196  131.5548  150.8593 H   0  0  0  0  0  0  0  0  0  0  0  0
  145.4063  134.7874  149.6484 H   0  0  0  0  0  0  0  0  0  0  0  0
  146.7683  134.5865  150.7247 H   0  0  0  0  0  0  0  0  0  0  0  0
  149.9133  139.1068  154.2373 H   0  0  0  0  0  0  0  0  0  0  0  0
  150.2992  141.3762  155.3052 H   0  0  0  0  0  0  0  0  0  0  0  0
  148.6423  142.9850  155.1680 H   0  0  0  0  0  0  0  0  0  0  0  0
  1  2  1  0  0  0  0
  1 21  1  0  0  0  0
  1 22  1  0  0  0  0
  1 23  1  0  0  0  0
  2 18  1  0  0  0  0
  2  3  2  0  0  0  0
  3  4  1  0  0  0  0
  3 24  1  0  0  0  0
  4  5  1  0  0  0  0
  4 16  2  0  0  0  0
  5  6  1  0  0  0  0
  5 25  1  0  0  0  0
  6  7  2  0  0  0  0
  6  8  1  0  0  0  0
  8  9  1  0  0  0  0
  8 26  1  0  0  0  0
  9 19  1  0  0  0  0
  9 15  1  0  0  0  0
  9 10  1  0  0  0  0
 10 11  2  0  0  0  0
 10 27  1  0  0  0  0
 11 12  1  0  0  0  0
 11 28  1  0  0  0  0
 12 20  1  0  0  0  0
 12 13  1  0  0  0  0
 12 15  1  0  0  0  0
 13 14  1  0  0  0  0
 13 29  1  0  0  0  0
 13 30  1  0  0  0  0
 14 31  1  0  0  0  0
 15 32  1  0  0  0  0
 15 33  1  0  0  0  0
 16 17  1  0  0  0  0
 16 34  1  0  0  0  0
 17 18  2  0  0  0  0
 17 35  1  0  0  0  0
 18 36  1  0  0  0  0
M  CHG  1  18   1
M  END
> <s_m_source_file>
AV-unprocessed.smi

> <i_m_source_file_index>
3298

> <i_lp_mmshare_version>
43012

> <i_f3d_flags>
0

> <s_epik_input>
W0NIM11jMVtjSF1jKFtjSF1bY0hdbjEpW05IXUMoPU8pW05IXVtDQEBIXTJbQ0hdPVtDSF1bQ0BASF0oW0NIMl0yKVtDSDJdW09IXQ==

> <s_epik_cmdline>
J2VwaWtfcHl0aG9uJywgJy1waCcsICc3LjAnLCAnLXRuJywgJzgnLCAnLW1hJywgJzIwMCcsICctbWV0YWxfYmluZGluZycsICctaW1hZScsICc8aW5maWxlLm1hZT4nLCAnLW9tYWUnLCAnPG91dGZpbGUubWFlPic=

> <r_epik_Ionization_Penalty>
0.443901

> <r_epik_Ionization_Penalty_Charging>
0.443881

> <r_epik_Ionization_Penalty_Neutral>
1.94967e-05

> <r_epik_State_Penalty>
0.446172

> <r_epik_Charging_Adjusted_Penalty>
0.890053

> <i_epik_Tot_Q>
1

> <i_epik_Tot_abs_Q>
1

> <r_epik_Metal_State_Penalty>
0.675842

> <b_epik_Metal_Only>
0

> <s_lp_Force_Field>
OPLS_2005

> <r_lp_Energy>
26.7826

> <b_lp_Chiralities_Consistent>
1

> <s_lp_Variant>
AV-unprocessed.smi:3298-5

> <Gold.Version>
5.8.1

> <Gold.Id.Protein>
6NUR|6NUR_protein|mol2

> <Gold.PLP.Fitness>
45.5956

> <Gold.PLP.PLP>
-31.0687

> <Gold.PLP.part.hbond>
-4.6784

> <Gold.PLP.part.metal>
0.0000

> <Gold.PLP.part.buried>
-3.0716

> <Gold.PLP.part.nonpolar>
-28.4411

> <Gold.PLP.part.repulsive>
4.3033

> <Gold.PLP.ligand.clash>
0.0000

> <Gold.PLP.ligand.torsion>
0.2082

> <Gold.PLP.Chemscore.Hbond>
4.9760

> <Gold.PLP.Chemscore.CHOScore>
0.0000

> <Gold.PLP.Chemscore.Metal>
0.0000

> <Gold.Chemscore.Hbonds>
donor molecule, donor type, donor heavy atom, donor atom, acceptor molecule, acceptor atom, score
      L1  H     5    25       P1  7948  0.96
      L1  H     8    26       P1  7948  1.00
      L1  H    14    31       P1 10747  1.00
      L1  H    18    36       P1  8028  2.00

> <Gold.PLP.Chemscore.Internal.Correction>
0.0154

> <Gold.Rescore>
     Score         DG    S(hbond)    S(metal)    S(lipo)     H(rot)  DE(clash)    DE(int)     intcor
     18.65     -22.39       3.91        0.00      72.39       1.81       2.04       1.69       ----

> <Gold.Chemscore.Fitness>
18.6519

> <Gold.Chemscore.DG>
-22.3881

> <Gold.Chemscore.ZeroCoef>
-5.4800

> <Gold.Chemscore.Hbond>
3.9107

> <Gold.Chemscore.Metal>
0.0000

> <Gold.Chemscore.Lipo>
72.3932

> <Gold.Chemscore.Internal_Hbond>
0.0000

> <Gold.Chemscore.DEClash>
2.0449

> <Gold.Chemscore.DEInternal>
1.6912

> <Gold.Chemscore.Rot>
1.8061

> <Gold.Chemscore.Internal.Correction>
   9.000000E+99

> <Gold.Chemscore.Hbonds>
donor molecule, donor type, donor heavy atom, donor atom, acceptor molecule, acceptor atom, score
      L1  H     5    25       P1  7948  0.92
      L1  H     8    26       P1  7948  0.98
      L1  H    14    31       P1 10747  0.95
      L1  H    18    36       P1  8028  1.00

> <Gold.Chemscore.Hbond.Weighted>
-13.0617

> <Gold.Chemscore.Metal.Weighted>
-0.0000

> <Gold.Chemscore.Lipo.Weighted>
-8.4700

> <Gold.Chemscore.Internal_Hbond.Weighted>
0.0000

> <Gold.Chemscore.DEClash.Weighted>
2.0449

> <Gold.Chemscore.DEInternal.Weighted>
1.6912

> <Gold.Chemscore.Rot.Weighted>
4.6237

> <Gold.Chemscore.Internal.Correction.Weighted>
   9.000000E+99

> <Gold.Protein.RotatedTorsions>
[ 6907 6896 6895 6894 ] final  142.56 input  -60.11 | X-H torsion
[ 7974 7965 7964 7962 ] final   28.66 input  175.53 | X-H torsion
[ 8008 7997 7996 7995 ] final   62.47 input   59.86 | X-H torsion
[ 10167 10162 10161 10158 ] final  -59.66 input  -65.29 | X-H torsion
[ 10718 10713 10712 10709 ] final    1.51 input   66.30 | X-H torsion
[ 10763 10752 10751 10750 ] final -123.67 input  -60.55 | X-H torsion
[ 11005 11000 10999 10996 ] final -151.72 input  -57.11 | X-H torsion

> <Gold.Protein.ActiveResidues>
 VAL166  LYS551  ARG553  GLY616  TRP617  ASP618  TYR619  PRO620  LYS621  CYS622 
 ASP623  PHE694  ASN695  SER759  ASP760  ASP761  ALA762  ILE779  LEU786  VAL792 
 PHE793  MET794  SER795  GLU796  ALA797  LYS798  CYS799  TRP800  GLU811  SER814 

> <Gold.Protein.RotatedAtoms>
  152.2173  133.4956  159.5142 H   0  0  0  0  0  0  0  0  0  0  0  0  # atno 6907 bound_to 6896
  150.7004  134.1389  159.4106 H   0  0  0  0  0  0  0  0  0  0  0  0  # atno 6908 bound_to 6896
  151.9309  135.0256  160.0580 H   0  0  0  0  0  0  0  0  0  0  0  0  # atno 6909 bound_to 6896
  146.1716  139.7026  142.8963 H   0  0  0  0  0  0  0  0  0  0  0  0  # atno 7974 bound_to 7965
  155.6149  140.3495  155.4634 H   0  0  0  0  0  0  0  0  0  0  0  0  # atno 8008 bound_to 7997
  156.0125  140.1236  157.0463 H   0  0  0  0  0  0  0  0  0  0  0  0  # atno 8009 bound_to 7997
  154.4286  140.1078  156.5836 H   0  0  0  0  0  0  0  0  0  0  0  0  # atno 8010 bound_to 7997
  140.6121  143.2390  151.5684 H   0  0  0  0  0  0  0  0  0  0  0  0  # atno 10167 bound_to 10162
  156.8493  130.5548  149.5671 H   0  0  0  0  0  0  0  0  0  0  0  0  # atno 10718 bound_to 10713
  154.8711  135.4090  154.2981 H   0  0  0  0  0  0  0  0  0  0  0  0  # atno 10763 bound_to 10752
  153.3845  135.7012  153.6546 H   0  0  0  0  0  0  0  0  0  0  0  0  # atno 10764 bound_to 10752
  153.5354  135.3659  155.2666 H   0  0  0  0  0  0  0  0  0  0  0  0  # atno 10765 bound_to 10752
  140.7266  134.3668  157.5174 H   0  0  0  0  0  0  0  0  0  0  0  0  # atno 11005 bound_to 11000
  145.4324  141.0416  143.2903 LP  0  0  0  0  0  0  0  0  0  0  0  0  # atno 17320 bound_to 7965
  144.8172  139.5856  143.7003 LP  0  0  0  0  0  0  0  0  0  0  0  0  # atno 17321 bound_to 7965
  139.5369  144.2755  152.1271 LP  0  0  0  0  0  0  0  0  0  0  0  0  # atno 17342 bound_to 10162
  140.1956  144.4708  150.6457 LP  0  0  0  0  0  0  0  0  0  0  0  0  # atno 17343 bound_to 10162
  156.0837  130.5841  150.9609 LP  0  0  0  0  0  0  0  0  0  0  0  0  # atno 17370 bound_to 10713
  157.6312  131.0921  150.8437 LP  0  0  0  0  0  0  0  0  0  0  0  0  # atno 17371 bound_to 10713
  139.8836  134.8990  156.2757 LP  0  0  0  0  0  0  0  0  0  0  0  0  # atno 17394 bound_to 11000
  140.9958  133.7181  156.0883 LP  0  0  0  0  0  0  0  0  0  0  0  0  # atno 17395 bound_to 11000

$$$$
