AV-unprocessed.smi:3340|AV-procd|sdf|12879|dock4
  -GOLD-   2272019283D 1   1.00000     0.00000
 Structure written by MMmdl.
 42 43  0  0  0  0  0  0  0  0  2 V2000
  151.7388  144.7832  160.5010 C   0  0  0  0  0  0  0  0  0  0  0  0
  152.0045  143.2946  160.2659 C   0  0  0  0  0  0  0  0  0  0  0  0
  152.8349  142.7364  160.9833 O   0  0  0  0  0  0  0  0  0  0  0  0
  151.3257  142.6449  159.2899 N   0  0  0  0  0  0  0  0  0  0  0  0
  150.3802  143.3232  158.3913 C   0  0  0  0  0  0  0  0  0  0  0  0
  150.9336  143.2721  156.9528 C   0  0  0  0  0  0  0  0  0  0  0  0
  151.1291  141.8616  156.5640 N   0  0  0  0  0  0  0  0  0  0  0  0
  150.4126  141.1830  155.6334 C   0  0  0  0  0  0  0  0  0  0  0  0
  150.8101  140.1492  155.0941 O   0  0  0  0  0  0  0  0  0  0  0  0
  149.2464  141.7596  155.2952 N   0  0  0  0  0  0  0  0  0  0  0  0
  148.3088  141.2599  154.2941 C   0  0  2  0  0  0  0  0  0  0  0  0
  147.0081  142.0760  154.3715 C   0  0  0  0  0  0  0  0  0  0  0  0
  148.0886  139.7438  154.4852 C   0  0  0  0  0  0  0  0  0  0  0  0
  147.1670  139.1726  153.4990 N   0  0  0  0  0  0  0  0  0  0  0  0
  146.4793  137.9905  153.5969 C   0  0  0  0  0  0  0  0  0  0  0  0
  145.7447  137.8691  152.4455 C   0  0  0  0  0  0  0  0  0  0  0  0
  146.0128  138.9828  151.6953 N   0  3  0  0  0  0  0  0  0  0  0  0
  146.8753  139.7761  152.3393 C   0  0  0  0  0  0  0  0  0  0  0  0
  152.0698  141.1843  157.4701 C   0  0  0  0  0  0  0  0  0  0  0  0
  151.5171  141.2375  158.9083 C   0  0  0  0  0  0  0  0  0  0  0  0
  150.6950  144.9520  160.7673 H   0  0  0  0  0  0  0  0  0  0  0  0
  151.9778  145.3644  159.6100 H   0  0  0  0  0  0  0  0  0  0  0  0
  152.3546  145.1591  161.3187 H   0  0  0  0  0  0  0  0  0  0  0  0
  149.4118  142.8231  158.4427 H   0  0  0  0  0  0  0  0  0  0  0  0
  150.1969  144.3601  158.6752 H   0  0  0  0  0  0  0  0  0  0  0  0
  150.2634  143.8257  156.2957 H   0  0  0  0  0  0  0  0  0  0  0  0
  151.8916  143.7916  156.9008 H   0  0  0  0  0  0  0  0  0  0  0  0
  148.9965  142.6186  155.7635 H   0  0  0  0  0  0  0  0  0  0  0  0
  148.7373  141.4277  153.3042 H   0  0  0  0  0  0  0  0  0  0  0  0
  146.3154  141.8015  153.5761 H   0  0  0  0  0  0  0  0  0  0  0  0
  147.2094  143.1429  154.2681 H   0  0  0  0  0  0  0  0  0  0  0  0
  146.5004  141.9243  155.3245 H   0  0  0  0  0  0  0  0  0  0  0  0
  149.0319  139.2030  154.3963 H   0  0  0  0  0  0  0  0  0  0  0  0
  147.6983  139.5348  155.4828 H   0  0  0  0  0  0  0  0  0  0  0  0
  146.5635  137.3405  154.4562 H   0  0  0  0  0  0  0  0  0  0  0  0
  145.0691  137.0943  152.1129 H   0  0  0  0  0  0  0  0  0  0  0  0
  147.2634  140.7156  151.9880 H   0  0  0  0  0  0  0  0  0  0  0  0
  152.2570  140.1482  157.1855 H   0  0  0  0  0  0  0  0  0  0  0  0
  153.0382  141.6843  157.4198 H   0  0  0  0  0  0  0  0  0  0  0  0
  152.1837  140.6902  159.5726 H   0  0  0  0  0  0  0  0  0  0  0  0
  150.5585  140.7195  158.9614 H   0  0  0  0  0  0  0  0  0  0  0  0
  145.6168  139.1802  150.7848 H   0  0  0  0  0  0  0  0  0  0  0  0
  1  2  1  0  0  0  0
  1 21  1  0  0  0  0
  1 22  1  0  0  0  0
  1 23  1  0  0  0  0
  2  3  2  0  0  0  0
  2  4  1  0  0  0  0
  4 20  1  0  0  0  0
  4  5  1  0  0  0  0
  5  6  1  0  0  0  0
  5 24  1  0  0  0  0
  5 25  1  0  0  0  0
  6  7  1  0  0  0  0
  6 26  1  0  0  0  0
  6 27  1  0  0  0  0
  7  8  1  0  0  0  0
  7 19  1  0  0  0  0
  8  9  2  0  0  0  0
  8 10  1  0  0  0  0
 10 11  1  0  0  0  0
 10 28  1  0  0  0  0
 11 12  1  0  0  0  0
 11 13  1  0  0  0  0
 11 29  1  0  0  0  0
 12 30  1  0  0  0  0
 12 31  1  0  0  0  0
 12 32  1  0  0  0  0
 13 14  1  0  0  0  0
 13 33  1  0  0  0  0
 13 34  1  0  0  0  0
 14 18  1  0  0  0  0
 14 15  1  0  0  0  0
 15 16  2  0  0  0  0
 15 35  1  0  0  0  0
 16 17  1  0  0  0  0
 16 36  1  0  0  0  0
 17 18  2  0  0  0  0
 17 42  1  0  0  0  0
 18 37  1  0  0  0  0
 19 20  1  0  0  0  0
 19 38  1  0  0  0  0
 19 39  1  0  0  0  0
 20 40  1  0  0  0  0
 20 41  1  0  0  0  0
M  CHG  1  17   1
M  END
> <s_m_source_file>
AV-unprocessed.smi

> <i_m_source_file_index>
3340

> <i_lp_mmshare_version>
43012

> <i_f3d_flags>
0

> <s_epik_input>
W0NIM11DKD1PKU4xW0NIMl1bQ0gyXU4oW0NIMl1bQ0gyXTEpQyg9TylbTkhdW0NASF0oW0NIM10pW0NIMl1uMltjSF1bY0hdbltjSF0y

> <s_epik_cmdline>
J2VwaWtfcHl0aG9uJywgJy1waCcsICc3LjAnLCAnLXRuJywgJzgnLCAnLW1hJywgJzIwMCcsICctbWV0YWxfYmluZGluZycsICctaW1hZScsICc8aW5maWxlLm1hZT4nLCAnLW9tYWUnLCAnPG91dGZpbGUubWFlPic=

> <r_lp_tautomer_probability>
1

> <r_epik_Ionization_Penalty>
0.254791

> <r_epik_Ionization_Penalty_Charging>
0

> <r_epik_Ionization_Penalty_Neutral>
0.254791

> <r_epik_State_Penalty>
0.246235

> <r_epik_Charging_Adjusted_Penalty>
0.246235

> <i_epik_Tot_Q>
1

> <i_epik_Tot_abs_Q>
1

> <r_epik_Metal_State_Penalty>
0.536161

> <b_epik_Metal_Only>
0

> <s_lp_Force_Field>
OPLS_2005

> <r_lp_Energy>
50.8971

> <b_lp_Chiralities_Consistent>
1

> <s_lp_Variant>
AV-unprocessed.smi:3340-1

> <Gold.Version>
5.8.1

> <Gold.Id.Protein>
6NUR|6NUR_protein|mol2

> <Gold.PLP.Fitness>
46.1348

> <Gold.PLP.PLP>
-37.7976

> <Gold.PLP.part.hbond>
-4.0000

> <Gold.PLP.part.metal>
0.0000

> <Gold.PLP.part.buried>
-2.0882

> <Gold.PLP.part.nonpolar>
-32.2207

> <Gold.PLP.part.repulsive>
0.3037

> <Gold.PLP.ligand.clash>
0.0000

> <Gold.PLP.ligand.torsion>
0.6392

> <Gold.PLP.Chemscore.Hbond>
2.6860

> <Gold.PLP.Chemscore.CHOScore>
0.4941

> <Gold.PLP.Chemscore.Metal>
0.0000

> <Gold.Chemscore.Hbonds>
donor molecule, donor type, donor heavy atom, donor atom, acceptor molecule, acceptor atom, score
      L1  H    10    28       P1  8028  0.77
      L1  H    17    42       P1 10171  0.65
      P1  H  7989  7998       L1     9  1.00
      L1  C    18    37       P1  7957  0.43

> <Gold.PLP.Chemscore.Internal.Correction>
0.0754

> <Gold.Rescore>
     Score         DG    S(hbond)    S(metal)    S(lipo)     H(rot)  DE(clash)    DE(int)     intcor
     11.78     -15.72       1.91        0.00      70.10       1.70       2.03       1.92       ----

> <Gold.Chemscore.Fitness>
11.7752

> <Gold.Chemscore.DG>
-15.7245

> <Gold.Chemscore.ZeroCoef>
-5.4800

> <Gold.Chemscore.Hbond>
1.9126

> <Gold.Chemscore.Metal>
0.0000

> <Gold.Chemscore.Lipo>
70.1012

> <Gold.Chemscore.Internal_Hbond>
0.0000

> <Gold.Chemscore.DEClash>
2.0322

> <Gold.Chemscore.DEInternal>
1.9171

> <Gold.Chemscore.Rot>
1.6975

> <Gold.Chemscore.Internal.Correction>
   9.000000E+99

> <Gold.Chemscore.Hbonds>
donor molecule, donor type, donor heavy atom, donor atom, acceptor molecule, acceptor atom, score
      L1  H    10    28       P1  8028  0.73
      L1  H    17    42       P1 10171  0.62
      P1  H  7989  7998       L1     9  0.25

> <Gold.Chemscore.Hbond.Weighted>
-6.3882

> <Gold.Chemscore.Metal.Weighted>
-0.0000

> <Gold.Chemscore.Lipo.Weighted>
-8.2018

> <Gold.Chemscore.Internal_Hbond.Weighted>
0.0000

> <Gold.Chemscore.DEClash.Weighted>
2.0322

> <Gold.Chemscore.DEInternal.Weighted>
1.9171

> <Gold.Chemscore.Rot.Weighted>
4.3455

> <Gold.Chemscore.Internal.Correction.Weighted>
   9.000000E+99

> <Gold.Protein.RotatedTorsions>
[ 6907 6896 6895 6894 ] final  130.12 input  -60.11 | X-H torsion
[ 7974 7965 7964 7962 ] final -131.01 input  175.53 | X-H torsion
[ 8008 7997 7996 7995 ] final  178.79 input   59.86 | X-H torsion
[ 10167 10162 10161 10158 ] final   62.51 input  -65.29 | X-H torsion
[ 10718 10713 10712 10709 ] final  174.19 input   66.30 | X-H torsion
[ 10763 10752 10751 10750 ] final  123.94 input  -60.55 | X-H torsion
[ 11005 11000 10999 10996 ] final   94.97 input  -57.11 | X-H torsion

> <Gold.Protein.ActiveResidues>
 VAL166  LYS551  ARG553  GLY616  TRP617  ASP618  TYR619  PRO620  LYS621  CYS622 
 ASP623  PHE694  ASN695  SER759  ASP760  ASP761  ALA762  ILE779  LEU786  VAL792 
 PHE793  MET794  SER795  GLU796  ALA797  LYS798  CYS799  TRP800  GLU811  SER814 

> <Gold.Protein.RotatedAtoms>
  152.3558  133.6235  159.5977 H   0  0  0  0  0  0  0  0  0  0  0  0  # atno 6907 bound_to 6896
  150.7567  133.9502  159.3492 H   0  0  0  0  0  0  0  0  0  0  0  0  # atno 6908 bound_to 6896
  151.7348  135.0868  160.0357 H   0  0  0  0  0  0  0  0  0  0  0  0  # atno 6909 bound_to 6896
  144.9420  140.7249  143.4841 H   0  0  0  0  0  0  0  0  0  0  0  0  # atno 7974 bound_to 7965
  156.0507  140.1324  157.0053 H   0  0  0  0  0  0  0  0  0  0  0  0  # atno 8008 bound_to 7997
  154.4433  140.1011  156.6442 H   0  0  0  0  0  0  0  0  0  0  0  0  # atno 8009 bound_to 7997
  155.5528  140.3463  155.4475 H   0  0  0  0  0  0  0  0  0  0  0  0  # atno 8010 bound_to 7997
  140.1431  144.4535  150.6800 H   0  0  0  0  0  0  0  0  0  0  0  0  # atno 10167 bound_to 10162
  156.9532  131.0038  151.2944 H   0  0  0  0  0  0  0  0  0  0  0  0  # atno 10718 bound_to 10713
  153.6534  135.3359  155.3106 H   0  0  0  0  0  0  0  0  0  0  0  0  # atno 10763 bound_to 10752
  154.8532  135.4346  154.1880 H   0  0  0  0  0  0  0  0  0  0  0  0  # atno 10764 bound_to 10752
  153.2828  135.7010  153.7443 H   0  0  0  0  0  0  0  0  0  0  0  0  # atno 10765 bound_to 10752
  139.8793  134.8874  156.3942 H   0  0  0  0  0  0  0  0  0  0  0  0  # atno 11005 bound_to 11000
  145.2976  139.1861  143.4706 LP  0  0  0  0  0  0  0  0  0  0  0  0  # atno 17320 bound_to 7965
  146.3289  140.2963  142.8618 LP  0  0  0  0  0  0  0  0  0  0  0  0  # atno 17321 bound_to 7965
  140.6748  143.2300  151.5534 LP  0  0  0  0  0  0  0  0  0  0  0  0  # atno 17342 bound_to 10162
  139.5462  144.2514  152.1447 LP  0  0  0  0  0  0  0  0  0  0  0  0  # atno 17343 bound_to 10162
  157.5707  130.8309  149.8388 LP  0  0  0  0  0  0  0  0  0  0  0  0  # atno 17370 bound_to 10713
  156.0353  130.3753  150.1576 LP  0  0  0  0  0  0  0  0  0  0  0  0  # atno 17371 bound_to 10713
  140.9312  133.7578  156.0027 LP  0  0  0  0  0  0  0  0  0  0  0  0  # atno 17394 bound_to 11000
  140.8328  134.3158  157.5342 LP  0  0  0  0  0  0  0  0  0  0  0  0  # atno 17395 bound_to 11000

$$$$
