AV-unprocessed.smi:2753|AV-procd|sdf|10614|dock6
  -GOLD-   2272015 63D 1   1.00000     0.00000
 Structure written by MMmdl.
 27 28  0  0  0  0  0  0  0  0  3 V2000
  151.2307  137.3292  155.6559 F   0  0  0  0  0  0  0  0  0  0  0  0
  151.6431  138.5341  155.2626 C   0  0  0  0  0  0  0  0  0  0  0  0
  152.8081  138.4049  154.6281 F   0  0  0  0  0  0  0  0  0  0  0  0
  150.7477  139.0467  154.4183 F   0  0  0  0  0  0  0  0  0  0  0  0
  151.8030  139.4448  156.4639 C   0  0  0  0  0  0  0  0  0  0  0  0
  152.6305  139.0310  157.5493 C   0  0  0  0  0  0  0  0  0  0  0  0
  152.5684  140.0292  158.4375 N   0  5  0  0  0  0  0  0  0  0  0  0
  151.7691  141.0100  157.9674 C   0  0  0  0  0  0  0  0  0  0  0  0
  151.4487  142.3008  158.6924 C   0  0  1  0  0  0  0  0  0  0  0  0
  152.7146  143.1163  159.0119 C   0  0  0  0  0  0  0  0  0  0  0  0
  152.3420  144.4246  159.7261 C   0  0  0  0  0  0  0  0  0  0  0  0
  151.2997  145.2152  158.9169 C   0  0  0  0  0  0  0  0  0  0  0  0
  150.1005  144.3885  158.6577 N   0  3  0  0  0  0  0  0  0  0  0  0
  150.4071  143.1390  157.9286 C   0  0  0  0  0  0  0  0  0  0  0  0
  151.2943  140.6569  156.7580 N   0  0  0  0  0  0  0  0  0  0  0  0
  153.2232  138.1440  157.7355 H   0  0  0  0  0  0  0  0  0  0  0  0
  150.9996  142.0126  159.6444 H   0  0  0  0  0  0  0  0  0  0  0  0
  153.3955  142.5310  159.6311 H   0  0  0  0  0  0  0  0  0  0  0  0
  153.2499  143.3455  158.0893 H   0  0  0  0  0  0  0  0  0  0  0  0
  151.9442  144.2006  160.7168 H   0  0  0  0  0  0  0  0  0  0  0  0
  153.2344  145.0315  159.8810 H   0  0  0  0  0  0  0  0  0  0  0  0
  151.0024  146.1135  159.4583 H   0  0  0  0  0  0  0  0  0  0  0  0
  151.7242  145.5405  157.9661 H   0  0  0  0  0  0  0  0  0  0  0  0
  149.6800  144.1455  159.5433 H   0  0  0  0  0  0  0  0  0  0  0  0
  150.7749  143.3896  156.9325 H   0  0  0  0  0  0  0  0  0  0  0  0
  149.4859  142.5711  157.7952 H   0  0  0  0  0  0  0  0  0  0  0  0
  149.4386  144.9272  158.1177 H   0  0  0  0  0  0  0  0  0  0  0  0
  1  2  1  0  0  0  0
  2  3  1  0  0  0  0
  2  4  1  0  0  0  0
  2  5  1  0  0  0  0
  5 15  1  0  0  0  0
  5  6  2  0  0  0  0
  6  7  1  0  0  0  0
  6 16  1  0  0  0  0
  7  8  1  0  0  0  0
  8  9  1  0  0  0  0
  8 15  2  0  0  0  0
  9 14  1  0  0  0  0
  9 10  1  0  0  0  0
  9 17  1  0  0  0  0
 10 11  1  0  0  0  0
 10 18  1  0  0  0  0
 10 19  1  0  0  0  0
 11 12  1  0  0  0  0
 11 20  1  0  0  0  0
 11 21  1  0  0  0  0
 12 13  1  0  0  0  0
 12 22  1  0  0  0  0
 12 23  1  0  0  0  0
 13 14  1  0  0  0  0
 13 24  1  0  0  0  0
 13 27  1  0  0  0  0
 14 25  1  0  0  0  0
 14 26  1  0  0  0  0
M  CHG  1   7  -1
M  CHG  1  13   1
M  END
> <s_m_source_file>
AV-unprocessed.smi

> <i_m_source_file_index>
2753

> <i_lp_mmshare_version>
43012

> <i_f3d_flags>
0

> <s_epik_input>
RkMoRikoRiljMVtjSF1bbkhdYyhuMSlbQ0BASF0yW0NIMl1bQ0gyXVtDSDJdW05IXVtDSDJdMg==

> <s_epik_cmdline>
J2VwaWtfcHl0aG9uJywgJy1waCcsICc3LjAnLCAnLXRuJywgJzgnLCAnLW1hJywgJzIwMCcsICctbWV0YWxfYmluZGluZycsICctaW1hZScsICc8aW5maWxlLm1hZT4nLCAnLW9tYWUnLCAnPG91dGZpbGUubWFlPic=

> <r_lp_tautomer_probability>
0.5

> <r_epik_Ionization_Penalty>
6.42345

> <r_epik_Ionization_Penalty_Charging>
5.19935

> <r_epik_Ionization_Penalty_Neutral>
1.22411

> <r_epik_State_Penalty>
5.30226

> <r_epik_Charging_Adjusted_Penalty>
10.5016

> <i_epik_Tot_Q>
0

> <i_epik_Tot_abs_Q>
2

> <r_epik_Metal_State_Penalty>
1.35744

> <b_epik_Metal_Only>
1

> <s_lp_Force_Field>
OPLS_2005

> <r_lp_Energy>
18.3827

> <b_lp_Chiralities_Consistent>
1

> <s_lp_Variant>
AV-unprocessed.smi:2753-6

> <Gold.Version>
5.8.1

> <Gold.Id.Protein>
6NUR|6NUR_protein|mol2

> <Gold.PLP.Fitness>
37.8594

> <Gold.PLP.PLP>
-32.0405

> <Gold.PLP.part.hbond>
-1.3910

> <Gold.PLP.part.metal>
0.0000

> <Gold.PLP.part.buried>
-2.8742

> <Gold.PLP.part.nonpolar>
-28.0264

> <Gold.PLP.part.repulsive>
0.1358

> <Gold.PLP.ligand.clash>
0.0000

> <Gold.PLP.ligand.torsion>
0.1113

> <Gold.PLP.Chemscore.Hbond>
2.0000

> <Gold.PLP.Chemscore.CHOScore>
0.0000

> <Gold.PLP.Chemscore.Metal>
0.0000

> <Gold.Chemscore.Hbonds>
donor molecule, donor type, donor heavy atom, donor atom, acceptor molecule, acceptor atom, score
      L1  H    13    27       P1  8029  2.00

> <Gold.PLP.Chemscore.Internal.Correction>
0.0416

> <Gold.Rescore>
     Score         DG    S(hbond)    S(metal)    S(lipo)     H(rot)  DE(clash)    DE(int)     intcor
     13.10     -13.14       0.63        0.00      69.36       1.00       0.01       0.03       ----

> <Gold.Chemscore.Fitness>
13.0965

> <Gold.Chemscore.DG>
-13.1384

> <Gold.Chemscore.ZeroCoef>
-5.4800

> <Gold.Chemscore.Hbond>
0.6296

> <Gold.Chemscore.Metal>
0.0000

> <Gold.Chemscore.Lipo>
69.3621

> <Gold.Chemscore.Internal_Hbond>
0.0000

> <Gold.Chemscore.DEClash>
0.0098

> <Gold.Chemscore.DEInternal>
0.0321

> <Gold.Chemscore.Rot>
1.0000

> <Gold.Chemscore.Internal.Correction>
   9.000000E+99

> <Gold.Chemscore.Hbonds>
donor molecule, donor type, donor heavy atom, donor atom, acceptor molecule, acceptor atom, score
      L1  H    13    27       P1  8029  0.24

> <Gold.Chemscore.Hbond.Weighted>
-2.1030

> <Gold.Chemscore.Metal.Weighted>
-0.0000

> <Gold.Chemscore.Lipo.Weighted>
-8.1154

> <Gold.Chemscore.Internal_Hbond.Weighted>
0.0000

> <Gold.Chemscore.DEClash.Weighted>
0.0098

> <Gold.Chemscore.DEInternal.Weighted>
0.0321

> <Gold.Chemscore.Rot.Weighted>
2.5600

> <Gold.Chemscore.Internal.Correction.Weighted>
   9.000000E+99

> <Gold.Protein.RotatedTorsions>
[ 6907 6896 6895 6894 ] final  -36.60 input  -60.11 | X-H torsion
[ 7974 7965 7964 7962 ] final  -11.98 input  175.53 | X-H torsion
[ 8008 7997 7996 7995 ] final   19.89 input   59.86 | X-H torsion
[ 10167 10162 10161 10158 ] final -147.12 input  -65.29 | X-H torsion
[ 10718 10713 10712 10709 ] final   15.00 input   66.30 | X-H torsion
[ 10763 10752 10751 10750 ] final -126.29 input  -60.55 | X-H torsion
[ 11005 11000 10999 10996 ] final  -30.99 input  -57.11 | X-H torsion

> <Gold.Protein.ActiveResidues>
 VAL166  LYS551  ARG553  GLY616  TRP617  ASP618  TYR619  PRO620  LYS621  CYS622 
 ASP623  PHE694  ASN695  SER759  ASP760  ASP761  ALA762  ILE779  LEU786  VAL792 
 PHE793  MET794  SER795  GLU796  ALA797  LYS798  CYS799  TRP800  GLU811  SER814 

> <Gold.Protein.RotatedAtoms>
  151.0252  134.9499  159.8080 H   0  0  0  0  0  0  0  0  0  0  0  0  # atno 6907 bound_to 6896
  152.5334  134.2852  159.9032 H   0  0  0  0  0  0  0  0  0  0  0  0  # atno 6908 bound_to 6896
  151.2860  133.4145  159.2664 H   0  0  0  0  0  0  0  0  0  0  0  0  # atno 6909 bound_to 6896
  146.2168  140.2991  142.8374 H   0  0  0  0  0  0  0  0  0  0  0  0  # atno 7974 bound_to 7965
  154.9274  140.3035  155.5185 H   0  0  0  0  0  0  0  0  0  0  0  0  # atno 8008 bound_to 7997
  156.3006  140.2360  156.4267 H   0  0  0  0  0  0  0  0  0  0  0  0  # atno 8009 bound_to 7997
  154.8271  140.0420  157.1440 H   0  0  0  0  0  0  0  0  0  0  0  0  # atno 8010 bound_to 7997
  139.7651  143.8320  152.2614 H   0  0  0  0  0  0  0  0  0  0  0  0  # atno 10167 bound_to 10162
  157.0472  130.6255  149.5761 H   0  0  0  0  0  0  0  0  0  0  0  0  # atno 10718 bound_to 10713
  154.8744  135.4000  154.3407 H   0  0  0  0  0  0  0  0  0  0  0  0  # atno 10763 bound_to 10752
  153.4206  135.7023  153.6302 H   0  0  0  0  0  0  0  0  0  0  0  0  # atno 10764 bound_to 10752
  153.4965  135.3737  155.2488 H   0  0  0  0  0  0  0  0  0  0  0  0  # atno 10765 bound_to 10752
  140.9430  133.7267  156.1104 H   0  0  0  0  0  0  0  0  0  0  0  0  # atno 11005 bound_to 11000
  144.9070  140.7712  143.5831 LP  0  0  0  0  0  0  0  0  0  0  0  0  # atno 17320 bound_to 7965
  145.2920  139.1880  143.4735 LP  0  0  0  0  0  0  0  0  0  0  0  0  # atno 17321 bound_to 7965
  139.8337  144.7242  150.9418 LP  0  0  0  0  0  0  0  0  0  0  0  0  # atno 17342 bound_to 10162
  140.7810  143.4046  151.1092 LP  0  0  0  0  0  0  0  0  0  0  0  0  # atno 17343 bound_to 10162
  156.0019  130.5100  150.7694 LP  0  0  0  0  0  0  0  0  0  0  0  0  # atno 17370 bound_to 10713
  157.5059  131.0922  151.0258 LP  0  0  0  0  0  0  0  0  0  0  0  0  # atno 17371 bound_to 10713
  140.7708  134.3835  157.5508 LP  0  0  0  0  0  0  0  0  0  0  0  0  # atno 17394 bound_to 11000
  139.8825  134.9021  156.2825 LP  0  0  0  0  0  0  0  0  0  0  0  0  # atno 17395 bound_to 11000

$$$$
