AV-unprocessed.smi:2923|AV-procd|sdf|11209|dock3
  -GOLD-   2272016103D 1   1.00000     0.00000
 Structure written by MMmdl.
 47 49  0  0  0  0  0  0  0  0  2 V2000
  151.3143  129.2719  154.8038 C   0  0  0  0  0  0  0  0  0  0  0  0
  149.8925  129.5739  154.8745 N   0  0  0  0  0  0  0  0  0  0  0  0
  149.0136  128.6928  154.1202 C   0  0  0  0  0  0  0  0  0  0  0  0
  149.6143  130.9319  154.6687 C   0  0  0  0  0  0  0  0  0  0  0  0
  148.9074  131.3701  153.5299 C   0  0  0  0  0  0  0  0  0  0  0  0
  148.6441  132.7455  153.3663 C   0  0  0  0  0  0  0  0  0  0  0  0
  149.0968  133.6664  154.3360 C   0  0  0  0  0  0  0  0  0  0  0  0
  148.7918  135.0400  154.1373 N   0  0  0  0  0  0  0  0  0  0  0  0
  148.6944  136.0166  155.0558 C   0  0  0  0  0  0  0  0  0  0  0  0
  148.8942  135.8824  156.2626 O   0  0  0  0  0  0  0  0  0  0  0  0
  148.3609  137.1827  154.4877 N   0  0  0  0  0  0  0  0  0  0  0  0
  148.2016  138.4480  155.2121 C   0  0  1  0  0  0  0  0  0  0  0  0
  149.5182  138.9491  155.8112 C   0  0  1  0  0  0  0  0  0  0  0  0
  150.8415  138.3501  156.1251 C   0  0  0  0  0  0  0  0  0  0  0  0
  151.7134  139.5329  155.6226 C   0  0  0  0  0  0  0  0  0  0  0  0
  150.8099  140.4262  154.9220 O   0  0  0  0  0  0  0  0  0  0  0  0
  149.7823  139.5742  154.4565 C   0  0  2  0  0  0  0  0  0  0  0  0
  148.2536  139.7566  154.3263 C   0  0  0  0  0  0  0  0  0  0  0  0
  147.6990  139.6612  152.9004 C   0  0  0  0  0  0  0  0  0  0  0  0
  147.6467  141.0385  154.9252 C   0  0  0  0  0  0  0  0  0  0  0  0
  149.7936  133.1681  155.4642 C   0  0  0  0  0  0  0  0  0  0  0  0
  150.0235  131.8424  155.5836 N   0  3  0  0  0  0  0  0  0  0  0  0
  151.8901  129.9635  155.4201 H   0  0  0  0  0  0  0  0  0  0  0  0
  151.6781  129.3392  153.7777 H   0  0  0  0  0  0  0  0  0  0  0  0
  151.5033  128.2614  155.1667 H   0  0  0  0  0  0  0  0  0  0  0  0
  147.9704  128.9866  154.2427 H   0  0  0  0  0  0  0  0  0  0  0  0
  149.1171  127.6665  154.4730 H   0  0  0  0  0  0  0  0  0  0  0  0
  149.2557  128.7143  153.0568 H   0  0  0  0  0  0  0  0  0  0  0  0
  148.5677  130.6611  152.7888 H   0  0  0  0  0  0  0  0  0  0  0  0
  148.1009  133.0878  152.4975 H   0  0  0  0  0  0  0  0  0  0  0  0
  148.6755  135.3243  153.1758 H   0  0  0  0  0  0  0  0  0  0  0  0
  148.2169  137.2072  153.4889 H   0  0  0  0  0  0  0  0  0  0  0  0
  147.3826  138.4448  155.9334 H   0  0  0  0  0  0  0  0  0  0  0  0
  149.2836  139.6889  156.5802 H   0  0  0  0  0  0  0  0  0  0  0  0
  150.9767  138.1503  157.1883 H   0  0  0  0  0  0  0  0  0  0  0  0
  151.0266  137.4354  155.5604 H   0  0  0  0  0  0  0  0  0  0  0  0
  152.1904  140.0662  156.4454 H   0  0  0  0  0  0  0  0  0  0  0  0
  152.4956  139.1791  154.9498 H   0  0  0  0  0  0  0  0  0  0  0  0
  150.1769  138.8760  153.7109 H   0  0  0  0  0  0  0  0  0  0  0  0
  147.8798  140.5775  152.3373 H   0  0  0  0  0  0  0  0  0  0  0  0
  146.6232  139.4831  152.9032 H   0  0  0  0  0  0  0  0  0  0  0  0
  148.1592  138.8508  152.3349 H   0  0  0  0  0  0  0  0  0  0  0  0
  147.9977  141.9247  154.3956 H   0  0  0  0  0  0  0  0  0  0  0  0
  147.8890  141.1860  155.9762 H   0  0  0  0  0  0  0  0  0  0  0  0
  146.5583  141.0295  154.8587 H   0  0  0  0  0  0  0  0  0  0  0  0
  150.1649  133.7672  156.2818 H   0  0  0  0  0  0  0  0  0  0  0  0
  150.5274  131.5119  156.4070 H   0  0  0  0  0  0  0  0  0  0  0  0
  1  2  1  0  0  0  0
  1 23  1  0  0  0  0
  1 24  1  0  0  0  0
  1 25  1  0  0  0  0
  2  3  1  0  0  0  0
  2  4  1  0  0  0  0
  3 26  1  0  0  0  0
  3 27  1  0  0  0  0
  3 28  1  0  0  0  0
  4 22  1  0  0  0  0
  4  5  2  0  0  0  0
  5  6  1  0  0  0  0
  5 29  1  0  0  0  0
  6  7  2  0  0  0  0
  6 30  1  0  0  0  0
  7  8  1  0  0  0  0
  7 21  1  0  0  0  0
  8  9  1  0  0  0  0
  8 31  1  0  0  0  0
  9 10  2  0  0  0  0
  9 11  1  0  0  0  0
 11 12  1  0  0  0  0
 11 32  1  0  0  0  0
 12 18  1  0  0  0  0
 12 13  1  0  0  0  0
 12 33  1  0  0  0  0
 13 17  1  0  0  0  0
 13 14  1  0  0  0  0
 13 34  1  0  0  0  0
 14 15  1  0  0  0  0
 14 35  1  0  0  0  0
 14 36  1  0  0  0  0
 15 16  1  0  0  0  0
 15 37  1  0  0  0  0
 15 38  1  0  0  0  0
 16 17  1  0  0  0  0
 17 18  1  0  0  0  0
 17 39  1  0  0  0  0
 18 19  1  0  0  0  0
 18 20  1  0  0  0  0
 19 40  1  0  0  0  0
 19 41  1  0  0  0  0
 19 42  1  0  0  0  0
 20 43  1  0  0  0  0
 20 44  1  0  0  0  0
 20 45  1  0  0  0  0
 21 22  2  0  0  0  0
 21 46  1  0  0  0  0
 22 47  1  0  0  0  0
M  CHG  1  22   1
M  END
> <s_m_source_file>
AV-unprocessed.smi

> <i_m_source_file_index>
2923

> <i_lp_mmshare_version>
43012

> <i_f3d_flags>
0

> <s_epik_input>
W0NIM11OKFtDSDNdKWMxW2NIXVtjSF1jKFtjSF1uMSlbTkhdQyg9TylbTkhdW0NASF0yQyhbQ0gzXSkoW0NIM10pW0NAQEhdKFtDQEhdMjMpT1tDSDJdW0NIMl0z

> <s_epik_cmdline>
J2VwaWtfcHl0aG9uJywgJy1waCcsICc3LjAnLCAnLXRuJywgJzgnLCAnLW1hJywgJzIwMCcsICctbWV0YWxfYmluZGluZycsICctaW1hZScsICc8aW5maWxlLm1hZT4nLCAnLW9tYWUnLCAnPG91dGZpbGUubWFlPic=

> <r_lp_tautomer_probability>
0.999994

> <r_epik_Ionization_Penalty>
0.252205

> <r_epik_Ionization_Penalty_Charging>
0.252185

> <r_epik_Ionization_Penalty_Neutral>
1.99479e-05

> <r_epik_State_Penalty>
0.243573

> <r_epik_Charging_Adjusted_Penalty>
0.495758

> <i_epik_Tot_Q>
1

> <i_epik_Tot_abs_Q>
1

> <r_epik_Metal_State_Penalty>
0.534372

> <b_epik_Metal_Only>
0

> <s_lp_Force_Field>
OPLS_2005

> <r_lp_Energy>
76.1275

> <b_lp_Chiralities_Consistent>
1

> <s_lp_Variant>
AV-unprocessed.smi:2923-8

> <Gold.Version>
5.8.1

> <Gold.Id.Protein>
6NUR|6NUR_protein|mol2

> <Gold.PLP.Fitness>
37.8151

> <Gold.PLP.PLP>
-30.6296

> <Gold.PLP.part.hbond>
-2.9579

> <Gold.PLP.part.metal>
0.0000

> <Gold.PLP.part.buried>
1.2358

> <Gold.PLP.part.nonpolar>
-27.3062

> <Gold.PLP.part.repulsive>
0.1680

> <Gold.PLP.ligand.clash>
0.2270

> <Gold.PLP.ligand.torsion>
0.6030

> <Gold.PLP.Chemscore.Hbond>
2.7200

> <Gold.PLP.Chemscore.CHOScore>
0.0000

> <Gold.PLP.Chemscore.Metal>
0.0000

> <Gold.Chemscore.Hbonds>
donor molecule, donor type, donor heavy atom, donor atom, acceptor molecule, acceptor atom, score
      L1  H     8    31       P1  7948  1.00
      L1  H    11    32       P1  7948  0.73
      P1  H  7989  7998       L1    16  1.00

> <Gold.PLP.Chemscore.Internal.Correction>
0.4585

> <Gold.Rescore>
     Score         DG    S(hbond)    S(metal)    S(lipo)     H(rot)  DE(clash)    DE(int)     intcor
     14.31     -17.82       1.92        0.00      77.00       1.20       1.79       1.72       ----

> <Gold.Chemscore.Fitness>
14.3120

> <Gold.Chemscore.DG>
-17.8244

> <Gold.Chemscore.ZeroCoef>
-5.4800

> <Gold.Chemscore.Hbond>
1.9222

> <Gold.Chemscore.Metal>
0.0000

> <Gold.Chemscore.Lipo>
76.9981

> <Gold.Chemscore.Internal_Hbond>
0.0000

> <Gold.Chemscore.DEClash>
1.7918

> <Gold.Chemscore.DEInternal>
1.7206

> <Gold.Chemscore.Rot>
1.2049

> <Gold.Chemscore.Internal.Correction>
   9.000000E+99

> <Gold.Chemscore.Hbonds>
donor molecule, donor type, donor heavy atom, donor atom, acceptor molecule, acceptor atom, score
      L1  H     8    31       P1  7948  0.79
      L1  H    11    32       P1  7948  0.69
      P1  H  7989  7998       L1    16  0.24

> <Gold.Chemscore.Hbond.Weighted>
-6.4202

> <Gold.Chemscore.Metal.Weighted>
-0.0000

> <Gold.Chemscore.Lipo.Weighted>
-9.0088

> <Gold.Chemscore.Internal_Hbond.Weighted>
0.0000

> <Gold.Chemscore.DEClash.Weighted>
1.7918

> <Gold.Chemscore.DEInternal.Weighted>
1.7206

> <Gold.Chemscore.Rot.Weighted>
3.0846

> <Gold.Chemscore.Internal.Correction.Weighted>
   9.000000E+99

> <Gold.Protein.RotatedTorsions>
[ 6907 6896 6895 6894 ] final   99.30 input  -60.11 | X-H torsion
[ 7974 7965 7964 7962 ] final -133.69 input  175.53 | X-H torsion
[ 8008 7997 7996 7995 ] final  -11.25 input   59.86 | X-H torsion
[ 10167 10162 10161 10158 ] final   25.14 input  -65.29 | X-H torsion
[ 10718 10713 10712 10709 ] final  122.95 input   66.30 | X-H torsion
[ 10763 10752 10751 10750 ] final -120.81 input  -60.55 | X-H torsion
[ 11005 11000 10999 10996 ] final  -52.03 input  -57.11 | X-H torsion

> <Gold.Protein.ActiveResidues>
 VAL166  LYS551  ARG553  GLY616  TRP617  ASP618  TYR619  PRO620  LYS621  CYS622 
 ASP623  PHE694  ASN695  SER759  ASP760  ASP761  ALA762  ILE779  LEU786  VAL792 
 PHE793  MET794  SER795  GLU796  ALA797  LYS798  CYS799  TRP800  GLU811  SER814 

> <Gold.Protein.RotatedAtoms>
  152.5394  134.0449  159.8083 H   0  0  0  0  0  0  0  0  0  0  0  0  # atno 6907 bound_to 6896
  151.0599  133.5545  159.2642 H   0  0  0  0  0  0  0  0  0  0  0  0  # atno 6908 bound_to 6896
  151.2447  135.0609  159.9093 H   0  0  0  0  0  0  0  0  0  0  0  0  # atno 6909 bound_to 6896
  144.9170  140.6967  143.4989 H   0  0  0  0  0  0  0  0  0  0  0  0  # atno 7974 bound_to 7965
  154.5481  140.2307  155.8530 H   0  0  0  0  0  0  0  0  0  0  0  0  # atno 8008 bound_to 7997
  156.1922  140.3074  155.9316 H   0  0  0  0  0  0  0  0  0  0  0  0  # atno 8009 bound_to 7997
  155.3124  140.0436  157.3026 H   0  0  0  0  0  0  0  0  0  0  0  0  # atno 8010 bound_to 7997
  140.5130  144.0128  150.6381 H   0  0  0  0  0  0  0  0  0  0  0  0  # atno 10167 bound_to 10162
  157.5703  131.1083  150.8380 H   0  0  0  0  0  0  0  0  0  0  0  0  # atno 10718 bound_to 10713
  154.8653  135.4190  154.2519 H   0  0  0  0  0  0  0  0  0  0  0  0  # atno 10763 bound_to 10752
  153.3464  135.6996  153.6830 H   0  0  0  0  0  0  0  0  0  0  0  0  # atno 10764 bound_to 10752
  153.5788  135.3577  155.2839 H   0  0  0  0  0  0  0  0  0  0  0  0  # atno 10765 bound_to 10752
  141.0903  133.6634  156.3964 H   0  0  0  0  0  0  0  0  0  0  0  0  # atno 11005 bound_to 11000
  145.3359  139.1746  143.4512 LP  0  0  0  0  0  0  0  0  0  0  0  0  # atno 17320 bound_to 7965
  146.3187  140.3394  142.8647 LP  0  0  0  0  0  0  0  0  0  0  0  0  # atno 17321 bound_to 7965
  140.3456  143.2993  152.0542 LP  0  0  0  0  0  0  0  0  0  0  0  0  # atno 17342 bound_to 10162
  139.4901  144.6411  151.6875 LP  0  0  0  0  0  0  0  0  0  0  0  0  # atno 17343 bound_to 10162
  156.8853  130.5194  149.5289 LP  0  0  0  0  0  0  0  0  0  0  0  0  # atno 17370 bound_to 10713
  156.0748  130.5773  150.9453 LP  0  0  0  0  0  0  0  0  0  0  0  0  # atno 17371 bound_to 10713
  140.5268  134.6251  157.5337 LP  0  0  0  0  0  0  0  0  0  0  0  0  # atno 17394 bound_to 11000
  139.9727  134.7266  156.0009 LP  0  0  0  0  0  0  0  0  0  0  0  0  # atno 17395 bound_to 11000

$$$$
