AV-unprocessed.smi:87|AV-procd|sdf|820|dock3
  -GOLD-   2262017223D 1   1.00000     0.00000
 Structure written by MMmdl.
 58 60  0  0  0  0  0  0  0  0  1 V2000
  152.5734  143.1985  161.8566 C   0  0  0  0  0  0  0  0  0  0  0  0
  153.4045  142.7021  160.6644 C   0  0  0  0  0  0  0  0  0  0  0  0
  152.7548  142.9552  159.2830 C   0  0  0  0  0  0  0  0  0  0  0  0
  152.3944  144.4473  159.0943 C   0  0  0  0  0  0  0  0  0  0  0  0
  151.7010  144.7635  157.7607 C   0  0  0  0  0  0  0  0  0  0  0  0
  151.5032  142.0631  159.0755 C   0  0  0  0  0  0  0  0  0  0  0  0
  151.6940  140.9760  158.1106 N   0  0  0  0  0  0  0  0  0  0  0  0
  151.3830  141.2031  156.6998 C   0  0  0  0  0  0  0  0  0  0  0  0
  149.9687  140.7354  156.3246 C   0  0  0  0  0  0  0  0  0  0  0  0
  149.6589  140.9714  154.9072 C   0  0  0  0  0  0  0  0  0  0  0  0
  149.4147  141.1571  153.7918 N   0  0  0  0  0  0  0  0  0  0  0  0
  151.8929  139.7159  158.5865 C   0  0  0  0  0  0  0  0  0  0  0  0
  151.0928  138.7255  158.1097 N   0  0  0  0  0  0  0  0  0  0  0  0
  151.2386  137.4676  158.5333 C   0  0  0  0  0  0  0  0  0  0  0  0
  152.1094  136.9823  159.4183 N   0  0  0  0  0  0  0  0  0  0  0  0
  152.9238  137.9649  159.8975 C   0  0  0  0  0  0  0  0  0  0  0  0
  152.8890  139.3441  159.5398 C   0  0  0  0  0  0  0  0  0  0  0  0
  153.8896  140.0245  160.2270 N   0  0  0  0  0  0  0  0  0  0  0  0
  154.4701  139.1087  160.9519 C   0  0  0  0  0  0  0  0  0  0  0  0
  153.9525  137.8426  160.8147 N   0  0  0  0  0  0  0  0  0  0  0  0
  154.4076  136.6410  161.4939 C   0  0  0  0  0  0  0  0  0  0  0  0
  155.4158  135.8252  160.6520 C   0  0  2  0  0  0  0  0  0  0  0  0
  154.6965  135.1800  159.6170 O   0  0  0  0  0  0  0  0  0  0  0  0
  156.1608  134.7231  161.4434 C   0  0  2  0  0  0  0  0  0  0  0  0
  155.2869  133.5609  161.9464 C   0  0  0  0  0  0  0  0  0  0  0  0
  154.8778  134.0055  163.3312 C   0  0  0  0  0  0  0  0  0  0  0  0
  156.1511  134.6902  163.8001 C   0  0  0  0  0  0  0  0  0  0  0  0
  156.6643  135.3297  162.6380 O   0  0  0  0  0  0  0  0  0  0  0  0
  153.1280  143.0750  162.7870 H   0  0  0  0  0  0  0  0  0  0  0  0
  151.6392  142.6490  161.9644 H   0  0  0  0  0  0  0  0  0  0  0  0
  152.3334  144.2573  161.7551 H   0  0  0  0  0  0  0  0  0  0  0  0
  154.3630  143.2160  160.7182 H   0  0  0  0  0  0  0  0  0  0  0  0
  153.6267  141.6412  160.7834 H   0  0  0  0  0  0  0  0  0  0  0  0
  153.4919  142.7003  158.5206 H   0  0  0  0  0  0  0  0  0  0  0  0
  151.7702  144.7859  159.9221 H   0  0  0  0  0  0  0  0  0  0  0  0
  153.2967  145.0552  159.1341 H   0  0  0  0  0  0  0  0  0  0  0  0
  151.5602  145.8386  157.6477 H   0  0  0  0  0  0  0  0  0  0  0  0
  150.7172  144.3012  157.6897 H   0  0  0  0  0  0  0  0  0  0  0  0
  152.2977  144.4186  156.9160 H   0  0  0  0  0  0  0  0  0  0  0  0
  151.1960  141.6482  160.0359 H   0  0  0  0  0  0  0  0  0  0  0  0
  150.6554  142.6594  158.7416 H   0  0  0  0  0  0  0  0  0  0  0  0
  151.5170  142.2548  156.4508 H   0  0  0  0  0  0  0  0  0  0  0  0
  152.1009  140.6636  156.0816 H   0  0  0  0  0  0  0  0  0  0  0  0
  149.8605  139.6677  156.5156 H   0  0  0  0  0  0  0  0  0  0  0  0
  149.2065  141.2454  156.9123 H   0  0  0  0  0  0  0  0  0  0  0  0
  150.5606  136.7470  158.1002 H   0  0  0  0  0  0  0  0  0  0  0  0
  155.2999  139.3317  161.6067 H   0  0  0  0  0  0  0  0  0  0  0  0
  154.8519  136.9547  162.4377 H   0  0  0  0  0  0  0  0  0  0  0  0
  153.5393  136.0305  161.7444 H   0  0  0  0  0  0  0  0  0  0  0  0
  156.1360  136.5075  160.1985 H   0  0  0  0  0  0  0  0  0  0  0  0
  155.2667  135.0826  158.8696 H   0  0  0  0  0  0  0  0  0  0  0  0
  156.9850  134.3265  160.8482 H   0  0  0  0  0  0  0  0  0  0  0  0
  154.4386  133.3093  161.3134 H   0  0  0  0  0  0  0  0  0  0  0  0
  155.8988  132.6615  162.0287 H   0  0  0  0  0  0  0  0  0  0  0  0
  154.0573  134.7218  163.2739 H   0  0  0  0  0  0  0  0  0  0  0  0
  154.5741  133.1808  163.9763 H   0  0  0  0  0  0  0  0  0  0  0  0
  155.9753  135.4027  164.6064 H   0  0  0  0  0  0  0  0  0  0  0  0
  156.8764  133.9531  164.1469 H   0  0  0  0  0  0  0  0  0  0  0  0
  1  2  1  0  0  0  0
  1 29  1  0  0  0  0
  1 30  1  0  0  0  0
  1 31  1  0  0  0  0
  2  3  1  0  0  0  0
  2 32  1  0  0  0  0
  2 33  1  0  0  0  0
  3  4  1  0  0  0  0
  3  6  1  0  0  0  0
  3 34  1  0  0  0  0
  4  5  1  0  0  0  0
  4 35  1  0  0  0  0
  4 36  1  0  0  0  0
  5 37  1  0  0  0  0
  5 38  1  0  0  0  0
  5 39  1  0  0  0  0
  6  7  1  0  0  0  0
  6 40  1  0  0  0  0
  6 41  1  0  0  0  0
  7  8  1  0  0  0  0
  7 12  1  0  0  0  0
  8  9  1  0  0  0  0
  8 42  1  0  0  0  0
  8 43  1  0  0  0  0
  9 10  1  0  0  0  0
  9 44  1  0  0  0  0
  9 45  1  0  0  0  0
 10 11  3  0  0  0  0
 12 17  1  0  0  0  0
 12 13  2  0  0  0  0
 13 14  1  0  0  0  0
 14 15  2  0  0  0  0
 14 46  1  0  0  0  0
 15 16  1  0  0  0  0
 16 20  1  0  0  0  0
 16 17  2  0  0  0  0
 17 18  1  0  0  0  0
 18 19  2  0  0  0  0
 19 20  1  0  0  0  0
 19 47  1  0  0  0  0
 20 21  1  0  0  0  0
 21 22  1  0  0  0  0
 21 48  1  0  0  0  0
 21 49  1  0  0  0  0
 22 23  1  0  0  0  0
 22 24  1  0  0  0  0
 22 50  1  0  0  0  0
 23 51  1  0  0  0  0
 24 28  1  0  0  0  0
 24 25  1  0  0  0  0
 24 52  1  0  0  0  0
 25 26  1  0  0  0  0
 25 53  1  0  0  0  0
 25 54  1  0  0  0  0
 26 27  1  0  0  0  0
 26 55  1  0  0  0  0
 26 56  1  0  0  0  0
 27 28  1  0  0  0  0
 27 57  1  0  0  0  0
 27 58  1  0  0  0  0
M  END
> <s_m_source_file>
AV-unprocessed.smi

> <i_m_source_file_index>
87

> <i_lp_mmshare_version>
43012

> <i_f3d_flags>
0

> <s_epik_input>
W0NIM11bQ0gyXVtDSF0oW0NIMl1bQ0gzXSlbQ0gyXU4oW0NIMl1bQ0gyXUMjTiljKG5bY0hdbjEpYyhjMTIpbltjSF1uMltDSDJdW0NASF0oW09IXSlbQ0BASF0zW0NIMl1bQ0gyXVtDSDJdTzM=

> <s_epik_cmdline>
J2VwaWtfcHl0aG9uJywgJy1waCcsICc3LjAnLCAnLXRuJywgJzgnLCAnLW1hJywgJzIwMCcsICctbWV0YWxfYmluZGluZycsICctaW1hZScsICc8aW5maWxlLm1hZT4nLCAnLW9tYWUnLCAnPG91dGZpbGUubWFlPic=

> <r_lp_tautomer_probability>
1

> <r_epik_Ionization_Penalty>
0.000348566

> <r_epik_Ionization_Penalty_Charging>
0

> <r_epik_Ionization_Penalty_Neutral>
0.000348566

> <r_epik_State_Penalty>
-0

> <r_epik_Charging_Adjusted_Penalty>
0

> <i_epik_Tot_Q>
0

> <i_epik_Tot_abs_Q>
0

> <r_epik_Metal_State_Penalty>
-0

> <b_epik_Metal_Only>
0

> <s_lp_Force_Field>
OPLS_2005

> <r_lp_Energy>
36.7846

> <b_lp_Chiralities_Consistent>
1

> <s_lp_Variant>
AV-unprocessed.smi:87-1

> <Gold.Version>
5.8.1

> <Gold.Id.Protein>
6NUR|6NUR_protein|mol2

> <Gold.PLP.Fitness>
56.6271

> <Gold.PLP.PLP>
-52.4461

> <Gold.PLP.part.hbond>
-4.0000

> <Gold.PLP.part.metal>
0.0000

> <Gold.PLP.part.buried>
-5.8414

> <Gold.PLP.part.nonpolar>
-43.2697

> <Gold.PLP.part.repulsive>
1.8676

> <Gold.PLP.ligand.clash>
0.0000

> <Gold.PLP.ligand.torsion>
2.5760

> <Gold.PLP.Chemscore.Hbond>
2.8667

> <Gold.PLP.Chemscore.CHOScore>
0.0000

> <Gold.PLP.Chemscore.Metal>
0.0000

> <Gold.Chemscore.Hbonds>
donor molecule, donor type, donor heavy atom, donor atom, acceptor molecule, acceptor atom, score
      P1  H  6896  6907       L1    23  0.09
      P1  H  6896  6909       L1    15  0.69
      P1  H  7989  7998       L1    11  0.04
      P1  H  8011  8017       L1    11  0.91

> <Gold.PLP.Chemscore.Internal.Correction>
0.7331

> <Gold.Rescore>
     Score         DG    S(hbond)    S(metal)    S(lipo)     H(rot)  DE(clash)    DE(int)     intcor
     15.69     -18.38       2.34        0.00     117.08       3.37       0.07       2.62       ----

> <Gold.Chemscore.Fitness>
15.6882

> <Gold.Chemscore.DG>
-18.3756

> <Gold.Chemscore.ZeroCoef>
-5.4800

> <Gold.Chemscore.Hbond>
2.3405

> <Gold.Chemscore.Metal>
0.0000

> <Gold.Chemscore.Lipo>
117.0802

> <Gold.Chemscore.Internal_Hbond>
0.0000

> <Gold.Chemscore.DEClash>
0.0659

> <Gold.Chemscore.DEInternal>
2.6215

> <Gold.Chemscore.Rot>
3.3672

> <Gold.Chemscore.Internal.Correction>
   9.000000E+99

> <Gold.Chemscore.Hbonds>
donor molecule, donor type, donor heavy atom, donor atom, acceptor molecule, acceptor atom, score
      P1  H  6896  6907       L1    23  0.11
      P1  H  6896  6909       L1    15  0.26
      P1  H  8011  8017       L1    11  0.87

> <Gold.Chemscore.Hbond.Weighted>
-7.8173

> <Gold.Chemscore.Metal.Weighted>
-0.0000

> <Gold.Chemscore.Lipo.Weighted>
-13.6984

> <Gold.Chemscore.Internal_Hbond.Weighted>
0.0000

> <Gold.Chemscore.DEClash.Weighted>
0.0659

> <Gold.Chemscore.DEInternal.Weighted>
2.6215

> <Gold.Chemscore.Rot.Weighted>
8.6201

> <Gold.Chemscore.Internal.Correction.Weighted>
   9.000000E+99

> <Gold.Protein.RotatedTorsions>
[ 6907 6896 6895 6894 ] final  100.84 input  -60.11 | X-H torsion
[ 7974 7965 7964 7962 ] final  -57.66 input  175.53 | X-H torsion
[ 8008 7997 7996 7995 ] final  106.84 input   59.86 | X-H torsion
[ 10167 10162 10161 10158 ] final   62.34 input  -65.29 | X-H torsion
[ 10718 10713 10712 10709 ] final   11.50 input   66.30 | X-H torsion
[ 10763 10752 10751 10750 ] final  138.71 input  -60.55 | X-H torsion
[ 11005 11000 10999 10996 ] final -135.38 input  -57.11 | X-H torsion

> <Gold.Protein.ActiveResidues>
 VAL166  LYS551  ARG553  GLY616  TRP617  ASP618  TYR619  PRO620  LYS621  CYS622 
 ASP623  PHE694  ASN695  SER759  ASP760  ASP761  ALA762  ILE779  LEU786  VAL792 
 PHE793  MET794  SER795  GLU796  ALA797  LYS798  CYS799  TRP800  GLU811  SER814 

> <Gold.Protein.RotatedAtoms>
  152.5363  134.0216  159.7984 H   0  0  0  0  0  0  0  0  0  0  0  0  # atno 6907 bound_to 6896
  151.0401  133.5705  159.2659 H   0  0  0  0  0  0  0  0  0  0  0  0  # atno 6908 bound_to 6896
  151.2678  135.0682  159.9176 H   0  0  0  0  0  0  0  0  0  0  0  0  # atno 6909 bound_to 6896
  145.8484  140.8369  142.9998 H   0  0  0  0  0  0  0  0  0  0  0  0  # atno 7974 bound_to 7965
  156.1776  140.3105  155.9088 H   0  0  0  0  0  0  0  0  0  0  0  0  # atno 8008 bound_to 7997
  155.3453  140.0468  157.3062 H   0  0  0  0  0  0  0  0  0  0  0  0  # atno 8009 bound_to 7997
  154.5307  140.2229  155.8819 H   0  0  0  0  0  0  0  0  0  0  0  0  # atno 8010 bound_to 7997
  140.1450  144.4517  150.6790 H   0  0  0  0  0  0  0  0  0  0  0  0  # atno 10167 bound_to 10162
  156.9965  130.6063  149.5691 H   0  0  0  0  0  0  0  0  0  0  0  0  # atno 10718 bound_to 10713
  153.8941  135.3029  155.3448 H   0  0  0  0  0  0  0  0  0  0  0  0  # atno 10763 bound_to 10752
  154.7702  135.4890  153.9636 H   0  0  0  0  0  0  0  0  0  0  0  0  # atno 10764 bound_to 10752
  153.1281  135.6797  153.9323 H   0  0  0  0  0  0  0  0  0  0  0  0  # atno 10765 bound_to 10752
  140.8903  134.1820  157.4532 H   0  0  0  0  0  0  0  0  0  0  0  0  # atno 11005 bound_to 11000
  144.6730  140.0917  143.7465 LP  0  0  0  0  0  0  0  0  0  0  0  0  # atno 17320 bound_to 7965
  145.9385  139.2653  143.1283 LP  0  0  0  0  0  0  0  0  0  0  0  0  # atno 17321 bound_to 7965
  140.6737  143.2296  151.5560 LP  0  0  0  0  0  0  0  0  0  0  0  0  # atno 17342 bound_to 10162
  139.5453  144.2537  152.1431 LP  0  0  0  0  0  0  0  0  0  0  0  0  # atno 17343 bound_to 10162
  156.0187  130.5282  150.8212 LP  0  0  0  0  0  0  0  0  0  0  0  0  # atno 17370 bound_to 10713
  157.5421  131.0941  150.9813 LP  0  0  0  0  0  0  0  0  0  0  0  0  # atno 17371 bound_to 10713
  139.8729  134.9856  156.5287 LP  0  0  0  0  0  0  0  0  0  0  0  0  # atno 17394 bound_to 11000
  140.8354  133.8246  155.9024 LP  0  0  0  0  0  0  0  0  0  0  0  0  # atno 17395 bound_to 11000

$$$$
