AV-unprocessed.smi:3349|AV-procd|sdf|12938|dock6
  -GOLD-   2272019373D 1   1.00000     0.00000
 Structure written by MMmdl.
 41 42  0  0  0  0  0  0  0  0  2 V2000
  145.8818  135.9910  155.6248 C   0  0  0  0  0  0  0  0  0  0  0  0
  147.0134  136.2754  154.6057 C   0  0  1  0  0  0  0  0  0  0  0  0
  148.3934  135.8777  155.1952 C   0  0  0  0  0  0  0  0  0  0  0  0
  149.2374  137.0307  155.5000 N   0  0  0  0  0  0  0  0  0  0  0  0
  150.4857  137.2294  155.0461 C   0  0  0  0  0  0  0  0  0  0  0  0
  151.0718  136.4299  154.3156 O   0  0  0  0  0  0  0  0  0  0  0  0
  151.1703  138.5301  155.4952 C   0  0  1  0  0  0  0  0  0  0  0  0
  152.5813  138.6972  154.9022 C   0  0  0  0  0  0  0  0  0  0  0  0
  150.3369  139.6830  155.1831 N   0  0  0  0  0  0  0  0  0  0  0  0
  149.7997  140.0934  154.0303 C   0  0  0  0  0  0  0  0  0  0  0  0
  149.1074  141.2192  154.1310 N   0  0  0  0  0  0  0  0  0  0  0  0
  149.2793  141.4740  155.4619 C   0  0  0  0  0  0  0  0  0  0  0  0
  150.0114  140.5879  156.1369 N   0  0  0  0  0  0  0  0  0  0  0  0
  146.7965  135.6023  153.2813 N   0  3  0  0  0  0  0  0  0  0  0  0
  146.8173  134.1126  153.3108 C   0  0  0  0  0  0  0  0  0  0  0  0
  146.6089  133.5216  151.9055 C   0  0  0  0  0  0  0  0  0  0  0  0
  145.3919  134.0005  151.3543 O   0  0  0  0  0  0  0  0  0  0  0  0
  145.4091  135.4124  151.2117 C   0  0  0  0  0  0  0  0  0  0  0  0
  145.5583  136.0658  152.5952 C   0  0  0  0  0  0  0  0  0  0  0  0
  146.0639  136.4781  156.5818 H   0  0  0  0  0  0  0  0  0  0  0  0
  145.7780  134.9224  155.8166 H   0  0  0  0  0  0  0  0  0  0  0  0
  144.9186  136.3754  155.2893 H   0  0  0  0  0  0  0  0  0  0  0  0
  147.0122  137.3528  154.4311 H   0  0  0  0  0  0  0  0  0  0  0  0
  148.2538  135.2486  156.0759 H   0  0  0  0  0  0  0  0  0  0  0  0
  148.9668  135.2787  154.4907 H   0  0  0  0  0  0  0  0  0  0  0  0
  148.8363  137.7426  156.0942 H   0  0  0  0  0  0  0  0  0  0  0  0
  151.2776  138.4769  156.5805 H   0  0  0  0  0  0  0  0  0  0  0  0
  153.2124  137.8380  155.1329 H   0  0  0  0  0  0  0  0  0  0  0  0
  153.0712  139.5810  155.3117 H   0  0  0  0  0  0  0  0  0  0  0  0
  152.5536  138.8101  153.8176 H   0  0  0  0  0  0  0  0  0  0  0  0
  149.9177  139.5579  153.0995 H   0  0  0  0  0  0  0  0  0  0  0  0
  148.8534  142.3397  155.9479 H   0  0  0  0  0  0  0  0  0  0  0  0
  147.7749  133.7428  153.6756 H   0  0  0  0  0  0  0  0  0  0  0  0
  146.0434  133.7489  153.9886 H   0  0  0  0  0  0  0  0  0  0  0  0
  147.4442  133.7722  151.2494 H   0  0  0  0  0  0  0  0  0  0  0  0
  146.5652  132.4337  151.9602 H   0  0  0  0  0  0  0  0  0  0  0  0
  146.2173  135.7174  150.5447 H   0  0  0  0  0  0  0  0  0  0  0  0
  144.4758  135.7295  150.7461 H   0  0  0  0  0  0  0  0  0  0  0  0
  144.6895  135.8264  153.2105 H   0  0  0  0  0  0  0  0  0  0  0  0
  145.5604  137.1450  152.4586 H   0  0  0  0  0  0  0  0  0  0  0  0
  147.5744  135.8747  152.6971 H   0  0  0  0  0  0  0  0  0  0  0  0
  1  2  1  0  0  0  0
  1 20  1  0  0  0  0
  1 21  1  0  0  0  0
  1 22  1  0  0  0  0
  2  3  1  0  0  0  0
  2 14  1  0  0  0  0
  2 23  1  0  0  0  0
  3  4  1  0  0  0  0
  3 24  1  0  0  0  0
  3 25  1  0  0  0  0
  4  5  1  0  0  0  0
  4 26  1  0  0  0  0
  5  6  2  0  0  0  0
  5  7  1  0  0  0  0
  7  8  1  0  0  0  0
  7  9  1  0  0  0  0
  7 27  1  0  0  0  0
  8 28  1  0  0  0  0
  8 29  1  0  0  0  0
  8 30  1  0  0  0  0
  9 13  1  0  0  0  0
  9 10  1  0  0  0  0
 10 11  2  0  0  0  0
 10 31  1  0  0  0  0
 11 12  1  0  0  0  0
 12 13  2  0  0  0  0
 12 32  1  0  0  0  0
 14 19  1  0  0  0  0
 14 15  1  0  0  0  0
 14 41  1  0  0  0  0
 15 16  1  0  0  0  0
 15 33  1  0  0  0  0
 15 34  1  0  0  0  0
 16 17  1  0  0  0  0
 16 35  1  0  0  0  0
 16 36  1  0  0  0  0
 17 18  1  0  0  0  0
 18 19  1  0  0  0  0
 18 37  1  0  0  0  0
 18 38  1  0  0  0  0
 19 39  1  0  0  0  0
 19 40  1  0  0  0  0
M  CHG  1  14   1
M  END
> <s_m_source_file>
AV-unprocessed.smi

> <i_m_source_file_index>
3349

> <i_lp_mmshare_version>
43012

> <i_f3d_flags>
0

> <s_epik_input>
W0NIMl0xW0NIMl1PW0NIMl1bQ0gyXU4xW0NASF0oW0NIM10pW0NIMl1bTkhdQyg9TylbQ0BIXShbQ0gzXSluMltjSF1uW2NIXW4y

> <s_epik_cmdline>
J2VwaWtfcHl0aG9uJywgJy1waCcsICc3LjAnLCAnLXRuJywgJzgnLCAnLW1hJywgJzIwMCcsICctbWV0YWxfYmluZGluZycsICctaW1hZScsICc8aW5maWxlLm1hZT4nLCAnLW9tYWUnLCAnPG91dGZpbGUubWFlPic=

> <r_lp_tautomer_probability>
1

> <r_epik_Ionization_Penalty>
0.71326

> <r_epik_Ionization_Penalty_Charging>
0.713252

> <r_epik_Ionization_Penalty_Neutral>
8.10337e-06

> <r_epik_State_Penalty>
0.737017

> <r_epik_Charging_Adjusted_Penalty>
1.45027

> <i_epik_Tot_Q>
1

> <i_epik_Tot_abs_Q>
1

> <r_epik_Metal_State_Penalty>
0.73702

> <b_epik_Metal_Only>
0

> <s_lp_Force_Field>
OPLS_2005

> <r_lp_Energy>
26.9228

> <b_lp_Chiralities_Consistent>
1

> <s_lp_Variant>
AV-unprocessed.smi:3349-8

> <Gold.Version>
5.8.1

> <Gold.Id.Protein>
6NUR|6NUR_protein|mol2

> <Gold.PLP.Fitness>
37.4935

> <Gold.PLP.PLP>
-22.2299

> <Gold.PLP.part.hbond>
-4.0000

> <Gold.PLP.part.metal>
0.0000

> <Gold.PLP.part.buried>
1.7085

> <Gold.PLP.part.nonpolar>
-22.1595

> <Gold.PLP.part.repulsive>
1.7896

> <Gold.PLP.ligand.clash>
0.0000

> <Gold.PLP.ligand.torsion>
0.9544

> <Gold.PLP.Chemscore.Hbond>
3.6880

> <Gold.PLP.Chemscore.CHOScore>
1.9962

> <Gold.PLP.Chemscore.Metal>
0.0000

> <Gold.Chemscore.Hbonds>
donor molecule, donor type, donor heavy atom, donor atom, acceptor molecule, acceptor atom, score
      L1  H    14    41       P1  7948  2.00
      P1  H  8011  8017       L1    11  0.31
      P1  H 10752 10765       L1     6  1.00
      L1  C    10    31       P1  7957  0.96
      L1  C    12    32       P1  8028  1.00

> <Gold.PLP.Chemscore.Internal.Correction>
0.1199

> <Gold.Rescore>
     Score         DG    S(hbond)    S(metal)    S(lipo)     H(rot)  DE(clash)    DE(int)     intcor
      8.81     -11.65       2.64        0.00      34.91       2.63       2.02       0.82       ----

> <Gold.Chemscore.Fitness>
8.8127

> <Gold.Chemscore.DG>
-11.6472

> <Gold.Chemscore.ZeroCoef>
-5.4800

> <Gold.Chemscore.Hbond>
2.6415

> <Gold.Chemscore.Metal>
0.0000

> <Gold.Chemscore.Lipo>
34.9122

> <Gold.Chemscore.Internal_Hbond>
0.0000

> <Gold.Chemscore.DEClash>
2.0184

> <Gold.Chemscore.DEInternal>
0.8161

> <Gold.Chemscore.Rot>
2.6329

> <Gold.Chemscore.Internal.Correction>
   9.000000E+99

> <Gold.Chemscore.Hbonds>
donor molecule, donor type, donor heavy atom, donor atom, acceptor molecule, acceptor atom, score
      L1  H    14    41       P1  7948  1.00
      P1  H  8011  8017       L1    11  0.13
      P1  H 10752 10765       L1     6  0.93

> <Gold.Chemscore.Hbond.Weighted>
-8.8228

> <Gold.Chemscore.Metal.Weighted>
-0.0000

> <Gold.Chemscore.Lipo.Weighted>
-4.0847

> <Gold.Chemscore.Internal_Hbond.Weighted>
0.0000

> <Gold.Chemscore.DEClash.Weighted>
2.0184

> <Gold.Chemscore.DEInternal.Weighted>
0.8161

> <Gold.Chemscore.Rot.Weighted>
6.7403

> <Gold.Chemscore.Internal.Correction.Weighted>
   9.000000E+99

> <Gold.Protein.RotatedTorsions>
[ 6907 6896 6895 6894 ] final  154.54 input  -60.11 | X-H torsion
[ 7974 7965 7964 7962 ] final -160.62 input  175.53 | X-H torsion
[ 8008 7997 7996 7995 ] final  -87.37 input   59.86 | X-H torsion
[ 10167 10162 10161 10158 ] final  159.62 input  -65.29 | X-H torsion
[ 10718 10713 10712 10709 ] final  -92.29 input   66.30 | X-H torsion
[ 10763 10752 10751 10750 ] final  173.15 input  -60.55 | X-H torsion
[ 11005 11000 10999 10996 ] final  -61.92 input  -57.11 | X-H torsion

> <Gold.Protein.ActiveResidues>
 VAL166  LYS551  ARG553  GLY616  TRP617  ASP618  TYR619  PRO620  LYS621  CYS622 
 ASP623  PHE694  ASN695  SER759  ASP760  ASP761  ALA762  ILE779  LEU786  VAL792 
 PHE793  MET794  SER795  GLU796  ALA797  LYS798  CYS799  TRP800  GLU811  SER814 

> <Gold.Protein.RotatedAtoms>
  152.0570  133.4044  159.4401 H   0  0  0  0  0  0  0  0  0  0  0  0  # atno 6907 bound_to 6896
  150.6867  134.3243  159.4809 H   0  0  0  0  0  0  0  0  0  0  0  0  # atno 6908 bound_to 6896
  152.1060  134.9308  160.0619 H   0  0  0  0  0  0  0  0  0  0  0  0  # atno 6909 bound_to 6896
  144.7420  140.3516  143.6114 H   0  0  0  0  0  0  0  0  0  0  0  0  # atno 7974 bound_to 7965
  154.6625  140.0566  157.0078 H   0  0  0  0  0  0  0  0  0  0  0  0  # atno 8008 bound_to 7997
  155.1207  140.3247  155.4479 H   0  0  0  0  0  0  0  0  0  0  0  0  # atno 8009 bound_to 7997
  156.2624  140.1998  156.6329 H   0  0  0  0  0  0  0  0  0  0  0  0  # atno 8010 bound_to 7997
  139.4833  144.4713  151.8572 H   0  0  0  0  0  0  0  0  0  0  0  0  # atno 10167 bound_to 10162
  156.0001  130.4981  150.5603 H   0  0  0  0  0  0  0  0  0  0  0  0  # atno 10718 bound_to 10713
  154.4360  135.2761  155.1880 H   0  0  0  0  0  0  0  0  0  0  0  0  # atno 10763 bound_to 10752
  154.3766  135.6097  153.5772 H   0  0  0  0  0  0  0  0  0  0  0  0  # atno 10764 bound_to 10752
  152.9838  135.5870  154.4679 H   0  0  0  0  0  0  0  0  0  0  0  0  # atno 10765 bound_to 10752
  141.1342  133.6635  156.5449 H   0  0  0  0  0  0  0  0  0  0  0  0  # atno 11005 bound_to 11000
  145.7270  139.1725  143.2452 LP  0  0  0  0  0  0  0  0  0  0  0  0  # atno 17320 bound_to 7965
  146.1234  140.7279  142.9446 LP  0  0  0  0  0  0  0  0  0  0  0  0  # atno 17321 bound_to 7965
  140.4182  144.2279  150.5887 LP  0  0  0  0  0  0  0  0  0  0  0  0  # atno 17342 bound_to 10162
  140.4900  143.2350  151.8832 LP  0  0  0  0  0  0  0  0  0  0  0  0  # atno 17343 bound_to 10162
  157.3513  131.0734  151.1711 LP  0  0  0  0  0  0  0  0  0  0  0  0  # atno 17370 bound_to 10713
  157.2526  130.6621  149.5938 LP  0  0  0  0  0  0  0  0  0  0  0  0  # atno 17371 bound_to 10713
  140.4110  134.7272  157.4835 LP  0  0  0  0  0  0  0  0  0  0  0  0  # atno 17394 bound_to 11000
  140.0427  134.6243  155.8960 LP  0  0  0  0  0  0  0  0  0  0  0  0  # atno 17395 bound_to 11000

$$$$
