AV-unprocessed.smi:3033|AV-procd|sdf|11574|dock1
  -GOLD-   2272016543D 1   1.00000     0.00000
 Structure written by MMmdl.
 33 34  0  0  0  0  0  0  0  0  1 V2000
  151.7806  145.7153  160.1237 C   0  0  0  0  0  0  0  0  0  0  0  0
  151.1303  144.6491  159.4474 O   0  0  0  0  0  0  0  0  0  0  0  0
  151.7712  143.4301  159.3910 C   0  0  0  0  0  0  0  0  0  0  0  0
  152.6443  143.1158  160.4518 C   0  0  0  0  0  0  0  0  0  0  0  0
  153.3294  141.8871  160.4798 C   0  0  0  0  0  0  0  0  0  0  0  0
  153.1468  140.9552  159.4424 C   0  0  0  0  0  0  0  0  0  0  0  0
  152.2787  141.2511  158.3687 C   0  0  0  0  0  0  0  0  0  0  0  0
  152.0284  140.2419  157.2512 C   0  0  1  0  0  0  0  0  0  0  0  0
  152.9917  139.2086  157.1910 O   0  0  0  0  0  0  0  0  0  0  0  0
  150.6034  139.6256  157.2491 C   0  0  0  0  0  0  0  0  0  0  0  0
  149.6642  140.2392  156.3370 N   0  0  0  0  0  0  0  0  0  0  0  0
  148.5088  140.8770  156.7651 C   0  0  0  0  0  0  0  0  0  0  0  0
  147.5958  141.4080  155.9168 C   0  0  0  0  0  0  0  0  0  0  0  0
  146.1729  142.1729  156.5283 Cl  0  0  0  0  0  0  0  0  0  0  0  0
  147.8064  141.3278  154.4719 C   0  0  0  0  0  0  0  0  0  0  0  0
  147.0460  141.7749  153.6155 O   0  0  0  0  0  0  0  0  0  0  0  0
  148.9830  140.6780  154.0867 N   0  0  0  0  0  0  0  0  0  0  0  0
  149.9264  140.1246  154.9530 C   0  0  0  0  0  0  0  0  0  0  0  0
  150.9226  139.5627  154.4983 O   0  0  0  0  0  0  0  0  0  0  0  0
  151.5989  142.4878  158.3461 C   0  0  0  0  0  0  0  0  0  0  0  0
  149.1631  140.5980  153.0965 H   0  0  0  0  0  0  0  0  0  0  0  0
  151.1624  146.6107  160.0626 H   0  0  0  0  0  0  0  0  0  0  0  0
  152.7438  145.9485  159.6675 H   0  0  0  0  0  0  0  0  0  0  0  0
  151.9262  145.4860  161.1803 H   0  0  0  0  0  0  0  0  0  0  0  0
  152.7868  143.8229  161.2559 H   0  0  0  0  0  0  0  0  0  0  0  0
  153.9909  141.6568  161.3018 H   0  0  0  0  0  0  0  0  0  0  0  0
  153.6656  140.0086  159.4854 H   0  0  0  0  0  0  0  0  0  0  0  0
  152.1532  140.7769  156.3088 H   0  0  0  0  0  0  0  0  0  0  0  0
  152.7172  138.5806  156.5404 H   0  0  0  0  0  0  0  0  0  0  0  0
  150.6722  138.5913  156.9082 H   0  0  0  0  0  0  0  0  0  0  0  0
  150.1409  139.5661  158.2373 H   0  0  0  0  0  0  0  0  0  0  0  0
  148.3156  140.9457  157.8262 H   0  0  0  0  0  0  0  0  0  0  0  0
  150.9338  142.6862  157.5194 H   0  0  0  0  0  0  0  0  0  0  0  0
  1  2  1  0  0  0  0
  1 22  1  0  0  0  0
  1 23  1  0  0  0  0
  1 24  1  0  0  0  0
  2  3  1  0  0  0  0
  3 20  1  0  0  0  0
  3  4  2  0  0  0  0
  4  5  1  0  0  0  0
  4 25  1  0  0  0  0
  5  6  2  0  0  0  0
  5 26  1  0  0  0  0
  6  7  1  0  0  0  0
  6 27  1  0  0  0  0
  7  8  1  0  0  0  0
  7 20  2  0  0  0  0
  8  9  1  0  0  0  0
  8 10  1  0  0  0  0
  8 28  1  0  0  0  0
  9 29  1  0  0  0  0
 10 11  1  0  0  0  0
 10 30  1  0  0  0  0
 10 31  1  0  0  0  0
 11 18  1  0  0  0  0
 11 12  1  0  0  0  0
 12 13  2  0  0  0  0
 12 32  1  0  0  0  0
 13 14  1  0  0  0  0
 13 15  1  0  0  0  0
 15 16  2  0  0  0  0
 15 17  1  0  0  0  0
 17 21  1  0  0  0  0
 17 18  1  0  0  0  0
 18 19  2  0  0  0  0
 20 33  1  0  0  0  0
M  END
> <s_m_source_file>
AV-unprocessed.smi

> <i_m_source_file_index>
3033

> <i_lp_mmshare_version>
43012

> <i_f3d_flags>
0

> <s_epik_input>
W0NIM11PYzFbY0hdW2NIXVtjSF1jKFtjSF0xKVtDQEhdKFtPSF0pW0NIMl1uMltjSF1jKENsKWMoPU8pW25IXWMyPU8=

> <s_epik_cmdline>
J2VwaWtfcHl0aG9uJywgJy1waCcsICc3LjAnLCAnLXRuJywgJzgnLCAnLW1hJywgJzIwMCcsICctbWV0YWxfYmluZGluZycsICctaW1hZScsICc8aW5maWxlLm1hZT4nLCAnLW9tYWUnLCAnPG91dGZpbGUubWFlPic=

> <r_lp_tautomer_probability>
0.999537

> <r_epik_Ionization_Penalty>
0.0292058

> <r_epik_Ionization_Penalty_Charging>
0.0292057

> <r_epik_Ionization_Penalty_Neutral>
7.1713e-08

> <r_epik_State_Penalty>
0.0240115

> <r_epik_Charging_Adjusted_Penalty>
0.0532172

> <i_epik_Tot_Q>
0

> <i_epik_Tot_abs_Q>
0

> <r_epik_Metal_State_Penalty>
2.21956

> <b_epik_Metal_Only>
0

> <s_lp_Force_Field>
OPLS_2005

> <r_lp_Energy>
15.9701

> <b_lp_Chiralities_Consistent>
1

> <s_lp_Variant>
AV-unprocessed.smi:3033-2

> <Gold.Version>
5.8.1

> <Gold.Id.Protein>
6NUR|6NUR_protein|mol2

> <Gold.PLP.Fitness>
43.4578

> <Gold.PLP.PLP>
-36.8844

> <Gold.PLP.part.hbond>
-3.0000

> <Gold.PLP.part.metal>
0.0000

> <Gold.PLP.part.buried>
-4.9250

> <Gold.PLP.part.nonpolar>
-29.2631

> <Gold.PLP.part.repulsive>
0.5856

> <Gold.PLP.ligand.clash>
0.0000

> <Gold.PLP.ligand.torsion>
1.2675

> <Gold.PLP.Chemscore.Hbond>
3.0000

> <Gold.PLP.Chemscore.CHOScore>
0.0000

> <Gold.PLP.Chemscore.Metal>
0.0000

> <Gold.Chemscore.Hbonds>
donor molecule, donor type, donor heavy atom, donor atom, acceptor molecule, acceptor atom, score
      L1  H    17    21       P1  7957  0.93
      P1  H  7989  7998       L1    19  1.00
      P1  H  7997  8010       L1     9  1.00

> <Gold.PLP.Chemscore.Internal.Correction>
0.1084

> <Gold.Rescore>
     Score         DG    S(hbond)    S(metal)    S(lipo)     H(rot)  DE(clash)    DE(int)     intcor
     14.44     -15.76       1.81        0.00      91.03       2.51       0.13       1.19       ----

> <Gold.Chemscore.Fitness>
14.4368

> <Gold.Chemscore.DG>
-15.7595

> <Gold.Chemscore.ZeroCoef>
-5.4800

> <Gold.Chemscore.Hbond>
1.8132

> <Gold.Chemscore.Metal>
0.0000

> <Gold.Chemscore.Lipo>
91.0338

> <Gold.Chemscore.Internal_Hbond>
0.0000

> <Gold.Chemscore.DEClash>
0.1279

> <Gold.Chemscore.DEInternal>
1.1947

> <Gold.Chemscore.Rot>
2.5107

> <Gold.Chemscore.Internal.Correction>
   9.000000E+99

> <Gold.Chemscore.Hbonds>
donor molecule, donor type, donor heavy atom, donor atom, acceptor molecule, acceptor atom, score
      L1  H    17    21       P1  7957  0.89
      P1  H  7989  7998       L1    19  0.35
      P1  H  7997  8010       L1     9  0.21

> <Gold.Chemscore.Hbond.Weighted>
-6.0559

> <Gold.Chemscore.Metal.Weighted>
-0.0000

> <Gold.Chemscore.Lipo.Weighted>
-10.6510

> <Gold.Chemscore.Internal_Hbond.Weighted>
0.0000

> <Gold.Chemscore.DEClash.Weighted>
0.1279

> <Gold.Chemscore.DEInternal.Weighted>
1.1947

> <Gold.Chemscore.Rot.Weighted>
6.4274

> <Gold.Chemscore.Internal.Correction.Weighted>
   9.000000E+99

> <Gold.Protein.RotatedTorsions>
[ 6907 6896 6895 6894 ] final  164.63 input  -60.11 | X-H torsion
[ 7974 7965 7964 7962 ] final   66.79 input  175.53 | X-H torsion
[ 8008 7997 7996 7995 ] final   64.37 input   59.86 | X-H torsion
[ 10167 10162 10161 10158 ] final   95.11 input  -65.29 | X-H torsion
[ 10718 10713 10712 10709 ] final -179.86 input   66.30 | X-H torsion
[ 10763 10752 10751 10750 ] final  132.56 input  -60.55 | X-H torsion
[ 11005 11000 10999 10996 ] final -129.35 input  -57.11 | X-H torsion

> <Gold.Protein.ActiveResidues>
 VAL166  LYS551  ARG553  GLY616  TRP617  ASP618  TYR619  PRO620  LYS621  CYS622 
 ASP623  PHE694  ASN695  SER759  ASP760  ASP761  ALA762  ILE779  LEU786  VAL792 
 PHE793  MET794  SER795  GLU796  ALA797  LYS798  CYS799  TRP800  GLU811  SER814 

> <Gold.Protein.RotatedAtoms>
  151.9069  133.3551  159.3849 H   0  0  0  0  0  0  0  0  0  0  0  0  # atno 6907 bound_to 6896
  150.7067  134.4772  159.5462 H   0  0  0  0  0  0  0  0  0  0  0  0  # atno 6908 bound_to 6896
  152.2371  134.8266  160.0516 H   0  0  0  0  0  0  0  0  0  0  0  0  # atno 6909 bound_to 6896
  145.8225  139.3092  143.1035 H   0  0  0  0  0  0  0  0  0  0  0  0  # atno 7974 bound_to 7965
  155.6449  140.3497  155.4728 H   0  0  0  0  0  0  0  0  0  0  0  0  # atno 8008 bound_to 7997
  155.9895  140.1191  157.0675 H   0  0  0  0  0  0  0  0  0  0  0  0  # atno 8009 bound_to 7997
  154.4215  140.1122  156.5532 H   0  0  0  0  0  0  0  0  0  0  0  0  # atno 8010 bound_to 7997
  139.8020  144.6810  150.9752 H   0  0  0  0  0  0  0  0  0  0  0  0  # atno 10167 bound_to 10162
  156.8654  130.9766  151.3079 H   0  0  0  0  0  0  0  0  0  0  0  0  # atno 10718 bound_to 10713
  153.7927  135.3153  155.3380 H   0  0  0  0  0  0  0  0  0  0  0  0  # atno 10763 bound_to 10752
  154.8119  135.4661  154.0543 H   0  0  0  0  0  0  0  0  0  0  0  0  # atno 10764 bound_to 10752
  153.1866  135.6902  153.8494 H   0  0  0  0  0  0  0  0  0  0  0  0  # atno 10765 bound_to 10752
  140.9439  134.1156  157.4125 H   0  0  0  0  0  0  0  0  0  0  0  0  # atno 11005 bound_to 11000
  145.9660  140.8798  143.0187 LP  0  0  0  0  0  0  0  0  0  0  0  0  # atno 17320 bound_to 7965
  144.6746  140.1879  143.7399 LP  0  0  0  0  0  0  0  0  0  0  0  0  # atno 17321 bound_to 7965
  140.7820  143.4272  151.0750 LP  0  0  0  0  0  0  0  0  0  0  0  0  # atno 17342 bound_to 10162
  139.7943  143.8174  152.3155 LP  0  0  0  0  0  0  0  0  0  0  0  0  # atno 17343 bound_to 10162
  157.6226  130.8667  149.9135 LP  0  0  0  0  0  0  0  0  0  0  0  0  # atno 17370 bound_to 10713
  156.0754  130.3679  150.0688 LP  0  0  0  0  0  0  0  0  0  0  0  0  # atno 17371 bound_to 10713
  139.8828  135.0045  156.6254 LP  0  0  0  0  0  0  0  0  0  0  0  0  # atno 17394 bound_to 11000
  140.7696  133.8749  155.8481 LP  0  0  0  0  0  0  0  0  0  0  0  0  # atno 17395 bound_to 11000

$$$$
