AV-unprocessed.smi:2928|AV-procd|sdf|11232|dock4
  -GOLD-   2272016123D 1   1.00000     0.00000
 Structure written by MMmdl.
 55 58  0  0  0  0  0  0  0  0  2 V2000
  153.9714  136.8730  164.2264 C   0  0  0  0  0  0  0  0  0  0  0  0
  155.3681  137.3695  164.2536 N   0  3  2  0  0  0  0  0  0  0  0  0
  155.5066  138.8308  164.4663 C   0  0  1  0  0  0  0  0  0  0  0  0
  156.9575  139.1367  164.9054 C   0  0  0  0  0  0  0  0  0  0  0  0
  158.0284  138.5741  163.9488 C   0  0  0  0  0  0  0  0  0  0  0  0
  157.6954  137.1468  163.4677 C   0  0  0  0  0  0  0  0  0  0  0  0
  156.2054  136.9389  163.1077 C   0  0  2  0  0  0  0  0  0  0  0  0
  155.7533  137.6229  161.7939 C   0  0  0  0  0  0  0  0  0  0  0  0
  155.6150  139.1600  161.8811 C   0  0  1  0  0  0  0  0  0  0  0  0
  154.7600  139.6219  160.7895 N   0  0  0  0  0  0  0  0  0  0  0  0
  154.1645  140.8202  160.7057 C   0  0  0  0  0  0  0  0  0  0  0  0
  154.2638  141.6962  161.5647 O   0  0  0  0  0  0  0  0  0  0  0  0
  153.4391  140.9170  159.5797 N   0  0  0  0  0  0  0  0  0  0  0  0
  152.6774  142.0238  159.1096 C   0  0  0  0  0  0  0  0  0  0  0  0
  152.6710  143.2822  159.7590 C   0  0  0  0  0  0  0  0  0  0  0  0
  151.9111  144.3319  159.2113 C   0  0  0  0  0  0  0  0  0  0  0  0
  151.1912  144.0894  158.0278 C   0  0  0  0  0  0  0  0  0  0  0  0
  151.1989  142.9017  157.3889 N   0  0  0  0  0  0  0  0  0  0  0  0
  151.9289  141.8866  157.9126 C   0  0  0  0  0  0  0  0  0  0  0  0
  151.9210  140.6565  157.2307 N   0  0  0  0  0  0  0  0  0  0  0  0
  151.3009  139.5515  157.9426 C   0  0  0  0  0  0  0  0  0  0  0  0
  151.0779  138.4636  156.8890 C   0  0  0  0  0  0  0  0  0  0  0  0
  151.0805  139.2070  155.5475 C   0  0  0  0  0  0  0  0  0  0  0  0
  151.3134  140.6761  155.9107 C   0  0  0  0  0  0  0  0  0  0  0  0
  155.0203  139.6289  163.2303 C   0  0  0  0  0  0  0  0  0  0  0  0
  153.4048  137.2743  163.3865 H   0  0  0  0  0  0  0  0  0  0  0  0
  153.4527  137.1485  165.1449 H   0  0  0  0  0  0  0  0  0  0  0  0
  153.9565  135.7852  164.1539 H   0  0  0  0  0  0  0  0  0  0  0  0
  154.8655  139.1076  165.3046 H   0  0  0  0  0  0  0  0  0  0  0  0
  157.0988  140.2103  165.0358 H   0  0  0  0  0  0  0  0  0  0  0  0
  157.1154  138.6947  165.8902 H   0  0  0  0  0  0  0  0  0  0  0  0
  158.1652  139.2392  163.1004 H   0  0  0  0  0  0  0  0  0  0  0  0
  158.9969  138.5709  164.4504 H   0  0  0  0  0  0  0  0  0  0  0  0
  158.3330  136.8783  162.6247 H   0  0  0  0  0  0  0  0  0  0  0  0
  157.9520  136.4506  164.2672 H   0  0  0  0  0  0  0  0  0  0  0  0
  156.0660  135.8645  162.9782 H   0  0  0  0  0  0  0  0  0  0  0  0
  156.4339  137.3606  160.9830 H   0  0  0  0  0  0  0  0  0  0  0  0
  154.7909  137.1968  161.5073 H   0  0  0  0  0  0  0  0  0  0  0  0
  156.6031  139.5973  161.7613 H   0  0  0  0  0  0  0  0  0  0  0  0
  154.6078  138.9731  160.0311 H   0  0  0  0  0  0  0  0  0  0  0  0
  153.3634  140.0779  159.0234 H   0  0  0  0  0  0  0  0  0  0  0  0
  153.2451  143.4654  160.6541 H   0  0  0  0  0  0  0  0  0  0  0  0
  151.8856  145.3019  159.6851 H   0  0  0  0  0  0  0  0  0  0  0  0
  150.5978  144.8716  157.5781 H   0  0  0  0  0  0  0  0  0  0  0  0
  151.9378  139.2007  158.7551 H   0  0  0  0  0  0  0  0  0  0  0  0
  150.3456  139.8580  158.3715 H   0  0  0  0  0  0  0  0  0  0  0  0
  151.8931  137.7392  156.9135 H   0  0  0  0  0  0  0  0  0  0  0  0
  150.1474  137.9224  157.0625 H   0  0  0  0  0  0  0  0  0  0  0  0
  151.8922  138.8373  154.9199 H   0  0  0  0  0  0  0  0  0  0  0  0
  150.1480  139.0740  154.9981 H   0  0  0  0  0  0  0  0  0  0  0  0
  150.3638  141.2122  155.9333 H   0  0  0  0  0  0  0  0  0  0  0  0
  151.9625  141.1707  155.1876 H   0  0  0  0  0  0  0  0  0  0  0  0
  153.9335  139.5460  163.1849 H   0  0  0  0  0  0  0  0  0  0  0  0
  155.2190  140.6922  163.3707 H   0  0  0  0  0  0  0  0  0  0  0  0
  155.7787  136.9357  165.0681 H   0  0  0  0  0  0  0  0  0  0  0  0
  1  2  1  0  0  0  0
  1 26  1  0  0  0  0
  1 27  1  0  0  0  0
  1 28  1  0  0  0  0
  2  7  1  0  0  0  0
  2  3  1  0  0  0  0
  2 55  1  0  0  0  0
  3 25  1  0  0  0  0
  3  4  1  0  0  0  0
  3 29  1  0  0  0  0
  4  5  1  0  0  0  0
  4 30  1  0  0  0  0
  4 31  1  0  0  0  0
  5  6  1  0  0  0  0
  5 32  1  0  0  0  0
  5 33  1  0  0  0  0
  6  7  1  0  0  0  0
  6 34  1  0  0  0  0
  6 35  1  0  0  0  0
  7  8  1  0  0  0  0
  7 36  1  0  0  0  0
  8  9  1  0  0  0  0
  8 37  1  0  0  0  0
  8 38  1  0  0  0  0
  9 10  1  0  0  0  0
  9 25  1  0  0  0  0
  9 39  1  0  0  0  0
 10 11  1  0  0  0  0
 10 40  1  0  0  0  0
 11 12  2  0  0  0  0
 11 13  1  0  0  0  0
 13 14  1  0  0  0  0
 13 41  1  0  0  0  0
 14 19  1  0  0  0  0
 14 15  2  0  0  0  0
 15 16  1  0  0  0  0
 15 42  1  0  0  0  0
 16 17  2  0  0  0  0
 16 43  1  0  0  0  0
 17 18  1  0  0  0  0
 17 44  1  0  0  0  0
 18 19  2  0  0  0  0
 19 20  1  0  0  0  0
 20 24  1  0  0  0  0
 20 21  1  0  0  0  0
 21 22  1  0  0  0  0
 21 45  1  0  0  0  0
 21 46  1  0  0  0  0
 22 23  1  0  0  0  0
 22 47  1  0  0  0  0
 22 48  1  0  0  0  0
 23 24  1  0  0  0  0
 23 49  1  0  0  0  0
 23 50  1  0  0  0  0
 24 51  1  0  0  0  0
 24 52  1  0  0  0  0
 25 53  1  0  0  0  0
 25 54  1  0  0  0  0
M  CHG  1   2   1
M  END
> <s_m_source_file>
AV-unprocessed.smi

> <i_m_source_file_index>
2928

> <i_lp_mmshare_version>
43012

> <i_f3d_flags>
0

> <s_epik_input>
W0NIMl0xW0NIMl1bQ0gyXVtDQEhdKE4oW0NIM10pW0NIXTEyKVtDSDJdW0NASF0oW0NIMl0yKVtOSF1DKD1PKVtOSF1jM1tjSF1bY0hdW2NIXW5jM040W0NIMl1bQ0gyXVtDSDJdW0NIMl00

> <s_epik_cmdline>
J2VwaWtfcHl0aG9uJywgJy1waCcsICc3LjAnLCAnLXRuJywgJzgnLCAnLW1hJywgJzIwMCcsICctbWV0YWxfYmluZGluZycsICctaW1hZScsICc8aW5maWxlLm1hZT4nLCAnLW9tYWUnLCAnPG91dGZpbGUubWFlPic=

> <r_lp_tautomer_probability>
1

> <r_epik_Ionization_Penalty>
0.07954

> <r_epik_Ionization_Penalty_Charging>
0.00089841

> <r_epik_Ionization_Penalty_Neutral>
0.0786416

> <r_epik_State_Penalty>
0.0689917

> <r_epik_Charging_Adjusted_Penalty>
0.0698901

> <i_epik_Tot_Q>
1

> <i_epik_Tot_abs_Q>
1

> <r_epik_Metal_State_Penalty>
0.0608947

> <b_epik_Metal_Only>
0

> <s_lp_Force_Field>
OPLS_2005

> <r_lp_Energy>
65.7965

> <b_lp_Chiralities_Consistent>
1

> <s_lp_Variant>
AV-unprocessed.smi:2928-2

> <Gold.Version>
5.8.1

> <Gold.Id.Protein>
6NUR|6NUR_protein|mol2

> <Gold.PLP.Fitness>
39.9146

> <Gold.PLP.PLP>
-37.5823

> <Gold.PLP.part.hbond>
-1.0000

> <Gold.PLP.part.metal>
0.0000

> <Gold.PLP.part.buried>
-5.3301

> <Gold.PLP.part.nonpolar>
-30.9529

> <Gold.PLP.part.repulsive>
0.2479

> <Gold.PLP.ligand.clash>
0.0000

> <Gold.PLP.ligand.torsion>
0.3694

> <Gold.PLP.Chemscore.Hbond>
0.0000

> <Gold.PLP.Chemscore.CHOScore>
1.0137

> <Gold.PLP.Chemscore.Metal>
0.0000

> <Gold.Chemscore.Hbonds>
donor molecule, donor type, donor heavy atom, donor atom, acceptor molecule, acceptor atom, score
      L1  C    17    44       P1  8028  1.00
      L1  C    17    44       P1  8029  0.01

> <Gold.PLP.Chemscore.Internal.Correction>
0.0301

> <Gold.Rescore>
     Score         DG    S(hbond)    S(metal)    S(lipo)     H(rot)  DE(clash)    DE(int)     intcor
     11.27     -14.85       0.00        0.00     105.86       1.18       0.26       3.32       ----

> <Gold.Chemscore.Fitness>
11.2668

> <Gold.Chemscore.DG>
-14.8511

> <Gold.Chemscore.ZeroCoef>
-5.4800

> <Gold.Chemscore.Hbond>
0.0000

> <Gold.Chemscore.Metal>
0.0000

> <Gold.Chemscore.Lipo>
105.8616

> <Gold.Chemscore.Internal_Hbond>
0.0000

> <Gold.Chemscore.DEClash>
0.2640

> <Gold.Chemscore.DEInternal>
3.3203

> <Gold.Chemscore.Rot>
1.1776

> <Gold.Chemscore.Internal.Correction>
   9.000000E+99

> <Gold.Chemscore.Hbond.Weighted>
-0.0000

> <Gold.Chemscore.Metal.Weighted>
-0.0000

> <Gold.Chemscore.Lipo.Weighted>
-12.3858

> <Gold.Chemscore.Internal_Hbond.Weighted>
0.0000

> <Gold.Chemscore.DEClash.Weighted>
0.2640

> <Gold.Chemscore.DEInternal.Weighted>
3.3203

> <Gold.Chemscore.Rot.Weighted>
3.0147

> <Gold.Chemscore.Internal.Correction.Weighted>
   9.000000E+99

> <Gold.Protein.RotatedTorsions>
[ 6907 6896 6895 6894 ] final  143.14 input  -60.11 | X-H torsion
[ 7974 7965 7964 7962 ] final   31.89 input  175.53 | X-H torsion
[ 8008 7997 7996 7995 ] final  107.95 input   59.86 | X-H torsion
[ 10167 10162 10161 10158 ] final  176.72 input  -65.29 | X-H torsion
[ 10718 10713 10712 10709 ] final -101.04 input   66.30 | X-H torsion
[ 10763 10752 10751 10750 ] final  173.67 input  -60.55 | X-H torsion
[ 11005 11000 10999 10996 ] final  -61.26 input  -57.11 | X-H torsion

> <Gold.Protein.ActiveResidues>
 VAL166  LYS551  ARG553  GLY616  TRP617  ASP618  TYR619  PRO620  LYS621  CYS622 
 ASP623  PHE694  ASN695  SER759  ASP760  ASP761  ALA762  ILE779  LEU786  VAL792 
 PHE793  MET794  SER795  GLU796  ALA797  LYS798  CYS799  TRP800  GLU811  SER814 

> <Gold.Protein.RotatedAtoms>
  152.2099  133.4903  159.5104 H   0  0  0  0  0  0  0  0  0  0  0  0  # atno 6907 bound_to 6896
  150.6988  134.1480  159.4139 H   0  0  0  0  0  0  0  0  0  0  0  0  # atno 6908 bound_to 6896
  151.9399  135.0218  160.0586 H   0  0  0  0  0  0  0  0  0  0  0  0  # atno 6909 bound_to 6896
  146.1521  139.6598  142.9091 H   0  0  0  0  0  0  0  0  0  0  0  0  # atno 7974 bound_to 7965
  156.1865  140.3085  155.9248 H   0  0  0  0  0  0  0  0  0  0  0  0  # atno 8008 bound_to 7997
  155.3270  140.0459  157.3058 H   0  0  0  0  0  0  0  0  0  0  0  0  # atno 8009 bound_to 7997
  154.5401  140.2259  155.8665 H   0  0  0  0  0  0  0  0  0  0  0  0  # atno 8010 bound_to 7997
  139.5225  144.2882  152.0487 H   0  0  0  0  0  0  0  0  0  0  0  0  # atno 10167 bound_to 10162
  156.0182  130.5355  150.6904 H   0  0  0  0  0  0  0  0  0  0  0  0  # atno 10718 bound_to 10713
  154.4433  135.2762  155.1833 H   0  0  0  0  0  0  0  0  0  0  0  0  # atno 10763 bound_to 10752
  154.3690  135.6113  153.5733 H   0  0  0  0  0  0  0  0  0  0  0  0  # atno 10764 bound_to 10752
  152.9842  135.5853  154.4764 H   0  0  0  0  0  0  0  0  0  0  0  0  # atno 10765 bound_to 10752
  141.1318  133.6629  156.5349 H   0  0  0  0  0  0  0  0  0  0  0  0  # atno 11005 bound_to 11000
  145.4797  141.0437  143.2653 LP  0  0  0  0  0  0  0  0  0  0  0  0  # atno 17320 bound_to 7965
  144.7917  139.6314  143.7110 LP  0  0  0  0  0  0  0  0  0  0  0  0  # atno 17321 bound_to 7965
  140.2334  144.4344  150.6290 LP  0  0  0  0  0  0  0  0  0  0  0  0  # atno 17342 bound_to 10162
  140.6340  143.2192  151.6436 LP  0  0  0  0  0  0  0  0  0  0  0  0  # atno 17343 bound_to 10162
  157.4587  131.0881  151.0769 LP  0  0  0  0  0  0  0  0  0  0  0  0  # atno 17370 bound_to 10713
  157.1263  130.6083  149.5518 LP  0  0  0  0  0  0  0  0  0  0  0  0  # atno 17371 bound_to 10713
  140.4186  134.7208  157.4877 LP  0  0  0  0  0  0  0  0  0  0  0  0  # atno 17394 bound_to 11000
  140.0376  134.6315  155.9023 LP  0  0  0  0  0  0  0  0  0  0  0  0  # atno 17395 bound_to 11000

$$$$
