AV-unprocessed.smi:907|AV-procd|sdf|4113|dock7
  -GOLD-   22720 2 13D 1   1.00000     0.00000
 Structure written by MMmdl.
 54 57  0  0  0  0  0  0  0  0  3 V2000
  150.0558  139.8323  154.1011 O   0  0  0  0  0  0  0  0  0  0  0  0
  149.1562  140.6394  154.3383 C   0  0  0  0  0  0  0  0  0  0  0  0
  149.3152  141.6500  155.2104 N   0  0  0  0  0  0  0  0  0  0  0  0
  150.5488  141.9458  155.9315 C   0  0  0  0  0  0  0  0  0  0  0  0
  150.3414  141.9105  157.4553 C   0  0  0  0  0  0  0  0  0  0  0  0
  151.0190  143.0737  158.1535 C   0  0  0  0  0  0  0  0  0  0  0  0
  152.0422  142.8805  159.1070 C   0  0  0  0  0  0  0  0  0  0  0  0
  152.6378  144.0044  159.7165 C   0  0  0  0  0  0  0  0  0  0  0  0
  152.1997  145.2966  159.3592 C   0  0  0  0  0  0  0  0  0  0  0  0
  151.1755  145.4318  158.3996 C   0  0  0  0  0  0  0  0  0  0  0  0
  150.6296  144.3304  157.8382 N   0  3  0  0  0  0  0  0  0  0  0  0
  147.9141  140.5421  153.8026 N   0  0  0  0  0  0  0  0  0  0  0  0
  147.4747  139.5458  152.8167 C   0  0  0  0  0  0  0  0  0  0  0  0
  146.6037  138.4870  153.5206 C   0  0  0  0  0  0  0  0  0  0  0  0
  145.4572  139.1029  154.2501 N   0  3  0  0  0  0  0  0  0  0  0  0
  144.6036  138.1036  154.9557 C   0  0  1  0  0  0  0  0  0  0  0  0
  143.2152  138.6382  155.3867 C   0  0  0  0  0  0  0  0  0  0  0  0
  142.2466  137.5616  154.8623 C   0  0  1  0  0  0  0  0  0  0  0  0
  142.1062  137.7230  153.3391 C   0  0  0  0  0  0  0  0  0  0  0  0
  143.4761  137.2457  152.8258 C   0  0  0  0  0  0  0  0  0  0  0  0
  144.2171  136.8548  154.1235 C   0  0  2  0  0  0  0  0  0  0  0  0
  143.0779  136.2885  154.9646 C   0  0  0  0  0  0  0  0  0  0  0  0
  145.8934  140.2157  155.1417 C   0  0  0  0  0  0  0  0  0  0  0  0
  146.7636  141.2350  154.3861 C   0  0  0  0  0  0  0  0  0  0  0  0
  148.5272  142.2573  155.3830 H   0  0  0  0  0  0  0  0  0  0  0  0
  151.3272  141.2399  155.6366 H   0  0  0  0  0  0  0  0  0  0  0  0
  150.8939  142.9333  155.6237 H   0  0  0  0  0  0  0  0  0  0  0  0
  149.2763  141.9264  157.6897 H   0  0  0  0  0  0  0  0  0  0  0  0
  150.7321  140.9800  157.8698 H   0  0  0  0  0  0  0  0  0  0  0  0
  152.3692  141.8843  159.3680 H   0  0  0  0  0  0  0  0  0  0  0  0
  153.4223  143.8765  160.4482 H   0  0  0  0  0  0  0  0  0  0  0  0
  152.6437  146.1702  159.8138 H   0  0  0  0  0  0  0  0  0  0  0  0
  150.7800  146.3802  158.0663 H   0  0  0  0  0  0  0  0  0  0  0  0
  146.8945  140.0469  152.0402 H   0  0  0  0  0  0  0  0  0  0  0  0
  148.2942  139.0524  152.2943 H   0  0  0  0  0  0  0  0  0  0  0  0
  146.2427  137.7838  152.7709 H   0  0  0  0  0  0  0  0  0  0  0  0
  147.2127  137.9168  154.2240 H   0  0  0  0  0  0  0  0  0  0  0  0
  145.1445  137.7686  155.8432 H   0  0  0  0  0  0  0  0  0  0  0  0
  143.1595  138.7221  156.4727 H   0  0  0  0  0  0  0  0  0  0  0  0
  142.9718  139.6142  154.9658 H   0  0  0  0  0  0  0  0  0  0  0  0
  141.2918  137.5354  155.3881 H   0  0  0  0  0  0  0  0  0  0  0  0
  141.3086  137.0866  152.9528 H   0  0  0  0  0  0  0  0  0  0  0  0
  141.8844  138.7500  153.0464 H   0  0  0  0  0  0  0  0  0  0  0  0
  143.3556  136.3782  152.1757 H   0  0  0  0  0  0  0  0  0  0  0  0
  143.9953  138.0144  152.2532 H   0  0  0  0  0  0  0  0  0  0  0  0
  145.0389  136.1556  153.9666 H   0  0  0  0  0  0  0  0  0  0  0  0
  143.3703  136.0433  155.9873 H   0  0  0  0  0  0  0  0  0  0  0  0
  142.5957  135.4192  154.5133 H   0  0  0  0  0  0  0  0  0  0  0  0
  145.0325  140.7337  155.5622 H   0  0  0  0  0  0  0  0  0  0  0  0
  146.4542  139.8059  155.9836 H   0  0  0  0  0  0  0  0  0  0  0  0
  147.0574  142.0464  155.0539 H   0  0  0  0  0  0  0  0  0  0  0  0
  146.1840  141.7056  153.5903 H   0  0  0  0  0  0  0  0  0  0  0  0
  144.8728  139.5233  153.5418 H   0  0  0  0  0  0  0  0  0  0  0  0
  149.8900  144.4528  157.1460 H   0  0  0  0  0  0  0  0  0  0  0  0
  1  2  2  0  0  0  0
  2  3  1  0  0  0  0
  2 12  1  0  0  0  0
  3  4  1  0  0  0  0
  3 25  1  0  0  0  0
  4  5  1  0  0  0  0
  4 26  1  0  0  0  0
  4 27  1  0  0  0  0
  5  6  1  0  0  0  0
  5 28  1  0  0  0  0
  5 29  1  0  0  0  0
  6 11  1  0  0  0  0
  6  7  2  0  0  0  0
  7  8  1  0  0  0  0
  7 30  1  0  0  0  0
  8  9  2  0  0  0  0
  8 31  1  0  0  0  0
  9 10  1  0  0  0  0
  9 32  1  0  0  0  0
 10 11  2  0  0  0  0
 10 33  1  0  0  0  0
 11 54  1  0  0  0  0
 12 24  1  0  0  0  0
 12 13  1  0  0  0  0
 13 14  1  0  0  0  0
 13 34  1  0  0  0  0
 13 35  1  0  0  0  0
 14 15  1  0  0  0  0
 14 36  1  0  0  0  0
 14 37  1  0  0  0  0
 15 16  1  0  0  0  0
 15 23  1  0  0  0  0
 15 53  1  0  0  0  0
 16 21  1  0  0  0  0
 16 17  1  0  0  0  0
 16 38  1  0  0  0  0
 17 18  1  0  0  0  0
 17 39  1  0  0  0  0
 17 40  1  0  0  0  0
 18 22  1  0  0  0  0
 18 19  1  0  0  0  0
 18 41  1  0  0  0  0
 19 20  1  0  0  0  0
 19 42  1  0  0  0  0
 19 43  1  0  0  0  0
 20 21  1  0  0  0  0
 20 44  1  0  0  0  0
 20 45  1  0  0  0  0
 21 22  1  0  0  0  0
 21 46  1  0  0  0  0
 22 47  1  0  0  0  0
 22 48  1  0  0  0  0
 23 24  1  0  0  0  0
 23 49  1  0  0  0  0
 23 50  1  0  0  0  0
 24 51  1  0  0  0  0
 24 52  1  0  0  0  0
M  CHG  1  11   1
M  CHG  1  15   1
M  END
> <s_m_source_file>
AV-unprocessed.smi

> <i_m_source_file_index>
907

> <i_lp_mmshare_version>
43012

> <i_f3d_flags>
0

> <s_epik_input>
W0NIMl0xW0NIMl1bQ0BASF0oW0NIMl0yKVtDQEBIXShbQ0gyXVtDQEhdMTIpTihbQ0gyXVtDSDJdMylbQ0gyXVtDSDJdTjNDKD1PKVtOSF1bQ0gyXVtDSDJdYzRbY0hdW2NIXVtjSF1bY0hdbjQ=

> <s_epik_cmdline>
J2VwaWtfcHl0aG9uJywgJy1waCcsICc3LjAnLCAnLXRuJywgJzgnLCAnLW1hJywgJzIwMCcsICctbWV0YWxfYmluZGluZycsICctaW1hZScsICc8aW5maWxlLm1hZT4nLCAnLW9tYWUnLCAnPG91dGZpbGUubWFlPic=

> <r_epik_Ionization_Penalty>
1.63018

> <r_epik_Ionization_Penalty_Charging>
1.63015

> <r_epik_Ionization_Penalty_Neutral>
2.64641e-05

> <r_epik_State_Penalty>
1.72761

> <r_epik_Charging_Adjusted_Penalty>
3.35777

> <i_epik_Tot_Q>
2

> <i_epik_Tot_abs_Q>
2

> <r_epik_Metal_State_Penalty>
1.76501

> <b_epik_Metal_Only>
0

> <s_lp_Force_Field>
OPLS_2005

> <r_lp_Energy>
102.542

> <b_lp_Chiralities_Consistent>
1

> <s_lp_Variant>
AV-unprocessed.smi:907-8

> <Gold.Version>
5.8.1

> <Gold.Id.Protein>
6NUR|6NUR_protein|mol2

> <Gold.PLP.Fitness>
53.8823

> <Gold.PLP.PLP>
-41.1237

> <Gold.PLP.part.hbond>
-3.9561

> <Gold.PLP.part.metal>
0.0000

> <Gold.PLP.part.buried>
-1.6310

> <Gold.PLP.part.nonpolar>
-35.1776

> <Gold.PLP.part.repulsive>
1.3016

> <Gold.PLP.ligand.clash>
1.3237

> <Gold.PLP.ligand.torsion>
0.5111

> <Gold.PLP.Chemscore.Hbond>
5.0000

> <Gold.PLP.Chemscore.CHOScore>
0.0000

> <Gold.PLP.Chemscore.Metal>
0.0000

> <Gold.Chemscore.Hbonds>
donor molecule, donor type, donor heavy atom, donor atom, acceptor molecule, acceptor atom, score
      L1  H    11    54       P1  8028  2.00
      L1  H    15    53       P1 10175  2.00
      P1  H  7989  7998       L1     1  1.00

> <Gold.PLP.Chemscore.Internal.Correction>
0.1044

> <Gold.Rescore>
     Score         DG    S(hbond)    S(metal)    S(lipo)     H(rot)  DE(clash)    DE(int)     intcor
     19.22     -21.60       2.18        0.00     107.55       1.46       1.74       0.64       ----

> <Gold.Chemscore.Fitness>
19.2204

> <Gold.Chemscore.DG>
-21.5978

> <Gold.Chemscore.ZeroCoef>
-5.4800

> <Gold.Chemscore.Hbond>
2.1751

> <Gold.Chemscore.Metal>
0.0000

> <Gold.Chemscore.Lipo>
107.5510

> <Gold.Chemscore.Internal_Hbond>
0.0000

> <Gold.Chemscore.DEClash>
1.7355

> <Gold.Chemscore.DEInternal>
0.6418

> <Gold.Chemscore.Rot>
1.4572

> <Gold.Chemscore.Internal.Correction>
   9.000000E+99

> <Gold.Chemscore.Hbonds>
donor molecule, donor type, donor heavy atom, donor atom, acceptor molecule, acceptor atom, score
      L1  H     3    25       P1  8028  0.01
      L1  H    11    54       P1  8028  0.40
      L1  H    15    53       P1 10175  1.00
      P1  H  7989  7998       L1     1  0.56

> <Gold.Chemscore.Hbond.Weighted>
-7.2648

> <Gold.Chemscore.Metal.Weighted>
-0.0000

> <Gold.Chemscore.Lipo.Weighted>
-12.5835

> <Gold.Chemscore.Internal_Hbond.Weighted>
0.0000

> <Gold.Chemscore.DEClash.Weighted>
1.7355

> <Gold.Chemscore.DEInternal.Weighted>
0.6418

> <Gold.Chemscore.Rot.Weighted>
3.7305

> <Gold.Chemscore.Internal.Correction.Weighted>
   9.000000E+99

> <Gold.Protein.RotatedTorsions>
[ 6907 6896 6895 6894 ] final  168.46 input  -60.11 | X-H torsion
[ 7974 7965 7964 7962 ] final   20.99 input  175.53 | X-H torsion
[ 8008 7997 7996 7995 ] final   14.74 input   59.86 | X-H torsion
[ 10167 10162 10161 10158 ] final -118.20 input  -65.29 | X-H torsion
[ 10718 10713 10712 10709 ] final  -67.95 input   66.30 | X-H torsion
[ 10763 10752 10751 10750 ] final  159.59 input  -60.55 | X-H torsion
[ 11005 11000 10999 10996 ] final -136.35 input  -57.11 | X-H torsion

> <Gold.Protein.ActiveResidues>
 VAL166  LYS551  ARG553  GLY616  TRP617  ASP618  TYR619  PRO620  LYS621  CYS622 
 ASP623  PHE694  ASN695  SER759  ASP760  ASP761  ALA762  ILE779  LEU786  VAL792 
 PHE793  MET794  SER795  GLU796  ALA797  LYS798  CYS799  TRP800  GLU811  SER814 

> <Gold.Protein.RotatedAtoms>
  151.8473  133.3434  159.3661 H   0  0  0  0  0  0  0  0  0  0  0  0  # atno 6907 bound_to 6896
  150.7217  134.5333  159.5720 H   0  0  0  0  0  0  0  0  0  0  0  0  # atno 6908 bound_to 6896
  152.2819  134.7819  160.0446 H   0  0  0  0  0  0  0  0  0  0  0  0  # atno 6909 bound_to 6896
  146.2089  139.8091  142.8704 H   0  0  0  0  0  0  0  0  0  0  0  0  # atno 7974 bound_to 7965
  154.8528  140.2932  155.5588 H   0  0  0  0  0  0  0  0  0  0  0  0  # atno 8008 bound_to 7997
  156.3017  140.2493  156.3421 H   0  0  0  0  0  0  0  0  0  0  0  0  # atno 8009 bound_to 7997
  154.9003  140.0391  157.1878 H   0  0  0  0  0  0  0  0  0  0  0  0  # atno 8010 bound_to 7997
  140.0601  143.4976  152.2036 H   0  0  0  0  0  0  0  0  0  0  0  0  # atno 10167 bound_to 10162
  156.0531  130.4286  150.1929 H   0  0  0  0  0  0  0  0  0  0  0  0  # atno 10718 bound_to 10713
  154.2341  135.2777  155.2878 H   0  0  0  0  0  0  0  0  0  0  0  0  # atno 10763 bound_to 10752
  154.5599  135.5650  153.7001 H   0  0  0  0  0  0  0  0  0  0  0  0  # atno 10764 bound_to 10752
  153.0014  135.6295  154.2484 H   0  0  0  0  0  0  0  0  0  0  0  0  # atno 10765 bound_to 10752
  140.8813  134.1928  157.4589 H   0  0  0  0  0  0  0  0  0  0  0  0  # atno 11005 bound_to 11000
  145.3215  141.0245  143.3498 LP  0  0  0  0  0  0  0  0  0  0  0  0  # atno 17320 bound_to 7965
  144.8863  139.4835  143.6699 LP  0  0  0  0  0  0  0  0  0  0  0  0  # atno 17321 bound_to 7965
  139.5899  144.7546  151.3426 LP  0  0  0  0  0  0  0  0  0  0  0  0  # atno 17342 bound_to 10162
  140.7176  143.7224  150.7686 LP  0  0  0  0  0  0  0  0  0  0  0  0  # atno 17343 bound_to 10162
  157.0009  130.9922  151.3391 LP  0  0  0  0  0  0  0  0  0  0  0  0  # atno 17370 bound_to 10713
  157.5475  130.8160  149.8104 LP  0  0  0  0  0  0  0  0  0  0  0  0  # atno 17371 bound_to 10713
  139.8720  134.9818  156.5133 LP  0  0  0  0  0  0  0  0  0  0  0  0  # atno 17394 bound_to 11000
  140.8457  133.8170  155.9119 LP  0  0  0  0  0  0  0  0  0  0  0  0  # atno 17395 bound_to 11000

$$$$
