AV-unprocessed.smi:2410|AV-procd|sdf|9528|dock1
  -GOLD-   2272013163D 1   1.00000     0.00000
 Structure written by MMmdl.
 47 49  0  0  0  0  0  0  0  0  2 V2000
  151.9755  144.3548  160.1071 C   0  0  0  0  0  0  0  0  0  0  0  0
  151.7757  143.2200  159.1170 C   0  0  0  0  0  0  0  0  0  0  0  0
  150.9239  143.4332  158.0091 C   0  0  0  0  0  0  0  0  0  0  0  0
  150.7636  142.3772  157.1194 C   0  0  0  0  0  0  0  0  0  0  0  0
  150.0089  142.2701  155.9486 N   0  3  0  0  0  0  0  0  0  0  0  0
  150.1749  141.0288  155.4123 C   0  0  0  0  0  0  0  0  0  0  0  0
  151.0236  140.3428  156.2248 N   0  0  0  0  0  0  0  0  0  0  0  0
  151.5450  138.9748  156.1182 C   0  0  0  0  0  0  0  0  0  0  0  0
  150.9859  138.0445  157.2125 C   0  0  2  0  0  0  0  0  0  0  0  0
  151.9323  137.0202  157.4481 O   0  0  0  0  0  0  0  0  0  0  0  0
  149.6428  137.4047  156.7979 C   0  0  0  0  0  0  0  0  0  0  0  0
  148.9832  136.7348  157.9304 N   0  0  0  0  0  0  0  0  0  0  0  0
  148.5581  137.5616  158.9825 C   0  0  0  0  0  0  0  0  0  0  0  0
  147.9660  137.0808  160.0266 N   0  0  0  0  0  0  0  0  0  0  0  0
  147.7315  135.7060  160.1245 C   0  0  0  0  0  0  0  0  0  0  0  0
  147.0362  135.2481  161.3944 C   0  0  0  0  0  0  0  0  0  0  0  0
  148.1084  134.8521  159.1337 C   0  0  0  0  0  0  0  0  0  0  0  0
  147.8796  133.3466  159.1847 C   0  0  0  0  0  0  0  0  0  0  0  0
  148.7766  135.3856  157.9359 C   0  0  0  0  0  0  0  0  0  0  0  0
  149.1260  134.6745  156.9908 O   0  0  0  0  0  0  0  0  0  0  0  0
  151.4147  141.1427  157.3032 C   0  0  0  0  0  0  0  0  0  0  0  0
  152.2552  140.9141  158.3899 C   0  0  0  0  0  0  0  0  0  0  0  0
  152.4327  141.9760  159.3048 C   0  0  0  0  0  0  0  0  0  0  0  0
  153.3486  141.7575  160.4972 C   0  0  0  0  0  0  0  0  0  0  0  0
  151.4206  145.2455  159.8106 H   0  0  0  0  0  0  0  0  0  0  0  0
  153.0295  144.6261  160.1725 H   0  0  0  0  0  0  0  0  0  0  0  0
  151.6304  144.0623  161.0991 H   0  0  0  0  0  0  0  0  0  0  0  0
  150.4210  144.3774  157.8597 H   0  0  0  0  0  0  0  0  0  0  0  0
  149.7198  140.6582  154.5050 H   0  0  0  0  0  0  0  0  0  0  0  0
  151.2986  138.5997  155.1240 H   0  0  0  0  0  0  0  0  0  0  0  0
  152.6335  139.0245  156.1703 H   0  0  0  0  0  0  0  0  0  0  0  0
  150.8652  138.6149  158.1340 H   0  0  0  0  0  0  0  0  0  0  0  0
  152.3539  137.1846  158.2776 H   0  0  0  0  0  0  0  0  0  0  0  0
  148.9669  138.1785  156.4287 H   0  0  0  0  0  0  0  0  0  0  0  0
  149.7763  136.7419  155.9403 H   0  0  0  0  0  0  0  0  0  0  0  0
  148.7585  138.6267  158.8544 H   0  0  0  0  0  0  0  0  0  0  0  0
  147.6678  134.5515  161.9461 H   0  0  0  0  0  0  0  0  0  0  0  0
  146.0938  134.7536  161.1573 H   0  0  0  0  0  0  0  0  0  0  0  0
  146.8146  136.0904  162.0513 H   0  0  0  0  0  0  0  0  0  0  0  0
  147.2706  133.0294  158.3375 H   0  0  0  0  0  0  0  0  0  0  0  0
  147.3734  133.0201  160.0917 H   0  0  0  0  0  0  0  0  0  0  0  0
  148.8331  132.8196  159.1331 H   0  0  0  0  0  0  0  0  0  0  0  0
  152.7571  139.9676  158.5303 H   0  0  0  0  0  0  0  0  0  0  0  0
  153.7466  140.7423  160.5140 H   0  0  0  0  0  0  0  0  0  0  0  0
  152.8090  141.9181  161.4308 H   0  0  0  0  0  0  0  0  0  0  0  0
  154.1933  142.4457  160.4612 H   0  0  0  0  0  0  0  0  0  0  0  0
  149.4250  142.9899  155.5419 H   0  0  0  0  0  0  0  0  0  0  0  0
  1  2  1  0  0  0  0
  1 25  1  0  0  0  0
  1 26  1  0  0  0  0
  1 27  1  0  0  0  0
  2 23  1  0  0  0  0
  2  3  2  0  0  0  0
  3  4  1  0  0  0  0
  3 28  1  0  0  0  0
  4 21  2  0  0  0  0
  4  5  1  0  0  0  0
  5  6  2  0  0  0  0
  5 47  1  0  0  0  0
  6  7  1  0  0  0  0
  6 29  1  0  0  0  0
  7  8  1  0  0  0  0
  7 21  1  0  0  0  0
  8  9  1  0  0  0  0
  8 30  1  0  0  0  0
  8 31  1  0  0  0  0
  9 10  1  0  0  0  0
  9 11  1  0  0  0  0
  9 32  1  0  0  0  0
 10 33  1  0  0  0  0
 11 12  1  0  0  0  0
 11 34  1  0  0  0  0
 11 35  1  0  0  0  0
 12 19  1  0  0  0  0
 12 13  1  0  0  0  0
 13 14  2  0  0  0  0
 13 36  1  0  0  0  0
 14 15  1  0  0  0  0
 15 16  1  0  0  0  0
 15 17  2  0  0  0  0
 16 37  1  0  0  0  0
 16 38  1  0  0  0  0
 16 39  1  0  0  0  0
 17 18  1  0  0  0  0
 17 19  1  0  0  0  0
 18 40  1  0  0  0  0
 18 41  1  0  0  0  0
 18 42  1  0  0  0  0
 19 20  2  0  0  0  0
 21 22  1  0  0  0  0
 22 23  2  0  0  0  0
 22 43  1  0  0  0  0
 23 24  1  0  0  0  0
 24 44  1  0  0  0  0
 24 45  1  0  0  0  0
 24 46  1  0  0  0  0
M  CHG  1   5   1
M  END
> <s_m_source_file>
AV-unprocessed.smi

> <i_m_source_file_index>
2410

> <i_lp_mmshare_version>
43012

> <i_f3d_flags>
0

> <s_epik_input>
W0NIM11jKFtjSF0xKWMoW0NIM10pW2NIXWMoYzEyKW4oW2NIXW4yKVtDSDJdW0NASF0oW09IXSlbQ0gyXW4zW2NIXW5jKFtDSDNdKWMoW0NIM10pYzM9Tw==

> <s_epik_cmdline>
J2VwaWtfcHl0aG9uJywgJy1waCcsICc3LjAnLCAnLXRuJywgJzgnLCAnLW1hJywgJzIwMCcsICctbWV0YWxfYmluZGluZycsICctaW1hZScsICc8aW5maWxlLm1hZT4nLCAnLW9tYWUnLCAnPG91dGZpbGUubWFlPic=

> <r_lp_tautomer_probability>
1

> <r_epik_Ionization_Penalty>
1.03571

> <r_epik_Ionization_Penalty_Charging>
1.03568

> <r_epik_Ionization_Penalty_Neutral>
3.18232e-05

> <r_epik_State_Penalty>
1.08724

> <r_epik_Charging_Adjusted_Penalty>
2.12292

> <i_epik_Tot_Q>
1

> <i_epik_Tot_abs_Q>
1

> <r_epik_Metal_State_Penalty>
1.18374

> <b_epik_Metal_Only>
0

> <s_lp_Force_Field>
OPLS_2005

> <r_lp_Energy>
24.5371

> <b_lp_Chiralities_Consistent>
1

> <s_lp_Variant>
AV-unprocessed.smi:2410-3

> <Gold.Version>
5.8.1

> <Gold.Id.Protein>
6NUR|6NUR_protein|mol2

> <Gold.PLP.Fitness>
50.0544

> <Gold.PLP.PLP>
-41.9368

> <Gold.PLP.part.hbond>
-3.0000

> <Gold.PLP.part.metal>
0.0000

> <Gold.PLP.part.buried>
-3.9690

> <Gold.PLP.part.nonpolar>
-34.8994

> <Gold.PLP.part.repulsive>
0.1203

> <Gold.PLP.ligand.clash>
0.0000

> <Gold.PLP.ligand.torsion>
0.4802

> <Gold.PLP.Chemscore.Hbond>
3.0091

> <Gold.PLP.Chemscore.CHOScore>
0.0000

> <Gold.PLP.Chemscore.Metal>
0.0000

> <Gold.Chemscore.Hbonds>
donor molecule, donor type, donor heavy atom, donor atom, acceptor molecule, acceptor atom, score
      L1  H     5    47       P1  8028  1.82
      P1  H  6934  6947       L1    14  0.28

> <Gold.PLP.Chemscore.Internal.Correction>
0.0509

> <Gold.Rescore>
     Score         DG    S(hbond)    S(metal)    S(lipo)     H(rot)  DE(clash)    DE(int)     intcor
     16.98     -17.75       1.66        0.00     109.99       2.41       0.32       0.45       ----

> <Gold.Chemscore.Fitness>
16.9782

> <Gold.Chemscore.DG>
-17.7455

> <Gold.Chemscore.ZeroCoef>
-5.4800

> <Gold.Chemscore.Hbond>
1.6630

> <Gold.Chemscore.Metal>
0.0000

> <Gold.Chemscore.Lipo>
109.9856

> <Gold.Chemscore.Internal_Hbond>
0.0000

> <Gold.Chemscore.DEClash>
0.3156

> <Gold.Chemscore.DEInternal>
0.4517

> <Gold.Chemscore.Rot>
2.4052

> <Gold.Chemscore.Internal.Correction>
   9.000000E+99

> <Gold.Chemscore.Hbonds>
donor molecule, donor type, donor heavy atom, donor atom, acceptor molecule, acceptor atom, score
      L1  H     5    47       P1  8028  0.90
      P1  H  6931  6943       L1    14  0.01
      P1  H  6934  6947       L1    14  0.05

> <Gold.Chemscore.Hbond.Weighted>
-5.5545

> <Gold.Chemscore.Metal.Weighted>
-0.0000

> <Gold.Chemscore.Lipo.Weighted>
-12.8683

> <Gold.Chemscore.Internal_Hbond.Weighted>
0.0000

> <Gold.Chemscore.DEClash.Weighted>
0.3156

> <Gold.Chemscore.DEInternal.Weighted>
0.4517

> <Gold.Chemscore.Rot.Weighted>
6.1573

> <Gold.Chemscore.Internal.Correction.Weighted>
   9.000000E+99

> <Gold.Protein.RotatedTorsions>
[ 6907 6896 6895 6894 ] final   11.96 input  -60.11 | X-H torsion
[ 7974 7965 7964 7962 ] final -126.14 input  175.53 | X-H torsion
[ 8008 7997 7996 7995 ] final  120.75 input   59.86 | X-H torsion
[ 10167 10162 10161 10158 ] final   28.77 input  -65.29 | X-H torsion
[ 10718 10713 10712 10709 ] final   44.06 input   66.30 | X-H torsion
[ 10763 10752 10751 10750 ] final    1.55 input  -60.55 | X-H torsion
[ 11005 11000 10999 10996 ] final   88.48 input  -57.11 | X-H torsion

> <Gold.Protein.ActiveResidues>
 VAL166  LYS551  ARG553  GLY616  TRP617  ASP618  TYR619  PRO620  LYS621  CYS622 
 ASP623  PHE694  ASN695  SER759  ASP760  ASP761  ALA762  ILE779  LEU786  VAL792 
 PHE793  MET794  SER795  GLU796  ALA797  LYS798  CYS799  TRP800  GLU811  SER814 

> <Gold.Protein.RotatedAtoms>
  151.7627  135.0806  160.0347 H   0  0  0  0  0  0  0  0  0  0  0  0  # atno 6907 bound_to 6896
  152.3342  133.5989  159.5839 H   0  0  0  0  0  0  0  0  0  0  0  0  # atno 6908 bound_to 6896
  150.7440  133.9737  159.3596 H   0  0  0  0  0  0  0  0  0  0  0  0  # atno 6909 bound_to 6896
  144.9904  140.7726  143.4558 H   0  0  0  0  0  0  0  0  0  0  0  0  # atno 7974 bound_to 7965
  156.2657  140.2824  156.1200 H   0  0  0  0  0  0  0  0  0  0  0  0  # atno 8008 bound_to 7997
  155.1166  140.0391  157.2756 H   0  0  0  0  0  0  0  0  0  0  0  0  # atno 8009 bound_to 7997
  154.6702  140.2586  155.7021 H   0  0  0  0  0  0  0  0  0  0  0  0  # atno 8010 bound_to 7997
  140.4824  144.0595  150.6269 H   0  0  0  0  0  0  0  0  0  0  0  0  # atno 10167 bound_to 10162
  157.4227  130.7978  149.7530 H   0  0  0  0  0  0  0  0  0  0  0  0  # atno 10718 bound_to 10713
  153.3066  135.6960  153.7154 H   0  0  0  0  0  0  0  0  0  0  0  0  # atno 10763 bound_to 10752
  153.6047  135.3455  155.2958 H   0  0  0  0  0  0  0  0  0  0  0  0  # atno 10764 bound_to 10752
  154.8564  135.4349  154.2192 H   0  0  0  0  0  0  0  0  0  0  0  0  # atno 10765 bound_to 10752
  139.8895  134.8491  156.3007 H   0  0  0  0  0  0  0  0  0  0  0  0  # atno 11005 bound_to 11000
  145.2294  139.2122  143.5051 LP  0  0  0  0  0  0  0  0  0  0  0  0  # atno 17320 bound_to 7965
  146.3430  140.2168  142.8591 LP  0  0  0  0  0  0  0  0  0  0  0  0  # atno 17321 bound_to 7965
  140.3841  143.2787  152.0136 LP  0  0  0  0  0  0  0  0  0  0  0  0  # atno 17342 bound_to 10162
  139.4836  144.6131  151.7397 LP  0  0  0  0  0  0  0  0  0  0  0  0  # atno 17343 bound_to 10162
  155.9886  130.3958  150.3111 LP  0  0  0  0  0  0  0  0  0  0  0  0  # atno 17370 bound_to 10713
  157.1260  131.0259  151.2989 LP  0  0  0  0  0  0  0  0  0  0  0  0  # atno 17371 bound_to 10713
  140.9915  133.7206  156.0821 LP  0  0  0  0  0  0  0  0  0  0  0  0  # atno 17394 bound_to 11000
  140.7618  134.3930  157.5524 LP  0  0  0  0  0  0  0  0  0  0  0  0  # atno 17395 bound_to 11000

$$$$
