AV-unprocessed.smi:564|AV-procd|sdf|2949|dock1
  -GOLD-   2262023443D 1   1.00000     0.00000
 Structure written by MMmdl.
 50 51  0  0  0  0  0  0  0  0  2 V2000
  152.8428  138.1598  154.7441 C   0  0  0  0  0  0  0  0  0  0  0  0
  152.1011  139.1412  155.6062 C   0  0  0  0  0  0  0  0  0  0  0  0
  152.7219  139.6692  156.6475 N   0  0  0  0  0  0  0  0  0  0  0  0
  151.8186  140.4999  157.2045 N   0  0  0  0  0  0  0  0  0  0  0  0
  152.1857  141.2563  158.3859 C   0  0  0  0  0  0  0  0  0  0  0  0
  150.6241  140.5000  156.5108 C   0  0  0  0  0  0  0  0  0  0  0  0
  149.4614  141.3459  156.9190 C   0  0  0  0  0  0  0  0  0  0  0  0
  150.7655  139.6247  155.4670 C   0  0  0  0  0  0  0  0  0  0  0  0
  149.7523  139.2582  154.4082 C   0  0  0  0  0  0  0  0  0  0  0  0
  148.5514  138.5123  155.0039 C   0  0  0  0  0  0  0  0  0  0  0  0
  147.9125  138.9769  155.9496 O   0  0  0  0  0  0  0  0  0  0  0  0
  148.2524  137.3358  154.4326 N   0  0  0  0  0  0  0  0  0  0  0  0
  147.1578  136.4641  154.8427 C   0  0  0  0  0  0  0  0  0  0  0  0
  147.4543  134.9903  154.5000 C   0  0  0  0  0  0  0  0  0  0  0  0
  146.9982  134.5919  153.1405 N   0  3  2  0  0  0  0  0  0  0  0  0
  145.6785  135.1912  152.8019 C   0  0  0  0  0  0  0  0  0  0  0  0
  145.3139  134.9568  151.3274 C   0  0  0  0  0  0  0  0  0  0  0  0
  145.3381  133.4635  150.9856 C   0  0  0  0  0  0  0  0  0  0  0  0
  146.7030  132.8678  151.3561 C   0  0  0  0  0  0  0  0  0  0  0  0
  147.0728  133.1284  152.8323 C   0  0  2  0  0  0  0  0  0  0  0  0
  146.2542  132.2487  153.8018 C   0  0  0  0  0  0  0  0  0  0  0  0
  152.2080  137.7529  153.9578 H   0  0  0  0  0  0  0  0  0  0  0  0
  153.2142  137.3219  155.3344 H   0  0  0  0  0  0  0  0  0  0  0  0
  153.6985  138.6333  154.2626 H   0  0  0  0  0  0  0  0  0  0  0  0
  151.3685  141.2375  159.1071 H   0  0  0  0  0  0  0  0  0  0  0  0
  152.3927  142.2897  158.1072 H   0  0  0  0  0  0  0  0  0  0  0  0
  153.0740  140.8295  158.8536 H   0  0  0  0  0  0  0  0  0  0  0  0
  148.7361  141.4343  156.1102 H   0  0  0  0  0  0  0  0  0  0  0  0
  149.7832  142.3530  157.1845 H   0  0  0  0  0  0  0  0  0  0  0  0
  148.9536  140.9133  157.7810 H   0  0  0  0  0  0  0  0  0  0  0  0
  149.3851  140.1436  153.8893 H   0  0  0  0  0  0  0  0  0  0  0  0
  150.2049  138.6303  153.6400 H   0  0  0  0  0  0  0  0  0  0  0  0
  148.8210  137.0261  153.6574 H   0  0  0  0  0  0  0  0  0  0  0  0
  146.9638  136.5807  155.9105 H   0  0  0  0  0  0  0  0  0  0  0  0
  146.2671  136.8121  154.3208 H   0  0  0  0  0  0  0  0  0  0  0  0
  148.5156  134.7734  154.6226 H   0  0  0  0  0  0  0  0  0  0  0  0
  146.9364  134.3600  155.2241 H   0  0  0  0  0  0  0  0  0  0  0  0
  144.9047  134.7847  153.4540 H   0  0  0  0  0  0  0  0  0  0  0  0
  145.7061  136.2655  152.9882 H   0  0  0  0  0  0  0  0  0  0  0  0
  144.3274  135.3713  151.1170 H   0  0  0  0  0  0  0  0  0  0  0  0
  146.0167  135.4908  150.6865 H   0  0  0  0  0  0  0  0  0  0  0  0
  144.5423  132.9459  151.5220 H   0  0  0  0  0  0  0  0  0  0  0  0
  145.1404  133.3182  149.9231 H   0  0  0  0  0  0  0  0  0  0  0  0
  146.7129  131.7978  151.1455 H   0  0  0  0  0  0  0  0  0  0  0  0
  147.4668  133.3077  150.7132 H   0  0  0  0  0  0  0  0  0  0  0  0
  148.1137  132.8217  152.9294 H   0  0  0  0  0  0  0  0  0  0  0  0
  146.3247  131.1980  153.5195 H   0  0  0  0  0  0  0  0  0  0  0  0
  145.1967  132.5108  153.8081 H   0  0  0  0  0  0  0  0  0  0  0  0
  146.6224  132.3222  154.8247 H   0  0  0  0  0  0  0  0  0  0  0  0
  147.6520  135.0289  152.5063 H   0  0  0  0  0  0  0  0  0  0  0  0
  1  2  1  0  0  0  0
  1 22  1  0  0  0  0
  1 23  1  0  0  0  0
  1 24  1  0  0  0  0
  2  8  1  0  0  0  0
  2  3  2  0  0  0  0
  3  4  1  0  0  0  0
  4  5  1  0  0  0  0
  4  6  1  0  0  0  0
  5 25  1  0  0  0  0
  5 26  1  0  0  0  0
  5 27  1  0  0  0  0
  6  7  1  0  0  0  0
  6  8  2  0  0  0  0
  7 28  1  0  0  0  0
  7 29  1  0  0  0  0
  7 30  1  0  0  0  0
  8  9  1  0  0  0  0
  9 10  1  0  0  0  0
  9 31  1  0  0  0  0
  9 32  1  0  0  0  0
 10 11  2  0  0  0  0
 10 12  1  0  0  0  0
 12 13  1  0  0  0  0
 12 33  1  0  0  0  0
 13 14  1  0  0  0  0
 13 34  1  0  0  0  0
 13 35  1  0  0  0  0
 14 15  1  0  0  0  0
 14 36  1  0  0  0  0
 14 37  1  0  0  0  0
 15 20  1  0  0  0  0
 15 16  1  0  0  0  0
 15 50  1  0  0  0  0
 16 17  1  0  0  0  0
 16 38  1  0  0  0  0
 16 39  1  0  0  0  0
 17 18  1  0  0  0  0
 17 40  1  0  0  0  0
 17 41  1  0  0  0  0
 18 19  1  0  0  0  0
 18 42  1  0  0  0  0
 18 43  1  0  0  0  0
 19 20  1  0  0  0  0
 19 44  1  0  0  0  0
 19 45  1  0  0  0  0
 20 21  1  0  0  0  0
 20 46  1  0  0  0  0
 21 47  1  0  0  0  0
 21 48  1  0  0  0  0
 21 49  1  0  0  0  0
M  CHG  1  15   1
M  END
> <s_m_source_file>
AV-unprocessed.smi

> <i_m_source_file_index>
564

> <i_lp_mmshare_version>
43012

> <i_f3d_flags>
0

> <s_epik_input>
W0NIM11jMW5uKFtDSDNdKWMoW0NIM10pYzFbQ0gyXUMoPU8pW05IXVtDSDJdW0NIMl1OMltDSDJdW0NIMl1bQ0gyXVtDSDJdW0NASF0yW0NIM10=

> <s_epik_cmdline>
J2VwaWtfcHl0aG9uJywgJy1waCcsICc3LjAnLCAnLXRuJywgJzgnLCAnLW1hJywgJzIwMCcsICctbWV0YWxfYmluZGluZycsICctaW1hZScsICc8aW5maWxlLm1hZT4nLCAnLW9tYWUnLCAnPG91dGZpbGUubWFlPic=

> <r_lp_tautomer_probability>
1

> <r_epik_Ionization_Penalty>
0.00456826

> <r_epik_Ionization_Penalty_Charging>
0.00240401

> <r_epik_Ionization_Penalty_Neutral>
0.00216425

> <r_epik_State_Penalty>
-0

> <r_epik_Charging_Adjusted_Penalty>
0.00240401

> <i_epik_Tot_Q>
1

> <i_epik_Tot_abs_Q>
1

> <r_epik_Metal_State_Penalty>
-0

> <b_epik_Metal_Only>
0

> <s_lp_Force_Field>
OPLS_2005

> <r_lp_Energy>
15.7718

> <b_lp_Chiralities_Consistent>
1

> <s_lp_Variant>
AV-unprocessed.smi:564-3

> <Gold.Version>
5.8.1

> <Gold.Id.Protein>
6NUR|6NUR_protein|mol2

> <Gold.PLP.Fitness>
45.4620

> <Gold.PLP.PLP>
-34.4569

> <Gold.PLP.part.hbond>
-3.0000

> <Gold.PLP.part.metal>
0.0000

> <Gold.PLP.part.buried>
-0.3995

> <Gold.PLP.part.nonpolar>
-30.0335

> <Gold.PLP.part.repulsive>
0.0000

> <Gold.PLP.ligand.clash>
0.0000

> <Gold.PLP.ligand.torsion>
0.5535

> <Gold.PLP.Chemscore.Hbond>
4.0000

> <Gold.PLP.Chemscore.CHOScore>
0.0000

> <Gold.PLP.Chemscore.Metal>
0.0000

> <Gold.Chemscore.Hbonds>
donor molecule, donor type, donor heavy atom, donor atom, acceptor molecule, acceptor atom, score
      L1  H    12    33       P1  7948  1.00
      L1  H    15    50       P1  7948  2.00
      P1  H  7997  8008       L1     3  1.00

> <Gold.PLP.Chemscore.Internal.Correction>
0.1122

> <Gold.Rescore>
     Score         DG    S(hbond)    S(metal)    S(lipo)     H(rot)  DE(clash)    DE(int)     intcor
     19.96     -20.86       2.87        0.00      84.83       1.61       0.33       0.57       ----

> <Gold.Chemscore.Fitness>
19.9629

> <Gold.Chemscore.DG>
-20.8582

> <Gold.Chemscore.ZeroCoef>
-5.4800

> <Gold.Chemscore.Hbond>
2.8699

> <Gold.Chemscore.Metal>
0.0000

> <Gold.Chemscore.Lipo>
84.8294

> <Gold.Chemscore.Internal_Hbond>
0.0000

> <Gold.Chemscore.DEClash>
0.3262

> <Gold.Chemscore.DEInternal>
0.5691

> <Gold.Chemscore.Rot>
1.6142

> <Gold.Chemscore.Internal.Correction>
   9.000000E+99

> <Gold.Chemscore.Hbonds>
donor molecule, donor type, donor heavy atom, donor atom, acceptor molecule, acceptor atom, score
      L1  H    12    33       P1  7948  0.94
      L1  H    15    50       P1  7948  0.97
      P1  H  7997  8008       L1     3  0.97

> <Gold.Chemscore.Hbond.Weighted>
-9.5855

> <Gold.Chemscore.Metal.Weighted>
-0.0000

> <Gold.Chemscore.Lipo.Weighted>
-9.9250

> <Gold.Chemscore.Internal_Hbond.Weighted>
0.0000

> <Gold.Chemscore.DEClash.Weighted>
0.3262

> <Gold.Chemscore.DEInternal.Weighted>
0.5691

> <Gold.Chemscore.Rot.Weighted>
4.1324

> <Gold.Chemscore.Internal.Correction.Weighted>
   9.000000E+99

> <Gold.Protein.RotatedTorsions>
[ 6907 6896 6895 6894 ] final  -36.25 input  -60.11 | X-H torsion
[ 7974 7965 7964 7962 ] final -101.14 input  175.53 | X-H torsion
[ 8008 7997 7996 7995 ] final  -61.67 input   59.86 | X-H torsion
[ 10167 10162 10161 10158 ] final   36.16 input  -65.29 | X-H torsion
[ 10718 10713 10712 10709 ] final  -47.16 input   66.30 | X-H torsion
[ 10763 10752 10751 10750 ] final   17.15 input  -60.55 | X-H torsion
[ 11005 11000 10999 10996 ] final  -31.37 input  -57.11 | X-H torsion

> <Gold.Protein.ActiveResidues>
 VAL166  LYS551  ARG553  GLY616  TRP617  ASP618  TYR619  PRO620  LYS621  CYS622 
 ASP623  PHE694  ASN695  SER759  ASP760  ASP761  ALA762  ILE779  LEU786  VAL792 
 PHE793  MET794  SER795  GLU796  ALA797  LYS798  CYS799  TRP800  GLU811  SER814 

> <Gold.Protein.RotatedAtoms>
  151.0295  134.9529  159.8103 H   0  0  0  0  0  0  0  0  0  0  0  0  # atno 6907 bound_to 6896
  152.5342  134.2799  159.9013 H   0  0  0  0  0  0  0  0  0  0  0  0  # atno 6908 bound_to 6896
  151.2808  133.4168  159.2661 H   0  0  0  0  0  0  0  0  0  0  0  0  # atno 6909 bound_to 6896
  145.2855  140.9338  143.2908 H   0  0  0  0  0  0  0  0  0  0  0  0  # atno 7974 bound_to 7965
  154.4460  140.1012  156.6467 H   0  0  0  0  0  0  0  0  0  0  0  0  # atno 8008 bound_to 7997
  155.5442  140.3484  155.4435 H   0  0  0  0  0  0  0  0  0  0  0  0  # atno 8009 bound_to 7997
  156.0575  140.1318  156.9969 H   0  0  0  0  0  0  0  0  0  0  0  0  # atno 8010 bound_to 7997
  140.4154  144.1534  150.6143 H   0  0  0  0  0  0  0  0  0  0  0  0  # atno 10167 bound_to 10162
  156.2111  130.4161  149.9113 H   0  0  0  0  0  0  0  0  0  0  0  0  # atno 10718 bound_to 10713
  153.1365  135.6751  153.9094 H   0  0  0  0  0  0  0  0  0  0  0  0  # atno 10763 bound_to 10752
  153.8564  135.3087  155.3436 H   0  0  0  0  0  0  0  0  0  0  0  0  # atno 10764 bound_to 10752
  154.7752  135.4918  153.9812 H   0  0  0  0  0  0  0  0  0  0  0  0  # atno 10765 bound_to 10752
  140.9462  133.7248  156.1150 H   0  0  0  0  0  0  0  0  0  0  0  0  # atno 11005 bound_to 11000
  144.9217  139.4404  143.6538 LP  0  0  0  0  0  0  0  0  0  0  0  0  # atno 17320 bound_to 7965
  146.3202  139.8081  142.8951 LP  0  0  0  0  0  0  0  0  0  0  0  0  # atno 17321 bound_to 7965
  140.4592  143.2455  151.9243 LP  0  0  0  0  0  0  0  0  0  0  0  0  # atno 17342 bound_to 10162
  139.4782  144.5484  151.8423 LP  0  0  0  0  0  0  0  0  0  0  0  0  # atno 17343 bound_to 10162
  156.6791  130.8851  151.3573 LP  0  0  0  0  0  0  0  0  0  0  0  0  # atno 17370 bound_to 10713
  157.7039  130.9363  150.0870 LP  0  0  0  0  0  0  0  0  0  0  0  0  # atno 17371 bound_to 10713
  140.7666  134.3879  157.5516 LP  0  0  0  0  0  0  0  0  0  0  0  0  # atno 17394 bound_to 11000
  139.8834  134.8995  156.2769 LP  0  0  0  0  0  0  0  0  0  0  0  0  # atno 17395 bound_to 11000

$$$$
