AV-unprocessed.smi:2228|AV-procd|sdf|9025|dock2
  -GOLD-   2272012233D 1   1.00000     0.00000
 Structure written by MMmdl.
 40 41  0  0  0  0  0  0  0  0  1 V2000
  146.1697  142.5946  154.6350 C   0  0  0  0  0  0  0  0  0  0  0  0
  146.6423  141.5397  155.4582 O   0  0  0  0  0  0  0  0  0  0  0  0
  147.3280  140.5228  154.7382 C   0  0  2  0  0  0  0  0  0  0  0  0
  147.6853  139.3518  155.6511 C   0  0  0  0  0  0  0  0  0  0  0  0
  148.7682  138.6005  154.8776 C   0  0  0  0  0  0  0  0  0  0  0  0
  149.5308  139.6722  154.0846 C   0  0  0  0  0  0  0  0  0  0  0  0
  148.6790  140.9564  154.1369 C   0  0  2  0  0  0  0  0  0  0  0  0
  149.3346  141.9593  154.9781 N   0  0  0  0  0  0  0  0  0  0  0  0
  150.0036  141.7178  156.1146 C   0  0  0  0  0  0  0  0  0  0  0  0
  150.1358  140.5953  156.6035 O   0  0  0  0  0  0  0  0  0  0  0  0
  150.5002  142.8546  156.6330 N   0  0  0  0  0  0  0  0  0  0  0  0
  151.2963  143.0143  157.7981 C   0  0  0  0  0  0  0  0  0  0  0  0
  151.2390  144.2952  158.3915 C   0  0  0  0  0  0  0  0  0  0  0  0
  151.9966  144.5585  159.5504 C   0  0  0  0  0  0  0  0  0  0  0  0
  151.9476  145.9241  160.2029 C   0  0  0  0  0  0  0  0  0  0  0  0
  152.7947  143.5292  160.0853 C   0  0  0  0  0  0  0  0  0  0  0  0
  152.7967  142.2818  159.4311 C   0  0  0  0  0  0  0  0  0  0  0  0
  153.6323  141.1310  159.9508 C   0  0  0  0  0  0  0  0  0  0  0  0
  152.0692  142.0305  158.3218 N   0  0  0  0  0  0  0  0  0  0  0  0
  145.6682  143.3403  155.2514 H   0  0  0  0  0  0  0  0  0  0  0  0
  145.4513  142.2289  153.9003 H   0  0  0  0  0  0  0  0  0  0  0  0
  146.9840  143.0910  154.1070 H   0  0  0  0  0  0  0  0  0  0  0  0
  146.6872  140.1362  153.9428 H   0  0  0  0  0  0  0  0  0  0  0  0
  148.0959  139.7240  156.5908 H   0  0  0  0  0  0  0  0  0  0  0  0
  146.8248  138.7254  155.8874 H   0  0  0  0  0  0  0  0  0  0  0  0
  149.4212  138.0268  155.5356 H   0  0  0  0  0  0  0  0  0  0  0  0
  148.3007  137.8988  154.1856 H   0  0  0  0  0  0  0  0  0  0  0  0
  150.5246  139.8314  154.5064 H   0  0  0  0  0  0  0  0  0  0  0  0
  149.6759  139.3447  153.0545 H   0  0  0  0  0  0  0  0  0  0  0  0
  148.5229  141.3432  153.1287 H   0  0  0  0  0  0  0  0  0  0  0  0
  149.2858  142.9143  154.6544 H   0  0  0  0  0  0  0  0  0  0  0  0
  150.2947  143.7042  156.1287 H   0  0  0  0  0  0  0  0  0  0  0  0
  150.6201  145.0710  157.9639 H   0  0  0  0  0  0  0  0  0  0  0  0
  152.6575  145.9954  161.0275 H   0  0  0  0  0  0  0  0  0  0  0  0
  150.9486  146.1196  160.5934 H   0  0  0  0  0  0  0  0  0  0  0  0
  152.1916  146.6998  159.4763 H   0  0  0  0  0  0  0  0  0  0  0  0
  153.3893  143.6909  160.9726 H   0  0  0  0  0  0  0  0  0  0  0  0
  154.3164  141.4614  160.7329 H   0  0  0  0  0  0  0  0  0  0  0  0
  154.2241  140.6943  159.1457 H   0  0  0  0  0  0  0  0  0  0  0  0
  152.9885  140.3544  160.3646 H   0  0  0  0  0  0  0  0  0  0  0  0
  1  2  1  0  0  0  0
  1 20  1  0  0  0  0
  1 21  1  0  0  0  0
  1 22  1  0  0  0  0
  2  3  1  0  0  0  0
  3  7  1  0  0  0  0
  3  4  1  0  0  0  0
  3 23  1  0  0  0  0
  4  5  1  0  0  0  0
  4 24  1  0  0  0  0
  4 25  1  0  0  0  0
  5  6  1  0  0  0  0
  5 26  1  0  0  0  0
  5 27  1  0  0  0  0
  6  7  1  0  0  0  0
  6 28  1  0  0  0  0
  6 29  1  0  0  0  0
  7  8  1  0  0  0  0
  7 30  1  0  0  0  0
  8  9  1  0  0  0  0
  8 31  1  0  0  0  0
  9 10  2  0  0  0  0
  9 11  1  0  0  0  0
 11 12  1  0  0  0  0
 11 32  1  0  0  0  0
 12 19  1  0  0  0  0
 12 13  2  0  0  0  0
 13 14  1  0  0  0  0
 13 33  1  0  0  0  0
 14 15  1  0  0  0  0
 14 16  2  0  0  0  0
 15 34  1  0  0  0  0
 15 35  1  0  0  0  0
 15 36  1  0  0  0  0
 16 17  1  0  0  0  0
 16 37  1  0  0  0  0
 17 18  1  0  0  0  0
 17 19  2  0  0  0  0
 18 38  1  0  0  0  0
 18 39  1  0  0  0  0
 18 40  1  0  0  0  0
M  END
> <s_m_source_file>
AV-unprocessed.smi

> <i_m_source_file_index>
2228

> <i_lp_mmshare_version>
43012

> <i_f3d_flags>
0

> <s_epik_input>
W0NIM11PW0NAQEhdMVtDSDJdW0NIMl1bQ0gyXVtDQEhdMVtOSF1DKD1PKVtOSF1jMltjSF1jKFtDSDNdKVtjSF1jKG4yKVtDSDNd

> <s_epik_cmdline>
J2VwaWtfcHl0aG9uJywgJy1waCcsICc3LjAnLCAnLXRuJywgJzgnLCAnLW1hJywgJzIwMCcsICctbWV0YWxfYmluZGluZycsICctaW1hZScsICc8aW5maWxlLm1hZT4nLCAnLW9tYWUnLCAnPG91dGZpbGUubWFlPic=

> <r_lp_tautomer_probability>
1

> <r_epik_Ionization_Penalty>
0.000275391

> <r_epik_Ionization_Penalty_Charging>
0

> <r_epik_Ionization_Penalty_Neutral>
0.000275391

> <r_epik_State_Penalty>
-0

> <r_epik_Charging_Adjusted_Penalty>
0

> <i_epik_Tot_Q>
0

> <i_epik_Tot_abs_Q>
0

> <r_epik_Metal_State_Penalty>
-0

> <b_epik_Metal_Only>
0

> <s_lp_Force_Field>
OPLS_2005

> <r_lp_Energy>
22.5383

> <b_lp_Chiralities_Consistent>
1

> <s_lp_Variant>
AV-unprocessed.smi:2228-3

> <Gold.Version>
5.8.1

> <Gold.Id.Protein>
6NUR|6NUR_protein|mol2

> <Gold.PLP.Fitness>
43.5788

> <Gold.PLP.PLP>
-39.7818

> <Gold.PLP.part.hbond>
-2.0000

> <Gold.PLP.part.metal>
0.0000

> <Gold.PLP.part.buried>
-3.2226

> <Gold.PLP.part.nonpolar>
-35.6288

> <Gold.PLP.part.repulsive>
0.3965

> <Gold.PLP.ligand.clash>
0.0000

> <Gold.PLP.ligand.torsion>
0.4278

> <Gold.PLP.Chemscore.Hbond>
1.5460

> <Gold.PLP.Chemscore.CHOScore>
0.0000

> <Gold.PLP.Chemscore.Metal>
0.0000

> <Gold.Chemscore.Hbonds>
donor molecule, donor type, donor heavy atom, donor atom, acceptor molecule, acceptor atom, score
      L1  H     8    31       P1  8028  0.56
      L1  H    11    32       P1  8028  0.82

> <Gold.PLP.Chemscore.Internal.Correction>
0.0146

> <Gold.Rescore>
     Score         DG    S(hbond)    S(metal)    S(lipo)     H(rot)  DE(clash)    DE(int)     intcor
     13.72     -19.65       1.72        0.00      98.39       1.21       0.44       5.49       ----

> <Gold.Chemscore.Fitness>
13.7216

> <Gold.Chemscore.DG>
-19.6476

> <Gold.Chemscore.ZeroCoef>
-5.4800

> <Gold.Chemscore.Hbond>
1.7240

> <Gold.Chemscore.Metal>
0.0000

> <Gold.Chemscore.Lipo>
98.3943

> <Gold.Chemscore.Internal_Hbond>
0.0000

> <Gold.Chemscore.DEClash>
0.4405

> <Gold.Chemscore.DEInternal>
5.4855

> <Gold.Chemscore.Rot>
1.2119

> <Gold.Chemscore.Internal.Correction>
   9.000000E+99

> <Gold.Chemscore.Hbonds>
donor molecule, donor type, donor heavy atom, donor atom, acceptor molecule, acceptor atom, score
      L1  H     8    31       P1  8028  0.55
      L1  H    11    32       P1  8028  0.81

> <Gold.Chemscore.Hbond.Weighted>
-5.7581

> <Gold.Chemscore.Metal.Weighted>
-0.0000

> <Gold.Chemscore.Lipo.Weighted>
-11.5121

> <Gold.Chemscore.Internal_Hbond.Weighted>
0.0000

> <Gold.Chemscore.DEClash.Weighted>
0.4405

> <Gold.Chemscore.DEInternal.Weighted>
5.4855

> <Gold.Chemscore.Rot.Weighted>
3.1026

> <Gold.Chemscore.Internal.Correction.Weighted>
   9.000000E+99

> <Gold.Protein.RotatedTorsions>
[ 6907 6896 6895 6894 ] final   97.01 input  -60.11 | X-H torsion
[ 7974 7965 7964 7962 ] final   48.72 input  175.53 | X-H torsion
[ 8008 7997 7996 7995 ] final  144.55 input   59.86 | X-H torsion
[ 10167 10162 10161 10158 ] final  -77.23 input  -65.29 | X-H torsion
[ 10718 10713 10712 10709 ] final   93.78 input   66.30 | X-H torsion
[ 10763 10752 10751 10750 ] final   60.53 input  -60.55 | X-H torsion
[ 11005 11000 10999 10996 ] final  119.98 input  -57.11 | X-H torsion

> <Gold.Protein.ActiveResidues>
 VAL166  LYS551  ARG553  GLY616  TRP617  ASP618  TYR619  PRO620  LYS621  CYS622 
 ASP623  PHE694  ASN695  SER759  ASP760  ASP761  ALA762  ILE779  LEU786  VAL792 
 PHE793  MET794  SER795  GLU796  ALA797  LYS798  CYS799  TRP800  GLU811  SER814 

> <Gold.Protein.RotatedAtoms>
  152.5428  134.0798  159.8230 H   0  0  0  0  0  0  0  0  0  0  0  0  # atno 6907 bound_to 6896
  151.0901  133.5315  159.2623 H   0  0  0  0  0  0  0  0  0  0  0  0  # atno 6908 bound_to 6896
  151.2109  135.0489  159.8965 H   0  0  0  0  0  0  0  0  0  0  0  0  # atno 6909 bound_to 6896
  146.0178  139.4616  142.9916 H   0  0  0  0  0  0  0  0  0  0  0  0  # atno 7974 bound_to 7965
  156.2905  140.2233  156.5071 H   0  0  0  0  0  0  0  0  0  0  0  0  # atno 8008 bound_to 7997
  154.7640  140.0471  157.1018 H   0  0  0  0  0  0  0  0  0  0  0  0  # atno 8009 bound_to 7997
  154.9956  140.3095  155.4891 H   0  0  0  0  0  0  0  0  0  0  0  0  # atno 8010 bound_to 7997
  140.4788  143.2407  151.8090 H   0  0  0  0  0  0  0  0  0  0  0  0  # atno 10167 bound_to 10162
  157.6952  131.0490  150.4087 H   0  0  0  0  0  0  0  0  0  0  0  0  # atno 10718 bound_to 10713
  152.9924  135.5533  154.5889 H   0  0  0  0  0  0  0  0  0  0  0  0  # atno 10763 bound_to 10752
  154.5255  135.2810  155.1228 H   0  0  0  0  0  0  0  0  0  0  0  0  # atno 10764 bound_to 10752
  154.2564  135.6389  153.5311 H   0  0  0  0  0  0  0  0  0  0  0  0  # atno 10765 bound_to 10752
  139.9167  134.9632  156.7737 H   0  0  0  0  0  0  0  0  0  0  0  0  # atno 11005 bound_to 11000
  145.7242  141.0065  143.1386 LP  0  0  0  0  0  0  0  0  0  0  0  0  # atno 17320 bound_to 7965
  144.6977  139.8906  143.7453 LP  0  0  0  0  0  0  0  0  0  0  0  0  # atno 17321 bound_to 7965
  139.4830  144.4799  151.9320 LP  0  0  0  0  0  0  0  0  0  0  0  0  # atno 17342 bound_to 10162
  140.3884  144.2647  150.5902 LP  0  0  0  0  0  0  0  0  0  0  0  0  # atno 17343 bound_to 10162
  156.4473  130.4004  149.6658 LP  0  0  0  0  0  0  0  0  0  0  0  0  # atno 17370 bound_to 10713
  156.3821  130.7584  151.2578 LP  0  0  0  0  0  0  0  0  0  0  0  0  # atno 17371 bound_to 10713
  140.6600  133.9654  155.7800 LP  0  0  0  0  0  0  0  0  0  0  0  0  # atno 17394 bound_to 11000
  141.0650  134.0290  157.3606 LP  0  0  0  0  0  0  0  0  0  0  0  0  # atno 17395 bound_to 11000

$$$$
