AV-unprocessed.smi:2424|AV-procd|sdf|9563|dock1
  -GOLD-   2272013193D 1   1.00000     0.00000
 Structure written by MMmdl.
 50 51  0  0  0  0  0  0  0  0  1 V2000
  150.7001  139.3178  154.6834 C   0  0  0  0  0  0  0  0  0  0  0  0
  149.4944  138.9990  153.7831 C   0  0  0  0  0  0  0  0  0  0  0  0
  148.1720  139.6893  154.1943 C   0  0  0  0  0  0  0  0  0  0  0  0
  148.3843  141.2272  154.2091 C   0  0  0  0  0  0  0  0  0  0  0  0
  147.1127  142.0946  154.2678 C   0  0  0  0  0  0  0  0  0  0  0  0
  146.8781  139.2664  153.4346 C   0  0  1  0  0  0  0  0  0  0  0  0
  146.9384  137.9163  152.8661 N   0  0  0  0  0  0  0  0  0  0  0  0
  145.9008  137.2416  152.3537 C   0  0  0  0  0  0  0  0  0  0  0  0
  144.7601  137.6990  152.2921 O   0  0  0  0  0  0  0  0  0  0  0  0
  146.2875  136.0223  151.9352 N   0  0  0  0  0  0  0  0  0  0  0  0
  145.5329  135.0173  151.3128 C   0  0  0  0  0  0  0  0  0  0  0  0
  144.1922  135.0297  151.1529 C   0  0  0  0  0  0  0  0  0  0  0  0
  143.5293  133.9825  150.5075 N   0  0  0  0  0  0  0  0  0  0  0  0
  144.1427  132.8921  149.9934 C   0  0  0  0  0  0  0  0  0  0  0  0
  143.4879  132.0110  149.4392 O   0  0  0  0  0  0  0  0  0  0  0  0
  145.6056  132.8574  150.1504 C   0  0  0  0  0  0  0  0  0  0  0  0
  146.3577  131.6615  149.5948 C   0  0  0  0  0  0  0  0  0  0  0  0
  146.2442  133.8721  150.7766 C   0  0  0  0  0  0  0  0  0  0  0  0
  146.1084  139.2764  154.7676 C   0  0  1  0  0  0  0  0  0  0  0  0
  144.9802  138.2782  155.0200 C   0  0  0  0  0  0  0  0  0  0  0  0
  147.4749  139.0877  155.4450 C   0  0  2  0  0  0  0  0  0  0  0  0
  147.6595  139.8486  156.6286 O   0  0  0  0  0  0  0  0  0  0  0  0
  148.9839  139.7954  157.1285 C   0  0  0  0  0  0  0  0  0  0  0  0
  142.5256  134.0573  150.4266 H   0  0  0  0  0  0  0  0  0  0  0  0
  151.6096  138.8767  154.2755 H   0  0  0  0  0  0  0  0  0  0  0  0
  150.5726  138.9187  155.6891 H   0  0  0  0  0  0  0  0  0  0  0  0
  150.8662  140.3909  154.7696 H   0  0  0  0  0  0  0  0  0  0  0  0
  149.7587  139.2773  152.7628 H   0  0  0  0  0  0  0  0  0  0  0  0
  149.3629  137.9187  153.7291 H   0  0  0  0  0  0  0  0  0  0  0  0
  149.0326  141.5058  155.0402 H   0  0  0  0  0  0  0  0  0  0  0  0
  148.9390  141.5321  153.3219 H   0  0  0  0  0  0  0  0  0  0  0  0
  147.3657  143.1468  154.1367 H   0  0  0  0  0  0  0  0  0  0  0  0
  146.6066  142.0096  155.2289 H   0  0  0  0  0  0  0  0  0  0  0  0
  146.3988  141.8326  153.4883 H   0  0  0  0  0  0  0  0  0  0  0  0
  146.5163  140.0284  152.7417 H   0  0  0  0  0  0  0  0  0  0  0  0
  147.8407  137.4642  152.8721 H   0  0  0  0  0  0  0  0  0  0  0  0
  147.2569  135.7862  152.0882 H   0  0  0  0  0  0  0  0  0  0  0  0
  143.5203  135.8081  151.4781 H   0  0  0  0  0  0  0  0  0  0  0  0
  147.4307  131.7500  149.7675 H   0  0  0  0  0  0  0  0  0  0  0  0
  146.1949  131.5750  148.5201 H   0  0  0  0  0  0  0  0  0  0  0  0
  146.0146  130.7421  150.0703 H   0  0  0  0  0  0  0  0  0  0  0  0
  147.3187  133.8299  150.8839 H   0  0  0  0  0  0  0  0  0  0  0  0
  145.7502  140.2910  154.9493 H   0  0  0  0  0  0  0  0  0  0  0  0
  145.3446  137.2510  155.0406 H   0  0  0  0  0  0  0  0  0  0  0  0
  144.2181  138.3434  154.2433 H   0  0  0  0  0  0  0  0  0  0  0  0
  144.4880  138.4681  155.9735 H   0  0  0  0  0  0  0  0  0  0  0  0
  147.7304  138.0344  155.5823 H   0  0  0  0  0  0  0  0  0  0  0  0
  149.0685  140.4408  158.0028 H   0  0  0  0  0  0  0  0  0  0  0  0
  149.7022  140.1424  156.3846 H   0  0  0  0  0  0  0  0  0  0  0  0
  149.2547  138.7851  157.4341 H   0  0  0  0  0  0  0  0  0  0  0  0
  1  2  1  0  0  0  0
  1 25  1  0  0  0  0
  1 26  1  0  0  0  0
  1 27  1  0  0  0  0
  2  3  1  0  0  0  0
  2 28  1  0  0  0  0
  2 29  1  0  0  0  0
  3 21  1  0  0  0  0
  3  4  1  0  0  0  0
  3  6  1  0  0  0  0
  4  5  1  0  0  0  0
  4 30  1  0  0  0  0
  4 31  1  0  0  0  0
  5 32  1  0  0  0  0
  5 33  1  0  0  0  0
  5 34  1  0  0  0  0
  6  7  1  0  0  0  0
  6 19  1  0  0  0  0
  6 35  1  0  0  0  0
  7  8  1  0  0  0  0
  7 36  1  0  0  0  0
  8  9  2  0  0  0  0
  8 10  1  0  0  0  0
 10 11  1  0  0  0  0
 10 37  1  0  0  0  0
 11 18  1  0  0  0  0
 11 12  2  0  0  0  0
 12 13  1  0  0  0  0
 12 38  1  0  0  0  0
 13 24  1  0  0  0  0
 13 14  1  0  0  0  0
 14 15  2  0  0  0  0
 14 16  1  0  0  0  0
 16 17  1  0  0  0  0
 16 18  2  0  0  0  0
 17 39  1  0  0  0  0
 17 40  1  0  0  0  0
 17 41  1  0  0  0  0
 18 42  1  0  0  0  0
 19 20  1  0  0  0  0
 19 21  1  0  0  0  0
 19 43  1  0  0  0  0
 20 44  1  0  0  0  0
 20 45  1  0  0  0  0
 20 46  1  0  0  0  0
 21 22  1  0  0  0  0
 21 47  1  0  0  0  0
 22 23  1  0  0  0  0
 23 48  1  0  0  0  0
 23 49  1  0  0  0  0
 23 50  1  0  0  0  0
M  END
> <s_m_source_file>
AV-unprocessed.smi

> <i_m_source_file_index>
2424

> <i_lp_mmshare_version>
43012

> <i_f3d_flags>
0

> <s_epik_input>
W0NIM11PW0NAQEhdMVtDQEhdKFtDSDNdKVtDQEBIXShDMShbQ0gyXVtDSDNdKVtDSDJdW0NIM10pW05IXUMoPU8pW05IXWMyW2NIXVtuSF1jKD1PKWMoW0NIM10pW2NIXTI=

> <s_epik_cmdline>
J2VwaWtfcHl0aG9uJywgJy1waCcsICc3LjAnLCAnLXRuJywgJzgnLCAnLW1hJywgJzIwMCcsICctbWV0YWxfYmluZGluZycsICctaW1hZScsICc8aW5maWxlLm1hZT4nLCAnLW9tYWUnLCAnPG91dGZpbGUubWFlPic=

> <r_lp_tautomer_probability>
1

> <r_epik_Ionization_Penalty>
4.7326e-05

> <r_epik_Ionization_Penalty_Charging>
2.70169e-05

> <r_epik_Ionization_Penalty_Neutral>
2.0309e-05

> <r_epik_State_Penalty>
-0

> <r_epik_Charging_Adjusted_Penalty>
2.70169e-05

> <i_epik_Tot_Q>
0

> <i_epik_Tot_abs_Q>
0

> <r_epik_Metal_State_Penalty>
0.0198736

> <b_epik_Metal_Only>
0

> <s_lp_Force_Field>
OPLS_2005

> <r_lp_Energy>
37.0133

> <b_lp_Chiralities_Consistent>
1

> <s_lp_Variant>
AV-unprocessed.smi:2424-5

> <Gold.Version>
5.8.1

> <Gold.Id.Protein>
6NUR|6NUR_protein|mol2

> <Gold.PLP.Fitness>
45.5960

> <Gold.PLP.PLP>
-34.4689

> <Gold.PLP.part.hbond>
-4.0000

> <Gold.PLP.part.metal>
0.0000

> <Gold.PLP.part.buried>
-1.6928

> <Gold.PLP.part.nonpolar>
-32.8848

> <Gold.PLP.part.repulsive>
3.8705

> <Gold.PLP.ligand.clash>
0.0000

> <Gold.PLP.ligand.torsion>
0.4291

> <Gold.PLP.Chemscore.Hbond>
3.7760

> <Gold.PLP.Chemscore.CHOScore>
0.0000

> <Gold.PLP.Chemscore.Metal>
0.0000

> <Gold.Chemscore.Hbonds>
donor molecule, donor type, donor heavy atom, donor atom, acceptor molecule, acceptor atom, score
      L1  H     7    36       P1  7948  0.85
      L1  H    10    37       P1  7948  0.94
      L1  H    13    24       P1 10186  1.00
      P1  H 10785 10796       L1    15  1.00

> <Gold.PLP.Chemscore.Internal.Correction>
0.6574

> <Gold.Rescore>
     Score         DG    S(hbond)    S(metal)    S(lipo)     H(rot)  DE(clash)    DE(int)     intcor
     16.50     -22.85       3.54        0.00      81.18       1.55       1.41       4.94       ----

> <Gold.Chemscore.Fitness>
16.4959

> <Gold.Chemscore.DG>
-22.8480

> <Gold.Chemscore.ZeroCoef>
-5.4800

> <Gold.Chemscore.Hbond>
3.5445

> <Gold.Chemscore.Metal>
0.0000

> <Gold.Chemscore.Lipo>
81.1789

> <Gold.Chemscore.Internal_Hbond>
0.0000

> <Gold.Chemscore.DEClash>
1.4149

> <Gold.Chemscore.DEInternal>
4.9373

> <Gold.Chemscore.Rot>
1.5502

> <Gold.Chemscore.Internal.Correction>
   9.000000E+99

> <Gold.Chemscore.Hbonds>
donor molecule, donor type, donor heavy atom, donor atom, acceptor molecule, acceptor atom, score
      L1  H     7    36       P1  7948  0.83
      L1  H    10    37       P1  7948  0.91
      L1  H    13    24       P1 10186  0.83
      P1  H 10785 10796       L1    15  0.89

> <Gold.Chemscore.Hbond.Weighted>
-11.8386

> <Gold.Chemscore.Metal.Weighted>
-0.0000

> <Gold.Chemscore.Lipo.Weighted>
-9.4979

> <Gold.Chemscore.Internal_Hbond.Weighted>
0.0000

> <Gold.Chemscore.DEClash.Weighted>
1.4149

> <Gold.Chemscore.DEInternal.Weighted>
4.9373

> <Gold.Chemscore.Rot.Weighted>
3.9685

> <Gold.Chemscore.Internal.Correction.Weighted>
   9.000000E+99

> <Gold.Protein.RotatedTorsions>
[ 6907 6896 6895 6894 ] final -112.18 input  -60.11 | X-H torsion
[ 7974 7965 7964 7962 ] final   65.14 input  175.53 | X-H torsion
[ 8008 7997 7996 7995 ] final -173.00 input   59.86 | X-H torsion
[ 10167 10162 10161 10158 ] final -161.77 input  -65.29 | X-H torsion
[ 10718 10713 10712 10709 ] final -114.00 input   66.30 | X-H torsion
[ 10763 10752 10751 10750 ] final -159.36 input  -60.55 | X-H torsion
[ 11005 11000 10999 10996 ] final  -31.16 input  -57.11 | X-H torsion

> <Gold.Protein.ActiveResidues>
 VAL166  LYS551  ARG553  GLY616  TRP617  ASP618  TYR619  PRO620  LYS621  CYS622 
 ASP623  PHE694  ASN695  SER759  ASP760  ASP761  ALA762  ILE779  LEU786  VAL792 
 PHE793  MET794  SER795  GLU796  ALA797  LYS798  CYS799  TRP800  GLU811  SER814 

> <Gold.Protein.RotatedAtoms>
  150.7740  133.9128  159.3374 H   0  0  0  0  0  0  0  0  0  0  0  0  # atno 6907 bound_to 6896
  151.7007  135.0928  160.0260 H   0  0  0  0  0  0  0  0  0  0  0  0  # atno 6908 bound_to 6896
  152.3769  133.6455  159.6166 H   0  0  0  0  0  0  0  0  0  0  0  0  # atno 6909 bound_to 6896
  145.8420  139.3201  143.0926 H   0  0  0  0  0  0  0  0  0  0  0  0  # atno 7974 bound_to 7965
  155.9518  140.1128  157.0970 H   0  0  0  0  0  0  0  0  0  0  0  0  # atno 8008 bound_to 7997
  154.4111  140.1199  156.5129 H   0  0  0  0  0  0  0  0  0  0  0  0  # atno 8009 bound_to 7997
  155.6832  140.3473  155.4866 H   0  0  0  0  0  0  0  0  0  0  0  0  # atno 8010 bound_to 7997
  139.6440  144.0206  152.2113 H   0  0  0  0  0  0  0  0  0  0  0  0  # atno 10167 bound_to 10162
  156.0802  130.6003  150.8717 H   0  0  0  0  0  0  0  0  0  0  0  0  # atno 10718 bound_to 10713
  154.7481  135.3085  154.8607 H   0  0  0  0  0  0  0  0  0  0  0  0  # atno 10763 bound_to 10752
  153.9402  135.6775  153.4748 H   0  0  0  0  0  0  0  0  0  0  0  0  # atno 10764 bound_to 10752
  153.1077  135.4881  154.8908 H   0  0  0  0  0  0  0  0  0  0  0  0  # atno 10765 bound_to 10752
  140.9444  133.7259  156.1125 H   0  0  0  0  0  0  0  0  0  0  0  0  # atno 11005 bound_to 11000
  145.9455  140.8948  143.0286 LP  0  0  0  0  0  0  0  0  0  0  0  0  # atno 17320 bound_to 7965
  144.6733  140.1607  143.7422 LP  0  0  0  0  0  0  0  0  0  0  0  0  # atno 17321 bound_to 7965
  139.9903  144.6366  150.7820 LP  0  0  0  0  0  0  0  0  0  0  0  0  # atno 17342 bound_to 10162
  140.7505  143.2957  151.3211 LP  0  0  0  0  0  0  0  0  0  0  0  0  # atno 17343 bound_to 10162
  157.5916  131.0944  150.9110 LP  0  0  0  0  0  0  0  0  0  0  0  0  # atno 17370 bound_to 10713
  156.9284  130.5341  149.5279 LP  0  0  0  0  0  0  0  0  0  0  0  0  # atno 17371 bound_to 10713
  140.7689  134.3855  157.5511 LP  0  0  0  0  0  0  0  0  0  0  0  0  # atno 17394 bound_to 11000
  139.8829  134.9009  156.2799 LP  0  0  0  0  0  0  0  0  0  0  0  0  # atno 17395 bound_to 11000

$$$$
