AV-unprocessed.smi:39|AV-procd|sdf|363|dock2
  -GOLD-   2262016203D 1   1.00000     0.00000
 Structure written by MMmdl.
 31 32  0  0  0  0  0  0  0  0  4 V2000
  151.8262  145.1314  158.6533 C   0  0  0  0  0  0  0  0  0  0  0  0
  151.7039  143.6185  158.7027 C   0  0  0  0  0  0  0  0  0  0  0  0
  151.1517  142.9066  157.6954 C   0  0  0  0  0  0  0  0  0  0  0  0
  151.0400  141.5270  157.7447 N   0  0  0  0  0  0  0  0  0  0  0  0
  150.4141  140.7463  156.6064 C   0  0  1  0  0  0  0  0  0  0  0  0
  149.1742  139.9922  157.0945 C   0  0  0  0  0  0  0  0  0  0  0  0
  148.0838  141.0006  156.8031 C   0  0  2  0  0  0  0  0  0  0  0  0
  146.7481  140.4001  156.7599 N   0  0  0  0  0  0  0  0  0  0  0  0
  146.3366  139.9049  157.8171 N   0  3  0  0  0  0  0  0  0  0  0  0
  145.9400  139.3461  158.7257 N   0  5  0  0  0  0  0  0  0  0  0  0
  148.5667  141.6257  155.4795 C   0  0  2  0  0  0  0  0  0  0  0  0
  148.2345  140.8217  154.2031 C   0  0  0  0  0  0  0  0  0  0  0  0
  149.1993  141.0864  153.2071 O   0  0  0  0  0  0  0  0  0  0  0  0
  149.9905  141.6358  155.6110 O   0  0  0  0  0  0  0  0  0  0  0  0
  151.5039  140.8283  158.8901 C   0  0  0  0  0  0  0  0  0  0  0  0
  151.3715  139.6042  158.9142 O   0  0  0  0  0  0  0  0  0  0  0  0
  152.0662  141.5376  159.9098 N   0  5  0  0  0  0  0  0  0  0  0  0
  152.1961  142.8951  159.8810 C   0  0  0  0  0  0  0  0  0  0  0  0
  152.7086  143.5228  160.8071 O   0  0  0  0  0  0  0  0  0  0  0  0
  151.2034  140.1026  156.2146 H   0  0  0  0  0  0  0  0  0  0  0  0
  148.1223  141.7640  157.5830 H   0  0  0  0  0  0  0  0  0  0  0  0
  148.1844  142.6437  155.3909 H   0  0  0  0  0  0  0  0  0  0  0  0
  151.4252  145.5317  157.7216 H   0  0  0  0  0  0  0  0  0  0  0  0
  152.8720  145.4316  158.7269 H   0  0  0  0  0  0  0  0  0  0  0  0
  151.2778  145.5850  159.4794 H   0  0  0  0  0  0  0  0  0  0  0  0
  150.7850  143.4410  156.8321 H   0  0  0  0  0  0  0  0  0  0  0  0
  149.0528  139.0917  156.4911 H   0  0  0  0  0  0  0  0  0  0  0  0
  149.2459  139.7064  158.1444 H   0  0  0  0  0  0  0  0  0  0  0  0
  148.1842  139.7511  154.4032 H   0  0  0  0  0  0  0  0  0  0  0  0
  147.2721  141.1166  153.7865 H   0  0  0  0  0  0  0  0  0  0  0  0
  149.0920  140.4571  152.5103 H   0  0  0  0  0  0  0  0  0  0  0  0
  1  2  1  0  0  0  0
  1 23  1  0  0  0  0
  1 24  1  0  0  0  0
  1 25  1  0  0  0  0
  2 18  1  0  0  0  0
  2  3  2  0  0  0  0
  3  4  1  0  0  0  0
  3 26  1  0  0  0  0
  4  5  1  0  0  0  0
  4 15  1  0  0  0  0
  5 20  1  0  0  0  0
  5 14  1  0  0  0  0
  5  6  1  0  0  0  0
  6  7  1  0  0  0  0
  6 27  1  0  0  0  0
  6 28  1  0  0  0  0
  7 21  1  0  0  0  0
  7  8  1  0  0  0  0
  7 11  1  0  0  0  0
  8  9  2  0  0  0  0
  9 10  2  0  0  0  0
 11 22  1  0  0  0  0
 11 12  1  0  0  0  0
 11 14  1  0  0  0  0
 12 13  1  0  0  0  0
 12 29  1  0  0  0  0
 12 30  1  0  0  0  0
 13 31  1  0  0  0  0
 15 16  2  0  0  0  0
 15 17  1  0  0  0  0
 17 18  1  0  0  0  0
 18 19  2  0  0  0  0
M  CHG  1   9   1
M  CHG  1  10  -1
M  CHG  1  17  -1
M  END
> <s_m_source_file>
AV-unprocessed.smi

> <i_m_source_file_index>
39

> <i_lp_mmshare_version>
43012

> <i_f3d_flags>
0

> <s_epik_input>
Tz1jMVtuSF1jKD1PKW4oW2NIXWMxW0NIM10pW0NASF0yW0NIMl1bQ0BIXShOPVtOK109W04tXSlbQ0BIXShPMilbQ0gyXVtPSF0=

> <s_epik_cmdline>
J2VwaWtfcHl0aG9uJywgJy1waCcsICc3LjAnLCAnLXRuJywgJzgnLCAnLW1hJywgJzIwMCcsICctbWV0YWxfYmluZGluZycsICctaW1hZScsICc8aW5maWxlLm1hZT4nLCAnLW9tYWUnLCAnPG91dGZpbGUubWFlPic=

> <r_lp_tautomer_probability>
0.999537

> <r_epik_Ionization_Penalty>
3.6393

> <r_epik_Ionization_Penalty_Charging>
9.76484e-08

> <r_epik_Ionization_Penalty_Neutral>
3.6393

> <r_epik_State_Penalty>
3.63887

> <r_epik_Charging_Adjusted_Penalty>
3.63887

> <i_epik_Tot_Q>
-1

> <i_epik_Tot_abs_Q>
3

> <r_epik_Metal_State_Penalty>
0.225911

> <b_epik_Metal_Only>
1

> <s_epik_Chemistry_Notes>
This compound contains an acetal/aminal-like group ( X-CH(R)-Y where X, Y are N, S, or O) that may be acid/base labile, releasing an aldehyde.

> <s_lp_Force_Field>
OPLS_2005

> <r_lp_Energy>
35.706

> <b_lp_Chiralities_Consistent>
1

> <s_lp_Variant>
AV-unprocessed.smi:39-13

> <Gold.Version>
5.8.1

> <Gold.Id.Protein>
6NUR|6NUR_protein|mol2

> <Gold.PLP.Fitness>
38.8145

> <Gold.PLP.PLP>
-31.0801

> <Gold.PLP.part.hbond>
-3.3408

> <Gold.PLP.part.metal>
0.0000

> <Gold.PLP.part.buried>
-5.4722

> <Gold.PLP.part.nonpolar>
-22.6795

> <Gold.PLP.part.repulsive>
0.1587

> <Gold.PLP.ligand.clash>
0.0000

> <Gold.PLP.ligand.torsion>
0.2968

> <Gold.PLP.Chemscore.Hbond>
1.8315

> <Gold.PLP.Chemscore.CHOScore>
0.9349

> <Gold.PLP.Chemscore.Metal>
0.0000

> <Gold.Chemscore.Hbonds>
donor molecule, donor type, donor heavy atom, donor atom, acceptor molecule, acceptor atom, score
      L1  H    13    31       P1  7957  0.80
      P1  H  7989  7998       L1    13  0.01
      P1  H  8011  8017       L1    13  1.00
      L1  C     3    26       P1  8028  0.93

> <Gold.PLP.Chemscore.Internal.Correction>
0.0288

> <Gold.Rescore>
     Score         DG    S(hbond)    S(metal)    S(lipo)     H(rot)  DE(clash)    DE(int)     intcor
      7.73      -9.71       1.45        0.00      54.26       2.72       0.13       1.85       ----

> <Gold.Chemscore.Fitness>
7.7322

> <Gold.Chemscore.DG>
-9.7117

> <Gold.Chemscore.ZeroCoef>
-5.4800

> <Gold.Chemscore.Hbond>
1.4475

> <Gold.Chemscore.Metal>
0.0000

> <Gold.Chemscore.Lipo>
54.2592

> <Gold.Chemscore.Internal_Hbond>
0.0000

> <Gold.Chemscore.DEClash>
0.1345

> <Gold.Chemscore.DEInternal>
1.8451

> <Gold.Chemscore.Rot>
2.7153

> <Gold.Chemscore.Internal.Correction>
   9.000000E+99

> <Gold.Chemscore.Hbonds>
donor molecule, donor type, donor heavy atom, donor atom, acceptor molecule, acceptor atom, score
      L1  H    13    31       P1  7957  0.77
      P1  H  8011  8017       L1    13  0.25

> <Gold.Chemscore.Hbond.Weighted>
-4.8346

> <Gold.Chemscore.Metal.Weighted>
-0.0000

> <Gold.Chemscore.Lipo.Weighted>
-6.3483

> <Gold.Chemscore.Internal_Hbond.Weighted>
0.0000

> <Gold.Chemscore.DEClash.Weighted>
0.1345

> <Gold.Chemscore.DEInternal.Weighted>
1.8451

> <Gold.Chemscore.Rot.Weighted>
6.9512

> <Gold.Chemscore.Internal.Correction.Weighted>
   9.000000E+99

> <Gold.Protein.RotatedTorsions>
[ 6907 6896 6895 6894 ] final -120.10 input  -60.11 | X-H torsion
[ 7974 7965 7964 7962 ] final   -6.02 input  175.53 | X-H torsion
[ 8008 7997 7996 7995 ] final -138.72 input   59.86 | X-H torsion
[ 10167 10162 10161 10158 ] final  113.86 input  -65.29 | X-H torsion
[ 10718 10713 10712 10709 ] final -161.47 input   66.30 | X-H torsion
[ 10763 10752 10751 10750 ] final  125.82 input  -60.55 | X-H torsion
[ 11005 11000 10999 10996 ] final  -20.54 input  -57.11 | X-H torsion

> <Gold.Protein.ActiveResidues>
 VAL166  LYS551  ARG553  GLY616  TRP617  ASP618  TYR619  PRO620  LYS621  CYS622 
 ASP623  PHE694  ASN695  SER759  ASP760  ASP761  ALA762  ILE779  LEU786  VAL792 
 PHE793  MET794  SER795  GLU796  ALA797  LYS798  CYS799  TRP800  GLU811  SER814 

> <Gold.Protein.RotatedAtoms>
  150.8364  133.8007  159.3077 H   0  0  0  0  0  0  0  0  0  0  0  0  # atno 6907 bound_to 6896
  151.5722  135.1060  160.0007 H   0  0  0  0  0  0  0  0  0  0  0  0  # atno 6908 bound_to 6896
  152.4435  133.7451  159.6719 H   0  0  0  0  0  0  0  0  0  0  0  0  # atno 6909 bound_to 6896
  146.2340  140.2107  142.8335 H   0  0  0  0  0  0  0  0  0  0  0  0  # atno 7974 bound_to 7965
  155.4330  140.0526  157.3017 H   0  0  0  0  0  0  0  0  0  0  0  0  # atno 8008 bound_to 7997
  154.4851  140.2097  155.9631 H   0  0  0  0  0  0  0  0  0  0  0  0  # atno 8009 bound_to 7997
  156.1263  140.3179  155.8288 H   0  0  0  0  0  0  0  0  0  0  0  0  # atno 8010 bound_to 7997
  139.6431  144.7125  151.2198 H   0  0  0  0  0  0  0  0  0  0  0  0  # atno 10167 bound_to 10162
  156.5967  130.8793  151.2903 H   0  0  0  0  0  0  0  0  0  0  0  0  # atno 10718 bound_to 10713
  153.6835  135.3310  155.3184 H   0  0  0  0  0  0  0  0  0  0  0  0  # atno 10763 bound_to 10752
  154.8459  135.4414  154.1582 H   0  0  0  0  0  0  0  0  0  0  0  0  # atno 10764 bound_to 10752
  153.2604  135.6990  153.7661 H   0  0  0  0  0  0  0  0  0  0  0  0  # atno 10765 bound_to 10752
  140.8474  133.7881  155.9928 H   0  0  0  0  0  0  0  0  0  0  0  0  # atno 11005 bound_to 11000
  144.9708  140.8367  143.5456 LP  0  0  0  0  0  0  0  0  0  0  0  0  # atno 17320 bound_to 7965
  145.2089  139.2214  143.5153 LP  0  0  0  0  0  0  0  0  0  0  0  0  # atno 17321 bound_to 7965
  140.7501  143.6278  150.8452 LP  0  0  0  0  0  0  0  0  0  0  0  0  # atno 17342 bound_to 10162
  139.9918  143.5839  152.2907 LP  0  0  0  0  0  0  0  0  0  0  0  0  # atno 17343 bound_to 10162
  157.7290  130.9665  150.1767 LP  0  0  0  0  0  0  0  0  0  0  0  0  # atno 17370 bound_to 10713
  156.2504  130.3700  149.8239 LP  0  0  0  0  0  0  0  0  0  0  0  0  # atno 17371 bound_to 10713
  140.8828  134.2590  157.5135 LP  0  0  0  0  0  0  0  0  0  0  0  0  # atno 17394 bound_to 11000
  139.8703  134.9623  156.4425 LP  0  0  0  0  0  0  0  0  0  0  0  0  # atno 17395 bound_to 11000

$$$$
