AV-unprocessed.smi:1007|AV-procd|sdf|4398|dock2
  -GOLD-   22720 2333D 1   1.00000     0.00000
 Structure written by MMmdl.
 56 58  0  0  0  0  0  0  0  0  2 V2000
  148.2515  135.4622  160.0483 C   0  0  0  0  0  0  0  0  0  0  0  0
  148.9933  134.7582  159.0642 O   0  0  0  0  0  0  0  0  0  0  0  0
  148.2120  134.2881  157.9750 C   0  0  0  0  0  0  0  0  0  0  0  0
  149.0978  133.7294  156.8457 C   0  0  0  0  0  0  0  0  0  0  0  0
  148.6090  133.9986  155.4898 N   0  0  0  0  0  0  0  0  0  0  0  0
  147.7756  135.1983  155.4167 C   0  0  0  0  0  0  0  0  0  0  0  0
  148.5747  136.5083  155.5770 C   0  0  0  0  0  0  0  0  0  0  0  0
  149.6539  136.5867  154.5558 N   0  3  0  0  0  0  0  0  0  0  0  0
  150.4410  137.8440  154.6191 C   0  0  0  0  0  0  0  0  0  0  0  0
  149.5625  139.0840  154.8983 C   0  0  2  0  0  0  0  0  0  0  0  0
  148.6714  139.2652  153.8163 O   0  0  0  0  0  0  0  0  0  0  0  0
  150.3692  140.3864  155.0661 C   0  0  0  0  0  0  0  0  0  0  0  0
  151.2724  140.3370  156.2012 N   0  0  0  0  0  0  0  0  0  0  0  0
  152.2375  139.4251  156.4277 C   0  0  0  0  0  0  0  0  0  0  0  0
  152.9656  139.5709  157.5306 N   0  0  0  0  0  0  0  0  0  0  0  0
  152.4030  140.7054  158.0894 C   0  0  0  0  0  0  0  0  0  0  0  0
  152.7231  141.3976  159.2776 C   0  0  0  0  0  0  0  0  0  0  0  0
  152.0084  142.5563  159.6563 C   0  0  0  0  0  0  0  0  0  0  0  0
  152.3879  143.2699  160.9420 C   0  0  0  0  0  0  0  0  0  0  0  0
  150.9545  143.0398  158.8399 C   0  0  0  0  0  0  0  0  0  0  0  0
  150.1728  144.2829  159.2266 C   0  0  0  0  0  0  0  0  0  0  0  0
  150.6205  142.3595  157.6503 C   0  0  0  0  0  0  0  0  0  0  0  0
  151.3395  141.2079  157.2839 C   0  0  0  0  0  0  0  0  0  0  0  0
  150.5154  135.3776  154.6102 C   0  0  0  0  0  0  0  0  0  0  0  0
  149.6603  134.1016  154.4751 C   0  0  0  0  0  0  0  0  0  0  0  0
  148.9311  135.8362  160.8141 H   0  0  0  0  0  0  0  0  0  0  0  0
  147.5203  134.8221  160.5415 H   0  0  0  0  0  0  0  0  0  0  0  0
  147.7331  136.3189  159.6162 H   0  0  0  0  0  0  0  0  0  0  0  0
  147.4842  133.5550  158.3245 H   0  0  0  0  0  0  0  0  0  0  0  0
  147.6423  135.1366  157.5944 H   0  0  0  0  0  0  0  0  0  0  0  0
  150.0840  134.1828  156.9534 H   0  0  0  0  0  0  0  0  0  0  0  0
  149.2471  132.6606  156.9892 H   0  0  0  0  0  0  0  0  0  0  0  0
  147.2617  135.2148  154.4546 H   0  0  0  0  0  0  0  0  0  0  0  0
  146.9894  135.1493  156.1711 H   0  0  0  0  0  0  0  0  0  0  0  0
  147.8916  137.3496  155.4693 H   0  0  0  0  0  0  0  0  0  0  0  0
  149.0013  136.5815  156.5783 H   0  0  0  0  0  0  0  0  0  0  0  0
  151.2135  137.7274  155.3801 H   0  0  0  0  0  0  0  0  0  0  0  0
  150.9674  137.9987  153.6759 H   0  0  0  0  0  0  0  0  0  0  0  0
  148.9682  138.9338  155.7990 H   0  0  0  0  0  0  0  0  0  0  0  0
  149.1694  139.5018  153.0482 H   0  0  0  0  0  0  0  0  0  0  0  0
  150.9501  140.5968  154.1670 H   0  0  0  0  0  0  0  0  0  0  0  0
  149.6957  141.2333  155.2055 H   0  0  0  0  0  0  0  0  0  0  0  0
  152.4197  138.6116  155.7403 H   0  0  0  0  0  0  0  0  0  0  0  0
  153.5263  141.0298  159.8993 H   0  0  0  0  0  0  0  0  0  0  0  0
  151.5228  143.3669  161.5979 H   0  0  0  0  0  0  0  0  0  0  0  0
  152.7717  144.2669  160.7246 H   0  0  0  0  0  0  0  0  0  0  0  0
  153.1589  142.7251  161.4874 H   0  0  0  0  0  0  0  0  0  0  0  0
  149.4477  144.5523  158.4582 H   0  0  0  0  0  0  0  0  0  0  0  0
  150.8435  145.1310  159.3640 H   0  0  0  0  0  0  0  0  0  0  0  0
  149.6292  144.1167  160.1568 H   0  0  0  0  0  0  0  0  0  0  0  0
  149.8193  142.7176  157.0210 H   0  0  0  0  0  0  0  0  0  0  0  0
  151.2385  135.4102  153.7945 H   0  0  0  0  0  0  0  0  0  0  0  0
  151.0897  135.3684  155.5376 H   0  0  0  0  0  0  0  0  0  0  0  0
  150.2995  133.2199  154.4956 H   0  0  0  0  0  0  0  0  0  0  0  0
  149.1962  134.0971  153.4878 H   0  0  0  0  0  0  0  0  0  0  0  0
  149.2059  136.5729  153.6505 H   0  0  0  0  0  0  0  0  0  0  0  0
  1  2  1  0  0  0  0
  1 26  1  0  0  0  0
  1 27  1  0  0  0  0
  1 28  1  0  0  0  0
  2  3  1  0  0  0  0
  3  4  1  0  0  0  0
  3 29  1  0  0  0  0
  3 30  1  0  0  0  0
  4  5  1  0  0  0  0
  4 31  1  0  0  0  0
  4 32  1  0  0  0  0
  5 25  1  0  0  0  0
  5  6  1  0  0  0  0
  6  7  1  0  0  0  0
  6 33  1  0  0  0  0
  6 34  1  0  0  0  0
  7  8  1  0  0  0  0
  7 35  1  0  0  0  0
  7 36  1  0  0  0  0
  8  9  1  0  0  0  0
  8 24  1  0  0  0  0
  8 56  1  0  0  0  0
  9 10  1  0  0  0  0
  9 37  1  0  0  0  0
  9 38  1  0  0  0  0
 10 11  1  0  0  0  0
 10 12  1  0  0  0  0
 10 39  1  0  0  0  0
 11 40  1  0  0  0  0
 12 13  1  0  0  0  0
 12 41  1  0  0  0  0
 12 42  1  0  0  0  0
 13 23  1  0  0  0  0
 13 14  1  0  0  0  0
 14 15  2  0  0  0  0
 14 43  1  0  0  0  0
 15 16  1  0  0  0  0
 16 23  2  0  0  0  0
 16 17  1  0  0  0  0
 17 18  2  0  0  0  0
 17 44  1  0  0  0  0
 18 19  1  0  0  0  0
 18 20  1  0  0  0  0
 19 45  1  0  0  0  0
 19 46  1  0  0  0  0
 19 47  1  0  0  0  0
 20 21  1  0  0  0  0
 20 22  2  0  0  0  0
 21 48  1  0  0  0  0
 21 49  1  0  0  0  0
 21 50  1  0  0  0  0
 22 23  1  0  0  0  0
 22 51  1  0  0  0  0
 24 25  1  0  0  0  0
 24 52  1  0  0  0  0
 24 53  1  0  0  0  0
 25 54  1  0  0  0  0
 25 55  1  0  0  0  0
M  CHG  1   8   1
M  END
> <s_m_source_file>
AV-unprocessed.smi

> <i_m_source_file_index>
1007

> <i_lp_mmshare_version>
43012

> <i_f3d_flags>
0

> <s_epik_input>
W0NIM11PW0NIMl1bQ0gyXU4xW0NIMl1bQ0gyXU4oW0NIMl1bQ0gyXTEpW0NIMl1bQ0BIXShbT0hdKVtDSDJdbihbY0hdbjIpYyhjMjMpW2NIXWMoW0NIM10pYyhbY0hdMylbQ0gzXQ==

> <s_epik_cmdline>
J2VwaWtfcHl0aG9uJywgJy1waCcsICc3LjAnLCAnLXRuJywgJzgnLCAnLW1hJywgJzIwMCcsICctbWV0YWxfYmluZGluZycsICctaW1hZScsICc8aW5maWxlLm1hZT4nLCAnLW9tYWUnLCAnPG91dGZpbGUubWFlPic=

> <r_epik_Ionization_Penalty>
0.102698

> <r_epik_Ionization_Penalty_Charging>
0.00226046

> <r_epik_Ionization_Penalty_Neutral>
0.100438

> <r_epik_State_Penalty>
0.191223

> <r_epik_Charging_Adjusted_Penalty>
0.193484

> <i_epik_Tot_Q>
1

> <i_epik_Tot_abs_Q>
1

> <r_epik_Metal_State_Penalty>
0.102154

> <b_epik_Metal_Only>
0

> <s_lp_Force_Field>
OPLS_2005

> <r_lp_Energy>
34.1063

> <b_lp_Chiralities_Consistent>
1

> <s_lp_Variant>
AV-unprocessed.smi:1007-1

> <Gold.Version>
5.8.1

> <Gold.Id.Protein>
6NUR|6NUR_protein|mol2

> <Gold.PLP.Fitness>
54.9997

> <Gold.PLP.PLP>
-41.5944

> <Gold.PLP.part.hbond>
-4.0000

> <Gold.PLP.part.metal>
0.0000

> <Gold.PLP.part.buried>
-3.0557

> <Gold.PLP.part.nonpolar>
-34.5520

> <Gold.PLP.part.repulsive>
0.0585

> <Gold.PLP.ligand.clash>
0.0112

> <Gold.PLP.ligand.torsion>
0.8401

> <Gold.PLP.Chemscore.Hbond>
5.0000

> <Gold.PLP.Chemscore.CHOScore>
0.0000

> <Gold.PLP.Chemscore.Metal>
0.0000

> <Gold.Chemscore.Hbonds>
donor molecule, donor type, donor heavy atom, donor atom, acceptor molecule, acceptor atom, score
      L1  H     8    56       P1  7948  2.00
      L1  H    11    40       P1  7957  1.00
      P1  H  6896  6907       L1     2  1.00
      P1  H  7997  8009       L1    15  1.00

> <Gold.PLP.Chemscore.Internal.Correction>
0.0967

> <Gold.Rescore>
     Score         DG    S(hbond)    S(metal)    S(lipo)     H(rot)  DE(clash)    DE(int)     intcor
     21.29     -23.37       3.48        0.00     109.58       2.56       0.22       1.85       ----

> <Gold.Chemscore.Fitness>
21.2926

> <Gold.Chemscore.DG>
-23.3655

> <Gold.Chemscore.ZeroCoef>
-5.4800

> <Gold.Chemscore.Hbond>
3.4781

> <Gold.Chemscore.Metal>
0.0000

> <Gold.Chemscore.Lipo>
109.5804

> <Gold.Chemscore.Internal_Hbond>
0.0000

> <Gold.Chemscore.DEClash>
0.2201

> <Gold.Chemscore.DEInternal>
1.8528

> <Gold.Chemscore.Rot>
2.5594

> <Gold.Chemscore.Internal.Correction>
   9.000000E+99

> <Gold.Chemscore.Hbonds>
donor molecule, donor type, donor heavy atom, donor atom, acceptor molecule, acceptor atom, score
      L1  H     8    56       P1  7948  0.96
      L1  H    11    40       P1  7957  0.95
      P1  H  6896  6907       L1     2  0.91
      P1  H  7997  8009       L1    15  0.17

> <Gold.Chemscore.Hbond.Weighted>
-11.6167

> <Gold.Chemscore.Metal.Weighted>
-0.0000

> <Gold.Chemscore.Lipo.Weighted>
-12.8209

> <Gold.Chemscore.Internal_Hbond.Weighted>
0.0000

> <Gold.Chemscore.DEClash.Weighted>
0.2201

> <Gold.Chemscore.DEInternal.Weighted>
1.8528

> <Gold.Chemscore.Rot.Weighted>
6.5522

> <Gold.Chemscore.Internal.Correction.Weighted>
   9.000000E+99

> <Gold.Protein.RotatedTorsions>
[ 6907 6896 6895 6894 ] final  -81.48 input  -60.11 | X-H torsion
[ 7974 7965 7964 7962 ] final  175.36 input  175.53 | X-H torsion
[ 8008 7997 7996 7995 ] final  165.21 input   59.86 | X-H torsion
[ 10167 10162 10161 10158 ] final  -36.55 input  -65.29 | X-H torsion
[ 10718 10713 10712 10709 ] final   26.99 input   66.30 | X-H torsion
[ 10763 10752 10751 10750 ] final -122.75 input  -60.55 | X-H torsion
[ 11005 11000 10999 10996 ] final   -7.91 input  -57.11 | X-H torsion

> <Gold.Protein.ActiveResidues>
 VAL166  LYS551  ARG553  GLY616  TRP617  ASP618  TYR619  PRO620  LYS621  CYS622 
 ASP623  PHE694  ASN695  SER759  ASP760  ASP761  ALA762  ILE779  LEU786  VAL792 
 PHE793  MET794  SER795  GLU796  ALA797  LYS798  CYS799  TRP800  GLU811  SER814 

> <Gold.Protein.RotatedAtoms>
  150.6911  134.3810  159.5033 H   0  0  0  0  0  0  0  0  0  0  0  0  # atno 6907 bound_to 6896
  152.1612  134.8907  160.0550 H   0  0  0  0  0  0  0  0  0  0  0  0  # atno 6908 bound_to 6896
  151.9968  133.3776  159.4203 H   0  0  0  0  0  0  0  0  0  0  0  0  # atno 6909 bound_to 6896
  144.7203  139.9936  143.6440 H   0  0  0  0  0  0  0  0  0  0  0  0  # atno 7974 bound_to 7965
  156.1819  140.1676  156.8259 H   0  0  0  0  0  0  0  0  0  0  0  0  # atno 8008 bound_to 7997
  154.5369  140.0745  156.8476 H   0  0  0  0  0  0  0  0  0  0  0  0  # atno 8009 bound_to 7997
  155.3292  140.3378  155.4242 H   0  0  0  0  0  0  0  0  0  0  0  0  # atno 8010 bound_to 7997
  140.7140  143.3401  151.2376 H   0  0  0  0  0  0  0  0  0  0  0  0  # atno 10167 bound_to 10162
  157.2142  130.6948  149.6241 H   0  0  0  0  0  0  0  0  0  0  0  0  # atno 10718 bound_to 10713
  154.8695  135.4122  154.2832 H   0  0  0  0  0  0  0  0  0  0  0  0  # atno 10763 bound_to 10752
  153.3721  135.7008  153.6635 H   0  0  0  0  0  0  0  0  0  0  0  0  # atno 10764 bound_to 10752
  153.5492  135.3632  155.2724 H   0  0  0  0  0  0  0  0  0  0  0  0  # atno 10765 bound_to 10752
  140.7179  133.8853  155.8798 H   0  0  0  0  0  0  0  0  0  0  0  0  # atno 11005 bound_to 11000
  146.0392  139.3406  143.0708 LP  0  0  0  0  0  0  0  0  0  0  0  0  # atno 17320 bound_to 7965
  145.8356  140.9608  143.0826 LP  0  0  0  0  0  0  0  0  0  0  0  0  # atno 17321 bound_to 7965
  139.6907  143.9698  152.2857 LP  0  0  0  0  0  0  0  0  0  0  0  0  # atno 17342 bound_to 10162
  139.9358  144.6713  150.8316 LP  0  0  0  0  0  0  0  0  0  0  0  0  # atno 17343 bound_to 10162
  155.9688  130.4541  150.5838 LP  0  0  0  0  0  0  0  0  0  0  0  0  # atno 17370 bound_to 10713
  157.3642  131.0755  151.1611 LP  0  0  0  0  0  0  0  0  0  0  0  0  # atno 17371 bound_to 10713
  141.0029  134.1126  157.4299 LP  0  0  0  0  0  0  0  0  0  0  0  0  # atno 17394 bound_to 11000
  139.8855  135.0073  156.6441 LP  0  0  0  0  0  0  0  0  0  0  0  0  # atno 17395 bound_to 11000

$$$$
