AV-unprocessed.smi:1994|AV-procd|sdf|8073|dock7
  -GOLD-   2272010283D 1   1.00000     0.00000
 Structure written by MMmdl.
 39 41  0  0  0  0  0  0  0  0  1 V2000
  154.1011  143.0007  164.2475 C   0  0  0  0  0  0  0  0  0  0  0  0
  153.4755  143.0326  162.8892 C   0  0  0  0  0  0  0  0  0  0  0  0
  152.7419  144.0640  162.4694 N   0  0  0  0  0  0  0  0  0  0  0  0
  152.3705  143.6739  161.1971 C   0  0  0  0  0  0  0  0  0  0  0  0
  151.5821  144.3330  160.2266 C   0  0  0  0  0  0  0  0  0  0  0  0
  151.3330  143.7272  158.9776 C   0  0  0  0  0  0  0  0  0  0  0  0
  151.8673  142.4564  158.6810 C   0  0  0  0  0  0  0  0  0  0  0  0
  152.6554  141.7823  159.6337 C   0  0  0  0  0  0  0  0  0  0  0  0
  152.9010  142.3914  160.8788 C   0  0  0  0  0  0  0  0  0  0  0  0
  153.6163  142.0104  162.0092 N   0  0  0  0  0  0  0  0  0  0  0  0
  154.3496  140.7639  162.1814 C   0  0  0  0  0  0  0  0  0  0  0  0
  154.9095  140.2212  160.8508 C   0  0  1  0  0  0  0  0  0  0  0  0
  156.2332  140.6630  160.6234 O   0  0  0  0  0  0  0  0  0  0  0  0
  154.8561  138.6887  160.7389 C   0  0  0  0  0  0  0  0  0  0  0  0
  154.5698  138.1173  162.0096 O   0  0  0  0  0  0  0  0  0  0  0  0
  154.7198  136.7558  162.1664 C   0  0  0  0  0  0  0  0  0  0  0  0
  155.0183  135.8608  161.1073 C   0  0  0  0  0  0  0  0  0  0  0  0
  155.1517  134.4807  161.3556 C   0  0  0  0  0  0  0  0  0  0  0  0
  154.9902  133.9781  162.6599 C   0  0  0  0  0  0  0  0  0  0  0  0
  154.6953  134.8585  163.7170 C   0  0  0  0  0  0  0  0  0  0  0  0
  154.5613  136.2385  163.4701 C   0  0  0  0  0  0  0  0  0  0  0  0
  154.2759  137.0751  164.4967 F   0  0  0  0  0  0  0  0  0  0  0  0
  153.9529  143.9521  164.7597 H   0  0  0  0  0  0  0  0  0  0  0  0
  155.1727  142.8179  164.1694 H   0  0  0  0  0  0  0  0  0  0  0  0
  153.6505  142.2118  164.8500 H   0  0  0  0  0  0  0  0  0  0  0  0
  151.1678  145.3063  160.4445 H   0  0  0  0  0  0  0  0  0  0  0  0
  150.7288  144.2399  158.2434 H   0  0  0  0  0  0  0  0  0  0  0  0
  151.6714  141.9995  157.7221 H   0  0  0  0  0  0  0  0  0  0  0  0
  153.0665  140.8089  159.4109 H   0  0  0  0  0  0  0  0  0  0  0  0
  155.1487  140.9101  162.9080 H   0  0  0  0  0  0  0  0  0  0  0  0
  153.6714  140.0324  162.6224 H   0  0  0  0  0  0  0  0  0  0  0  0
  154.3139  140.6291  160.0333 H   0  0  0  0  0  0  0  0  0  0  0  0
  156.6948  140.6674  161.4478 H   0  0  0  0  0  0  0  0  0  0  0  0
  154.0615  138.4195  160.0414 H   0  0  0  0  0  0  0  0  0  0  0  0
  155.7950  138.3032  160.3377 H   0  0  0  0  0  0  0  0  0  0  0  0
  155.1491  136.2074  160.0936 H   0  0  0  0  0  0  0  0  0  0  0  0
  155.3779  133.8066  160.5426 H   0  0  0  0  0  0  0  0  0  0  0  0
  155.0920  132.9197  162.8491 H   0  0  0  0  0  0  0  0  0  0  0  0
  154.5703  134.4753  164.7192 H   0  0  0  0  0  0  0  0  0  0  0  0
  1  2  1  0  0  0  0
  1 23  1  0  0  0  0
  1 24  1  0  0  0  0
  1 25  1  0  0  0  0
  2 10  1  0  0  0  0
  2  3  2  0  0  0  0
  3  4  1  0  0  0  0
  4  9  2  0  0  0  0
  4  5  1  0  0  0  0
  5  6  2  0  0  0  0
  5 26  1  0  0  0  0
  6  7  1  0  0  0  0
  6 27  1  0  0  0  0
  7  8  2  0  0  0  0
  7 28  1  0  0  0  0
  8  9  1  0  0  0  0
  8 29  1  0  0  0  0
  9 10  1  0  0  0  0
 10 11  1  0  0  0  0
 11 12  1  0  0  0  0
 11 30  1  0  0  0  0
 11 31  1  0  0  0  0
 12 13  1  0  0  0  0
 12 14  1  0  0  0  0
 12 32  1  0  0  0  0
 13 33  1  0  0  0  0
 14 15  1  0  0  0  0
 14 34  1  0  0  0  0
 14 35  1  0  0  0  0
 15 16  1  0  0  0  0
 16 21  1  0  0  0  0
 16 17  2  0  0  0  0
 17 18  1  0  0  0  0
 17 36  1  0  0  0  0
 18 19  2  0  0  0  0
 18 37  1  0  0  0  0
 19 20  1  0  0  0  0
 19 38  1  0  0  0  0
 20 21  2  0  0  0  0
 20 39  1  0  0  0  0
 21 22  1  0  0  0  0
M  END
> <s_m_source_file>
AV-unprocessed.smi

> <i_m_source_file_index>
1994

> <i_lp_mmshare_version>
43012

> <i_f3d_flags>
0

> <s_epik_input>
W2NIXTFbY0hdW2NIXVtjSF1jKGMxMiluKGMobjIpW0NIM10pW0NIMl1bQ0BIXShbT0hdKVtDSDJdT2MzW2NIXVtjSF1bY0hdW2NIXWMzRg==

> <s_epik_cmdline>
J2VwaWtfcHl0aG9uJywgJy1waCcsICc3LjAnLCAnLXRuJywgJzgnLCAnLW1hJywgJzIwMCcsICctbWV0YWxfYmluZGluZycsICctaW1hZScsICc8aW5maWxlLm1hZT4nLCAnLW9tYWUnLCAnPG91dGZpbGUubWFlPic=

> <r_lp_tautomer_probability>
1

> <r_epik_Ionization_Penalty>
0.112614

> <r_epik_Ionization_Penalty_Charging>
0

> <r_epik_Ionization_Penalty_Neutral>
0.112614

> <r_epik_State_Penalty>
0.10231

> <r_epik_Charging_Adjusted_Penalty>
0.10231

> <i_epik_Tot_Q>
0

> <i_epik_Tot_abs_Q>
0

> <r_epik_Metal_State_Penalty>
0.000111664

> <b_epik_Metal_Only>
0

> <s_lp_Force_Field>
OPLS_2005

> <r_lp_Energy>
17.3721

> <b_lp_Chiralities_Consistent>
1

> <s_lp_Variant>
AV-unprocessed.smi:1994-2

> <Gold.Version>
5.8.1

> <Gold.Id.Protein>
6NUR|6NUR_protein|mol2

> <Gold.PLP.Fitness>
48.5851

> <Gold.PLP.PLP>
-51.8020

> <Gold.PLP.part.hbond>
-1.0000

> <Gold.PLP.part.metal>
0.0000

> <Gold.PLP.part.buried>
-2.7821

> <Gold.PLP.part.nonpolar>
-46.7651

> <Gold.PLP.part.repulsive>
0.1768

> <Gold.PLP.ligand.clash>
0.0027

> <Gold.PLP.ligand.torsion>
1.6186

> <Gold.PLP.Chemscore.Hbond>
0.0000

> <Gold.PLP.Chemscore.CHOScore>
0.0000

> <Gold.PLP.Chemscore.Metal>
0.0000

> <Gold.PLP.Chemscore.Internal.Correction>
0.0229

> <Gold.Rescore>
     Score         DG    S(hbond)    S(metal)    S(lipo)     H(rot)  DE(clash)    DE(int)     intcor
     12.13     -14.92       0.00        0.00     128.59       2.19       0.33       2.46       ----

> <Gold.Chemscore.Fitness>
12.1344

> <Gold.Chemscore.DG>
-14.9219

> <Gold.Chemscore.ZeroCoef>
-5.4800

> <Gold.Chemscore.Hbond>
0.0000

> <Gold.Chemscore.Metal>
0.0000

> <Gold.Chemscore.Lipo>
128.5877

> <Gold.Chemscore.Internal_Hbond>
0.0000

> <Gold.Chemscore.DEClash>
0.3262

> <Gold.Chemscore.DEInternal>
2.4613

> <Gold.Chemscore.Rot>
2.1886

> <Gold.Chemscore.Internal.Correction>
   9.000000E+99

> <Gold.Chemscore.Hbond.Weighted>
-0.0000

> <Gold.Chemscore.Metal.Weighted>
-0.0000

> <Gold.Chemscore.Lipo.Weighted>
-15.0448

> <Gold.Chemscore.Internal_Hbond.Weighted>
0.0000

> <Gold.Chemscore.DEClash.Weighted>
0.3262

> <Gold.Chemscore.DEInternal.Weighted>
2.4613

> <Gold.Chemscore.Rot.Weighted>
5.6028

> <Gold.Chemscore.Internal.Correction.Weighted>
   9.000000E+99

> <Gold.Protein.RotatedTorsions>
[ 6907 6896 6895 6894 ] final  151.53 input  -60.11 | X-H torsion
[ 7974 7965 7964 7962 ] final  -45.57 input  175.53 | X-H torsion
[ 8008 7997 7996 7995 ] final -124.26 input   59.86 | X-H torsion
[ 10167 10162 10161 10158 ] final -119.03 input  -65.29 | X-H torsion
[ 10718 10713 10712 10709 ] final   88.61 input   66.30 | X-H torsion
[ 10763 10752 10751 10750 ] final  161.90 input  -60.55 | X-H torsion
[ 11005 11000 10999 10996 ] final   47.94 input  -57.11 | X-H torsion

> <Gold.Protein.ActiveResidues>
 VAL166  LYS551  ARG553  GLY616  TRP617  ASP618  TYR619  PRO620  LYS621  CYS622 
 ASP623  PHE694  ASN695  SER759  ASP760  ASP761  ALA762  ILE779  LEU786  VAL792 
 PHE793  MET794  SER795  GLU796  ALA797  LYS798  CYS799  TRP800  GLU811  SER814 

> <Gold.Protein.RotatedAtoms>
  152.0993  133.4241  159.4579 H   0  0  0  0  0  0  0  0  0  0  0  0  # atno 6907 bound_to 6896
  150.6864  134.2779  159.4624 H   0  0  0  0  0  0  0  0  0  0  0  0  # atno 6908 bound_to 6896
  152.0638  134.9577  160.0625 H   0  0  0  0  0  0  0  0  0  0  0  0  # atno 6909 bound_to 6896
  145.9807  140.7286  142.9365 H   0  0  0  0  0  0  0  0  0  0  0  0  # atno 7974 bound_to 7965
  155.1940  140.0414  157.2905 H   0  0  0  0  0  0  0  0  0  0  0  0  # atno 8008 bound_to 7997
  154.6119  140.2479  155.7629 H   0  0  0  0  0  0  0  0  0  0  0  0  # atno 8009 bound_to 7997
  156.2384  140.2913  156.0386 H   0  0  0  0  0  0  0  0  0  0  0  0  # atno 8010 bound_to 7997
  140.0511  143.5059  152.2081 H   0  0  0  0  0  0  0  0  0  0  0  0  # atno 10167 bound_to 10162
  157.6950  131.0301  150.3300 H   0  0  0  0  0  0  0  0  0  0  0  0  # atno 10718 bound_to 10713
  154.2701  135.2766  155.2742 H   0  0  0  0  0  0  0  0  0  0  0  0  # atno 10763 bound_to 10752
  154.5309  135.5730  153.6762 H   0  0  0  0  0  0  0  0  0  0  0  0  # atno 10764 bound_to 10752
  152.9947  135.6227  154.2855 H   0  0  0  0  0  0  0  0  0  0  0  0  # atno 10765 bound_to 10752
  140.1235  134.4799  155.8578 H   0  0  0  0  0  0  0  0  0  0  0  0  # atno 11005 bound_to 11000
  144.6861  140.2904  143.7279 LP  0  0  0  0  0  0  0  0  0  0  0  0  # atno 17320 bound_to 7965
  145.7773  139.1878  143.2178 LP  0  0  0  0  0  0  0  0  0  0  0  0  # atno 17321 bound_to 7965
  139.5952  144.7564  151.3303 LP  0  0  0  0  0  0  0  0  0  0  0  0  # atno 17342 bound_to 10162
  140.7216  143.7119  150.7762 LP  0  0  0  0  0  0  0  0  0  0  0  0  # atno 17343 bound_to 10162
  156.3775  130.3874  149.7127 LP  0  0  0  0  0  0  0  0  0  0  0  0  # atno 17370 bound_to 10713
  156.4521  130.7911  151.2933 LP  0  0  0  0  0  0  0  0  0  0  0  0  # atno 17371 bound_to 10713
  141.2156  133.6769  156.6933 LP  0  0  0  0  0  0  0  0  0  0  0  0  # atno 17394 bound_to 11000
  140.2934  134.8222  157.4036 LP  0  0  0  0  0  0  0  0  0  0  0  0  # atno 17395 bound_to 11000

$$$$
