AV-unprocessed.smi:2772|AV-procd|sdf|10664|dock7
  -GOLD-   2272015113D 1   1.00000     0.00000
 Structure written by MMmdl.
 55 57  0  0  0  0  0  0  0  0  3 V2000
  153.1188  143.1709  160.2745 C   0  0  0  0  0  0  0  0  0  0  0  0
  152.2967  142.5343  159.1734 C   0  0  0  0  0  0  0  0  0  0  0  0
  151.9675  141.1642  159.2171 C   0  0  0  0  0  0  0  0  0  0  0  0
  151.2038  140.6208  158.1660 C   0  0  0  0  0  0  0  0  0  0  0  0
  150.8034  141.4663  157.1030 C   0  0  0  0  0  0  0  0  0  0  0  0
  150.0187  141.0466  155.9944 N   0  0  0  0  0  0  0  0  0  0  0  0
  149.0560  140.1096  155.9532 C   0  0  0  0  0  0  0  0  0  0  0  0
  148.6938  139.4149  156.9024 O   0  0  0  0  0  0  0  0  0  0  0  0
  148.5362  140.0022  154.7217 N   0  0  0  0  0  0  0  0  0  0  0  0
  147.4730  139.0777  154.3385 C   0  0  2  0  0  0  0  0  0  0  0  0
  147.8195  137.6372  154.7450 C   0  0  0  0  0  0  0  0  0  0  0  0
  146.7359  136.6574  154.2688 C   0  0  0  0  0  0  0  0  0  0  0  0
  146.5392  136.7197  152.7915 N   0  3  1  0  0  0  0  0  0  0  0  0
  145.6119  135.6462  152.3011 C   0  0  2  0  0  0  0  0  0  0  0  0
  146.1823  134.2426  152.6167 C   0  0  0  0  0  0  0  0  0  0  0  0
  145.2553  133.1160  152.1287 C   0  0  0  0  0  0  0  0  0  0  0  0
  144.9965  133.2298  150.6743 N   0  3  1  0  0  0  0  0  0  0  0  0
  144.1996  132.0984  150.1522 C   0  0  0  0  0  0  0  0  0  0  0  0
  144.4064  134.5440  150.3270 C   0  0  0  0  0  0  0  0  0  0  0  0
  145.3147  135.7005  150.7807 C   0  0  0  0  0  0  0  0  0  0  0  0
  146.1937  138.1088  152.3682 C   0  0  0  0  0  0  0  0  0  0  0  0
  147.2552  139.1272  152.8209 C   0  0  0  0  0  0  0  0  0  0  0  0
  151.1787  142.8251  157.1683 C   0  0  0  0  0  0  0  0  0  0  0  0
  151.9109  143.3537  158.1718 N   0  0  0  0  0  0  0  0  0  0  0  0
  153.1767  142.5202  161.1474 H   0  0  0  0  0  0  0  0  0  0  0  0
  152.6763  144.1173  160.5870 H   0  0  0  0  0  0  0  0  0  0  0  0
  154.1328  143.3642  159.9238 H   0  0  0  0  0  0  0  0  0  0  0  0
  152.2874  140.5405  160.0388 H   0  0  0  0  0  0  0  0  0  0  0  0
  150.9334  139.5775  158.2059 H   0  0  0  0  0  0  0  0  0  0  0  0
  150.2543  141.4796  155.1134 H   0  0  0  0  0  0  0  0  0  0  0  0
  148.8974  140.6092  154.0003 H   0  0  0  0  0  0  0  0  0  0  0  0
  146.5451  139.3775  154.8304 H   0  0  0  0  0  0  0  0  0  0  0  0
  148.7840  137.3495  154.3234 H   0  0  0  0  0  0  0  0  0  0  0  0
  147.9225  137.5656  155.8285 H   0  0  0  0  0  0  0  0  0  0  0  0
  147.0245  135.6565  154.5839 H   0  0  0  0  0  0  0  0  0  0  0  0
  145.7921  136.8792  154.7701 H   0  0  0  0  0  0  0  0  0  0  0  0
  144.6591  135.7664  152.8203 H   0  0  0  0  0  0  0  0  0  0  0  0
  147.1625  134.1315  152.1504 H   0  0  0  0  0  0  0  0  0  0  0  0
  146.3389  134.1075  153.6856 H   0  0  0  0  0  0  0  0  0  0  0  0
  145.7147  132.1500  152.3417 H   0  0  0  0  0  0  0  0  0  0  0  0
  144.3098  133.1444  152.6733 H   0  0  0  0  0  0  0  0  0  0  0  0
  143.2072  132.0761  150.6046 H   0  0  0  0  0  0  0  0  0  0  0  0
  144.6935  131.1490  150.3631 H   0  0  0  0  0  0  0  0  0  0  0  0
  144.0808  132.1772  149.0711 H   0  0  0  0  0  0  0  0  0  0  0  0
  144.2565  134.6018  149.2480 H   0  0  0  0  0  0  0  0  0  0  0  0
  143.4217  134.6368  150.7885 H   0  0  0  0  0  0  0  0  0  0  0  0
  144.8117  136.6311  150.5168 H   0  0  0  0  0  0  0  0  0  0  0  0
  146.2474  135.6708  150.2154 H   0  0  0  0  0  0  0  0  0  0  0  0
  146.1352  138.1813  151.2831 H   0  0  0  0  0  0  0  0  0  0  0  0
  145.2144  138.3803  152.7656 H   0  0  0  0  0  0  0  0  0  0  0  0
  146.9516  140.1309  152.5209 H   0  0  0  0  0  0  0  0  0  0  0  0
  148.1946  138.9224  152.3049 H   0  0  0  0  0  0  0  0  0  0  0  0
  150.8863  143.5120  156.3875 H   0  0  0  0  0  0  0  0  0  0  0  0
  147.4370  136.5257  152.3710 H   0  0  0  0  0  0  0  0  0  0  0  0
  145.8943  133.1817  150.2133 H   0  0  0  0  0  0  0  0  0  0  0  0
  1  2  1  0  0  0  0
  1 25  1  0  0  0  0
  1 26  1  0  0  0  0
  1 27  1  0  0  0  0
  2 24  1  0  0  0  0
  2  3  2  0  0  0  0
  3  4  1  0  0  0  0
  3 28  1  0  0  0  0
  4  5  2  0  0  0  0
  4 29  1  0  0  0  0
  5  6  1  0  0  0  0
  5 23  1  0  0  0  0
  6  7  1  0  0  0  0
  6 30  1  0  0  0  0
  7  8  2  0  0  0  0
  7  9  1  0  0  0  0
  9 10  1  0  0  0  0
  9 31  1  0  0  0  0
 10 22  1  0  0  0  0
 10 11  1  0  0  0  0
 10 32  1  0  0  0  0
 11 12  1  0  0  0  0
 11 33  1  0  0  0  0
 11 34  1  0  0  0  0
 12 13  1  0  0  0  0
 12 35  1  0  0  0  0
 12 36  1  0  0  0  0
 13 14  1  0  0  0  0
 13 21  1  0  0  0  0
 13 54  1  0  0  0  0
 14 20  1  0  0  0  0
 14 15  1  0  0  0  0
 14 37  1  0  0  0  0
 15 16  1  0  0  0  0
 15 38  1  0  0  0  0
 15 39  1  0  0  0  0
 16 17  1  0  0  0  0
 16 40  1  0  0  0  0
 16 41  1  0  0  0  0
 17 18  1  0  0  0  0
 17 19  1  0  0  0  0
 17 55  1  0  0  0  0
 18 42  1  0  0  0  0
 18 43  1  0  0  0  0
 18 44  1  0  0  0  0
 19 20  1  0  0  0  0
 19 45  1  0  0  0  0
 19 46  1  0  0  0  0
 20 47  1  0  0  0  0
 20 48  1  0  0  0  0
 21 22  1  0  0  0  0
 21 49  1  0  0  0  0
 21 50  1  0  0  0  0
 22 51  1  0  0  0  0
 22 52  1  0  0  0  0
 23 24  2  0  0  0  0
 23 53  1  0  0  0  0
M  CHG  1  13   1
M  CHG  1  17   1
M  END
> <s_m_source_file>
AV-unprocessed.smi

> <i_m_source_file_index>
2772

> <i_lp_mmshare_version>
43012

> <i_f3d_flags>
0

> <s_epik_input>
W0NIM11jMVtjSF1bY0hdYyhbY0hdbjEpW05IXUMoPU8pW05IXVtDSF0yW0NIMl1bQ0gyXU4oW0NIMl1bQ0gyXTIpW0NIXTNbQ0gyXVtDSDJdTihbQ0gzXSlbQ0gyXVtDSDJdMw==

> <s_epik_cmdline>
J2VwaWtfcHl0aG9uJywgJy1waCcsICc3LjAnLCAnLXRuJywgJzgnLCAnLW1hJywgJzIwMCcsICctbWV0YWxfYmluZGluZycsICctaW1hZScsICc8aW5maWxlLm1hZT4nLCAnLW9tYWUnLCAnPG91dGZpbGUubWFlPic=

> <r_epik_Ionization_Penalty>
0.196786

> <r_epik_Ionization_Penalty_Charging>
0.180787

> <r_epik_Ionization_Penalty_Neutral>
0.0159988

> <r_epik_State_Penalty>
0.163322

> <r_epik_Charging_Adjusted_Penalty>
0.344109

> <i_epik_Tot_Q>
2

> <i_epik_Tot_abs_Q>
2

> <r_epik_Metal_State_Penalty>
0.163596

> <b_epik_Metal_Only>
0

> <s_lp_Force_Field>
OPLS_2005

> <r_lp_Energy>
43.2769

> <b_lp_Chiralities_Consistent>
1

> <s_lp_Variant>
AV-unprocessed.smi:2772-1

> <Gold.Version>
5.8.1

> <Gold.Id.Protein>
6NUR|6NUR_protein|mol2

> <Gold.PLP.Fitness>
46.3577

> <Gold.PLP.PLP>
-37.9697

> <Gold.PLP.part.hbond>
-1.0000

> <Gold.PLP.part.metal>
0.0000

> <Gold.PLP.part.buried>
-5.3531

> <Gold.PLP.part.nonpolar>
-32.6730

> <Gold.PLP.part.repulsive>
0.2499

> <Gold.PLP.ligand.clash>
0.0000

> <Gold.PLP.ligand.torsion>
0.3225

> <Gold.PLP.Chemscore.Hbond>
2.0000

> <Gold.PLP.Chemscore.CHOScore>
1.0000

> <Gold.PLP.Chemscore.Metal>
0.0000

> <Gold.Chemscore.Hbonds>
donor molecule, donor type, donor heavy atom, donor atom, acceptor molecule, acceptor atom, score
      L1  H    13    54       P1  7948  2.00
      L1  C    23    53       P1  8028  1.00

> <Gold.PLP.Chemscore.Internal.Correction>
0.0330

> <Gold.Rescore>
     Score         DG    S(hbond)    S(metal)    S(lipo)     H(rot)  DE(clash)    DE(int)     intcor
     17.74     -18.31       1.00        0.00     107.60       1.21       0.18       0.39       ----

> <Gold.Chemscore.Fitness>
17.7433

> <Gold.Chemscore.DG>
-18.3136

> <Gold.Chemscore.ZeroCoef>
-5.4800

> <Gold.Chemscore.Hbond>
0.9999

> <Gold.Chemscore.Metal>
0.0000

> <Gold.Chemscore.Lipo>
107.6004

> <Gold.Chemscore.Internal_Hbond>
0.0000

> <Gold.Chemscore.DEClash>
0.1809

> <Gold.Chemscore.DEInternal>
0.3894

> <Gold.Chemscore.Rot>
1.2092

> <Gold.Chemscore.Internal.Correction>
   9.000000E+99

> <Gold.Chemscore.Hbonds>
donor molecule, donor type, donor heavy atom, donor atom, acceptor molecule, acceptor atom, score
      L1  H    13    54       P1  7948  0.99

> <Gold.Chemscore.Hbond.Weighted>
-3.3398

> <Gold.Chemscore.Metal.Weighted>
-0.0000

> <Gold.Chemscore.Lipo.Weighted>
-12.5893

> <Gold.Chemscore.Internal_Hbond.Weighted>
0.0000

> <Gold.Chemscore.DEClash.Weighted>
0.1809

> <Gold.Chemscore.DEInternal.Weighted>
0.3894

> <Gold.Chemscore.Rot.Weighted>
3.0955

> <Gold.Chemscore.Internal.Correction.Weighted>
   9.000000E+99

> <Gold.Protein.RotatedTorsions>
[ 6907 6896 6895 6894 ] final  -82.49 input  -60.11 | X-H torsion
[ 7974 7965 7964 7962 ] final  -54.82 input  175.53 | X-H torsion
[ 8008 7997 7996 7995 ] final  -38.30 input   59.86 | X-H torsion
[ 10167 10162 10161 10158 ] final  130.45 input  -65.29 | X-H torsion
[ 10718 10713 10712 10709 ] final  125.63 input   66.30 | X-H torsion
[ 10763 10752 10751 10750 ] final -171.37 input  -60.55 | X-H torsion
[ 11005 11000 10999 10996 ] final -176.37 input  -57.11 | X-H torsion

> <Gold.Protein.ActiveResidues>
 VAL166  LYS551  ARG553  GLY616  TRP617  ASP618  TYR619  PRO620  LYS621  CYS622 
 ASP623  PHE694  ASN695  SER759  ASP760  ASP761  ALA762  ILE779  LEU786  VAL792 
 PHE793  MET794  SER795  GLU796  ALA797  LYS798  CYS799  TRP800  GLU811  SER814 

> <Gold.Protein.RotatedAtoms>
  150.6897  134.3657  159.4969 H   0  0  0  0  0  0  0  0  0  0  0  0  # atno 6907 bound_to 6896
  152.1479  134.9008  160.0559 H   0  0  0  0  0  0  0  0  0  0  0  0  # atno 6908 bound_to 6896
  152.0117  133.3829  159.4259 H   0  0  0  0  0  0  0  0  0  0  0  0  # atno 6909 bound_to 6896
  145.8812  140.8143  142.9839 H   0  0  0  0  0  0  0  0  0  0  0  0  # atno 7974 bound_to 7965
  154.4039  140.1581  156.2678 H   0  0  0  0  0  0  0  0  0  0  0  0  # atno 8008 bound_to 7997
  155.8980  140.3435  155.5983 H   0  0  0  0  0  0  0  0  0  0  0  0  # atno 8009 bound_to 7997
  155.7481  140.0801  157.2205 H   0  0  0  0  0  0  0  0  0  0  0  0  # atno 8010 bound_to 7997
  139.5429  144.6747  151.4566 H   0  0  0  0  0  0  0  0  0  0  0  0  # atno 10167 bound_to 10162
  157.5487  131.1095  150.8739 H   0  0  0  0  0  0  0  0  0  0  0  0  # atno 10718 bound_to 10713
  154.6312  135.2887  155.0214 H   0  0  0  0  0  0  0  0  0  0  0  0  # atno 10763 bound_to 10752
  154.1374  135.6524  153.4938 H   0  0  0  0  0  0  0  0  0  0  0  0  # atno 10764 bound_to 10752
  153.0281  135.5325  154.7140 H   0  0  0  0  0  0  0  0  0  0  0  0  # atno 10765 bound_to 10752
  140.4529  134.6326  157.4809 H   0  0  0  0  0  0  0  0  0  0  0  0  # atno 11005 bound_to 11000
  144.6727  140.1386  143.7438 LP  0  0  0  0  0  0  0  0  0  0  0  0  # atno 17320 bound_to 7965
  145.9021  139.2437  143.1487 LP  0  0  0  0  0  0  0  0  0  0  0  0  # atno 17321 bound_to 7965
  140.6666  143.8384  150.6950 LP  0  0  0  0  0  0  0  0  0  0  0  0  # atno 17342 bound_to 10162
  140.1795  143.4127  152.1943 LP  0  0  0  0  0  0  0  0  0  0  0  0  # atno 17343 bound_to 10162
  156.9270  130.5336  149.5279 LP  0  0  0  0  0  0  0  0  0  0  0  0  # atno 17370 bound_to 10713
  156.0557  130.5619  150.9087 LP  0  0  0  0  0  0  0  0  0  0  0  0  # atno 17371 bound_to 10713
  139.9995  134.6859  155.9554 LP  0  0  0  0  0  0  0  0  0  0  0  0  # atno 17394 bound_to 11000
  141.1656  133.6537  156.4468 LP  0  0  0  0  0  0  0  0  0  0  0  0  # atno 17395 bound_to 11000

$$$$
