AV-unprocessed.smi:2771|AV-procd|sdf|10662|dock7
  -GOLD-   2272015113D 1   1.00000     0.00000
 Structure written by MMmdl.
 43 44  0  0  0  0  0  0  0  0  1 V2000
  152.4034  138.9286  156.4801 C   0  0  0  0  0  0  0  0  0  0  0  0
  151.1724  139.5125  155.8195 C   0  0  0  0  0  0  0  0  0  0  0  0
  150.7742  140.8398  156.0722 C   0  0  0  0  0  0  0  0  0  0  0  0
  149.6209  141.3201  155.4263 C   0  0  0  0  0  0  0  0  0  0  0  0
  148.9179  140.4592  154.5610 C   0  0  0  0  0  0  0  0  0  0  0  0
  149.3839  139.1398  154.3636 C   0  0  0  0  0  0  0  0  0  0  0  0
  148.6060  138.3519  153.4739 N   0  0  0  0  0  0  0  0  0  0  0  0
  147.2711  138.3564  153.3116 C   0  0  0  0  0  0  0  0  0  0  0  0
  146.4809  139.0738  153.9256 O   0  0  0  0  0  0  0  0  0  0  0  0
  146.8930  137.4735  152.3761 N   0  0  0  0  0  0  0  0  0  0  0  0
  145.5176  137.2354  151.9484 C   0  0  0  0  0  0  0  0  0  0  0  0
  145.4237  136.0287  150.9848 C   0  0  2  0  0  0  0  0  0  0  0  0
  144.0477  135.8543  150.7019 O   0  0  0  0  0  0  0  0  0  0  0  0
  145.9631  134.6902  151.5637 C   0  0  0  0  0  0  0  0  0  0  0  0
  145.7231  133.4859  150.6182 C   0  0  0  0  0  0  0  0  0  0  0  0
  146.2330  132.1627  151.2132 C   0  0  0  0  0  0  0  0  0  0  0  0
  145.6026  131.8830  152.5828 C   0  0  0  0  0  0  0  0  0  0  0  0
  145.8488  133.0557  153.5395 C   0  0  0  0  0  0  0  0  0  0  0  0
  145.3323  134.3752  152.9448 C   0  0  0  0  0  0  0  0  0  0  0  0
  150.4973  138.6866  154.9916 N   0  0  0  0  0  0  0  0  0  0  0  0
  153.0088  139.7076  156.9442 H   0  0  0  0  0  0  0  0  0  0  0  0
  153.0223  138.4111  155.7466 H   0  0  0  0  0  0  0  0  0  0  0  0
  152.1143  138.2142  157.2512 H   0  0  0  0  0  0  0  0  0  0  0  0
  151.3355  141.4745  156.7421 H   0  0  0  0  0  0  0  0  0  0  0  0
  149.2798  142.3314  155.5911 H   0  0  0  0  0  0  0  0  0  0  0  0
  148.0301  140.8129  154.0572 H   0  0  0  0  0  0  0  0  0  0  0  0
  149.1266  137.7125  152.8921 H   0  0  0  0  0  0  0  0  0  0  0  0
  147.6092  136.9268  151.9212 H   0  0  0  0  0  0  0  0  0  0  0  0
  144.9733  137.0442  152.8699 H   0  0  0  0  0  0  0  0  0  0  0  0
  145.0644  138.1296  151.5160 H   0  0  0  0  0  0  0  0  0  0  0  0
  145.9487  136.2530  150.0550 H   0  0  0  0  0  0  0  0  0  0  0  0
  143.6859  136.6891  150.4444 H   0  0  0  0  0  0  0  0  0  0  0  0
  147.0404  134.7943  151.7033 H   0  0  0  0  0  0  0  0  0  0  0  0
  144.6587  133.3995  150.3960 H   0  0  0  0  0  0  0  0  0  0  0  0
  146.2263  133.6300  149.6640 H   0  0  0  0  0  0  0  0  0  0  0  0
  146.0151  131.3409  150.5305 H   0  0  0  0  0  0  0  0  0  0  0  0
  147.3186  132.2021  151.3122 H   0  0  0  0  0  0  0  0  0  0  0  0
  144.5302  131.7198  152.4678 H   0  0  0  0  0  0  0  0  0  0  0  0
  146.0142  130.9651  153.0035 H   0  0  0  0  0  0  0  0  0  0  0  0
  145.3607  132.8633  154.4955 H   0  0  0  0  0  0  0  0  0  0  0  0
  146.9156  133.1418  153.7491 H   0  0  0  0  0  0  0  0  0  0  0  0
  145.5400  135.1743  153.6565 H   0  0  0  0  0  0  0  0  0  0  0  0
  144.2465  134.3279  152.8487 H   0  0  0  0  0  0  0  0  0  0  0  0
  1  2  1  0  0  0  0
  1 21  1  0  0  0  0
  1 22  1  0  0  0  0
  1 23  1  0  0  0  0
  2 20  1  0  0  0  0
  2  3  2  0  0  0  0
  3  4  1  0  0  0  0
  3 24  1  0  0  0  0
  4  5  2  0  0  0  0
  4 25  1  0  0  0  0
  5  6  1  0  0  0  0
  5 26  1  0  0  0  0
  6  7  1  0  0  0  0
  6 20  2  0  0  0  0
  7  8  1  0  0  0  0
  7 27  1  0  0  0  0
  8  9  2  0  0  0  0
  8 10  1  0  0  0  0
 10 11  1  0  0  0  0
 10 28  1  0  0  0  0
 11 12  1  0  0  0  0
 11 29  1  0  0  0  0
 11 30  1  0  0  0  0
 12 13  1  0  0  0  0
 12 14  1  0  0  0  0
 12 31  1  0  0  0  0
 13 32  1  0  0  0  0
 14 19  1  0  0  0  0
 14 15  1  0  0  0  0
 14 33  1  0  0  0  0
 15 16  1  0  0  0  0
 15 34  1  0  0  0  0
 15 35  1  0  0  0  0
 16 17  1  0  0  0  0
 16 36  1  0  0  0  0
 16 37  1  0  0  0  0
 17 18  1  0  0  0  0
 17 38  1  0  0  0  0
 17 39  1  0  0  0  0
 18 19  1  0  0  0  0
 18 40  1  0  0  0  0
 18 41  1  0  0  0  0
 19 42  1  0  0  0  0
 19 43  1  0  0  0  0
M  END
> <s_m_source_file>
AV-unprocessed.smi

> <i_m_source_file_index>
2771

> <i_lp_mmshare_version>
43012

> <i_f3d_flags>
0

> <s_epik_input>
W0NIM11jMVtjSF1bY0hdW2NIXWMobjEpW05IXUMoPU8pW05IXVtDSDJdW0NASF0oW09IXSlbQ0hdMltDSDJdW0NIMl1bQ0gyXVtDSDJdW0NIMl0y

> <s_epik_cmdline>
J2VwaWtfcHl0aG9uJywgJy1waCcsICc3LjAnLCAnLXRuJywgJzgnLCAnLW1hJywgJzIwMCcsICctbWV0YWxfYmluZGluZycsICctaW1hZScsICc8aW5maWxlLm1hZT4nLCAnLW9tYWUnLCAnPG91dGZpbGUubWFlPic=

> <r_lp_tautomer_probability>
1

> <r_epik_Ionization_Penalty>
8.92802e-05

> <r_epik_Ionization_Penalty_Charging>
0

> <r_epik_Ionization_Penalty_Neutral>
8.92802e-05

> <r_epik_State_Penalty>
-0

> <r_epik_Charging_Adjusted_Penalty>
0

> <i_epik_Tot_Q>
0

> <i_epik_Tot_abs_Q>
0

> <r_epik_Metal_State_Penalty>
-0

> <b_epik_Metal_Only>
0

> <s_lp_Force_Field>
OPLS_2005

> <r_lp_Energy>
16.1378

> <b_lp_Chiralities_Consistent>
1

> <s_lp_Variant>
AV-unprocessed.smi:2771-1

> <Gold.Version>
5.8.1

> <Gold.Id.Protein>
6NUR|6NUR_protein|mol2

> <Gold.PLP.Fitness>
40.8127

> <Gold.PLP.PLP>
-32.7851

> <Gold.PLP.part.hbond>
-3.7744

> <Gold.PLP.part.metal>
0.0000

> <Gold.PLP.part.buried>
0.0558

> <Gold.PLP.part.nonpolar>
-30.7153

> <Gold.PLP.part.repulsive>
0.4088

> <Gold.PLP.ligand.clash>
0.0000

> <Gold.PLP.ligand.torsion>
0.3272

> <Gold.PLP.Chemscore.Hbond>
2.8873

> <Gold.PLP.Chemscore.CHOScore>
0.0000

> <Gold.PLP.Chemscore.Metal>
0.0000

> <Gold.Chemscore.Hbonds>
donor molecule, donor type, donor heavy atom, donor atom, acceptor molecule, acceptor atom, score
      L1  H     7    27       P1  7948  0.88
      L1  H    10    28       P1  7948  0.91
      L1  H    13    32       P1 10171  1.00

> <Gold.PLP.Chemscore.Internal.Correction>
0.0202

> <Gold.Rescore>
     Score         DG    S(hbond)    S(metal)    S(lipo)     H(rot)  DE(clash)    DE(int)     intcor
     16.74     -18.42       2.78        0.00      73.92       1.95       0.08       1.60       ----

> <Gold.Chemscore.Fitness>
16.7376

> <Gold.Chemscore.DG>
-18.4182

> <Gold.Chemscore.ZeroCoef>
-5.4800

> <Gold.Chemscore.Hbond>
2.7815

> <Gold.Chemscore.Metal>
0.0000

> <Gold.Chemscore.Lipo>
73.9244

> <Gold.Chemscore.Internal_Hbond>
0.0000

> <Gold.Chemscore.DEClash>
0.0837

> <Gold.Chemscore.DEInternal>
1.5969

> <Gold.Chemscore.Rot>
1.9536

> <Gold.Chemscore.Internal.Correction>
   9.000000E+99

> <Gold.Chemscore.Hbonds>
donor molecule, donor type, donor heavy atom, donor atom, acceptor molecule, acceptor atom, score
      L1  H     7    27       P1  7948  0.86
      L1  H    10    28       P1  7948  0.85
      L1  H    13    32       P1 10171  0.94

> <Gold.Chemscore.Hbond.Weighted>
-9.2904

> <Gold.Chemscore.Metal.Weighted>
-0.0000

> <Gold.Chemscore.Lipo.Weighted>
-8.6492

> <Gold.Chemscore.Internal_Hbond.Weighted>
0.0000

> <Gold.Chemscore.DEClash.Weighted>
0.0837

> <Gold.Chemscore.DEInternal.Weighted>
1.5969

> <Gold.Chemscore.Rot.Weighted>
5.0013

> <Gold.Chemscore.Internal.Correction.Weighted>
   9.000000E+99

> <Gold.Protein.RotatedTorsions>
[ 6907 6896 6895 6894 ] final  -13.85 input  -60.11 | X-H torsion
[ 7974 7965 7964 7962 ] final  -34.82 input  175.53 | X-H torsion
[ 8008 7997 7996 7995 ] final -171.86 input   59.86 | X-H torsion
[ 10167 10162 10161 10158 ] final  -58.16 input  -65.29 | X-H torsion
[ 10718 10713 10712 10709 ] final  124.76 input   66.30 | X-H torsion
[ 10763 10752 10751 10750 ] final -107.36 input  -60.55 | X-H torsion
[ 11005 11000 10999 10996 ] final -119.28 input  -57.11 | X-H torsion

> <Gold.Protein.ActiveResidues>
 VAL166  LYS551  ARG553  GLY616  TRP617  ASP618  TYR619  PRO620  LYS621  CYS622 
 ASP623  PHE694  ASN695  SER759  ASP760  ASP761  ALA762  ILE779  LEU786  VAL792 
 PHE793  MET794  SER795  GLU796  ALA797  LYS798  CYS799  TRP800  GLU811  SER814 

> <Gold.Protein.RotatedAtoms>
  151.3485  135.0879  159.9394 H   0  0  0  0  0  0  0  0  0  0  0  0  # atno 6907 bound_to 6896
  152.5193  133.9376  159.7621 H   0  0  0  0  0  0  0  0  0  0  0  0  # atno 6908 bound_to 6896
  150.9747  133.6253  159.2762 H   0  0  0  0  0  0  0  0  0  0  0  0  # atno 6909 bound_to 6896
  146.0797  140.6085  142.8914 H   0  0  0  0  0  0  0  0  0  0  0  0  # atno 7974 bound_to 7965
  155.9371  140.1102  157.1085 H   0  0  0  0  0  0  0  0  0  0  0  0  # atno 8008 bound_to 7997
  154.4082  140.1226  156.4944 H   0  0  0  0  0  0  0  0  0  0  0  0  # atno 8009 bound_to 7997
  155.7008  140.3472  155.4934 H   0  0  0  0  0  0  0  0  0  0  0  0  # atno 8010 bound_to 7997
  140.6214  143.2421  151.5470 H   0  0  0  0  0  0  0  0  0  0  0  0  # atno 10167 bound_to 10162
  157.5559  131.1092  150.8623 H   0  0  0  0  0  0  0  0  0  0  0  0  # atno 10718 bound_to 10713
  154.8070  135.4678  154.0418 H   0  0  0  0  0  0  0  0  0  0  0  0  # atno 10763 bound_to 10752
  153.1879  135.6850  153.8398 H   0  0  0  0  0  0  0  0  0  0  0  0  # atno 10764 bound_to 10752
  153.7926  135.3241  155.3358 H   0  0  0  0  0  0  0  0  0  0  0  0  # atno 10765 bound_to 10752
  141.0227  134.0100  157.3260 H   0  0  0  0  0  0  0  0  0  0  0  0  # atno 11005 bound_to 11000
  144.7285  140.4600  143.6955 LP  0  0  0  0  0  0  0  0  0  0  0  0  # atno 17320 bound_to 7965
  145.6240  139.1527  143.3006 LP  0  0  0  0  0  0  0  0  0  0  0  0  # atno 17321 bound_to 7965
  139.5442  144.2565  152.1410 LP  0  0  0  0  0  0  0  0  0  0  0  0  # atno 17342 bound_to 10162
  140.1786  144.4866  150.6540 LP  0  0  0  0  0  0  0  0  0  0  0  0  # atno 17343 bound_to 10162
  156.9134  130.5289  149.5280 LP  0  0  0  0  0  0  0  0  0  0  0  0  # atno 17370 bound_to 10713
  156.0618  130.5669  150.9208 LP  0  0  0  0  0  0  0  0  0  0  0  0  # atno 17371 bound_to 10713
  139.9156  135.0196  156.7867 LP  0  0  0  0  0  0  0  0  0  0  0  0  # atno 17394 bound_to 11000
  140.6545  133.9701  155.7772 LP  0  0  0  0  0  0  0  0  0  0  0  0  # atno 17395 bound_to 11000

$$$$
