AV-unprocessed.smi:1983|AV-procd|sdf|8038|dock3
  -GOLD-   2272010233D 1   1.00000     0.00000
 Structure written by MMmdl.
 50 51  0  0  0  0  0  0  0  0  2 V2000
  149.4276  135.4882  156.4648 C   0  0  0  0  0  0  0  0  0  0  0  0
  148.4864  135.2028  155.2845 C   0  0  2  0  0  0  0  0  0  0  0  0
  148.7867  133.8492  154.6110 C   0  0  0  0  0  0  0  0  0  0  0  0
  148.2756  133.8285  153.2953 O   0  0  0  0  0  0  0  0  0  0  0  0
  148.5984  136.2866  154.3119 N   0  0  0  0  0  0  0  0  0  0  0  0
  148.5099  137.5940  154.5946 C   0  0  0  0  0  0  0  0  0  0  0  0
  148.3194  138.0479  155.7230 O   0  0  0  0  0  0  0  0  0  0  0  0
  148.6398  138.3507  153.4957 N   0  0  0  0  0  0  0  0  0  0  0  0
  148.6024  139.8105  153.4793 C   0  0  0  0  0  0  0  0  0  0  0  0
  149.3582  140.4873  154.6164 C   0  0  0  0  0  0  0  0  0  0  0  0
  150.3915  139.8347  155.3253 C   0  0  0  0  0  0  0  0  0  0  0  0
  151.0607  140.5118  156.3654 C   0  0  0  0  0  0  0  0  0  0  0  0
  150.6871  141.8378  156.7009 C   0  0  0  0  0  0  0  0  0  0  0  0
  151.3056  142.5974  157.7185 N   0  0  0  0  0  0  0  0  0  0  0  0
  152.2408  141.8882  158.5885 C   0  0  0  0  0  0  0  0  0  0  0  0
  152.5217  142.7060  159.8611 C   0  0  1  0  0  0  0  0  0  0  0  0
  153.6113  142.0622  160.7253 C   0  0  0  0  0  0  0  0  0  0  0  0
  152.9608  144.0141  159.5010 O   0  0  0  0  0  0  0  0  0  0  0  0
  152.0402  144.7528  158.6961 C   0  0  2  0  0  0  0  0  0  0  0  0
  150.7966  145.1939  159.4890 C   0  0  0  0  0  0  0  0  0  0  0  0
  151.7044  143.9682  157.4125 C   0  0  0  0  0  0  0  0  0  0  0  0
  149.6825  142.4138  155.9964 N   0  3  0  0  0  0  0  0  0  0  0  0
  149.0188  141.8024  154.9918 C   0  0  0  0  0  0  0  0  0  0  0  0
  149.3382  134.7216  157.2348 H   0  0  0  0  0  0  0  0  0  0  0  0
  149.1942  136.4465  156.9300 H   0  0  0  0  0  0  0  0  0  0  0  0
  150.4698  135.5174  156.1449 H   0  0  0  0  0  0  0  0  0  0  0  0
  147.4633  135.1884  155.6661 H   0  0  0  0  0  0  0  0  0  0  0  0
  149.8622  133.6781  154.5497 H   0  0  0  0  0  0  0  0  0  0  0  0
  148.3620  133.0233  155.1827 H   0  0  0  0  0  0  0  0  0  0  0  0
  148.5537  134.6152  152.8516 H   0  0  0  0  0  0  0  0  0  0  0  0
  148.7563  136.0170  153.3519 H   0  0  0  0  0  0  0  0  0  0  0  0
  148.7950  137.8870  152.6121 H   0  0  0  0  0  0  0  0  0  0  0  0
  148.9857  140.1678  152.5220 H   0  0  0  0  0  0  0  0  0  0  0  0
  147.5592  140.1231  153.5295 H   0  0  0  0  0  0  0  0  0  0  0  0
  150.6782  138.8229  155.0795 H   0  0  0  0  0  0  0  0  0  0  0  0
  151.8462  139.9922  156.8924 H   0  0  0  0  0  0  0  0  0  0  0  0
  151.8581  140.9100  158.8788 H   0  0  0  0  0  0  0  0  0  0  0  0
  153.1667  141.7172  158.0376 H   0  0  0  0  0  0  0  0  0  0  0  0
  151.6139  142.7729  160.4609 H   0  0  0  0  0  0  0  0  0  0  0  0
  153.3249  141.0569  161.0352 H   0  0  0  0  0  0  0  0  0  0  0  0
  153.7907  142.6488  161.6267 H   0  0  0  0  0  0  0  0  0  0  0  0
  154.5543  141.9895  160.1826 H   0  0  0  0  0  0  0  0  0  0  0  0
  152.5609  145.6635  158.3989 H   0  0  0  0  0  0  0  0  0  0  0  0
  150.1827  145.8734  158.8971 H   0  0  0  0  0  0  0  0  0  0  0  0
  151.0835  145.7196  160.3999 H   0  0  0  0  0  0  0  0  0  0  0  0
  150.1643  144.3530  159.7723 H   0  0  0  0  0  0  0  0  0  0  0  0
  152.5774  143.9390  156.7592 H   0  0  0  0  0  0  0  0  0  0  0  0
  150.9124  144.4910  156.8754 H   0  0  0  0  0  0  0  0  0  0  0  0
  148.2432  142.3856  154.5167 H   0  0  0  0  0  0  0  0  0  0  0  0
  149.4147  143.3688  156.2349 H   0  0  0  0  0  0  0  0  0  0  0  0
  1  2  1  0  0  0  0
  1 24  1  0  0  0  0
  1 25  1  0  0  0  0
  1 26  1  0  0  0  0
  2  3  1  0  0  0  0
  2  5  1  0  0  0  0
  2 27  1  0  0  0  0
  3  4  1  0  0  0  0
  3 28  1  0  0  0  0
  3 29  1  0  0  0  0
  4 30  1  0  0  0  0
  5  6  1  0  0  0  0
  5 31  1  0  0  0  0
  6  7  2  0  0  0  0
  6  8  1  0  0  0  0
  8  9  1  0  0  0  0
  8 32  1  0  0  0  0
  9 10  1  0  0  0  0
  9 33  1  0  0  0  0
  9 34  1  0  0  0  0
 10 23  1  0  0  0  0
 10 11  2  0  0  0  0
 11 12  1  0  0  0  0
 11 35  1  0  0  0  0
 12 13  2  0  0  0  0
 12 36  1  0  0  0  0
 13 14  1  0  0  0  0
 13 22  1  0  0  0  0
 14 21  1  0  0  0  0
 14 15  1  0  0  0  0
 15 16  1  0  0  0  0
 15 37  1  0  0  0  0
 15 38  1  0  0  0  0
 16 17  1  0  0  0  0
 16 18  1  0  0  0  0
 16 39  1  0  0  0  0
 17 40  1  0  0  0  0
 17 41  1  0  0  0  0
 17 42  1  0  0  0  0
 18 19  1  0  0  0  0
 19 20  1  0  0  0  0
 19 21  1  0  0  0  0
 19 43  1  0  0  0  0
 20 44  1  0  0  0  0
 20 45  1  0  0  0  0
 20 46  1  0  0  0  0
 21 47  1  0  0  0  0
 21 48  1  0  0  0  0
 22 23  2  0  0  0  0
 22 50  1  0  0  0  0
 23 49  1  0  0  0  0
M  CHG  1  22   1
M  END
> <s_m_source_file>
AV-unprocessed.smi

> <i_m_source_file_index>
1983

> <i_lp_mmshare_version>
43012

> <i_f3d_flags>
0

> <s_epik_input>
W09IXVtDSDJdW0NAQEhdKFtDSDNdKVtOSF1DKD1PKVtOSF1bQ0gyXWMxW2NIXVtjSF1jKG5bY0hdMSlOMltDSDJdW0NAQEhdKFtDSDNdKU9bQ0BASF0oW0NIM10pW0NIMl0y

> <s_epik_cmdline>
J2VwaWtfcHl0aG9uJywgJy1waCcsICc3LjAnLCAnLXRuJywgJzgnLCAnLW1hJywgJzIwMCcsICctbWV0YWxfYmluZGluZycsICctaW1hZScsICc8aW5maWxlLm1hZT4nLCAnLW9tYWUnLCAnPG91dGZpbGUubWFlPic=

> <r_lp_tautomer_probability>
0.999994

> <r_epik_Ionization_Penalty>
2.55677

> <r_epik_Ionization_Penalty_Charging>
2.55673

> <r_epik_Ionization_Penalty_Neutral>
3.71772e-05

> <r_epik_State_Penalty>
2.72571

> <r_epik_Charging_Adjusted_Penalty>
5.28244

> <i_epik_Tot_Q>
1

> <i_epik_Tot_abs_Q>
1

> <r_epik_Metal_State_Penalty>
2.73364

> <b_epik_Metal_Only>
0

> <s_lp_Force_Field>
OPLS_2005

> <r_lp_Energy>
21.2069

> <b_lp_Chiralities_Consistent>
1

> <s_lp_Variant>
AV-unprocessed.smi:1983-11

> <Gold.Version>
5.8.1

> <Gold.Id.Protein>
6NUR|6NUR_protein|mol2

> <Gold.PLP.Fitness>
53.7107

> <Gold.PLP.PLP>
-41.1225

> <Gold.PLP.part.hbond>
-4.5139

> <Gold.PLP.part.metal>
0.0000

> <Gold.PLP.part.buried>
0.0600

> <Gold.PLP.part.nonpolar>
-38.8075

> <Gold.PLP.part.repulsive>
0.2682

> <Gold.PLP.ligand.clash>
0.0000

> <Gold.PLP.ligand.torsion>
0.9494

> <Gold.PLP.Chemscore.Hbond>
4.6720

> <Gold.PLP.Chemscore.CHOScore>
0.0000

> <Gold.PLP.Chemscore.Metal>
0.0000

> <Gold.Chemscore.Hbonds>
donor molecule, donor type, donor heavy atom, donor atom, acceptor molecule, acceptor atom, score
      L1  H     4    30       P1  7948  0.95
      L1  H     5    31       P1  7948  0.94
      L1  H     8    32       P1  7948  0.86
      L1  H    22    50       P1  8028  1.79

> <Gold.PLP.Chemscore.Internal.Correction>
0.4710

> <Gold.Rescore>
     Score         DG    S(hbond)    S(metal)    S(lipo)     H(rot)  DE(clash)    DE(int)     intcor
     20.56     -23.62       3.61        0.00     110.18       2.66       2.14       0.92       ----

> <Gold.Chemscore.Fitness>
20.5577

> <Gold.Chemscore.DG>
-23.6207

> <Gold.Chemscore.ZeroCoef>
-5.4800

> <Gold.Chemscore.Hbond>
3.6134

> <Gold.Chemscore.Metal>
0.0000

> <Gold.Chemscore.Lipo>
110.1805

> <Gold.Chemscore.Internal_Hbond>
0.0000

> <Gold.Chemscore.DEClash>
2.1445

> <Gold.Chemscore.DEInternal>
0.9184

> <Gold.Chemscore.Rot>
2.6637

> <Gold.Chemscore.Internal.Correction>
   9.000000E+99

> <Gold.Chemscore.Hbonds>
donor molecule, donor type, donor heavy atom, donor atom, acceptor molecule, acceptor atom, score
      L1  H     4    30       P1  7948  0.22
      L1  H     5    31       P1  7948  0.89
      L1  H     8    32       P1  7948  0.86
      L1  H    22    50       P1  8028  0.85

> <Gold.Chemscore.Hbond.Weighted>
-12.0687

> <Gold.Chemscore.Metal.Weighted>
-0.0000

> <Gold.Chemscore.Lipo.Weighted>
-12.8911

> <Gold.Chemscore.Internal_Hbond.Weighted>
0.0000

> <Gold.Chemscore.DEClash.Weighted>
2.1445

> <Gold.Chemscore.DEInternal.Weighted>
0.9184

> <Gold.Chemscore.Rot.Weighted>
6.8191

> <Gold.Chemscore.Internal.Correction.Weighted>
   9.000000E+99

> <Gold.Protein.RotatedTorsions>
[ 6907 6896 6895 6894 ] final  138.89 input  -60.11 | X-H torsion
[ 7974 7965 7964 7962 ] final   26.77 input  175.53 | X-H torsion
[ 8008 7997 7996 7995 ] final   19.93 input   59.86 | X-H torsion
[ 10167 10162 10161 10158 ] final   48.34 input  -65.29 | X-H torsion
[ 10718 10713 10712 10709 ] final -154.56 input   66.30 | X-H torsion
[ 10763 10752 10751 10750 ] final -130.50 input  -60.55 | X-H torsion
[ 11005 11000 10999 10996 ] final  -17.62 input  -57.11 | X-H torsion

> <Gold.Protein.ActiveResidues>
 VAL166  LYS551  ARG553  GLY616  TRP617  ASP618  TYR619  PRO620  LYS621  CYS622 
 ASP623  PHE694  ASN695  SER759  ASP760  ASP761  ALA762  ILE779  LEU786  VAL792 
 PHE793  MET794  SER795  GLU796  ALA797  LYS798  CYS799  TRP800  GLU811  SER814 

> <Gold.Protein.RotatedAtoms>
  152.2613  133.5300  159.5383 H   0  0  0  0  0  0  0  0  0  0  0  0  # atno 6907 bound_to 6896
  150.7126  134.0826  159.3912 H   0  0  0  0  0  0  0  0  0  0  0  0  # atno 6908 bound_to 6896
  151.8743  135.0478  160.0533 H   0  0  0  0  0  0  0  0  0  0  0  0  # atno 6909 bound_to 6896
  146.1820  139.7282  142.8894 H   0  0  0  0  0  0  0  0  0  0  0  0  # atno 7974 bound_to 7965
  154.9280  140.3036  155.5182 H   0  0  0  0  0  0  0  0  0  0  0  0  # atno 8008 bound_to 7997
  156.3005  140.2359  156.4274 H   0  0  0  0  0  0  0  0  0  0  0  0  # atno 8009 bound_to 7997
  154.8265  140.0420  157.1436 H   0  0  0  0  0  0  0  0  0  0  0  0  # atno 8010 bound_to 7997
  140.2943  144.3009  150.6233 H   0  0  0  0  0  0  0  0  0  0  0  0  # atno 10167 bound_to 10162
  156.5009  130.8391  151.2609 H   0  0  0  0  0  0  0  0  0  0  0  0  # atno 10718 bound_to 10713
  154.8755  135.3860  154.4093 H   0  0  0  0  0  0  0  0  0  0  0  0  # atno 10763 bound_to 10752
  153.4808  135.7030  153.5944 H   0  0  0  0  0  0  0  0  0  0  0  0  # atno 10764 bound_to 10752
  153.4360  135.3867  155.2167 H   0  0  0  0  0  0  0  0  0  0  0  0  # atno 10765 bound_to 10752
  140.8186  133.8085  155.9636 H   0  0  0  0  0  0  0  0  0  0  0  0  # atno 11005 bound_to 11000
  145.4050  141.0390  143.3049 LP  0  0  0  0  0  0  0  0  0  0  0  0  # atno 17320 bound_to 7965
  144.8331  139.5596  143.6935 LP  0  0  0  0  0  0  0  0  0  0  0  0  # atno 17321 bound_to 7965
  140.5706  143.2181  151.7606 LP  0  0  0  0  0  0  0  0  0  0  0  0  # atno 17342 bound_to 10162
  139.4930  144.4222  151.9965 LP  0  0  0  0  0  0  0  0  0  0  0  0  # atno 17343 bound_to 10162
  157.7463  130.9982  150.2843 LP  0  0  0  0  0  0  0  0  0  0  0  0  # atno 17370 bound_to 10713
  156.3333  130.3804  149.7472 LP  0  0  0  0  0  0  0  0  0  0  0  0  # atno 17371 bound_to 10713
  140.9123  134.2246  157.4978 LP  0  0  0  0  0  0  0  0  0  0  0  0  # atno 17394 bound_to 11000
  139.8709  134.9755  156.4887 LP  0  0  0  0  0  0  0  0  0  0  0  0  # atno 17395 bound_to 11000

$$$$
