AV-unprocessed.smi:3056|AV-procd|sdf|11649|dock10
  -GOLD-   2272017 43D 1   1.00000     0.00000
 Structure written by MMmdl.
 48 49  0  0  0  0  0  0  0  0  2 V2000
  148.9857  134.2465  155.7025 C   0  0  0  0  0  0  0  0  0  0  0  0
  149.2130  135.7252  155.8326 C   0  0  0  0  0  0  0  0  0  0  0  0
  148.5714  136.6326  156.7223 C   0  0  0  0  0  0  0  0  0  0  0  0
  149.0017  137.8758  156.5859 N   0  0  0  0  0  0  0  0  0  0  0  0
  149.9316  137.8090  155.6073 N   0  0  0  0  0  0  0  0  0  0  0  0
  150.6371  139.0122  155.1847 C   0  0  2  0  0  0  0  0  0  0  0  0
  152.1056  138.9410  155.6453 C   0  0  0  0  0  0  0  0  0  0  0  0
  149.9037  140.3036  155.6434 C   0  0  2  0  0  0  0  0  0  0  0  0
  148.9686  140.8678  154.5575 C   0  0  0  0  0  0  0  0  0  0  0  0
  150.8734  141.3573  156.0287 N   0  3  0  0  0  0  0  0  0  0  0  0
  150.5354  142.1221  157.2524 C   0  0  0  0  0  0  0  0  0  0  0  0
  151.3995  141.7437  158.4682 C   0  0  0  0  0  0  0  0  0  0  0  0
  151.3297  140.5962  158.9112 O   0  0  0  0  0  0  0  0  0  0  0  0
  152.2039  142.6828  159.0211 N   0  0  0  0  0  0  0  0  0  0  0  0
  152.2960  144.0893  158.6172 C   0  0  0  0  0  0  0  0  0  0  0  0
  151.8186  144.9629  159.7906 C   0  0  0  0  0  0  0  0  0  0  0  0
  152.6039  144.6850  160.9473 O   0  0  0  0  0  0  0  0  0  0  0  0
  152.5492  143.3188  161.3540 C   0  0  2  0  0  0  0  0  0  0  0  0
  153.4058  143.1583  162.6146 C   0  0  0  0  0  0  0  0  0  0  0  0
  153.0432  142.4288  160.1959 C   0  0  0  0  0  0  0  0  0  0  0  0
  150.0794  136.5205  155.1375 C   0  0  0  0  0  0  0  0  0  0  0  0
  148.0069  133.9531  156.0826 H   0  0  0  0  0  0  0  0  0  0  0  0
  149.7306  133.6762  156.2575 H   0  0  0  0  0  0  0  0  0  0  0  0
  149.0373  133.9193  154.6637 H   0  0  0  0  0  0  0  0  0  0  0  0
  147.8099  136.4254  157.4597 H   0  0  0  0  0  0  0  0  0  0  0  0
  150.6398  139.0022  154.0934 H   0  0  0  0  0  0  0  0  0  0  0  0
  152.7035  139.7399  155.2073 H   0  0  0  0  0  0  0  0  0  0  0  0
  152.5632  137.9985  155.3426 H   0  0  0  0  0  0  0  0  0  0  0  0
  152.1897  139.0154  156.7302 H   0  0  0  0  0  0  0  0  0  0  0  0
  149.2783  140.0660  156.5057 H   0  0  0  0  0  0  0  0  0  0  0  0
  148.1661  140.1726  154.3107 H   0  0  0  0  0  0  0  0  0  0  0  0
  149.5142  141.0865  153.6390 H   0  0  0  0  0  0  0  0  0  0  0  0
  148.4954  141.7923  154.8891 H   0  0  0  0  0  0  0  0  0  0  0  0
  151.7746  140.9197  156.1537 H   0  0  0  0  0  0  0  0  0  0  0  0
  150.6130  143.1902  157.0492 H   0  0  0  0  0  0  0  0  0  0  0  0
  149.4943  141.9108  157.4981 H   0  0  0  0  0  0  0  0  0  0  0  0
  153.3331  144.3250  158.3734 H   0  0  0  0  0  0  0  0  0  0  0  0
  151.7171  144.3354  157.7289 H   0  0  0  0  0  0  0  0  0  0  0  0
  151.9205  146.0190  159.5408 H   0  0  0  0  0  0  0  0  0  0  0  0
  150.7634  144.7848  160.0040 H   0  0  0  0  0  0  0  0  0  0  0  0
  151.5167  143.0633  161.5990 H   0  0  0  0  0  0  0  0  0  0  0  0
  153.3874  142.1291  162.9734 H   0  0  0  0  0  0  0  0  0  0  0  0
  153.0390  143.7967  163.4187 H   0  0  0  0  0  0  0  0  0  0  0  0
  154.4448  143.4276  162.4230 H   0  0  0  0  0  0  0  0  0  0  0  0
  153.0343  141.3825  160.5045 H   0  0  0  0  0  0  0  0  0  0  0  0
  154.0813  142.6613  159.9531 H   0  0  0  0  0  0  0  0  0  0  0  0
  150.7816  136.2768  154.3537 H   0  0  0  0  0  0  0  0  0  0  0  0
  150.9423  142.0202  155.2692 H   0  0  0  0  0  0  0  0  0  0  0  0
  1  2  1  0  0  0  0
  1 22  1  0  0  0  0
  1 23  1  0  0  0  0
  1 24  1  0  0  0  0
  2 21  2  0  0  0  0
  2  3  1  0  0  0  0
  3  4  2  0  0  0  0
  3 25  1  0  0  0  0
  4  5  1  0  0  0  0
  5  6  1  0  0  0  0
  5 21  1  0  0  0  0
  6  7  1  0  0  0  0
  6  8  1  0  0  0  0
  6 26  1  0  0  0  0
  7 27  1  0  0  0  0
  7 28  1  0  0  0  0
  7 29  1  0  0  0  0
  8  9  1  0  0  0  0
  8 10  1  0  0  0  0
  8 30  1  0  0  0  0
  9 31  1  0  0  0  0
  9 32  1  0  0  0  0
  9 33  1  0  0  0  0
 10 11  1  0  0  0  0
 10 34  1  0  0  0  0
 10 48  1  0  0  0  0
 11 12  1  0  0  0  0
 11 35  1  0  0  0  0
 11 36  1  0  0  0  0
 12 13  2  0  0  0  0
 12 14  1  0  0  0  0
 14 20  1  0  0  0  0
 14 15  1  0  0  0  0
 15 16  1  0  0  0  0
 15 37  1  0  0  0  0
 15 38  1  0  0  0  0
 16 17  1  0  0  0  0
 16 39  1  0  0  0  0
 16 40  1  0  0  0  0
 17 18  1  0  0  0  0
 18 19  1  0  0  0  0
 18 20  1  0  0  0  0
 18 41  1  0  0  0  0
 19 42  1  0  0  0  0
 19 43  1  0  0  0  0
 19 44  1  0  0  0  0
 20 45  1  0  0  0  0
 20 46  1  0  0  0  0
 21 47  1  0  0  0  0
M  CHG  1  10   1
M  END
> <s_m_source_file>
AV-unprocessed.smi

> <i_m_source_file_index>
3056

> <i_lp_mmshare_version>
43012

> <i_f3d_flags>
0

> <s_epik_input>
W0NIM11jMVtjSF1ubihbY0hdMSlbQ0BIXShbQ0gzXSlbQ0BIXShbQ0gzXSlbTkhdW0NIMl1DKD1PKU4yW0NIMl1bQ0gyXU9bQ0BASF0oW0NIM10pW0NIMl0y

> <s_epik_cmdline>
J2VwaWtfcHl0aG9uJywgJy1waCcsICc3LjAnLCAnLXRuJywgJzgnLCAnLW1hJywgJzIwMCcsICctbWV0YWxfYmluZGluZycsICctaW1hZScsICc8aW5maWxlLm1hZT4nLCAnLW9tYWUnLCAnPG91dGZpbGUubWFlPic=

> <r_lp_tautomer_probability>
1

> <r_epik_Ionization_Penalty>
0.233715

> <r_epik_Ionization_Penalty_Charging>
0.233698

> <r_epik_Ionization_Penalty_Neutral>
1.68157e-05

> <r_epik_State_Penalty>
0.225221

> <r_epik_Charging_Adjusted_Penalty>
0.458919

> <i_epik_Tot_Q>
1

> <i_epik_Tot_abs_Q>
1

> <r_epik_Metal_State_Penalty>
0.225535

> <b_epik_Metal_Only>
0

> <s_lp_Force_Field>
OPLS_2005

> <r_lp_Energy>
28.5623

> <b_lp_Chiralities_Consistent>
1

> <s_lp_Variant>
AV-unprocessed.smi:3056-5

> <Gold.Version>
5.8.1

> <Gold.Id.Protein>
6NUR|6NUR_protein|mol2

> <Gold.PLP.Fitness>
45.5706

> <Gold.PLP.PLP>
-47.4915

> <Gold.PLP.part.hbond>
0.0000

> <Gold.PLP.part.metal>
0.0000

> <Gold.PLP.part.buried>
-4.4254

> <Gold.PLP.part.nonpolar>
-43.7133

> <Gold.PLP.part.repulsive>
0.3453

> <Gold.PLP.ligand.clash>
0.3875

> <Gold.PLP.ligand.torsion>
2.2803

> <Gold.PLP.Chemscore.Hbond>
0.0000

> <Gold.PLP.Chemscore.CHOScore>
0.9798

> <Gold.PLP.Chemscore.Metal>
0.0000

> <Gold.Chemscore.Hbonds>
donor molecule, donor type, donor heavy atom, donor atom, acceptor molecule, acceptor atom, score
      L1  C    21    47       P1  7949  0.07

> <Gold.PLP.Chemscore.Internal.Correction>
0.0877

> <Gold.Rescore>
     Score         DG    S(hbond)    S(metal)    S(lipo)     H(rot)  DE(clash)    DE(int)     intcor
     12.70     -14.47       0.00        0.00     114.80       1.74       0.09       1.68       ----

> <Gold.Chemscore.Fitness>
12.7029

> <Gold.Chemscore.DG>
-14.4690

> <Gold.Chemscore.ZeroCoef>
-5.4800

> <Gold.Chemscore.Hbond>
0.0000

> <Gold.Chemscore.Metal>
0.0000

> <Gold.Chemscore.Lipo>
114.7998

> <Gold.Chemscore.Internal_Hbond>
0.0000

> <Gold.Chemscore.DEClash>
0.0891

> <Gold.Chemscore.DEInternal>
1.6769

> <Gold.Chemscore.Rot>
1.7354

> <Gold.Chemscore.Internal.Correction>
   9.000000E+99

> <Gold.Chemscore.Hbond.Weighted>
-0.0000

> <Gold.Chemscore.Metal.Weighted>
-0.0000

> <Gold.Chemscore.Lipo.Weighted>
-13.4316

> <Gold.Chemscore.Internal_Hbond.Weighted>
0.0000

> <Gold.Chemscore.DEClash.Weighted>
0.0891

> <Gold.Chemscore.DEInternal.Weighted>
1.6769

> <Gold.Chemscore.Rot.Weighted>
4.4426

> <Gold.Chemscore.Internal.Correction.Weighted>
   9.000000E+99

> <Gold.Protein.RotatedTorsions>
[ 6907 6896 6895 6894 ] final  -78.56 input  -60.11 | X-H torsion
[ 7974 7965 7964 7962 ] final -143.12 input  175.53 | X-H torsion
[ 8008 7997 7996 7995 ] final -165.58 input   59.86 | X-H torsion
[ 10167 10162 10161 10158 ] final  130.06 input  -65.29 | X-H torsion
[ 10718 10713 10712 10709 ] final   61.30 input   66.30 | X-H torsion
[ 10763 10752 10751 10750 ] final   70.15 input  -60.55 | X-H torsion
[ 11005 11000 10999 10996 ] final -172.24 input  -57.11 | X-H torsion

> <Gold.Protein.ActiveResidues>
 VAL166  LYS551  ARG553  GLY616  TRP617  ASP618  TYR619  PRO620  LYS621  CYS622 
 ASP623  PHE694  ASN695  SER759  ASP760  ASP761  ALA762  ILE779  LEU786  VAL792 
 PHE793  MET794  SER795  GLU796  ALA797  LYS798  CYS799  TRP800  GLU811  SER814 

> <Gold.Protein.RotatedAtoms>
  150.6970  134.4254  159.5223 H   0  0  0  0  0  0  0  0  0  0  0  0  # atno 6907 bound_to 6896
  152.1990  134.8602  160.0519 H   0  0  0  0  0  0  0  0  0  0  0  0  # atno 6908 bound_to 6896
  151.9529  133.3636  159.4043 H   0  0  0  0  0  0  0  0  0  0  0  0  # atno 6909 bound_to 6896
  144.8393  140.5873  143.5463 H   0  0  0  0  0  0  0  0  0  0  0  0  # atno 7974 bound_to 7965
  155.8518  140.0964  157.1670 H   0  0  0  0  0  0  0  0  0  0  0  0  # atno 8008 bound_to 7997
  154.3986  140.1381  156.3915 H   0  0  0  0  0  0  0  0  0  0  0  0  # atno 8009 bound_to 7997
  155.7953  140.3454  155.5374 H   0  0  0  0  0  0  0  0  0  0  0  0  # atno 8010 bound_to 7997
  139.5448  144.6763  151.4508 H   0  0  0  0  0  0  0  0  0  0  0  0  # atno 10167 bound_to 10162
  157.5818  130.8987  149.9444 H   0  0  0  0  0  0  0  0  0  0  0  0  # atno 10718 bound_to 10713
  153.0326  135.5184  154.7397 H   0  0  0  0  0  0  0  0  0  0  0  0  # atno 10763 bound_to 10752
  154.6400  135.2911  155.0117 H   0  0  0  0  0  0  0  0  0  0  0  0  # atno 10764 bound_to 10752
  154.1038  135.6632  153.4925 H   0  0  0  0  0  0  0  0  0  0  0  0  # atno 10765 bound_to 10752
  140.4992  134.5910  157.4982 H   0  0  0  0  0  0  0  0  0  0  0  0  # atno 11005 bound_to 11000
  145.4729  139.1502  143.3804 LP  0  0  0  0  0  0  0  0  0  0  0  0  # atno 17320 bound_to 7965
  146.2687  140.4863  142.8823 LP  0  0  0  0  0  0  0  0  0  0  0  0  # atno 17321 bound_to 7965
  140.6692  143.8331  150.6978 LP  0  0  0  0  0  0  0  0  0  0  0  0  # atno 17342 bound_to 10162
  140.1750  143.4163  152.1974 LP  0  0  0  0  0  0  0  0  0  0  0  0  # atno 17343 bound_to 10162
  156.0864  130.3667  150.0479 LP  0  0  0  0  0  0  0  0  0  0  0  0  # atno 17370 bound_to 10713
  156.8617  130.9494  151.3617 LP  0  0  0  0  0  0  0  0  0  0  0  0  # atno 17371 bound_to 10713
  139.9723  134.7272  156.0016 LP  0  0  0  0  0  0  0  0  0  0  0  0  # atno 17394 bound_to 11000
  141.1444  133.6558  156.3825 LP  0  0  0  0  0  0  0  0  0  0  0  0  # atno 17395 bound_to 11000

$$$$
