AV-unprocessed.smi:496|AV-procd|sdf|2723|dock6
  -GOLD-   2262023173D 1   1.00000     0.00000
 Structure written by MMmdl.
 42 44  0  0  0  0  0  0  0  0  3 V2000
  148.2327  141.1520  153.8411 C   0  0  0  0  0  0  0  0  0  0  0  0
  147.8719  141.0006  155.2027 O   0  0  0  0  0  0  0  0  0  0  0  0
  148.9286  140.4729  155.9852 C   0  0  0  0  0  0  0  0  0  0  0  0
  149.0880  141.3292  157.2475 C   0  0  0  0  0  0  0  0  0  0  0  0
  150.2351  140.8875  158.0644 N   0  0  0  0  0  0  0  0  0  0  0  0
  150.6272  139.6423  158.4893 C   0  0  0  0  0  0  0  0  0  0  0  0
  149.9773  138.3103  158.2185 C   0  0  1  0  0  0  0  0  0  0  0  0
  150.9481  137.3940  157.4592 C   0  0  0  0  0  0  0  0  0  0  0  0
  149.5637  137.6590  159.4631 N   0  5  0  0  0  0  0  0  0  0  0  0
  149.1798  136.3548  159.5605 C   0  0  0  0  0  0  0  0  0  0  0  0
  149.3706  135.4167  158.7794 O   0  0  0  0  0  0  0  0  0  0  0  0
  148.4268  136.0828  160.8078 C   0  0  0  0  0  0  0  0  0  0  0  0
  148.1323  134.8914  161.4165 C   0  0  0  0  0  0  0  0  0  0  0  0
  147.3810  135.1998  162.5842 C   0  0  0  0  0  0  0  0  0  0  0  0
  147.2701  136.5600  162.6106 C   0  0  0  0  0  0  0  0  0  0  0  0
  147.8992  137.1131  161.5390 O   0  0  0  0  0  0  0  0  0  0  0  0
  151.7654  139.8157  159.2218 N   0  3  0  0  0  0  0  0  0  0  0  0
  152.0953  141.1675  159.2884 C   0  0  0  0  0  0  0  0  0  0  0  0
  153.1480  141.8169  159.9250 C   0  0  0  0  0  0  0  0  0  0  0  0
  153.1915  143.2209  159.8017 C   0  0  0  0  0  0  0  0  0  0  0  0
  152.2128  143.9236  159.0694 C   0  0  0  0  0  0  0  0  0  0  0  0
  151.1506  143.2527  158.4281 C   0  0  0  0  0  0  0  0  0  0  0  0
  151.1156  141.8633  158.5519 C   0  0  0  0  0  0  0  0  0  0  0  0
  147.3872  141.5488  153.2793 H   0  0  0  0  0  0  0  0  0  0  0  0
  148.5126  140.1956  153.3975 H   0  0  0  0  0  0  0  0  0  0  0  0
  149.0660  141.8471  153.7299 H   0  0  0  0  0  0  0  0  0  0  0  0
  148.7108  139.4379  156.2536 H   0  0  0  0  0  0  0  0  0  0  0  0
  149.8580  140.4766  155.4131 H   0  0  0  0  0  0  0  0  0  0  0  0
  149.2355  142.3757  156.9796 H   0  0  0  0  0  0  0  0  0  0  0  0
  148.1838  141.3039  157.8554 H   0  0  0  0  0  0  0  0  0  0  0  0
  149.1241  138.5022  157.5664 H   0  0  0  0  0  0  0  0  0  0  0  0
  151.2592  137.8503  156.5189 H   0  0  0  0  0  0  0  0  0  0  0  0
  150.4826  136.4371  157.2199 H   0  0  0  0  0  0  0  0  0  0  0  0
  151.8473  137.1909  158.0424 H   0  0  0  0  0  0  0  0  0  0  0  0
  148.4226  133.9136  161.0615 H   0  0  0  0  0  0  0  0  0  0  0  0
  146.9743  134.5135  163.3118 H   0  0  0  0  0  0  0  0  0  0  0  0
  146.8014  137.2624  163.2836 H   0  0  0  0  0  0  0  0  0  0  0  0
  153.8956  141.2785  160.4890 H   0  0  0  0  0  0  0  0  0  0  0  0
  153.9898  143.7694  160.2802 H   0  0  0  0  0  0  0  0  0  0  0  0
  152.2772  144.9998  158.9983 H   0  0  0  0  0  0  0  0  0  0  0  0
  150.4053  143.8023  157.8731 H   0  0  0  0  0  0  0  0  0  0  0  0
  152.2584  139.0475  159.6589 H   0  0  0  0  0  0  0  0  0  0  0  0
  1  2  1  0  0  0  0
  1 24  1  0  0  0  0
  1 25  1  0  0  0  0
  1 26  1  0  0  0  0
  2  3  1  0  0  0  0
  3  4  1  0  0  0  0
  3 27  1  0  0  0  0
  3 28  1  0  0  0  0
  4  5  1  0  0  0  0
  4 29  1  0  0  0  0
  4 30  1  0  0  0  0
  5 23  1  0  0  0  0
  5  6  1  0  0  0  0
  6  7  1  0  0  0  0
  6 17  2  0  0  0  0
  7  8  1  0  0  0  0
  7  9  1  0  0  0  0
  7 31  1  0  0  0  0
  8 32  1  0  0  0  0
  8 33  1  0  0  0  0
  8 34  1  0  0  0  0
  9 10  1  0  0  0  0
 10 11  2  0  0  0  0
 10 12  1  0  0  0  0
 12 16  1  0  0  0  0
 12 13  2  0  0  0  0
 13 14  1  0  0  0  0
 13 35  1  0  0  0  0
 14 15  2  0  0  0  0
 14 36  1  0  0  0  0
 15 16  1  0  0  0  0
 15 37  1  0  0  0  0
 17 18  1  0  0  0  0
 17 42  1  0  0  0  0
 18 23  2  0  0  0  0
 18 19  1  0  0  0  0
 19 20  2  0  0  0  0
 19 38  1  0  0  0  0
 20 21  1  0  0  0  0
 20 39  1  0  0  0  0
 21 22  2  0  0  0  0
 21 40  1  0  0  0  0
 22 23  1  0  0  0  0
 22 41  1  0  0  0  0
M  CHG  1   9  -1
M  CHG  1  17   1
M  END
> <s_m_source_file>
AV-unprocessed.smi

> <i_m_source_file_index>
496

> <i_lp_mmshare_version>
43012

> <i_f3d_flags>
0

> <s_epik_input>
W2NIXTFbY0hdW2NIXVtjSF1jKGMxMiluKFtDSDJdW0NIMl1PW0NIM10pYyhuMilbQ0BIXShbQ0gzXSlbTkhdQyg9TyljM1tjSF1bY0hdW2NIXW8z

> <s_epik_cmdline>
J2VwaWtfcHl0aG9uJywgJy1waCcsICc3LjAnLCAnLXRuJywgJzgnLCAnLW1hJywgJzIwMCcsICctbWV0YWxfYmluZGluZycsICctaW1hZScsICc8aW5maWxlLm1hZT4nLCAnLW9tYWUnLCAnPG91dGZpbGUubWFlPic=

> <r_epik_Ionization_Penalty>
6.2189

> <r_epik_Ionization_Penalty_Charging>
6.2189

> <r_epik_Ionization_Penalty_Neutral>
2.56052e-12

> <r_epik_State_Penalty>
7.14475

> <r_epik_Charging_Adjusted_Penalty>
13.3636

> <i_epik_Tot_Q>
0

> <i_epik_Tot_abs_Q>
2

> <r_epik_Metal_State_Penalty>
3.17915

> <b_epik_Metal_Only>
1

> <s_lp_Force_Field>
OPLS_2005

> <r_lp_Energy>
11.4028

> <b_lp_Chiralities_Consistent>
1

> <s_lp_Variant>
AV-unprocessed.smi:496-8

> <Gold.Version>
5.8.1

> <Gold.Id.Protein>
6NUR|6NUR_protein|mol2

> <Gold.PLP.Fitness>
51.9750

> <Gold.PLP.PLP>
-45.2137

> <Gold.PLP.part.hbond>
-4.0000

> <Gold.PLP.part.metal>
0.0000

> <Gold.PLP.part.buried>
-5.3197

> <Gold.PLP.part.nonpolar>
-35.4725

> <Gold.PLP.part.repulsive>
0.2634

> <Gold.PLP.ligand.clash>
0.0000

> <Gold.PLP.ligand.torsion>
0.8437

> <Gold.PLP.Chemscore.Hbond>
2.7600

> <Gold.PLP.Chemscore.CHOScore>
0.0000

> <Gold.PLP.Chemscore.Metal>
0.0000

> <Gold.Chemscore.Hbonds>
donor molecule, donor type, donor heavy atom, donor atom, acceptor molecule, acceptor atom, score
      P1  H  6896  6907       L1    11  1.00
      P1  H  6931  6943       L1    16  1.00
      P1  H  6934  6947       L1    16  0.54

> <Gold.PLP.Chemscore.Internal.Correction>
0.1686

> <Gold.Rescore>
     Score         DG    S(hbond)    S(metal)    S(lipo)     H(rot)  DE(clash)    DE(int)     intcor
     18.49     -20.60       1.98        0.00     112.97       1.83       0.02       2.09       ----

> <Gold.Chemscore.Fitness>
18.4903

> <Gold.Chemscore.DG>
-20.6045

> <Gold.Chemscore.ZeroCoef>
-5.4800

> <Gold.Chemscore.Hbond>
1.9768

> <Gold.Chemscore.Metal>
0.0000

> <Gold.Chemscore.Lipo>
112.9719

> <Gold.Chemscore.Internal_Hbond>
0.0000

> <Gold.Chemscore.DEClash>
0.0222

> <Gold.Chemscore.DEInternal>
2.0919

> <Gold.Chemscore.Rot>
1.8343

> <Gold.Chemscore.Internal.Correction>
   9.000000E+99

> <Gold.Chemscore.Hbonds>
donor molecule, donor type, donor heavy atom, donor atom, acceptor molecule, acceptor atom, score
      P1  H  6896  6907       L1    11  0.65
      P1  H  6931  6943       L1    16  0.73
      P1  H  6934  6947       L1    16  0.50

> <Gold.Chemscore.Hbond.Weighted>
-6.6025

> <Gold.Chemscore.Metal.Weighted>
-0.0000

> <Gold.Chemscore.Lipo.Weighted>
-13.2177

> <Gold.Chemscore.Internal_Hbond.Weighted>
0.0000

> <Gold.Chemscore.DEClash.Weighted>
0.0222

> <Gold.Chemscore.DEInternal.Weighted>
2.0919

> <Gold.Chemscore.Rot.Weighted>
4.6958

> <Gold.Chemscore.Internal.Correction.Weighted>
   9.000000E+99

> <Gold.Protein.RotatedTorsions>
[ 6907 6896 6895 6894 ] final  -83.45 input  -60.11 | X-H torsion
[ 7974 7965 7964 7962 ] final  157.07 input  175.53 | X-H torsion
[ 8008 7997 7996 7995 ] final -157.13 input   59.86 | X-H torsion
[ 10167 10162 10161 10158 ] final   69.27 input  -65.29 | X-H torsion
[ 10718 10713 10712 10709 ] final  -47.99 input   66.30 | X-H torsion
[ 10763 10752 10751 10750 ] final  -42.64 input  -60.55 | X-H torsion
[ 11005 11000 10999 10996 ] final   47.61 input  -57.11 | X-H torsion

> <Gold.Protein.ActiveResidues>
 VAL166  LYS551  ARG553  GLY616  TRP617  ASP618  TYR619  PRO620  LYS621  CYS622 
 ASP623  PHE694  ASN695  SER759  ASP760  ASP761  ALA762  ILE779  LEU786  VAL792 
 PHE793  MET794  SER795  GLU796  ALA797  LYS798  CYS799  TRP800  GLU811  SER814 

> <Gold.Protein.RotatedAtoms>
  150.6885  134.3510  159.4908 H   0  0  0  0  0  0  0  0  0  0  0  0  # atno 6907 bound_to 6896
  152.1351  134.9102  160.0566 H   0  0  0  0  0  0  0  0  0  0  0  0  # atno 6908 bound_to 6896
  152.0257  133.3882  159.4313 H   0  0  0  0  0  0  0  0  0  0  0  0  # atno 6909 bound_to 6896
  144.7925  139.7289  143.6215 H   0  0  0  0  0  0  0  0  0  0  0  0  # atno 7974 bound_to 7965
  155.7278  140.0798  157.2302 H   0  0  0  0  0  0  0  0  0  0  0  0  # atno 8008 bound_to 7997
  154.4037  140.1601  156.2529 H   0  0  0  0  0  0  0  0  0  0  0  0  # atno 8009 bound_to 7997
  155.9137  140.3402  155.6121 H   0  0  0  0  0  0  0  0  0  0  0  0  # atno 8010 bound_to 7997
  140.0696  144.5163  150.7236 H   0  0  0  0  0  0  0  0  0  0  0  0  # atno 10167 bound_to 10162
  156.2031  130.4157  149.9214 H   0  0  0  0  0  0  0  0  0  0  0  0  # atno 10718 bound_to 10713
  153.9824  135.6715  153.4750 H   0  0  0  0  0  0  0  0  0  0  0  0  # atno 10763 bound_to 10752
  153.0742  135.4957  154.8366 H   0  0  0  0  0  0  0  0  0  0  0  0  # atno 10764 bound_to 10752
  154.7157  135.3106  154.9089 H   0  0  0  0  0  0  0  0  0  0  0  0  # atno 10765 bound_to 10752
  140.1264  134.4763  155.8556 H   0  0  0  0  0  0  0  0  0  0  0  0  # atno 11005 bound_to 11000
  146.2182  139.5588  142.9636 LP  0  0  0  0  0  0  0  0  0  0  0  0  # atno 17320 bound_to 7965
  145.5757  141.0389  143.2150 LP  0  0  0  0  0  0  0  0  0  0  0  0  # atno 17321 bound_to 7965
  140.7132  143.2522  151.4517 LP  0  0  0  0  0  0  0  0  0  0  0  0  # atno 17342 bound_to 10162
  139.5844  144.1638  152.2010 LP  0  0  0  0  0  0  0  0  0  0  0  0  # atno 17343 bound_to 10162
  156.6917  130.8898  151.3589 LP  0  0  0  0  0  0  0  0  0  0  0  0  # atno 17370 bound_to 10713
  157.6997  130.9320  150.0748 LP  0  0  0  0  0  0  0  0  0  0  0  0  # atno 17371 bound_to 10713
  141.2162  133.6779  156.6986 LP  0  0  0  0  0  0  0  0  0  0  0  0  # atno 17394 bound_to 11000
  140.2899  134.8249  157.4007 LP  0  0  0  0  0  0  0  0  0  0  0  0  # atno 17395 bound_to 11000

$$$$
