AV-unprocessed.smi:2750|AV-procd|sdf|10594|dock1
  -GOLD-   2272015 43D 1   1.00000     0.00000
 Structure written by MMmdl.
 24 25  0  0  0  0  0  0  0  0  3 V2000
  148.8318  136.7518  161.2890 O   0  0  0  0  0  0  0  0  0  0  0  0
  147.6845  136.6085  161.7666 C   0  0  0  0  0  0  0  0  0  0  0  0
  146.6833  137.2971  161.4702 O   0  5  0  0  0  0  0  0  0  0  0  0
  147.4767  135.4759  162.7744 C   0  0  0  0  0  0  0  0  0  0  0  0
  146.5218  134.4810  162.3177 N   0  0  0  0  0  0  0  0  0  0  0  0
  146.6050  133.6518  161.2177 C   0  0  0  0  0  0  0  0  0  0  0  0
  145.4575  132.9141  161.2876 C   0  0  0  0  0  0  0  0  0  0  0  0
  144.9729  131.8202  160.3820 C   0  0  0  0  0  0  0  0  0  0  0  0
  143.5899  132.1136  159.7610 C   0  0  1  0  0  0  0  0  0  0  0  0
  143.4822  133.4922  159.3120 N   0  5  0  0  0  0  0  0  0  0  0  0
  143.2069  133.4926  157.9866 C   0  0  0  0  0  0  0  0  0  0  0  0
  143.0345  134.4643  157.2541 O   0  0  0  0  0  0  0  0  0  0  0  0
  143.1406  132.2427  157.5169 N   0  0  0  0  0  0  0  0  0  0  0  0
  143.3654  131.3465  158.4722 C   0  0  0  0  0  0  0  0  0  0  0  0
  143.3902  130.1219  158.3564 O   0  0  0  0  0  0  0  0  0  0  0  0
  144.7300  133.3238  162.4051 N   0  0  0  0  0  0  0  0  0  0  0  0
  145.3792  134.2661  163.0142 N   0  0  0  0  0  0  0  0  0  0  0  0
  148.4255  134.9769  162.9766 H   0  0  0  0  0  0  0  0  0  0  0  0
  147.1324  135.8957  163.7206 H   0  0  0  0  0  0  0  0  0  0  0  0
  147.4291  133.6576  160.5202 H   0  0  0  0  0  0  0  0  0  0  0  0
  145.7059  131.6378  159.5944 H   0  0  0  0  0  0  0  0  0  0  0  0
  144.9242  130.8906  160.9507 H   0  0  0  0  0  0  0  0  0  0  0  0
  142.7998  131.8365  160.4603 H   0  0  0  0  0  0  0  0  0  0  0  0
  142.9536  132.0099  156.5532 H   0  0  0  0  0  0  0  0  0  0  0  0
  1  2  2  0  0  0  0
  2  3  1  0  0  0  0
  2  4  1  0  0  0  0
  4  5  1  0  0  0  0
  4 18  1  0  0  0  0
  4 19  1  0  0  0  0
  5 17  1  0  0  0  0
  5  6  1  0  0  0  0
  6  7  2  0  0  0  0
  6 20  1  0  0  0  0
  7  8  1  0  0  0  0
  7 16  1  0  0  0  0
  8  9  1  0  0  0  0
  8 21  1  0  0  0  0
  8 22  1  0  0  0  0
  9 14  1  0  0  0  0
  9 10  1  0  0  0  0
  9 23  1  0  0  0  0
 10 11  1  0  0  0  0
 11 12  2  0  0  0  0
 11 13  1  0  0  0  0
 13 14  1  0  0  0  0
 13 24  1  0  0  0  0
 14 15  2  0  0  0  0
 16 17  2  0  0  0  0
M  CHG  1   3  -1
M  CHG  1  10  -1
M  END
> <s_m_source_file>
AV-unprocessed.smi

> <i_m_source_file_index>
2750

> <i_lp_mmshare_version>
43012

> <i_f3d_flags>
0

> <s_epik_input>
Tz1DKFtPSF0pW0NIMl1uMVtjSF1jKG5uMSlbQ0gyXVtDQEBIXTJbTkhdQyg9TylbTkhdQzI9Tw==

> <s_epik_cmdline>
J2VwaWtfcHl0aG9uJywgJy1waCcsICc3LjAnLCAnLXRuJywgJzgnLCAnLW1hJywgJzIwMCcsICctbWV0YWxfYmluZGluZycsICctaW1hZScsICc8aW5maWxlLm1hZT4nLCAnLW9tYWUnLCAnPG91dGZpbGUubWFlPic=

> <r_lp_tautomer_probability>
1

> <r_epik_Ionization_Penalty>
5.10791

> <r_epik_Ionization_Penalty_Charging>
5.10788

> <r_epik_Ionization_Penalty_Neutral>
2.55687e-05

> <r_epik_State_Penalty>
5.12334

> <r_epik_Charging_Adjusted_Penalty>
10.2312

> <i_epik_Tot_Q>
-2

> <i_epik_Tot_abs_Q>
2

> <r_epik_Metal_State_Penalty>
1.50935

> <b_epik_Metal_Only>
1

> <s_lp_Force_Field>
OPLS_2005

> <r_lp_Energy>
16.7857

> <b_lp_Chiralities_Consistent>
1

> <s_lp_Variant>
AV-unprocessed.smi:2750-6

> <Gold.Version>
5.8.1

> <Gold.Id.Protein>
6NUR|6NUR_protein|mol2

> <Gold.PLP.Fitness>
42.3856

> <Gold.PLP.PLP>
-24.7695

> <Gold.PLP.part.hbond>
-5.0554

> <Gold.PLP.part.metal>
0.0000

> <Gold.PLP.part.buried>
-4.4850

> <Gold.PLP.part.nonpolar>
-16.1706

> <Gold.PLP.part.repulsive>
0.3307

> <Gold.PLP.ligand.clash>
0.0000

> <Gold.PLP.ligand.torsion>
0.2091

> <Gold.PLP.Chemscore.Hbond>
6.0000

> <Gold.PLP.Chemscore.CHOScore>
0.0000

> <Gold.PLP.Chemscore.Metal>
0.0000

> <Gold.Chemscore.Hbonds>
donor molecule, donor type, donor heavy atom, donor atom, acceptor molecule, acceptor atom, score
      L1  H    13    24       P1 10957  1.00
      P1  H  6931  6943       L1     1  1.50
      P1  H  6934  6947       L1     3  2.00
      P1  H 11000 11005       L1    12  0.23

> <Gold.PLP.Chemscore.Internal.Correction>
0.0342

> <Gold.Rescore>
     Score         DG    S(hbond)    S(metal)    S(lipo)     H(rot)  DE(clash)    DE(int)     intcor
     10.65     -11.30       2.92        0.00      27.49       2.80       0.13       0.52       ----

> <Gold.Chemscore.Fitness>
10.6505

> <Gold.Chemscore.DG>
-11.2951

> <Gold.Chemscore.ZeroCoef>
-5.4800

> <Gold.Chemscore.Hbond>
2.9222

> <Gold.Chemscore.Metal>
0.0000

> <Gold.Chemscore.Lipo>
27.4879

> <Gold.Chemscore.Internal_Hbond>
0.0000

> <Gold.Chemscore.DEClash>
0.1274

> <Gold.Chemscore.DEInternal>
0.5172

> <Gold.Chemscore.Rot>
2.7973

> <Gold.Chemscore.Internal.Correction>
   9.000000E+99

> <Gold.Chemscore.Hbonds>
donor molecule, donor type, donor heavy atom, donor atom, acceptor molecule, acceptor atom, score
      L1  H    13    24       P1 10957  0.98
      P1  H  6931  6943       L1     1  0.09
      P1  H  6934  6947       L1     3  0.81

> <Gold.Chemscore.Hbond.Weighted>
-9.7602

> <Gold.Chemscore.Metal.Weighted>
-0.0000

> <Gold.Chemscore.Lipo.Weighted>
-3.2161

> <Gold.Chemscore.Internal_Hbond.Weighted>
0.0000

> <Gold.Chemscore.DEClash.Weighted>
0.1274

> <Gold.Chemscore.DEInternal.Weighted>
0.5172

> <Gold.Chemscore.Rot.Weighted>
7.1611

> <Gold.Chemscore.Internal.Correction.Weighted>
   9.000000E+99

> <Gold.Protein.RotatedTorsions>
[ 6907 6896 6895 6894 ] final  -32.26 input  -60.11 | X-H torsion
[ 7974 7965 7964 7962 ] final  110.83 input  175.53 | X-H torsion
[ 8008 7997 7996 7995 ] final  -87.83 input   59.86 | X-H torsion
[ 10167 10162 10161 10158 ] final -174.13 input  -65.29 | X-H torsion
[ 10718 10713 10712 10709 ] final   11.65 input   66.30 | X-H torsion
[ 10763 10752 10751 10750 ] final  -72.34 input  -60.55 | X-H torsion
[ 11005 11000 10999 10996 ] final -110.47 input  -57.11 | X-H torsion

> <Gold.Protein.ActiveResidues>
 VAL166  LYS551  ARG553  GLY616  TRP617  ASP618  TYR619  PRO620  LYS621  CYS622 
 ASP623  PHE694  ASN695  SER759  ASP760  ASP761  ALA762  ILE779  LEU786  VAL792 
 PHE793  MET794  SER795  GLU796  ALA797  LYS798  CYS799  TRP800  GLU811  SER814 

> <Gold.Protein.RotatedAtoms>
  151.0811  134.9859  159.8356 H   0  0  0  0  0  0  0  0  0  0  0  0  # atno 6907 bound_to 6896
  152.5419  134.2180  159.8786 H   0  0  0  0  0  0  0  0  0  0  0  0  # atno 6908 bound_to 6896
  151.2210  133.4458  159.2634 H   0  0  0  0  0  0  0  0  0  0  0  0  # atno 6909 bound_to 6896
  145.2499  139.2744  143.4073 H   0  0  0  0  0  0  0  0  0  0  0  0  # atno 7974 bound_to 7965
  154.6678  140.0561  157.0133 H   0  0  0  0  0  0  0  0  0  0  0  0  # atno 8008 bound_to 7997
  155.1133  140.3240  155.4497 H   0  0  0  0  0  0  0  0  0  0  0  0  # atno 8009 bound_to 7997
  156.2645  140.2010  156.6257 H   0  0  0  0  0  0  0  0  0  0  0  0  # atno 8010 bound_to 7997
  139.5650  144.1777  152.1299 H   0  0  0  0  0  0  0  0  0  0  0  0  # atno 10167 bound_to 10162
  156.9987  130.6071  149.5694 H   0  0  0  0  0  0  0  0  0  0  0  0  # atno 10718 bound_to 10713
  154.4443  135.5933  153.6150 H   0  0  0  0  0  0  0  0  0  0  0  0  # atno 10763 bound_to 10752
  152.9808  135.6005  154.3683 H   0  0  0  0  0  0  0  0  0  0  0  0  # atno 10764 bound_to 10752
  154.3537  135.2841  155.2337 H   0  0  0  0  0  0  0  0  0  0  0  0  # atno 10765 bound_to 10752
  141.0790  133.9253  157.2330 H   0  0  0  0  0  0  0  0  0  0  0  0  # atno 11005 bound_to 11000
  146.3305  140.2887  142.8614 LP  0  0  0  0  0  0  0  0  0  0  0  0  # atno 17320 bound_to 7965
  144.9512  140.8180  143.5570 LP  0  0  0  0  0  0  0  0  0  0  0  0  # atno 17321 bound_to 7965
  140.1298  144.5298  150.6810 LP  0  0  0  0  0  0  0  0  0  0  0  0  # atno 17342 bound_to 10162
  140.6933  143.2389  151.5071 LP  0  0  0  0  0  0  0  0  0  0  0  0  # atno 17343 bound_to 10162
  156.0179  130.5274  150.8190 LP  0  0  0  0  0  0  0  0  0  0  0  0  # atno 17370 bound_to 10713
  157.5406  131.0940  150.9833 LP  0  0  0  0  0  0  0  0  0  0  0  0  # atno 17371 bound_to 10713
  139.9603  135.0156  156.9241 LP  0  0  0  0  0  0  0  0  0  0  0  0  # atno 17394 bound_to 11000
  140.5511  134.0626  155.7369 LP  0  0  0  0  0  0  0  0  0  0  0  0  # atno 17395 bound_to 11000

$$$$
