AV-unprocessed.smi:2603|AV-procd|sdf|10187|dock4
  -GOLD-   2272014203D 1   1.00000     0.00000
 Structure written by MMmdl.
 35 36  0  0  0  0  0  0  0  0  1 V2000
  151.8084  144.7394  160.5651 C   0  0  0  0  0  0  0  0  0  0  0  0
  151.5090  144.5578  159.0752 C   0  0  0  0  0  0  0  0  0  0  0  0
  151.7132  143.2004  158.7271 O   0  0  0  0  0  0  0  0  0  0  0  0
  151.0236  142.8420  157.5402 C   0  0  2  0  0  0  0  0  0  0  0  0
  149.6720  142.2314  157.7840 C   0  0  0  0  0  0  0  0  0  0  0  0
  150.8397  141.3483  157.3794 C   0  0  2  0  0  0  0  0  0  0  0  0
  151.3985  140.4946  158.3761 N   0  0  0  0  0  0  0  0  0  0  0  0
  152.4527  139.6817  158.2151 C   0  0  0  0  0  0  0  0  0  0  0  0
  153.0480  139.5395  157.1474 O   0  0  0  0  0  0  0  0  0  0  0  0
  152.9128  138.9159  159.4569 C   0  0  0  0  0  0  0  0  0  0  0  0
  154.1895  139.5181  159.9914 C   0  0  0  0  0  0  0  0  0  0  0  0
  155.4616  138.8912  160.1287 C   0  0  0  0  0  0  0  0  0  0  0  0
  155.8546  137.4830  159.7857 C   0  0  0  0  0  0  0  0  0  0  0  0
  156.3670  139.7144  160.6296 N   0  0  0  0  0  0  0  0  0  0  0  0
  155.7082  140.9305  160.8331 O   0  0  0  0  0  0  0  0  0  0  0  0
  154.4157  140.7895  160.4451 C   0  0  0  0  0  0  0  0  0  0  0  0
  153.5491  141.9959  160.5788 C   0  0  0  0  0  0  0  0  0  0  0  0
  151.6854  145.7809  160.8624 H   0  0  0  0  0  0  0  0  0  0  0  0
  152.8314  144.4428  160.7980 H   0  0  0  0  0  0  0  0  0  0  0  0
  151.1368  144.1367  161.1762 H   0  0  0  0  0  0  0  0  0  0  0  0
  150.4796  144.8498  158.8622 H   0  0  0  0  0  0  0  0  0  0  0  0
  152.1646  145.1981  158.4833 H   0  0  0  0  0  0  0  0  0  0  0  0
  151.2179  143.4545  156.6612 H   0  0  0  0  0  0  0  0  0  0  0  0
  149.3218  142.1762  158.8131 H   0  0  0  0  0  0  0  0  0  0  0  0
  148.8997  142.4128  157.0394 H   0  0  0  0  0  0  0  0  0  0  0  0
  150.8186  140.9736  156.3570 H   0  0  0  0  0  0  0  0  0  0  0  0
  150.9847  140.5480  159.2954 H   0  0  0  0  0  0  0  0  0  0  0  0
  152.1149  138.9414  160.1996 H   0  0  0  0  0  0  0  0  0  0  0  0
  153.0509  137.8650  159.1998 H   0  0  0  0  0  0  0  0  0  0  0  0
  155.2298  137.0813  158.9876 H   0  0  0  0  0  0  0  0  0  0  0  0
  155.7506  136.8280  160.6507 H   0  0  0  0  0  0  0  0  0  0  0  0
  156.8902  137.4287  159.4481 H   0  0  0  0  0  0  0  0  0  0  0  0
  152.5398  141.7995  160.2177 H   0  0  0  0  0  0  0  0  0  0  0  0
  153.9548  142.8265  160.0021 H   0  0  0  0  0  0  0  0  0  0  0  0
  153.4807  142.3086  161.6207 H   0  0  0  0  0  0  0  0  0  0  0  0
  1  2  1  0  0  0  0
  1 18  1  0  0  0  0
  1 19  1  0  0  0  0
  1 20  1  0  0  0  0
  2  3  1  0  0  0  0
  2 21  1  0  0  0  0
  2 22  1  0  0  0  0
  3  4  1  0  0  0  0
  4  6  1  0  0  0  0
  4  5  1  0  0  0  0
  4 23  1  0  0  0  0
  5  6  1  0  0  0  0
  5 24  1  0  0  0  0
  5 25  1  0  0  0  0
  6  7  1  0  0  0  0
  6 26  1  0  0  0  0
  7  8  1  0  0  0  0
  7 27  1  0  0  0  0
  8  9  2  0  0  0  0
  8 10  1  0  0  0  0
 10 11  1  0  0  0  0
 10 28  1  0  0  0  0
 10 29  1  0  0  0  0
 11 16  2  0  0  0  0
 11 12  1  0  0  0  0
 12 13  1  0  0  0  0
 12 14  2  0  0  0  0
 13 30  1  0  0  0  0
 13 31  1  0  0  0  0
 13 32  1  0  0  0  0
 14 15  1  0  0  0  0
 15 16  1  0  0  0  0
 16 17  1  0  0  0  0
 17 33  1  0  0  0  0
 17 34  1  0  0  0  0
 17 35  1  0  0  0  0
M  END
> <s_m_source_file>
AV-unprocessed.smi

> <i_m_source_file_index>
2603

> <i_lp_mmshare_version>
43012

> <i_f3d_flags>
0

> <s_epik_input>
W0NIM11bQ0gyXU9bQ0BASF0xW0NIMl1bQ0BIXTFbTkhdQyg9TylbQ0gyXWMyYyhbQ0gzXSlub2MyW0NIM10=

> <s_epik_cmdline>
J2VwaWtfcHl0aG9uJywgJy1waCcsICc3LjAnLCAnLXRuJywgJzgnLCAnLW1hJywgJzIwMCcsICctbWV0YWxfYmluZGluZycsICctaW1hZScsICc8aW5maWxlLm1hZT4nLCAnLW9tYWUnLCAnPG91dGZpbGUubWFlPic=

> <r_lp_tautomer_probability>
1

> <r_epik_Ionization_Penalty>
2.37325e-08

> <r_epik_Ionization_Penalty_Charging>
0

> <r_epik_Ionization_Penalty_Neutral>
2.37325e-08

> <r_epik_State_Penalty>
-0

> <r_epik_Charging_Adjusted_Penalty>
0

> <i_epik_Tot_Q>
0

> <i_epik_Tot_abs_Q>
0

> <r_epik_Metal_State_Penalty>
-0

> <b_epik_Metal_Only>
0

> <s_lp_Force_Field>
OPLS_2005

> <r_lp_Energy>
11.1697

> <b_lp_Chiralities_Consistent>
1

> <s_lp_Variant>
AV-unprocessed.smi:2603-3

> <Gold.Version>
5.8.1

> <Gold.Id.Protein>
6NUR|6NUR_protein|mol2

> <Gold.PLP.Fitness>
33.2291

> <Gold.PLP.PLP>
-30.8142

> <Gold.PLP.part.hbond>
-2.0000

> <Gold.PLP.part.metal>
0.0000

> <Gold.PLP.part.buried>
-4.0297

> <Gold.PLP.part.nonpolar>
-24.7083

> <Gold.PLP.part.repulsive>
0.1462

> <Gold.PLP.ligand.clash>
0.0000

> <Gold.PLP.ligand.torsion>
0.6400

> <Gold.PLP.Chemscore.Hbond>
1.0000

> <Gold.PLP.Chemscore.CHOScore>
0.0000

> <Gold.PLP.Chemscore.Metal>
0.0000

> <Gold.Chemscore.Hbonds>
donor molecule, donor type, donor heavy atom, donor atom, acceptor molecule, acceptor atom, score
      P1  H  7997  8008       L1     9  0.96

> <Gold.PLP.Chemscore.Internal.Correction>
0.6948

> <Gold.Rescore>
     Score         DG    S(hbond)    S(metal)    S(lipo)     H(rot)  DE(clash)    DE(int)     intcor
     14.05     -14.61       1.00        0.00      86.58       1.69       0.05       0.51       ----

> <Gold.Chemscore.Fitness>
14.0490

> <Gold.Chemscore.DG>
-14.6147

> <Gold.Chemscore.ZeroCoef>
-5.4800

> <Gold.Chemscore.Hbond>
0.9997

> <Gold.Chemscore.Metal>
0.0000

> <Gold.Chemscore.Lipo>
86.5844

> <Gold.Chemscore.Internal_Hbond>
0.0000

> <Gold.Chemscore.DEClash>
0.0515

> <Gold.Chemscore.DEInternal>
0.5141

> <Gold.Chemscore.Rot>
1.6933

> <Gold.Chemscore.Internal.Correction>
   9.000000E+99

> <Gold.Chemscore.Hbonds>
donor molecule, donor type, donor heavy atom, donor atom, acceptor molecule, acceptor atom, score
      P1  H  7997  8008       L1     9  0.91

> <Gold.Chemscore.Hbond.Weighted>
-3.3391

> <Gold.Chemscore.Metal.Weighted>
-0.0000

> <Gold.Chemscore.Lipo.Weighted>
-10.1304

> <Gold.Chemscore.Internal_Hbond.Weighted>
0.0000

> <Gold.Chemscore.DEClash.Weighted>
0.0515

> <Gold.Chemscore.DEInternal.Weighted>
0.5141

> <Gold.Chemscore.Rot.Weighted>
4.3348

> <Gold.Chemscore.Internal.Correction.Weighted>
   9.000000E+99

> <Gold.Protein.RotatedTorsions>
[ 6907 6896 6895 6894 ] final   35.32 input  -60.11 | X-H torsion
[ 7974 7965 7964 7962 ] final    4.11 input  175.53 | X-H torsion
[ 8008 7997 7996 7995 ] final  -63.34 input   59.86 | X-H torsion
[ 10167 10162 10161 10158 ] final   48.29 input  -65.29 | X-H torsion
[ 10718 10713 10712 10709 ] final  -77.36 input   66.30 | X-H torsion
[ 10763 10752 10751 10750 ] final  -64.31 input  -60.55 | X-H torsion
[ 11005 11000 10999 10996 ] final  -16.03 input  -57.11 | X-H torsion

> <Gold.Protein.ActiveResidues>
 VAL166  LYS551  ARG553  GLY616  TRP617  ASP618  TYR619  PRO620  LYS621  CYS622 
 ASP623  PHE694  ASN695  SER759  ASP760  ASP761  ALA762  ILE779  LEU786  VAL792 
 PHE793  MET794  SER795  GLU796  ALA797  LYS798  CYS799  TRP800  GLU811  SER814 

> <Gold.Protein.RotatedAtoms>
  152.1145  134.9250  160.0565 H   0  0  0  0  0  0  0  0  0  0  0  0  # atno 6907 bound_to 6896
  152.0415  133.3974  159.4347 H   0  0  0  0  0  0  0  0  0  0  0  0  # atno 6908 bound_to 6896
  150.6845  134.3330  159.4879 H   0  0  0  0  0  0  0  0  0  0  0  0  # atno 6909 bound_to 6896
  146.2444  140.0584  142.8370 H   0  0  0  0  0  0  0  0  0  0  0  0  # atno 7974 bound_to 7965
  154.4549  140.0977  156.6727 H   0  0  0  0  0  0  0  0  0  0  0  0  # atno 8008 bound_to 7997
  155.5170  140.3478  155.4381 H   0  0  0  0  0  0  0  0  0  0  0  0  # atno 8009 bound_to 7997
  156.0757  140.1360  156.9764 H   0  0  0  0  0  0  0  0  0  0  0  0  # atno 8010 bound_to 7997
  140.2948  144.3004  150.6232 H   0  0  0  0  0  0  0  0  0  0  0  0  # atno 10167 bound_to 10162
  156.0147  130.4489  150.3334 H   0  0  0  0  0  0  0  0  0  0  0  0  # atno 10718 bound_to 10713
  154.3282  135.6182  153.5539 H   0  0  0  0  0  0  0  0  0  0  0  0  # atno 10763 bound_to 10752
  152.9813  135.5740  154.4992 H   0  0  0  0  0  0  0  0  0  0  0  0  # atno 10764 bound_to 10752
  154.4673  135.2858  155.1645 H   0  0  0  0  0  0  0  0  0  0  0  0  # atno 10765 bound_to 10752
  140.8026  133.8202  155.9485 H   0  0  0  0  0  0  0  0  0  0  0  0  # atno 11005 bound_to 11000
  145.0921  140.9291  143.4762 LP  0  0  0  0  0  0  0  0  0  0  0  0  # atno 17320 bound_to 7965
  145.0759  139.2996  143.5808 LP  0  0  0  0  0  0  0  0  0  0  0  0  # atno 17321 bound_to 7965
  140.5701  143.2182  151.7613 LP  0  0  0  0  0  0  0  0  0  0  0  0  # atno 17342 bound_to 10162
  139.4929  144.4228  151.9959 LP  0  0  0  0  0  0  0  0  0  0  0  0  # atno 17343 bound_to 10162
  157.1431  131.0301  151.2919 LP  0  0  0  0  0  0  0  0  0  0  0  0  # atno 17370 bound_to 10713
  157.4455  130.7568  149.7106 LP  0  0  0  0  0  0  0  0  0  0  0  0  # atno 17371 bound_to 10713
  140.9279  134.2059  157.4884 LP  0  0  0  0  0  0  0  0  0  0  0  0  # atno 17394 bound_to 11000
  139.8720  134.9820  156.5139 LP  0  0  0  0  0  0  0  0  0  0  0  0  # atno 17395 bound_to 11000

$$$$
