AV-unprocessed.smi:2186|AV-procd|sdf|8877|dock5
  -GOLD-   2272012 73D 1   1.00000     0.00000
 Structure written by MMmdl.
 44 45  0  0  0  0  0  0  0  0  2 V2000
  152.2476  144.5284  158.0098 C   0  0  0  0  0  0  0  0  0  0  0  0
  151.5779  143.3612  158.7489 C   0  0  0  0  0  0  0  0  0  0  0  0
  152.3948  142.8592  159.9492 C   0  0  0  0  0  0  0  0  0  0  0  0
  151.2070  142.2459  157.8235 C   0  0  0  0  0  0  0  0  0  0  0  0
  150.4411  142.4085  156.7414 N   0  0  0  0  0  0  0  0  0  0  0  0
  150.2744  141.2276  156.0085 C   0  0  0  0  0  0  0  0  0  0  0  0
  149.4792  141.2326  154.7307 C   0  0  0  0  0  0  0  0  0  0  0  0
  148.3285  140.2232  154.8017 C   0  0  0  0  0  0  0  0  0  0  0  0
  147.7106  140.0659  155.8545 O   0  0  0  0  0  0  0  0  0  0  0  0
  148.0311  139.5663  153.6687 N   0  0  0  0  0  0  0  0  0  0  0  0
  146.8733  138.7013  153.4868 C   0  0  0  0  0  0  0  0  0  0  0  0
  146.4308  138.6910  152.0104 C   0  0  0  0  0  0  0  0  0  0  0  0
  145.2415  137.8364  151.7721 N   0  3  0  0  0  0  0  0  0  0  0  0
  145.6152  136.4489  151.4060 C   0  0  0  0  0  0  0  0  0  0  0  0
  144.3596  135.6086  151.1197 C   0  0  0  0  0  0  0  0  0  0  0  0
  143.5092  135.6238  152.2590 O   0  0  0  0  0  0  0  0  0  0  0  0
  143.0663  136.9381  152.5725 C   0  0  0  0  0  0  0  0  0  0  0  0
  144.2760  137.8311  152.8995 C   0  0  0  0  0  0  0  0  0  0  0  0
  150.9073  140.1499  156.5774 C   0  0  0  0  0  0  0  0  0  0  0  0
  151.7535  140.5868  158.0368 S   0  0  0  0  0  0  0  0  0  0  0  0
  151.6057  144.9085  157.2142 H   0  0  0  0  0  0  0  0  0  0  0  0
  153.1920  144.2231  157.5583 H   0  0  0  0  0  0  0  0  0  0  0  0
  152.4565  145.3553  158.6890 H   0  0  0  0  0  0  0  0  0  0  0  0
  150.6422  143.7493  159.1534 H   0  0  0  0  0  0  0  0  0  0  0  0
  151.8524  142.0888  160.4982 H   0  0  0  0  0  0  0  0  0  0  0  0
  152.6112  143.6709  160.6441 H   0  0  0  0  0  0  0  0  0  0  0  0
  153.3467  142.4326  159.6307 H   0  0  0  0  0  0  0  0  0  0  0  0
  149.0647  142.2221  154.5343 H   0  0  0  0  0  0  0  0  0  0  0  0
  150.1227  140.9927  153.8833 H   0  0  0  0  0  0  0  0  0  0  0  0
  148.5992  139.7488  152.8538 H   0  0  0  0  0  0  0  0  0  0  0  0
  147.1606  137.7031  153.8149 H   0  0  0  0  0  0  0  0  0  0  0  0
  146.0549  139.0210  154.1342 H   0  0  0  0  0  0  0  0  0  0  0  0
  146.1880  139.7134  151.7163 H   0  0  0  0  0  0  0  0  0  0  0  0
  147.2508  138.3737  151.3638 H   0  0  0  0  0  0  0  0  0  0  0  0
  146.2579  136.4571  150.5249 H   0  0  0  0  0  0  0  0  0  0  0  0
  146.1887  135.9979  152.2175 H   0  0  0  0  0  0  0  0  0  0  0  0
  143.8267  135.9869  150.2456 H   0  0  0  0  0  0  0  0  0  0  0  0
  144.6388  134.5778  150.9009 H   0  0  0  0  0  0  0  0  0  0  0  0
  142.4904  137.3490  151.7417 H   0  0  0  0  0  0  0  0  0  0  0  0
  142.3953  136.8876  153.4302 H   0  0  0  0  0  0  0  0  0  0  0  0
  144.7701  137.4698  153.8027 H   0  0  0  0  0  0  0  0  0  0  0  0
  143.9256  138.8411  153.1081 H   0  0  0  0  0  0  0  0  0  0  0  0
  150.9348  139.1300  156.2232 H   0  0  0  0  0  0  0  0  0  0  0  0
  144.7629  138.2221  150.9705 H   0  0  0  0  0  0  0  0  0  0  0  0
  1  2  1  0  0  0  0
  1 21  1  0  0  0  0
  1 22  1  0  0  0  0
  1 23  1  0  0  0  0
  2  3  1  0  0  0  0
  2  4  1  0  0  0  0
  2 24  1  0  0  0  0
  3 25  1  0  0  0  0
  3 26  1  0  0  0  0
  3 27  1  0  0  0  0
  4 20  1  0  0  0  0
  4  5  2  0  0  0  0
  5  6  1  0  0  0  0
  6  7  1  0  0  0  0
  6 19  2  0  0  0  0
  7  8  1  0  0  0  0
  7 28  1  0  0  0  0
  7 29  1  0  0  0  0
  8  9  2  0  0  0  0
  8 10  1  0  0  0  0
 10 11  1  0  0  0  0
 10 30  1  0  0  0  0
 11 12  1  0  0  0  0
 11 31  1  0  0  0  0
 11 32  1  0  0  0  0
 12 13  1  0  0  0  0
 12 33  1  0  0  0  0
 12 34  1  0  0  0  0
 13 18  1  0  0  0  0
 13 14  1  0  0  0  0
 13 44  1  0  0  0  0
 14 15  1  0  0  0  0
 14 35  1  0  0  0  0
 14 36  1  0  0  0  0
 15 16  1  0  0  0  0
 15 37  1  0  0  0  0
 15 38  1  0  0  0  0
 16 17  1  0  0  0  0
 17 18  1  0  0  0  0
 17 39  1  0  0  0  0
 17 40  1  0  0  0  0
 18 41  1  0  0  0  0
 18 42  1  0  0  0  0
 19 20  1  0  0  0  0
 19 43  1  0  0  0  0
M  CHG  1  13   1
M  END
> <s_m_source_file>
AV-unprocessed.smi

> <i_m_source_file_index>
2186

> <i_lp_mmshare_version>
43012

> <i_f3d_flags>
0

> <s_epik_input>
W0NIM11bQ0hdKFtDSDNdKWMxbmMoW2NIXXMxKVtDSDJdQyg9TylbTkhdW0NIMl1bQ0gyXU4yW0NIMl1bQ0gyXU9bQ0gyXVtDSDJdMg==

> <s_epik_cmdline>
J2VwaWtfcHl0aG9uJywgJy1waCcsICc3LjAnLCAnLXRuJywgJzgnLCAnLW1hJywgJzIwMCcsICctbWV0YWxfYmluZGluZycsICctaW1hZScsICc8aW5maWxlLm1hZT4nLCAnLW9tYWUnLCAnPG91dGZpbGUubWFlPic=

> <r_epik_Ionization_Penalty>
0.678862

> <r_epik_Ionization_Penalty_Charging>
0.678842

> <r_epik_Ionization_Penalty_Neutral>
2.00527e-05

> <r_epik_State_Penalty>
0.699693

> <r_epik_Charging_Adjusted_Penalty>
1.37854

> <i_epik_Tot_Q>
1

> <i_epik_Tot_abs_Q>
1

> <r_epik_Metal_State_Penalty>
0.699708

> <b_epik_Metal_Only>
0

> <s_lp_Force_Field>
OPLS_2005

> <r_lp_Energy>
6.68048

> <b_lp_Chiralities_Consistent>
1

> <s_lp_Variant>
AV-unprocessed.smi:2186-2

> <Gold.Version>
5.8.1

> <Gold.Id.Protein>
6NUR|6NUR_protein|mol2

> <Gold.PLP.Fitness>
46.2122

> <Gold.PLP.PLP>
-41.8926

> <Gold.PLP.part.hbond>
-2.0413

> <Gold.PLP.part.metal>
0.0000

> <Gold.PLP.part.buried>
-3.1171

> <Gold.PLP.part.nonpolar>
-38.2142

> <Gold.PLP.part.repulsive>
0.5007

> <Gold.PLP.ligand.clash>
0.0000

> <Gold.PLP.ligand.torsion>
0.9017

> <Gold.PLP.Chemscore.Hbond>
2.0000

> <Gold.PLP.Chemscore.CHOScore>
0.0000

> <Gold.PLP.Chemscore.Metal>
0.0000

> <Gold.Chemscore.Hbonds>
donor molecule, donor type, donor heavy atom, donor atom, acceptor molecule, acceptor atom, score
      L1  H    10    30       P1  7957  1.00
      L1  H    13    44       P1 10171  0.94

> <Gold.PLP.Chemscore.Internal.Correction>
0.1231

> <Gold.Rescore>
     Score         DG    S(hbond)    S(metal)    S(lipo)     H(rot)  DE(clash)    DE(int)     intcor
     19.11     -20.47       2.00        0.00     111.04       1.82       0.47       0.89       ----

> <Gold.Chemscore.Fitness>
19.1135

> <Gold.Chemscore.DG>
-20.4720

> <Gold.Chemscore.ZeroCoef>
-5.4800

> <Gold.Chemscore.Hbond>
1.9952

> <Gold.Chemscore.Metal>
0.0000

> <Gold.Chemscore.Lipo>
111.0388

> <Gold.Chemscore.Internal_Hbond>
0.0000

> <Gold.Chemscore.DEClash>
0.4728

> <Gold.Chemscore.DEInternal>
0.8857

> <Gold.Chemscore.Rot>
1.8217

> <Gold.Chemscore.Internal.Correction>
   9.000000E+99

> <Gold.Chemscore.Hbonds>
donor molecule, donor type, donor heavy atom, donor atom, acceptor molecule, acceptor atom, score
      L1  H    10    30       P1  7957  0.97
      L1  H    13    44       P1 10171  0.90

> <Gold.Chemscore.Hbond.Weighted>
-6.6640

> <Gold.Chemscore.Metal.Weighted>
-0.0000

> <Gold.Chemscore.Lipo.Weighted>
-12.9915

> <Gold.Chemscore.Internal_Hbond.Weighted>
0.0000

> <Gold.Chemscore.DEClash.Weighted>
0.4728

> <Gold.Chemscore.DEInternal.Weighted>
0.8857

> <Gold.Chemscore.Rot.Weighted>
4.6635

> <Gold.Chemscore.Internal.Correction.Weighted>
   9.000000E+99

> <Gold.Protein.RotatedTorsions>
[ 6907 6896 6895 6894 ] final   87.01 input  -60.11 | X-H torsion
[ 7974 7965 7964 7962 ] final  121.06 input  175.53 | X-H torsion
[ 8008 7997 7996 7995 ] final  -46.57 input   59.86 | X-H torsion
[ 10167 10162 10161 10158 ] final  -94.35 input  -65.29 | X-H torsion
[ 10718 10713 10712 10709 ] final -174.61 input   66.30 | X-H torsion
[ 10763 10752 10751 10750 ] final  165.97 input  -60.55 | X-H torsion
[ 11005 11000 10999 10996 ] final -136.44 input  -57.11 | X-H torsion

> <Gold.Protein.ActiveResidues>
 VAL166  LYS551  ARG553  GLY616  TRP617  ASP618  TYR619  PRO620  LYS621  CYS622 
 ASP623  PHE694  ASN695  SER759  ASP760  ASP761  ALA762  ILE779  LEU786  VAL792 
 PHE793  MET794  SER795  GLU796  ALA797  LYS798  CYS799  TRP800  GLU811  SER814 

> <Gold.Protein.RotatedAtoms>
  152.5404  134.2343  159.8836 H   0  0  0  0  0  0  0  0  0  0  0  0  # atno 6907 bound_to 6896
  151.2313  133.4442  159.2611 H   0  0  0  0  0  0  0  0  0  0  0  0  # atno 6908 bound_to 6896
  151.0713  134.9813  159.8366 H   0  0  0  0  0  0  0  0  0  0  0  0  # atno 6909 bound_to 6896
  145.1238  139.3372  143.4701 H   0  0  0  0  0  0  0  0  0  0  0  0  # atno 7974 bound_to 7965
  154.4008  140.1368  156.4032 H   0  0  0  0  0  0  0  0  0  0  0  0  # atno 8008 bound_to 7997
  155.7804  140.3481  155.5274 H   0  0  0  0  0  0  0  0  0  0  0  0  # atno 8009 bound_to 7997
  155.8679  140.0967  157.1560 H   0  0  0  0  0  0  0  0  0  0  0  0  # atno 8010 bound_to 7997
  140.3153  143.3080  152.0104 H   0  0  0  0  0  0  0  0  0  0  0  0  # atno 10167 bound_to 10162
  156.7877  130.9506  151.3120 H   0  0  0  0  0  0  0  0  0  0  0  0  # atno 10718 bound_to 10713
  154.3320  135.2754  155.2467 H   0  0  0  0  0  0  0  0  0  0  0  0  # atno 10763 bound_to 10752
  154.4775  135.5867  153.6369 H   0  0  0  0  0  0  0  0  0  0  0  0  # atno 10764 bound_to 10752
  152.9865  135.6103  154.3513 H   0  0  0  0  0  0  0  0  0  0  0  0  # atno 10765 bound_to 10752
  140.8804  134.1938  157.4594 H   0  0  0  0  0  0  0  0  0  0  0  0  # atno 11005 bound_to 11000
  146.3519  140.1208  142.8600 LP  0  0  0  0  0  0  0  0  0  0  0  0  # atno 17320 bound_to 7965
  145.0711  140.9156  143.4881 LP  0  0  0  0  0  0  0  0  0  0  0  0  # atno 17321 bound_to 7965
  139.4885  144.6353  151.6988 LP  0  0  0  0  0  0  0  0  0  0  0  0  # atno 17342 bound_to 10162
  140.5532  144.0392  150.6136 LP  0  0  0  0  0  0  0  0  0  0  0  0  # atno 17343 bound_to 10162
  157.6616  130.8971  149.9842 LP  0  0  0  0  0  0  0  0  0  0  0  0  # atno 17370 bound_to 10713
  156.1178  130.3647  149.9938 LP  0  0  0  0  0  0  0  0  0  0  0  0  # atno 17371 bound_to 10713
  139.8719  134.9815  156.5117 LP  0  0  0  0  0  0  0  0  0  0  0  0  # atno 17394 bound_to 11000
  140.8467  133.8163  155.9128 LP  0  0  0  0  0  0  0  0  0  0  0  0  # atno 17395 bound_to 11000

$$$$
