AV-unprocessed.smi:73|AV-procd|sdf|761|dock1
  -GOLD-   2262017103D 1   1.00000     0.00000
 Structure written by MMmdl.
 35 36  0  0  0  0  0  0  0  0  2 V2000
  151.4223  138.8320  157.6877 C   0  0  0  0  0  0  0  0  0  0  0  0
  151.7104  139.8096  156.5380 C   0  0  0  0  0  0  0  0  0  0  0  0
  150.5805  140.6321  156.0619 N   0  0  0  0  0  0  0  0  0  0  0  0
  149.9500  141.3701  157.1735 C   0  0  0  0  0  0  0  0  0  0  0  0
  150.8770  142.2330  157.9669 C   0  0  0  0  0  0  0  0  0  0  0  0
  151.9653  141.8483  158.6375 N   0  0  0  0  0  0  0  0  0  0  0  0
  152.4781  142.9928  159.2067 N   0  0  0  0  0  0  0  0  0  0  0  0
  151.6553  143.9796  158.8432 C   0  0  0  0  0  0  0  0  0  0  0  0
  151.7600  145.4235  159.1945 C   0  0  0  0  0  0  0  0  0  0  0  0
  150.6217  143.5638  158.0671 O   0  0  0  0  0  0  0  0  0  0  0  0
  149.5873  139.7901  155.3614 C   0  0  2  0  0  0  0  0  0  0  0  0
  150.1567  138.8696  154.2538 C   0  0  0  0  0  0  0  0  0  0  0  0
  149.1730  138.8090  153.1558 N   0  3  0  0  0  0  0  0  0  0  0  0
  147.9774  139.5560  153.5689 C   0  0  0  0  0  0  0  0  0  0  0  0
  148.4738  140.5550  154.6102 C   0  0  2  0  0  0  0  0  0  0  0  0
  148.9819  141.6884  153.9274 O   0  0  0  0  0  0  0  0  0  0  0  0
  147.6625  140.8684  155.2680 H   0  0  0  0  0  0  0  0  0  0  0  0
  152.3558  138.4608  158.1110 H   0  0  0  0  0  0  0  0  0  0  0  0
  150.8628  137.9583  157.3574 H   0  0  0  0  0  0  0  0  0  0  0  0
  150.8665  139.3160  158.4915 H   0  0  0  0  0  0  0  0  0  0  0  0
  152.5024  140.4568  156.9104 H   0  0  0  0  0  0  0  0  0  0  0  0
  152.1525  139.2658  155.7016 H   0  0  0  0  0  0  0  0  0  0  0  0
  149.1803  142.0455  156.8063 H   0  0  0  0  0  0  0  0  0  0  0  0
  149.4409  140.6779  157.8458 H   0  0  0  0  0  0  0  0  0  0  0  0
  152.7057  145.6244  159.6987 H   0  0  0  0  0  0  0  0  0  0  0  0
  150.9419  145.7064  159.8569 H   0  0  0  0  0  0  0  0  0  0  0  0
  151.7091  146.0322  158.2915 H   0  0  0  0  0  0  0  0  0  0  0  0
  149.0955  139.1462  156.0930 H   0  0  0  0  0  0  0  0  0  0  0  0
  151.0826  139.2705  153.8394 H   0  0  0  0  0  0  0  0  0  0  0  0
  150.3653  137.8691  154.6340 H   0  0  0  0  0  0  0  0  0  0  0  0
  149.5743  139.2693  152.3511 H   0  0  0  0  0  0  0  0  0  0  0  0
  147.4702  140.0201  152.7221 H   0  0  0  0  0  0  0  0  0  0  0  0
  147.2822  138.8550  154.0326 H   0  0  0  0  0  0  0  0  0  0  0  0
  148.7249  142.4656  154.4008 H   0  0  0  0  0  0  0  0  0  0  0  0
  148.9396  137.8547  152.9215 H   0  0  0  0  0  0  0  0  0  0  0  0
  1  2  1  0  0  0  0
  1 18  1  0  0  0  0
  1 19  1  0  0  0  0
  1 20  1  0  0  0  0
  2  3  1  0  0  0  0
  2 21  1  0  0  0  0
  2 22  1  0  0  0  0
  3  4  1  0  0  0  0
  3 11  1  0  0  0  0
  4  5  1  0  0  0  0
  4 23  1  0  0  0  0
  4 24  1  0  0  0  0
  5 10  1  0  0  0  0
  5  6  2  0  0  0  0
  6  7  1  0  0  0  0
  7  8  2  0  0  0  0
  8  9  1  0  0  0  0
  8 10  1  0  0  0  0
  9 25  1  0  0  0  0
  9 26  1  0  0  0  0
  9 27  1  0  0  0  0
 11 15  1  0  0  0  0
 11 12  1  0  0  0  0
 11 28  1  0  0  0  0
 12 13  1  0  0  0  0
 12 29  1  0  0  0  0
 12 30  1  0  0  0  0
 13 14  1  0  0  0  0
 13 31  1  0  0  0  0
 13 35  1  0  0  0  0
 14 15  1  0  0  0  0
 14 32  1  0  0  0  0
 14 33  1  0  0  0  0
 15 17  1  0  0  0  0
 15 16  1  0  0  0  0
 16 34  1  0  0  0  0
M  CHG  1  13   1
M  END
> <s_m_source_file>
AV-unprocessed.smi

> <i_m_source_file_index>
73

> <i_lp_mmshare_version>
43012

> <i_f3d_flags>
0

> <s_epik_input>
W09IXVtDQEBIXTFbQ0gyXVtOSF1bQ0gyXVtDQEhdMU4oW0NIMl1bQ0gzXSlbQ0gyXWMybm5jKG8yKVtDSDNd

> <s_epik_cmdline>
J2VwaWtfcHl0aG9uJywgJy1waCcsICc3LjAnLCAnLXRuJywgJzgnLCAnLW1hJywgJzIwMCcsICctbWV0YWxfYmluZGluZycsICctaW1hZScsICc8aW5maWxlLm1hZT4nLCAnLW9tYWUnLCAnPG91dGZpbGUubWFlPic=

> <r_lp_tautomer_probability>
1

> <r_epik_Ionization_Penalty>
0.00160433

> <r_epik_Ionization_Penalty_Charging>
0.000122314

> <r_epik_Ionization_Penalty_Neutral>
0.00148202

> <r_epik_State_Penalty>
-0

> <r_epik_Charging_Adjusted_Penalty>
0.000122314

> <i_epik_Tot_Q>
1

> <i_epik_Tot_abs_Q>
1

> <r_epik_Metal_State_Penalty>
-0

> <b_epik_Metal_Only>
0

> <s_lp_Force_Field>
OPLS_2005

> <r_lp_Energy>
44.8829

> <b_lp_Chiralities_Consistent>
1

> <s_lp_Variant>
AV-unprocessed.smi:73-3

> <Gold.Version>
5.8.1

> <Gold.Id.Protein>
6NUR|6NUR_protein|mol2

> <Gold.PLP.Fitness>
39.6491

> <Gold.PLP.PLP>
-29.2660

> <Gold.PLP.part.hbond>
-4.2951

> <Gold.PLP.part.metal>
0.0000

> <Gold.PLP.part.buried>
-3.9974

> <Gold.PLP.part.nonpolar>
-21.7898

> <Gold.PLP.part.repulsive>
0.2707

> <Gold.PLP.ligand.clash>
0.0000

> <Gold.PLP.ligand.torsion>
0.0998

> <Gold.PLP.Chemscore.Hbond>
3.5161

> <Gold.PLP.Chemscore.CHOScore>
0.0000

> <Gold.PLP.Chemscore.Metal>
0.0000

> <Gold.Chemscore.Hbonds>
donor molecule, donor type, donor heavy atom, donor atom, acceptor molecule, acceptor atom, score
      L1  H    13    31       P1  7957  0.70
      L1  H    13    35       P1  7948  2.00
      P1  H  8011  8017       L1    16  0.61

> <Gold.PLP.Chemscore.Internal.Correction>
0.0345

> <Gold.Rescore>
     Score         DG    S(hbond)    S(metal)    S(lipo)     H(rot)  DE(clash)    DE(int)     intcor
     11.45     -12.44       2.16        0.00      52.54       2.51       0.07       0.93       ----

> <Gold.Chemscore.Fitness>
11.4488

> <Gold.Chemscore.DG>
-12.4438

> <Gold.Chemscore.ZeroCoef>
-5.4800

> <Gold.Chemscore.Hbond>
2.1647

> <Gold.Chemscore.Metal>
0.0000

> <Gold.Chemscore.Lipo>
52.5369

> <Gold.Chemscore.Internal_Hbond>
0.0000

> <Gold.Chemscore.DEClash>
0.0689

> <Gold.Chemscore.DEInternal>
0.9261

> <Gold.Chemscore.Rot>
2.5051

> <Gold.Chemscore.Internal.Correction>
   9.000000E+99

> <Gold.Chemscore.Hbonds>
donor molecule, donor type, donor heavy atom, donor atom, acceptor molecule, acceptor atom, score
      L1  H    13    31       P1  7957  0.65
      L1  H    13    35       P1  7948  0.98
      P1  H  8011  8017       L1    16  0.21

> <Gold.Chemscore.Hbond.Weighted>
-7.2301

> <Gold.Chemscore.Metal.Weighted>
-0.0000

> <Gold.Chemscore.Lipo.Weighted>
-6.1468

> <Gold.Chemscore.Internal_Hbond.Weighted>
0.0000

> <Gold.Chemscore.DEClash.Weighted>
0.0689

> <Gold.Chemscore.DEInternal.Weighted>
0.9261

> <Gold.Chemscore.Rot.Weighted>
6.4131

> <Gold.Chemscore.Internal.Correction.Weighted>
   9.000000E+99

> <Gold.Protein.RotatedTorsions>
[ 6907 6896 6895 6894 ] final   12.25 input  -60.11 | X-H torsion
[ 7974 7965 7964 7962 ] final    9.73 input  175.53 | X-H torsion
[ 8008 7997 7996 7995 ] final  -82.81 input   59.86 | X-H torsion
[ 10167 10162 10161 10158 ] final  -48.09 input  -65.29 | X-H torsion
[ 10718 10713 10712 10709 ] final   83.53 input   66.30 | X-H torsion
[ 10763 10752 10751 10750 ] final -105.39 input  -60.55 | X-H torsion
[ 11005 11000 10999 10996 ] final    3.00 input  -57.11 | X-H torsion

> <Gold.Protein.ActiveResidues>
 VAL166  LYS551  ARG553  GLY616  TRP617  ASP618  TYR619  PRO620  LYS621  CYS622 
 ASP623  PHE694  ASN695  SER759  ASP760  ASP761  ALA762  ILE779  LEU786  VAL792 
 PHE793  MET794  SER795  GLU796  ALA797  LYS798  CYS799  TRP800  GLU811  SER814 

> <Gold.Protein.RotatedAtoms>
  151.7673  135.0795  160.0354 H   0  0  0  0  0  0  0  0  0  0  0  0  # atno 6907 bound_to 6896
  152.3312  133.5956  159.5819 H   0  0  0  0  0  0  0  0  0  0  0  0  # atno 6908 bound_to 6896
  150.7424  133.9780  159.3609 H   0  0  0  0  0  0  0  0  0  0  0  0  # atno 6909 bound_to 6896
  146.2399  139.9740  142.8443 H   0  0  0  0  0  0  0  0  0  0  0  0  # atno 7974 bound_to 7965
  154.6125  140.0628  156.9512 H   0  0  0  0  0  0  0  0  0  0  0  0  # atno 8008 bound_to 7997
  155.1950  140.3310  155.4334 H   0  0  0  0  0  0  0  0  0  0  0  0  # atno 8009 bound_to 7997
  156.2385  140.1874  156.7037 H   0  0  0  0  0  0  0  0  0  0  0  0  # atno 8010 bound_to 7997
  140.6746  143.2755  151.4020 H   0  0  0  0  0  0  0  0  0  0  0  0  # atno 10167 bound_to 10162
  157.6881  131.0095  150.2537 H   0  0  0  0  0  0  0  0  0  0  0  0  # atno 10718 bound_to 10713
  154.7943  135.4751  154.0125 H   0  0  0  0  0  0  0  0  0  0  0  0  # atno 10763 bound_to 10752
  153.1679  135.6820  153.8656 H   0  0  0  0  0  0  0  0  0  0  0  0  # atno 10764 bound_to 10752
  153.8248  135.3199  155.3391 H   0  0  0  0  0  0  0  0  0  0  0  0  # atno 10765 bound_to 10752
  140.5981  133.9862  155.8119 H   0  0  0  0  0  0  0  0  0  0  0  0  # atno 11005 bound_to 11000
  145.1654  140.9694  143.4353 LP  0  0  0  0  0  0  0  0  0  0  0  0  # atno 17320 bound_to 7965
  145.0078  139.3538  143.6135 LP  0  0  0  0  0  0  0  0  0  0  0  0  # atno 17321 bound_to 7965
  139.6032  144.1252  152.2221 LP  0  0  0  0  0  0  0  0  0  0  0  0  # atno 17342 bound_to 10162
  140.0642  144.5832  150.7240 LP  0  0  0  0  0  0  0  0  0  0  0  0  # atno 17343 bound_to 10162
  156.3129  130.3774  149.7645 LP  0  0  0  0  0  0  0  0  0  0  0  0  # atno 17370 bound_to 10713
  156.5239  130.8227  151.3213 LP  0  0  0  0  0  0  0  0  0  0  0  0  # atno 17371 bound_to 10713
  141.0891  133.9945  157.3266 LP  0  0  0  0  0  0  0  0  0  0  0  0  # atno 17394 bound_to 11000
  139.9244  135.0201  156.8183 LP  0  0  0  0  0  0  0  0  0  0  0  0  # atno 17395 bound_to 11000

$$$$
