AV-unprocessed.smi:3337|AV-procd|sdf|12868|dock4
  -GOLD-   2272019263D 1   1.00000     0.00000
 Structure written by MMmdl.
 46 47  0  0  0  0  0  0  0  0  2 V2000
  150.8708  145.1683  159.9253 C   0  0  0  0  0  0  0  0  0  0  0  0
  152.0940  144.7831  159.0746 C   0  0  1  0  0  0  0  0  0  0  0  0
  153.0891  143.8816  159.8277 C   0  0  0  0  0  0  0  0  0  0  0  0
  152.5590  142.4436  159.9712 C   0  0  2  0  0  0  0  0  0  0  0  0
  153.5856  141.5368  160.6645 C   0  0  0  0  0  0  0  0  0  0  0  0
  152.1515  141.8842  158.5943 C   0  0  0  0  0  0  0  0  0  0  0  0
  151.1595  142.7635  157.9224 N   0  3  2  0  0  0  0  0  0  0  0  0
  150.6302  142.1604  156.6731 C   0  0  0  0  0  0  0  0  0  0  0  0
  149.4302  141.2288  156.9309 C   0  0  0  0  0  0  0  0  0  0  0  0
  148.4581  141.2954  155.8466 N   0  0  0  0  0  0  0  0  0  0  0  0
  148.7199  141.0152  154.5593 C   0  0  0  0  0  0  0  0  0  0  0  0
  149.8446  140.7083  154.1618 O   0  0  0  0  0  0  0  0  0  0  0  0
  147.5342  141.1067  153.5807 C   0  0  1  0  0  0  0  0  0  0  0  0
  147.1058  139.7356  153.0202 C   0  0  0  0  0  0  0  0  0  0  0  0
  146.4077  141.8071  154.1873 N   0  0  0  0  0  0  0  0  0  0  0  0
  145.8150  142.9500  153.8347 C   0  0  0  0  0  0  0  0  0  0  0  0
  144.8235  143.3119  154.6367 N   0  0  0  0  0  0  0  0  0  0  0  0
  144.8591  142.2757  155.5261 C   0  0  0  0  0  0  0  0  0  0  0  0
  145.7920  141.3494  155.3062 N   0  0  0  0  0  0  0  0  0  0  0  0
  151.6920  144.1397  157.7330 C   0  0  0  0  0  0  0  0  0  0  0  0
  150.2630  144.3016  160.1847 H   0  0  0  0  0  0  0  0  0  0  0  0
  150.2295  145.8700  159.3911 H   0  0  0  0  0  0  0  0  0  0  0  0
  151.1763  145.6492  160.8551 H   0  0  0  0  0  0  0  0  0  0  0  0
  152.6123  145.7153  158.8463 H   0  0  0  0  0  0  0  0  0  0  0  0
  154.0335  143.8626  159.2816 H   0  0  0  0  0  0  0  0  0  0  0  0
  153.3140  144.3045  160.8077 H   0  0  0  0  0  0  0  0  0  0  0  0
  151.6710  142.4647  160.6037 H   0  0  0  0  0  0  0  0  0  0  0  0
  154.5062  141.4619  160.0847 H   0  0  0  0  0  0  0  0  0  0  0  0
  153.1933  140.5283  160.7979 H   0  0  0  0  0  0  0  0  0  0  0  0
  153.8448  141.9208  161.6515 H   0  0  0  0  0  0  0  0  0  0  0  0
  153.0278  141.7698  157.9539 H   0  0  0  0  0  0  0  0  0  0  0  0
  151.7250  140.8891  158.7273 H   0  0  0  0  0  0  0  0  0  0  0  0
  150.3659  142.9473  155.9647 H   0  0  0  0  0  0  0  0  0  0  0  0
  151.4212  141.5751  156.2016 H   0  0  0  0  0  0  0  0  0  0  0  0
  149.7671  140.1997  157.0689 H   0  0  0  0  0  0  0  0  0  0  0  0
  148.9075  141.5079  157.8446 H   0  0  0  0  0  0  0  0  0  0  0  0
  147.5110  141.5433  156.0947 H   0  0  0  0  0  0  0  0  0  0  0  0
  147.8722  141.7116  152.7378 H   0  0  0  0  0  0  0  0  0  0  0  0
  147.9310  139.2417  152.5059 H   0  0  0  0  0  0  0  0  0  0  0  0
  146.2949  139.8472  152.2996 H   0  0  0  0  0  0  0  0  0  0  0  0
  146.7565  139.0659  153.8071 H   0  0  0  0  0  0  0  0  0  0  0  0
  146.1166  143.5312  152.9755 H   0  0  0  0  0  0  0  0  0  0  0  0
  144.1809  142.2048  156.3635 H   0  0  0  0  0  0  0  0  0  0  0  0
  150.9584  144.7758  157.2396 H   0  0  0  0  0  0  0  0  0  0  0  0
  152.5578  144.0976  157.0699 H   0  0  0  0  0  0  0  0  0  0  0  0
  150.3763  142.8353  158.5562 H   0  0  0  0  0  0  0  0  0  0  0  0
  1  2  1  0  0  0  0
  1 21  1  0  0  0  0
  1 22  1  0  0  0  0
  1 23  1  0  0  0  0
  2 20  1  0  0  0  0
  2  3  1  0  0  0  0
  2 24  1  0  0  0  0
  3  4  1  0  0  0  0
  3 25  1  0  0  0  0
  3 26  1  0  0  0  0
  4  5  1  0  0  0  0
  4  6  1  0  0  0  0
  4 27  1  0  0  0  0
  5 28  1  0  0  0  0
  5 29  1  0  0  0  0
  5 30  1  0  0  0  0
  6  7  1  0  0  0  0
  6 31  1  0  0  0  0
  6 32  1  0  0  0  0
  7  8  1  0  0  0  0
  7 20  1  0  0  0  0
  7 46  1  0  0  0  0
  8  9  1  0  0  0  0
  8 33  1  0  0  0  0
  8 34  1  0  0  0  0
  9 10  1  0  0  0  0
  9 35  1  0  0  0  0
  9 36  1  0  0  0  0
 10 11  1  0  0  0  0
 10 37  1  0  0  0  0
 11 12  2  0  0  0  0
 11 13  1  0  0  0  0
 13 14  1  0  0  0  0
 13 15  1  0  0  0  0
 13 38  1  0  0  0  0
 14 39  1  0  0  0  0
 14 40  1  0  0  0  0
 14 41  1  0  0  0  0
 15 19  1  0  0  0  0
 15 16  1  0  0  0  0
 16 17  2  0  0  0  0
 16 42  1  0  0  0  0
 17 18  1  0  0  0  0
 18 19  2  0  0  0  0
 18 43  1  0  0  0  0
 20 44  1  0  0  0  0
 20 45  1  0  0  0  0
M  CHG  1   7   1
M  END
> <s_m_source_file>
AV-unprocessed.smi

> <i_m_source_file_index>
3337

> <i_lp_mmshare_version>
43012

> <i_f3d_flags>
0

> <s_epik_input>
W0NIM11bQ0BASF0xW0NIMl1bQ0BASF0oW0NIM10pW0NIMl1OKFtDSDJdMSlbQ0gyXVtDSDJdW05IXUMoPU8pW0NASF0oW0NIM10pbjJbY0hdbltjSF1uMg==

> <s_epik_cmdline>
J2VwaWtfcHl0aG9uJywgJy1waCcsICc3LjAnLCAnLXRuJywgJzgnLCAnLW1hJywgJzIwMCcsICctbWV0YWxfYmluZGluZycsICctaW1hZScsICc8aW5maWxlLm1hZT4nLCAnLW9tYWUnLCAnPG91dGZpbGUubWFlPic=

> <r_lp_tautomer_probability>
1

> <r_epik_Ionization_Penalty>
0.00175613

> <r_epik_Ionization_Penalty_Charging>
0.00174812

> <r_epik_Ionization_Penalty_Neutral>
8.01354e-06

> <r_epik_State_Penalty>
0.00118332

> <r_epik_Charging_Adjusted_Penalty>
0.00293143

> <i_epik_Tot_Q>
1

> <i_epik_Tot_abs_Q>
1

> <r_epik_Metal_State_Penalty>
-0

> <b_epik_Metal_Only>
0

> <s_lp_Force_Field>
OPLS_2005

> <r_lp_Energy>
24.7561

> <b_lp_Chiralities_Consistent>
1

> <s_lp_Variant>
AV-unprocessed.smi:3337-8

> <Gold.Version>
5.8.1

> <Gold.Id.Protein>
6NUR|6NUR_protein|mol2

> <Gold.PLP.Fitness>
48.0822

> <Gold.PLP.PLP>
-47.7553

> <Gold.PLP.part.hbond>
-1.0384

> <Gold.PLP.part.metal>
0.0000

> <Gold.PLP.part.buried>
-7.1865

> <Gold.PLP.part.nonpolar>
-40.3854

> <Gold.PLP.part.repulsive>
0.7955

> <Gold.PLP.ligand.clash>
0.0000

> <Gold.PLP.ligand.torsion>
0.8840

> <Gold.PLP.Chemscore.Hbond>
0.6560

> <Gold.PLP.Chemscore.CHOScore>
0.0000

> <Gold.PLP.Chemscore.Metal>
0.0000

> <Gold.Chemscore.Hbonds>
donor molecule, donor type, donor heavy atom, donor atom, acceptor molecule, acceptor atom, score
      P1  H  7989  7998       L1    12  0.64

> <Gold.PLP.Chemscore.Internal.Correction>
0.1270

> <Gold.Rescore>
     Score         DG    S(hbond)    S(metal)    S(lipo)     H(rot)  DE(clash)    DE(int)     intcor
     11.92     -14.18       0.91        0.00     103.37       2.51       0.09       2.16       ----

> <Gold.Chemscore.Fitness>
11.9183

> <Gold.Chemscore.DG>
-14.1768

> <Gold.Chemscore.ZeroCoef>
-5.4800

> <Gold.Chemscore.Hbond>
0.9089

> <Gold.Chemscore.Metal>
0.0000

> <Gold.Chemscore.Lipo>
103.3695

> <Gold.Chemscore.Internal_Hbond>
0.0000

> <Gold.Chemscore.DEClash>
0.0939

> <Gold.Chemscore.DEInternal>
2.1646

> <Gold.Chemscore.Rot>
2.5129

> <Gold.Chemscore.Internal.Correction>
   9.000000E+99

> <Gold.Chemscore.Hbonds>
donor molecule, donor type, donor heavy atom, donor atom, acceptor molecule, acceptor atom, score
      P1  H  7989  7998       L1    12  0.64

> <Gold.Chemscore.Hbond.Weighted>
-3.0356

> <Gold.Chemscore.Metal.Weighted>
-0.0000

> <Gold.Chemscore.Lipo.Weighted>
-12.0942

> <Gold.Chemscore.Internal_Hbond.Weighted>
0.0000

> <Gold.Chemscore.DEClash.Weighted>
0.0939

> <Gold.Chemscore.DEInternal.Weighted>
2.1646

> <Gold.Chemscore.Rot.Weighted>
6.4331

> <Gold.Chemscore.Internal.Correction.Weighted>
   9.000000E+99

> <Gold.Protein.RotatedTorsions>
[ 6907 6896 6895 6894 ] final   85.32 input  -60.11 | X-H torsion
[ 7974 7965 7964 7962 ] final  -35.99 input  175.53 | X-H torsion
[ 8008 7997 7996 7995 ] final  156.87 input   59.86 | X-H torsion
[ 10167 10162 10161 10158 ] final   93.53 input  -65.29 | X-H torsion
[ 10718 10713 10712 10709 ] final  -25.73 input   66.30 | X-H torsion
[ 10763 10752 10751 10750 ] final  -49.01 input  -60.55 | X-H torsion
[ 11005 11000 10999 10996 ] final  168.48 input  -57.11 | X-H torsion

> <Gold.Protein.ActiveResidues>
 VAL166  LYS551  ARG553  GLY616  TRP617  ASP618  TYR619  PRO620  LYS621  CYS622 
 ASP623  PHE694  ASN695  SER759  ASP760  ASP761  ALA762  ILE779  LEU786  VAL792 
 PHE793  MET794  SER795  GLU796  ALA797  LYS798  CYS799  TRP800  GLU811  SER814 

> <Gold.Protein.RotatedAtoms>
  152.5372  134.2605  159.8933 H   0  0  0  0  0  0  0  0  0  0  0  0  # atno 6907 bound_to 6896
  151.2565  133.4317  159.2621 H   0  0  0  0  0  0  0  0  0  0  0  0  # atno 6908 bound_to 6896
  151.0492  134.9675  159.8258 H   0  0  0  0  0  0  0  0  0  0  0  0  # atno 6909 bound_to 6896
  146.0700  140.6225  142.8957 H   0  0  0  0  0  0  0  0  0  0  0  0  # atno 7974 bound_to 7965
  156.2397  140.1900  156.7022 H   0  0  0  0  0  0  0  0  0  0  0  0  # atno 8008 bound_to 7997
  154.6173  140.0613  156.9598 H   0  0  0  0  0  0  0  0  0  0  0  0  # atno 8009 bound_to 7997
  155.1918  140.3285  155.4360 H   0  0  0  0  0  0  0  0  0  0  0  0  # atno 8010 bound_to 7997
  139.8171  144.6748  150.9566 H   0  0  0  0  0  0  0  0  0  0  0  0  # atno 10167 bound_to 10162
  156.4605  130.4503  149.6931 H   0  0  0  0  0  0  0  0  0  0  0  0  # atno 10718 bound_to 10713
  154.0872  135.6582  153.4847 H   0  0  0  0  0  0  0  0  0  0  0  0  # atno 10763 bound_to 10752
  153.0335  135.5194  154.7416 H   0  0  0  0  0  0  0  0  0  0  0  0  # atno 10764 bound_to 10752
  154.6529  135.3004  154.9933 H   0  0  0  0  0  0  0  0  0  0  0  0  # atno 10765 bound_to 10752
  140.2876  134.7699  157.3812 H   0  0  0  0  0  0  0  0  0  0  0  0  # atno 11005 bound_to 11000
  144.7225  140.4421  143.6997 LP  0  0  0  0  0  0  0  0  0  0  0  0  # atno 17320 bound_to 7965
  145.6409  139.1550  143.2916 LP  0  0  0  0  0  0  0  0  0  0  0  0  # atno 17321 bound_to 7965
  140.7815  143.4128  151.0966 LP  0  0  0  0  0  0  0  0  0  0  0  0  # atno 17342 bound_to 10162
  139.7791  143.8382  152.3134 LP  0  0  0  0  0  0  0  0  0  0  0  0  # atno 17343 bound_to 10162
  156.3721  130.7536  151.2520 LP  0  0  0  0  0  0  0  0  0  0  0  0  # atno 17370 bound_to 10713
  157.7498  131.0320  150.4207 LP  0  0  0  0  0  0  0  0  0  0  0  0  # atno 17371 bound_to 10713
  140.1225  134.5201  155.8172 LP  0  0  0  0  0  0  0  0  0  0  0  0  # atno 17394 bound_to 11000
  141.2152  133.6761  156.6891 LP  0  0  0  0  0  0  0  0  0  0  0  0  # atno 17395 bound_to 11000

$$$$
