AV-unprocessed.smi:1404|AV-procd|sdf|5705|dock7
  -GOLD-   22720 5333D 1   1.00000     0.00000
 Structure written by MMmdl.
 47 48  0  0  0  0  0  0  0  0  1 V2000
  150.7578  141.8242  156.5171 C   0  0  0  0  0  0  0  0  0  0  0  0
  150.5697  140.6314  155.7181 N   0  0  0  0  0  0  0  0  0  0  0  0
  151.6062  139.6682  155.6575 C   0  0  0  0  0  0  0  0  0  0  0  0
  152.6720  139.7988  156.2603 O   0  0  0  0  0  0  0  0  0  0  0  0
  151.3043  138.5101  154.8248 C   0  0  0  0  0  0  0  0  0  0  0  0
  150.1196  138.4044  154.1844 C   0  0  0  0  0  0  0  0  0  0  0  0
  149.1221  139.3591  154.2643 N   0  0  0  0  0  0  0  0  0  0  0  0
  147.8657  139.1654  153.5293 C   0  0  0  0  0  0  0  0  0  0  0  0
  146.8798  138.2487  154.2649 C   0  0  0  0  0  0  0  0  0  0  0  0
  146.2342  138.6630  155.2286 O   0  0  0  0  0  0  0  0  0  0  0  0
  146.7628  137.0042  153.7838 N   0  0  0  0  0  0  0  0  0  0  0  0
  145.9044  135.9711  154.3542 C   0  0  0  0  0  0  0  0  0  0  0  0
  144.6804  135.6569  153.4475 C   0  0  0  0  0  0  0  0  0  0  0  0
  143.6206  134.9643  154.3375 C   0  0  0  0  0  0  0  0  0  0  0  0
  144.0961  137.0255  153.0147 C   0  0  0  0  0  0  0  0  0  0  0  0
  145.0688  134.8437  152.2604 N   0  0  0  0  0  0  0  0  0  0  0  0
  146.0471  133.7832  152.5303 C   0  0  0  0  0  0  0  0  0  0  0  0
  146.4934  133.0666  151.2446 C   0  0  0  0  0  0  0  0  0  0  0  0
  145.3571  132.5385  150.5711 O   0  0  0  0  0  0  0  0  0  0  0  0
  144.4096  133.5448  150.2361 C   0  0  0  0  0  0  0  0  0  0  0  0
  143.9458  134.2672  151.5125 C   0  0  0  0  0  0  0  0  0  0  0  0
  149.3322  140.5137  155.0482 C   0  0  0  0  0  0  0  0  0  0  0  0
  148.4601  141.3822  155.1382 O   0  0  0  0  0  0  0  0  0  0  0  0
  151.7537  141.8558  156.9575 H   0  0  0  0  0  0  0  0  0  0  0  0
  150.0015  141.8062  157.3038 H   0  0  0  0  0  0  0  0  0  0  0  0
  150.6240  142.6826  155.8561 H   0  0  0  0  0  0  0  0  0  0  0  0
  152.0405  137.7268  154.7198 H   0  0  0  0  0  0  0  0  0  0  0  0
  149.9466  137.5279  153.5771 H   0  0  0  0  0  0  0  0  0  0  0  0
  147.3768  140.1264  153.3645 H   0  0  0  0  0  0  0  0  0  0  0  0
  148.0746  138.7661  152.5349 H   0  0  0  0  0  0  0  0  0  0  0  0
  147.3287  136.7407  152.9899 H   0  0  0  0  0  0  0  0  0  0  0  0
  146.4879  135.0686  154.5422 H   0  0  0  0  0  0  0  0  0  0  0  0
  145.5742  136.3079  155.3383 H   0  0  0  0  0  0  0  0  0  0  0  0
  143.3615  135.5889  155.1934 H   0  0  0  0  0  0  0  0  0  0  0  0
  143.9774  134.0157  154.7383 H   0  0  0  0  0  0  0  0  0  0  0  0
  142.6929  134.7699  153.8001 H   0  0  0  0  0  0  0  0  0  0  0  0
  143.9707  137.6949  153.8665 H   0  0  0  0  0  0  0  0  0  0  0  0
  143.1109  136.9291  152.5586 H   0  0  0  0  0  0  0  0  0  0  0  0
  144.7432  137.5313  152.2969 H   0  0  0  0  0  0  0  0  0  0  0  0
  146.9383  134.1875  153.0067 H   0  0  0  0  0  0  0  0  0  0  0  0
  145.6270  133.0470  153.2156 H   0  0  0  0  0  0  0  0  0  0  0  0
  147.0306  133.7520  150.5868 H   0  0  0  0  0  0  0  0  0  0  0  0
  147.1762  132.2511  151.4834 H   0  0  0  0  0  0  0  0  0  0  0  0
  144.8510  134.2511  149.5311 H   0  0  0  0  0  0  0  0  0  0  0  0
  143.5602  133.0806  149.7348 H   0  0  0  0  0  0  0  0  0  0  0  0
  143.4008  133.5590  152.1367 H   0  0  0  0  0  0  0  0  0  0  0  0
  143.2380  135.0391  151.2167 H   0  0  0  0  0  0  0  0  0  0  0  0
  1  2  1  0  0  0  0
  1 24  1  0  0  0  0
  1 25  1  0  0  0  0
  1 26  1  0  0  0  0
  2 22  1  0  0  0  0
  2  3  1  0  0  0  0
  3  4  2  0  0  0  0
  3  5  1  0  0  0  0
  5  6  2  0  0  0  0
  5 27  1  0  0  0  0
  6  7  1  0  0  0  0
  6 28  1  0  0  0  0
  7  8  1  0  0  0  0
  7 22  1  0  0  0  0
  8  9  1  0  0  0  0
  8 29  1  0  0  0  0
  8 30  1  0  0  0  0
  9 10  2  0  0  0  0
  9 11  1  0  0  0  0
 11 12  1  0  0  0  0
 11 31  1  0  0  0  0
 12 13  1  0  0  0  0
 12 32  1  0  0  0  0
 12 33  1  0  0  0  0
 13 14  1  0  0  0  0
 13 15  1  0  0  0  0
 13 16  1  0  0  0  0
 14 34  1  0  0  0  0
 14 35  1  0  0  0  0
 14 36  1  0  0  0  0
 15 37  1  0  0  0  0
 15 38  1  0  0  0  0
 15 39  1  0  0  0  0
 16 21  1  0  0  0  0
 16 17  1  0  0  0  0
 17 18  1  0  0  0  0
 17 40  1  0  0  0  0
 17 41  1  0  0  0  0
 18 19  1  0  0  0  0
 18 42  1  0  0  0  0
 18 43  1  0  0  0  0
 19 20  1  0  0  0  0
 20 21  1  0  0  0  0
 20 44  1  0  0  0  0
 20 45  1  0  0  0  0
 21 46  1  0  0  0  0
 21 47  1  0  0  0  0
 22 23  2  0  0  0  0
M  END
> <s_m_source_file>
AV-unprocessed.smi

> <i_m_source_file_index>
1404

> <i_lp_mmshare_version>
43012

> <i_f3d_flags>
0

> <s_epik_input>
W0NIM11uMWMoPU8pW2NIXVtjSF1uKGMxPU8pW0NIMl1DKD1PKVtOSF1bQ0gyXUMoW0NIM10pKFtDSDNdKU4yW0NIMl1bQ0gyXU9bQ0gyXVtDSDJdMg==

> <s_epik_cmdline>
J2VwaWtfcHl0aG9uJywgJy1waCcsICc3LjAnLCAnLXRuJywgJzgnLCAnLW1hJywgJzIwMCcsICctbWV0YWxfYmluZGluZycsICctaW1hZScsICc8aW5maWxlLm1hZT4nLCAnLW9tYWUnLCAnPG91dGZpbGUubWFlPic=

> <r_lp_tautomer_probability>
1

> <r_epik_Ionization_Penalty>
0.237382

> <r_epik_Ionization_Penalty_Charging>
1.16427e-08

> <r_epik_Ionization_Penalty_Neutral>
0.237382

> <r_epik_State_Penalty>
0.228245

> <r_epik_Charging_Adjusted_Penalty>
0.228245

> <i_epik_Tot_Q>
0

> <i_epik_Tot_abs_Q>
0

> <r_epik_Metal_State_Penalty>
0.22822

> <b_epik_Metal_Only>
0

> <s_lp_Force_Field>
OPLS_2005

> <r_lp_Energy>
49.615

> <b_lp_Chiralities_Consistent>
1

> <s_lp_Variant>
AV-unprocessed.smi:1404-1

> <Gold.Version>
5.8.1

> <Gold.Id.Protein>
6NUR|6NUR_protein|mol2

> <Gold.PLP.Fitness>
41.1617

> <Gold.PLP.PLP>
-34.2695

> <Gold.PLP.part.hbond>
-2.0000

> <Gold.PLP.part.metal>
0.0000

> <Gold.PLP.part.buried>
-2.0980

> <Gold.PLP.part.nonpolar>
-30.8697

> <Gold.PLP.part.repulsive>
0.4031

> <Gold.PLP.ligand.clash>
0.0000

> <Gold.PLP.ligand.torsion>
1.1854

> <Gold.PLP.Chemscore.Hbond>
2.0000

> <Gold.PLP.Chemscore.CHOScore>
1.0517

> <Gold.PLP.Chemscore.Metal>
0.0000

> <Gold.Chemscore.Hbonds>
donor molecule, donor type, donor heavy atom, donor atom, acceptor molecule, acceptor atom, score
      L1  H    11    31       P1  7948  0.98
      P1  H  7997  8009       L1     4  1.00
      L1  C     6    28       P1  7948  1.00
      L1  C     6    28       P1  7949  0.01

> <Gold.PLP.Chemscore.Internal.Correction>
0.1079

> <Gold.Rescore>
     Score         DG    S(hbond)    S(metal)    S(lipo)     H(rot)  DE(clash)    DE(int)     intcor
     13.28     -14.20       2.00        0.00      62.76       2.07       0.03       0.89       ----

> <Gold.Chemscore.Fitness>
13.2839

> <Gold.Chemscore.DG>
-14.1970

> <Gold.Chemscore.ZeroCoef>
-5.4800

> <Gold.Chemscore.Hbond>
1.9954

> <Gold.Chemscore.Metal>
0.0000

> <Gold.Chemscore.Lipo>
62.7560

> <Gold.Chemscore.Internal_Hbond>
0.0000

> <Gold.Chemscore.DEClash>
0.0251

> <Gold.Chemscore.DEInternal>
0.8881

> <Gold.Chemscore.Rot>
2.0664

> <Gold.Chemscore.Internal.Correction>
   9.000000E+99

> <Gold.Chemscore.Hbonds>
donor molecule, donor type, donor heavy atom, donor atom, acceptor molecule, acceptor atom, score
      L1  H    11    31       P1  7948  0.91
      P1  H  7997  8009       L1     4  1.00

> <Gold.Chemscore.Hbond.Weighted>
-6.6645

> <Gold.Chemscore.Metal.Weighted>
-0.0000

> <Gold.Chemscore.Lipo.Weighted>
-7.3425

> <Gold.Chemscore.Internal_Hbond.Weighted>
0.0000

> <Gold.Chemscore.DEClash.Weighted>
0.0251

> <Gold.Chemscore.DEInternal.Weighted>
0.8881

> <Gold.Chemscore.Rot.Weighted>
5.2899

> <Gold.Chemscore.Internal.Correction.Weighted>
   9.000000E+99

> <Gold.Protein.RotatedTorsions>
[ 6907 6896 6895 6894 ] final  103.97 input  -60.11 | X-H torsion
[ 7974 7965 7964 7962 ] final  -79.17 input  175.53 | X-H torsion
[ 8008 7997 7996 7995 ] final -160.11 input   59.86 | X-H torsion
[ 10167 10162 10161 10158 ] final -129.14 input  -65.29 | X-H torsion
[ 10718 10713 10712 10709 ] final   85.65 input   66.30 | X-H torsion
[ 10763 10752 10751 10750 ] final  -30.63 input  -60.55 | X-H torsion
[ 11005 11000 10999 10996 ] final   88.66 input  -57.11 | X-H torsion

> <Gold.Protein.ActiveResidues>
 VAL166  LYS551  ARG553  GLY616  TRP617  ASP618  TYR619  PRO620  LYS621  CYS622 
 ASP623  PHE694  ASN695  SER759  ASP760  ASP761  ALA762  ILE779  LEU786  VAL792 
 PHE793  MET794  SER795  GLU796  ALA797  LYS798  CYS799  TRP800  GLU811  SER814 

> <Gold.Protein.RotatedAtoms>
  152.5279  133.9746  159.7777 H   0  0  0  0  0  0  0  0  0  0  0  0  # atno 6907 bound_to 6896
  151.0011  133.6047  159.2702 H   0  0  0  0  0  0  0  0  0  0  0  0  # atno 6908 bound_to 6896
  151.3155  135.0811  159.9341 H   0  0  0  0  0  0  0  0  0  0  0  0  # atno 6909 bound_to 6896
  145.5768  140.9456  143.1365 H   0  0  0  0  0  0  0  0  0  0  0  0  # atno 7974 bound_to 7965
  155.7726  140.0854  157.2100 H   0  0  0  0  0  0  0  0  0  0  0  0  # atno 8008 bound_to 7997
  154.3995  140.1522  156.3016 H   0  0  0  0  0  0  0  0  0  0  0  0  # atno 8009 bound_to 7997
  155.8732  140.3424  155.5839 H   0  0  0  0  0  0  0  0  0  0  0  0  # atno 8010 bound_to 7997
  139.9429  143.6143  152.2498 H   0  0  0  0  0  0  0  0  0  0  0  0  # atno 10167 bound_to 10162
  157.6918  131.0183  150.2854 H   0  0  0  0  0  0  0  0  0  0  0  0  # atno 10718 bound_to 10713
  153.7841  135.6903  153.4883 H   0  0  0  0  0  0  0  0  0  0  0  0  # atno 10763 bound_to 10752
  153.1792  135.4513  155.0004 H   0  0  0  0  0  0  0  0  0  0  0  0  # atno 10764 bound_to 10752
  154.8070  135.3361  154.7342 H   0  0  0  0  0  0  0  0  0  0  0  0  # atno 10765 bound_to 10752
  139.8891  134.8502  156.3032 H   0  0  0  0  0  0  0  0  0  0  0  0  # atno 11005 bound_to 11000
  144.7412  139.7443  143.7310 LP  0  0  0  0  0  0  0  0  0  0  0  0  # atno 17320 bound_to 7965
  146.1745  139.4909  142.9906 LP  0  0  0  0  0  0  0  0  0  0  0  0  # atno 17321 bound_to 7965
  139.6690  144.7661  151.1819 LP  0  0  0  0  0  0  0  0  0  0  0  0  # atno 17342 bound_to 10162
  140.7606  143.5894  150.8812 LP  0  0  0  0  0  0  0  0  0  0  0  0  # atno 17343 bound_to 10162
  156.3394  130.3813  149.7422 LP  0  0  0  0  0  0  0  0  0  0  0  0  # atno 17370 bound_to 10713
  156.4936  130.8096  151.3105 LP  0  0  0  0  0  0  0  0  0  0  0  0  # atno 17371 bound_to 10713
  140.9899  133.7215  156.0798 LP  0  0  0  0  0  0  0  0  0  0  0  0  # atno 17394 bound_to 11000
  140.7638  134.3909  157.5521 LP  0  0  0  0  0  0  0  0  0  0  0  0  # atno 17395 bound_to 11000

$$$$
