AV-unprocessed.smi:3031|AV-procd|sdf|11546|dock10
  -GOLD-   2272016503D 1   1.00000     0.00000
 Structure written by MMmdl.
 47 48  0  0  0  0  0  0  0  0  2 V2000
  150.6760  142.7537  157.9523 C   0  0  0  0  0  0  0  0  0  0  0  0
  150.3582  141.8661  156.7838 C   0  0  0  0  0  0  0  0  0  0  0  0
  151.2156  140.9312  156.1370 C   0  0  0  0  0  0  0  0  0  0  0  0
  150.6266  140.3015  155.1336 N   0  0  0  0  0  0  0  0  0  0  0  0
  149.3774  140.8125  155.1018 N   0  0  0  0  0  0  0  0  0  0  0  0
  148.4265  140.3445  154.1089 C   0  0  0  0  0  0  0  0  0  0  0  0
  146.9583  140.6762  154.4728 C   0  0  1  0  0  0  0  0  0  0  0  0
  146.6487  142.1794  154.3620 C   0  0  0  0  0  0  0  0  0  0  0  0
  146.0089  139.9330  153.6379 N   0  0  0  0  0  0  0  0  0  0  0  0
  146.3188  139.8936  152.2084 C   0  0  0  0  0  0  0  0  0  0  0  0
  146.6145  138.4594  151.7390 C   0  0  2  0  0  0  0  0  0  0  0  0
  146.4184  138.4242  150.3398 O   0  0  0  0  0  0  0  0  0  0  0  0
  145.6783  137.4139  152.3827 C   0  0  0  0  0  0  0  0  0  0  0  0
  146.0841  136.0194  152.0721 N   0  3  0  0  0  0  0  0  0  0  0  0
  145.7275  135.0449  153.1334 C   0  0  0  0  0  0  0  0  0  0  0  0
  146.2186  133.6369  152.7560 C   0  0  0  0  0  0  0  0  0  0  0  0
  145.6658  133.2587  151.5015 O   0  0  0  0  0  0  0  0  0  0  0  0
  146.0707  134.1341  150.4569 C   0  0  0  0  0  0  0  0  0  0  0  0
  145.5768  135.5597  150.7573 C   0  0  0  0  0  0  0  0  0  0  0  0
  149.1869  141.7554  156.0893 C   0  0  0  0  0  0  0  0  0  0  0  0
  151.7494  142.9094  158.0622 H   0  0  0  0  0  0  0  0  0  0  0  0
  150.3149  142.3282  158.8886 H   0  0  0  0  0  0  0  0  0  0  0  0
  150.2184  143.7376  157.8480 H   0  0  0  0  0  0  0  0  0  0  0  0
  152.2434  140.6926  156.3668 H   0  0  0  0  0  0  0  0  0  0  0  0
  148.6831  140.7816  153.1424 H   0  0  0  0  0  0  0  0  0  0  0  0
  148.5694  139.2684  154.0119 H   0  0  0  0  0  0  0  0  0  0  0  0
  146.7994  140.3923  155.5142 H   0  0  0  0  0  0  0  0  0  0  0  0
  147.2438  142.7663  155.0620 H   0  0  0  0  0  0  0  0  0  0  0  0
  145.6014  142.3820  154.5882 H   0  0  0  0  0  0  0  0  0  0  0  0
  146.8507  142.5537  153.3580 H   0  0  0  0  0  0  0  0  0  0  0  0
  145.0752  140.3063  153.7757 H   0  0  0  0  0  0  0  0  0  0  0  0
  145.4953  140.2994  151.6210 H   0  0  0  0  0  0  0  0  0  0  0  0
  147.1866  140.5249  152.0112 H   0  0  0  0  0  0  0  0  0  0  0  0
  147.6609  138.2298  151.9396 H   0  0  0  0  0  0  0  0  0  0  0  0
  145.5211  138.6559  150.1539 H   0  0  0  0  0  0  0  0  0  0  0  0
  145.6426  137.5381  153.4660 H   0  0  0  0  0  0  0  0  0  0  0  0
  144.6622  137.5906  152.0259 H   0  0  0  0  0  0  0  0  0  0  0  0
  146.1688  135.3356  154.0858 H   0  0  0  0  0  0  0  0  0  0  0  0
  144.6454  135.0344  153.2735 H   0  0  0  0  0  0  0  0  0  0  0  0
  147.3083  133.6017  152.7133 H   0  0  0  0  0  0  0  0  0  0  0  0
  145.9063  132.9153  153.5111 H   0  0  0  0  0  0  0  0  0  0  0  0
  147.1561  134.1119  150.3464 H   0  0  0  0  0  0  0  0  0  0  0  0
  145.6478  133.7804  149.5164 H   0  0  0  0  0  0  0  0  0  0  0  0
  144.4860  135.5861  150.7558 H   0  0  0  0  0  0  0  0  0  0  0  0
  145.9159  136.2360  149.9717 H   0  0  0  0  0  0  0  0  0  0  0  0
  148.2432  142.2659  156.2129 H   0  0  0  0  0  0  0  0  0  0  0  0
  147.0919  136.0259  152.0005 H   0  0  0  0  0  0  0  0  0  0  0  0
  1  2  1  0  0  0  0
  1 21  1  0  0  0  0
  1 22  1  0  0  0  0
  1 23  1  0  0  0  0
  2 20  2  0  0  0  0
  2  3  1  0  0  0  0
  3  4  2  0  0  0  0
  3 24  1  0  0  0  0
  4  5  1  0  0  0  0
  5  6  1  0  0  0  0
  5 20  1  0  0  0  0
  6  7  1  0  0  0  0
  6 25  1  0  0  0  0
  6 26  1  0  0  0  0
  7  8  1  0  0  0  0
  7  9  1  0  0  0  0
  7 27  1  0  0  0  0
  8 28  1  0  0  0  0
  8 29  1  0  0  0  0
  8 30  1  0  0  0  0
  9 10  1  0  0  0  0
  9 31  1  0  0  0  0
 10 11  1  0  0  0  0
 10 32  1  0  0  0  0
 10 33  1  0  0  0  0
 11 12  1  0  0  0  0
 11 13  1  0  0  0  0
 11 34  1  0  0  0  0
 12 35  1  0  0  0  0
 13 14  1  0  0  0  0
 13 36  1  0  0  0  0
 13 37  1  0  0  0  0
 14 19  1  0  0  0  0
 14 15  1  0  0  0  0
 14 47  1  0  0  0  0
 15 16  1  0  0  0  0
 15 38  1  0  0  0  0
 15 39  1  0  0  0  0
 16 17  1  0  0  0  0
 16 40  1  0  0  0  0
 16 41  1  0  0  0  0
 17 18  1  0  0  0  0
 18 19  1  0  0  0  0
 18 42  1  0  0  0  0
 18 43  1  0  0  0  0
 19 44  1  0  0  0  0
 19 45  1  0  0  0  0
 20 46  1  0  0  0  0
M  CHG  1  14   1
M  END
> <s_m_source_file>
AV-unprocessed.smi

> <i_m_source_file_index>
3031

> <i_lp_mmshare_version>
43012

> <i_f3d_flags>
0

> <s_epik_input>
W0NIM11jMVtjSF1ubihbY0hdMSlbQ0gyXVtDQEhdKFtDSDNdKVtOSF1bQ0gyXVtDQEhdKFtPSF0pW0NIMl1OMltDSDJdW0NIMl1PW0NIMl1bQ0gyXTI=

> <s_epik_cmdline>
J2VwaWtfcHl0aG9uJywgJy1waCcsICc3LjAnLCAnLXRuJywgJzgnLCAnLW1hJywgJzIwMCcsICctbWV0YWxfYmluZGluZycsICctaW1hZScsICc8aW5maWxlLm1hZT4nLCAnLW9tYWUnLCAnPG91dGZpbGUubWFlPic=

> <r_epik_Ionization_Penalty>
0.467051

> <r_epik_Ionization_Penalty_Charging>
0.202493

> <r_epik_Ionization_Penalty_Neutral>
0.264558

> <r_epik_State_Penalty>
1.34287

> <r_epik_Charging_Adjusted_Penalty>
1.54537

> <i_epik_Tot_Q>
1

> <i_epik_Tot_abs_Q>
1

> <r_epik_Metal_State_Penalty>
1.34281

> <b_epik_Metal_Only>
0

> <s_lp_Force_Field>
OPLS_2005

> <r_lp_Energy>
23.2864

> <b_lp_Chiralities_Consistent>
1

> <s_lp_Variant>
AV-unprocessed.smi:3031-6

> <Gold.Version>
5.8.1

> <Gold.Id.Protein>
6NUR|6NUR_protein|mol2

> <Gold.PLP.Fitness>
54.0084

> <Gold.PLP.PLP>
-38.2415

> <Gold.PLP.part.hbond>
-5.0000

> <Gold.PLP.part.metal>
0.0000

> <Gold.PLP.part.buried>
1.8607

> <Gold.PLP.part.nonpolar>
-35.4230

> <Gold.PLP.part.repulsive>
0.1615

> <Gold.PLP.ligand.clash>
0.0000

> <Gold.PLP.ligand.torsion>
1.3849

> <Gold.PLP.Chemscore.Hbond>
5.3848

> <Gold.PLP.Chemscore.CHOScore>
0.7314

> <Gold.PLP.Chemscore.Metal>
0.0000

> <Gold.Chemscore.Hbonds>
donor molecule, donor type, donor heavy atom, donor atom, acceptor molecule, acceptor atom, score
      L1  H     9    31       P1 10175  0.56
      L1  H    12    35       P1 10171  1.00
      L1  H    14    47       P1  7948  2.00
      P1  H  7954  7966       L1    12  0.65
      P1  H  7989  7998       L1     4  1.00
      L1  C    20    46       P1  8028  0.39

> <Gold.PLP.Chemscore.Internal.Correction>
0.1880

> <Gold.Rescore>
     Score         DG    S(hbond)    S(metal)    S(lipo)     H(rot)  DE(clash)    DE(int)     intcor
     19.74     -22.26       3.99        0.00      87.60       2.65       1.27       1.25       ----

> <Gold.Chemscore.Fitness>
19.7380

> <Gold.Chemscore.DG>
-22.2619

> <Gold.Chemscore.ZeroCoef>
-5.4800

> <Gold.Chemscore.Hbond>
3.9888

> <Gold.Chemscore.Metal>
0.0000

> <Gold.Chemscore.Lipo>
87.5966

> <Gold.Chemscore.Internal_Hbond>
0.0000

> <Gold.Chemscore.DEClash>
1.2706

> <Gold.Chemscore.DEInternal>
1.2533

> <Gold.Chemscore.Rot>
2.6521

> <Gold.Chemscore.Internal.Correction>
   9.000000E+99

> <Gold.Chemscore.Hbonds>
donor molecule, donor type, donor heavy atom, donor atom, acceptor molecule, acceptor atom, score
      L1  H     9    31       P1 10175  0.56
      L1  H    12    35       P1 10171  1.00
      L1  H    14    47       P1  7948  1.00
      P1  H  7954  7966       L1    12  0.13
      P1  H  7989  7998       L1     4  0.35

> <Gold.Chemscore.Hbond.Weighted>
-13.3224

> <Gold.Chemscore.Metal.Weighted>
-0.0000

> <Gold.Chemscore.Lipo.Weighted>
-10.2488

> <Gold.Chemscore.Internal_Hbond.Weighted>
0.0000

> <Gold.Chemscore.DEClash.Weighted>
1.2706

> <Gold.Chemscore.DEInternal.Weighted>
1.2533

> <Gold.Chemscore.Rot.Weighted>
6.7894

> <Gold.Chemscore.Internal.Correction.Weighted>
   9.000000E+99

> <Gold.Protein.RotatedTorsions>
[ 6907 6896 6895 6894 ] final  105.26 input  -60.11 | X-H torsion
[ 7974 7965 7964 7962 ] final  124.45 input  175.53 | X-H torsion
[ 8008 7997 7996 7995 ] final    1.25 input   59.86 | X-H torsion
[ 10167 10162 10161 10158 ] final   66.29 input  -65.29 | X-H torsion
[ 10718 10713 10712 10709 ] final -176.72 input   66.30 | X-H torsion
[ 10763 10752 10751 10750 ] final   69.27 input  -60.55 | X-H torsion
[ 11005 11000 10999 10996 ] final  147.42 input  -57.11 | X-H torsion

> <Gold.Protein.ActiveResidues>
 VAL166  LYS551  ARG553  GLY616  TRP617  ASP618  TYR619  PRO620  LYS621  CYS622 
 ASP623  PHE694  ASN695  SER759  ASP760  ASP761  ALA762  ILE779  LEU786  VAL792 
 PHE793  MET794  SER795  GLU796  ALA797  LYS798  CYS799  TRP800  GLU811  SER814 

> <Gold.Protein.RotatedAtoms>
  152.5236  133.9555  159.7692 H   0  0  0  0  0  0  0  0  0  0  0  0  # atno 6907 bound_to 6896
  150.9856  133.6192  159.2723 H   0  0  0  0  0  0  0  0  0  0  0  0  # atno 6908 bound_to 6896
  151.3354  135.0857  159.9406 H   0  0  0  0  0  0  0  0  0  0  0  0  # atno 6909 bound_to 6896
  145.0843  139.3634  143.4893 H   0  0  0  0  0  0  0  0  0  0  0  0  # atno 7974 bound_to 7965
  154.6775  140.2625  155.6942 H   0  0  0  0  0  0  0  0  0  0  0  0  # atno 8008 bound_to 7997
  156.2684  140.2817  156.1230 H   0  0  0  0  0  0  0  0  0  0  0  0  # atno 8009 bound_to 7997
  155.1079  140.0375  157.2705 H   0  0  0  0  0  0  0  0  0  0  0  0  # atno 8010 bound_to 7997
  140.1020  144.4895  150.7031 H   0  0  0  0  0  0  0  0  0  0  0  0  # atno 10167 bound_to 10162
  156.8188  130.9612  151.3112 H   0  0  0  0  0  0  0  0  0  0  0  0  # atno 10718 bound_to 10713
  153.0278  135.5217  154.7263 H   0  0  0  0  0  0  0  0  0  0  0  0  # atno 10763 bound_to 10752
  154.6303  135.2899  155.0226 H   0  0  0  0  0  0  0  0  0  0  0  0  # atno 10764 bound_to 10752
  154.1180  135.6612  153.4950 H   0  0  0  0  0  0  0  0  0  0  0  0  # atno 10765 bound_to 10752
  140.0874  134.9061  157.1597 H   0  0  0  0  0  0  0  0  0  0  0  0  # atno 11005 bound_to 11000
  146.3531  140.0648  142.8627 LP  0  0  0  0  0  0  0  0  0  0  0  0  # atno 17320 bound_to 7965
  145.1141  140.9423  143.4639 LP  0  0  0  0  0  0  0  0  0  0  0  0  # atno 17321 bound_to 7965
  140.6972  143.2411  151.4966 LP  0  0  0  0  0  0  0  0  0  0  0  0  # atno 17342 bound_to 10162
  139.5666  144.2028  152.1774 LP  0  0  0  0  0  0  0  0  0  0  0  0  # atno 17343 bound_to 10162
  157.6467  130.8850  149.9553 LP  0  0  0  0  0  0  0  0  0  0  0  0  # atno 17370 bound_to 10713
  156.1001  130.3656  150.0234 LP  0  0  0  0  0  0  0  0  0  0  0  0  # atno 17371 bound_to 10713
  140.3400  134.2714  155.7213 LP  0  0  0  0  0  0  0  0  0  0  0  0  # atno 17394 bound_to 11000
  141.2067  133.7826  157.0162 LP  0  0  0  0  0  0  0  0  0  0  0  0  # atno 17395 bound_to 11000

$$$$
