AV-unprocessed.smi:2736|AV-procd|sdf|10545|dock6
  -GOLD-   2272014593D 1   1.00000     0.00000
 Structure written by MMmdl.
 38 40  0  0  0  0  0  0  0  0  1 V2000
  153.0997  142.9907  160.4464 C   0  0  0  0  0  0  0  0  0  0  0  0
  152.9532  141.9280  159.4342 N   0  0  0  0  0  0  0  0  0  0  0  0
  152.0350  142.1089  158.4335 C   0  0  0  0  0  0  0  0  0  0  0  0
  151.3136  143.0986  158.3078 O   0  0  0  0  0  0  0  0  0  0  0  0
  151.9682  140.9972  157.4823 C   0  0  0  0  0  0  0  0  0  0  0  0
  152.7466  139.8930  157.5818 C   0  0  0  0  0  0  0  0  0  0  0  0
  152.4863  138.9951  156.5527 N   0  0  0  0  0  0  0  0  0  0  0  0
  151.5314  139.6272  155.8685 C   0  0  0  0  0  0  0  0  0  0  0  0
  151.1614  140.8284  156.3590 N   0  0  0  0  0  0  0  0  0  0  0  0
  150.1449  141.7120  155.8070 C   0  0  0  0  0  0  0  0  0  0  0  0
  149.2181  141.0042  154.7970 C   0  0  2  0  0  0  0  0  0  0  0  0
  149.6664  141.2611  153.4788 O   0  0  0  0  0  0  0  0  0  0  0  0
  147.7631  141.4198  155.0019 C   0  0  0  0  0  0  0  0  0  0  0  0
  147.0448  141.9751  153.9175 C   0  0  0  0  0  0  0  0  0  0  0  0
  145.7047  142.3766  154.0718 C   0  0  0  0  0  0  0  0  0  0  0  0
  145.0670  142.2301  155.3163 C   0  0  0  0  0  0  0  0  0  0  0  0
  145.7734  141.6869  156.4049 C   0  0  0  0  0  0  0  0  0  0  0  0
  147.1162  141.2843  156.2573 C   0  0  0  0  0  0  0  0  0  0  0  0
  147.9302  140.6386  157.6391 Cl  0  0  0  0  0  0  0  0  0  0  0  0
  153.6657  139.8042  158.6567 N   0  0  0  0  0  0  0  0  0  0  0  0
  154.4877  138.5933  158.7354 C   0  0  0  0  0  0  0  0  0  0  0  0
  153.7673  140.8168  159.5802 C   0  0  0  0  0  0  0  0  0  0  0  0
  154.5658  140.7364  160.5176 O   0  0  0  0  0  0  0  0  0  0  0  0
  152.4579  143.8596  160.2970 H   0  0  0  0  0  0  0  0  0  0  0  0
  154.1249  143.3642  160.4612 H   0  0  0  0  0  0  0  0  0  0  0  0
  152.8698  142.6026  161.4400 H   0  0  0  0  0  0  0  0  0  0  0  0
  151.0825  139.2000  154.9837 H   0  0  0  0  0  0  0  0  0  0  0  0
  149.5662  142.1354  156.6280 H   0  0  0  0  0  0  0  0  0  0  0  0
  150.6481  142.5533  155.3279 H   0  0  0  0  0  0  0  0  0  0  0  0
  149.3137  139.9271  154.9247 H   0  0  0  0  0  0  0  0  0  0  0  0
  149.4159  140.5330  152.9306 H   0  0  0  0  0  0  0  0  0  0  0  0
  147.5223  142.1000  152.9566 H   0  0  0  0  0  0  0  0  0  0  0  0
  145.1673  142.7986  153.2352 H   0  0  0  0  0  0  0  0  0  0  0  0
  144.0387  142.5374  155.4373 H   0  0  0  0  0  0  0  0  0  0  0  0
  145.2816  141.5810  157.3607 H   0  0  0  0  0  0  0  0  0  0  0  0
  155.1894  138.5768  159.5698 H   0  0  0  0  0  0  0  0  0  0  0  0
  155.0709  138.4813  157.8209 H   0  0  0  0  0  0  0  0  0  0  0  0
  153.8479  137.7156  158.8328 H   0  0  0  0  0  0  0  0  0  0  0  0
  1  2  1  0  0  0  0
  1 24  1  0  0  0  0
  1 25  1  0  0  0  0
  1 26  1  0  0  0  0
  2 22  1  0  0  0  0
  2  3  1  0  0  0  0
  3  4  2  0  0  0  0
  3  5  1  0  0  0  0
  5  9  1  0  0  0  0
  5  6  2  0  0  0  0
  6  7  1  0  0  0  0
  6 20  1  0  0  0  0
  7  8  2  0  0  0  0
  8  9  1  0  0  0  0
  8 27  1  0  0  0  0
  9 10  1  0  0  0  0
 10 11  1  0  0  0  0
 10 28  1  0  0  0  0
 10 29  1  0  0  0  0
 11 12  1  0  0  0  0
 11 13  1  0  0  0  0
 11 30  1  0  0  0  0
 12 31  1  0  0  0  0
 13 18  1  0  0  0  0
 13 14  2  0  0  0  0
 14 15  1  0  0  0  0
 14 32  1  0  0  0  0
 15 16  2  0  0  0  0
 15 33  1  0  0  0  0
 16 17  1  0  0  0  0
 16 34  1  0  0  0  0
 17 18  2  0  0  0  0
 17 35  1  0  0  0  0
 18 19  1  0  0  0  0
 20 21  1  0  0  0  0
 20 22  1  0  0  0  0
 21 36  1  0  0  0  0
 21 37  1  0  0  0  0
 21 38  1  0  0  0  0
 22 23  2  0  0  0  0
M  END
> <s_m_source_file>
AV-unprocessed.smi

> <i_m_source_file_index>
2736

> <i_lp_mmshare_version>
43012

> <i_f3d_flags>
0

> <s_epik_input>
Tz1jMW4oW0NIM10pYyg9TyluKFtDSDNdKWMoYzEyKW5bY0hdbjJbQ0gyXVtDQEhdKFtPSF0pYzNbY0hdW2NIXVtjSF1bY0hdYzNDbA==

> <s_epik_cmdline>
J2VwaWtfcHl0aG9uJywgJy1waCcsICc3LjAnLCAnLXRuJywgJzgnLCAnLW1hJywgJzIwMCcsICctbWV0YWxfYmluZGluZycsICctaW1hZScsICc8aW5maWxlLm1hZT4nLCAnLW9tYWUnLCAnPG91dGZpbGUubWFlPic=

> <r_lp_tautomer_probability>
1

> <r_epik_Ionization_Penalty>
1.63404e-06

> <r_epik_Ionization_Penalty_Charging>
3.74189e-09

> <r_epik_Ionization_Penalty_Neutral>
1.63029e-06

> <r_epik_State_Penalty>
-0

> <r_epik_Charging_Adjusted_Penalty>
3.74189e-09

> <i_epik_Tot_Q>
0

> <i_epik_Tot_abs_Q>
0

> <r_epik_Metal_State_Penalty>
-0

> <b_epik_Metal_Only>
0

> <s_lp_Force_Field>
OPLS_2005

> <r_lp_Energy>
36.4155

> <b_lp_Chiralities_Consistent>
1

> <s_lp_Variant>
AV-unprocessed.smi:2736-1

> <Gold.Version>
5.8.1

> <Gold.Id.Protein>
6NUR|6NUR_protein|mol2

> <Gold.PLP.Fitness>
48.2472

> <Gold.PLP.PLP>
-44.8238

> <Gold.PLP.part.hbond>
-3.0000

> <Gold.PLP.part.metal>
0.0000

> <Gold.PLP.part.buried>
-6.6656

> <Gold.PLP.part.nonpolar>
-34.9711

> <Gold.PLP.part.repulsive>
0.0763

> <Gold.PLP.ligand.clash>
0.0000

> <Gold.PLP.ligand.torsion>
0.7770

> <Gold.PLP.Chemscore.Hbond>
1.6536

> <Gold.PLP.Chemscore.CHOScore>
0.0000

> <Gold.PLP.Chemscore.Metal>
0.0000

> <Gold.Chemscore.Hbonds>
donor molecule, donor type, donor heavy atom, donor atom, acceptor molecule, acceptor atom, score
      L1  H    12    31       P1  7957  0.74
      P1  H  7989  7998       L1    12  0.12
      P1  H  8011  8017       L1    12  0.91

> <Gold.PLP.Chemscore.Internal.Correction>
0.0166

> <Gold.Rescore>
     Score         DG    S(hbond)    S(metal)    S(lipo)     H(rot)  DE(clash)    DE(int)     intcor
     11.11     -11.96       1.31        0.00      64.85       2.15       0.10       0.74       ----

> <Gold.Chemscore.Fitness>
11.1142

> <Gold.Chemscore.DG>
-11.9571

> <Gold.Chemscore.ZeroCoef>
-5.4800

> <Gold.Chemscore.Hbond>
1.3135

> <Gold.Chemscore.Metal>
0.0000

> <Gold.Chemscore.Lipo>
64.8506

> <Gold.Chemscore.Internal_Hbond>
0.0000

> <Gold.Chemscore.DEClash>
0.0990

> <Gold.Chemscore.DEInternal>
0.7440

> <Gold.Chemscore.Rot>
2.1474

> <Gold.Chemscore.Internal.Correction>
   9.000000E+99

> <Gold.Chemscore.Hbonds>
donor molecule, donor type, donor heavy atom, donor atom, acceptor molecule, acceptor atom, score
      L1  H    12    31       P1  7957  0.74
      P1  H  7989  7998       L1    12  0.01
      P1  H  8011  8017       L1    12  0.20

> <Gold.Chemscore.Hbond.Weighted>
-4.3869

> <Gold.Chemscore.Metal.Weighted>
-0.0000

> <Gold.Chemscore.Lipo.Weighted>
-7.5875

> <Gold.Chemscore.Internal_Hbond.Weighted>
0.0000

> <Gold.Chemscore.DEClash.Weighted>
0.0990

> <Gold.Chemscore.DEInternal.Weighted>
0.7440

> <Gold.Chemscore.Rot.Weighted>
5.4974

> <Gold.Chemscore.Internal.Correction.Weighted>
   9.000000E+99

> <Gold.Protein.RotatedTorsions>
[ 6907 6896 6895 6894 ] final  -19.31 input  -60.11 | X-H torsion
[ 7974 7965 7964 7962 ] final  -67.31 input  175.53 | X-H torsion
[ 8008 7997 7996 7995 ] final   31.44 input   59.86 | X-H torsion
[ 10167 10162 10161 10158 ] final -100.63 input  -65.29 | X-H torsion
[ 10718 10713 10712 10709 ] final    3.92 input   66.30 | X-H torsion
[ 10763 10752 10751 10750 ] final  -73.60 input  -60.55 | X-H torsion
[ 11005 11000 10999 10996 ] final  -68.42 input  -57.11 | X-H torsion

> <Gold.Protein.ActiveResidues>
 VAL166  LYS551  ARG553  GLY616  TRP617  ASP618  TYR619  PRO620  LYS621  CYS622 
 ASP623  PHE694  ASN695  SER759  ASP760  ASP761  ALA762  ILE779  LEU786  VAL792 
 PHE793  MET794  SER795  GLU796  ALA797  LYS798  CYS799  TRP800  GLU811  SER814 

> <Gold.Protein.RotatedAtoms>
  151.2650  135.0666  159.9112 H   0  0  0  0  0  0  0  0  0  0  0  0  # atno 6907 bound_to 6896
  152.5360  134.0191  159.7984 H   0  0  0  0  0  0  0  0  0  0  0  0  # atno 6908 bound_to 6896
  151.0420  133.5648  159.2681 H   0  0  0  0  0  0  0  0  0  0  0  0  # atno 6909 bound_to 6896
  145.7308  140.8997  143.0581 H   0  0  0  0  0  0  0  0  0  0  0  0  # atno 7974 bound_to 7965
  155.1064  140.3234  155.4533 H   0  0  0  0  0  0  0  0  0  0  0  0  # atno 8008 bound_to 7997
  156.2703  140.2052  156.6136 H   0  0  0  0  0  0  0  0  0  0  0  0  # atno 8009 bound_to 7997
  154.6790  140.0528  157.0232 H   0  0  0  0  0  0  0  0  0  0  0  0  # atno 8010 bound_to 7997
  140.2498  143.3480  152.0725 H   0  0  0  0  0  0  0  0  0  0  0  0  # atno 10167 bound_to 10162
  156.8849  130.5667  149.5651 H   0  0  0  0  0  0  0  0  0  0  0  0  # atno 10718 bound_to 10713
  154.4617  135.5892  153.6260 H   0  0  0  0  0  0  0  0  0  0  0  0  # atno 10763 bound_to 10752
  152.9824  135.6045  154.3478 H   0  0  0  0  0  0  0  0  0  0  0  0  # atno 10764 bound_to 10752
  154.3351  135.2842  155.2431 H   0  0  0  0  0  0  0  0  0  0  0  0  # atno 10765 bound_to 10752
  141.1531  133.6740  156.6443 H   0  0  0  0  0  0  0  0  0  0  0  0  # atno 11005 bound_to 11000
  144.6893  139.9329  143.7472 LP  0  0  0  0  0  0  0  0  0  0  0  0  # atno 17320 bound_to 7965
  146.0539  139.3537  143.0622 LP  0  0  0  0  0  0  0  0  0  0  0  0  # atno 17321 bound_to 7965
  139.5050  144.6786  151.6066 LP  0  0  0  0  0  0  0  0  0  0  0  0  # atno 17342 bound_to 10162
  140.6049  143.9542  150.6412 LP  0  0  0  0  0  0  0  0  0  0  0  0  # atno 17343 bound_to 10162
  156.0658  130.5701  150.9285 LP  0  0  0  0  0  0  0  0  0  0  0  0  # atno 17370 bound_to 10713
  157.6118  131.0936  150.8781 LP  0  0  0  0  0  0  0  0  0  0  0  0  # atno 17371 bound_to 10713
  140.3369  134.7882  157.4368 LP  0  0  0  0  0  0  0  0  0  0  0  0  # atno 17394 bound_to 11000
  140.0970  134.5524  155.8389 LP  0  0  0  0  0  0  0  0  0  0  0  0  # atno 17395 bound_to 11000

$$$$
