AV-unprocessed.smi:946|AV-procd|sdf|4237|dock2
  -GOLD-   22720 2143D 1   1.00000     0.00000
 Structure written by MMmdl.
 42 43  0  0  0  0  0  0  0  0  1 V2000
  150.3479  138.2732  154.5177 C   0  0  0  0  0  0  0  0  0  0  0  0
  150.3793  139.7992  154.6894 C   0  0  1  0  0  0  0  0  0  0  0  0
  149.0542  140.2247  154.9981 O   0  0  0  0  0  0  0  0  0  0  0  0
  148.4535  141.0989  154.0488 C   0  0  0  0  0  0  0  0  0  0  0  0
  147.4114  141.9677  154.7647 C   0  0  1  0  0  0  0  0  0  0  0  0
  146.5167  142.7289  153.7667 C   0  0  0  0  0  0  0  0  0  0  0  0
  145.4277  143.5133  154.5073 C   0  0  0  0  0  0  0  0  0  0  0  0
  144.6611  142.5728  155.4429 C   0  0  0  0  0  0  0  0  0  0  0  0
  145.6385  141.8095  156.3503 C   0  0  0  0  0  0  0  0  0  0  0  0
  146.5907  141.1096  155.5551 O   0  0  0  0  0  0  0  0  0  0  0  0
  151.3545  140.2206  155.8009 C   0  0  0  0  0  0  0  0  0  0  0  0
  152.4083  139.6024  155.9556 O   0  0  0  0  0  0  0  0  0  0  0  0
  150.9603  141.2625  156.5570 N   0  0  0  0  0  0  0  0  0  0  0  0
  151.6363  141.8617  157.6521 C   0  0  0  0  0  0  0  0  0  0  0  0
  151.4283  143.2511  157.7964 C   0  0  0  0  0  0  0  0  0  0  0  0
  152.0539  143.9379  158.8540 C   0  0  0  0  0  0  0  0  0  0  0  0
  152.8732  143.2181  159.7414 C   0  0  0  0  0  0  0  0  0  0  0  0
  153.0329  141.8319  159.5298 C   0  0  0  0  0  0  0  0  0  0  0  0
  153.9055  140.9806  160.4416 C   0  0  0  0  0  0  0  0  0  0  0  0
  153.7961  141.4106  161.6988 F   0  0  0  0  0  0  0  0  0  0  0  0
  153.5512  139.6955  160.4042 F   0  0  0  0  0  0  0  0  0  0  0  0
  155.1802  141.0774  160.0634 F   0  0  0  0  0  0  0  0  0  0  0  0
  152.4288  141.1768  158.5127 N   0  0  0  0  0  0  0  0  0  0  0  0
  151.3400  137.8791  154.2945 H   0  0  0  0  0  0  0  0  0  0  0  0
  149.6899  137.9916  153.6953 H   0  0  0  0  0  0  0  0  0  0  0  0
  149.9822  137.7739  155.4159 H   0  0  0  0  0  0  0  0  0  0  0  0
  150.6871  140.2417  153.7399 H   0  0  0  0  0  0  0  0  0  0  0  0
  149.2154  141.7398  153.6038 H   0  0  0  0  0  0  0  0  0  0  0  0
  147.9851  140.5356  153.2402 H   0  0  0  0  0  0  0  0  0  0  0  0
  147.9262  142.6834  155.4084 H   0  0  0  0  0  0  0  0  0  0  0  0
  147.1171  143.4087  153.1614 H   0  0  0  0  0  0  0  0  0  0  0  0
  146.0518  142.0234  153.0767 H   0  0  0  0  0  0  0  0  0  0  0  0
  145.8834  144.3174  155.0861 H   0  0  0  0  0  0  0  0  0  0  0  0
  144.7463  143.9829  153.7975 H   0  0  0  0  0  0  0  0  0  0  0  0
  143.9474  143.1369  156.0438 H   0  0  0  0  0  0  0  0  0  0  0  0
  144.0816  141.8609  154.8536 H   0  0  0  0  0  0  0  0  0  0  0  0
  146.1484  142.4892  157.0350 H   0  0  0  0  0  0  0  0  0  0  0  0
  145.0955  141.0897  156.9630 H   0  0  0  0  0  0  0  0  0  0  0  0
  150.0685  141.6717  156.3202 H   0  0  0  0  0  0  0  0  0  0  0  0
  150.7961  143.7899  157.1057 H   0  0  0  0  0  0  0  0  0  0  0  0
  151.9075  145.0002  158.9815 H   0  0  0  0  0  0  0  0  0  0  0  0
  153.3630  143.7245  160.5598 H   0  0  0  0  0  0  0  0  0  0  0  0
  1  2  1  0  0  0  0
  1 24  1  0  0  0  0
  1 25  1  0  0  0  0
  1 26  1  0  0  0  0
  2  3  1  0  0  0  0
  2 11  1  0  0  0  0
  2 27  1  0  0  0  0
  3  4  1  0  0  0  0
  4  5  1  0  0  0  0
  4 28  1  0  0  0  0
  4 29  1  0  0  0  0
  5 10  1  0  0  0  0
  5  6  1  0  0  0  0
  5 30  1  0  0  0  0
  6  7  1  0  0  0  0
  6 31  1  0  0  0  0
  6 32  1  0  0  0  0
  7  8  1  0  0  0  0
  7 33  1  0  0  0  0
  7 34  1  0  0  0  0
  8  9  1  0  0  0  0
  8 35  1  0  0  0  0
  8 36  1  0  0  0  0
  9 10  1  0  0  0  0
  9 37  1  0  0  0  0
  9 38  1  0  0  0  0
 11 12  2  0  0  0  0
 11 13  1  0  0  0  0
 13 14  1  0  0  0  0
 13 39  1  0  0  0  0
 14 23  1  0  0  0  0
 14 15  2  0  0  0  0
 15 16  1  0  0  0  0
 15 40  1  0  0  0  0
 16 17  2  0  0  0  0
 16 41  1  0  0  0  0
 17 18  1  0  0  0  0
 17 42  1  0  0  0  0
 18 19  1  0  0  0  0
 18 23  2  0  0  0  0
 19 20  1  0  0  0  0
 19 21  1  0  0  0  0
 19 22  1  0  0  0  0
M  END
> <s_m_source_file>
AV-unprocessed.smi

> <i_m_source_file_index>
946

> <i_lp_mmshare_version>
43012

> <i_f3d_flags>
0

> <s_epik_input>
TzFbQ0gyXVtDSDJdW0NIMl1bQ0gyXVtDQEhdMVtDSDJdT1tDQEBIXShbQ0gzXSlDKD1PKVtOSF1jMltjSF1bY0hdW2NIXWMobjIpQyhGKShGKUY=

> <s_epik_cmdline>
J2VwaWtfcHl0aG9uJywgJy1waCcsICc3LjAnLCAnLXRuJywgJzgnLCAnLW1hJywgJzIwMCcsICctbWV0YWxfYmluZGluZycsICctaW1hZScsICc8aW5maWxlLm1hZT4nLCAnLW9tYWUnLCAnPG91dGZpbGUubWFlPic=

> <r_lp_tautomer_probability>
1

> <r_epik_Ionization_Penalty>
1.32683e-06

> <r_epik_Ionization_Penalty_Charging>
0

> <r_epik_Ionization_Penalty_Neutral>
1.32683e-06

> <r_epik_State_Penalty>
-0

> <r_epik_Charging_Adjusted_Penalty>
0

> <i_epik_Tot_Q>
0

> <i_epik_Tot_abs_Q>
0

> <r_epik_Metal_State_Penalty>
-0

> <b_epik_Metal_Only>
0

> <s_lp_Force_Field>
OPLS_2005

> <r_lp_Energy>
14.7702

> <b_lp_Chiralities_Consistent>
1

> <s_lp_Variant>
AV-unprocessed.smi:946-4

> <Gold.Version>
5.8.1

> <Gold.Id.Protein>
6NUR|6NUR_protein|mol2

> <Gold.PLP.Fitness>
47.8670

> <Gold.PLP.PLP>
-50.3573

> <Gold.PLP.part.hbond>
-1.0000

> <Gold.PLP.part.metal>
0.0000

> <Gold.PLP.part.buried>
-4.8877

> <Gold.PLP.part.nonpolar>
-44.5273

> <Gold.PLP.part.repulsive>
0.2429

> <Gold.PLP.ligand.clash>
0.0000

> <Gold.PLP.ligand.torsion>
2.8433

> <Gold.PLP.Chemscore.Hbond>
1.0000

> <Gold.PLP.Chemscore.CHOScore>
0.0000

> <Gold.PLP.Chemscore.Metal>
0.0000

> <Gold.Chemscore.Hbonds>
donor molecule, donor type, donor heavy atom, donor atom, acceptor molecule, acceptor atom, score
      P1  H  7997  8009       L1    12  1.00

> <Gold.PLP.Chemscore.Internal.Correction>
0.1962

> <Gold.Rescore>
     Score         DG    S(hbond)    S(metal)    S(lipo)     H(rot)  DE(clash)    DE(int)     intcor
     12.98     -15.96       1.00        0.00      99.46       1.76       0.23       2.75       ----

> <Gold.Chemscore.Fitness>
12.9767

> <Gold.Chemscore.DG>
-15.9614

> <Gold.Chemscore.ZeroCoef>
-5.4800

> <Gold.Chemscore.Hbond>
0.9998

> <Gold.Chemscore.Metal>
0.0000

> <Gold.Chemscore.Lipo>
99.4581

> <Gold.Chemscore.Internal_Hbond>
0.0000

> <Gold.Chemscore.DEClash>
0.2331

> <Gold.Chemscore.DEInternal>
2.7516

> <Gold.Chemscore.Rot>
1.7557

> <Gold.Chemscore.Internal.Correction>
   9.000000E+99

> <Gold.Chemscore.Hbonds>
donor molecule, donor type, donor heavy atom, donor atom, acceptor molecule, acceptor atom, score
      P1  H  7997  8009       L1    12  0.93

> <Gold.Chemscore.Hbond.Weighted>
-3.3395

> <Gold.Chemscore.Metal.Weighted>
-0.0000

> <Gold.Chemscore.Lipo.Weighted>
-11.6366

> <Gold.Chemscore.Internal_Hbond.Weighted>
0.0000

> <Gold.Chemscore.DEClash.Weighted>
0.2331

> <Gold.Chemscore.DEInternal.Weighted>
2.7516

> <Gold.Chemscore.Rot.Weighted>
4.4946

> <Gold.Chemscore.Internal.Correction.Weighted>
   9.000000E+99

> <Gold.Protein.RotatedTorsions>
[ 6907 6896 6895 6894 ] final  117.87 input  -60.11 | X-H torsion
[ 7974 7965 7964 7962 ] final  -89.76 input  175.53 | X-H torsion
[ 8008 7997 7996 7995 ] final -157.18 input   59.86 | X-H torsion
[ 10167 10162 10161 10158 ] final -159.51 input  -65.29 | X-H torsion
[ 10718 10713 10712 10709 ] final  151.83 input   66.30 | X-H torsion
[ 10763 10752 10751 10750 ] final  -68.26 input  -60.55 | X-H torsion
[ 11005 11000 10999 10996 ] final  137.79 input  -57.11 | X-H torsion

> <Gold.Protein.ActiveResidues>
 VAL166  LYS551  ARG553  GLY616  TRP617  ASP618  TYR619  PRO620  LYS621  CYS622 
 ASP623  PHE694  ASN695  SER759  ASP760  ASP761  ALA762  ILE779  LEU786  VAL792 
 PHE793  MET794  SER795  GLU796  ALA797  LYS798  CYS799  TRP800  GLU811  SER814 

> <Gold.Protein.RotatedAtoms>
  152.4582  133.7768  159.6828 H   0  0  0  0  0  0  0  0  0  0  0  0  # atno 6907 bound_to 6896
  150.8516  133.7768  159.3029 H   0  0  0  0  0  0  0  0  0  0  0  0  # atno 6908 bound_to 6896
  151.5361  135.1071  159.9966 H   0  0  0  0  0  0  0  0  0  0  0  0  # atno 6909 bound_to 6896
  145.4354  140.9557  143.2104 H   0  0  0  0  0  0  0  0  0  0  0  0  # atno 7974 bound_to 7965
  155.7286  140.0799  157.2299 H   0  0  0  0  0  0  0  0  0  0  0  0  # atno 8008 bound_to 7997
  154.4036  140.1599  156.2537 H   0  0  0  0  0  0  0  0  0  0  0  0  # atno 8009 bound_to 7997
  155.9130  140.3402  155.6116 H   0  0  0  0  0  0  0  0  0  0  0  0  # atno 8010 bound_to 7997
  139.6610  143.9913  152.2225 H   0  0  0  0  0  0  0  0  0  0  0  0  # atno 10167 bound_to 10162
  157.2656  131.0807  151.1635 H   0  0  0  0  0  0  0  0  0  0  0  0  # atno 10718 bound_to 10713
  154.3864  135.6062  153.5819 H   0  0  0  0  0  0  0  0  0  0  0  0  # atno 10763 bound_to 10752
  152.9787  135.5873  154.4349 H   0  0  0  0  0  0  0  0  0  0  0  0  # atno 10764 bound_to 10752
  154.4127  135.2844  155.2004 H   0  0  0  0  0  0  0  0  0  0  0  0  # atno 10765 bound_to 10752
  140.0138  134.9427  157.0334 H   0  0  0  0  0  0  0  0  0  0  0  0  # atno 11005 bound_to 11000
  144.8155  139.5884  143.7010 LP  0  0  0  0  0  0  0  0  0  0  0  0  # atno 17320 bound_to 7965
  146.2585  139.6355  142.9378 LP  0  0  0  0  0  0  0  0  0  0  0  0  # atno 17321 bound_to 7965
  139.9652  144.6531  150.8041 LP  0  0  0  0  0  0  0  0  0  0  0  0  # atno 17342 bound_to 10162
  140.7580  143.3097  151.2874 LP  0  0  0  0  0  0  0  0  0  0  0  0  # atno 17343 bound_to 10162
  157.3128  130.6898  149.6225 LP  0  0  0  0  0  0  0  0  0  0  0  0  # atno 17370 bound_to 10713
  155.9663  130.4358  150.5109 LP  0  0  0  0  0  0  0  0  0  0  0  0  # atno 17371 bound_to 10713
  140.4507  134.1586  155.7181 LP  0  0  0  0  0  0  0  0  0  0  0  0  # atno 17394 bound_to 11000
  141.1729  133.8572  157.1514 LP  0  0  0  0  0  0  0  0  0  0  0  0  # atno 17395 bound_to 11000

$$$$
