AV-unprocessed.smi:1582|AV-procd|sdf|6361|dock9
  -GOLD-   22720 6583D 1   1.00000     0.00000
 Structure written by MMmdl.
 41 42  0  0  0  0  0  0  0  0  2 V2000
  148.4343  137.6122  154.7234 O   0  0  0  0  0  0  0  0  0  0  0  0
  148.7131  138.3858  153.8072 C   0  0  0  0  0  0  0  0  0  0  0  0
  147.8296  138.7845  152.8815 N   0  0  0  0  0  0  0  0  0  0  0  0
  146.4403  138.3448  152.8028 C   0  0  0  0  0  0  0  0  0  0  0  0
  146.2650  137.1352  151.8608 C   0  0  2  0  0  0  0  0  0  0  0  0
  146.3900  137.5865  150.5263 O   0  0  0  0  0  0  0  0  0  0  0  0
  144.8593  136.5135  151.9966 C   0  0  0  0  0  0  0  0  0  0  0  0
  144.7331  135.2153  151.2844 N   0  3  0  0  0  0  0  0  0  0  0  0
  143.6579  134.3630  151.8559 C   0  0  0  0  0  0  0  0  0  0  0  0
  143.4489  133.0909  151.0174 C   0  0  0  0  0  0  0  0  0  0  0  0
  144.7563  132.3003  150.8836 C   0  0  0  0  0  0  0  0  0  0  0  0
  145.8582  133.2063  150.3198 C   0  0  0  0  0  0  0  0  0  0  0  0
  146.0191  134.4751  151.1740 C   0  0  0  0  0  0  0  0  0  0  0  0
  149.9201  138.9378  153.6018 N   0  0  0  0  0  0  0  0  0  0  0  0
  151.1007  138.7317  154.3595 C   0  0  0  0  0  0  0  0  0  0  0  0
  151.4936  139.5191  155.4759 C   0  0  0  0  0  0  0  0  0  0  0  0
  152.6429  139.0980  155.9844 N   0  0  0  0  0  0  0  0  0  0  0  0
  152.9867  138.0487  155.2039 N   0  0  0  0  0  0  0  0  0  0  0  0
  152.0776  137.7888  154.2024 C   0  0  0  0  0  0  0  0  0  0  0  0
  153.8361  137.5259  155.3652 H   0  0  0  0  0  0  0  0  0  0  0  0
  148.1470  139.4221  152.1658 H   0  0  0  0  0  0  0  0  0  0  0  0
  146.1646  138.0567  153.8175 H   0  0  0  0  0  0  0  0  0  0  0  0
  145.7746  139.1674  152.5342 H   0  0  0  0  0  0  0  0  0  0  0  0
  147.0354  136.3928  152.0687 H   0  0  0  0  0  0  0  0  0  0  0  0
  145.6635  137.2458  150.0248 H   0  0  0  0  0  0  0  0  0  0  0  0
  144.6006  136.3706  153.0469 H   0  0  0  0  0  0  0  0  0  0  0  0
  144.1308  137.2235  151.6010 H   0  0  0  0  0  0  0  0  0  0  0  0
  143.9087  134.1003  152.8849 H   0  0  0  0  0  0  0  0  0  0  0  0
  142.7224  134.9228  151.8900 H   0  0  0  0  0  0  0  0  0  0  0  0
  142.6802  132.4660  151.4729 H   0  0  0  0  0  0  0  0  0  0  0  0
  143.0808  133.3614  150.0266 H   0  0  0  0  0  0  0  0  0  0  0  0
  145.0569  131.9151  151.8588 H   0  0  0  0  0  0  0  0  0  0  0  0
  144.6103  131.4350  150.2363 H   0  0  0  0  0  0  0  0  0  0  0  0
  146.8023  132.6621  150.2779 H   0  0  0  0  0  0  0  0  0  0  0  0
  145.6153  133.4845  149.2932 H   0  0  0  0  0  0  0  0  0  0  0  0
  146.7846  135.1061  150.7243 H   0  0  0  0  0  0  0  0  0  0  0  0
  146.3748  134.2108  152.1712 H   0  0  0  0  0  0  0  0  0  0  0  0
  150.0092  139.5592  152.8112 H   0  0  0  0  0  0  0  0  0  0  0  0
  150.9942  140.3654  155.9243 H   0  0  0  0  0  0  0  0  0  0  0  0
  152.2106  136.9828  153.4960 H   0  0  0  0  0  0  0  0  0  0  0  0
  144.4397  135.4414  150.3443 H   0  0  0  0  0  0  0  0  0  0  0  0
  1  2  2  0  0  0  0
  2  3  1  0  0  0  0
  2 14  1  0  0  0  0
  3  4  1  0  0  0  0
  3 21  1  0  0  0  0
  4  5  1  0  0  0  0
  4 22  1  0  0  0  0
  4 23  1  0  0  0  0
  5  6  1  0  0  0  0
  5  7  1  0  0  0  0
  5 24  1  0  0  0  0
  6 25  1  0  0  0  0
  7  8  1  0  0  0  0
  7 26  1  0  0  0  0
  7 27  1  0  0  0  0
  8 13  1  0  0  0  0
  8  9  1  0  0  0  0
  8 41  1  0  0  0  0
  9 10  1  0  0  0  0
  9 28  1  0  0  0  0
  9 29  1  0  0  0  0
 10 11  1  0  0  0  0
 10 30  1  0  0  0  0
 10 31  1  0  0  0  0
 11 12  1  0  0  0  0
 11 32  1  0  0  0  0
 11 33  1  0  0  0  0
 12 13  1  0  0  0  0
 12 34  1  0  0  0  0
 12 35  1  0  0  0  0
 13 36  1  0  0  0  0
 13 37  1  0  0  0  0
 14 15  1  0  0  0  0
 14 38  1  0  0  0  0
 15 19  2  0  0  0  0
 15 16  1  0  0  0  0
 16 17  2  0  0  0  0
 16 39  1  0  0  0  0
 17 18  1  0  0  0  0
 18 20  1  0  0  0  0
 18 19  1  0  0  0  0
 19 40  1  0  0  0  0
M  CHG  1   8   1
M  END
> <s_m_source_file>
AV-unprocessed.smi

> <i_m_source_file_index>
1582

> <i_lp_mmshare_version>
43012

> <i_f3d_flags>
0

> <s_epik_input>
W2NIXTFbbkhdbltjSF1jMVtOSF1DKD1PKVtOSF1bQ0gyXVtDQEhdKFtPSF0pW0NIMl1OMltDSDJdW0NIMl1bQ0gyXVtDSDJdW0NIMl0y

> <s_epik_cmdline>
J2VwaWtfcHl0aG9uJywgJy1waCcsICc3LjAnLCAnLXRuJywgJzgnLCAnLW1hJywgJzIwMCcsICctbWV0YWxfYmluZGluZycsICctaW1hZScsICc8aW5maWxlLm1hZT4nLCAnLW9tYWUnLCAnPG91dGZpbGUubWFlPic=

> <r_lp_tautomer_probability>
0.5

> <r_epik_Ionization_Penalty>
0.00519658

> <r_epik_Ionization_Penalty_Charging>
0.00515354

> <r_epik_Ionization_Penalty_Neutral>
4.30332e-05

> <r_epik_State_Penalty>
0.00375424

> <r_epik_Charging_Adjusted_Penalty>
0.00890779

> <i_epik_Tot_Q>
1

> <i_epik_Tot_abs_Q>
1

> <r_epik_Metal_State_Penalty>
-0

> <b_epik_Metal_Only>
0

> <s_lp_Force_Field>
OPLS_2005

> <r_lp_Energy>
21.997

> <b_lp_Chiralities_Consistent>
1

> <s_lp_Variant>
AV-unprocessed.smi:1582-1

> <Gold.Version>
5.8.1

> <Gold.Id.Protein>
6NUR|6NUR_protein|mol2

> <Gold.PLP.Fitness>
45.8791

> <Gold.PLP.PLP>
-34.0473

> <Gold.PLP.part.hbond>
-6.8273

> <Gold.PLP.part.metal>
0.0000

> <Gold.PLP.part.buried>
-1.6527

> <Gold.PLP.part.nonpolar>
-26.7168

> <Gold.PLP.part.repulsive>
0.5146

> <Gold.PLP.ligand.clash>
0.0000

> <Gold.PLP.ligand.torsion>
1.4050

> <Gold.PLP.Chemscore.Hbond>
4.0139

> <Gold.PLP.Chemscore.CHOScore>
0.8502

> <Gold.PLP.Chemscore.Metal>
0.0000

> <Gold.Chemscore.Hbonds>
donor molecule, donor type, donor heavy atom, donor atom, acceptor molecule, acceptor atom, score
      L1  H     3    21       P1  7957  0.94
      L1  H     6    25       P1 10171  0.16
      L1  H    14    38       P1  7957  1.00
      P1  H  7954  7966       L1     6  0.94
      P1  H  7997  8010       L1    17  1.00
      L1  C    19    40       P1  7949  1.00

> <Gold.PLP.Chemscore.Internal.Correction>
0.0497

> <Gold.Rescore>
     Score         DG    S(hbond)    S(metal)    S(lipo)     H(rot)  DE(clash)    DE(int)     intcor
     16.81     -20.04       3.66        0.00      76.51       2.59       1.89       1.34       ----

> <Gold.Chemscore.Fitness>
16.8077

> <Gold.Chemscore.DG>
-20.0376

> <Gold.Chemscore.ZeroCoef>
-5.4800

> <Gold.Chemscore.Hbond>
3.6616

> <Gold.Chemscore.Metal>
0.0000

> <Gold.Chemscore.Lipo>
76.5138

> <Gold.Chemscore.Internal_Hbond>
0.0000

> <Gold.Chemscore.DEClash>
1.8941

> <Gold.Chemscore.DEInternal>
1.3357

> <Gold.Chemscore.Rot>
2.5876

> <Gold.Chemscore.Internal.Correction>
   9.000000E+99

> <Gold.Chemscore.Hbonds>
donor molecule, donor type, donor heavy atom, donor atom, acceptor molecule, acceptor atom, score
      L1  H     3    21       P1  7957  0.91
      L1  H     6    25       P1 10171  0.17
      L1  H    14    38       P1  7957  0.95
      P1  H  7954  7966       L1     6  0.85
      P1  H  7997  8010       L1    17  0.48

> <Gold.Chemscore.Hbond.Weighted>
-12.2296

> <Gold.Chemscore.Metal.Weighted>
-0.0000

> <Gold.Chemscore.Lipo.Weighted>
-8.9521

> <Gold.Chemscore.Internal_Hbond.Weighted>
0.0000

> <Gold.Chemscore.DEClash.Weighted>
1.8941

> <Gold.Chemscore.DEInternal.Weighted>
1.3357

> <Gold.Chemscore.Rot.Weighted>
6.6242

> <Gold.Chemscore.Internal.Correction.Weighted>
   9.000000E+99

> <Gold.Protein.RotatedTorsions>
[ 6907 6896 6895 6894 ] final   29.27 input  -60.11 | X-H torsion
[ 7974 7965 7964 7962 ] final -167.68 input  175.53 | X-H torsion
[ 8008 7997 7996 7995 ] final   83.20 input   59.86 | X-H torsion
[ 10167 10162 10161 10158 ] final -102.49 input  -65.29 | X-H torsion
[ 10718 10713 10712 10709 ] final -115.51 input   66.30 | X-H torsion
[ 10763 10752 10751 10750 ] final  116.97 input  -60.55 | X-H torsion
[ 11005 11000 10999 10996 ] final -165.76 input  -57.11 | X-H torsion

> <Gold.Protein.ActiveResidues>
 VAL166  LYS551  ARG553  GLY616  TRP617  ASP618  TYR619  PRO620  LYS621  CYS622 
 ASP623  PHE694  ASN695  SER759  ASP760  ASP761  ALA762  ILE779  LEU786  VAL792 
 PHE793  MET794  SER795  GLU796  ALA797  LYS798  CYS799  TRP800  GLU811  SER814 

> <Gold.Protein.RotatedAtoms>
  152.0291  134.9778  160.0571 H   0  0  0  0  0  0  0  0  0  0  0  0  # atno 6907 bound_to 6896
  152.1262  133.4376  159.4707 H   0  0  0  0  0  0  0  0  0  0  0  0  # atno 6908 bound_to 6896
  150.6852  134.2395  159.4510 H   0  0  0  0  0  0  0  0  0  0  0  0  # atno 6909 bound_to 6896
  144.7218  140.2483  143.6282 H   0  0  0  0  0  0  0  0  0  0  0  0  # atno 7974 bound_to 7965
  155.9207  140.3421  155.6171 H   0  0  0  0  0  0  0  0  0  0  0  0  # atno 8008 bound_to 7997
  155.7277  140.0791  157.2321 H   0  0  0  0  0  0  0  0  0  0  0  0  # atno 8009 bound_to 7997
  154.4069  140.1594  156.2460 H   0  0  0  0  0  0  0  0  0  0  0  0  # atno 8010 bound_to 7997
  140.2301  143.3613  152.0894 H   0  0  0  0  0  0  0  0  0  0  0  0  # atno 10167 bound_to 10162
  156.0901  130.6085  150.8915 H   0  0  0  0  0  0  0  0  0  0  0  0  # atno 10718 bound_to 10713
  153.5453  135.3550  155.2736 H   0  0  0  0  0  0  0  0  0  0  0  0  # atno 10763 bound_to 10752
  154.8713  135.4101  154.2997 H   0  0  0  0  0  0  0  0  0  0  0  0  # atno 10764 bound_to 10752
  153.3713  135.7064  153.6704 H   0  0  0  0  0  0  0  0  0  0  0  0  # atno 10765 bound_to 10752
  140.5721  134.5227  157.5163 H   0  0  0  0  0  0  0  0  0  0  0  0  # atno 11005 bound_to 11000
  145.8253  139.2061  143.1914 LP  0  0  0  0  0  0  0  0  0  0  0  0  # atno 17320 bound_to 7965
  146.0478  140.8100  142.9796 LP  0  0  0  0  0  0  0  0  0  0  0  0  # atno 17321 bound_to 7965
  139.5113  144.6898  151.5790 LP  0  0  0  0  0  0  0  0  0  0  0  0  # atno 17342 bound_to 10162
  140.6191  143.9292  150.6512 LP  0  0  0  0  0  0  0  0  0  0  0  0  # atno 17343 bound_to 10162
  157.6047  131.0939  150.8900 LP  0  0  0  0  0  0  0  0  0  0  0  0  # atno 17370 bound_to 10713
  156.9050  130.5260  149.5281 LP  0  0  0  0  0  0  0  0  0  0  0  0  # atno 17371 bound_to 10713
  139.9357  134.7880  156.0810 LP  0  0  0  0  0  0  0  0  0  0  0  0  # atno 17394 bound_to 11000
  141.1050  133.6663  156.2842 LP  0  0  0  0  0  0  0  0  0  0  0  0  # atno 17395 bound_to 11000

$$$$
