AV-unprocessed.smi:49|AV-procd|sdf|463|dock4
  -GOLD-   2262016333D 1   1.00000     0.00000
 Structure written by MMmdl.
 28 29  0  0  0  0  0  0  0  0  2 V2000
  148.0855  127.5186  150.9841 C   0  0  0  0  0  0  0  0  0  0  0  0
  147.4488  128.0162  152.2862 C   0  0  0  0  0  0  0  0  0  0  0  0
  146.8545  129.3798  152.1505 C   0  0  0  0  0  0  0  0  0  0  0  0
  145.5661  129.6377  151.9509 N   0  0  0  0  0  0  0  0  0  0  0  0
  145.5892  131.0043  151.9344 C   0  0  0  0  0  0  0  0  0  0  0  0
  144.3563  131.8194  151.6830 C   0  0  2  0  0  0  0  0  0  0  0  0
  144.3300  132.4277  150.2710 C   0  0  0  0  0  0  0  0  0  0  0  0
  144.7258  133.8862  150.4873 C   0  0  1  0  0  0  0  0  0  0  0  0
  144.2255  134.7314  149.4733 O   0  0  0  0  0  0  0  0  0  0  0  0
  144.1174  134.1997  151.8527 C   0  0  0  0  0  0  0  0  0  0  0  0
  144.2538  132.9541  152.6284 N   0  3  0  0  0  0  0  0  0  0  0  0
  146.7888  131.5673  152.0897 N   0  0  0  0  0  0  0  0  0  0  0  0
  147.5885  130.4905  152.2407 N   0  0  0  0  0  0  0  0  0  0  0  0
  143.4848  131.1777  151.8191 H   0  0  0  0  0  0  0  0  0  0  0  0
  145.8124  133.9734  150.5350 H   0  0  0  0  0  0  0  0  0  0  0  0
  148.5856  130.5578  152.3894 H   0  0  0  0  0  0  0  0  0  0  0  0
  148.5104  126.5233  151.1152 H   0  0  0  0  0  0  0  0  0  0  0  0
  148.8871  128.1823  150.6589 H   0  0  0  0  0  0  0  0  0  0  0  0
  147.3490  127.4636  150.1818 H   0  0  0  0  0  0  0  0  0  0  0  0
  146.6744  127.3198  152.6102 H   0  0  0  0  0  0  0  0  0  0  0  0
  148.1972  128.0390  153.0790 H   0  0  0  0  0  0  0  0  0  0  0  0
  144.9669  131.9063  149.5550 H   0  0  0  0  0  0  0  0  0  0  0  0
  143.3085  132.3847  149.8891 H   0  0  0  0  0  0  0  0  0  0  0  0
  144.9020  134.8626  148.8261 H   0  0  0  0  0  0  0  0  0  0  0  0
  144.5989  135.0423  152.3497 H   0  0  0  0  0  0  0  0  0  0  0  0
  143.0540  134.4243  151.7556 H   0  0  0  0  0  0  0  0  0  0  0  0
  143.4759  132.8344  153.2611 H   0  0  0  0  0  0  0  0  0  0  0  0
  145.1163  132.9938  153.1532 H   0  0  0  0  0  0  0  0  0  0  0  0
  1  2  1  0  0  0  0
  1 17  1  0  0  0  0
  1 18  1  0  0  0  0
  1 19  1  0  0  0  0
  2  3  1  0  0  0  0
  2 20  1  0  0  0  0
  2 21  1  0  0  0  0
  3 13  1  0  0  0  0
  3  4  2  0  0  0  0
  4  5  1  0  0  0  0
  5  6  1  0  0  0  0
  5 12  2  0  0  0  0
  6 14  1  0  0  0  0
  6 11  1  0  0  0  0
  6  7  1  0  0  0  0
  7  8  1  0  0  0  0
  7 22  1  0  0  0  0
  7 23  1  0  0  0  0
  8 15  1  0  0  0  0
  8  9  1  0  0  0  0
  8 10  1  0  0  0  0
  9 24  1  0  0  0  0
 10 11  1  0  0  0  0
 10 25  1  0  0  0  0
 10 26  1  0  0  0  0
 11 27  1  0  0  0  0
 11 28  1  0  0  0  0
 12 13  1  0  0  0  0
 13 16  1  0  0  0  0
M  CHG  1  11   1
M  END
> <s_m_source_file>
AV-unprocessed.smi

> <i_m_source_file_index>
49

> <i_lp_mmshare_version>
43012

> <i_f3d_flags>
0

> <s_epik_input>
W0NIM11bQ0gyXWMxbmMobltuSF0xKVtDQEBIXTJbQ0gyXVtDQEBIXShbT0hdKVtDSDJdW05IXTI=

> <s_epik_cmdline>
J2VwaWtfcHl0aG9uJywgJy1waCcsICc3LjAnLCAnLXRuJywgJzgnLCAnLW1hJywgJzIwMCcsICctbWV0YWxfYmluZGluZycsICctaW1hZScsICc8aW5maWxlLm1hZT4nLCAnLW9tYWUnLCAnPG91dGZpbGUubWFlPic=

> <r_lp_tautomer_probability>
0.948284

> <r_epik_Ionization_Penalty>
0.045643

> <r_epik_Ionization_Penalty_Charging>
0.0371552

> <r_epik_Ionization_Penalty_Neutral>
0.00848778

> <r_epik_State_Penalty>
0.283309

> <r_epik_Charging_Adjusted_Penalty>
0.320465

> <i_epik_Tot_Q>
1

> <i_epik_Tot_abs_Q>
1

> <r_epik_Metal_State_Penalty>
0.558162

> <b_epik_Metal_Only>
0

> <s_lp_Force_Field>
OPLS_2005

> <r_lp_Energy>
17.5806

> <b_lp_Chiralities_Consistent>
1

> <s_lp_Variant>
AV-unprocessed.smi:49-1

> <Gold.Version>
5.8.1

> <Gold.Id.Protein>
6NUR|6NUR_protein|mol2

> <Gold.PLP.Fitness>
32.2312

> <Gold.PLP.PLP>
-24.7149

> <Gold.PLP.part.hbond>
-2.8961

> <Gold.PLP.part.metal>
0.0000

> <Gold.PLP.part.buried>
-4.6315

> <Gold.PLP.part.nonpolar>
-18.6776

> <Gold.PLP.part.repulsive>
1.6750

> <Gold.PLP.ligand.clash>
0.0000

> <Gold.PLP.ligand.torsion>
0.6283

> <Gold.PLP.Chemscore.Hbond>
2.9200

> <Gold.PLP.Chemscore.CHOScore>
0.0000

> <Gold.PLP.Chemscore.Metal>
0.0000

> <Gold.Chemscore.Hbonds>
donor molecule, donor type, donor heavy atom, donor atom, acceptor molecule, acceptor atom, score
      L1  H     9    24       P1  7921  1.00
      L1  H    11    27       P1 10957  1.89

> <Gold.PLP.Chemscore.Internal.Correction>
0.0128

> <Gold.Rescore>
     Score         DG    S(hbond)    S(metal)    S(lipo)     H(rot)  DE(clash)    DE(int)     intcor
     10.53     -11.60       1.83        0.00      41.48       1.89       0.72       0.36       ----

> <Gold.Chemscore.Fitness>
10.5255

> <Gold.Chemscore.DG>
-11.5975

> <Gold.Chemscore.ZeroCoef>
-5.4800

> <Gold.Chemscore.Hbond>
1.8257

> <Gold.Chemscore.Metal>
0.0000

> <Gold.Chemscore.Lipo>
41.4842

> <Gold.Chemscore.Internal_Hbond>
0.0000

> <Gold.Chemscore.DEClash>
0.7165

> <Gold.Chemscore.DEInternal>
0.3555

> <Gold.Chemscore.Rot>
1.8883

> <Gold.Chemscore.Internal.Correction>
   9.000000E+99

> <Gold.Chemscore.Hbonds>
donor molecule, donor type, donor heavy atom, donor atom, acceptor molecule, acceptor atom, score
      L1  H     9    24       P1  7921  1.00
      L1  H    11    27       P1 10957  0.47
      L1  H    13    16       P1 10747  0.01

> <Gold.Chemscore.Hbond.Weighted>
-6.0978

> <Gold.Chemscore.Metal.Weighted>
-0.0000

> <Gold.Chemscore.Lipo.Weighted>
-4.8536

> <Gold.Chemscore.Internal_Hbond.Weighted>
0.0000

> <Gold.Chemscore.DEClash.Weighted>
0.7165

> <Gold.Chemscore.DEInternal.Weighted>
0.3555

> <Gold.Chemscore.Rot.Weighted>
4.8340

> <Gold.Chemscore.Internal.Correction.Weighted>
   9.000000E+99

> <Gold.Protein.RotatedTorsions>
[ 6907 6896 6895 6894 ] final -135.84 input  -60.11 | X-H torsion
[ 7974 7965 7964 7962 ] final  176.38 input  175.53 | X-H torsion
[ 8008 7997 7996 7995 ] final  -65.80 input   59.86 | X-H torsion
[ 10167 10162 10161 10158 ] final  138.78 input  -65.29 | X-H torsion
[ 10718 10713 10712 10709 ] final   80.99 input   66.30 | X-H torsion
[ 10763 10752 10751 10750 ] final   91.90 input  -60.55 | X-H torsion
[ 11005 11000 10999 10996 ] final -164.90 input  -57.11 | X-H torsion

> <Gold.Protein.ActiveResidues>
 VAL166  LYS551  ARG553  GLY616  TRP617  ASP618  TYR619  PRO620  LYS621  CYS622 
 ASP623  PHE694  ASN695  SER759  ASP760  ASP761  ALA762  ILE779  LEU786  VAL792 
 PHE793  MET794  SER795  GLU796  ALA797  LYS798  CYS799  TRP800  GLU811  SER814 

> <Gold.Protein.RotatedAtoms>
  151.0027  133.6041  159.2692 H   0  0  0  0  0  0  0  0  0  0  0  0  # atno 6907 bound_to 6896
  151.3221  135.0820  159.9319 H   0  0  0  0  0  0  0  0  0  0  0  0  # atno 6908 bound_to 6896
  152.5278  133.9672  159.7799 H   0  0  0  0  0  0  0  0  0  0  0  0  # atno 6909 bound_to 6896
  144.7185  140.0088  143.6440 H   0  0  0  0  0  0  0  0  0  0  0  0  # atno 7974 bound_to 7965
  154.4694  140.0925  156.7106 H   0  0  0  0  0  0  0  0  0  0  0  0  # atno 8008 bound_to 7997
  155.4765  140.3466  155.4315 H   0  0  0  0  0  0  0  0  0  0  0  0  # atno 8009 bound_to 7997
  156.1014  140.1423  156.9451 H   0  0  0  0  0  0  0  0  0  0  0  0  # atno 8010 bound_to 7997
  139.5100  144.6333  151.5761 H   0  0  0  0  0  0  0  0  0  0  0  0  # atno 10167 bound_to 10162
  157.6821  130.9984  150.2160 H   0  0  0  0  0  0  0  0  0  0  0  0  # atno 10718 bound_to 10713
  153.2133  135.4381  155.0405 H   0  0  0  0  0  0  0  0  0  0  0  0  # atno 10763 bound_to 10752
  154.8212  135.3338  154.7036 H   0  0  0  0  0  0  0  0  0  0  0  0  # atno 10764 bound_to 10752
  153.7472  135.7000  153.5009 H   0  0  0  0  0  0  0  0  0  0  0  0  # atno 10765 bound_to 10752
  140.5817  134.5134  157.5179 H   0  0  0  0  0  0  0  0  0  0  0  0  # atno 11005 bound_to 11000
  146.0275  139.3305  143.0775 LP  0  0  0  0  0  0  0  0  0  0  0  0  # atno 17320 bound_to 7965
  145.8493  140.9538  143.0758 LP  0  0  0  0  0  0  0  0  0  0  0  0  # atno 17321 bound_to 7965
  140.6074  143.9499  150.6428 LP  0  0  0  0  0  0  0  0  0  0  0  0  # atno 17342 bound_to 10162
  140.2731  143.3442  152.1220 LP  0  0  0  0  0  0  0  0  0  0  0  0  # atno 17343 bound_to 10162
  156.2821  130.3735  149.7925 LP  0  0  0  0  0  0  0  0  0  0  0  0  # atno 17370 bound_to 10713
  156.5610  130.8383  151.3328 LP  0  0  0  0  0  0  0  0  0  0  0  0  # atno 17371 bound_to 10713
  139.9314  134.7957  156.0921 LP  0  0  0  0  0  0  0  0  0  0  0  0  # atno 17394 bound_to 11000
  141.0992  133.6684  156.2714 LP  0  0  0  0  0  0  0  0  0  0  0  0  # atno 17395 bound_to 11000

$$$$
