AV-unprocessed.smi:2243|AV-procd|sdf|9063|dock2
  -GOLD-   2272012273D 1   1.00000     0.00000
 Structure written by MMmdl.
 34 35  0  0  0  0  0  0  0  0  1 V2000
  146.7432  140.2310  151.9560 C   0  0  0  0  0  0  0  0  0  0  0  0
  146.7443  139.2738  153.1603 C   0  0  1  0  0  0  0  0  0  0  0  0
  146.8665  137.9079  152.6482 N   0  0  0  0  0  0  0  0  0  0  0  0
  145.8625  137.0317  152.4885 C   0  0  0  0  0  0  0  0  0  0  0  0
  144.6891  137.2730  152.7733 O   0  0  0  0  0  0  0  0  0  0  0  0
  146.3049  135.8684  151.9867 N   0  0  0  0  0  0  0  0  0  0  0  0
  145.5214  134.7245  151.7082 C   0  0  0  0  0  0  0  0  0  0  0  0
  144.1918  134.7531  151.6788 N   0  0  0  0  0  0  0  0  0  0  0  0
  143.8260  133.4492  151.3737 C   0  0  0  0  0  0  0  0  0  0  0  0
  144.9687  132.7030  151.2356 C   0  0  0  0  0  0  0  0  0  0  0  0
  146.0598  133.5025  151.4456 O   0  0  0  0  0  0  0  0  0  0  0  0
  147.8690  139.5779  154.1869 C   0  0  0  0  0  0  0  0  0  0  0  0
  148.2410  141.0756  154.2341 C   0  0  0  0  0  0  0  0  0  0  0  0
  149.4101  141.3340  155.1979 C   0  0  0  0  0  0  0  0  0  0  0  0
  150.5353  140.5512  154.8196 O   0  0  0  0  0  0  0  0  0  0  0  0
  150.2780  139.1545  154.8904 C   0  0  0  0  0  0  0  0  0  0  0  0
  149.1563  138.7740  153.9103 C   0  0  0  0  0  0  0  0  0  0  0  0
  146.5166  141.2547  152.2524 H   0  0  0  0  0  0  0  0  0  0  0  0
  145.9863  139.9399  151.2270 H   0  0  0  0  0  0  0  0  0  0  0  0
  147.7085  140.2333  151.4486 H   0  0  0  0  0  0  0  0  0  0  0  0
  145.7842  139.3914  153.6662 H   0  0  0  0  0  0  0  0  0  0  0  0
  147.7952  137.6102  152.3871 H   0  0  0  0  0  0  0  0  0  0  0  0
  147.2916  135.7903  151.7895 H   0  0  0  0  0  0  0  0  0  0  0  0
  142.7908  133.1562  151.2788 H   0  0  0  0  0  0  0  0  0  0  0  0
  145.1642  131.6660  151.0057 H   0  0  0  0  0  0  0  0  0  0  0  0
  147.5075  139.2959  155.1772 H   0  0  0  0  0  0  0  0  0  0  0  0
  148.5129  141.4190  153.2351 H   0  0  0  0  0  0  0  0  0  0  0  0
  147.3882  141.6779  154.5478 H   0  0  0  0  0  0  0  0  0  0  0  0
  149.6903  142.3871  155.1717 H   0  0  0  0  0  0  0  0  0  0  0  0
  149.1241  141.1074  156.2263 H   0  0  0  0  0  0  0  0  0  0  0  0
  151.1922  138.6165  154.6392 H   0  0  0  0  0  0  0  0  0  0  0  0
  150.0146  138.8726  155.9110 H   0  0  0  0  0  0  0  0  0  0  0  0
  148.9698  137.7039  153.9942 H   0  0  0  0  0  0  0  0  0  0  0  0
  149.4928  138.9544  152.8886 H   0  0  0  0  0  0  0  0  0  0  0  0
  1  2  1  0  0  0  0
  1 18  1  0  0  0  0
  1 19  1  0  0  0  0
  1 20  1  0  0  0  0
  2  3  1  0  0  0  0
  2 12  1  0  0  0  0
  2 21  1  0  0  0  0
  3  4  1  0  0  0  0
  3 22  1  0  0  0  0
  4  5  2  0  0  0  0
  4  6  1  0  0  0  0
  6  7  1  0  0  0  0
  6 23  1  0  0  0  0
  7 11  1  0  0  0  0
  7  8  2  0  0  0  0
  8  9  1  0  0  0  0
  9 10  2  0  0  0  0
  9 24  1  0  0  0  0
 10 11  1  0  0  0  0
 10 25  1  0  0  0  0
 12 17  1  0  0  0  0
 12 13  1  0  0  0  0
 12 26  1  0  0  0  0
 13 14  1  0  0  0  0
 13 27  1  0  0  0  0
 13 28  1  0  0  0  0
 14 15  1  0  0  0  0
 14 29  1  0  0  0  0
 14 30  1  0  0  0  0
 15 16  1  0  0  0  0
 16 17  1  0  0  0  0
 16 31  1  0  0  0  0
 16 32  1  0  0  0  0
 17 33  1  0  0  0  0
 17 34  1  0  0  0  0
M  END
> <s_m_source_file>
AV-unprocessed.smi

> <i_m_source_file_index>
2243

> <i_lp_mmshare_version>
43012

> <i_f3d_flags>
0

> <s_epik_input>
W0NIMl0xW0NIMl1PW0NIMl1bQ0gyXVtDSF0xW0NASF0oW0NIM10pW05IXUMoPU8pW05IXWMybltjSF1bY0hdbzI=

> <s_epik_cmdline>
J2VwaWtfcHl0aG9uJywgJy1waCcsICc3LjAnLCAnLXRuJywgJzgnLCAnLW1hJywgJzIwMCcsICctbWV0YWxfYmluZGluZycsICctaW1hZScsICc8aW5maWxlLm1hZT4nLCAnLW9tYWUnLCAnPG91dGZpbGUubWFlPic=

> <r_lp_tautomer_probability>
0.785861

> <r_epik_Ionization_Penalty>
5.17761e-05

> <r_epik_Ionization_Penalty_Charging>
0

> <r_epik_Ionization_Penalty_Neutral>
5.17761e-05

> <r_epik_State_Penalty>
0.0447104

> <r_epik_Charging_Adjusted_Penalty>
0.0447104

> <i_epik_Tot_Q>
0

> <i_epik_Tot_abs_Q>
0

> <r_epik_Metal_State_Penalty>
0.0593601

> <b_epik_Metal_Only>
0

> <s_lp_Force_Field>
OPLS_2005

> <r_lp_Energy>
9.3246

> <b_lp_Chiralities_Consistent>
1

> <s_lp_Variant>
AV-unprocessed.smi:2243-2

> <Gold.Version>
5.8.1

> <Gold.Id.Protein>
6NUR|6NUR_protein|mol2

> <Gold.PLP.Fitness>
35.8397

> <Gold.PLP.PLP>
-25.9011

> <Gold.PLP.part.hbond>
-3.0000

> <Gold.PLP.part.metal>
0.0000

> <Gold.PLP.part.buried>
-0.5168

> <Gold.PLP.part.nonpolar>
-23.5742

> <Gold.PLP.part.repulsive>
0.9138

> <Gold.PLP.ligand.clash>
0.0000

> <Gold.PLP.ligand.torsion>
1.0386

> <Gold.PLP.Chemscore.Hbond>
3.0000

> <Gold.PLP.Chemscore.CHOScore>
1.0000

> <Gold.PLP.Chemscore.Metal>
0.0000

> <Gold.Chemscore.Hbonds>
donor molecule, donor type, donor heavy atom, donor atom, acceptor molecule, acceptor atom, score
      L1  H     3    22       P1  7948  0.99
      L1  H     6    23       P1  7948  1.00
      P1  H  7989  7998       L1    15  0.99
      L1  C     9    24       P1 10186  0.33

> <Gold.PLP.Chemscore.Internal.Correction>
0.0159

> <Gold.Rescore>
     Score         DG    S(hbond)    S(metal)    S(lipo)     H(rot)  DE(clash)    DE(int)     intcor
     14.90     -18.71       2.80        0.00      62.06       1.32       1.57       2.24       ----

> <Gold.Chemscore.Fitness>
14.8962

> <Gold.Chemscore.DG>
-18.7072

> <Gold.Chemscore.ZeroCoef>
-5.4800

> <Gold.Chemscore.Hbond>
2.7982

> <Gold.Chemscore.Metal>
0.0000

> <Gold.Chemscore.Lipo>
62.0551

> <Gold.Chemscore.Internal_Hbond>
0.0000

> <Gold.Chemscore.DEClash>
1.5720

> <Gold.Chemscore.DEInternal>
2.2390

> <Gold.Chemscore.Rot>
1.3201

> <Gold.Chemscore.Internal.Correction>
   9.000000E+99

> <Gold.Chemscore.Hbonds>
donor molecule, donor type, donor heavy atom, donor atom, acceptor molecule, acceptor atom, score
      L1  H     3    22       P1  7948  0.94
      L1  H     6    23       P1  7948  0.99
      P1  H  7989  7998       L1    15  0.69

> <Gold.Chemscore.Hbond.Weighted>
-9.3461

> <Gold.Chemscore.Metal.Weighted>
-0.0000

> <Gold.Chemscore.Lipo.Weighted>
-7.2605

> <Gold.Chemscore.Internal_Hbond.Weighted>
0.0000

> <Gold.Chemscore.DEClash.Weighted>
1.5720

> <Gold.Chemscore.DEInternal.Weighted>
2.2390

> <Gold.Chemscore.Rot.Weighted>
3.3794

> <Gold.Chemscore.Internal.Correction.Weighted>
   9.000000E+99

> <Gold.Protein.RotatedTorsions>
[ 6907 6896 6895 6894 ] final   70.22 input  -60.11 | X-H torsion
[ 7974 7965 7964 7962 ] final  -33.40 input  175.53 | X-H torsion
[ 8008 7997 7996 7995 ] final  -18.01 input   59.86 | X-H torsion
[ 10167 10162 10161 10158 ] final  116.26 input  -65.29 | X-H torsion
[ 10718 10713 10712 10709 ] final -117.47 input   66.30 | X-H torsion
[ 10763 10752 10751 10750 ] final  122.15 input  -60.55 | X-H torsion
[ 11005 11000 10999 10996 ] final -163.49 input  -57.11 | X-H torsion

> <Gold.Protein.ActiveResidues>
 VAL166  LYS551  ARG553  GLY616  TRP617  ASP618  TYR619  PRO620  LYS621  CYS622 
 ASP623  PHE694  ASN695  SER759  ASP760  ASP761  ALA762  ILE779  LEU786  VAL792 
 PHE793  MET794  SER795  GLU796  ALA797  LYS798  CYS799  TRP800  GLU811  SER814 

> <Gold.Protein.RotatedAtoms>
  152.4736  134.4900  159.9692 H   0  0  0  0  0  0  0  0  0  0  0  0  # atno 6907 bound_to 6896
  151.4921  133.3516  159.2863 H   0  0  0  0  0  0  0  0  0  0  0  0  # atno 6908 bound_to 6896
  150.8760  134.8170  159.7252 H   0  0  0  0  0  0  0  0  0  0  0  0  # atno 6909 bound_to 6896
  146.0913  140.5912  142.8863 H   0  0  0  0  0  0  0  0  0  0  0  0  # atno 7974 bound_to 7965
  154.4937  140.2127  155.9493 H   0  0  0  0  0  0  0  0  0  0  0  0  # atno 8008 bound_to 7997
  156.1341  140.3191  155.8362 H   0  0  0  0  0  0  0  0  0  0  0  0  # atno 8009 bound_to 7997
  155.4243  140.0499  157.3014 H   0  0  0  0  0  0  0  0  0  0  0  0  # atno 8010 bound_to 7997
  139.6259  144.7108  151.2533 H   0  0  0  0  0  0  0  0  0  0  0  0  # atno 10167 bound_to 10162
  156.1036  130.6192  150.9168 H   0  0  0  0  0  0  0  0  0  0  0  0  # atno 10718 bound_to 10713
  153.6253  135.3406  155.3024 H   0  0  0  0  0  0  0  0  0  0  0  0  # atno 10763 bound_to 10752
  154.8591  135.4282  154.2164 H   0  0  0  0  0  0  0  0  0  0  0  0  # atno 10764 bound_to 10752
  153.3047  135.7027  153.7244 H   0  0  0  0  0  0  0  0  0  0  0  0  # atno 10765 bound_to 10752
  140.5975  134.4982  157.5201 H   0  0  0  0  0  0  0  0  0  0  0  0  # atno 11005 bound_to 11000
  144.7362  140.4816  143.6902 LP  0  0  0  0  0  0  0  0  0  0  0  0  # atno 17320 bound_to 7965
  145.6033  139.1506  143.3117 LP  0  0  0  0  0  0  0  0  0  0  0  0  # atno 17321 bound_to 7965
  140.7411  143.6568  150.8199 LP  0  0  0  0  0  0  0  0  0  0  0  0  # atno 17342 bound_to 10162
  140.0186  143.5566  152.2810 LP  0  0  0  0  0  0  0  0  0  0  0  0  # atno 17343 bound_to 10162
  157.6210  131.0929  150.8622 LP  0  0  0  0  0  0  0  0  0  0  0  0  # atno 17370 bound_to 10713
  156.8746  130.5158  149.5294 LP  0  0  0  0  0  0  0  0  0  0  0  0  # atno 17371 bound_to 10713
  139.9247  134.8079  156.1105 LP  0  0  0  0  0  0  0  0  0  0  0  0  # atno 17394 bound_to 11000
  141.0894  133.6720  156.2508 LP  0  0  0  0  0  0  0  0  0  0  0  0  # atno 17395 bound_to 11000

$$$$
