AV-unprocessed.smi:2845|AV-procd|sdf|10945|dock10
  -GOLD-   2272015393D 1   1.00000     0.00000
 Structure written by MMmdl.
 42 44  0  0  0  0  0  0  0  0  1 V2000
  152.8261  143.0514  161.3495 C   0  0  0  0  0  0  0  0  0  0  0  0
  152.2380  142.6176  160.0184 C   0  0  0  0  0  0  0  0  0  0  0  0
  152.7101  141.4314  159.4124 C   0  0  0  0  0  0  0  0  0  0  0  0
  152.1906  140.9946  158.1740 C   0  0  0  0  0  0  0  0  0  0  0  0
  152.5025  139.8822  157.4110 N   0  0  0  0  0  0  0  0  0  0  0  0
  151.6836  140.0310  156.3739 C   0  0  0  0  0  0  0  0  0  0  0  0
  150.8765  141.1091  156.3745 N   0  0  0  0  0  0  0  0  0  0  0  0
  149.9090  141.4751  155.3553 C   0  0  0  0  0  0  0  0  0  0  0  0
  149.2445  140.2469  154.7052 C   0  0  2  0  0  0  0  0  0  0  0  0
  150.1514  139.6317  153.8090 O   0  0  0  0  0  0  0  0  0  0  0  0
  147.9485  140.6210  153.9612 C   0  0  0  0  0  0  0  0  0  0  0  0
  147.0457  141.4072  154.7826 N   0  0  0  0  0  0  0  0  0  0  0  0
  146.4004  142.5461  154.5140 C   0  0  0  0  0  0  0  0  0  0  0  0
  145.6578  142.9950  155.5174 N   0  0  0  0  0  0  0  0  0  0  0  0
  145.9122  142.0102  156.4269 C   0  0  0  0  0  0  0  0  0  0  0  0
  145.1724  142.0418  158.0899 S   0  0  2  0  0  0  0  0  0  0  0  0
  145.0023  143.8867  158.1801 C   0  0  0  0  0  0  0  0  0  0  0  0
  146.2906  141.6470  159.0569 O   0  0  0  0  0  0  0  0  0  0  0  0
  146.7346  141.0343  156.0466 N   0  0  0  0  0  0  0  0  0  0  0  0
  151.1771  141.7825  157.5538 C   0  0  0  0  0  0  0  0  0  0  0  0
  150.6999  142.9647  158.1468 C   0  0  0  0  0  0  0  0  0  0  0  0
  151.2299  143.3870  159.3840 C   0  0  0  0  0  0  0  0  0  0  0  0
  150.7088  144.6660  160.0153 C   0  0  0  0  0  0  0  0  0  0  0  0
  153.5856  142.3505  161.6970 H   0  0  0  0  0  0  0  0  0  0  0  0
  152.0483  143.1062  162.1115 H   0  0  0  0  0  0  0  0  0  0  0  0
  153.2931  144.0323  161.2590 H   0  0  0  0  0  0  0  0  0  0  0  0
  153.4787  140.8456  159.8947 H   0  0  0  0  0  0  0  0  0  0  0  0
  151.6696  139.3152  155.5650 H   0  0  0  0  0  0  0  0  0  0  0  0
  149.1527  142.1104  155.8182 H   0  0  0  0  0  0  0  0  0  0  0  0
  150.4075  142.0855  154.6012 H   0  0  0  0  0  0  0  0  0  0  0  0
  149.0063  139.5216  155.4844 H   0  0  0  0  0  0  0  0  0  0  0  0
  149.7423  139.5741  152.9588 H   0  0  0  0  0  0  0  0  0  0  0  0
  148.1837  141.2040  153.0699 H   0  0  0  0  0  0  0  0  0  0  0  0
  147.4288  139.7245  153.6189 H   0  0  0  0  0  0  0  0  0  0  0  0
  146.4800  143.0592  153.5667 H   0  0  0  0  0  0  0  0  0  0  0  0
  144.8875  144.3195  157.1860 H   0  0  0  0  0  0  0  0  0  0  0  0
  145.8839  144.3239  158.6492 H   0  0  0  0  0  0  0  0  0  0  0  0
  144.1272  144.1526  158.7730 H   0  0  0  0  0  0  0  0  0  0  0  0
  149.9346  143.5432  157.6506 H   0  0  0  0  0  0  0  0  0  0  0  0
  149.9275  145.1208  159.4056 H   0  0  0  0  0  0  0  0  0  0  0  0
  151.5138  145.3931  160.1246 H   0  0  0  0  0  0  0  0  0  0  0  0
  150.2881  144.4630  161.0003 H   0  0  0  0  0  0  0  0  0  0  0  0
  1  2  1  0  0  0  0
  1 24  1  0  0  0  0
  1 25  1  0  0  0  0
  1 26  1  0  0  0  0
  2 22  1  0  0  0  0
  2  3  2  0  0  0  0
  3  4  1  0  0  0  0
  3 27  1  0  0  0  0
  4 20  2  0  0  0  0
  4  5  1  0  0  0  0
  5  6  2  0  0  0  0
  6  7  1  0  0  0  0
  6 28  1  0  0  0  0
  7  8  1  0  0  0  0
  7 20  1  0  0  0  0
  8  9  1  0  0  0  0
  8 29  1  0  0  0  0
  8 30  1  0  0  0  0
  9 10  1  0  0  0  0
  9 11  1  0  0  0  0
  9 31  1  0  0  0  0
 10 32  1  0  0  0  0
 11 12  1  0  0  0  0
 11 33  1  0  0  0  0
 11 34  1  0  0  0  0
 12 19  1  0  0  0  0
 12 13  1  0  0  0  0
 13 14  2  0  0  0  0
 13 35  1  0  0  0  0
 14 15  1  0  0  0  0
 15 16  1  0  0  0  0
 15 19  2  0  0  0  0
 16 17  1  0  0  0  0
 16 18  2  0  0  0  0
 17 36  1  0  0  0  0
 17 37  1  0  0  0  0
 17 38  1  0  0  0  0
 20 21  1  0  0  0  0
 21 22  2  0  0  0  0
 21 39  1  0  0  0  0
 22 23  1  0  0  0  0
 23 40  1  0  0  0  0
 23 41  1  0  0  0  0
 23 42  1  0  0  0  0
M  END
> <s_m_source_file>
AV-unprocessed.smi

> <i_m_source_file_index>
2845

> <i_lp_mmshare_version>
43012

> <i_f3d_flags>
0

> <s_epik_input>
W0NIM11jKFtjSF0xKWMoW0NIM10pW2NIXWMoYzEyKW4oW2NIXW4yKVtDSDJdW0NASF0oW09IXSlbQ0gyXW4zW2NIXW5jKG4zKVtTQF0oPU8pW0NIM10=

> <s_epik_cmdline>
J2VwaWtfcHl0aG9uJywgJy1waCcsICc3LjAnLCAnLXRuJywgJzgnLCAnLW1hJywgJzIwMCcsICctbWV0YWxfYmluZGluZycsICctaW1hZScsICc8aW5maWxlLm1hZT4nLCAnLW9tYWUnLCAnPG91dGZpbGUubWFlPic=

> <r_lp_tautomer_probability>
1

> <r_epik_Ionization_Penalty>
0.0968684

> <r_epik_Ionization_Penalty_Charging>
0

> <r_epik_Ionization_Penalty_Neutral>
0.0968684

> <r_epik_State_Penalty>
0.0870047

> <r_epik_Charging_Adjusted_Penalty>
0.0870047

> <i_epik_Tot_Q>
0

> <i_epik_Tot_abs_Q>
0

> <r_epik_Metal_State_Penalty>
0.0746849

> <b_epik_Metal_Only>
0

> <s_lp_Force_Field>
OPLS_2005

> <r_lp_Energy>
9.81721

> <b_lp_Chiralities_Consistent>
1

> <s_lp_Variant>
AV-unprocessed.smi:2845-3

> <Gold.Version>
5.8.1

> <Gold.Id.Protein>
6NUR|6NUR_protein|mol2

> <Gold.PLP.Fitness>
55.8267

> <Gold.PLP.PLP>
-45.7629

> <Gold.PLP.part.hbond>
-4.0000

> <Gold.PLP.part.metal>
0.0000

> <Gold.PLP.part.buried>
-5.8669

> <Gold.PLP.part.nonpolar>
-36.8526

> <Gold.PLP.part.repulsive>
0.2579

> <Gold.PLP.ligand.clash>
0.0000

> <Gold.PLP.ligand.torsion>
1.1459

> <Gold.PLP.Chemscore.Hbond>
3.7704

> <Gold.PLP.Chemscore.CHOScore>
0.0000

> <Gold.PLP.Chemscore.Metal>
0.0000

> <Gold.Chemscore.Hbonds>
donor molecule, donor type, donor heavy atom, donor atom, acceptor molecule, acceptor atom, score
      L1  H    10    32       P1  7957  1.00
      P1  H  6934  6946       L1    18  0.82
      P1  H  7989  7998       L1    10  0.94
      P1  H  7997  8009       L1     5  0.99

> <Gold.PLP.Chemscore.Internal.Correction>
1.0443

> <Gold.Rescore>
     Score         DG    S(hbond)    S(metal)    S(lipo)     H(rot)  DE(clash)    DE(int)     intcor
     18.57     -20.52       3.21        0.00      96.07       2.71       0.06       1.88       ----

> <Gold.Chemscore.Fitness>
18.5697

> <Gold.Chemscore.DG>
-20.5156

> <Gold.Chemscore.ZeroCoef>
-5.4800

> <Gold.Chemscore.Hbond>
3.2142

> <Gold.Chemscore.Metal>
0.0000

> <Gold.Chemscore.Lipo>
96.0672

> <Gold.Chemscore.Internal_Hbond>
0.0000

> <Gold.Chemscore.DEClash>
0.0634

> <Gold.Chemscore.DEInternal>
1.8825

> <Gold.Chemscore.Rot>
2.7108

> <Gold.Chemscore.Internal.Correction>
   9.000000E+99

> <Gold.Chemscore.Hbonds>
donor molecule, donor type, donor heavy atom, donor atom, acceptor molecule, acceptor atom, score
      L1  H    10    32       P1  7957  0.96
      P1  H  6934  6946       L1    18  0.81
      P1  H  7989  7998       L1    10  0.22
      P1  H  7997  8009       L1     5  0.32

> <Gold.Chemscore.Hbond.Weighted>
-10.7354

> <Gold.Chemscore.Metal.Weighted>
-0.0000

> <Gold.Chemscore.Lipo.Weighted>
-11.2399

> <Gold.Chemscore.Internal_Hbond.Weighted>
0.0000

> <Gold.Chemscore.DEClash.Weighted>
0.0634

> <Gold.Chemscore.DEInternal.Weighted>
1.8825

> <Gold.Chemscore.Rot.Weighted>
6.9396

> <Gold.Chemscore.Internal.Correction.Weighted>
   9.000000E+99

> <Gold.Protein.RotatedTorsions>
[ 6907 6896 6895 6894 ] final  131.88 input  -60.11 | X-H torsion
[ 7974 7965 7964 7962 ] final    5.34 input  175.53 | X-H torsion
[ 8008 7997 7996 7995 ] final -179.24 input   59.86 | X-H torsion
[ 10167 10162 10161 10158 ] final  -48.85 input  -65.29 | X-H torsion
[ 10718 10713 10712 10709 ] final -146.43 input   66.30 | X-H torsion
[ 10763 10752 10751 10750 ] final  124.24 input  -60.55 | X-H torsion
[ 11005 11000 10999 10996 ] final -146.65 input  -57.11 | X-H torsion

> <Gold.Protein.ActiveResidues>
 VAL166  LYS551  ARG553  GLY616  TRP617  ASP618  TYR619  PRO620  LYS621  CYS622 
 ASP623  PHE694  ASN695  SER759  ASP760  ASP761  ALA762  ILE779  LEU786  VAL792 
 PHE793  MET794  SER795  GLU796  ALA797  LYS798  CYS799  TRP800  GLU811  SER814 

> <Gold.Protein.RotatedAtoms>
  152.3381  133.6035  159.5856 H   0  0  0  0  0  0  0  0  0  0  0  0  # atno 6907 bound_to 6896
  150.7462  133.9765  159.3571 H   0  0  0  0  0  0  0  0  0  0  0  0  # atno 6908 bound_to 6896
  151.7632  135.0805  160.0400 H   0  0  0  0  0  0  0  0  0  0  0  0  # atno 6909 bound_to 6896
  146.2441  140.0398  142.8383 H   0  0  0  0  0  0  0  0  0  0  0  0  # atno 7974 bound_to 7965
  156.0282  140.1276  157.0286 H   0  0  0  0  0  0  0  0  0  0  0  0  # atno 8008 bound_to 7997
  154.4339  140.1055  156.6132 H   0  0  0  0  0  0  0  0  0  0  0  0  # atno 8009 bound_to 7997
  155.5845  140.3468  155.4551 H   0  0  0  0  0  0  0  0  0  0  0  0  # atno 8010 bound_to 7997
  140.6712  143.2722  151.4130 H   0  0  0  0  0  0  0  0  0  0  0  0  # atno 10167 bound_to 10162
  156.3948  130.7904  151.2109 H   0  0  0  0  0  0  0  0  0  0  0  0  # atno 10718 bound_to 10713
  153.6582  135.3351  155.3119 H   0  0  0  0  0  0  0  0  0  0  0  0  # atno 10763 bound_to 10752
  154.8521  135.4357  154.1832 H   0  0  0  0  0  0  0  0  0  0  0  0  # atno 10764 bound_to 10752
  153.2792  135.7007  153.7477 H   0  0  0  0  0  0  0  0  0  0  0  0  # atno 10765 bound_to 10752
  140.7798  134.3093  157.5049 H   0  0  0  0  0  0  0  0  0  0  0  0  # atno 11005 bound_to 11000
  145.1079  140.9387  143.4674 LP  0  0  0  0  0  0  0  0  0  0  0  0  # atno 17320 bound_to 7965
  145.0606  139.3109  143.5882 LP  0  0  0  0  0  0  0  0  0  0  0  0  # atno 17321 bound_to 7965
  139.5982  144.1353  152.2168 LP  0  0  0  0  0  0  0  0  0  0  0  0  # atno 17342 bound_to 10162
  140.0728  144.5765  150.7179 LP  0  0  0  0  0  0  0  0  0  0  0  0  # atno 17343 bound_to 10162
  157.7501  131.0304  150.4138 LP  0  0  0  0  0  0  0  0  0  0  0  0  # atno 17370 bound_to 10713
  156.4406  130.3991  149.6700 LP  0  0  0  0  0  0  0  0  0  0  0  0  # atno 17371 bound_to 10713
  139.8744  134.9311  156.3520 LP  0  0  0  0  0  0  0  0  0  0  0  0  # atno 17394 bound_to 11000
  140.9494  133.7461  156.0251 LP  0  0  0  0  0  0  0  0  0  0  0  0  # atno 17395 bound_to 11000

$$$$
