AV-unprocessed.smi:937|AV-procd|sdf|4215|dock8
  -GOLD-   22720 2123D 1   1.00000     0.00000
 Structure written by MMmdl.
 46 47  0  0  0  0  0  0  0  0  2 V2000
  145.7333  135.1895  151.1035 C   0  0  0  0  0  0  0  0  0  0  0  0
  146.0283  136.4814  151.8356 C   0  0  0  0  0  0  0  0  0  0  0  0
  145.7417  136.6547  153.2069 C   0  0  0  0  0  0  0  0  0  0  0  0
  146.0445  137.8867  153.8233 C   0  0  0  0  0  0  0  0  0  0  0  0
  146.6281  138.9195  153.0571 C   0  0  0  0  0  0  0  0  0  0  0  0
  146.9638  140.2548  153.6913 C   0  0  0  0  0  0  0  0  0  0  0  0
  148.4512  140.6120  153.5385 C   0  0  0  0  0  0  0  0  0  0  0  0
  148.8993  141.4913  154.6109 N   0  0  0  0  0  0  0  0  0  0  0  0
  149.9701  141.2697  155.3917 C   0  0  0  0  0  0  0  0  0  0  0  0
  150.6837  140.2732  155.2926 O   0  0  0  0  0  0  0  0  0  0  0  0
  150.2171  142.2327  156.2979 N   0  0  0  0  0  0  0  0  0  0  0  0
  151.2940  142.2960  157.2880 C   0  0  2  0  0  0  0  0  0  0  0  0
  151.5110  140.9206  157.9512 C   0  0  0  0  0  0  0  0  0  0  0  0
  152.5871  140.9946  159.0443 C   0  0  0  0  0  0  0  0  0  0  0  0
  152.2414  142.0607  160.0954 C   0  0  0  0  0  0  0  0  0  0  0  0
  152.0254  143.4469  159.4521 C   0  0  2  0  0  0  0  0  0  0  0  0
  151.6888  144.5254  160.5026 C   0  0  0  0  0  0  0  0  0  0  0  0
  152.4081  144.3492  161.6115 F   0  0  0  0  0  0  0  0  0  0  0  0
  151.9450  145.7375  160.0107 F   0  0  0  0  0  0  0  0  0  0  0  0
  150.3941  144.4695  160.8153 F   0  0  0  0  0  0  0  0  0  0  0  0
  150.9482  143.3577  158.3494 C   0  0  0  0  0  0  0  0  0  0  0  0
  146.8907  138.6898  151.6898 C   0  0  0  0  0  0  0  0  0  0  0  0
  146.5857  137.4956  151.1364 N   0  3  0  0  0  0  0  0  0  0  0  0
  145.3347  134.4352  151.7827 H   0  0  0  0  0  0  0  0  0  0  0  0
  146.6422  134.7926  150.6502 H   0  0  0  0  0  0  0  0  0  0  0  0
  144.9997  135.3593  150.3149 H   0  0  0  0  0  0  0  0  0  0  0  0
  145.2957  135.8562  153.7823 H   0  0  0  0  0  0  0  0  0  0  0  0
  145.8298  138.0348  154.8718 H   0  0  0  0  0  0  0  0  0  0  0  0
  146.3393  141.0263  153.2384 H   0  0  0  0  0  0  0  0  0  0  0  0
  146.6933  140.2236  154.7477 H   0  0  0  0  0  0  0  0  0  0  0  0
  149.0577  139.7064  153.5675 H   0  0  0  0  0  0  0  0  0  0  0  0
  148.6369  141.0807  152.5706 H   0  0  0  0  0  0  0  0  0  0  0  0
  148.3674  142.3358  154.7638 H   0  0  0  0  0  0  0  0  0  0  0  0
  149.5784  143.0150  156.3004 H   0  0  0  0  0  0  0  0  0  0  0  0
  152.2181  142.6074  156.7976 H   0  0  0  0  0  0  0  0  0  0  0  0
  150.5751  140.5697  158.3884 H   0  0  0  0  0  0  0  0  0  0  0  0
  151.8004  140.1774  157.2076 H   0  0  0  0  0  0  0  0  0  0  0  0
  152.6948  140.0217  159.5245 H   0  0  0  0  0  0  0  0  0  0  0  0
  153.5528  141.2246  158.5927 H   0  0  0  0  0  0  0  0  0  0  0  0
  151.3420  141.7592  160.6338 H   0  0  0  0  0  0  0  0  0  0  0  0
  153.0408  142.1101  160.8352 H   0  0  0  0  0  0  0  0  0  0  0  0
  152.9622  143.7400  158.9753 H   0  0  0  0  0  0  0  0  0  0  0  0
  150.8326  144.3288  157.8665 H   0  0  0  0  0  0  0  0  0  0  0  0
  149.9828  143.1235  158.8008 H   0  0  0  0  0  0  0  0  0  0  0  0
  147.3315  139.4194  151.0260 H   0  0  0  0  0  0  0  0  0  0  0  0
  146.7858  137.3529  150.1463 H   0  0  0  0  0  0  0  0  0  0  0  0
  1  2  1  0  0  0  0
  1 24  1  0  0  0  0
  1 25  1  0  0  0  0
  1 26  1  0  0  0  0
  2 23  1  0  0  0  0
  2  3  2  0  0  0  0
  3  4  1  0  0  0  0
  3 27  1  0  0  0  0
  4  5  2  0  0  0  0
  4 28  1  0  0  0  0
  5  6  1  0  0  0  0
  5 22  1  0  0  0  0
  6  7  1  0  0  0  0
  6 29  1  0  0  0  0
  6 30  1  0  0  0  0
  7  8  1  0  0  0  0
  7 31  1  0  0  0  0
  7 32  1  0  0  0  0
  8  9  1  0  0  0  0
  8 33  1  0  0  0  0
  9 10  2  0  0  0  0
  9 11  1  0  0  0  0
 11 12  1  0  0  0  0
 11 34  1  0  0  0  0
 12 21  1  0  0  0  0
 12 13  1  0  0  0  0
 12 35  1  0  0  0  0
 13 14  1  0  0  0  0
 13 36  1  0  0  0  0
 13 37  1  0  0  0  0
 14 15  1  0  0  0  0
 14 38  1  0  0  0  0
 14 39  1  0  0  0  0
 15 16  1  0  0  0  0
 15 40  1  0  0  0  0
 15 41  1  0  0  0  0
 16 17  1  0  0  0  0
 16 21  1  0  0  0  0
 16 42  1  0  0  0  0
 17 18  1  0  0  0  0
 17 19  1  0  0  0  0
 17 20  1  0  0  0  0
 21 43  1  0  0  0  0
 21 44  1  0  0  0  0
 22 23  2  0  0  0  0
 22 45  1  0  0  0  0
 23 46  1  0  0  0  0
M  CHG  1  23   1
M  END
> <s_m_source_file>
AV-unprocessed.smi

> <i_m_source_file_index>
937

> <i_lp_mmshare_version>
43012

> <i_f3d_flags>
0

> <s_epik_input>
W0NIM11jMVtjSF1bY0hdYyhbY0hdbjEpW0NIMl1bQ0gyXVtOSF1DKD1PKVtOSF1bQ0BASF0yW0NIMl1bQ0gyXVtDSDJdW0NAQEhdKEMoRikoRilGKVtDSDJdMg==

> <s_epik_cmdline>
J2VwaWtfcHl0aG9uJywgJy1waCcsICc3LjAnLCAnLXRuJywgJzgnLCAnLW1hJywgJzIwMCcsICctbWV0YWxfYmluZGluZycsICctaW1hZScsICc8aW5maWxlLm1hZT4nLCAnLW9tYWUnLCAnPG91dGZpbGUubWFlPic=

> <r_epik_Ionization_Penalty>
1.4226

> <r_epik_Ionization_Penalty_Charging>
1.42255

> <r_epik_Ionization_Penalty_Neutral>
5.16456e-05

> <r_epik_State_Penalty>
1.50646

> <r_epik_Charging_Adjusted_Penalty>
2.92901

> <i_epik_Tot_Q>
1

> <i_epik_Tot_abs_Q>
1

> <r_epik_Metal_State_Penalty>
1.55846

> <b_epik_Metal_Only>
0

> <s_lp_Force_Field>
OPLS_2005

> <r_lp_Energy>
23.9189

> <b_lp_Chiralities_Consistent>
1

> <s_lp_Variant>
AV-unprocessed.smi:937-7

> <Gold.Version>
5.8.1

> <Gold.Id.Protein>
6NUR|6NUR_protein|mol2

> <Gold.PLP.Fitness>
52.4925

> <Gold.PLP.PLP>
-48.3381

> <Gold.PLP.part.hbond>
-4.2355

> <Gold.PLP.part.metal>
0.0000

> <Gold.PLP.part.buried>
-0.2325

> <Gold.PLP.part.nonpolar>
-45.4902

> <Gold.PLP.part.repulsive>
1.6136

> <Gold.PLP.ligand.clash>
0.0000

> <Gold.PLP.ligand.torsion>
0.9350

> <Gold.PLP.Chemscore.Hbond>
2.0000

> <Gold.PLP.Chemscore.CHOScore>
0.0000

> <Gold.PLP.Chemscore.Metal>
0.0000

> <Gold.Chemscore.Hbonds>
donor molecule, donor type, donor heavy atom, donor atom, acceptor molecule, acceptor atom, score
      L1  H    11    34       P1  8028  1.00
      P1  H  7989  7998       L1    10  0.60

> <Gold.PLP.Chemscore.Internal.Correction>
0.0243

> <Gold.Rescore>
     Score         DG    S(hbond)    S(metal)    S(lipo)     H(rot)  DE(clash)    DE(int)     intcor
     14.76     -18.69       1.16        0.00     116.01       1.66       1.84       2.09       ----

> <Gold.Chemscore.Fitness>
14.7571

> <Gold.Chemscore.DG>
-18.6888

> <Gold.Chemscore.ZeroCoef>
-5.4800

> <Gold.Chemscore.Hbond>
1.1621

> <Gold.Chemscore.Metal>
0.0000

> <Gold.Chemscore.Lipo>
116.0109

> <Gold.Chemscore.Internal_Hbond>
0.0000

> <Gold.Chemscore.DEClash>
1.8434

> <Gold.Chemscore.DEInternal>
2.0884

> <Gold.Chemscore.Rot>
1.6585

> <Gold.Chemscore.Internal.Correction>
   9.000000E+99

> <Gold.Chemscore.Hbonds>
donor molecule, donor type, donor heavy atom, donor atom, acceptor molecule, acceptor atom, score
      L1  H    11    34       P1  8028  0.97
      P1  H  7989  7998       L1    10  0.07

> <Gold.Chemscore.Hbond.Weighted>
-3.8813

> <Gold.Chemscore.Metal.Weighted>
-0.0000

> <Gold.Chemscore.Lipo.Weighted>
-13.5733

> <Gold.Chemscore.Internal_Hbond.Weighted>
0.0000

> <Gold.Chemscore.DEClash.Weighted>
1.8434

> <Gold.Chemscore.DEInternal.Weighted>
2.0884

> <Gold.Chemscore.Rot.Weighted>
4.2457

> <Gold.Chemscore.Internal.Correction.Weighted>
   9.000000E+99

> <Gold.Protein.RotatedTorsions>
[ 6907 6896 6895 6894 ] final  108.05 input  -60.11 | X-H torsion
[ 7974 7965 7964 7962 ] final   84.42 input  175.53 | X-H torsion
[ 8008 7997 7996 7995 ] final  165.15 input   59.86 | X-H torsion
[ 10167 10162 10161 10158 ] final -153.64 input  -65.29 | X-H torsion
[ 10718 10713 10712 10709 ] final   40.61 input   66.30 | X-H torsion
[ 10763 10752 10751 10750 ] final  -24.71 input  -60.55 | X-H torsion
[ 11005 11000 10999 10996 ] final  126.61 input  -57.11 | X-H torsion

> <Gold.Protein.ActiveResidues>
 VAL166  LYS551  ARG553  GLY616  TRP617  ASP618  TYR619  PRO620  LYS621  CYS622 
 ASP623  PHE694  ASN695  SER759  ASP760  ASP761  ALA762  ILE779  LEU786  VAL792 
 PHE793  MET794  SER795  GLU796  ALA797  LYS798  CYS799  TRP800  GLU811  SER814 

> <Gold.Protein.RotatedAtoms>
  152.5129  133.9146  159.7504 H   0  0  0  0  0  0  0  0  0  0  0  0  # atno 6907 bound_to 6896
  150.9531  133.6518  159.2775 H   0  0  0  0  0  0  0  0  0  0  0  0  # atno 6908 bound_to 6896
  151.3790  135.0941  159.9542 H   0  0  0  0  0  0  0  0  0  0  0  0  # atno 6909 bound_to 6896
  145.5990  139.2349  143.2256 H   0  0  0  0  0  0  0  0  0  0  0  0  # atno 7974 bound_to 7965
  156.1823  140.1678  156.8250 H   0  0  0  0  0  0  0  0  0  0  0  0  # atno 8008 bound_to 7997
  154.5375  140.0744  156.8485 H   0  0  0  0  0  0  0  0  0  0  0  0  # atno 8009 bound_to 7997
  155.3282  140.3377  155.4242 H   0  0  0  0  0  0  0  0  0  0  0  0  # atno 8010 bound_to 7997
  139.7080  143.9155  152.2456 H   0  0  0  0  0  0  0  0  0  0  0  0  # atno 10167 bound_to 10162
  157.3842  130.7770  149.7217 H   0  0  0  0  0  0  0  0  0  0  0  0  # atno 10718 bound_to 10713
  153.6882  135.6963  153.5098 H   0  0  0  0  0  0  0  0  0  0  0  0  # atno 10763 bound_to 10752
  153.2433  135.4299  155.0720 H   0  0  0  0  0  0  0  0  0  0  0  0  # atno 10764 bound_to 10752
  154.8380  135.3513  154.6424 H   0  0  0  0  0  0  0  0  0  0  0  0  # atno 10765 bound_to 10752
  139.9465  134.9629  156.8732 H   0  0  0  0  0  0  0  0  0  0  0  0  # atno 11005 bound_to 11000
  146.1590  140.6815  142.9286 LP  0  0  0  0  0  0  0  0  0  0  0  0  # atno 17320 bound_to 7965
  144.7318  140.4693  143.6932 LP  0  0  0  0  0  0  0  0  0  0  0  0  # atno 17321 bound_to 7965
  139.9016  144.6908  150.8659 LP  0  0  0  0  0  0  0  0  0  0  0  0  # atno 17342 bound_to 10162
  140.7726  143.3509  151.2015 LP  0  0  0  0  0  0  0  0  0  0  0  0  # atno 17343 bound_to 10162
  155.9783  130.4053  150.3660 LP  0  0  0  0  0  0  0  0  0  0  0  0  # atno 17370 bound_to 10713
  157.1767  131.0382  151.2768 LP  0  0  0  0  0  0  0  0  0  0  0  0  # atno 17371 bound_to 10713
  140.5823  134.0340  155.7468 LP  0  0  0  0  0  0  0  0  0  0  0  0  # atno 17394 bound_to 11000
  141.1116  133.9607  157.2899 LP  0  0  0  0  0  0  0  0  0  0  0  0  # atno 17395 bound_to 11000

$$$$
