AV-unprocessed.smi:3032|AV-procd|sdf|11571|dock7
  -GOLD-   2272016533D 1   1.00000     0.00000
 Structure written by MMmdl.
 36 37  0  0  0  0  0  0  0  0  2 V2000
  151.7566  144.2083  157.8970 C   0  0  0  0  0  0  0  0  0  0  0  0
  151.9115  143.2204  159.0622 C   0  0  2  0  0  0  0  0  0  0  0  0
  152.6436  143.8659  160.2545 C   0  0  0  0  0  0  0  0  0  0  0  0
  152.8065  142.8761  161.4189 C   0  0  0  0  0  0  0  0  0  0  0  0
  153.5273  141.5973  160.9652 C   0  0  0  0  0  0  0  0  0  0  0  0
  152.7944  140.9330  159.7814 C   0  0  2  0  0  0  0  0  0  0  0  0
  153.5333  139.6685  159.3235 C   0  0  0  0  0  0  0  0  0  0  0  0
  154.6605  139.7503  158.8333 O   0  0  0  0  0  0  0  0  0  0  0  0
  152.8884  138.5048  159.4932 N   0  0  0  0  0  0  0  0  0  0  0  0
  153.4379  137.1892  159.1822 C   0  0  0  0  0  0  0  0  0  0  0  0
  154.0211  137.1180  157.7588 C   0  0  0  0  0  0  0  0  0  0  0  0
  153.0920  137.6834  156.7027 C   0  0  0  0  0  0  0  0  0  0  0  0
  152.3526  136.9566  155.8397 N   0  5  0  0  0  0  0  0  0  0  0  0
  151.6835  137.7548  155.0308 N   0  0  0  0  0  0  0  0  0  0  0  0
  152.0400  138.9854  155.4169 C   0  0  0  0  0  0  0  0  0  0  0  0
  152.9065  138.9743  156.4352 N   0  0  0  0  0  0  0  0  0  0  0  0
  152.6367  141.9348  158.6169 C   0  0  0  0  0  0  0  0  0  0  0  0
  152.7273  144.5196  157.5094 H   0  0  0  0  0  0  0  0  0  0  0  0
  151.2196  145.1042  158.2098 H   0  0  0  0  0  0  0  0  0  0  0  0
  151.1979  143.7604  157.0744 H   0  0  0  0  0  0  0  0  0  0  0  0
  150.9095  142.9435  159.3932 H   0  0  0  0  0  0  0  0  0  0  0  0
  153.6264  144.2179  159.9377 H   0  0  0  0  0  0  0  0  0  0  0  0
  152.0971  144.7450  160.5975 H   0  0  0  0  0  0  0  0  0  0  0  0
  153.3614  143.3461  162.2313 H   0  0  0  0  0  0  0  0  0  0  0  0
  151.8259  142.6197  161.8219 H   0  0  0  0  0  0  0  0  0  0  0  0
  154.5526  141.8438  160.6837 H   0  0  0  0  0  0  0  0  0  0  0  0
  153.5962  140.9010  161.8025 H   0  0  0  0  0  0  0  0  0  0  0  0
  151.7969  140.6443  160.1187 H   0  0  0  0  0  0  0  0  0  0  0  0
  151.9724  138.5259  159.9175 H   0  0  0  0  0  0  0  0  0  0  0  0
  154.2244  136.9783  159.9073 H   0  0  0  0  0  0  0  0  0  0  0  0
  152.6780  136.4185  159.3195 H   0  0  0  0  0  0  0  0  0  0  0  0
  154.9649  137.6624  157.7196 H   0  0  0  0  0  0  0  0  0  0  0  0
  154.2519  136.0839  157.5005 H   0  0  0  0  0  0  0  0  0  0  0  0
  151.6693  139.8908  154.9527 H   0  0  0  0  0  0  0  0  0  0  0  0
  152.0825  141.4667  157.8018 H   0  0  0  0  0  0  0  0  0  0  0  0
  153.6163  142.1951  158.2118 H   0  0  0  0  0  0  0  0  0  0  0  0
  1  2  1  0  0  0  0
  1 18  1  0  0  0  0
  1 19  1  0  0  0  0
  1 20  1  0  0  0  0
  2 17  1  0  0  0  0
  2  3  1  0  0  0  0
  2 21  1  0  0  0  0
  3  4  1  0  0  0  0
  3 22  1  0  0  0  0
  3 23  1  0  0  0  0
  4  5  1  0  0  0  0
  4 24  1  0  0  0  0
  4 25  1  0  0  0  0
  5  6  1  0  0  0  0
  5 26  1  0  0  0  0
  5 27  1  0  0  0  0
  6  7  1  0  0  0  0
  6 17  1  0  0  0  0
  6 28  1  0  0  0  0
  7  8  2  0  0  0  0
  7  9  1  0  0  0  0
  9 10  1  0  0  0  0
  9 29  1  0  0  0  0
 10 11  1  0  0  0  0
 10 30  1  0  0  0  0
 10 31  1  0  0  0  0
 11 32  1  0  0  0  0
 11 33  1  0  0  0  0
 11 12  1  0  0  0  0
 12 16  2  0  0  0  0
 12 13  1  0  0  0  0
 13 14  1  0  0  0  0
 14 15  2  0  0  0  0
 15 16  1  0  0  0  0
 15 34  1  0  0  0  0
 17 35  1  0  0  0  0
 17 36  1  0  0  0  0
M  CHG  1  13  -1
M  END
> <s_m_source_file>
AV-unprocessed.smi

> <i_m_source_file_index>
3032

> <i_lp_mmshare_version>
43012

> <i_f3d_flags>
0

> <s_epik_input>
W0NIM11bQ0BASF0xW0NIMl1bQ0gyXVtDSDJdW0NASF0oW0NIMl0xKUMoPU8pW05IXVtDSDJdW0NIMl1jMm5uW2NIXVtuSF0y

> <s_epik_cmdline>
J2VwaWtfcHl0aG9uJywgJy1waCcsICc3LjAnLCAnLXRuJywgJzgnLCAnLW1hJywgJzIwMCcsICctbWV0YWxfYmluZGluZycsICctaW1hZScsICc8aW5maWxlLm1hZT4nLCAnLW9tYWUnLCAnPG91dGZpbGUubWFlPic=

> <r_lp_tautomer_probability>
0.948284

> <r_epik_Ionization_Penalty>
12.042

> <r_epik_Ionization_Penalty_Charging>
12.042

> <r_epik_Ionization_Penalty_Neutral>
4.36781e-08

> <r_epik_State_Penalty>
4.67286

> <r_epik_Charging_Adjusted_Penalty>
16.7149

> <i_epik_Tot_Q>
-1

> <i_epik_Tot_abs_Q>
1

> <r_epik_Metal_State_Penalty>
0.981637

> <b_epik_Metal_Only>
1

> <s_lp_Force_Field>
OPLS_2005

> <r_lp_Energy>
10.3443

> <b_lp_Chiralities_Consistent>
1

> <s_lp_Variant>
AV-unprocessed.smi:3032-15

> <Gold.Version>
5.8.1

> <Gold.Id.Protein>
6NUR|6NUR_protein|mol2

> <Gold.PLP.Fitness>
44.2081

> <Gold.PLP.PLP>
-34.6481

> <Gold.PLP.part.hbond>
-3.0000

> <Gold.PLP.part.metal>
0.0000

> <Gold.PLP.part.buried>
-5.0313

> <Gold.PLP.part.nonpolar>
-25.9676

> <Gold.PLP.part.repulsive>
0.2298

> <Gold.PLP.ligand.clash>
0.0000

> <Gold.PLP.ligand.torsion>
0.3429

> <Gold.PLP.Chemscore.Hbond>
3.4080

> <Gold.PLP.Chemscore.CHOScore>
0.0000

> <Gold.PLP.Chemscore.Metal>
0.0000

> <Gold.Chemscore.Hbonds>
donor molecule, donor type, donor heavy atom, donor atom, acceptor molecule, acceptor atom, score
      P1  H  7997  8009       L1     8  0.82
      P1  H  7997  8010       L1    16  0.78
      P1  H 10752 10763       L1    13  1.63

> <Gold.PLP.Chemscore.Internal.Correction>
0.0217

> <Gold.Rescore>
     Score         DG    S(hbond)    S(metal)    S(lipo)     H(rot)  DE(clash)    DE(int)     intcor
     16.20     -17.78       2.44        0.00      83.88       2.21       0.00       1.57       ----

> <Gold.Chemscore.Fitness>
16.1974

> <Gold.Chemscore.DG>
-17.7760

> <Gold.Chemscore.ZeroCoef>
-5.4800

> <Gold.Chemscore.Hbond>
2.4408

> <Gold.Chemscore.Metal>
0.0000

> <Gold.Chemscore.Lipo>
83.8799

> <Gold.Chemscore.Internal_Hbond>
0.0000

> <Gold.Chemscore.DEClash>
0.0038

> <Gold.Chemscore.DEInternal>
1.5748

> <Gold.Chemscore.Rot>
2.2149

> <Gold.Chemscore.Internal.Correction>
   9.000000E+99

> <Gold.Chemscore.Hbonds>
donor molecule, donor type, donor heavy atom, donor atom, acceptor molecule, acceptor atom, score
      P1  H  7997  8009       L1     8  0.81
      P1  H  7997  8010       L1    16  0.53
      P1  H 10752 10763       L1    13  0.45

> <Gold.Chemscore.Hbond.Weighted>
-8.1522

> <Gold.Chemscore.Metal.Weighted>
-0.0000

> <Gold.Chemscore.Lipo.Weighted>
-9.8139

> <Gold.Chemscore.Internal_Hbond.Weighted>
0.0000

> <Gold.Chemscore.DEClash.Weighted>
0.0038

> <Gold.Chemscore.DEInternal.Weighted>
1.5748

> <Gold.Chemscore.Rot.Weighted>
5.6702

> <Gold.Chemscore.Internal.Correction.Weighted>
   9.000000E+99

> <Gold.Protein.RotatedTorsions>
[ 6907 6896 6895 6894 ] final -134.33 input  -60.11 | X-H torsion
[ 7974 7965 7964 7962 ] final  127.55 input  175.53 | X-H torsion
[ 8008 7997 7996 7995 ] final   98.88 input   59.86 | X-H torsion
[ 10167 10162 10161 10158 ] final   37.74 input  -65.29 | X-H torsion
[ 10718 10713 10712 10709 ] final  -41.72 input   66.30 | X-H torsion
[ 10763 10752 10751 10750 ] final   69.19 input  -60.55 | X-H torsion
[ 11005 11000 10999 10996 ] final  155.09 input  -57.11 | X-H torsion

> <Gold.Protein.ActiveResidues>
 VAL166  LYS551  ARG553  GLY616  TRP617  ASP618  TYR619  PRO620  LYS621  CYS622 
 ASP623  PHE694  ASN695  SER759  ASP760  ASP761  ALA762  ILE779  LEU786  VAL792 
 PHE793  MET794  SER795  GLU796  ALA797  LYS798  CYS799  TRP800  GLU811  SER814 

> <Gold.Protein.RotatedAtoms>
  150.9845  133.6211  159.2717 H   0  0  0  0  0  0  0  0  0  0  0  0  # atno 6907 bound_to 6896
  151.3454  135.0872  159.9395 H   0  0  0  0  0  0  0  0  0  0  0  0  # atno 6908 bound_to 6896
  152.5226  133.9448  159.7698 H   0  0  0  0  0  0  0  0  0  0  0  0  # atno 6909 bound_to 6896
  145.0494  139.3896  143.5062 H   0  0  0  0  0  0  0  0  0  0  0  0  # atno 7974 bound_to 7965
  156.1049  140.3237  155.7993 H   0  0  0  0  0  0  0  0  0  0  0  0  # atno 8008 bound_to 7997
  155.4773  140.0551  157.2989 H   0  0  0  0  0  0  0  0  0  0  0  0  # atno 8009 bound_to 7997
  154.4721  140.2016  155.9983 H   0  0  0  0  0  0  0  0  0  0  0  0  # atno 8010 bound_to 7997
  140.4004  144.1731  150.6133 H   0  0  0  0  0  0  0  0  0  0  0  0  # atno 10167 bound_to 10162
  156.2673  130.4203  149.8476 H   0  0  0  0  0  0  0  0  0  0  0  0  # atno 10718 bound_to 10713
  153.0274  135.5219  154.7251 H   0  0  0  0  0  0  0  0  0  0  0  0  # atno 10763 bound_to 10752
  154.6295  135.2898  155.0235 H   0  0  0  0  0  0  0  0  0  0  0  0  # atno 10764 bound_to 10752
  154.1193  135.6610  153.4952 H   0  0  0  0  0  0  0  0  0  0  0  0  # atno 10765 bound_to 10752
  140.1549  134.8649  157.2501 H   0  0  0  0  0  0  0  0  0  0  0  0  # atno 11005 bound_to 11000
  146.3516  140.0136  142.8665 LP  0  0  0  0  0  0  0  0  0  0  0  0  # atno 17320 bound_to 7965
  145.1547  140.9641  143.4412 LP  0  0  0  0  0  0  0  0  0  0  0  0  # atno 17321 bound_to 7965
  140.4746  143.2400  151.9041 LP  0  0  0  0  0  0  0  0  0  0  0  0  # atno 17342 bound_to 10162
  139.4785  144.5334  151.8634 LP  0  0  0  0  0  0  0  0  0  0  0  0  # atno 17343 bound_to 10162
  156.5970  130.8530  151.3422 LP  0  0  0  0  0  0  0  0  0  0  0  0  # atno 17370 bound_to 10713
  157.7272  130.9639  150.1687 LP  0  0  0  0  0  0  0  0  0  0  0  0  # atno 17371 bound_to 10713
  140.2560  134.3627  155.7424 LP  0  0  0  0  0  0  0  0  0  0  0  0  # atno 17394 bound_to 11000
  141.2203  133.7343  156.9007 LP  0  0  0  0  0  0  0  0  0  0  0  0  # atno 17395 bound_to 11000

$$$$
