AV-unprocessed.smi:3328|AV-procd|sdf|12791|dock10
  -GOLD-   2272019143D 1   1.00000     0.00000
 Structure written by MMmdl.
 41 42  0  0  0  0  0  0  0  0  2 V2000
  146.4861  138.6877  151.8444 C   0  0  0  0  0  0  0  0  0  0  0  0
  146.9129  139.2329  153.1765 C   0  0  0  0  0  0  0  0  0  0  0  0
  146.6150  138.7152  154.4689 C   0  0  0  0  0  0  0  0  0  0  0  0
  147.1369  139.4395  155.4454 N   0  0  0  0  0  0  0  0  0  0  0  0
  147.7857  140.4402  154.8127 N   0  0  0  0  0  0  0  0  0  0  0  0
  148.4672  141.4604  155.5889 C   0  0  0  0  0  0  0  0  0  0  0  0
  149.9882  141.5014  155.3240 C   0  0  2  0  0  0  0  0  0  0  0  0
  150.6682  140.2431  155.8802 C   0  0  0  0  0  0  0  0  0  0  0  0
  150.6050  142.7036  155.9301 N   0  3  0  0  0  0  0  0  0  0  0  0
  150.8734  142.6038  157.3800 C   0  0  0  0  0  0  0  0  0  0  0  0
  151.7429  143.7761  157.8573 C   0  0  0  0  0  0  0  0  0  0  0  0
  152.0470  143.6781  159.2823 N   0  0  0  0  0  0  0  0  0  0  0  0
  152.6037  142.4581  159.8422 C   0  0  0  0  0  0  0  0  0  0  0  0
  152.9130  142.7949  161.3084 C   0  0  0  0  0  0  0  0  0  0  0  0
  152.2057  144.1250  161.5918 C   0  0  0  0  0  0  0  0  0  0  0  0
  151.7984  144.6096  160.2110 C   0  0  0  0  0  0  0  0  0  0  0  0
  151.3042  145.7183  160.0109 O   0  0  0  0  0  0  0  0  0  0  0  0
  147.6725  140.3368  153.4426 C   0  0  0  0  0  0  0  0  0  0  0  0
  145.7157  137.9231  151.9475 H   0  0  0  0  0  0  0  0  0  0  0  0
  147.3211  138.2333  151.3107 H   0  0  0  0  0  0  0  0  0  0  0  0
  146.0787  139.4681  151.2016 H   0  0  0  0  0  0  0  0  0  0  0  0
  146.0317  137.8428  154.7245 H   0  0  0  0  0  0  0  0  0  0  0  0
  148.0142  142.4303  155.3750 H   0  0  0  0  0  0  0  0  0  0  0  0
  148.2776  141.2579  156.6438 H   0  0  0  0  0  0  0  0  0  0  0  0
  150.1623  141.5138  154.2465 H   0  0  0  0  0  0  0  0  0  0  0  0
  150.2546  139.3408  155.4282 H   0  0  0  0  0  0  0  0  0  0  0  0
  150.5364  140.1635  156.9601 H   0  0  0  0  0  0  0  0  0  0  0  0
  151.7392  140.2510  155.6744 H   0  0  0  0  0  0  0  0  0  0  0  0
  151.4743  142.8856  155.4484 H   0  0  0  0  0  0  0  0  0  0  0  0
  149.9247  142.5907  157.9177 H   0  0  0  0  0  0  0  0  0  0  0  0
  151.3725  141.6603  157.5983 H   0  0  0  0  0  0  0  0  0  0  0  0
  152.6783  143.8022  157.2955 H   0  0  0  0  0  0  0  0  0  0  0  0
  151.2367  144.7217  157.6576 H   0  0  0  0  0  0  0  0  0  0  0  0
  151.8651  141.6584  159.7721 H   0  0  0  0  0  0  0  0  0  0  0  0
  153.4986  142.1461  159.3019 H   0  0  0  0  0  0  0  0  0  0  0  0
  152.5781  142.0047  161.9812 H   0  0  0  0  0  0  0  0  0  0  0  0
  153.9888  142.9092  161.4488 H   0  0  0  0  0  0  0  0  0  0  0  0
  151.3150  143.9805  162.2038 H   0  0  0  0  0  0  0  0  0  0  0  0
  152.8600  144.8420  162.0886 H   0  0  0  0  0  0  0  0  0  0  0  0
  148.1288  141.0551  152.7774 H   0  0  0  0  0  0  0  0  0  0  0  0
  149.9872  143.4894  155.7854 H   0  0  0  0  0  0  0  0  0  0  0  0
  1  2  1  0  0  0  0
  1 19  1  0  0  0  0
  1 20  1  0  0  0  0
  1 21  1  0  0  0  0
  2 18  2  0  0  0  0
  2  3  1  0  0  0  0
  3  4  2  0  0  0  0
  3 22  1  0  0  0  0
  4  5  1  0  0  0  0
  5  6  1  0  0  0  0
  5 18  1  0  0  0  0
  6  7  1  0  0  0  0
  6 23  1  0  0  0  0
  6 24  1  0  0  0  0
  7  8  1  0  0  0  0
  7  9  1  0  0  0  0
  7 25  1  0  0  0  0
  8 26  1  0  0  0  0
  8 27  1  0  0  0  0
  8 28  1  0  0  0  0
  9 10  1  0  0  0  0
  9 29  1  0  0  0  0
  9 41  1  0  0  0  0
 10 11  1  0  0  0  0
 10 30  1  0  0  0  0
 10 31  1  0  0  0  0
 11 12  1  0  0  0  0
 11 32  1  0  0  0  0
 11 33  1  0  0  0  0
 12 16  1  0  0  0  0
 12 13  1  0  0  0  0
 13 14  1  0  0  0  0
 13 34  1  0  0  0  0
 13 35  1  0  0  0  0
 14 15  1  0  0  0  0
 14 36  1  0  0  0  0
 14 37  1  0  0  0  0
 15 16  1  0  0  0  0
 15 38  1  0  0  0  0
 15 39  1  0  0  0  0
 16 17  2  0  0  0  0
 18 40  1  0  0  0  0
M  CHG  1   9   1
M  END
> <s_m_source_file>
AV-unprocessed.smi

> <i_m_source_file_index>
3328

> <i_lp_mmshare_version>
43012

> <i_f3d_flags>
0

> <s_epik_input>
W0NIM11jMVtjSF1ubihbY0hdMSlbQ0gyXVtDQEhdKFtDSDNdKVtOSF1bQ0gyXVtDSDJdTjJbQ0gyXVtDSDJdW0NIMl1DMj1P

> <s_epik_cmdline>
J2VwaWtfcHl0aG9uJywgJy1waCcsICc3LjAnLCAnLXRuJywgJzgnLCAnLW1hJywgJzIwMCcsICctbWV0YWxfYmluZGluZycsICctaW1hZScsICc8aW5maWxlLm1hZT4nLCAnLW9tYWUnLCAnPG91dGZpbGUubWFlPic=

> <r_lp_tautomer_probability>
1

> <r_epik_Ionization_Penalty>
0.00826719

> <r_epik_Ionization_Penalty_Charging>
0.00825899

> <r_epik_Ionization_Penalty_Neutral>
8.19932e-06

> <r_epik_State_Penalty>
0.00621436

> <r_epik_Charging_Adjusted_Penalty>
0.0144734

> <i_epik_Tot_Q>
1

> <i_epik_Tot_abs_Q>
1

> <r_epik_Metal_State_Penalty>
0.00621509

> <b_epik_Metal_Only>
0

> <s_lp_Force_Field>
OPLS_2005

> <r_lp_Energy>
18.6505

> <b_lp_Chiralities_Consistent>
1

> <s_lp_Variant>
AV-unprocessed.smi:3328-1

> <Gold.Version>
5.8.1

> <Gold.Id.Protein>
6NUR|6NUR_protein|mol2

> <Gold.PLP.Fitness>
50.1979

> <Gold.PLP.PLP>
-42.7072

> <Gold.PLP.part.hbond>
-1.7582

> <Gold.PLP.part.metal>
0.0000

> <Gold.PLP.part.buried>
-2.0998

> <Gold.PLP.part.nonpolar>
-40.1666

> <Gold.PLP.part.repulsive>
0.3713

> <Gold.PLP.ligand.clash>
0.0000

> <Gold.PLP.ligand.torsion>
0.2957

> <Gold.PLP.Chemscore.Hbond>
2.0000

> <Gold.PLP.Chemscore.CHOScore>
0.6678

> <Gold.PLP.Chemscore.Metal>
0.0000

> <Gold.Chemscore.Hbonds>
donor molecule, donor type, donor heavy atom, donor atom, acceptor molecule, acceptor atom, score
      L1  H     9    41       P1  8028  2.00
      L1  C    18    40       P1  7957  0.68

> <Gold.PLP.Chemscore.Internal.Correction>
0.0787

> <Gold.Rescore>
     Score         DG    S(hbond)    S(metal)    S(lipo)     H(rot)  DE(clash)    DE(int)     intcor
     15.26     -15.72       1.00        0.00     102.11       1.97       0.25       0.21       ----

> <Gold.Chemscore.Fitness>
15.2621

> <Gold.Chemscore.DG>
-15.7198

> <Gold.Chemscore.ZeroCoef>
-5.4800

> <Gold.Chemscore.Hbond>
0.9999

> <Gold.Chemscore.Metal>
0.0000

> <Gold.Chemscore.Lipo>
102.1118

> <Gold.Chemscore.Internal_Hbond>
0.0000

> <Gold.Chemscore.DEClash>
0.2526

> <Gold.Chemscore.DEInternal>
0.2051

> <Gold.Chemscore.Rot>
1.9714

> <Gold.Chemscore.Internal.Correction>
   9.000000E+99

> <Gold.Chemscore.Hbonds>
donor molecule, donor type, donor heavy atom, donor atom, acceptor molecule, acceptor atom, score
      L1  H     9    41       P1  8028  1.00

> <Gold.Chemscore.Hbond.Weighted>
-3.3395

> <Gold.Chemscore.Metal.Weighted>
-0.0000

> <Gold.Chemscore.Lipo.Weighted>
-11.9471

> <Gold.Chemscore.Internal_Hbond.Weighted>
0.0000

> <Gold.Chemscore.DEClash.Weighted>
0.2526

> <Gold.Chemscore.DEInternal.Weighted>
0.2051

> <Gold.Chemscore.Rot.Weighted>
5.0468

> <Gold.Chemscore.Internal.Correction.Weighted>
   9.000000E+99

> <Gold.Protein.RotatedTorsions>
[ 6907 6896 6895 6894 ] final   49.96 input  -60.11 | X-H torsion
[ 7974 7965 7964 7962 ] final  -58.05 input  175.53 | X-H torsion
[ 8008 7997 7996 7995 ] final  -19.48 input   59.86 | X-H torsion
[ 10167 10162 10161 10158 ] final  115.56 input  -65.29 | X-H torsion
[ 10718 10713 10712 10709 ] final -161.26 input   66.30 | X-H torsion
[ 10763 10752 10751 10750 ] final  163.19 input  -60.55 | X-H torsion
[ 11005 11000 10999 10996 ] final  -26.16 input  -57.11 | X-H torsion

> <Gold.Protein.ActiveResidues>
 VAL166  LYS551  ARG553  GLY616  TRP617  ASP618  TYR619  PRO620  LYS621  CYS622 
 ASP623  PHE694  ASN695  SER759  ASP760  ASP761  ALA762  ILE779  LEU786  VAL792 
 PHE793  MET794  SER795  GLU796  ALA797  LYS798  CYS799  TRP800  GLU811  SER814 

> <Gold.Protein.RotatedAtoms>
  152.2966  134.7660  160.0366 H   0  0  0  0  0  0  0  0  0  0  0  0  # atno 6907 bound_to 6896
  151.8188  133.3386  159.3586 H   0  0  0  0  0  0  0  0  0  0  0  0  # atno 6908 bound_to 6896
  150.7254  134.5523  159.5845 H   0  0  0  0  0  0  0  0  0  0  0  0  # atno 6909 bound_to 6896
  145.8439  140.8398  143.0020 H   0  0  0  0  0  0  0  0  0  0  0  0  # atno 7974 bound_to 7965
  154.4834  140.2088  155.9711 H   0  0  0  0  0  0  0  0  0  0  0  0  # atno 8008 bound_to 7997
  156.1200  140.3215  155.8163 H   0  0  0  0  0  0  0  0  0  0  0  0  # atno 8009 bound_to 7997
  155.4485  140.0515  157.2994 H   0  0  0  0  0  0  0  0  0  0  0  0  # atno 8010 bound_to 7997
  139.6308  144.7114  151.2436 H   0  0  0  0  0  0  0  0  0  0  0  0  # atno 10167 bound_to 10162
  156.5938  130.8781  151.2896 H   0  0  0  0  0  0  0  0  0  0  0  0  # atno 10718 bound_to 10713
  154.2899  135.2761  155.2659 H   0  0  0  0  0  0  0  0  0  0  0  0  # atno 10763 bound_to 10752
  154.5143  135.5774  153.6633 H   0  0  0  0  0  0  0  0  0  0  0  0  # atno 10764 bound_to 10752
  152.9916  135.6189  154.3063 H   0  0  0  0  0  0  0  0  0  0  0  0  # atno 10765 bound_to 10752
  140.9004  133.7528  156.0536 H   0  0  0  0  0  0  0  0  0  0  0  0  # atno 11005 bound_to 11000
  144.6732  140.0853  143.7467 LP  0  0  0  0  0  0  0  0  0  0  0  0  # atno 17320 bound_to 7965
  145.9434  139.2684  143.1255 LP  0  0  0  0  0  0  0  0  0  0  0  0  # atno 17321 bound_to 7965
  140.7438  143.6483  150.8271 LP  0  0  0  0  0  0  0  0  0  0  0  0  # atno 17342 bound_to 10162
  140.0108  143.5645  152.2840 LP  0  0  0  0  0  0  0  0  0  0  0  0  # atno 17343 bound_to 10162
  157.7297  130.9675  150.1799 LP  0  0  0  0  0  0  0  0  0  0  0  0  # atno 17370 bound_to 10713
  156.2527  130.3702  149.8214 LP  0  0  0  0  0  0  0  0  0  0  0  0  # atno 17371 bound_to 10713
  140.8237  134.3260  157.5373 LP  0  0  0  0  0  0  0  0  0  0  0  0  # atno 17394 bound_to 11000
  139.8741  134.9324  156.3552 LP  0  0  0  0  0  0  0  0  0  0  0  0  # atno 17395 bound_to 11000

$$$$
