AV-unprocessed.smi:1703|AV-procd|sdf|6855|dock5
  -GOLD-   22720 8 33D 1   1.00000     0.00000
 Structure written by MMmdl.
 48 50  0  0  0  0  0  0  0  0  1 V2000
  149.9896  144.6639  160.0781 C   0  0  0  0  0  0  0  0  0  0  0  0
  151.5178  144.6857  159.9020 C   0  0  2  0  0  0  0  0  0  0  0  0
  152.0189  143.7435  158.7895 C   0  0  0  0  0  0  0  0  0  0  0  0
  151.9539  142.3353  159.1665 N   0  0  0  0  0  0  0  0  0  0  0  0
  152.4438  141.4860  158.0798 C   0  0  0  0  0  0  0  0  0  0  0  0
  151.3707  140.6342  157.3663 C   0  0  1  0  0  0  0  0  0  0  0  0
  150.1384  141.3205  157.4371 O   0  0  0  0  0  0  0  0  0  0  0  0
  151.6739  140.3804  155.8751 C   0  0  0  0  0  0  0  0  0  0  0  0
  150.5763  139.7301  155.1714 N   0  0  0  0  0  0  0  0  0  0  0  0
  150.4449  138.4170  154.8548 C   0  0  0  0  0  0  0  0  0  0  0  0
  151.4751  137.3953  155.2278 C   0  0  0  0  0  0  0  0  0  0  0  0
  151.3225  136.1851  154.5175 O   0  0  0  0  0  0  0  0  0  0  0  0
  149.3327  138.0867  154.1976 N   0  0  0  0  0  0  0  0  0  0  0  0
  148.6748  139.2959  154.0862 C   0  0  0  0  0  0  0  0  0  0  0  0
  147.4337  139.6141  153.4899 C   0  0  0  0  0  0  0  0  0  0  0  0
  146.9570  140.9413  153.4983 C   0  0  0  0  0  0  0  0  0  0  0  0
  147.7124  141.9672  154.1025 C   0  0  0  0  0  0  0  0  0  0  0  0
  148.9515  141.6717  154.7022 C   0  0  0  0  0  0  0  0  0  0  0  0
  149.4239  140.3453  154.6901 C   0  0  0  0  0  0  0  0  0  0  0  0
  152.6983  142.1464  160.4088 C   0  0  0  0  0  0  0  0  0  0  0  0
  152.1654  143.0425  161.5418 C   0  0  1  0  0  0  0  0  0  0  0  0
  153.0015  142.9138  162.8194 C   0  0  0  0  0  0  0  0  0  0  0  0
  152.1976  144.4067  161.1268 O   0  0  0  0  0  0  0  0  0  0  0  0
  149.4900  144.9892  159.1654 H   0  0  0  0  0  0  0  0  0  0  0  0
  149.6816  145.3349  160.8800 H   0  0  0  0  0  0  0  0  0  0  0  0
  149.6173  143.6673  160.3147 H   0  0  0  0  0  0  0  0  0  0  0  0
  151.7913  145.7045  159.6260 H   0  0  0  0  0  0  0  0  0  0  0  0
  151.4398  143.9145  157.8812 H   0  0  0  0  0  0  0  0  0  0  0  0
  153.0504  144.0046  158.5474 H   0  0  0  0  0  0  0  0  0  0  0  0
  152.9306  142.1082  157.3272 H   0  0  0  0  0  0  0  0  0  0  0  0
  153.2251  140.8371  158.4756 H   0  0  0  0  0  0  0  0  0  0  0  0
  151.2505  139.6739  157.8637 H   0  0  0  0  0  0  0  0  0  0  0  0
  150.0798  141.7371  158.2836 H   0  0  0  0  0  0  0  0  0  0  0  0
  151.9073  141.3183  155.3701 H   0  0  0  0  0  0  0  0  0  0  0  0
  152.5636  139.7577  155.7738 H   0  0  0  0  0  0  0  0  0  0  0  0
  152.4689  137.7954  155.0235 H   0  0  0  0  0  0  0  0  0  0  0  0
  151.4339  137.1947  156.2976 H   0  0  0  0  0  0  0  0  0  0  0  0
  151.3229  136.3777  153.5925 H   0  0  0  0  0  0  0  0  0  0  0  0
  146.8472  138.8351  153.0256 H   0  0  0  0  0  0  0  0  0  0  0  0
  146.0071  141.1736  153.0396 H   0  0  0  0  0  0  0  0  0  0  0  0
  147.3399  142.9813  154.1050 H   0  0  0  0  0  0  0  0  0  0  0  0
  149.5329  142.4563  155.1634 H   0  0  0  0  0  0  0  0  0  0  0  0
  152.6376  141.1094  160.7357 H   0  0  0  0  0  0  0  0  0  0  0  0
  153.7555  142.3592  160.2412 H   0  0  0  0  0  0  0  0  0  0  0  0
  151.1383  142.7602  161.7757 H   0  0  0  0  0  0  0  0  0  0  0  0
  152.9960  141.8886  163.1903 H   0  0  0  0  0  0  0  0  0  0  0  0
  152.6079  143.5547  163.6087 H   0  0  0  0  0  0  0  0  0  0  0  0
  154.0385  143.2008  162.6430 H   0  0  0  0  0  0  0  0  0  0  0  0
  1  2  1  0  0  0  0
  1 24  1  0  0  0  0
  1 25  1  0  0  0  0
  1 26  1  0  0  0  0
  2 23  1  0  0  0  0
  2  3  1  0  0  0  0
  2 27  1  0  0  0  0
  3  4  1  0  0  0  0
  3 28  1  0  0  0  0
  3 29  1  0  0  0  0
  4  5  1  0  0  0  0
  4 20  1  0  0  0  0
  5  6  1  0  0  0  0
  5 30  1  0  0  0  0
  5 31  1  0  0  0  0
  6  7  1  0  0  0  0
  6  8  1  0  0  0  0
  6 32  1  0  0  0  0
  7 33  1  0  0  0  0
  8  9  1  0  0  0  0
  8 34  1  0  0  0  0
  8 35  1  0  0  0  0
  9 19  1  0  0  0  0
  9 10  1  0  0  0  0
 10 11  1  0  0  0  0
 10 13  2  0  0  0  0
 11 12  1  0  0  0  0
 11 36  1  0  0  0  0
 11 37  1  0  0  0  0
 12 38  1  0  0  0  0
 13 14  1  0  0  0  0
 14 19  2  0  0  0  0
 14 15  1  0  0  0  0
 15 16  2  0  0  0  0
 15 39  1  0  0  0  0
 16 17  1  0  0  0  0
 16 40  1  0  0  0  0
 17 18  2  0  0  0  0
 17 41  1  0  0  0  0
 18 19  1  0  0  0  0
 18 42  1  0  0  0  0
 20 21  1  0  0  0  0
 20 43  1  0  0  0  0
 20 44  1  0  0  0  0
 21 22  1  0  0  0  0
 21 23  1  0  0  0  0
 21 45  1  0  0  0  0
 22 46  1  0  0  0  0
 22 47  1  0  0  0  0
 22 48  1  0  0  0  0
M  END
> <s_m_source_file>
AV-unprocessed.smi

> <i_m_source_file_index>
1703

> <i_lp_mmshare_version>
43012

> <i_f3d_flags>
0

> <s_epik_input>
W0NIM11bQ0BASF0xW0NIMl1OKFtDSDJdW0NASF0oTzEpW0NIM10pW0NIMl1bQ0BIXShbT0hdKVtDSDJdbihjKG4yKVtDSDJdW09IXSljKGMyMylbY0hdW2NIXVtjSF1bY0hdMw==

> <s_epik_cmdline>
J2VwaWtfcHl0aG9uJywgJy1waCcsICc3LjAnLCAnLXRuJywgJzgnLCAnLW1hJywgJzIwMCcsICctbWV0YWxfYmluZGluZycsICctaW1hZScsICc8aW5maWxlLm1hZT4nLCAnLW9tYWUnLCAnPG91dGZpbGUubWFlPic=

> <r_epik_Ionization_Penalty>
0.307685

> <r_epik_Ionization_Penalty_Charging>
0

> <r_epik_Ionization_Penalty_Neutral>
0.307685

> <r_epik_State_Penalty>
0.277856

> <r_epik_Charging_Adjusted_Penalty>
0.277856

> <i_epik_Tot_Q>
0

> <i_epik_Tot_abs_Q>
0

> <r_epik_Metal_State_Penalty>
0.238959

> <b_epik_Metal_Only>
0

> <s_lp_Force_Field>
OPLS_2005

> <r_lp_Energy>
33.3157

> <b_lp_Chiralities_Consistent>
1

> <s_lp_Variant>
AV-unprocessed.smi:1703-3

> <Gold.Version>
5.8.1

> <Gold.Id.Protein>
6NUR|6NUR_protein|mol2

> <Gold.PLP.Fitness>
53.2767

> <Gold.PLP.PLP>
-50.4696

> <Gold.PLP.part.hbond>
-2.0000

> <Gold.PLP.part.metal>
0.0000

> <Gold.PLP.part.buried>
-4.2152

> <Gold.PLP.part.nonpolar>
-44.0446

> <Gold.PLP.part.repulsive>
1.2980

> <Gold.PLP.ligand.clash>
0.0000

> <Gold.PLP.ligand.torsion>
1.6109

> <Gold.PLP.Chemscore.Hbond>
1.9913

> <Gold.PLP.Chemscore.CHOScore>
0.0000

> <Gold.PLP.Chemscore.Metal>
0.0000

> <Gold.Chemscore.Hbonds>
donor molecule, donor type, donor heavy atom, donor atom, acceptor molecule, acceptor atom, score
      L1  H    12    38       P1  7949  0.73
      P1  H 10752 10764       L1    12  0.90

> <Gold.PLP.Chemscore.Internal.Correction>
0.0552

> <Gold.Rescore>
     Score         DG    S(hbond)    S(metal)    S(lipo)     H(rot)  DE(clash)    DE(int)     intcor
     13.48     -16.33       0.89        0.00     130.16       2.88       0.31       2.54       ----

> <Gold.Chemscore.Fitness>
13.4830

> <Gold.Chemscore.DG>
-16.3271

> <Gold.Chemscore.ZeroCoef>
-5.4800

> <Gold.Chemscore.Hbond>
0.8938

> <Gold.Chemscore.Metal>
0.0000

> <Gold.Chemscore.Lipo>
130.1614

> <Gold.Chemscore.Internal_Hbond>
0.0000

> <Gold.Chemscore.DEClash>
0.3051

> <Gold.Chemscore.DEInternal>
2.5390

> <Gold.Chemscore.Rot>
2.8778

> <Gold.Chemscore.Internal.Correction>
   9.000000E+99

> <Gold.Chemscore.Hbonds>
donor molecule, donor type, donor heavy atom, donor atom, acceptor molecule, acceptor atom, score
      L1  H    12    38       P1  7949  0.47
      P1  H 10752 10764       L1    12  0.05

> <Gold.Chemscore.Hbond.Weighted>
-2.9852

> <Gold.Chemscore.Metal.Weighted>
-0.0000

> <Gold.Chemscore.Lipo.Weighted>
-15.2289

> <Gold.Chemscore.Internal_Hbond.Weighted>
0.0000

> <Gold.Chemscore.DEClash.Weighted>
0.3051

> <Gold.Chemscore.DEInternal.Weighted>
2.5390

> <Gold.Chemscore.Rot.Weighted>
7.3671

> <Gold.Chemscore.Internal.Correction.Weighted>
   9.000000E+99

> <Gold.Protein.RotatedTorsions>
[ 6907 6896 6895 6894 ] final  -43.10 input  -60.11 | X-H torsion
[ 7974 7965 7964 7962 ] final  106.21 input  175.53 | X-H torsion
[ 8008 7997 7996 7995 ] final  -93.75 input   59.86 | X-H torsion
[ 10167 10162 10161 10158 ] final  -86.63 input  -65.29 | X-H torsion
[ 10718 10713 10712 10709 ] final -156.02 input   66.30 | X-H torsion
[ 10763 10752 10751 10750 ] final  -52.49 input  -60.55 | X-H torsion
[ 11005 11000 10999 10996 ] final  121.65 input  -57.11 | X-H torsion

> <Gold.Protein.ActiveResidues>
 VAL166  LYS551  ARG553  GLY616  TRP617  ASP618  TYR619  PRO620  LYS621  CYS622 
 ASP623  PHE694  ASN695  SER759  ASP760  ASP761  ALA762  ILE779  LEU786  VAL792 
 PHE793  MET794  SER795  GLU796  ALA797  LYS798  CYS799  TRP800  GLU811  SER814 

> <Gold.Protein.RotatedAtoms>
  150.9477  134.8880  159.7652 H   0  0  0  0  0  0  0  0  0  0  0  0  # atno 6907 bound_to 6896
  152.5107  134.3850  159.9374 H   0  0  0  0  0  0  0  0  0  0  0  0  # atno 6908 bound_to 6896
  151.3868  133.3762  159.2751 H   0  0  0  0  0  0  0  0  0  0  0  0  # atno 6909 bound_to 6896
  145.3096  139.2544  143.3770 H   0  0  0  0  0  0  0  0  0  0  0  0  # atno 7974 bound_to 7965
  154.7396  140.0496  157.0799 H   0  0  0  0  0  0  0  0  0  0  0  0  # atno 8008 bound_to 7997
  155.0195  140.3145  155.4779 H   0  0  0  0  0  0  0  0  0  0  0  0  # atno 8009 bound_to 7997
  156.2861  140.2169  156.5313 H   0  0  0  0  0  0  0  0  0  0  0  0  # atno 8010 bound_to 7997
  140.3923  143.2699  151.9249 H   0  0  0  0  0  0  0  0  0  0  0  0  # atno 10167 bound_to 10162
  156.5208  130.8477  151.2681 H   0  0  0  0  0  0  0  0  0  0  0  0  # atno 10718 bound_to 10713
  154.1436  135.6501  153.4947 H   0  0  0  0  0  0  0  0  0  0  0  0  # atno 10763 bound_to 10752
  153.0158  135.5321  154.6880 H   0  0  0  0  0  0  0  0  0  0  0  0  # atno 10764 bound_to 10752
  154.6148  135.2958  155.0363 H   0  0  0  0  0  0  0  0  0  0  0  0  # atno 10765 bound_to 10752
  139.9235  134.9639  156.7990 H   0  0  0  0  0  0  0  0  0  0  0  0  # atno 11005 bound_to 11000
  146.3123  140.3628  142.8666 LP  0  0  0  0  0  0  0  0  0  0  0  0  # atno 17320 bound_to 7965
  144.9027  140.7662  143.5857 LP  0  0  0  0  0  0  0  0  0  0  0  0  # atno 17321 bound_to 7965
  139.4788  144.5715  151.8080 LP  0  0  0  0  0  0  0  0  0  0  0  0  # atno 17342 bound_to 10162
  140.4827  144.1426  150.5935 LP  0  0  0  0  0  0  0  0  0  0  0  0  # atno 17343 bound_to 10162
  157.7437  130.9918  150.2613 LP  0  0  0  0  0  0  0  0  0  0  0  0  # atno 17370 bound_to 10713
  156.3151  130.3777  149.7626 LP  0  0  0  0  0  0  0  0  0  0  0  0  # atno 17371 bound_to 10713
  140.6405  133.9822  155.7705 LP  0  0  0  0  0  0  0  0  0  0  0  0  # atno 17394 bound_to 11000
  141.0774  134.0114  157.3437 LP  0  0  0  0  0  0  0  0  0  0  0  0  # atno 17395 bound_to 11000

$$$$
