AV-unprocessed.smi:203|AV-procd|sdf|1584|dock7
  -GOLD-   2262019473D 1   1.00000     0.00000
 Structure written by MMmdl.
 57 61  0  0  0  0  0  0  0  0  1 V2000
  152.5626  136.9283  160.3482 O   0  0  0  0  0  0  0  0  0  0  0  0
  152.2878  137.6890  159.4233 C   0  0  0  0  0  0  0  0  0  0  0  0
  150.9853  138.4648  159.3361 C   0  0  0  0  0  0  0  0  0  0  0  0
  151.2080  139.4190  158.1465 C   0  0  1  0  0  0  0  0  0  0  0  0
  151.2747  140.9274  158.5466 C   0  0  1  0  0  0  0  0  0  0  0  0
  152.5571  141.2831  159.3439 C   0  0  0  0  0  0  0  0  0  0  0  0
  152.5884  142.7673  159.7332 C   0  0  0  0  0  0  0  0  0  0  0  0
  152.4435  143.6395  158.4814 C   0  0  0  0  0  0  0  0  0  0  0  0
  151.1676  143.2673  157.7147 C   0  0  0  0  0  0  0  0  0  0  0  0
  151.1357  141.8403  157.3970 N   0  0  0  0  0  0  0  0  0  0  0  0
  150.1321  141.5717  156.5327 C   0  0  0  0  0  0  0  0  0  0  0  0
  150.4698  141.0016  155.3504 N   0  0  0  0  0  0  0  0  0  0  0  0
  149.5172  140.6780  154.4708 C   0  0  0  0  0  0  0  0  0  0  0  0
  148.1951  140.8297  154.5778 N   0  0  0  0  0  0  0  0  0  0  0  0
  147.8562  141.4115  155.7640 C   0  0  0  0  0  0  0  0  0  0  0  0
  148.7550  141.8258  156.7856 C   0  0  0  0  0  0  0  0  0  0  0  0
  148.0490  142.3908  157.8405 N   0  0  0  0  0  0  0  0  0  0  0  0
  146.8008  142.2954  157.4730 C   0  0  0  0  0  0  0  0  0  0  0  0
  146.5928  141.6927  156.2529 N   0  0  0  0  0  0  0  0  0  0  0  0
  145.3122  141.4255  155.6233 C   0  0  0  0  0  0  0  0  0  0  0  0
  144.3957  142.6693  155.5408 C   0  0  2  0  0  0  0  0  0  0  0  0
  143.1791  142.2906  154.9310 O   0  0  0  0  0  0  0  0  0  0  0  0
  144.9539  143.9136  154.8077 C   0  0  2  0  0  0  0  0  0  0  0  0
  143.9415  144.9870  154.4018 C   0  0  0  0  0  0  0  0  0  0  0  0
  144.6998  145.7109  153.3119 C   0  0  0  0  0  0  0  0  0  0  0  0
  145.4261  144.5646  152.6127 C   0  0  0  0  0  0  0  0  0  0  0  0
  145.6454  143.5692  153.6093 O   0  0  0  0  0  0  0  0  0  0  0  0
  152.4805  138.8960  157.4433 C   0  0  0  0  0  0  0  0  0  0  0  0
  153.0621  137.9467  158.3717 N   0  0  0  0  0  0  0  0  0  0  0  0
  150.1714  137.7681  159.1334 H   0  0  0  0  0  0  0  0  0  0  0  0
  150.7596  138.9798  160.2697 H   0  0  0  0  0  0  0  0  0  0  0  0
  150.3644  139.2666  157.4736 H   0  0  0  0  0  0  0  0  0  0  0  0
  150.4306  141.1223  159.2087 H   0  0  0  0  0  0  0  0  0  0  0  0
  152.6319  140.6819  160.2493 H   0  0  0  0  0  0  0  0  0  0  0  0
  153.4458  141.0568  158.7547 H   0  0  0  0  0  0  0  0  0  0  0  0
  151.7789  142.9837  160.4314 H   0  0  0  0  0  0  0  0  0  0  0  0
  153.5198  143.0015  160.2493 H   0  0  0  0  0  0  0  0  0  0  0  0
  152.4194  144.6938  158.7580 H   0  0  0  0  0  0  0  0  0  0  0  0
  153.3123  143.5053  157.8359 H   0  0  0  0  0  0  0  0  0  0  0  0
  150.2911  143.5238  158.3118 H   0  0  0  0  0  0  0  0  0  0  0  0
  151.1105  143.8557  156.7975 H   0  0  0  0  0  0  0  0  0  0  0  0
  149.8631  140.2248  153.5537 H   0  0  0  0  0  0  0  0  0  0  0  0
  145.9919  142.6454  158.0975 H   0  0  0  0  0  0  0  0  0  0  0  0
  145.4978  141.0244  154.6259 H   0  0  0  0  0  0  0  0  0  0  0  0
  144.8176  140.6322  156.1845 H   0  0  0  0  0  0  0  0  0  0  0  0
  144.1417  142.9749  156.5560 H   0  0  0  0  0  0  0  0  0  0  0  0
  143.3427  141.5467  154.3719 H   0  0  0  0  0  0  0  0  0  0  0  0
  145.7046  144.3831  155.4461 H   0  0  0  0  0  0  0  0  0  0  0  0
  143.0348  144.5500  153.9861 H   0  0  0  0  0  0  0  0  0  0  0  0
  143.6578  145.6377  155.2293 H   0  0  0  0  0  0  0  0  0  0  0  0
  144.0542  146.2776  152.6409 H   0  0  0  0  0  0  0  0  0  0  0  0
  145.4223  146.3986  153.7536 H   0  0  0  0  0  0  0  0  0  0  0  0
  144.7989  144.1389  151.8291 H   0  0  0  0  0  0  0  0  0  0  0  0
  146.3632  144.8831  152.1560 H   0  0  0  0  0  0  0  0  0  0  0  0
  152.2264  138.3786  156.5174 H   0  0  0  0  0  0  0  0  0  0  0  0
  153.1915  139.6837  157.1943 H   0  0  0  0  0  0  0  0  0  0  0  0
  153.9727  137.5349  158.2271 H   0  0  0  0  0  0  0  0  0  0  0  0
  1  2  2  0  0  0  0
  2 29  1  0  0  0  0
  2  3  1  0  0  0  0
  3  4  1  0  0  0  0
  3 30  1  0  0  0  0
  3 31  1  0  0  0  0
  4  5  1  0  0  0  0
  4 28  1  0  0  0  0
  4 32  1  0  0  0  0
  5 10  1  0  0  0  0
  5  6  1  0  0  0  0
  5 33  1  0  0  0  0
  6  7  1  0  0  0  0
  6 34  1  0  0  0  0
  6 35  1  0  0  0  0
  7  8  1  0  0  0  0
  7 36  1  0  0  0  0
  7 37  1  0  0  0  0
  8  9  1  0  0  0  0
  8 38  1  0  0  0  0
  8 39  1  0  0  0  0
  9 10  1  0  0  0  0
  9 40  1  0  0  0  0
  9 41  1  0  0  0  0
 10 11  1  0  0  0  0
 11 16  1  0  0  0  0
 11 12  2  0  0  0  0
 12 13  1  0  0  0  0
 13 14  2  0  0  0  0
 13 42  1  0  0  0  0
 14 15  1  0  0  0  0
 15 19  1  0  0  0  0
 15 16  2  0  0  0  0
 16 17  1  0  0  0  0
 17 18  2  0  0  0  0
 18 19  1  0  0  0  0
 18 43  1  0  0  0  0
 19 20  1  0  0  0  0
 20 21  1  0  0  0  0
 20 44  1  0  0  0  0
 20 45  1  0  0  0  0
 21 22  1  0  0  0  0
 21 23  1  0  0  0  0
 21 46  1  0  0  0  0
 22 47  1  0  0  0  0
 23 27  1  0  0  0  0
 23 24  1  0  0  0  0
 23 48  1  0  0  0  0
 24 25  1  0  0  0  0
 24 49  1  0  0  0  0
 24 50  1  0  0  0  0
 25 26  1  0  0  0  0
 25 51  1  0  0  0  0
 25 52  1  0  0  0  0
 26 27  1  0  0  0  0
 26 53  1  0  0  0  0
 26 54  1  0  0  0  0
 28 29  1  0  0  0  0
 28 55  1  0  0  0  0
 28 56  1  0  0  0  0
 29 57  1  0  0  0  0
M  END
> <s_m_source_file>
AV-unprocessed.smi

> <i_m_source_file_index>
203

> <i_lp_mmshare_version>
43012

> <i_f3d_flags>
0

> <s_epik_input>
Tz1DMVtDSDJdW0NASF0oW0NIMl1bTkhdMSlbQ0BASF0yW0NIMl1bQ0gyXVtDSDJdW0NIMl1OMmMobltjSF1uMyljKGMzNCluW2NIXW40W0NIMl1bQ0BIXShbT0hdKVtDQEBIXTVbQ0gyXVtDSDJdW0NIMl1PNQ==

> <s_epik_cmdline>
J2VwaWtfcHl0aG9uJywgJy1waCcsICc3LjAnLCAnLXRuJywgJzgnLCAnLW1hJywgJzIwMCcsICctbWV0YWxfYmluZGluZycsICctaW1hZScsICc8aW5maWxlLm1hZT4nLCAnLW9tYWUnLCAnPG91dGZpbGUubWFlPic=

> <r_lp_tautomer_probability>
1

> <r_epik_Ionization_Penalty>
0.00175146

> <r_epik_Ionization_Penalty_Charging>
0

> <r_epik_Ionization_Penalty_Neutral>
0.00175146

> <r_epik_State_Penalty>
0.00109045

> <r_epik_Charging_Adjusted_Penalty>
0.00109045

> <i_epik_Tot_Q>
0

> <i_epik_Tot_abs_Q>
0

> <r_epik_Metal_State_Penalty>
-0

> <b_epik_Metal_Only>
0

> <s_lp_Force_Field>
OPLS_2005

> <r_lp_Energy>
54.964

> <b_lp_Chiralities_Consistent>
1

> <s_lp_Variant>
AV-unprocessed.smi:203-3

> <Gold.Version>
5.8.1

> <Gold.Id.Protein>
6NUR|6NUR_protein|mol2

> <Gold.PLP.Fitness>
53.3671

> <Gold.PLP.PLP>
-45.5902

> <Gold.PLP.part.hbond>
-4.0000

> <Gold.PLP.part.metal>
0.0000

> <Gold.PLP.part.buried>
-3.4498

> <Gold.PLP.part.nonpolar>
-38.1074

> <Gold.PLP.part.repulsive>
0.7111

> <Gold.PLP.ligand.clash>
0.0000

> <Gold.PLP.ligand.torsion>
0.7421

> <Gold.PLP.Chemscore.Hbond>
2.0000

> <Gold.PLP.Chemscore.CHOScore>
1.0000

> <Gold.PLP.Chemscore.Metal>
0.0000

> <Gold.Chemscore.Hbonds>
donor molecule, donor type, donor heavy atom, donor atom, acceptor molecule, acceptor atom, score
      L1  H    22    47       P1 10175  0.57
      P1  H  6896  6908       L1     1  1.00
      L1  C    13    42       P1  7957  1.00

> <Gold.PLP.Chemscore.Internal.Correction>
0.2611

> <Gold.Rescore>
     Score         DG    S(hbond)    S(metal)    S(lipo)     H(rot)  DE(clash)    DE(int)     intcor
     13.95     -14.96       1.55        0.00      96.32       2.72       0.27       0.74       ----

> <Gold.Chemscore.Fitness>
13.9486

> <Gold.Chemscore.DG>
-14.9644

> <Gold.Chemscore.ZeroCoef>
-5.4800

> <Gold.Chemscore.Hbond>
1.5482

> <Gold.Chemscore.Metal>
0.0000

> <Gold.Chemscore.Lipo>
96.3162

> <Gold.Chemscore.Internal_Hbond>
0.0000

> <Gold.Chemscore.DEClash>
0.2734

> <Gold.Chemscore.DEInternal>
0.7425

> <Gold.Chemscore.Rot>
2.7171

> <Gold.Chemscore.Internal.Correction>
   9.000000E+99

> <Gold.Chemscore.Hbonds>
donor molecule, donor type, donor heavy atom, donor atom, acceptor molecule, acceptor atom, score
      L1  H    22    47       P1 10175  0.08
      P1  H  6896  6908       L1     1  0.84

> <Gold.Chemscore.Hbond.Weighted>
-5.1711

> <Gold.Chemscore.Metal.Weighted>
-0.0000

> <Gold.Chemscore.Lipo.Weighted>
-11.2690

> <Gold.Chemscore.Internal_Hbond.Weighted>
0.0000

> <Gold.Chemscore.DEClash.Weighted>
0.2734

> <Gold.Chemscore.DEInternal.Weighted>
0.7425

> <Gold.Chemscore.Rot.Weighted>
6.9557

> <Gold.Chemscore.Internal.Correction.Weighted>
   9.000000E+99

> <Gold.Protein.RotatedTorsions>
[ 6907 6896 6895 6894 ] final -101.19 input  -60.11 | X-H torsion
[ 7974 7965 7964 7962 ] final -124.88 input  175.53 | X-H torsion
[ 8008 7997 7996 7995 ] final  -30.39 input   59.86 | X-H torsion
[ 10167 10162 10161 10158 ] final  -83.43 input  -65.29 | X-H torsion
[ 10718 10713 10712 10709 ] final  158.87 input   66.30 | X-H torsion
[ 10763 10752 10751 10750 ] final -138.81 input  -60.55 | X-H torsion
[ 11005 11000 10999 10996 ] final  155.15 input  -57.11 | X-H torsion

> <Gold.Protein.ActiveResidues>
 VAL166  LYS551  ARG553  GLY616  TRP617  ASP618  TYR619  PRO620  LYS621  CYS622 
 ASP623  PHE694  ASN695  SER759  ASP760  ASP761  ALA762  ILE779  LEU786  VAL792 
 PHE793  MET794  SER795  GLU796  ALA797  LYS798  CYS799  TRP800  GLU811  SER814 

> <Gold.Protein.RotatedAtoms>
  150.7145  134.0772  159.3884 H   0  0  0  0  0  0  0  0  0  0  0  0  # atno 6907 bound_to 6896
  151.8755  135.0471  160.0493 H   0  0  0  0  0  0  0  0  0  0  0  0  # atno 6908 bound_to 6896
  152.2609  133.5261  159.5417 H   0  0  0  0  0  0  0  0  0  0  0  0  # atno 6909 bound_to 6896
  145.0035  140.7841  143.4482 H   0  0  0  0  0  0  0  0  0  0  0  0  # atno 7974 bound_to 7965
  154.4252  140.1792  156.1399 H   0  0  0  0  0  0  0  0  0  0  0  0  # atno 8008 bound_to 7997
  156.0000  140.3361  155.6811 H   0  0  0  0  0  0  0  0  0  0  0  0  # atno 8009 bound_to 7997
  155.6256  140.0664  157.2655 H   0  0  0  0  0  0  0  0  0  0  0  0  # atno 8010 bound_to 7997
  140.4227  143.2578  151.8868 H   0  0  0  0  0  0  0  0  0  0  0  0  # atno 10167 bound_to 10162
  157.1720  131.0612  151.2178 H   0  0  0  0  0  0  0  0  0  0  0  0  # atno 10718 bound_to 10713
  154.8627  135.3601  154.5445 H   0  0  0  0  0  0  0  0  0  0  0  0  # atno 10763 bound_to 10752
  153.6065  135.7011  153.5368 H   0  0  0  0  0  0  0  0  0  0  0  0  # atno 10764 bound_to 10752
  153.3245  135.4141  155.1406 H   0  0  0  0  0  0  0  0  0  0  0  0  # atno 10765 bound_to 10752
  140.1555  134.8645  157.2509 H   0  0  0  0  0  0  0  0  0  0  0  0  # atno 11005 bound_to 11000
  145.2121  139.2200  143.5137 LP  0  0  0  0  0  0  0  0  0  0  0  0  # atno 17320 bound_to 7965
  146.3456  140.1961  142.8589 LP  0  0  0  0  0  0  0  0  0  0  0  0  # atno 17321 bound_to 7965
  139.4783  144.5420  151.8514 LP  0  0  0  0  0  0  0  0  0  0  0  0  # atno 17342 bound_to 10162
  140.4516  144.1847  150.5898 LP  0  0  0  0  0  0  0  0  0  0  0  0  # atno 17343 bound_to 10162
  157.4034  130.7346  149.6784 LP  0  0  0  0  0  0  0  0  0  0  0  0  # atno 17370 bound_to 10713
  155.9737  130.4114  150.3981 LP  0  0  0  0  0  0  0  0  0  0  0  0  # atno 17371 bound_to 10713
  140.2553  134.3635  155.7427 LP  0  0  0  0  0  0  0  0  0  0  0  0  # atno 17394 bound_to 11000
  141.2204  133.7339  156.8997 LP  0  0  0  0  0  0  0  0  0  0  0  0  # atno 17395 bound_to 11000

$$$$
