AV-unprocessed.smi:2062|AV-procd|sdf|8400|dock6
  -GOLD-   2272011 83D 1   1.00000     0.00000
 Structure written by MMmdl.
 42 43  0  0  0  0  0  0  0  0  1 V2000
  152.8408  142.0679  160.8086 C   0  0  0  0  0  0  0  0  0  0  0  0
  152.7498  142.1155  159.2734 C   0  0  0  0  0  0  0  0  0  0  0  0
  153.1016  143.4987  158.7001 C   0  0  0  0  0  0  0  0  0  0  0  0
  151.4371  141.5195  158.7072 C   0  0  0  0  0  0  0  0  0  0  0  0
  151.3183  141.3938  157.2509 N   0  0  0  0  0  0  0  0  0  0  0  0
  151.7569  140.0725  156.8135 C   0  0  0  0  0  0  0  0  0  0  0  0
  151.6490  139.9004  155.2900 C   0  0  0  0  0  0  0  0  0  0  0  0
  150.3085  140.1472  154.8824 O   0  0  0  0  0  0  0  0  0  0  0  0
  149.8568  141.4534  155.2311 C   0  0  1  0  0  0  0  0  0  0  0  0
  148.4109  141.6205  154.7333 C   0  0  0  0  0  0  0  0  0  0  0  0
  148.1215  140.7387  153.6075 N   0  0  0  0  0  0  0  0  0  0  0  0
  147.0990  139.8731  153.5528 C   0  0  0  0  0  0  0  0  0  0  0  0
  146.2893  139.7211  154.4682 O   0  0  0  0  0  0  0  0  0  0  0  0
  147.0833  139.2109  152.3828 N   0  0  0  0  0  0  0  0  0  0  0  0
  146.1680  138.2159  151.9492 C   0  0  0  0  0  0  0  0  0  0  0  0
  146.0484  137.7998  150.6829 N   0  0  0  0  0  0  0  0  0  0  0  0
  145.0681  136.8137  150.5449 C   0  0  0  0  0  0  0  0  0  0  0  0
  144.4474  136.4879  151.7251 C   0  0  0  0  0  0  0  0  0  0  0  0
  145.0729  137.4120  153.0647 S   0  0  0  0  0  0  0  0  0  0  0  0
  149.9624  141.6272  156.7595 C   0  0  0  0  0  0  0  0  0  0  0  0
  152.1521  142.7560  161.2939 H   0  0  0  0  0  0  0  0  0  0  0  0
  153.8448  142.3313  161.1426 H   0  0  0  0  0  0  0  0  0  0  0  0
  152.6281  141.0663  161.1827 H   0  0  0  0  0  0  0  0  0  0  0  0
  153.5367  141.4422  158.9308 H   0  0  0  0  0  0  0  0  0  0  0  0
  152.4000  144.2650  159.0302 H   0  0  0  0  0  0  0  0  0  0  0  0
  153.0910  143.4847  157.6099 H   0  0  0  0  0  0  0  0  0  0  0  0
  154.0980  143.8095  159.0152 H   0  0  0  0  0  0  0  0  0  0  0  0
  151.3549  140.5169  159.1295 H   0  0  0  0  0  0  0  0  0  0  0  0
  150.5801  142.0649  159.1054 H   0  0  0  0  0  0  0  0  0  0  0  0
  152.7903  139.9053  157.1193 H   0  0  0  0  0  0  0  0  0  0  0  0
  151.1586  139.3031  157.3044 H   0  0  0  0  0  0  0  0  0  0  0  0
  152.3274  140.5806  154.7728 H   0  0  0  0  0  0  0  0  0  0  0  0
  151.9287  138.8871  155.0020 H   0  0  0  0  0  0  0  0  0  0  0  0
  150.4952  142.1941  154.7454 H   0  0  0  0  0  0  0  0  0  0  0  0
  147.7097  141.3952  155.5374 H   0  0  0  0  0  0  0  0  0  0  0  0
  148.2266  142.6570  154.4448 H   0  0  0  0  0  0  0  0  0  0  0  0
  148.7368  140.8038  152.8098 H   0  0  0  0  0  0  0  0  0  0  0  0
  147.8134  139.4439  151.7261 H   0  0  0  0  0  0  0  0  0  0  0  0
  144.8764  136.3974  149.5668 H   0  0  0  0  0  0  0  0  0  0  0  0
  143.6633  135.7632  151.8865 H   0  0  0  0  0  0  0  0  0  0  0  0
  149.2656  140.9502  157.2563 H   0  0  0  0  0  0  0  0  0  0  0  0
  149.6485  142.6400  156.9998 H   0  0  0  0  0  0  0  0  0  0  0  0
  1  2  1  0  0  0  0
  1 21  1  0  0  0  0
  1 22  1  0  0  0  0
  1 23  1  0  0  0  0
  2  3  1  0  0  0  0
  2  4  1  0  0  0  0
  2 24  1  0  0  0  0
  3 25  1  0  0  0  0
  3 26  1  0  0  0  0
  3 27  1  0  0  0  0
  4  5  1  0  0  0  0
  4 28  1  0  0  0  0
  4 29  1  0  0  0  0
  5 20  1  0  0  0  0
  5  6  1  0  0  0  0
  6  7  1  0  0  0  0
  6 30  1  0  0  0  0
  6 31  1  0  0  0  0
  7  8  1  0  0  0  0
  7 32  1  0  0  0  0
  7 33  1  0  0  0  0
  8  9  1  0  0  0  0
  9 10  1  0  0  0  0
  9 20  1  0  0  0  0
  9 34  1  0  0  0  0
 10 11  1  0  0  0  0
 10 35  1  0  0  0  0
 10 36  1  0  0  0  0
 11 12  1  0  0  0  0
 11 37  1  0  0  0  0
 12 13  2  0  0  0  0
 12 14  1  0  0  0  0
 14 15  1  0  0  0  0
 14 38  1  0  0  0  0
 15 19  1  0  0  0  0
 15 16  2  0  0  0  0
 16 17  1  0  0  0  0
 17 18  2  0  0  0  0
 17 39  1  0  0  0  0
 18 19  1  0  0  0  0
 18 40  1  0  0  0  0
 20 41  1  0  0  0  0
 20 42  1  0  0  0  0
M  END
> <s_m_source_file>
AV-unprocessed.smi

> <i_m_source_file_index>
2062

> <i_lp_mmshare_version>
43012

> <i_f3d_flags>
0

> <s_epik_input>
W0NIM11bQ0hdKFtDSDNdKVtDSDJdTjFbQ0gyXVtDSDJdT1tDQEhdKFtDSDJdMSlbQ0gyXVtOSF1DKD1PKVtOSF1jMm5bY0hdW2NIXXMy

> <s_epik_cmdline>
J2VwaWtfcHl0aG9uJywgJy1waCcsICc3LjAnLCAnLXRuJywgJzgnLCAnLW1hJywgJzIwMCcsICctbWV0YWxfYmluZGluZycsICctaW1hZScsICc8aW5maWxlLm1hZT4nLCAnLW9tYWUnLCAnPG91dGZpbGUubWFlPic=

> <r_lp_tautomer_probability>
0.999

> <r_epik_Ionization_Penalty>
1.11227

> <r_epik_Ionization_Penalty_Charging>
0

> <r_epik_Ionization_Penalty_Neutral>
1.11227

> <r_epik_State_Penalty>
1.17021

> <r_epik_Charging_Adjusted_Penalty>
1.17021

> <i_epik_Tot_Q>
0

> <i_epik_Tot_abs_Q>
0

> <r_epik_Metal_State_Penalty>
1.22349

> <b_epik_Metal_Only>
0

> <s_lp_Force_Field>
OPLS_2005

> <r_lp_Energy>
27.0187

> <b_lp_Chiralities_Consistent>
1

> <s_lp_Variant>
AV-unprocessed.smi:2062-5

> <Gold.Version>
5.8.1

> <Gold.Id.Protein>
6NUR|6NUR_protein|mol2

> <Gold.PLP.Fitness>
47.2817

> <Gold.PLP.PLP>
-37.2218

> <Gold.PLP.part.hbond>
-4.5654

> <Gold.PLP.part.metal>
0.0000

> <Gold.PLP.part.buried>
0.5370

> <Gold.PLP.part.nonpolar>
-36.5812

> <Gold.PLP.part.repulsive>
2.8638

> <Gold.PLP.ligand.clash>
0.0000

> <Gold.PLP.ligand.torsion>
1.0022

> <Gold.PLP.Chemscore.Hbond>
3.0000

> <Gold.PLP.Chemscore.CHOScore>
1.0000

> <Gold.PLP.Chemscore.Metal>
0.0000

> <Gold.Chemscore.Hbonds>
donor molecule, donor type, donor heavy atom, donor atom, acceptor molecule, acceptor atom, score
      L1  H    11    37       P1  7957  1.00
      L1  H    14    38       P1  7957  1.00
      P1  H  7954  7966       L1    16  0.41
      L1  C    17    39       P1  7921  0.38

> <Gold.PLP.Chemscore.Internal.Correction>
0.0643

> <Gold.Rescore>
     Score         DG    S(hbond)    S(metal)    S(lipo)     H(rot)  DE(clash)    DE(int)     intcor
     14.68     -19.37       2.14        0.00      95.13       1.72       3.51       1.19       ----

> <Gold.Chemscore.Fitness>
14.6788

> <Gold.Chemscore.DG>
-19.3727

> <Gold.Chemscore.ZeroCoef>
-5.4800

> <Gold.Chemscore.Hbond>
2.1449

> <Gold.Chemscore.Metal>
0.0000

> <Gold.Chemscore.Lipo>
95.1326

> <Gold.Chemscore.Internal_Hbond>
0.0000

> <Gold.Chemscore.DEClash>
3.5057

> <Gold.Chemscore.DEInternal>
1.1881

> <Gold.Chemscore.Rot>
1.7195

> <Gold.Chemscore.Internal.Correction>
   9.000000E+99

> <Gold.Chemscore.Hbonds>
donor molecule, donor type, donor heavy atom, donor atom, acceptor molecule, acceptor atom, score
      L1  H    11    37       P1  7957  0.92
      L1  H    14    38       P1  7957  0.98
      P1  H  7954  7966       L1    16  0.18

> <Gold.Chemscore.Hbond.Weighted>
-7.1640

> <Gold.Chemscore.Metal.Weighted>
-0.0000

> <Gold.Chemscore.Lipo.Weighted>
-11.1305

> <Gold.Chemscore.Internal_Hbond.Weighted>
0.0000

> <Gold.Chemscore.DEClash.Weighted>
3.5057

> <Gold.Chemscore.DEInternal.Weighted>
1.1881

> <Gold.Chemscore.Rot.Weighted>
4.4019

> <Gold.Chemscore.Internal.Correction.Weighted>
   9.000000E+99

> <Gold.Protein.RotatedTorsions>
[ 6907 6896 6895 6894 ] final -176.53 input  -60.11 | X-H torsion
[ 7974 7965 7964 7962 ] final   50.64 input  175.53 | X-H torsion
[ 8008 7997 7996 7995 ] final   69.21 input   59.86 | X-H torsion
[ 10167 10162 10161 10158 ] final    6.37 input  -65.29 | X-H torsion
[ 10718 10713 10712 10709 ] final  -68.82 input   66.30 | X-H torsion
[ 10763 10752 10751 10750 ] final  136.40 input  -60.55 | X-H torsion
[ 11005 11000 10999 10996 ] final  -31.95 input  -57.11 | X-H torsion

> <Gold.Protein.ActiveResidues>
 VAL166  LYS551  ARG553  GLY616  TRP617  ASP618  TYR619  PRO620  LYS621  CYS622 
 ASP623  PHE694  ASN695  SER759  ASP760  ASP761  ALA762  ILE779  LEU786  VAL792 
 PHE793  MET794  SER795  GLU796  ALA797  LYS798  CYS799  TRP800  GLU811  SER814 

> <Gold.Protein.RotatedAtoms>
  151.6062  133.3351  159.3057 H   0  0  0  0  0  0  0  0  0  0  0  0  # atno 6907 bound_to 6896
  150.8181  134.7377  159.6759 H   0  0  0  0  0  0  0  0  0  0  0  0  # atno 6908 bound_to 6896
  152.4276  134.5845  160.0008 H   0  0  0  0  0  0  0  0  0  0  0  0  # atno 6909 bound_to 6896
  145.9992  139.4421  143.0025 H   0  0  0  0  0  0  0  0  0  0  0  0  # atno 7974 bound_to 7965
  155.7201  140.3493  155.5012 H   0  0  0  0  0  0  0  0  0  0  0  0  # atno 8008 bound_to 7997
  155.9277  140.1078  157.1178 H   0  0  0  0  0  0  0  0  0  0  0  0  # atno 8009 bound_to 7997
  154.4080  140.1237  156.4749 H   0  0  0  0  0  0  0  0  0  0  0  0  # atno 8010 bound_to 7997
  140.6431  143.7726  150.7458 H   0  0  0  0  0  0  0  0  0  0  0  0  # atno 10167 bound_to 10162
  156.0486  130.4301  150.2057 H   0  0  0  0  0  0  0  0  0  0  0  0  # atno 10718 bound_to 10713
  153.8560  135.3073  155.3435 H   0  0  0  0  0  0  0  0  0  0  0  0  # atno 10763 bound_to 10752
  154.7870  135.4804  153.9971 H   0  0  0  0  0  0  0  0  0  0  0  0  # atno 10764 bound_to 10752
  153.1490  135.6839  153.9005 H   0  0  0  0  0  0  0  0  0  0  0  0  # atno 10765 bound_to 10752
  140.9511  133.7220  156.1222 H   0  0  0  0  0  0  0  0  0  0  0  0  # atno 11005 bound_to 11000
  145.7513  140.9971  143.1249 LP  0  0  0  0  0  0  0  0  0  0  0  0  # atno 17320 bound_to 7965
  144.6914  139.9218  143.7468 LP  0  0  0  0  0  0  0  0  0  0  0  0  # atno 17321 bound_to 7965
  140.1361  143.4482  152.2223 LP  0  0  0  0  0  0  0  0  0  0  0  0  # atno 17342 bound_to 10162
  139.5641  144.7424  151.4072 LP  0  0  0  0  0  0  0  0  0  0  0  0  # atno 17343 bound_to 10162
  157.0144  130.9960  151.3357 LP  0  0  0  0  0  0  0  0  0  0  0  0  # atno 17370 bound_to 10713
  157.5388  130.8106  149.8004 LP  0  0  0  0  0  0  0  0  0  0  0  0  # atno 17371 bound_to 10713
  140.7601  134.3949  157.5527 LP  0  0  0  0  0  0  0  0  0  0  0  0  # atno 17394 bound_to 11000
  139.8848  134.8955  156.2682 LP  0  0  0  0  0  0  0  0  0  0  0  0  # atno 17395 bound_to 11000

$$$$
