AV-unprocessed.smi:1669|AV-procd|sdf|6687|dock1
  -GOLD-   22720 7413D 1   1.00000     0.00000
 Structure written by MMmdl.
 47 49  0  0  0  0  0  0  0  0  1 V2000
  149.4074  131.8748  153.6904 C   0  0  0  0  0  0  0  0  0  0  0  0
  148.3216  131.7175  154.6538 N   0  0  0  0  0  0  0  0  0  0  0  0
  147.9667  130.3045  154.8201 C   0  0  0  0  0  0  0  0  0  0  0  0
  147.7125  129.5800  153.5097 C   0  0  0  0  0  0  0  0  0  0  0  0
  148.6265  128.6075  153.0512 C   0  0  0  0  0  0  0  0  0  0  0  0
  148.3930  127.9345  151.8362 C   0  0  0  0  0  0  0  0  0  0  0  0
  147.2429  128.2277  151.0780 C   0  0  0  0  0  0  0  0  0  0  0  0
  146.3263  129.1947  151.5348 C   0  0  0  0  0  0  0  0  0  0  0  0
  146.5607  129.8705  152.7485 C   0  0  0  0  0  0  0  0  0  0  0  0
  147.1750  132.5367  154.2543 C   0  0  0  0  0  0  0  0  0  0  0  0
  147.5068  133.9766  153.8125 C   0  0  2  0  0  0  0  0  0  0  0  0
  148.4323  134.5135  154.7355 O   0  0  0  0  0  0  0  0  0  0  0  0
  146.2596  134.8826  153.7477 C   0  0  0  0  0  0  0  0  0  0  0  0
  145.6643  134.9112  152.4191 N   0  0  0  0  0  0  0  0  0  0  0  0
  145.4626  135.9755  151.6018 C   0  0  0  0  0  0  0  0  0  0  0  0
  145.8576  137.3661  152.0098 C   0  0  0  0  0  0  0  0  0  0  0  0
  146.7135  138.0100  151.0882 O   0  0  0  0  0  0  0  0  0  0  0  0
  144.8819  135.7005  150.4309 N   0  0  0  0  0  0  0  0  0  0  0  0
  144.6940  134.3337  150.4950 C   0  0  0  0  0  0  0  0  0  0  0  0
  144.1260  133.4383  149.5606 C   0  0  0  0  0  0  0  0  0  0  0  0
  144.0360  132.0619  149.8553 C   0  0  0  0  0  0  0  0  0  0  0  0
  144.5102  131.5620  151.0857 C   0  0  0  0  0  0  0  0  0  0  0  0
  145.0798  132.4371  152.0302 C   0  0  0  0  0  0  0  0  0  0  0  0
  145.1692  133.8094  151.7296 C   0  0  0  0  0  0  0  0  0  0  0  0
  149.6855  132.9242  153.5882 H   0  0  0  0  0  0  0  0  0  0  0  0
  149.1177  131.5034  152.7064 H   0  0  0  0  0  0  0  0  0  0  0  0
  150.3004  131.3359  154.0078 H   0  0  0  0  0  0  0  0  0  0  0  0
  148.7747  129.7618  155.3074 H   0  0  0  0  0  0  0  0  0  0  0  0
  147.0972  130.2093  155.4720 H   0  0  0  0  0  0  0  0  0  0  0  0
  149.5094  128.3787  153.6306 H   0  0  0  0  0  0  0  0  0  0  0  0
  149.0962  127.1931  151.4862 H   0  0  0  0  0  0  0  0  0  0  0  0
  147.0631  127.7106  150.1470 H   0  0  0  0  0  0  0  0  0  0  0  0
  145.4435  129.4186  150.9542 H   0  0  0  0  0  0  0  0  0  0  0  0
  145.8549  130.6129  153.0915 H   0  0  0  0  0  0  0  0  0  0  0  0
  146.6630  132.0478  153.4240 H   0  0  0  0  0  0  0  0  0  0  0  0
  146.4527  132.5663  155.0719 H   0  0  0  0  0  0  0  0  0  0  0  0
  148.0087  133.9702  152.8459 H   0  0  0  0  0  0  0  0  0  0  0  0
  149.0528  133.8393  154.9667 H   0  0  0  0  0  0  0  0  0  0  0  0
  145.4971  134.5186  154.4375 H   0  0  0  0  0  0  0  0  0  0  0  0
  146.4979  135.8952  154.0727 H   0  0  0  0  0  0  0  0  0  0  0  0
  144.9569  137.9681  152.1324 H   0  0  0  0  0  0  0  0  0  0  0  0
  146.3637  137.3328  152.9744 H   0  0  0  0  0  0  0  0  0  0  0  0
  147.5050  137.4987  151.0112 H   0  0  0  0  0  0  0  0  0  0  0  0
  143.7588  133.8111  148.6159 H   0  0  0  0  0  0  0  0  0  0  0  0
  143.6003  131.3862  149.1338 H   0  0  0  0  0  0  0  0  0  0  0  0
  144.4372  130.5068  151.3037 H   0  0  0  0  0  0  0  0  0  0  0  0
  145.4443  132.0581  152.9736 H   0  0  0  0  0  0  0  0  0  0  0  0
  1  2  1  0  0  0  0
  1 25  1  0  0  0  0
  1 26  1  0  0  0  0
  1 27  1  0  0  0  0
  2  3  1  0  0  0  0
  2 10  1  0  0  0  0
  3  4  1  0  0  0  0
  3 28  1  0  0  0  0
  3 29  1  0  0  0  0
  4  9  1  0  0  0  0
  4  5  2  0  0  0  0
  5  6  1  0  0  0  0
  5 30  1  0  0  0  0
  6  7  2  0  0  0  0
  6 31  1  0  0  0  0
  7  8  1  0  0  0  0
  7 32  1  0  0  0  0
  8  9  2  0  0  0  0
  8 33  1  0  0  0  0
  9 34  1  0  0  0  0
 10 11  1  0  0  0  0
 10 35  1  0  0  0  0
 10 36  1  0  0  0  0
 11 12  1  0  0  0  0
 11 13  1  0  0  0  0
 11 37  1  0  0  0  0
 12 38  1  0  0  0  0
 13 14  1  0  0  0  0
 13 39  1  0  0  0  0
 13 40  1  0  0  0  0
 14 24  1  0  0  0  0
 14 15  1  0  0  0  0
 15 16  1  0  0  0  0
 15 18  2  0  0  0  0
 16 17  1  0  0  0  0
 16 41  1  0  0  0  0
 16 42  1  0  0  0  0
 17 43  1  0  0  0  0
 18 19  1  0  0  0  0
 19 24  2  0  0  0  0
 19 20  1  0  0  0  0
 20 21  2  0  0  0  0
 20 44  1  0  0  0  0
 21 22  1  0  0  0  0
 21 45  1  0  0  0  0
 22 23  2  0  0  0  0
 22 46  1  0  0  0  0
 23 24  1  0  0  0  0
 23 47  1  0  0  0  0
M  END
> <s_m_source_file>
AV-unprocessed.smi

> <i_m_source_file_index>
1669

> <i_lp_mmshare_version>
43012

> <i_f3d_flags>
0

> <s_epik_input>
W2NIXTFbY0hdW2NIXVtjSF1bY0hdYzFbQ0gyXU4oW0NIM10pW0NIMl1bQ0BIXShbT0hdKVtDSDJdbihjKG4yKVtDSDJdW09IXSljKGMyMylbY0hdW2NIXVtjSF1bY0hdMw==

> <s_epik_cmdline>
J2VwaWtfcHl0aG9uJywgJy1waCcsICc3LjAnLCAnLXRuJywgJzgnLCAnLW1hJywgJzIwMCcsICctbWV0YWxfYmluZGluZycsICctaW1hZScsICc8aW5maWxlLm1hZT4nLCAnLW9tYWUnLCAnPG91dGZpbGUubWFlPic=

> <r_epik_Ionization_Penalty>
1.56301

> <r_epik_Ionization_Penalty_Charging>
0

> <r_epik_Ionization_Penalty_Neutral>
1.56301

> <r_epik_State_Penalty>
1.64771

> <r_epik_Charging_Adjusted_Penalty>
1.64771

> <i_epik_Tot_Q>
0

> <i_epik_Tot_abs_Q>
0

> <r_epik_Metal_State_Penalty>
1.61258

> <b_epik_Metal_Only>
0

> <s_lp_Force_Field>
OPLS_2005

> <r_lp_Energy>
20.891

> <b_lp_Chiralities_Consistent>
1

> <s_lp_Variant>
AV-unprocessed.smi:1669-5

> <Gold.Version>
5.8.1

> <Gold.Id.Protein>
6NUR|6NUR_protein|mol2

> <Gold.PLP.Fitness>
46.4792

> <Gold.PLP.PLP>
-44.7092

> <Gold.PLP.part.hbond>
-2.4331

> <Gold.PLP.part.metal>
0.0000

> <Gold.PLP.part.buried>
-5.4042

> <Gold.PLP.part.nonpolar>
-37.0583

> <Gold.PLP.part.repulsive>
0.5326

> <Gold.PLP.ligand.clash>
0.0000

> <Gold.PLP.ligand.torsion>
0.8104

> <Gold.PLP.Chemscore.Hbond>
1.0000

> <Gold.PLP.Chemscore.CHOScore>
0.0000

> <Gold.PLP.Chemscore.Metal>
0.0000

> <Gold.Chemscore.Hbonds>
donor molecule, donor type, donor heavy atom, donor atom, acceptor molecule, acceptor atom, score
      L1  H    17    43       P1  7948  0.94

> <Gold.PLP.Chemscore.Internal.Correction>
0.3907

> <Gold.Rescore>
     Score         DG    S(hbond)    S(metal)    S(lipo)     H(rot)  DE(clash)    DE(int)     intcor
     13.96     -14.84       1.00        0.00     118.52       3.06       0.17       0.71       ----

> <Gold.Chemscore.Fitness>
13.9621

> <Gold.Chemscore.DG>
-14.8405

> <Gold.Chemscore.ZeroCoef>
-5.4800

> <Gold.Chemscore.Hbond>
0.9968

> <Gold.Chemscore.Metal>
0.0000

> <Gold.Chemscore.Lipo>
118.5212

> <Gold.Chemscore.Internal_Hbond>
0.0000

> <Gold.Chemscore.DEClash>
0.1669

> <Gold.Chemscore.DEInternal>
0.7115

> <Gold.Chemscore.Rot>
3.0609

> <Gold.Chemscore.Internal.Correction>
   9.000000E+99

> <Gold.Chemscore.Hbonds>
donor molecule, donor type, donor heavy atom, donor atom, acceptor molecule, acceptor atom, score
      L1  H    17    43       P1  7948  0.86

> <Gold.Chemscore.Hbond.Weighted>
-3.3294

> <Gold.Chemscore.Metal.Weighted>
-0.0000

> <Gold.Chemscore.Lipo.Weighted>
-13.8670

> <Gold.Chemscore.Internal_Hbond.Weighted>
0.0000

> <Gold.Chemscore.DEClash.Weighted>
0.1669

> <Gold.Chemscore.DEInternal.Weighted>
0.7115

> <Gold.Chemscore.Rot.Weighted>
7.8358

> <Gold.Chemscore.Internal.Correction.Weighted>
   9.000000E+99

> <Gold.Protein.RotatedTorsions>
[ 6907 6896 6895 6894 ] final   24.39 input  -60.11 | X-H torsion
[ 7974 7965 7964 7962 ] final   60.60 input  175.53 | X-H torsion
[ 8008 7997 7996 7995 ] final -107.52 input   59.86 | X-H torsion
[ 10167 10162 10161 10158 ] final  -13.40 input  -65.29 | X-H torsion
[ 10718 10713 10712 10709 ] final  -91.92 input   66.30 | X-H torsion
[ 10763 10752 10751 10750 ] final   18.80 input  -60.55 | X-H torsion
[ 11005 11000 10999 10996 ] final   77.83 input  -57.11 | X-H torsion

> <Gold.Protein.ActiveResidues>
 VAL166  LYS551  ARG553  GLY616  TRP617  ASP618  TYR619  PRO620  LYS621  CYS622 
 ASP623  PHE694  ASN695  SER759  ASP760  ASP761  ALA762  ILE779  LEU786  VAL792 
 PHE793  MET794  SER795  GLU796  ALA797  LYS798  CYS799  TRP800  GLU811  SER814 

> <Gold.Protein.RotatedAtoms>
  151.9568  135.0143  160.0545 H   0  0  0  0  0  0  0  0  0  0  0  0  # atno 6907 bound_to 6896
  152.1904  133.4765  159.5013 H   0  0  0  0  0  0  0  0  0  0  0  0  # atno 6908 bound_to 6896
  150.6934  134.1636  159.4228 H   0  0  0  0  0  0  0  0  0  0  0  0  # atno 6909 bound_to 6896
  145.8942  139.3533  143.0631 H   0  0  0  0  0  0  0  0  0  0  0  0  # atno 7974 bound_to 7965
  154.9305  140.0405  157.2045 H   0  0  0  0  0  0  0  0  0  0  0  0  # atno 8008 bound_to 7997
  154.8165  140.2876  155.5795 H   0  0  0  0  0  0  0  0  0  0  0  0  # atno 8009 bound_to 7997
  156.2976  140.2527  156.3064 H   0  0  0  0  0  0  0  0  0  0  0  0  # atno 8010 bound_to 7997
  140.7181  143.5430  150.9387 H   0  0  0  0  0  0  0  0  0  0  0  0  # atno 10167 bound_to 10162
  155.9997  130.4967  150.5547 H   0  0  0  0  0  0  0  0  0  0  0  0  # atno 10718 bound_to 10713
  153.1217  135.6720  153.9324 H   0  0  0  0  0  0  0  0  0  0  0  0  # atno 10763 bound_to 10752
  153.8837  135.3055  155.3447 H   0  0  0  0  0  0  0  0  0  0  0  0  # atno 10764 bound_to 10752
  154.7628  135.4979  153.9576 H   0  0  0  0  0  0  0  0  0  0  0  0  # atno 10765 bound_to 10752
  139.9238  134.7714  156.1572 H   0  0  0  0  0  0  0  0  0  0  0  0  # atno 11005 bound_to 11000
  145.8871  140.9327  143.0571 LP  0  0  0  0  0  0  0  0  0  0  0  0  # atno 17320 bound_to 7965
  144.6732  140.0856  143.7467 LP  0  0  0  0  0  0  0  0  0  0  0  0  # atno 17321 bound_to 7965
  139.9153  143.6671  152.3107 LP  0  0  0  0  0  0  0  0  0  0  0  0  # atno 17342 bound_to 10162
  139.7069  144.7626  151.1179 LP  0  0  0  0  0  0  0  0  0  0  0  0  # atno 17343 bound_to 10162
  157.3465  131.0726  151.1747 LP  0  0  0  0  0  0  0  0  0  0  0  0  # atno 17370 bound_to 10713
  157.2578  130.6644  149.5960 LP  0  0  0  0  0  0  0  0  0  0  0  0  # atno 17371 bound_to 10713
  141.0780  133.6767  156.2276 LP  0  0  0  0  0  0  0  0  0  0  0  0  # atno 17394 bound_to 11000
  140.6396  134.5180  157.5568 LP  0  0  0  0  0  0  0  0  0  0  0  0  # atno 17395 bound_to 11000

$$$$
