AV-unprocessed.smi:35|AV-procd|sdf|259|dock7
  -GOLD-   2262016 23D 1   1.00000     0.00000
 Structure written by MMmdl.
 29 30  0  0  0  0  0  0  0  0  1 V2000
  152.4001  136.6779  159.6240 O   0  0  0  0  0  0  0  0  0  0  0  0
  152.0107  137.3213  158.6518 C   0  0  0  0  0  0  0  0  0  0  0  0
  152.9261  137.8042  157.7127 N   0  0  0  0  0  0  0  0  0  0  0  0
  152.6039  138.5434  156.5729 C   0  0  0  0  0  0  0  0  0  0  0  0
  153.4915  138.9095  155.8034 O   0  0  0  0  0  0  0  0  0  0  0  0
  151.2386  138.8307  156.3514 N   0  0  0  0  0  0  0  0  0  0  0  0
  150.8626  139.6329  155.1192 C   0  0  2  0  0  0  0  0  0  0  0  0
  149.8969  140.5870  155.4557 O   0  0  0  0  0  0  0  0  0  0  0  0
  148.6331  140.2241  154.9056 C   0  0  1  0  0  0  0  0  0  0  0  0
  147.7600  141.4768  154.7406 C   0  0  0  0  0  0  0  0  0  0  0  0
  148.4406  142.4387  153.9635 O   0  0  0  0  0  0  0  0  0  0  0  0
  149.0476  139.5822  153.5824 C   0  0  2  0  0  0  0  0  0  0  0  0
  148.0188  138.8107  152.9900 O   0  0  0  0  0  0  0  0  0  0  0  0
  150.2717  138.7644  153.9820 C   0  0  2  0  0  0  0  0  0  0  0  0
  149.9236  137.4497  154.3916 O   0  0  0  0  0  0  0  0  0  0  0  0
  150.2912  138.3678  157.2571 C   0  0  0  0  0  0  0  0  0  0  0  0
  150.6204  137.6507  158.3573 C   0  0  0  0  0  0  0  0  0  0  0  0
  149.1243  137.0830  159.5248 Br  0  0  0  0  0  0  0  0  0  0  0  0
  153.9018  137.5984  157.8713 H   0  0  0  0  0  0  0  0  0  0  0  0
  151.7645  140.1745  154.8274 H   0  0  0  0  0  0  0  0  0  0  0  0
  148.1435  139.4803  155.5369 H   0  0  0  0  0  0  0  0  0  0  0  0
  146.7972  141.2347  154.2899 H   0  0  0  0  0  0  0  0  0  0  0  0
  147.5591  141.9256  155.7137 H   0  0  0  0  0  0  0  0  0  0  0  0
  148.3746  143.2761  154.3963 H   0  0  0  0  0  0  0  0  0  0  0  0
  149.3530  140.3605  152.8809 H   0  0  0  0  0  0  0  0  0  0  0  0
  148.4075  138.0468  152.5919 H   0  0  0  0  0  0  0  0  0  0  0  0
  150.9904  138.6925  153.1652 H   0  0  0  0  0  0  0  0  0  0  0  0
  149.6833  136.9531  153.6243 H   0  0  0  0  0  0  0  0  0  0  0  0
  149.2445  138.5750  157.0976 H   0  0  0  0  0  0  0  0  0  0  0  0
  1  2  2  0  0  0  0
  2 17  1  0  0  0  0
  2  3  1  0  0  0  0
  3 19  1  0  0  0  0
  3  4  1  0  0  0  0
  4  5  2  0  0  0  0
  4  6  1  0  0  0  0
  6  7  1  0  0  0  0
  6 16  1  0  0  0  0
  7 14  1  0  0  0  0
  7  8  1  0  0  0  0
  7 20  1  0  0  0  0
  8  9  1  0  0  0  0
  9 10  1  0  0  0  0
  9 12  1  0  0  0  0
  9 21  1  0  0  0  0
 10 11  1  0  0  0  0
 10 22  1  0  0  0  0
 10 23  1  0  0  0  0
 11 24  1  0  0  0  0
 12 13  1  0  0  0  0
 12 14  1  0  0  0  0
 12 25  1  0  0  0  0
 13 26  1  0  0  0  0
 14 15  1  0  0  0  0
 14 27  1  0  0  0  0
 15 28  1  0  0  0  0
 16 17  2  0  0  0  0
 16 29  1  0  0  0  0
 17 18  1  0  0  0  0
M  END
> <s_m_source_file>
AV-unprocessed.smi

> <i_m_source_file_index>
35

> <i_lp_mmshare_version>
43012

> <i_f3d_flags>
0

> <s_epik_input>
Tz1jMVtuSF1jKD1PKW4oW2NIXWMxQnIpW0NAQEhdMk9bQ0BASF0oW0NIMl1bT0hdKVtDQEBIXShbT0hdKVtDQEhdMltPSF0=

> <s_epik_cmdline>
J2VwaWtfcHl0aG9uJywgJy1waCcsICc3LjAnLCAnLXRuJywgJzgnLCAnLW1hJywgJzIwMCcsICctbWV0YWxfYmluZGluZycsICctaW1hZScsICc8aW5maWxlLm1hZT4nLCAnLW9tYWUnLCAnPG91dGZpbGUubWFlPic=

> <r_lp_tautomer_probability>
0.999537

> <r_epik_Ionization_Penalty>
0.10812

> <r_epik_Ionization_Penalty_Charging>
0.108119

> <r_epik_Ionization_Penalty_Neutral>
4.93006e-07

> <r_epik_State_Penalty>
0.0979238

> <r_epik_Charging_Adjusted_Penalty>
0.206043

> <i_epik_Tot_Q>
0

> <i_epik_Tot_abs_Q>
0

> <r_epik_Metal_State_Penalty>
3.07911

> <b_epik_Metal_Only>
0

> <s_epik_Chemistry_Notes>
This compound contains an acetal/aminal-like group ( X-CH(R)-Y where X, Y are N, S, or O) that may be acid/base labile, releasing an aldehyde.

> <s_lp_Force_Field>
OPLS_2005

> <r_lp_Energy>
37.6264

> <b_lp_Chiralities_Consistent>
1

> <s_lp_Variant>
AV-unprocessed.smi:35-13

> <Gold.Version>
5.8.1

> <Gold.Id.Protein>
6NUR|6NUR_protein|mol2

> <Gold.PLP.Fitness>
38.5500

> <Gold.PLP.PLP>
-24.4013

> <Gold.PLP.part.hbond>
-6.6556

> <Gold.PLP.part.metal>
0.0000

> <Gold.PLP.part.buried>
0.3487

> <Gold.PLP.part.nonpolar>
-17.8732

> <Gold.PLP.part.repulsive>
0.1989

> <Gold.PLP.ligand.clash>
0.0000

> <Gold.PLP.ligand.torsion>
0.4548

> <Gold.PLP.Chemscore.Hbond>
4.9900

> <Gold.PLP.Chemscore.CHOScore>
0.0000

> <Gold.PLP.Chemscore.Metal>
0.0000

> <Gold.Chemscore.Hbonds>
donor molecule, donor type, donor heavy atom, donor atom, acceptor molecule, acceptor atom, score
      L1  H    11    24       P1  8028  1.00
      L1  H    13    26       P1  7948  1.00
      L1  H    15    28       P1  7948  1.00
      P1  H  6896  6909       L1     1  1.00
      P1  H  7997  8008       L1     5  0.94
      P1  H  8011  8017       L1    11  0.15

> <Gold.PLP.Chemscore.Internal.Correction>
0.0886

> <Gold.Rescore>
     Score         DG    S(hbond)    S(metal)    S(lipo)     H(rot)  DE(clash)    DE(int)     intcor
     13.24     -15.88       4.59        0.00      38.32       3.67       1.38       1.26       ----

> <Gold.Chemscore.Fitness>
13.2357

> <Gold.Chemscore.DG>
-15.8829

> <Gold.Chemscore.ZeroCoef>
-5.4800

> <Gold.Chemscore.Hbond>
4.5852

> <Gold.Chemscore.Metal>
0.0000

> <Gold.Chemscore.Lipo>
38.3229

> <Gold.Chemscore.Internal_Hbond>
0.0000

> <Gold.Chemscore.DEClash>
1.3836

> <Gold.Chemscore.DEInternal>
1.2635

> <Gold.Chemscore.Rot>
3.6701

> <Gold.Chemscore.Internal.Correction>
   9.000000E+99

> <Gold.Chemscore.Hbonds>
donor molecule, donor type, donor heavy atom, donor atom, acceptor molecule, acceptor atom, score
      L1  H    11    24       P1  8028  0.98
      L1  H    13    26       P1  7948  0.95
      L1  H    15    28       P1  7948  0.67
      P1  H  6896  6909       L1     1  0.99
      P1  H  7997  8008       L1     5  0.86
      P1  H  8011  8017       L1    11  0.13

> <Gold.Chemscore.Hbond.Weighted>
-15.3145

> <Gold.Chemscore.Metal.Weighted>
-0.0000

> <Gold.Chemscore.Lipo.Weighted>
-4.4838

> <Gold.Chemscore.Internal_Hbond.Weighted>
0.0000

> <Gold.Chemscore.DEClash.Weighted>
1.3836

> <Gold.Chemscore.DEInternal.Weighted>
1.2635

> <Gold.Chemscore.Rot.Weighted>
9.3955

> <Gold.Chemscore.Internal.Correction.Weighted>
   9.000000E+99

> <Gold.Protein.RotatedTorsions>
[ 6907 6896 6895 6894 ] final  141.43 input  -60.11 | X-H torsion
[ 7974 7965 7964 7962 ] final  -17.64 input  175.53 | X-H torsion
[ 8008 7997 7996 7995 ] final  -26.70 input   59.86 | X-H torsion
[ 10167 10162 10161 10158 ] final  -44.73 input  -65.29 | X-H torsion
[ 10718 10713 10712 10709 ] final  134.35 input   66.30 | X-H torsion
[ 10763 10752 10751 10750 ] final  -11.74 input  -60.55 | X-H torsion
[ 11005 11000 10999 10996 ] final  124.24 input  -57.11 | X-H torsion

> <Gold.Protein.ActiveResidues>
 VAL166  LYS551  ARG553  GLY616  TRP617  ASP618  TYR619  PRO620  LYS621  CYS622 
 ASP623  PHE694  ASN695  SER759  ASP760  ASP761  ALA762  ILE779  LEU786  VAL792 
 PHE793  MET794  SER795  GLU796  ALA797  LYS798  CYS799  TRP800  GLU811  SER814 

> <Gold.Protein.RotatedAtoms>
  152.2310  133.5058  159.5215 H   0  0  0  0  0  0  0  0  0  0  0  0  # atno 6907 bound_to 6896
  150.7037  134.1216  159.4046 H   0  0  0  0  0  0  0  0  0  0  0  0  # atno 6908 bound_to 6896
  151.9137  135.0328  160.0567 H   0  0  0  0  0  0  0  0  0  0  0  0  # atno 6909 bound_to 6896
  146.1931  140.3808  142.8450 H   0  0  0  0  0  0  0  0  0  0  0  0  # atno 7974 bound_to 7965
  154.4413  140.1892  156.0816 H   0  0  0  0  0  0  0  0  0  0  0  0  # atno 8008 bound_to 7997
  156.0435  140.3317  155.7243 H   0  0  0  0  0  0  0  0  0  0  0  0  # atno 8009 bound_to 7997
  155.5665  140.0608  157.2807 H   0  0  0  0  0  0  0  0  0  0  0  0  # atno 8010 bound_to 7997
  140.6885  143.2915  151.3538 H   0  0  0  0  0  0  0  0  0  0  0  0  # atno 10167 bound_to 10162
  157.4681  131.1078  150.9837 H   0  0  0  0  0  0  0  0  0  0  0  0  # atno 10718 bound_to 10713
  153.4882  135.7017  153.5899 H   0  0  0  0  0  0  0  0  0  0  0  0  # atno 10763 bound_to 10752
  153.4083  135.3855  155.2033 H   0  0  0  0  0  0  0  0  0  0  0  0  # atno 10764 bound_to 10752
  154.8718  135.3898  154.4340 H   0  0  0  0  0  0  0  0  0  0  0  0  # atno 10765 bound_to 10752
  139.9349  134.9640  156.8379 H   0  0  0  0  0  0  0  0  0  0  0  0  # atno 11005 bound_to 11000
  144.8526  140.7024  143.6158 LP  0  0  0  0  0  0  0  0  0  0  0  0  # atno 17320 bound_to 7965
  145.3729  139.1654  143.4322 LP  0  0  0  0  0  0  0  0  0  0  0  0  # atno 17321 bound_to 7965
  139.6266  144.0803  152.2439 LP  0  0  0  0  0  0  0  0  0  0  0  0  # atno 17342 bound_to 10162
  140.0264  144.6114  150.7524 LP  0  0  0  0  0  0  0  0  0  0  0  0  # atno 17343 bound_to 10162
  157.0611  130.5826  149.5386 LP  0  0  0  0  0  0  0  0  0  0  0  0  # atno 17370 bound_to 10713
  156.0060  130.5147  150.7831 LP  0  0  0  0  0  0  0  0  0  0  0  0  # atno 17371 bound_to 10713
  140.6102  134.0090  155.7573 LP  0  0  0  0  0  0  0  0  0  0  0  0  # atno 17394 bound_to 11000
  141.0958  133.9846  157.3163 LP  0  0  0  0  0  0  0  0  0  0  0  0  # atno 17395 bound_to 11000

$$$$
