AV-unprocessed.smi:3193|AV-procd|sdf|12205|dock10
  -GOLD-   2272018 43D 1   1.00000     0.00000
 Structure written by MMmdl.
 41 42  0  0  0  0  0  0  0  0  3 V2000
  152.8883  141.2998  159.7119 C   0  0  0  0  0  0  0  0  0  0  0  0
  152.5326  142.7674  159.4128 C   0  0  2  0  0  0  0  0  0  0  0  0
  152.5034  143.5684  160.7319 C   0  0  0  0  0  0  0  0  0  0  0  0
  152.2079  145.0555  160.4974 C   0  0  0  0  0  0  0  0  0  0  0  0
  150.8913  145.2344  159.7341 C   0  0  0  0  0  0  0  0  0  0  0  0
  150.9145  144.4504  158.4145 C   0  0  0  0  0  0  0  0  0  0  0  0
  151.1972  142.9466  158.6305 C   0  0  1  0  0  0  0  0  0  0  0  0
  151.1758  142.2202  157.2659 C   0  0  0  0  0  0  0  0  0  0  0  0
  149.8556  142.3071  156.6091 N   0  3  0  0  0  0  0  0  0  0  0  0
  149.7854  141.6244  155.3025 C   0  0  0  0  0  0  0  0  0  0  0  0
  148.3492  141.6166  154.7599 C   0  0  0  0  0  0  0  0  0  0  0  0
  148.0521  140.3899  154.0161 N   0  0  0  0  0  0  0  0  0  0  0  0
  146.9174  140.1047  153.3001 C   0  0  0  0  0  0  0  0  0  0  0  0
  147.0895  138.8484  152.7783 C   0  0  0  0  0  0  0  0  0  0  0  0
  148.3199  138.4192  153.1987 N   0  3  0  0  0  0  0  0  0  0  0  0
  148.9040  139.3579  153.9510 C   0  0  0  0  0  0  0  0  0  0  0  0
  152.0788  140.7926  160.2379 H   0  0  0  0  0  0  0  0  0  0  0  0
  153.7793  141.2338  160.3371 H   0  0  0  0  0  0  0  0  0  0  0  0
  153.1069  140.7431  158.8015 H   0  0  0  0  0  0  0  0  0  0  0  0
  153.3394  143.1757  158.8018 H   0  0  0  0  0  0  0  0  0  0  0  0
  151.7497  143.1496  161.4005 H   0  0  0  0  0  0  0  0  0  0  0  0
  153.4588  143.4725  161.2494 H   0  0  0  0  0  0  0  0  0  0  0  0
  152.1599  145.5814  161.4515 H   0  0  0  0  0  0  0  0  0  0  0  0
  153.0245  145.5085  159.9338 H   0  0  0  0  0  0  0  0  0  0  0  0
  150.0587  144.8939  160.3510 H   0  0  0  0  0  0  0  0  0  0  0  0
  150.7177  146.2924  159.5359 H   0  0  0  0  0  0  0  0  0  0  0  0
  149.9570  144.5831  157.9088 H   0  0  0  0  0  0  0  0  0  0  0  0
  151.6712  144.8766  157.7543 H   0  0  0  0  0  0  0  0  0  0  0  0
  150.3818  142.5531  159.2403 H   0  0  0  0  0  0  0  0  0  0  0  0
  151.9010  142.6715  156.5872 H   0  0  0  0  0  0  0  0  0  0  0  0
  151.4700  141.1768  157.3884 H   0  0  0  0  0  0  0  0  0  0  0  0
  149.1718  141.8905  157.2250 H   0  0  0  0  0  0  0  0  0  0  0  0
  150.4506  142.1255  154.5978 H   0  0  0  0  0  0  0  0  0  0  0  0
  150.1458  140.6011  155.4159 H   0  0  0  0  0  0  0  0  0  0  0  0
  147.6262  141.7047  155.5725 H   0  0  0  0  0  0  0  0  0  0  0  0
  148.1847  142.4619  154.0901 H   0  0  0  0  0  0  0  0  0  0  0  0
  146.0918  140.7968  153.2169 H   0  0  0  0  0  0  0  0  0  0  0  0
  146.4453  138.2427  152.1574 H   0  0  0  0  0  0  0  0  0  0  0  0
  149.8729  139.2924  154.4137 H   0  0  0  0  0  0  0  0  0  0  0  0
  149.6237  143.2823  156.4831 H   0  0  0  0  0  0  0  0  0  0  0  0
  148.7296  137.5203  152.9756 H   0  0  0  0  0  0  0  0  0  0  0  0
  1  2  1  0  0  0  0
  1 17  1  0  0  0  0
  1 18  1  0  0  0  0
  1 19  1  0  0  0  0
  2  7  1  0  0  0  0
  2  3  1  0  0  0  0
  2 20  1  0  0  0  0
  3  4  1  0  0  0  0
  3 21  1  0  0  0  0
  3 22  1  0  0  0  0
  4  5  1  0  0  0  0
  4 23  1  0  0  0  0
  4 24  1  0  0  0  0
  5  6  1  0  0  0  0
  5 25  1  0  0  0  0
  5 26  1  0  0  0  0
  6  7  1  0  0  0  0
  6 27  1  0  0  0  0
  6 28  1  0  0  0  0
  7  8  1  0  0  0  0
  7 29  1  0  0  0  0
  8  9  1  0  0  0  0
  8 30  1  0  0  0  0
  8 31  1  0  0  0  0
  9 10  1  0  0  0  0
  9 32  1  0  0  0  0
  9 40  1  0  0  0  0
 10 11  1  0  0  0  0
 10 33  1  0  0  0  0
 10 34  1  0  0  0  0
 11 12  1  0  0  0  0
 11 35  1  0  0  0  0
 11 36  1  0  0  0  0
 12 16  1  0  0  0  0
 12 13  1  0  0  0  0
 13 14  2  0  0  0  0
 13 37  1  0  0  0  0
 14 15  1  0  0  0  0
 14 38  1  0  0  0  0
 15 16  2  0  0  0  0
 15 41  1  0  0  0  0
 16 39  1  0  0  0  0
M  CHG  1   9   1
M  CHG  1  15   1
M  END
> <s_m_source_file>
AV-unprocessed.smi

> <i_m_source_file_index>
3193

> <i_lp_mmshare_version>
43012

> <i_f3d_flags>
0

> <s_epik_input>
W0NIM11bQ0BASF0xW0NIMl1bQ0gyXVtDSDJdW0NIMl1bQ0BIXTFbQ0gyXVtOSF1bQ0gyXVtDSDJdbjJbY0hdW2NIXW5bY0hdMg==

> <s_epik_cmdline>
J2VwaWtfcHl0aG9uJywgJy1waCcsICc3LjAnLCAnLXRuJywgJzgnLCAnLW1hJywgJzIwMCcsICctbWV0YWxfYmluZGluZycsICctaW1hZScsICc8aW5maWxlLm1hZT4nLCAnLW9tYWUnLCAnPG91dGZpbGUubWFlPic=

> <r_lp_tautomer_probability>
1

> <r_epik_Ionization_Penalty>
1.50262

> <r_epik_Ionization_Penalty_Charging>
0.00193432

> <r_epik_Ionization_Penalty_Neutral>
1.50068

> <r_epik_State_Penalty>
1.11854

> <r_epik_Charging_Adjusted_Penalty>
1.12048

> <i_epik_Tot_Q>
2

> <i_epik_Tot_abs_Q>
2

> <r_epik_Metal_State_Penalty>
5.11322

> <b_epik_Metal_Only>
0

> <s_lp_Force_Field>
OPLS_2005

> <r_lp_Energy>
26.3387

> <b_lp_Chiralities_Consistent>
1

> <s_lp_Variant>
AV-unprocessed.smi:3193-5

> <Gold.Version>
5.8.1

> <Gold.Id.Protein>
6NUR|6NUR_protein|mol2

> <Gold.PLP.Fitness>
55.0686

> <Gold.PLP.PLP>
-40.7685

> <Gold.PLP.part.hbond>
-3.0000

> <Gold.PLP.part.metal>
0.0000

> <Gold.PLP.part.buried>
-2.1686

> <Gold.PLP.part.nonpolar>
-36.1608

> <Gold.PLP.part.repulsive>
0.0972

> <Gold.PLP.ligand.clash>
0.0000

> <Gold.PLP.ligand.torsion>
0.2904

> <Gold.PLP.Chemscore.Hbond>
4.0000

> <Gold.PLP.Chemscore.CHOScore>
0.9455

> <Gold.PLP.Chemscore.Metal>
0.0000

> <Gold.Chemscore.Hbonds>
donor molecule, donor type, donor heavy atom, donor atom, acceptor molecule, acceptor atom, score
      L1  H     9    40       P1  8028  2.00
      L1  H    15    41       P1  7948  1.98
      L1  C    13    37       P1 10175  0.99

> <Gold.PLP.Chemscore.Internal.Correction>
0.0443

> <Gold.Rescore>
     Score         DG    S(hbond)    S(metal)    S(lipo)     H(rot)  DE(clash)    DE(int)     intcor
     19.51     -20.09       1.95        0.00     112.60       1.98       0.30       0.28       ----

> <Gold.Chemscore.Fitness>
19.5148

> <Gold.Chemscore.DG>
-20.0923

> <Gold.Chemscore.ZeroCoef>
-5.4800

> <Gold.Chemscore.Hbond>
1.9460

> <Gold.Chemscore.Metal>
0.0000

> <Gold.Chemscore.Lipo>
112.6046

> <Gold.Chemscore.Internal_Hbond>
0.0000

> <Gold.Chemscore.DEClash>
0.3004

> <Gold.Chemscore.DEInternal>
0.2772

> <Gold.Chemscore.Rot>
1.9774

> <Gold.Chemscore.Internal.Correction>
   9.000000E+99

> <Gold.Chemscore.Hbonds>
donor molecule, donor type, donor heavy atom, donor atom, acceptor molecule, acceptor atom, score
      L1  H     9    40       P1  8028  0.99
      L1  H    15    41       P1  7948  0.93

> <Gold.Chemscore.Hbond.Weighted>
-6.4998

> <Gold.Chemscore.Metal.Weighted>
-0.0000

> <Gold.Chemscore.Lipo.Weighted>
-13.1747

> <Gold.Chemscore.Internal_Hbond.Weighted>
0.0000

> <Gold.Chemscore.DEClash.Weighted>
0.3004

> <Gold.Chemscore.DEInternal.Weighted>
0.2772

> <Gold.Chemscore.Rot.Weighted>
5.0622

> <Gold.Chemscore.Internal.Correction.Weighted>
   9.000000E+99

> <Gold.Protein.RotatedTorsions>
[ 6907 6896 6895 6894 ] final   49.27 input  -60.11 | X-H torsion
[ 7974 7965 7964 7962 ] final   52.46 input  175.53 | X-H torsion
[ 8008 7997 7996 7995 ] final   24.71 input   59.86 | X-H torsion
[ 10167 10162 10161 10158 ] final   48.96 input  -65.29 | X-H torsion
[ 10718 10713 10712 10709 ] final  -33.89 input   66.30 | X-H torsion
[ 10763 10752 10751 10750 ] final  -29.52 input  -60.55 | X-H torsion
[ 11005 11000 10999 10996 ] final  -15.46 input  -57.11 | X-H torsion

> <Gold.Protein.ActiveResidues>
 VAL166  LYS551  ARG553  GLY616  TRP617  ASP618  TYR619  PRO620  LYS621  CYS622 
 ASP623  PHE694  ASN695  SER759  ASP760  ASP761  ALA762  ILE779  LEU786  VAL792 
 PHE793  MET794  SER795  GLU796  ALA797  LYS798  CYS799  TRP800  GLU811  SER814 

> <Gold.Protein.RotatedAtoms>
  152.2889  134.7744  160.0381 H   0  0  0  0  0  0  0  0  0  0  0  0  # atno 6907 bound_to 6896
  151.8298  133.3401  159.3618 H   0  0  0  0  0  0  0  0  0  0  0  0  # atno 6908 bound_to 6896
  150.7221  134.5423  159.5797 H   0  0  0  0  0  0  0  0  0  0  0  0  # atno 6909 bound_to 6896
  145.9811  139.4243  143.0131 H   0  0  0  0  0  0  0  0  0  0  0  0  # atno 7974 bound_to 7965
  155.0006  140.3125  155.4869 H   0  0  0  0  0  0  0  0  0  0  0  0  # atno 8008 bound_to 7997
  156.2925  140.2232  156.5056 H   0  0  0  0  0  0  0  0  0  0  0  0  # atno 8009 bound_to 7997
  154.7622  140.0458  157.0971 H   0  0  0  0  0  0  0  0  0  0  0  0  # atno 8010 bound_to 7997
  140.2879  144.3081  150.6248 H   0  0  0  0  0  0  0  0  0  0  0  0  # atno 10167 bound_to 10162
  156.3571  130.4318  149.7655 H   0  0  0  0  0  0  0  0  0  0  0  0  # atno 10718 bound_to 10713
  153.7659  135.6916  153.4916 H   0  0  0  0  0  0  0  0  0  0  0  0  # atno 10763 bound_to 10752
  153.1907  135.4472  155.0144 H   0  0  0  0  0  0  0  0  0  0  0  0  # atno 10764 bound_to 10752
  154.8136  135.3388  154.7172 H   0  0  0  0  0  0  0  0  0  0  0  0  # atno 10765 bound_to 10752
  140.7968  133.8245  155.9432 H   0  0  0  0  0  0  0  0  0  0  0  0  # atno 11005 bound_to 11000
  145.7768  140.9873  143.1120 LP  0  0  0  0  0  0  0  0  0  0  0  0  # atno 17320 bound_to 7965
  144.6862  139.9515  143.7478 LP  0  0  0  0  0  0  0  0  0  0  0  0  # atno 17321 bound_to 7965
  140.5757  143.2176  151.7519 LP  0  0  0  0  0  0  0  0  0  0  0  0  # atno 17342 bound_to 10162
  139.4945  144.4152  152.0037 LP  0  0  0  0  0  0  0  0  0  0  0  0  # atno 17343 bound_to 10162
  156.4833  130.8051  151.3064 LP  0  0  0  0  0  0  0  0  0  0  0  0  # atno 17370 bound_to 10713
  157.7469  130.9999  150.2905 LP  0  0  0  0  0  0  0  0  0  0  0  0  # atno 17371 bound_to 10713
  140.9334  134.1992  157.4848 LP  0  0  0  0  0  0  0  0  0  0  0  0  # atno 17394 bound_to 11000
  139.8725  134.9842  156.5231 LP  0  0  0  0  0  0  0  0  0  0  0  0  # atno 17395 bound_to 11000

$$$$
