AV-unprocessed.smi:1662|AV-procd|sdf|6661|dock9
  -GOLD-   22720 7373D 1   1.00000     0.00000
 Structure written by MMmdl.
 47 48  0  0  0  0  0  0  0  0  1 V2000
  146.6283  141.9982  158.1479 C   0  0  0  0  0  0  0  0  0  0  0  0
  147.5857  140.8387  158.0799 C   0  0  0  0  0  0  0  0  0  0  0  0
  147.1246  139.6838  158.4325 N   0  0  0  0  0  0  0  0  0  0  0  0
  147.9193  138.5539  158.4099 N   0  0  0  0  0  0  0  0  0  0  0  0
  147.2385  137.3332  158.8667 C   0  0  0  0  0  0  0  0  0  0  0  0
  147.7614  136.8065  160.2115 C   0  0  0  0  0  0  0  0  0  0  0  0
  148.9021  137.0710  160.5939 O   0  0  0  0  0  0  0  0  0  0  0  0
  146.8923  136.0763  160.9276 N   0  0  0  0  0  0  0  0  0  0  0  0
  147.1422  135.4682  162.2368 C   0  0  2  0  0  0  0  0  0  0  0  0
  147.6628  134.0311  162.0517 C   0  0  0  0  0  0  0  0  0  0  0  0
  146.5700  133.0891  161.5259 C   0  0  0  0  0  0  0  0  0  0  0  0
  145.3360  133.1158  162.4374 C   0  0  0  0  0  0  0  0  0  0  0  0
  144.7757  134.5419  162.6187 C   0  0  1  0  0  0  0  0  0  0  0  0
  143.5366  134.4994  163.5311 C   0  0  0  0  0  0  0  0  0  0  0  0
  145.8805  135.5029  163.1410 C   0  0  2  0  0  0  0  0  0  0  0  0
  145.3778  136.9449  163.3564 C   0  0  0  0  0  0  0  0  0  0  0  0
  149.2250  138.5308  158.0149 C   0  0  0  0  0  0  0  0  0  0  0  0
  149.8950  137.4969  158.0028 O   0  0  0  0  0  0  0  0  0  0  0  0
  149.7407  139.8422  157.6161 C   0  0  0  0  0  0  0  0  0  0  0  0
  151.1051  139.8632  157.1973 C   0  0  0  0  0  0  0  0  0  0  0  0
  152.2095  139.8608  156.8497 N   0  0  0  0  0  0  0  0  0  0  0  0
  148.9733  140.9607  157.6441 C   0  0  0  0  0  0  0  0  0  0  0  0
  149.4624  142.3455  157.2424 C   0  0  0  0  0  0  0  0  0  0  0  0
  146.5416  142.4871  157.1775 H   0  0  0  0  0  0  0  0  0  0  0  0
  146.9692  142.7387  158.8715 H   0  0  0  0  0  0  0  0  0  0  0  0
  145.6275  141.6824  158.4467 H   0  0  0  0  0  0  0  0  0  0  0  0
  146.1675  137.5165  158.9700 H   0  0  0  0  0  0  0  0  0  0  0  0
  147.3279  136.5499  158.1114 H   0  0  0  0  0  0  0  0  0  0  0  0
  145.9766  135.9218  160.5317 H   0  0  0  0  0  0  0  0  0  0  0  0
  147.9319  136.0252  162.7440 H   0  0  0  0  0  0  0  0  0  0  0  0
  148.5206  134.0231  161.3777 H   0  0  0  0  0  0  0  0  0  0  0  0
  148.0269  133.6555  163.0090 H   0  0  0  0  0  0  0  0  0  0  0  0
  146.2853  133.3750  160.5128 H   0  0  0  0  0  0  0  0  0  0  0  0
  146.9589  132.0726  161.4598 H   0  0  0  0  0  0  0  0  0  0  0  0
  144.5679  132.4633  162.0212 H   0  0  0  0  0  0  0  0  0  0  0  0
  145.5981  132.6980  163.4107 H   0  0  0  0  0  0  0  0  0  0  0  0
  144.4459  134.8967  161.6411 H   0  0  0  0  0  0  0  0  0  0  0  0
  143.8046  134.2252  164.5519 H   0  0  0  0  0  0  0  0  0  0  0  0
  142.8117  133.7686  163.1718 H   0  0  0  0  0  0  0  0  0  0  0  0
  143.0250  135.4609  163.5645 H   0  0  0  0  0  0  0  0  0  0  0  0
  146.1899  135.1350  164.1207 H   0  0  0  0  0  0  0  0  0  0  0  0
  144.9264  137.3540  162.4522 H   0  0  0  0  0  0  0  0  0  0  0  0
  146.1970  137.6037  163.6462 H   0  0  0  0  0  0  0  0  0  0  0  0
  144.6347  136.9977  164.1514 H   0  0  0  0  0  0  0  0  0  0  0  0
  150.5275  142.3564  157.0125 H   0  0  0  0  0  0  0  0  0  0  0  0
  149.2985  143.0612  158.0488 H   0  0  0  0  0  0  0  0  0  0  0  0
  148.9298  142.6951  156.3573 H   0  0  0  0  0  0  0  0  0  0  0  0
  1  2  1  0  0  0  0
  1 24  1  0  0  0  0
  1 25  1  0  0  0  0
  1 26  1  0  0  0  0
  2 22  1  0  0  0  0
  2  3  2  0  0  0  0
  3  4  1  0  0  0  0
  4  5  1  0  0  0  0
  4 17  1  0  0  0  0
  5  6  1  0  0  0  0
  5 27  1  0  0  0  0
  5 28  1  0  0  0  0
  6  7  2  0  0  0  0
  6  8  1  0  0  0  0
  8  9  1  0  0  0  0
  8 29  1  0  0  0  0
  9 15  1  0  0  0  0
  9 10  1  0  0  0  0
  9 30  1  0  0  0  0
 10 11  1  0  0  0  0
 10 31  1  0  0  0  0
 10 32  1  0  0  0  0
 11 12  1  0  0  0  0
 11 33  1  0  0  0  0
 11 34  1  0  0  0  0
 12 13  1  0  0  0  0
 12 35  1  0  0  0  0
 12 36  1  0  0  0  0
 13 14  1  0  0  0  0
 13 15  1  0  0  0  0
 13 37  1  0  0  0  0
 14 38  1  0  0  0  0
 14 39  1  0  0  0  0
 14 40  1  0  0  0  0
 15 16  1  0  0  0  0
 15 41  1  0  0  0  0
 16 42  1  0  0  0  0
 16 43  1  0  0  0  0
 16 44  1  0  0  0  0
 17 18  2  0  0  0  0
 17 19  1  0  0  0  0
 19 20  1  0  0  0  0
 19 22  2  0  0  0  0
 20 21  3  0  0  0  0
 22 23  1  0  0  0  0
 23 45  1  0  0  0  0
 23 46  1  0  0  0  0
 23 47  1  0  0  0  0
M  END
> <s_m_source_file>
AV-unprocessed.smi

> <i_m_source_file_index>
1662

> <i_lp_mmshare_version>
43012

> <i_f3d_flags>
0

> <s_epik_input>
TiNDYyhjMVtDSDNdKWMoPU8pbihuYzFbQ0gzXSlbQ0gyXUMoPU8pW05IXVtDQEBIXTJbQ0gyXVtDSDJdW0NIMl1bQ0BASF0oW0NIM10pW0NASF0yW0NIM10=

> <s_epik_cmdline>
J2VwaWtfcHl0aG9uJywgJy1waCcsICc3LjAnLCAnLXRuJywgJzgnLCAnLW1hJywgJzIwMCcsICctbWV0YWxfYmluZGluZycsICctaW1hZScsICc8aW5maWxlLm1hZT4nLCAnLW9tYWUnLCAnPG91dGZpbGUubWFlPic=

> <r_lp_tautomer_probability>
1

> <r_epik_Ionization_Penalty>
1.90709e-08

> <r_epik_Ionization_Penalty_Charging>
2.37982e-11

> <r_epik_Ionization_Penalty_Neutral>
1.90471e-08

> <r_epik_State_Penalty>
-0

> <r_epik_Charging_Adjusted_Penalty>
2.37982e-11

> <i_epik_Tot_Q>
0

> <i_epik_Tot_abs_Q>
0

> <r_epik_Metal_State_Penalty>
-0

> <b_epik_Metal_Only>
0

> <s_lp_Force_Field>
OPLS_2005

> <r_lp_Energy>
26.4332

> <b_lp_Chiralities_Consistent>
1

> <s_lp_Variant>
AV-unprocessed.smi:1662-5

> <Gold.Version>
5.8.1

> <Gold.Id.Protein>
6NUR|6NUR_protein|mol2

> <Gold.PLP.Fitness>
43.9171

> <Gold.PLP.PLP>
-36.8278

> <Gold.PLP.part.hbond>
-3.1009

> <Gold.PLP.part.metal>
0.0000

> <Gold.PLP.part.buried>
-5.6452

> <Gold.PLP.part.nonpolar>
-27.9339

> <Gold.PLP.part.repulsive>
0.1007

> <Gold.PLP.ligand.clash>
0.0000

> <Gold.PLP.ligand.torsion>
0.7810

> <Gold.PLP.Chemscore.Hbond>
2.8800

> <Gold.PLP.Chemscore.CHOScore>
0.0000

> <Gold.PLP.Chemscore.Metal>
0.0000

> <Gold.Chemscore.Hbonds>
donor molecule, donor type, donor heavy atom, donor atom, acceptor molecule, acceptor atom, score
      P1  H  6931  6943       L1     7  0.74
      P1  H  7997  8008       L1    21  0.14

> <Gold.PLP.Chemscore.Internal.Correction>
0.0113

> <Gold.Rescore>
     Score         DG    S(hbond)    S(metal)    S(lipo)     H(rot)  DE(clash)    DE(int)     intcor
     18.00     -19.41       2.95        0.00      66.52       1.45       0.73       0.68       ----

> <Gold.Chemscore.Fitness>
18.0046

> <Gold.Chemscore.DG>
-19.4138

> <Gold.Chemscore.ZeroCoef>
-5.4800

> <Gold.Chemscore.Hbond>
2.9531

> <Gold.Chemscore.Metal>
0.0000

> <Gold.Chemscore.Lipo>
66.5241

> <Gold.Chemscore.Internal_Hbond>
0.0000

> <Gold.Chemscore.DEClash>
0.7319

> <Gold.Chemscore.DEInternal>
0.6773

> <Gold.Chemscore.Rot>
1.4504

> <Gold.Chemscore.Internal.Correction>
   9.000000E+99

> <Gold.Chemscore.Hbonds>
donor molecule, donor type, donor heavy atom, donor atom, acceptor molecule, acceptor atom, score
      P1  H  6931  6943       L1     7  0.70
      P1  H  7997  8008       L1    21  0.15

> <Gold.Chemscore.Hbond.Weighted>
-9.8634

> <Gold.Chemscore.Metal.Weighted>
-0.0000

> <Gold.Chemscore.Lipo.Weighted>
-7.7833

> <Gold.Chemscore.Internal_Hbond.Weighted>
0.0000

> <Gold.Chemscore.DEClash.Weighted>
0.7319

> <Gold.Chemscore.DEInternal.Weighted>
0.6773

> <Gold.Chemscore.Rot.Weighted>
3.7129

> <Gold.Chemscore.Internal.Correction.Weighted>
   9.000000E+99

> <Gold.Protein.RotatedTorsions>
[ 6907 6896 6895 6894 ] final  -24.43 input  -60.11 | X-H torsion
[ 7974 7965 7964 7962 ] final   35.71 input  175.53 | X-H torsion
[ 8008 7997 7996 7995 ] final  -83.62 input   59.86 | X-H torsion
[ 10167 10162 10161 10158 ] final -126.97 input  -65.29 | X-H torsion
[ 10718 10713 10712 10709 ] final  101.55 input   66.30 | X-H torsion
[ 10763 10752 10751 10750 ] final   11.50 input  -60.55 | X-H torsion
[ 11005 11000 10999 10996 ] final   32.26 input  -57.11 | X-H torsion

> <Gold.Protein.ActiveResidues>
 VAL166  LYS551  ARG553  GLY616  TRP617  ASP618  TYR619  PRO620  LYS621  CYS622 
 ASP623  PHE694  ASN695  SER759  ASP760  ASP761  ALA762  ILE779  LEU786  VAL792 
 PHE793  MET794  SER795  GLU796  ALA797  LYS798  CYS799  TRP800  GLU811  SER814 

> <Gold.Protein.RotatedAtoms>
  151.1896  135.0396  159.8826 H   0  0  0  0  0  0  0  0  0  0  0  0  # atno 6907 bound_to 6896
  152.5440  134.0971  159.8312 H   0  0  0  0  0  0  0  0  0  0  0  0  # atno 6908 bound_to 6896
  151.1098  133.5134  159.2638 H   0  0  0  0  0  0  0  0  0  0  0  0  # atno 6909 bound_to 6896
  146.1264  139.6109  142.9256 H   0  0  0  0  0  0  0  0  0  0  0  0  # atno 7974 bound_to 7965
  154.6210  140.0616  156.9615 H   0  0  0  0  0  0  0  0  0  0  0  0  # atno 8008 bound_to 7997
  155.1818  140.3300  155.4355 H   0  0  0  0  0  0  0  0  0  0  0  0  # atno 8009 bound_to 7997
  156.2431  140.1896  156.6913 H   0  0  0  0  0  0  0  0  0  0  0  0  # atno 8010 bound_to 7997
  139.9658  143.5899  152.2430 H   0  0  0  0  0  0  0  0  0  0  0  0  # atno 10167 bound_to 10162
  157.6826  131.0729  150.5269 H   0  0  0  0  0  0  0  0  0  0  0  0  # atno 10718 bound_to 10713
  153.1920  135.6843  153.8341 H   0  0  0  0  0  0  0  0  0  0  0  0  # atno 10763 bound_to 10752
  153.7637  135.3206  155.3342 H   0  0  0  0  0  0  0  0  0  0  0  0  # atno 10764 bound_to 10752
  154.8123  135.4709  154.0647 H   0  0  0  0  0  0  0  0  0  0  0  0  # atno 10765 bound_to 10752
  140.2753  134.3035  155.7816 H   0  0  0  0  0  0  0  0  0  0  0  0  # atno 11005 bound_to 11000
  145.5357  141.0424  143.2358 LP  0  0  0  0  0  0  0  0  0  0  0  0  # atno 17320 bound_to 7965
  144.7646  139.6875  143.7220 LP  0  0  0  0  0  0  0  0  0  0  0  0  # atno 17321 bound_to 7965
  139.6519  144.7661  151.2132 LP  0  0  0  0  0  0  0  0  0  0  0  0  # atno 17342 bound_to 10162
  140.7538  143.6148  150.8570 LP  0  0  0  0  0  0  0  0  0  0  0  0  # atno 17343 bound_to 10162
  156.5581  130.4248  149.6076 LP  0  0  0  0  0  0  0  0  0  0  0  0  # atno 17370 bound_to 10713
  156.2845  130.7089  151.1922 LP  0  0  0  0  0  0  0  0  0  0  0  0  # atno 17371 bound_to 10713
  141.2171  133.7492  156.9397 LP  0  0  0  0  0  0  0  0  0  0  0  0  # atno 17394 bound_to 11000
  140.1334  134.9341  157.2369 LP  0  0  0  0  0  0  0  0  0  0  0  0  # atno 17395 bound_to 11000

$$$$
