AV-unprocessed.smi:984|AV-procd|sdf|4317|dock1
  -GOLD-   22720 2223D 1   1.00000     0.00000
 Structure written by MMmdl.
 34 34  0  0  0  0  0  0  0  0  1 V2000
  152.3667  144.0916  158.5031 C   0  0  0  0  0  0  0  0  0  0  0  0
  152.8117  143.7570  159.9303 C   0  0  0  0  0  0  0  0  0  0  0  0
  152.5826  142.2778  160.2905 C   0  0  0  0  0  0  0  0  0  0  0  0
  153.4392  141.2836  159.4827 C   0  0  0  0  0  0  0  0  0  0  0  0
  152.9796  139.9072  159.6418 N   0  0  0  0  0  0  0  0  0  0  0  0
  153.4470  138.8515  158.9582 C   0  0  0  0  0  0  0  0  0  0  0  0
  154.3806  138.9235  158.1585 O   0  0  0  0  0  0  0  0  0  0  0  0
  152.7495  137.5115  159.2079 C   0  0  0  0  0  0  0  0  0  0  0  0
  151.7751  137.2510  158.1546 N   0  0  0  0  0  0  0  0  0  0  0  0
  151.9037  136.3501  157.1676 C   0  0  0  0  0  0  0  0  0  0  0  0
  152.8185  135.5294  157.1073 O   0  0  0  0  0  0  0  0  0  0  0  0
  150.8495  136.4084  156.0618 C   0  0  0  0  0  0  0  0  0  0  0  0
  150.6879  137.7712  155.5829 N   0  0  0  0  0  0  0  0  0  0  0  0
  150.6212  138.2519  154.3394 C   0  0  0  0  0  0  0  0  0  0  0  0
  150.4975  139.5707  154.2811 N   0  0  0  0  0  0  0  0  0  0  0  0
  150.4926  139.8589  155.6167 C   0  0  0  0  0  0  0  0  0  0  0  0
  150.6042  138.8164  156.4403 N   0  0  0  0  0  0  0  0  0  0  0  0
  152.5365  145.1452  158.2807 H   0  0  0  0  0  0  0  0  0  0  0  0
  151.3044  143.8897  158.3635 H   0  0  0  0  0  0  0  0  0  0  0  0
  152.9203  143.5038  157.7705 H   0  0  0  0  0  0  0  0  0  0  0  0
  153.8672  144.0102  160.0328 H   0  0  0  0  0  0  0  0  0  0  0  0
  152.2722  144.3927  160.6333 H   0  0  0  0  0  0  0  0  0  0  0  0
  152.8001  142.1356  161.3497 H   0  0  0  0  0  0  0  0  0  0  0  0
  151.5272  142.0327  160.1651 H   0  0  0  0  0  0  0  0  0  0  0  0
  153.4666  141.5722  158.4307 H   0  0  0  0  0  0  0  0  0  0  0  0
  154.4702  141.3295  159.8338 H   0  0  0  0  0  0  0  0  0  0  0  0
  152.2179  139.7537  160.2867 H   0  0  0  0  0  0  0  0  0  0  0  0
  153.4944  136.7160  159.2600 H   0  0  0  0  0  0  0  0  0  0  0  0
  152.2314  137.5229  160.1675 H   0  0  0  0  0  0  0  0  0  0  0  0
  150.9815  137.8742  158.1140 H   0  0  0  0  0  0  0  0  0  0  0  0
  151.1453  135.7758  155.2237 H   0  0  0  0  0  0  0  0  0  0  0  0
  149.8955  136.0325  156.4349 H   0  0  0  0  0  0  0  0  0  0  0  0
  150.6745  137.6256  153.4609 H   0  0  0  0  0  0  0  0  0  0  0  0
  150.4074  140.8677  155.9930 H   0  0  0  0  0  0  0  0  0  0  0  0
  1  2  1  0  0  0  0
  1 18  1  0  0  0  0
  1 19  1  0  0  0  0
  1 20  1  0  0  0  0
  2  3  1  0  0  0  0
  2 21  1  0  0  0  0
  2 22  1  0  0  0  0
  3  4  1  0  0  0  0
  3 23  1  0  0  0  0
  3 24  1  0  0  0  0
  4  5  1  0  0  0  0
  4 25  1  0  0  0  0
  4 26  1  0  0  0  0
  5  6  1  0  0  0  0
  5 27  1  0  0  0  0
  6  7  2  0  0  0  0
  6  8  1  0  0  0  0
  8  9  1  0  0  0  0
  8 28  1  0  0  0  0
  8 29  1  0  0  0  0
  9 10  1  0  0  0  0
  9 30  1  0  0  0  0
 10 11  2  0  0  0  0
 10 12  1  0  0  0  0
 12 13  1  0  0  0  0
 12 31  1  0  0  0  0
 12 32  1  0  0  0  0
 13 17  1  0  0  0  0
 13 14  1  0  0  0  0
 14 15  2  0  0  0  0
 14 33  1  0  0  0  0
 15 16  1  0  0  0  0
 16 17  2  0  0  0  0
 16 34  1  0  0  0  0
M  END
> <s_m_source_file>
AV-unprocessed.smi

> <i_m_source_file_index>
984

> <i_lp_mmshare_version>
43012

> <i_f3d_flags>
0

> <s_epik_input>
W0NIM11bQ0gyXVtDSDJdW0NIMl1bTkhdQyg9TylbQ0gyXVtOSF1DKD1PKVtDSDJdbjFbY0hdbltjSF1uMQ==

> <s_epik_cmdline>
J2VwaWtfcHl0aG9uJywgJy1waCcsICc3LjAnLCAnLXRuJywgJzgnLCAnLW1hJywgJzIwMCcsICctbWV0YWxfYmluZGluZycsICctaW1hZScsICc8aW5maWxlLm1hZT4nLCAnLW9tYWUnLCAnPG91dGZpbGUubWFlPic=

> <r_lp_tautomer_probability>
1

> <r_epik_Ionization_Penalty>
7.27004e-06

> <r_epik_Ionization_Penalty_Charging>
0

> <r_epik_Ionization_Penalty_Neutral>
7.27004e-06

> <r_epik_State_Penalty>
-0

> <r_epik_Charging_Adjusted_Penalty>
0

> <i_epik_Tot_Q>
0

> <i_epik_Tot_abs_Q>
0

> <r_epik_Metal_State_Penalty>
-0

> <b_epik_Metal_Only>
0

> <s_lp_Force_Field>
OPLS_2005

> <r_lp_Energy>
2.39519

> <b_lp_Chiralities_Consistent>
1

> <s_lp_Variant>
AV-unprocessed.smi:984-1

> <Gold.Version>
5.8.1

> <Gold.Id.Protein>
6NUR|6NUR_protein|mol2

> <Gold.PLP.Fitness>
41.5834

> <Gold.PLP.PLP>
-30.5532

> <Gold.PLP.part.hbond>
-2.9073

> <Gold.PLP.part.metal>
0.0000

> <Gold.PLP.part.buried>
-3.6677

> <Gold.PLP.part.nonpolar>
-23.9295

> <Gold.PLP.part.repulsive>
0.3761

> <Gold.PLP.ligand.clash>
0.0000

> <Gold.PLP.ligand.torsion>
0.7303

> <Gold.PLP.Chemscore.Hbond>
3.0000

> <Gold.PLP.Chemscore.CHOScore>
1.1262

> <Gold.PLP.Chemscore.Metal>
0.0000

> <Gold.Chemscore.Hbonds>
donor molecule, donor type, donor heavy atom, donor atom, acceptor molecule, acceptor atom, score
      P1  H  7989  7998       L1    15  1.00
      P1  H  7997  8010       L1     7  0.96
      P1  H 10752 10765       L1    11  1.00
      L1  C    14    33       P1  7948  0.37
      L1  C    14    33       P1  7949  0.60

> <Gold.PLP.Chemscore.Internal.Correction>
0.1123

> <Gold.Rescore>
     Score         DG    S(hbond)    S(metal)    S(lipo)     H(rot)  DE(clash)    DE(int)     intcor
     10.01     -12.36       2.93        0.00      54.16       3.61       0.01       2.34       ----

> <Gold.Chemscore.Fitness>
10.0063

> <Gold.Chemscore.DG>
-12.3592

> <Gold.Chemscore.ZeroCoef>
-5.4800

> <Gold.Chemscore.Hbond>
2.9301

> <Gold.Chemscore.Metal>
0.0000

> <Gold.Chemscore.Lipo>
54.1631

> <Gold.Chemscore.Internal_Hbond>
0.0000

> <Gold.Chemscore.DEClash>
0.0126

> <Gold.Chemscore.DEInternal>
2.3403

> <Gold.Chemscore.Rot>
3.6111

> <Gold.Chemscore.Internal.Correction>
   9.000000E+99

> <Gold.Chemscore.Hbonds>
donor molecule, donor type, donor heavy atom, donor atom, acceptor molecule, acceptor atom, score
      P1  H  7989  7998       L1    15  0.55
      P1  H  7997  8010       L1     7  0.89
      P1  H 10752 10765       L1    11  0.82

> <Gold.Chemscore.Hbond.Weighted>
-9.7865

> <Gold.Chemscore.Metal.Weighted>
-0.0000

> <Gold.Chemscore.Lipo.Weighted>
-6.3371

> <Gold.Chemscore.Internal_Hbond.Weighted>
0.0000

> <Gold.Chemscore.DEClash.Weighted>
0.0126

> <Gold.Chemscore.DEInternal.Weighted>
2.3403

> <Gold.Chemscore.Rot.Weighted>
9.2444

> <Gold.Chemscore.Internal.Correction.Weighted>
   9.000000E+99

> <Gold.Protein.RotatedTorsions>
[ 6907 6896 6895 6894 ] final  118.59 input  -60.11 | X-H torsion
[ 7974 7965 7964 7962 ] final  -82.49 input  175.53 | X-H torsion
[ 8008 7997 7996 7995 ] final   22.42 input   59.86 | X-H torsion
[ 10167 10162 10161 10158 ] final -134.74 input  -65.29 | X-H torsion
[ 10718 10713 10712 10709 ] final  134.95 input   66.30 | X-H torsion
[ 10763 10752 10751 10750 ] final -122.80 input  -60.55 | X-H torsion
[ 11005 11000 10999 10996 ] final -142.32 input  -57.11 | X-H torsion

> <Gold.Protein.ActiveResidues>
 VAL166  LYS551  ARG553  GLY616  TRP617  ASP618  TYR619  PRO620  LYS621  CYS622 
 ASP623  PHE694  ASN695  SER759  ASP760  ASP761  ALA762  ILE779  LEU786  VAL792 
 PHE793  MET794  SER795  GLU796  ALA797  LYS798  CYS799  TRP800  GLU811  SER814 

> <Gold.Protein.RotatedAtoms>
  152.4532  133.7671  159.6778 H   0  0  0  0  0  0  0  0  0  0  0  0  # atno 6907 bound_to 6896
  150.8450  133.7865  159.3052 H   0  0  0  0  0  0  0  0  0  0  0  0  # atno 6908 bound_to 6896
  151.5478  135.1070  159.9994 H   0  0  0  0  0  0  0  0  0  0  0  0  # atno 6909 bound_to 6896
  145.5326  140.9519  143.1595 H   0  0  0  0  0  0  0  0  0  0  0  0  # atno 7974 bound_to 7965
  154.9654  140.3083  155.5012 H   0  0  0  0  0  0  0  0  0  0  0  0  # atno 8008 bound_to 7997
  156.2972  140.2293  156.4682 H   0  0  0  0  0  0  0  0  0  0  0  0  # atno 8009 bound_to 7997
  154.7926  140.0439  157.1200 H   0  0  0  0  0  0  0  0  0  0  0  0  # atno 8010 bound_to 7997
  139.8850  143.6793  152.2621 H   0  0  0  0  0  0  0  0  0  0  0  0  # atno 10167 bound_to 10162
  157.4620  131.1074  150.9908 H   0  0  0  0  0  0  0  0  0  0  0  0  # atno 10718 bound_to 10713
  154.8696  135.4120  154.2840 H   0  0  0  0  0  0  0  0  0  0  0  0  # atno 10763 bound_to 10752
  153.3727  135.7008  153.6631 H   0  0  0  0  0  0  0  0  0  0  0  0  # atno 10764 bound_to 10752
  153.5486  135.3633  155.2721 H   0  0  0  0  0  0  0  0  0  0  0  0  # atno 10765 bound_to 10752
  140.8237  134.2600  157.4889 H   0  0  0  0  0  0  0  0  0  0  0  0  # atno 11005 bound_to 11000
  144.7618  139.6938  143.7231 LP  0  0  0  0  0  0  0  0  0  0  0  0  # atno 17320 bound_to 7965
  146.2034  139.5343  142.9728 LP  0  0  0  0  0  0  0  0  0  0  0  0  # atno 17321 bound_to 7965
  139.7162  144.7611  151.1031 LP  0  0  0  0  0  0  0  0  0  0  0  0  # atno 17342 bound_to 10162
  140.7737  143.5267  150.9472 LP  0  0  0  0  0  0  0  0  0  0  0  0  # atno 17343 bound_to 10162
  157.0702  130.5861  149.5401 LP  0  0  0  0  0  0  0  0  0  0  0  0  # atno 17370 bound_to 10713
  156.0033  130.5116  150.7741 LP  0  0  0  0  0  0  0  0  0  0  0  0  # atno 17371 bound_to 10713
  139.8707  134.9549  156.4190 LP  0  0  0  0  0  0  0  0  0  0  0  0  # atno 17394 bound_to 11000
  140.9072  133.7737  155.9749 LP  0  0  0  0  0  0  0  0  0  0  0  0  # atno 17395 bound_to 11000

$$$$
