AV-unprocessed.smi:1762|AV-procd|sdf|7113|dock1
  -GOLD-   22720 8343D 1   1.00000     0.00000
 Structure written by MMmdl.
 53 54  0  0  0  0  0  0  0  0  2 V2000
  145.3923  136.6672  155.2877 C   0  0  0  0  0  0  0  0  0  0  0  0
  146.4146  137.3363  154.3623 C   0  0  2  0  0  0  0  0  0  0  0  0
  147.8111  137.4112  155.0029 C   0  0  0  0  0  0  0  0  0  0  0  0
  148.7709  138.1221  154.1114 N   0  3  2  0  0  0  0  0  0  0  0  0
  150.1852  138.0848  154.6213 C   0  0  1  0  0  0  0  0  0  0  0  0
  150.4816  139.3086  155.5153 C   0  0  0  0  0  0  0  0  0  0  0  0
  151.1488  140.2471  155.0777 O   0  0  0  0  0  0  0  0  0  0  0  0
  149.9805  139.2832  156.7597 N   0  0  0  0  0  0  0  0  0  0  0  0
  150.1381  140.3472  157.7425 C   0  0  0  0  0  0  0  0  0  0  0  0
  151.6215  140.6978  157.9228 C   0  0  0  0  0  0  0  0  0  0  0  0
  151.8216  142.1318  158.3760 C   0  0  0  0  0  0  0  0  0  0  0  0
  152.6018  142.4256  159.5146 C   0  0  0  0  0  0  0  0  0  0  0  0
  152.7624  143.7741  159.8880 C   0  0  0  0  0  0  0  0  0  0  0  0
  152.1419  144.7714  159.1112 C   0  0  0  0  0  0  0  0  0  0  0  0
  151.3842  144.3741  157.9915 C   0  0  0  0  0  0  0  0  0  0  0  0
  151.2231  143.0841  157.6256 N   0  0  0  0  0  0  0  0  0  0  0  0
  150.5709  136.7577  155.3598 C   0  0  0  0  0  0  0  0  0  0  0  0
  151.9129  136.8282  156.1186 C   0  0  0  0  0  0  0  0  0  0  0  0
  150.5483  135.5195  154.4416 C   0  0  0  0  0  0  0  0  0  0  0  0
  148.2326  139.4792  153.8148 C   0  0  0  0  0  0  0  0  0  0  0  0
  146.8078  139.4094  153.2300 C   0  0  1  0  0  0  0  0  0  0  0  0
  146.7687  138.9095  151.7743 C   0  0  0  0  0  0  0  0  0  0  0  0
  145.9538  138.6534  154.0844 O   0  0  0  0  0  0  0  0  0  0  0  0
  145.6908  135.6473  155.5313 H   0  0  0  0  0  0  0  0  0  0  0  0
  144.4110  136.6210  154.8148 H   0  0  0  0  0  0  0  0  0  0  0  0
  145.2853  137.2176  156.2230 H   0  0  0  0  0  0  0  0  0  0  0  0
  146.4641  136.7561  153.4408 H   0  0  0  0  0  0  0  0  0  0  0  0
  147.7585  137.9274  155.9632 H   0  0  0  0  0  0  0  0  0  0  0  0
  148.1415  136.3944  155.2135 H   0  0  0  0  0  0  0  0  0  0  0  0
  150.8272  138.1554  153.7410 H   0  0  0  0  0  0  0  0  0  0  0  0
  149.4431  138.4763  157.0427 H   0  0  0  0  0  0  0  0  0  0  0  0
  149.5812  141.2230  157.4068 H   0  0  0  0  0  0  0  0  0  0  0  0
  149.7142  140.0440  158.7015 H   0  0  0  0  0  0  0  0  0  0  0  0
  152.0767  140.0296  158.6557 H   0  0  0  0  0  0  0  0  0  0  0  0
  152.1599  140.5392  156.9874 H   0  0  0  0  0  0  0  0  0  0  0  0
  153.0684  141.6385  160.0887 H   0  0  0  0  0  0  0  0  0  0  0  0
  153.3519  144.0382  160.7535 H   0  0  0  0  0  0  0  0  0  0  0  0
  152.2442  145.8157  159.3671 H   0  0  0  0  0  0  0  0  0  0  0  0
  150.8947  145.1117  157.3728 H   0  0  0  0  0  0  0  0  0  0  0  0
  149.7926  136.5459  156.0913 H   0  0  0  0  0  0  0  0  0  0  0  0
  152.7584  136.9110  155.4355 H   0  0  0  0  0  0  0  0  0  0  0  0
  152.0672  135.9285  156.7147 H   0  0  0  0  0  0  0  0  0  0  0  0
  151.9557  137.6777  156.7995 H   0  0  0  0  0  0  0  0  0  0  0  0
  151.3582  135.5331  153.7119 H   0  0  0  0  0  0  0  0  0  0  0  0
  149.6062  135.4492  153.8972 H   0  0  0  0  0  0  0  0  0  0  0  0
  150.6565  134.6037  155.0235 H   0  0  0  0  0  0  0  0  0  0  0  0
  148.2286  140.0680  154.7335 H   0  0  0  0  0  0  0  0  0  0  0  0
  148.8484  140.0160  153.0963 H   0  0  0  0  0  0  0  0  0  0  0  0
  146.4036  140.4222  153.2235 H   0  0  0  0  0  0  0  0  0  0  0  0
  147.3165  139.5867  151.1185 H   0  0  0  0  0  0  0  0  0  0  0  0
  145.7430  138.8565  151.4089 H   0  0  0  0  0  0  0  0  0  0  0  0
  147.2161  137.9221  151.6620 H   0  0  0  0  0  0  0  0  0  0  0  0
  148.7808  137.6209  153.2343 H   0  0  0  0  0  0  0  0  0  0  0  0
  1  2  1  0  0  0  0
  1 24  1  0  0  0  0
  1 25  1  0  0  0  0
  1 26  1  0  0  0  0
  2 23  1  0  0  0  0
  2  3  1  0  0  0  0
  2 27  1  0  0  0  0
  3  4  1  0  0  0  0
  3 28  1  0  0  0  0
  3 29  1  0  0  0  0
  4  5  1  0  0  0  0
  4 20  1  0  0  0  0
  4 53  1  0  0  0  0
  5  6  1  0  0  0  0
  5 17  1  0  0  0  0
  5 30  1  0  0  0  0
  6  7  2  0  0  0  0
  6  8  1  0  0  0  0
  8  9  1  0  0  0  0
  8 31  1  0  0  0  0
  9 10  1  0  0  0  0
  9 32  1  0  0  0  0
  9 33  1  0  0  0  0
 10 11  1  0  0  0  0
 10 34  1  0  0  0  0
 10 35  1  0  0  0  0
 11 16  1  0  0  0  0
 11 12  2  0  0  0  0
 12 13  1  0  0  0  0
 12 36  1  0  0  0  0
 13 14  2  0  0  0  0
 13 37  1  0  0  0  0
 14 15  1  0  0  0  0
 14 38  1  0  0  0  0
 15 16  2  0  0  0  0
 15 39  1  0  0  0  0
 17 18  1  0  0  0  0
 17 19  1  0  0  0  0
 17 40  1  0  0  0  0
 18 41  1  0  0  0  0
 18 42  1  0  0  0  0
 18 43  1  0  0  0  0
 19 44  1  0  0  0  0
 19 45  1  0  0  0  0
 19 46  1  0  0  0  0
 20 21  1  0  0  0  0
 20 47  1  0  0  0  0
 20 48  1  0  0  0  0
 21 22  1  0  0  0  0
 21 23  1  0  0  0  0
 21 49  1  0  0  0  0
 22 50  1  0  0  0  0
 22 51  1  0  0  0  0
 22 52  1  0  0  0  0
M  CHG  1   4   1
M  END
> <s_m_source_file>
AV-unprocessed.smi

> <i_m_source_file_index>
1762

> <i_lp_mmshare_version>
43012

> <i_f3d_flags>
0

> <s_epik_input>
W0NIM11bQ0BASF0xW0NIMl1OKFtDSDJdW0NASF0oTzEpW0NIM10pW0NAQEhdKFtDSF0oW0NIM10pW0NIM10pQyg9TylbTkhdW0NIMl1bQ0gyXWMyW2NIXVtjSF1bY0hdW2NIXW4y

> <s_epik_cmdline>
J2VwaWtfcHl0aG9uJywgJy1waCcsICc3LjAnLCAnLXRuJywgJzgnLCAnLW1hJywgJzIwMCcsICctbWV0YWxfYmluZGluZycsICctaW1hZScsICc8aW5maWxlLm1hZT4nLCAnLW9tYWUnLCAnPG91dGZpbGUubWFlPic=

> <r_epik_Ionization_Penalty>
2.27005

> <r_epik_Ionization_Penalty_Charging>
2.24983

> <r_epik_Ionization_Penalty_Neutral>
0.0202209

> <r_epik_State_Penalty>
2.40228

> <r_epik_Charging_Adjusted_Penalty>
4.65211

> <i_epik_Tot_Q>
1

> <i_epik_Tot_abs_Q>
1

> <r_epik_Metal_State_Penalty>
2.40762

> <b_epik_Metal_Only>
0

> <s_lp_Force_Field>
OPLS_2005

> <r_lp_Energy>
25.3597

> <b_lp_Chiralities_Consistent>
1

> <s_lp_Variant>
AV-unprocessed.smi:1762-15

> <Gold.Version>
5.8.1

> <Gold.Id.Protein>
6NUR|6NUR_protein|mol2

> <Gold.PLP.Fitness>
49.1860

> <Gold.PLP.PLP>
-39.5647

> <Gold.PLP.part.hbond>
-2.0000

> <Gold.PLP.part.metal>
0.0000

> <Gold.PLP.part.buried>
-2.3832

> <Gold.PLP.part.nonpolar>
-35.3551

> <Gold.PLP.part.repulsive>
0.2921

> <Gold.PLP.ligand.clash>
0.0000

> <Gold.PLP.ligand.torsion>
1.2096

> <Gold.PLP.Chemscore.Hbond>
3.0000

> <Gold.PLP.Chemscore.CHOScore>
0.9412

> <Gold.PLP.Chemscore.Metal>
0.0000

> <Gold.Chemscore.Hbonds>
donor molecule, donor type, donor heavy atom, donor atom, acceptor molecule, acceptor atom, score
      L1  H     4    53       P1  7948  2.00
      P1  H  7989  7998       L1     7  1.00
      L1  C    15    39       P1  8028  0.76

> <Gold.PLP.Chemscore.Internal.Correction>
0.2169

> <Gold.Rescore>
     Score         DG    S(hbond)    S(metal)    S(lipo)     H(rot)  DE(clash)    DE(int)     intcor
     19.08     -21.40       1.99        0.00     115.59       1.66       0.03       2.29       ----

> <Gold.Chemscore.Fitness>
19.0832

> <Gold.Chemscore.DG>
-21.3973

> <Gold.Chemscore.ZeroCoef>
-5.4800

> <Gold.Chemscore.Hbond>
1.9917

> <Gold.Chemscore.Metal>
0.0000

> <Gold.Chemscore.Lipo>
115.5873

> <Gold.Chemscore.Internal_Hbond>
0.0000

> <Gold.Chemscore.DEClash>
0.0262

> <Gold.Chemscore.DEInternal>
2.2879

> <Gold.Chemscore.Rot>
1.6635

> <Gold.Chemscore.Internal.Correction>
   9.000000E+99

> <Gold.Chemscore.Hbonds>
donor molecule, donor type, donor heavy atom, donor atom, acceptor molecule, acceptor atom, score
      L1  H     4    53       P1  7948  0.99
      P1  H  7989  7998       L1     7  0.99

> <Gold.Chemscore.Hbond.Weighted>
-6.6522

> <Gold.Chemscore.Metal.Weighted>
-0.0000

> <Gold.Chemscore.Lipo.Weighted>
-13.5237

> <Gold.Chemscore.Internal_Hbond.Weighted>
0.0000

> <Gold.Chemscore.DEClash.Weighted>
0.0262

> <Gold.Chemscore.DEInternal.Weighted>
2.2879

> <Gold.Chemscore.Rot.Weighted>
4.2586

> <Gold.Chemscore.Internal.Correction.Weighted>
   9.000000E+99

> <Gold.Protein.RotatedTorsions>
[ 6907 6896 6895 6894 ] final  117.69 input  -60.11 | X-H torsion
[ 7974 7965 7964 7962 ] final  128.44 input  175.53 | X-H torsion
[ 8008 7997 7996 7995 ] final -158.37 input   59.86 | X-H torsion
[ 10167 10162 10161 10158 ] final  108.13 input  -65.29 | X-H torsion
[ 10718 10713 10712 10709 ] final  141.70 input   66.30 | X-H torsion
[ 10763 10752 10751 10750 ] final  120.67 input  -60.55 | X-H torsion
[ 11005 11000 10999 10996 ] final   72.42 input  -57.11 | X-H torsion

> <Gold.Protein.ActiveResidues>
 VAL166  LYS551  ARG553  GLY616  TRP617  ASP618  TYR619  PRO620  LYS621  CYS622 
 ASP623  PHE694  ASN695  SER759  ASP760  ASP761  ALA762  ILE779  LEU786  VAL792 
 PHE793  MET794  SER795  GLU796  ALA797  LYS798  CYS799  TRP800  GLU811  SER814 

> <Gold.Protein.RotatedAtoms>
  152.4594  133.7791  159.6840 H   0  0  0  0  0  0  0  0  0  0  0  0  # atno 6907 bound_to 6896
  150.8533  133.7744  159.3024 H   0  0  0  0  0  0  0  0  0  0  0  0  # atno 6908 bound_to 6896
  151.5333  135.1071  159.9960 H   0  0  0  0  0  0  0  0  0  0  0  0  # atno 6909 bound_to 6896
  145.0396  139.3975  143.5109 H   0  0  0  0  0  0  0  0  0  0  0  0  # atno 7974 bound_to 7965
  155.7465  140.0821  157.2221 H   0  0  0  0  0  0  0  0  0  0  0  0  # atno 8008 bound_to 7997
  154.4016  140.1568  156.2731 H   0  0  0  0  0  0  0  0  0  0  0  0  # atno 8009 bound_to 7997
  155.8971  140.3412  155.6001 H   0  0  0  0  0  0  0  0  0  0  0  0  # atno 8010 bound_to 7997
  139.6871  144.7112  151.1413 H   0  0  0  0  0  0  0  0  0  0  0  0  # atno 10167 bound_to 10162
  157.3890  131.1002  151.0665 H   0  0  0  0  0  0  0  0  0  0  0  0  # atno 10718 bound_to 10713
  153.6021  135.3446  155.2949 H   0  0  0  0  0  0  0  0  0  0  0  0  # atno 10763 bound_to 10752
  154.8634  135.4230  154.2401 H   0  0  0  0  0  0  0  0  0  0  0  0  # atno 10764 bound_to 10752
  153.3232  135.7039  153.7084 H   0  0  0  0  0  0  0  0  0  0  0  0  # atno 10765 bound_to 10752
  139.9492  134.7258  156.0904 H   0  0  0  0  0  0  0  0  0  0  0  0  # atno 11005 bound_to 11000
  146.3508  139.9989  142.8678 LP  0  0  0  0  0  0  0  0  0  0  0  0  # atno 17320 bound_to 7965
  145.1665  140.9699  143.4346 LP  0  0  0  0  0  0  0  0  0  0  0  0  # atno 17321 bound_to 7965
  140.7671  143.5613  150.9095 LP  0  0  0  0  0  0  0  0  0  0  0  0  # atno 17342 bound_to 10162
  139.9289  143.6517  152.3081 LP  0  0  0  0  0  0  0  0  0  0  0  0  # atno 17343 bound_to 10162
  157.1706  130.6266  149.5639 LP  0  0  0  0  0  0  0  0  0  0  0  0  # atno 17370 bound_to 10713
  155.9793  130.4786  150.6710 LP  0  0  0  0  0  0  0  0  0  0  0  0  # atno 17371 bound_to 10713
  141.1150  133.6630  156.3072 LP  0  0  0  0  0  0  0  0  0  0  0  0  # atno 17394 bound_to 11000
  140.5761  134.5792  157.5469 LP  0  0  0  0  0  0  0  0  0  0  0  0  # atno 17395 bound_to 11000

$$$$
