AV-unprocessed.smi:3314|AV-procd|sdf|12748|dock2
  -GOLD-   2272019 83D 1   1.00000     0.00000
 Structure written by MMmdl.
 37 38  0  0  0  0  0  0  0  0  1 V2000
  152.2478  144.1009  161.5958 C   0  0  0  0  0  0  0  0  0  0  0  0
  152.5015  142.9239  160.6758 C   0  0  0  0  0  0  0  0  0  0  0  0
  153.4783  141.9091  161.0325 C   0  0  0  0  0  0  0  0  0  0  0  0
  153.6872  140.8720  160.2038 C   0  0  0  0  0  0  0  0  0  0  0  0
  154.6800  139.7626  160.4800 C   0  0  0  0  0  0  0  0  0  0  0  0
  152.9822  140.7580  159.0122 N   0  0  0  0  0  0  0  0  0  0  0  0
  152.0244  141.6981  158.5936 C   0  0  0  0  0  0  0  0  0  0  0  0
  151.3436  141.6401  157.4857 N   0  0  0  0  0  0  0  0  0  0  0  0
  151.4870  140.6019  156.5681 C   0  0  0  0  0  0  0  0  0  0  0  0
  152.4902  139.9392  156.2881 O   0  0  0  0  0  0  0  0  0  0  0  0
  150.1748  140.2993  155.8344 C   0  0  1  0  0  0  0  0  0  0  0  0
  149.0744  141.3105  156.2208 C   0  0  0  0  0  0  0  0  0  0  0  0
  147.8479  141.0921  155.4638 N   0  0  0  0  0  0  0  0  0  0  0  0
  146.8149  142.0506  155.8260 C   0  0  0  0  0  0  0  0  0  0  0  0
  148.1394  141.1294  154.0368 C   0  0  0  0  0  0  0  0  0  0  0  0
  149.2363  140.1208  153.6554 C   0  0  0  0  0  0  0  0  0  0  0  0
  150.4060  140.3745  154.4276 O   0  0  0  0  0  0  0  0  0  0  0  0
  151.8189  142.8085  159.5118 C   0  0  0  0  0  0  0  0  0  0  0  0
  152.8729  144.0470  162.4875 H   0  0  0  0  0  0  0  0  0  0  0  0
  151.2047  144.1171  161.9125 H   0  0  0  0  0  0  0  0  0  0  0  0
  152.4670  145.0379  161.0830 H   0  0  0  0  0  0  0  0  0  0  0  0
  154.0324  141.9876  161.9568 H   0  0  0  0  0  0  0  0  0  0  0  0
  155.1821  139.9115  161.4364 H   0  0  0  0  0  0  0  0  0  0  0  0
  155.4397  139.7304  159.6985 H   0  0  0  0  0  0  0  0  0  0  0  0
  154.1731  138.7978  160.5086 H   0  0  0  0  0  0  0  0  0  0  0  0
  149.8497  139.2851  156.0767 H   0  0  0  0  0  0  0  0  0  0  0  0
  148.8634  141.2308  157.2883 H   0  0  0  0  0  0  0  0  0  0  0  0
  149.4351  142.3265  156.0506 H   0  0  0  0  0  0  0  0  0  0  0  0
  145.8967  141.8576  155.2703 H   0  0  0  0  0  0  0  0  0  0  0  0
  147.1322  143.0722  155.6125 H   0  0  0  0  0  0  0  0  0  0  0  0
  146.5804  141.9827  156.8890 H   0  0  0  0  0  0  0  0  0  0  0  0
  147.2341  140.9137  153.4682 H   0  0  0  0  0  0  0  0  0  0  0  0
  148.4569  142.1330  153.7496 H   0  0  0  0  0  0  0  0  0  0  0  0
  148.8967  139.0976  153.8236 H   0  0  0  0  0  0  0  0  0  0  0  0
  149.4815  140.2077  152.5969 H   0  0  0  0  0  0  0  0  0  0  0  0
  151.1005  143.5821  159.2801 H   0  0  0  0  0  0  0  0  0  0  0  0
  153.1949  139.9504  158.4437 H   0  0  0  0  0  0  0  0  0  0  0  0
  1  2  1  0  0  0  0
  1 19  1  0  0  0  0
  1 20  1  0  0  0  0
  1 21  1  0  0  0  0
  2 18  2  0  0  0  0
  2  3  1  0  0  0  0
  3  4  2  0  0  0  0
  3 22  1  0  0  0  0
  4  5  1  0  0  0  0
  4  6  1  0  0  0  0
  5 23  1  0  0  0  0
  5 24  1  0  0  0  0
  5 25  1  0  0  0  0
  6  7  1  0  0  0  0
  6 37  1  0  0  0  0
  7  8  2  0  0  0  0
  7 18  1  0  0  0  0
  8  9  1  0  0  0  0
  9 10  2  0  0  0  0
  9 11  1  0  0  0  0
 11 17  1  0  0  0  0
 11 12  1  0  0  0  0
 11 26  1  0  0  0  0
 12 13  1  0  0  0  0
 12 27  1  0  0  0  0
 12 28  1  0  0  0  0
 13 14  1  0  0  0  0
 13 15  1  0  0  0  0
 14 29  1  0  0  0  0
 14 30  1  0  0  0  0
 14 31  1  0  0  0  0
 15 16  1  0  0  0  0
 15 32  1  0  0  0  0
 15 33  1  0  0  0  0
 16 17  1  0  0  0  0
 16 34  1  0  0  0  0
 16 35  1  0  0  0  0
 18 36  1  0  0  0  0
M  END
> <s_m_source_file>
AV-unprocessed.smi

> <i_m_source_file_index>
3314

> <i_lp_mmshare_version>
43012

> <i_f3d_flags>
0

> <s_epik_input>
W0NIM11jMVtjSF1jKFtDSDNdKW5jKFtjSF0xKVtOSF1DKD1PKVtDQEBIXTJbQ0gyXU4oW0NIM10pW0NIMl1bQ0gyXU8y

> <s_epik_cmdline>
J2VwaWtfcHl0aG9uJywgJy1waCcsICc3LjAnLCAnLXRuJywgJzgnLCAnLW1hJywgJzIwMCcsICctbWV0YWxfYmluZGluZycsICctaW1hZScsICc8aW5maWxlLm1hZT4nLCAnLW9tYWUnLCAnPG91dGZpbGUubWFlPic=

> <r_epik_Ionization_Penalty>
1.13914

> <r_epik_Ionization_Penalty_Charging>
0.583937

> <r_epik_Ionization_Penalty_Neutral>
0.555199

> <r_epik_State_Penalty>
2.94598

> <r_epik_Charging_Adjusted_Penalty>
3.52991

> <i_epik_Tot_Q>
0

> <i_epik_Tot_abs_Q>
0

> <r_epik_Metal_State_Penalty>
2.95583

> <b_epik_Metal_Only>
1

> <s_lp_Force_Field>
OPLS_2005

> <r_lp_Energy>
39.2006

> <b_lp_Chiralities_Consistent>
1

> <s_lp_Variant>
AV-unprocessed.smi:3314-18

> <Gold.Version>
5.8.1

> <Gold.Id.Protein>
6NUR|6NUR_protein|mol2

> <Gold.PLP.Fitness>
39.5398

> <Gold.PLP.PLP>
-34.0729

> <Gold.PLP.part.hbond>
-2.0000

> <Gold.PLP.part.metal>
0.0000

> <Gold.PLP.part.buried>
0.0360

> <Gold.PLP.part.nonpolar>
-31.7071

> <Gold.PLP.part.repulsive>
0.3165

> <Gold.PLP.ligand.clash>
0.0000

> <Gold.PLP.ligand.torsion>
0.2666

> <Gold.PLP.Chemscore.Hbond>
2.0000

> <Gold.PLP.Chemscore.CHOScore>
0.0000

> <Gold.PLP.Chemscore.Metal>
0.0000

> <Gold.Chemscore.Hbonds>
donor molecule, donor type, donor heavy atom, donor atom, acceptor molecule, acceptor atom, score
      P1  H  7989  7998       L1    17  1.00
      P1  H  7997  8008       L1    10  1.00

> <Gold.PLP.Chemscore.Internal.Correction>
0.0002

> <Gold.Rescore>
     Score         DG    S(hbond)    S(metal)    S(lipo)     H(rot)  DE(clash)    DE(int)     intcor
     16.92     -19.96       1.85        0.00      92.76       1.00       1.47       1.56       ----

> <Gold.Chemscore.Fitness>
16.9192

> <Gold.Chemscore.DG>
-19.9561

> <Gold.Chemscore.ZeroCoef>
-5.4800

> <Gold.Chemscore.Hbond>
1.8513

> <Gold.Chemscore.Metal>
0.0000

> <Gold.Chemscore.Lipo>
92.7593

> <Gold.Chemscore.Internal_Hbond>
0.0000

> <Gold.Chemscore.DEClash>
1.4728

> <Gold.Chemscore.DEInternal>
1.5641

> <Gold.Chemscore.Rot>
1.0000

> <Gold.Chemscore.Internal.Correction>
   9.000000E+99

> <Gold.Chemscore.Hbonds>
donor molecule, donor type, donor heavy atom, donor atom, acceptor molecule, acceptor atom, score
      P1  H  7989  7998       L1    17  0.75
      P1  H  7997  8008       L1    10  0.98

> <Gold.Chemscore.Hbond.Weighted>
-6.1832

> <Gold.Chemscore.Metal.Weighted>
-0.0000

> <Gold.Chemscore.Lipo.Weighted>
-10.8528

> <Gold.Chemscore.Internal_Hbond.Weighted>
0.0000

> <Gold.Chemscore.DEClash.Weighted>
1.4728

> <Gold.Chemscore.DEInternal.Weighted>
1.5641

> <Gold.Chemscore.Rot.Weighted>
2.5600

> <Gold.Chemscore.Internal.Correction.Weighted>
   9.000000E+99

> <Gold.Protein.RotatedTorsions>
[ 6907 6896 6895 6894 ] final  -36.53 input  -60.11 | X-H torsion
[ 7974 7965 7964 7962 ] final  -68.32 input  175.53 | X-H torsion
[ 8008 7997 7996 7995 ] final  -30.75 input   59.86 | X-H torsion
[ 10167 10162 10161 10158 ] final  -86.99 input  -65.29 | X-H torsion
[ 10718 10713 10712 10709 ] final -159.00 input   66.30 | X-H torsion
[ 10763 10752 10751 10750 ] final  160.11 input  -60.55 | X-H torsion
[ 11005 11000 10999 10996 ] final   24.34 input  -57.11 | X-H torsion

> <Gold.Protein.ActiveResidues>
 VAL166  LYS551  ARG553  GLY616  TRP617  ASP618  TYR619  PRO620  LYS621  CYS622 
 ASP623  PHE694  ASN695  SER759  ASP760  ASP761  ALA762  ILE779  LEU786  VAL792 
 PHE793  MET794  SER795  GLU796  ALA797  LYS798  CYS799  TRP800  GLU811  SER814 

> <Gold.Protein.RotatedAtoms>
  151.0261  134.9505  159.8085 H   0  0  0  0  0  0  0  0  0  0  0  0  # atno 6907 bound_to 6896
  152.5335  134.2841  159.9028 H   0  0  0  0  0  0  0  0  0  0  0  0  # atno 6908 bound_to 6896
  151.2849  133.4150  159.2663 H   0  0  0  0  0  0  0  0  0  0  0  0  # atno 6909 bound_to 6896
  145.7180  140.9050  143.0645 H   0  0  0  0  0  0  0  0  0  0  0  0  # atno 7974 bound_to 7965
  154.4239  140.1783  156.1456 H   0  0  0  0  0  0  0  0  0  0  0  0  # atno 8008 bound_to 7997
  155.9956  140.3365  155.6771 H   0  0  0  0  0  0  0  0  0  0  0  0  # atno 8009 bound_to 7997
  155.6313  140.0670  157.2639 H   0  0  0  0  0  0  0  0  0  0  0  0  # atno 8010 bound_to 7997
  140.3888  143.2714  151.9291 H   0  0  0  0  0  0  0  0  0  0  0  0  # atno 10167 bound_to 10162
  156.5619  130.8651  151.2812 H   0  0  0  0  0  0  0  0  0  0  0  0  # atno 10718 bound_to 10713
  154.2424  135.2774  155.2849 H   0  0  0  0  0  0  0  0  0  0  0  0  # atno 10763 bound_to 10752
  154.5534  135.5668  153.6946 H   0  0  0  0  0  0  0  0  0  0  0  0  # atno 10764 bound_to 10752
  152.9997  135.6280  154.2568 H   0  0  0  0  0  0  0  0  0  0  0  0  # atno 10765 bound_to 10752
  140.3598  134.2138  155.7673 H   0  0  0  0  0  0  0  0  0  0  0  0  # atno 11005 bound_to 11000
  144.6924  139.9164  143.7466 LP  0  0  0  0  0  0  0  0  0  0  0  0  # atno 17320 bound_to 7965
  146.0652  139.3643  143.0557 LP  0  0  0  0  0  0  0  0  0  0  0  0  # atno 17321 bound_to 7965
  139.4790  144.5747  151.8030 LP  0  0  0  0  0  0  0  0  0  0  0  0  # atno 17342 bound_to 10162
  140.4861  144.1379  150.5941 LP  0  0  0  0  0  0  0  0  0  0  0  0  # atno 17343 bound_to 10162
  157.7366  130.9782  150.2149 LP  0  0  0  0  0  0  0  0  0  0  0  0  # atno 17370 bound_to 10713
  156.2791  130.3731  149.7953 LP  0  0  0  0  0  0  0  0  0  0  0  0  # atno 17371 bound_to 10713
  141.1987  133.8028  157.0569 LP  0  0  0  0  0  0  0  0  0  0  0  0  # atno 17394 bound_to 11000
  140.0636  134.9741  157.1347 LP  0  0  0  0  0  0  0  0  0  0  0  0  # atno 17395 bound_to 11000

$$$$
