AV-unprocessed.smi:1691|AV-procd|sdf|6777|dock3
  -GOLD-   22720 7533D 1   1.00000     0.00000
 Structure written by MMmdl.
 43 44  0  0  0  0  0  0  0  0  1 V2000
  146.2166  141.4608  155.2927 C   0  0  0  0  0  0  0  0  0  0  0  0
  146.3730  139.9553  155.5853 C   0  0  0  0  0  0  0  0  0  0  0  0
  146.4770  139.6925  157.0975 C   0  0  0  0  0  0  0  0  0  0  0  0
  147.4656  139.1899  154.7725 C   0  0  1  0  0  0  0  0  0  0  0  0
  147.2484  139.2333  153.2329 C   0  0  0  0  0  0  0  0  0  0  0  0
  147.1697  137.9051  152.6326 N   0  0  0  0  0  0  0  0  0  0  0  0
  146.0317  137.2745  152.3104 C   0  0  0  0  0  0  0  0  0  0  0  0
  144.9124  137.7526  152.4971 O   0  0  0  0  0  0  0  0  0  0  0  0
  146.2775  136.0728  151.7634 N   0  0  0  0  0  0  0  0  0  0  0  0
  145.3281  135.1319  151.2904 C   0  0  0  0  0  0  0  0  0  0  0  0
  145.4901  133.7209  151.3459 C   0  0  0  0  0  0  0  0  0  0  0  0
  144.4432  133.0932  150.8297 N   0  0  0  0  0  0  0  0  0  0  0  0
  143.6145  134.0900  150.4449 N   0  0  0  0  0  0  0  0  0  0  0  0
  144.1117  135.3478  150.7058 C   0  0  0  0  0  0  0  0  0  0  0  0
  148.8545  139.4388  155.2066 N   0  0  0  0  0  0  0  0  0  0  0  0
  149.2806  140.8375  155.1863 C   0  0  0  0  0  0  0  0  0  0  0  0
  150.7059  141.0054  155.7416 C   0  0  0  0  0  0  0  0  0  0  0  0
  151.6086  140.1828  155.0095 O   0  0  0  0  0  0  0  0  0  0  0  0
  151.2507  138.8053  155.0499 C   0  0  0  0  0  0  0  0  0  0  0  0
  149.8320  138.6268  154.4841 C   0  0  0  0  0  0  0  0  0  0  0  0
  142.7225  133.8980  150.0113 H   0  0  0  0  0  0  0  0  0  0  0  0
  147.0216  142.0565  155.7169 H   0  0  0  0  0  0  0  0  0  0  0  0
  145.2937  141.8340  155.7371 H   0  0  0  0  0  0  0  0  0  0  0  0
  146.1585  141.6728  154.2261 H   0  0  0  0  0  0  0  0  0  0  0  0
  145.4225  139.5117  155.2866 H   0  0  0  0  0  0  0  0  0  0  0  0
  147.3700  140.1514  157.5234 H   0  0  0  0  0  0  0  0  0  0  0  0
  146.5174  138.6237  157.3093 H   0  0  0  0  0  0  0  0  0  0  0  0
  145.6148  140.0992  157.6263 H   0  0  0  0  0  0  0  0  0  0  0  0
  147.2726  138.1516  155.0457 H   0  0  0  0  0  0  0  0  0  0  0  0
  146.3269  139.7600  152.9873 H   0  0  0  0  0  0  0  0  0  0  0  0
  148.0464  139.7874  152.7385 H   0  0  0  0  0  0  0  0  0  0  0  0
  148.0446  137.4383  152.4437 H   0  0  0  0  0  0  0  0  0  0  0  0
  147.2460  135.8033  151.6722 H   0  0  0  0  0  0  0  0  0  0  0  0
  146.3153  133.1435  151.7358 H   0  0  0  0  0  0  0  0  0  0  0  0
  143.5683  136.2473  150.4575 H   0  0  0  0  0  0  0  0  0  0  0  0
  149.2523  141.2246  154.1674 H   0  0  0  0  0  0  0  0  0  0  0  0
  148.6120  141.4550  155.7767 H   0  0  0  0  0  0  0  0  0  0  0  0
  151.0244  142.0447  155.6594 H   0  0  0  0  0  0  0  0  0  0  0  0
  150.7407  140.7425  156.7999 H   0  0  0  0  0  0  0  0  0  0  0  0
  151.9682  138.2328  154.4620 H   0  0  0  0  0  0  0  0  0  0  0  0
  151.3076  138.4364  156.0752 H   0  0  0  0  0  0  0  0  0  0  0  0
  149.5562  137.5732  154.5392 H   0  0  0  0  0  0  0  0  0  0  0  0
  149.8410  138.8941  153.4275 H   0  0  0  0  0  0  0  0  0  0  0  0
  1  2  1  0  0  0  0
  1 22  1  0  0  0  0
  1 23  1  0  0  0  0
  1 24  1  0  0  0  0
  2  3  1  0  0  0  0
  2  4  1  0  0  0  0
  2 25  1  0  0  0  0
  3 26  1  0  0  0  0
  3 27  1  0  0  0  0
  3 28  1  0  0  0  0
  4  5  1  0  0  0  0
  4 15  1  0  0  0  0
  4 29  1  0  0  0  0
  5  6  1  0  0  0  0
  5 30  1  0  0  0  0
  5 31  1  0  0  0  0
  6  7  1  0  0  0  0
  6 32  1  0  0  0  0
  7  8  2  0  0  0  0
  7  9  1  0  0  0  0
  9 10  1  0  0  0  0
  9 33  1  0  0  0  0
 10 14  2  0  0  0  0
 10 11  1  0  0  0  0
 11 12  2  0  0  0  0
 11 34  1  0  0  0  0
 12 13  1  0  0  0  0
 13 21  1  0  0  0  0
 13 14  1  0  0  0  0
 14 35  1  0  0  0  0
 15 20  1  0  0  0  0
 15 16  1  0  0  0  0
 16 17  1  0  0  0  0
 16 36  1  0  0  0  0
 16 37  1  0  0  0  0
 17 18  1  0  0  0  0
 17 38  1  0  0  0  0
 17 39  1  0  0  0  0
 18 19  1  0  0  0  0
 19 20  1  0  0  0  0
 19 40  1  0  0  0  0
 19 41  1  0  0  0  0
 20 42  1  0  0  0  0
 20 43  1  0  0  0  0
M  END
> <s_m_source_file>
AV-unprocessed.smi

> <i_m_source_file_index>
1691

> <i_lp_mmshare_version>
43012

> <i_f3d_flags>
0

> <s_epik_input>
W0NIMl0xW0NIMl1PW0NIMl1bQ0gyXU4xW0NASF0oW0NIXShbQ0gzXSlbQ0gzXSlbQ0gyXVtOSF1DKD1PKVtOSF1jMltjSF1uW25IXVtjSF0y

> <s_epik_cmdline>
J2VwaWtfcHl0aG9uJywgJy1waCcsICc3LjAnLCAnLXRuJywgJzgnLCAnLW1hJywgJzIwMCcsICctbWV0YWxfYmluZGluZycsICctaW1hZScsICc8aW5maWxlLm1hZT4nLCAnLW9tYWUnLCAnPG91dGZpbGUubWFlPic=

> <r_lp_tautomer_probability>
0.5

> <r_epik_Ionization_Penalty>
0.462189

> <r_epik_Ionization_Penalty_Charging>
0

> <r_epik_Ionization_Penalty_Neutral>
0.462189

> <r_epik_State_Penalty>
0.465733

> <r_epik_Charging_Adjusted_Penalty>
0.465733

> <i_epik_Tot_Q>
0

> <i_epik_Tot_abs_Q>
0

> <r_epik_Metal_State_Penalty>
0.465732

> <b_epik_Metal_Only>
0

> <s_lp_Force_Field>
OPLS_2005

> <r_lp_Energy>
41.1245

> <b_lp_Chiralities_Consistent>
1

> <s_lp_Variant>
AV-unprocessed.smi:1691-4

> <Gold.Version>
5.8.1

> <Gold.Id.Protein>
6NUR|6NUR_protein|mol2

> <Gold.PLP.Fitness>
40.7439

> <Gold.PLP.PLP>
-27.6293

> <Gold.PLP.part.hbond>
-4.0000

> <Gold.PLP.part.metal>
0.0000

> <Gold.PLP.part.buried>
-5.2108

> <Gold.PLP.part.nonpolar>
-21.0978

> <Gold.PLP.part.repulsive>
2.0996

> <Gold.PLP.ligand.clash>
0.0000

> <Gold.PLP.ligand.torsion>
1.2280

> <Gold.PLP.Chemscore.Hbond>
3.9920

> <Gold.PLP.Chemscore.CHOScore>
1.0000

> <Gold.PLP.Chemscore.Metal>
0.0000

> <Gold.Chemscore.Hbonds>
donor molecule, donor type, donor heavy atom, donor atom, acceptor molecule, acceptor atom, score
      L1  H     6    32       P1  7948  1.00
      L1  H     9    33       P1  7948  0.99
      L1  H    13    21       P1 10186  1.00
      P1  H  7989  7998       L1    18  0.99
      L1  C    14    35       P1 10171  1.00

> <Gold.PLP.Chemscore.Internal.Correction>
0.5947

> <Gold.Rescore>
     Score         DG    S(hbond)    S(metal)    S(lipo)     H(rot)  DE(clash)    DE(int)     intcor
     17.25     -18.64       3.41        0.00      54.36       1.79       0.13       1.26       ----

> <Gold.Chemscore.Fitness>
17.2456

> <Gold.Chemscore.DG>
-18.6371

> <Gold.Chemscore.ZeroCoef>
-5.4800

> <Gold.Chemscore.Hbond>
3.4064

> <Gold.Chemscore.Metal>
0.0000

> <Gold.Chemscore.Lipo>
54.3621

> <Gold.Chemscore.Internal_Hbond>
0.0000

> <Gold.Chemscore.DEClash>
0.1310

> <Gold.Chemscore.DEInternal>
1.2605

> <Gold.Chemscore.Rot>
1.7893

> <Gold.Chemscore.Internal.Correction>
   9.000000E+99

> <Gold.Chemscore.Hbonds>
donor molecule, donor type, donor heavy atom, donor atom, acceptor molecule, acceptor atom, score
      L1  H     6    32       P1  7948  0.96
      L1  H     9    33       P1  7948  0.94
      L1  H    13    21       P1 10186  0.94
      P1  H  7989  7998       L1    18  0.39

> <Gold.Chemscore.Hbond.Weighted>
-11.3773

> <Gold.Chemscore.Metal.Weighted>
-0.0000

> <Gold.Chemscore.Lipo.Weighted>
-6.3604

> <Gold.Chemscore.Internal_Hbond.Weighted>
0.0000

> <Gold.Chemscore.DEClash.Weighted>
0.1310

> <Gold.Chemscore.DEInternal.Weighted>
1.2605

> <Gold.Chemscore.Rot.Weighted>
4.5805

> <Gold.Chemscore.Internal.Correction.Weighted>
   9.000000E+99

> <Gold.Protein.RotatedTorsions>
[ 6907 6896 6895 6894 ] final  169.83 input  -60.11 | X-H torsion
[ 7974 7965 7964 7962 ] final  -14.80 input  175.53 | X-H torsion
[ 8008 7997 7996 7995 ] final  133.44 input   59.86 | X-H torsion
[ 10167 10162 10161 10158 ] final  -61.61 input  -65.29 | X-H torsion
[ 10718 10713 10712 10709 ] final  167.53 input   66.30 | X-H torsion
[ 10763 10752 10751 10750 ] final   99.77 input  -60.55 | X-H torsion
[ 11005 11000 10999 10996 ] final  175.98 input  -57.11 | X-H torsion

> <Gold.Protein.ActiveResidues>
 VAL166  LYS551  ARG553  GLY616  TRP617  ASP618  TYR619  PRO620  LYS621  CYS622 
 ASP623  PHE694  ASN695  SER759  ASP760  ASP761  ALA762  ILE779  LEU786  VAL792 
 PHE793  MET794  SER795  GLU796  ALA797  LYS798  CYS799  TRP800  GLU811  SER814 

> <Gold.Protein.RotatedAtoms>
  151.8257  133.3401  159.3597 H   0  0  0  0  0  0  0  0  0  0  0  0  # atno 6907 bound_to 6896
  150.7280  134.5531  159.5814 H   0  0  0  0  0  0  0  0  0  0  0  0  # atno 6908 bound_to 6896
  152.2973  134.7653  160.0416 H   0  0  0  0  0  0  0  0  0  0  0  0  # atno 6909 bound_to 6896
  146.2059  140.3401  142.8407 H   0  0  0  0  0  0  0  0  0  0  0  0  # atno 7974 bound_to 7965
  156.2992  140.2521  156.3254 H   0  0  0  0  0  0  0  0  0  0  0  0  # atno 8008 bound_to 7997
  154.9196  140.0401  157.2009 H   0  0  0  0  0  0  0  0  0  0  0  0  # atno 8009 bound_to 7997
  154.8324  140.2878  155.5717 H   0  0  0  0  0  0  0  0  0  0  0  0  # atno 8010 bound_to 7997
  140.5994  143.2358  151.5962 H   0  0  0  0  0  0  0  0  0  0  0  0  # atno 10167 bound_to 10162
  157.0501  131.0311  151.2683 H   0  0  0  0  0  0  0  0  0  0  0  0  # atno 10718 bound_to 10713
  153.3056  135.4102  155.1291 H   0  0  0  0  0  0  0  0  0  0  0  0  # atno 10763 bound_to 10752
  154.8562  135.3552  154.5793 H   0  0  0  0  0  0  0  0  0  0  0  0  # atno 10764 bound_to 10752
  153.6219  135.7064  153.5366 H   0  0  0  0  0  0  0  0  0  0  0  0  # atno 10765 bound_to 10752
  140.3681  134.7054  157.4375 H   0  0  0  0  0  0  0  0  0  0  0  0  # atno 11005 bound_to 11000
  144.8791  140.7376  143.5998 LP  0  0  0  0  0  0  0  0  0  0  0  0  # atno 17320 bound_to 7965
  145.3321  139.1756  143.4531 LP  0  0  0  0  0  0  0  0  0  0  0  0  # atno 17321 bound_to 7965
  139.5280  144.2999  152.1082 LP  0  0  0  0  0  0  0  0  0  0  0  0  # atno 17342 bound_to 10162
  140.2177  144.4498  150.6356 LP  0  0  0  0  0  0  0  0  0  0  0  0  # atno 17343 bound_to 10162
  157.5036  130.7895  149.7631 LP  0  0  0  0  0  0  0  0  0  0  0  0  # atno 17370 bound_to 10713
  156.0010  130.3880  150.2606 LP  0  0  0  0  0  0  0  0  0  0  0  0  # atno 17371 bound_to 10713
  140.0573  134.6045  155.8790 LP  0  0  0  0  0  0  0  0  0  0  0  0  # atno 17394 bound_to 11000
  141.1963  133.6591  156.5686 LP  0  0  0  0  0  0  0  0  0  0  0  0  # atno 17395 bound_to 11000

$$$$
