AV-unprocessed.smi:2175|AV-procd|sdf|8845|dock7
  -GOLD-   2272012 33D 1   1.00000     0.00000
 Structure written by MMmdl.
 33 34  0  0  0  0  0  0  0  0  2 V2000
  150.7586  142.7214  157.8484 C   0  0  0  0  0  0  0  0  0  0  0  0
  150.8230  141.5561  156.8845 C   0  0  0  0  0  0  0  0  0  0  0  0
  149.8550  141.3636  156.0721 N   0  0  0  0  0  0  0  0  0  0  0  0
  149.9104  140.2847  155.1738 C   0  0  0  0  0  0  0  0  0  0  0  0
  148.7204  140.1373  154.2416 C   0  0  0  0  0  0  0  0  0  0  0  0
  150.9778  139.4357  155.1548 C   0  0  0  0  0  0  0  0  0  0  0  0
  151.0873  138.2551  154.1901 C   0  0  0  0  0  0  0  0  0  0  0  0
  151.0586  136.8659  154.8322 C   0  0  0  0  0  0  0  0  0  0  0  0
  151.8186  136.5931  155.7614 O   0  0  0  0  0  0  0  0  0  0  0  0
  150.1696  135.9966  154.3284 N   0  0  0  0  0  0  0  0  0  0  0  0
  149.9699  134.6336  154.8024 C   0  0  0  0  0  0  0  0  0  0  0  0
  149.6900  133.6122  153.7164 C   0  0  0  0  0  0  0  0  0  0  0  0
  148.2745  133.2611  153.3223 C   0  0  0  0  0  0  0  0  0  0  0  0
  149.1205  132.2582  154.0697 C   0  0  0  0  0  0  0  0  0  0  0  0
  152.0702  139.6889  156.1119 C   0  0  0  0  0  0  0  0  0  0  0  0
  153.0506  138.9463  156.1468 O   0  0  0  0  0  0  0  0  0  0  0  0
  151.9460  140.7620  156.9442 N   0  5  0  0  0  0  0  0  0  0  0  0
  149.7729  143.1884  157.8345 H   0  0  0  0  0  0  0  0  0  0  0  0
  151.4992  143.4743  157.5776 H   0  0  0  0  0  0  0  0  0  0  0  0
  150.9611  142.3855  158.8659 H   0  0  0  0  0  0  0  0  0  0  0  0
  149.0306  140.2563  153.2034 H   0  0  0  0  0  0  0  0  0  0  0  0
  147.9592  140.8899  154.4516 H   0  0  0  0  0  0  0  0  0  0  0  0
  148.2597  139.1562  154.3576 H   0  0  0  0  0  0  0  0  0  0  0  0
  150.2705  138.3300  153.4714 H   0  0  0  0  0  0  0  0  0  0  0  0
  151.9911  138.3300  153.5850 H   0  0  0  0  0  0  0  0  0  0  0  0
  149.5864  136.3051  153.5640 H   0  0  0  0  0  0  0  0  0  0  0  0
  150.8462  134.3111  155.3668 H   0  0  0  0  0  0  0  0  0  0  0  0
  149.1396  134.6416  155.5092 H   0  0  0  0  0  0  0  0  0  0  0  0
  150.4254  133.6118  152.9139 H   0  0  0  0  0  0  0  0  0  0  0  0
  147.4625  133.7386  153.8672 H   0  0  0  0  0  0  0  0  0  0  0  0
  148.0803  133.0706  152.2688 H   0  0  0  0  0  0  0  0  0  0  0  0
  149.4885  131.3976  153.5148 H   0  0  0  0  0  0  0  0  0  0  0  0
  148.8692  132.0685  155.1113 H   0  0  0  0  0  0  0  0  0  0  0  0
  1  2  1  0  0  0  0
  1 18  1  0  0  0  0
  1 19  1  0  0  0  0
  1 20  1  0  0  0  0
  2 17  1  0  0  0  0
  2  3  2  0  0  0  0
  3  4  1  0  0  0  0
  4  5  1  0  0  0  0
  4  6  2  0  0  0  0
  5 21  1  0  0  0  0
  5 22  1  0  0  0  0
  5 23  1  0  0  0  0
  6  7  1  0  0  0  0
  6 15  1  0  0  0  0
  7  8  1  0  0  0  0
  7 24  1  0  0  0  0
  7 25  1  0  0  0  0
  8  9  2  0  0  0  0
  8 10  1  0  0  0  0
 10 11  1  0  0  0  0
 10 26  1  0  0  0  0
 11 12  1  0  0  0  0
 11 27  1  0  0  0  0
 11 28  1  0  0  0  0
 12 14  1  0  0  0  0
 12 13  1  0  0  0  0
 12 29  1  0  0  0  0
 13 14  1  0  0  0  0
 13 30  1  0  0  0  0
 13 31  1  0  0  0  0
 14 32  1  0  0  0  0
 14 33  1  0  0  0  0
 15 16  2  0  0  0  0
 15 17  1  0  0  0  0
M  CHG  1  17  -1
M  END
> <s_m_source_file>
AV-unprocessed.smi

> <i_m_source_file_index>
2175

> <i_lp_mmshare_version>
43012

> <i_f3d_flags>
0

> <s_epik_input>
W0NIM11jMW5jKFtDSDNdKWMoYyg9TylbbkhdMSlbQ0gyXUMoPU8pW05IXVtDSDJdW0NIXTJbQ0gyXVtDSDJdMg==

> <s_epik_cmdline>
J2VwaWtfcHl0aG9uJywgJy1waCcsICc3LjAnLCAnLXRuJywgJzgnLCAnLW1hJywgJzIwMCcsICctbWV0YWxfYmluZGluZycsICctaW1hZScsICc8aW5maWxlLm1hZT4nLCAnLW9tYWUnLCAnPG91dGZpbGUubWFlPic=

> <r_lp_tautomer_probability>
0.839158

> <r_epik_Ionization_Penalty>
6.60351

> <r_epik_Ionization_Penalty_Charging>
6.70818e-08

> <r_epik_Ionization_Penalty_Neutral>
6.60351

> <r_epik_State_Penalty>
4.42903

> <r_epik_Charging_Adjusted_Penalty>
4.42903

> <i_epik_Tot_Q>
-1

> <i_epik_Tot_abs_Q>
1

> <r_epik_Metal_State_Penalty>
0.797668

> <b_epik_Metal_Only>
1

> <s_lp_Force_Field>
OPLS_2005

> <r_lp_Energy>
17.43

> <b_lp_Chiralities_Consistent>
1

> <s_lp_Variant>
AV-unprocessed.smi:2175-3

> <Gold.Version>
5.8.1

> <Gold.Id.Protein>
6NUR|6NUR_protein|mol2

> <Gold.PLP.Fitness>
41.5263

> <Gold.PLP.PLP>
-33.0580

> <Gold.PLP.part.hbond>
-3.7487

> <Gold.PLP.part.metal>
0.0000

> <Gold.PLP.part.buried>
-2.5583

> <Gold.PLP.part.nonpolar>
-27.8280

> <Gold.PLP.part.repulsive>
0.1732

> <Gold.PLP.ligand.clash>
0.0000

> <Gold.PLP.ligand.torsion>
0.5370

> <Gold.PLP.Chemscore.Hbond>
3.0000

> <Gold.PLP.Chemscore.CHOScore>
0.0000

> <Gold.PLP.Chemscore.Metal>
0.0000

> <Gold.Chemscore.Hbonds>
donor molecule, donor type, donor heavy atom, donor atom, acceptor molecule, acceptor atom, score
      L1  H    10    26       P1  7948  1.00
      P1  H  7997  8010       L1    16  1.00
      P1  H 10752 10763       L1     9  1.00

> <Gold.PLP.Chemscore.Internal.Correction>
0.5423

> <Gold.Rescore>
     Score         DG    S(hbond)    S(metal)    S(lipo)     H(rot)  DE(clash)    DE(int)     intcor
     14.02     -15.98       2.49        0.00      55.96       1.70       0.01       1.95       ----

> <Gold.Chemscore.Fitness>
14.0210

> <Gold.Chemscore.DG>
-15.9849

> <Gold.Chemscore.ZeroCoef>
-5.4800

> <Gold.Chemscore.Hbond>
2.4886

> <Gold.Chemscore.Metal>
0.0000

> <Gold.Chemscore.Lipo>
55.9598

> <Gold.Chemscore.Internal_Hbond>
0.0000

> <Gold.Chemscore.DEClash>
0.0149

> <Gold.Chemscore.DEInternal>
1.9491

> <Gold.Chemscore.Rot>
1.7009

> <Gold.Chemscore.Internal.Correction>
   9.000000E+99

> <Gold.Chemscore.Hbonds>
donor molecule, donor type, donor heavy atom, donor atom, acceptor molecule, acceptor atom, score
      L1  H    10    26       P1  7948  0.48
      P1  H  7997  8010       L1    16  0.35
      P1  H 10752 10763       L1     9  0.63

> <Gold.Chemscore.Hbond.Weighted>
-8.3120

> <Gold.Chemscore.Metal.Weighted>
-0.0000

> <Gold.Chemscore.Lipo.Weighted>
-6.5473

> <Gold.Chemscore.Internal_Hbond.Weighted>
0.0000

> <Gold.Chemscore.DEClash.Weighted>
0.0149

> <Gold.Chemscore.DEInternal.Weighted>
1.9491

> <Gold.Chemscore.Rot.Weighted>
4.3543

> <Gold.Chemscore.Internal.Correction.Weighted>
   9.000000E+99

> <Gold.Protein.RotatedTorsions>
[ 6907 6896 6895 6894 ] final    6.54 input  -60.11 | X-H torsion
[ 7974 7965 7964 7962 ] final  171.13 input  175.53 | X-H torsion
[ 8008 7997 7996 7995 ] final   72.78 input   59.86 | X-H torsion
[ 10167 10162 10161 10158 ] final  163.94 input  -65.29 | X-H torsion
[ 10718 10713 10712 10709 ] final   30.13 input   66.30 | X-H torsion
[ 10763 10752 10751 10750 ] final   93.57 input  -60.55 | X-H torsion
[ 11005 11000 10999 10996 ] final  -18.72 input  -57.11 | X-H torsion

> <Gold.Protein.ActiveResidues>
 VAL166  LYS551  ARG553  GLY616  TRP617  ASP618  TYR619  PRO620  LYS621  CYS622 
 ASP623  PHE694  ASN695  SER759  ASP760  ASP761  ALA762  ILE779  LEU786  VAL792 
 PHE793  MET794  SER795  GLU796  ALA797  LYS798  CYS799  TRP800  GLU811  SER814 

> <Gold.Protein.RotatedAtoms>
  151.6754  135.0970  160.0205 H   0  0  0  0  0  0  0  0  0  0  0  0  # atno 6907 bound_to 6896
  152.3867  133.6617  159.6213 H   0  0  0  0  0  0  0  0  0  0  0  0  # atno 6908 bound_to 6896
  150.7791  133.8940  159.3363 H   0  0  0  0  0  0  0  0  0  0  0  0  # atno 6909 bound_to 6896
  144.7303  139.9304  143.6424 H   0  0  0  0  0  0  0  0  0  0  0  0  # atno 7974 bound_to 7965
  155.7739  140.3483  155.5261 H   0  0  0  0  0  0  0  0  0  0  0  0  # atno 8008 bound_to 7997
  155.8794  140.0999  157.1516 H   0  0  0  0  0  0  0  0  0  0  0  0  # atno 8009 bound_to 7997
  154.4023  140.1325  156.4165 H   0  0  0  0  0  0  0  0  0  0  0  0  # atno 8010 bound_to 7997
  139.4881  144.4286  151.9099 H   0  0  0  0  0  0  0  0  0  0  0  0  # atno 10167 bound_to 10162
  157.2557  130.7136  149.6428 H   0  0  0  0  0  0  0  0  0  0  0  0  # atno 10718 bound_to 10713
  153.2317  135.4321  155.0603 H   0  0  0  0  0  0  0  0  0  0  0  0  # atno 10763 bound_to 10752
  154.8300  135.3381  154.6777 H   0  0  0  0  0  0  0  0  0  0  0  0  # atno 10764 bound_to 10752
  153.7204  135.7017  153.5070 H   0  0  0  0  0  0  0  0  0  0  0  0  # atno 10765 bound_to 10752
  140.8296  133.8007  155.9744 H   0  0  0  0  0  0  0  0  0  0  0  0  # atno 11005 bound_to 11000
  146.0862  139.3850  143.0434 LP  0  0  0  0  0  0  0  0  0  0  0  0  # atno 17320 bound_to 7965
  145.7774  140.9871  143.1117 LP  0  0  0  0  0  0  0  0  0  0  0  0  # atno 17321 bound_to 7965
  140.3732  144.2829  150.5917 LP  0  0  0  0  0  0  0  0  0  0  0  0  # atno 17342 bound_to 10162
  140.5300  143.2245  151.8254 LP  0  0  0  0  0  0  0  0  0  0  0  0  # atno 17343 bound_to 10162
  155.9665  130.4413  150.5337 LP  0  0  0  0  0  0  0  0  0  0  0  0  # atno 17370 bound_to 10713
  157.3230  131.0685  151.1917 LP  0  0  0  0  0  0  0  0  0  0  0  0  # atno 17371 bound_to 10713
  140.9012  134.2375  157.5040 LP  0  0  0  0  0  0  0  0  0  0  0  0  # atno 17394 bound_to 11000
  139.8705  134.9707  156.4712 LP  0  0  0  0  0  0  0  0  0  0  0  0  # atno 17395 bound_to 11000

$$$$
