AV-unprocessed.smi:1116|AV-procd|sdf|4809|dock1
  -GOLD-   22720 3363D 1   1.00000     0.00000
 Structure written by MMmdl.
 35 36  0  0  0  0  0  0  0  0  2 V2000
  152.7160  143.5390  162.5370 C   0  0  0  0  0  0  0  0  0  0  0  0
  152.5439  142.9541  161.1771 C   0  0  0  0  0  0  0  0  0  0  0  0
  151.6635  143.4092  160.2817 N   0  0  0  0  0  0  0  0  0  0  0  0
  151.6937  142.6893  159.0830 C   0  0  0  0  0  0  0  0  0  0  0  0
  150.7645  143.0533  157.9654 C   0  0  0  0  0  0  0  0  0  0  0  0
  150.7550  141.9926  156.8517 C   0  0  0  0  0  0  0  0  0  0  0  0
  149.7545  142.2872  155.8331 N   0  0  0  0  0  0  0  0  0  0  0  0
  149.4544  141.4974  154.7908 C   0  0  0  0  0  0  0  0  0  0  0  0
  150.0113  140.4208  154.5741 O   0  0  0  0  0  0  0  0  0  0  0  0
  148.3626  142.0043  153.8472 C   0  0  0  0  0  0  0  0  0  0  0  0
  147.5133  143.1197  154.4846 C   0  0  0  0  0  0  0  0  0  0  0  0
  146.2851  143.4984  153.6308 C   0  0  2  0  0  0  0  0  0  0  0  0
  146.6457  144.4095  152.5581 N   0  5  0  0  0  0  0  0  0  0  0  0
  145.9187  145.5434  152.6949 C   0  0  0  0  0  0  0  0  0  0  0  0
  145.9366  146.5393  151.9751 O   0  0  0  0  0  0  0  0  0  0  0  0
  145.1254  145.4701  153.7687 N   0  0  0  0  0  0  0  0  0  0  0  0
  145.2686  144.3135  154.4076 C   0  0  0  0  0  0  0  0  0  0  0  0
  144.6951  143.9500  155.4335 O   0  0  0  0  0  0  0  0  0  0  0  0
  152.6214  141.6775  159.0829 C   0  0  0  0  0  0  0  0  0  0  0  0
  153.4871  141.5891  160.5920 S   0  0  0  0  0  0  0  0  0  0  0  0
  151.9666  144.3090  162.7229 H   0  0  0  0  0  0  0  0  0  0  0  0
  153.7063  143.9857  162.6270 H   0  0  0  0  0  0  0  0  0  0  0  0
  152.6124  142.7609  163.2933 H   0  0  0  0  0  0  0  0  0  0  0  0
  149.7550  143.1890  158.3552 H   0  0  0  0  0  0  0  0  0  0  0  0
  151.0528  144.0174  157.5444 H   0  0  0  0  0  0  0  0  0  0  0  0
  151.7294  141.9612  156.3630 H   0  0  0  0  0  0  0  0  0  0  0  0
  150.5830  140.9986  157.2679 H   0  0  0  0  0  0  0  0  0  0  0  0
  149.2441  143.1533  155.9306 H   0  0  0  0  0  0  0  0  0  0  0  0
  148.8189  142.3635  152.9237 H   0  0  0  0  0  0  0  0  0  0  0  0
  147.7254  141.1640  153.5702 H   0  0  0  0  0  0  0  0  0  0  0  0
  147.1776  142.7871  155.4684 H   0  0  0  0  0  0  0  0  0  0  0  0
  148.1311  144.0026  154.6612 H   0  0  0  0  0  0  0  0  0  0  0  0
  145.7922  142.5968  153.2647 H   0  0  0  0  0  0  0  0  0  0  0  0
  144.5026  146.2077  154.0624 H   0  0  0  0  0  0  0  0  0  0  0  0
  152.8443  140.9797  158.2893 H   0  0  0  0  0  0  0  0  0  0  0  0
  1  2  1  0  0  0  0
  1 21  1  0  0  0  0
  1 22  1  0  0  0  0
  1 23  1  0  0  0  0
  2 20  1  0  0  0  0
  2  3  2  0  0  0  0
  3  4  1  0  0  0  0
  4  5  1  0  0  0  0
  4 19  2  0  0  0  0
  5  6  1  0  0  0  0
  5 24  1  0  0  0  0
  5 25  1  0  0  0  0
  6  7  1  0  0  0  0
  6 26  1  0  0  0  0
  6 27  1  0  0  0  0
  7  8  1  0  0  0  0
  7 28  1  0  0  0  0
  8  9  2  0  0  0  0
  8 10  1  0  0  0  0
 10 11  1  0  0  0  0
 10 29  1  0  0  0  0
 10 30  1  0  0  0  0
 11 12  1  0  0  0  0
 11 31  1  0  0  0  0
 11 32  1  0  0  0  0
 12 17  1  0  0  0  0
 12 13  1  0  0  0  0
 12 33  1  0  0  0  0
 13 14  1  0  0  0  0
 14 15  2  0  0  0  0
 14 16  1  0  0  0  0
 16 17  1  0  0  0  0
 16 34  1  0  0  0  0
 17 18  2  0  0  0  0
 19 20  1  0  0  0  0
 19 35  1  0  0  0  0
M  CHG  1  13  -1
M  END
> <s_m_source_file>
AV-unprocessed.smi

> <i_m_source_file_index>
1116

> <i_lp_mmshare_version>
43012

> <i_f3d_flags>
0

> <s_epik_input>
W0NIM11jMW5jKFtjSF1zMSlbQ0gyXVtDSDJdW05IXUMoPU8pW0NIMl1bQ0gyXVtDQEBIXTJbTkhdQyg9TylbTkhdQzI9Tw==

> <s_epik_cmdline>
J2VwaWtfcHl0aG9uJywgJy1waCcsICc3LjAnLCAnLXRuJywgJzgnLCAnLW1hJywgJzIwMCcsICctbWV0YWxfYmluZGluZycsICctaW1hZScsICc8aW5maWxlLm1hZT4nLCAnLW9tYWUnLCAnPG91dGZpbGUubWFlPic=

> <r_lp_tautomer_probability>
1

> <r_epik_Ionization_Penalty>
5.7962

> <r_epik_Ionization_Penalty_Charging>
5.79516

> <r_epik_Ionization_Penalty_Neutral>
0.00104588

> <r_epik_State_Penalty>
5.80096

> <r_epik_Charging_Adjusted_Penalty>
11.5961

> <i_epik_Tot_Q>
-1

> <i_epik_Tot_abs_Q>
1

> <r_epik_Metal_State_Penalty>
2.1448

> <b_epik_Metal_Only>
1

> <s_lp_Force_Field>
OPLS_2005

> <r_lp_Energy>
4.59195

> <b_lp_Chiralities_Consistent>
1

> <s_lp_Variant>
AV-unprocessed.smi:1116-3

> <Gold.Version>
5.8.1

> <Gold.Id.Protein>
6NUR|6NUR_protein|mol2

> <Gold.PLP.Fitness>
46.9900

> <Gold.PLP.PLP>
-43.3873

> <Gold.PLP.part.hbond>
-4.9283

> <Gold.PLP.part.metal>
0.0000

> <Gold.PLP.part.buried>
-3.7828

> <Gold.PLP.part.nonpolar>
-35.6352

> <Gold.PLP.part.repulsive>
0.7783

> <Gold.PLP.ligand.clash>
0.1835

> <Gold.PLP.ligand.torsion>
0.5383

> <Gold.PLP.Chemscore.Hbond>
1.5680

> <Gold.PLP.Chemscore.CHOScore>
0.0000

> <Gold.PLP.Chemscore.Metal>
0.0000

> <Gold.Chemscore.Hbonds>
donor molecule, donor type, donor heavy atom, donor atom, acceptor molecule, acceptor atom, score
      L1  H     7    28       P1  8028  1.00
      P1  H  7989  7998       L1     9  0.91

> <Gold.PLP.Chemscore.Internal.Correction>
0.1589

> <Gold.Rescore>
     Score         DG    S(hbond)    S(metal)    S(lipo)     H(rot)  DE(clash)    DE(int)     intcor
     11.71     -13.18       1.38        0.00      86.95       2.77       1.02       0.44       ----

> <Gold.Chemscore.Fitness>
11.7133

> <Gold.Chemscore.DG>
-13.1787

> <Gold.Chemscore.ZeroCoef>
-5.4800

> <Gold.Chemscore.Hbond>
1.3814

> <Gold.Chemscore.Metal>
0.0000

> <Gold.Chemscore.Lipo>
86.9549

> <Gold.Chemscore.Internal_Hbond>
0.0000

> <Gold.Chemscore.DEClash>
1.0236

> <Gold.Chemscore.DEInternal>
0.4418

> <Gold.Chemscore.Rot>
2.7691

> <Gold.Chemscore.Internal.Correction>
   9.000000E+99

> <Gold.Chemscore.Hbonds>
donor molecule, donor type, donor heavy atom, donor atom, acceptor molecule, acceptor atom, score
      L1  H     7    28       P1  8028  0.98
      P1  H  7989  7998       L1     9  0.44

> <Gold.Chemscore.Hbond.Weighted>
-4.6139

> <Gold.Chemscore.Metal.Weighted>
-0.0000

> <Gold.Chemscore.Lipo.Weighted>
-10.1737

> <Gold.Chemscore.Internal_Hbond.Weighted>
0.0000

> <Gold.Chemscore.DEClash.Weighted>
1.0236

> <Gold.Chemscore.DEInternal.Weighted>
0.4418

> <Gold.Chemscore.Rot.Weighted>
7.0889

> <Gold.Chemscore.Internal.Correction.Weighted>
   9.000000E+99

> <Gold.Protein.RotatedTorsions>
[ 6907 6896 6895 6894 ] final   23.19 input  -60.11 | X-H torsion
[ 7974 7965 7964 7962 ] final   85.31 input  175.53 | X-H torsion
[ 8008 7997 7996 7995 ] final   61.18 input   59.86 | X-H torsion
[ 10167 10162 10161 10158 ] final -154.58 input  -65.29 | X-H torsion
[ 10718 10713 10712 10709 ] final   -7.21 input   66.30 | X-H torsion
[ 10763 10752 10751 10750 ] final  -26.22 input  -60.55 | X-H torsion
[ 11005 11000 10999 10996 ] final   55.86 input  -57.11 | X-H torsion

> <Gold.Protein.ActiveResidues>
 VAL166  LYS551  ARG553  GLY616  TRP617  ASP618  TYR619  PRO620  LYS621  CYS622 
 ASP623  PHE694  ASN695  SER759  ASP760  ASP761  ALA762  ILE779  LEU786  VAL792 
 PHE793  MET794  SER795  GLU796  ALA797  LYS798  CYS799  TRP800  GLU811  SER814 

> <Gold.Protein.RotatedAtoms>
  151.9386  135.0224  160.0534 H   0  0  0  0  0  0  0  0  0  0  0  0  # atno 6907 bound_to 6896
  152.2056  133.4868  159.5090 H   0  0  0  0  0  0  0  0  0  0  0  0  # atno 6908 bound_to 6896
  150.6964  134.1451  159.4162 H   0  0  0  0  0  0  0  0  0  0  0  0  # atno 6909 bound_to 6896
  145.5873  139.2333  143.2319 H   0  0  0  0  0  0  0  0  0  0  0  0  # atno 7974 bound_to 7965
  155.5942  140.3493  155.4575 H   0  0  0  0  0  0  0  0  0  0  0  0  # atno 8008 bound_to 7997
  156.0278  140.1268  157.0315 H   0  0  0  0  0  0  0  0  0  0  0  0  # atno 8009 bound_to 7997
  154.4340  140.1049  156.6041 H   0  0  0  0  0  0  0  0  0  0  0  0  # atno 8010 bound_to 7997
  139.7002  143.9276  152.2425 H   0  0  0  0  0  0  0  0  0  0  0  0  # atno 10167 bound_to 10162
  156.7205  130.5149  149.5869 H   0  0  0  0  0  0  0  0  0  0  0  0  # atno 10718 bound_to 10713
  153.7124  135.6950  153.5034 H   0  0  0  0  0  0  0  0  0  0  0  0  # atno 10763 bound_to 10752
  153.2263  135.4352  155.0545 H   0  0  0  0  0  0  0  0  0  0  0  0  # atno 10764 bound_to 10752
  154.8310  135.3473  154.6660 H   0  0  0  0  0  0  0  0  0  0  0  0  # atno 10765 bound_to 10752
  140.0574  134.5651  155.9192 H   0  0  0  0  0  0  0  0  0  0  0  0  # atno 11005 bound_to 11000
  146.1673  140.6699  142.9249 LP  0  0  0  0  0  0  0  0  0  0  0  0  # atno 17320 bound_to 7965
  144.7367  140.4828  143.6898 LP  0  0  0  0  0  0  0  0  0  0  0  0  # atno 17321 bound_to 7965
  139.9116  144.6853  150.8556 LP  0  0  0  0  0  0  0  0  0  0  0  0  # atno 17342 bound_to 10162
  140.7707  143.3439  151.2151 LP  0  0  0  0  0  0  0  0  0  0  0  0  # atno 17343 bound_to 10162
  156.1597  130.6366  151.0703 LP  0  0  0  0  0  0  0  0  0  0  0  0  # atno 17370 bound_to 10713
  157.6900  131.0813  150.7135 LP  0  0  0  0  0  0  0  0  0  0  0  0  # atno 17371 bound_to 10713
  141.1958  133.6588  156.5660 LP  0  0  0  0  0  0  0  0  0  0  0  0  # atno 17394 bound_to 11000
  140.3823  134.7512  157.4669 LP  0  0  0  0  0  0  0  0  0  0  0  0  # atno 17395 bound_to 11000

$$$$
