AV-unprocessed.smi:1464|AV-procd|sdf|5939|dock1
  -GOLD-   22720 6 23D 1   1.00000     0.00000
 Structure written by MMmdl.
 40 41  0  0  0  0  0  0  0  0  2 V2000
  145.8948  139.6583  155.3802 C   0  0  0  0  0  0  0  0  0  0  0  0
  146.5920  140.6210  154.3968 C   0  0  2  0  0  0  0  0  0  0  0  0
  147.4601  139.8590  153.3749 C   0  0  0  0  0  0  0  0  0  0  0  0
  148.7442  139.2985  154.0062 C   0  0  0  0  0  0  0  0  0  0  0  0
  149.5586  140.4094  154.6837 C   0  0  0  0  0  0  0  0  0  0  0  0
  148.7224  141.1898  155.7165 C   0  0  1  0  0  0  0  0  0  0  0  0
  149.5370  142.2798  156.2523 N   0  0  0  0  0  0  0  0  0  0  0  0
  150.6549  142.1469  156.9836 C   0  0  0  0  0  0  0  0  0  0  0  0
  151.1331  141.0551  157.2960 O   0  0  0  0  0  0  0  0  0  0  0  0
  151.3145  143.4639  157.4227 C   0  0  0  0  0  0  0  0  0  0  0  0
  151.6996  143.5039  158.8411 N   0  0  0  0  0  0  0  0  0  0  0  0
  152.5460  142.3875  159.2541 N   0  5  0  0  0  0  0  0  0  0  0  0
  152.9925  142.3339  160.5371 C   0  0  0  0  0  0  0  0  0  0  0  0
  153.7250  141.4384  160.9509 O   0  0  0  0  0  0  0  0  0  0  0  0
  152.5749  143.3840  161.4512 C   0  0  0  0  0  0  0  0  0  0  0  0
  151.7693  144.3870  161.0499 C   0  0  0  0  0  0  0  0  0  0  0  0
  151.2735  144.4889  159.6826 C   0  0  0  0  0  0  0  0  0  0  0  0
  150.5306  145.3980  159.3115 O   0  0  0  0  0  0  0  0  0  0  0  0
  147.4191  141.7419  155.0823 C   0  0  2  0  0  0  0  0  0  0  0  0
  146.5758  142.5763  156.0671 C   0  0  0  0  0  0  0  0  0  0  0  0
  146.6033  139.1525  156.0355 H   0  0  0  0  0  0  0  0  0  0  0  0
  145.3407  138.8886  154.8425 H   0  0  0  0  0  0  0  0  0  0  0  0
  145.1765  140.1807  156.0115 H   0  0  0  0  0  0  0  0  0  0  0  0
  145.7951  141.1060  153.8311 H   0  0  0  0  0  0  0  0  0  0  0  0
  146.8864  139.0519  152.9181 H   0  0  0  0  0  0  0  0  0  0  0  0
  147.7312  140.5332  152.5615 H   0  0  0  0  0  0  0  0  0  0  0  0
  148.4974  138.5257  154.7347 H   0  0  0  0  0  0  0  0  0  0  0  0
  149.3500  138.8125  153.2409 H   0  0  0  0  0  0  0  0  0  0  0  0
  150.4372  139.9774  155.1649 H   0  0  0  0  0  0  0  0  0  0  0  0
  149.9317  141.0935  153.9201 H   0  0  0  0  0  0  0  0  0  0  0  0
  148.4489  140.5022  156.5179 H   0  0  0  0  0  0  0  0  0  0  0  0
  149.2211  143.2178  156.0533 H   0  0  0  0  0  0  0  0  0  0  0  0
  152.1923  143.6412  156.7990 H   0  0  0  0  0  0  0  0  0  0  0  0
  150.6267  144.2807  157.1959 H   0  0  0  0  0  0  0  0  0  0  0  0
  152.9163  143.3578  162.4757 H   0  0  0  0  0  0  0  0  0  0  0  0
  151.4829  145.1448  161.7635 H   0  0  0  0  0  0  0  0  0  0  0  0
  147.7195  142.4277  154.2880 H   0  0  0  0  0  0  0  0  0  0  0  0
  146.3346  142.0113  156.9676 H   0  0  0  0  0  0  0  0  0  0  0  0
  145.6390  142.8962  155.6104 H   0  0  0  0  0  0  0  0  0  0  0  0
  147.1035  143.4771  156.3809 H   0  0  0  0  0  0  0  0  0  0  0  0
  1  2  1  0  0  0  0
  1 21  1  0  0  0  0
  1 22  1  0  0  0  0
  1 23  1  0  0  0  0
  2 19  1  0  0  0  0
  2  3  1  0  0  0  0
  2 24  1  0  0  0  0
  3  4  1  0  0  0  0
  3 25  1  0  0  0  0
  3 26  1  0  0  0  0
  4  5  1  0  0  0  0
  4 27  1  0  0  0  0
  4 28  1  0  0  0  0
  5  6  1  0  0  0  0
  5 29  1  0  0  0  0
  5 30  1  0  0  0  0
  6  7  1  0  0  0  0
  6 19  1  0  0  0  0
  6 31  1  0  0  0  0
  7  8  1  0  0  0  0
  7 32  1  0  0  0  0
  8  9  2  0  0  0  0
  8 10  1  0  0  0  0
 10 33  1  0  0  0  0
 10 34  1  0  0  0  0
 10 11  1  0  0  0  0
 11 12  1  0  0  0  0
 11 17  1  0  0  0  0
 12 13  1  0  0  0  0
 13 14  2  0  0  0  0
 13 15  1  0  0  0  0
 15 35  1  0  0  0  0
 15 16  2  0  0  0  0
 16 36  1  0  0  0  0
 16 17  1  0  0  0  0
 17 18  2  0  0  0  0
 19 20  1  0  0  0  0
 19 37  1  0  0  0  0
 20 38  1  0  0  0  0
 20 39  1  0  0  0  0
 20 40  1  0  0  0  0
M  CHG  1  12  -1
M  END
> <s_m_source_file>
AV-unprocessed.smi

> <i_m_source_file_index>
1464

> <i_lp_mmshare_version>
43012

> <i_f3d_flags>
0

> <s_epik_input>
W0NIM11bQ0BASF0xW0NIMl1bQ0gyXVtDSDJdW0NASF0oW0NASF0xW0NIM10pW05IXUMoPU8pW0NIMl1uMltuSF1jKD1PKVtjSF1bY0hdYzI9Tw==

> <s_epik_cmdline>
J2VwaWtfcHl0aG9uJywgJy1waCcsICc3LjAnLCAnLXRuJywgJzgnLCAnLW1hJywgJzIwMCcsICctbWV0YWxfYmluZGluZycsICctaW1hZScsICc8aW5maWxlLm1hZT4nLCAnLW9tYWUnLCAnPG91dGZpbGUubWFlPic=

> <r_lp_tautomer_probability>
1

> <r_epik_Ionization_Penalty>
0.101366

> <r_epik_Ionization_Penalty_Charging>
0.101366

> <r_epik_Ionization_Penalty_Neutral>
1.90469e-08

> <r_epik_State_Penalty>
0.035861

> <r_epik_Charging_Adjusted_Penalty>
0.137227

> <i_epik_Tot_Q>
-1

> <i_epik_Tot_abs_Q>
1

> <r_epik_Metal_State_Penalty>
0.035861

> <b_epik_Metal_Only>
0

> <s_lp_Force_Field>
OPLS_2005

> <r_lp_Energy>
29.8831

> <b_lp_Chiralities_Consistent>
1

> <s_lp_Variant>
AV-unprocessed.smi:1464-5

> <Gold.Version>
5.8.1

> <Gold.Id.Protein>
6NUR|6NUR_protein|mol2

> <Gold.PLP.Fitness>
41.1159

> <Gold.PLP.PLP>
-38.5524

> <Gold.PLP.part.hbond>
-1.3283

> <Gold.PLP.part.metal>
0.0000

> <Gold.PLP.part.buried>
-4.9251

> <Gold.PLP.part.nonpolar>
-32.8407

> <Gold.PLP.part.repulsive>
0.2836

> <Gold.PLP.ligand.clash>
0.0000

> <Gold.PLP.ligand.torsion>
0.2227

> <Gold.PLP.Chemscore.Hbond>
1.0000

> <Gold.PLP.Chemscore.CHOScore>
0.0000

> <Gold.PLP.Chemscore.Metal>
0.0000

> <Gold.Chemscore.Hbonds>
donor molecule, donor type, donor heavy atom, donor atom, acceptor molecule, acceptor atom, score
      L1  H     7    32       P1  8028  1.00

> <Gold.PLP.Chemscore.Internal.Correction>
0.0089

> <Gold.Rescore>
     Score         DG    S(hbond)    S(metal)    S(lipo)     H(rot)  DE(clash)    DE(int)     intcor
     11.85     -13.40       1.00        0.00      75.25       1.64       0.24       1.32       ----

> <Gold.Chemscore.Fitness>
11.8523

> <Gold.Chemscore.DG>
-13.4048

> <Gold.Chemscore.ZeroCoef>
-5.4800

> <Gold.Chemscore.Hbond>
0.9966

> <Gold.Chemscore.Metal>
0.0000

> <Gold.Chemscore.Lipo>
75.2499

> <Gold.Chemscore.Internal_Hbond>
0.0000

> <Gold.Chemscore.DEClash>
0.2362

> <Gold.Chemscore.DEInternal>
1.3163

> <Gold.Chemscore.Rot>
1.6438

> <Gold.Chemscore.Internal.Correction>
   9.000000E+99

> <Gold.Chemscore.Hbonds>
donor molecule, donor type, donor heavy atom, donor atom, acceptor molecule, acceptor atom, score
      L1  H     7    32       P1  8028  0.98

> <Gold.Chemscore.Hbond.Weighted>
-3.3286

> <Gold.Chemscore.Metal.Weighted>
-0.0000

> <Gold.Chemscore.Lipo.Weighted>
-8.8042

> <Gold.Chemscore.Internal_Hbond.Weighted>
0.0000

> <Gold.Chemscore.DEClash.Weighted>
0.2362

> <Gold.Chemscore.DEInternal.Weighted>
1.3163

> <Gold.Chemscore.Rot.Weighted>
4.2080

> <Gold.Chemscore.Internal.Correction.Weighted>
   9.000000E+99

> <Gold.Protein.RotatedTorsions>
[ 6907 6896 6895 6894 ] final -125.60 input  -60.11 | X-H torsion
[ 7974 7965 7964 7962 ] final  -77.25 input  175.53 | X-H torsion
[ 8008 7997 7996 7995 ] final -106.51 input   59.86 | X-H torsion
[ 10167 10162 10161 10158 ] final -114.21 input  -65.29 | X-H torsion
[ 10718 10713 10712 10709 ] final   -1.60 input   66.30 | X-H torsion
[ 10763 10752 10751 10750 ] final   75.03 input  -60.55 | X-H torsion
[ 11005 11000 10999 10996 ] final   -3.16 input  -57.11 | X-H torsion

> <Gold.Protein.ActiveResidues>
 VAL166  LYS551  ARG553  GLY616  TRP617  ASP618  TYR619  PRO620  LYS621  CYS622 
 ASP623  PHE694  ASN695  SER759  ASP760  ASP761  ALA762  ILE779  LEU786  VAL792 
 PHE793  MET794  SER795  GLU796  ALA797  LYS798  CYS799  TRP800  GLU811  SER814 

> <Gold.Protein.RotatedAtoms>
  150.8884  133.7276  159.2911 H   0  0  0  0  0  0  0  0  0  0  0  0  # atno 6907 bound_to 6896
  151.4835  135.1052  159.9793 H   0  0  0  0  0  0  0  0  0  0  0  0  # atno 6908 bound_to 6896
  152.4805  133.8195  159.7101 H   0  0  0  0  0  0  0  0  0  0  0  0  # atno 6909 bound_to 6896
  145.6021  140.9406  143.1235 H   0  0  0  0  0  0  0  0  0  0  0  0  # atno 7974 bound_to 7965
  154.9156  140.0409  157.1970 H   0  0  0  0  0  0  0  0  0  0  0  0  # atno 8008 bound_to 7997
  154.8304  140.2898  155.5704 H   0  0  0  0  0  0  0  0  0  0  0  0  # atno 8009 bound_to 7997
  156.2986  140.2502  156.3228 H   0  0  0  0  0  0  0  0  0  0  0  0  # atno 8010 bound_to 7997
  140.1034  143.4592  152.1798 H   0  0  0  0  0  0  0  0  0  0  0  0  # atno 10167 bound_to 10162
  156.8031  130.5399  149.5719 H   0  0  0  0  0  0  0  0  0  0  0  0  # atno 10718 bound_to 10713
  153.0627  135.5004  154.8129 H   0  0  0  0  0  0  0  0  0  0  0  0  # atno 10763 bound_to 10752
  154.6906  135.2984  154.9486 H   0  0  0  0  0  0  0  0  0  0  0  0  # atno 10764 bound_to 10752
  154.0242  135.6738  153.4828 H   0  0  0  0  0  0  0  0  0  0  0  0  # atno 10765 bound_to 10752
  140.6663  133.9276  155.8467 H   0  0  0  0  0  0  0  0  0  0  0  0  # atno 11005 bound_to 11000
  144.7305  139.7740  143.7349 LP  0  0  0  0  0  0  0  0  0  0  0  0  # atno 17320 bound_to 7965
  146.1568  139.4669  143.0013 LP  0  0  0  0  0  0  0  0  0  0  0  0  # atno 17321 bound_to 7965
  139.5658  144.7434  151.4025 LP  0  0  0  0  0  0  0  0  0  0  0  0  # atno 17342 bound_to 10162
  140.6965  143.7736  150.7335 LP  0  0  0  0  0  0  0  0  0  0  0  0  # atno 17343 bound_to 10162
  156.1089  130.6025  151.0015 LP  0  0  0  0  0  0  0  0  0  0  0  0  # atno 17370 bound_to 10713
  157.6543  131.0892  150.7981 LP  0  0  0  0  0  0  0  0  0  0  0  0  # atno 17371 bound_to 10713
  141.0426  134.0599  157.3883 LP  0  0  0  0  0  0  0  0  0  0  0  0  # atno 17394 bound_to 11000
  139.8996  135.0159  156.7203 LP  0  0  0  0  0  0  0  0  0  0  0  0  # atno 17395 bound_to 11000

$$$$
