AV-unprocessed.smi:21|AV-procd|sdf|150|dock10
  -GOLD-   2262015373D 1   1.00000     0.00000
 Structure written by MMmdl.
 62 65  0  0  0  0  0  0  0  0  2 V2000
  147.2233  127.9768  151.1493 C   0  0  0  0  0  0  0  0  0  0  0  0
  146.5049  129.0771  151.6843 O   0  0  0  0  0  0  0  0  0  0  0  0
  146.8101  129.3554  153.0448 C   0  0  2  0  0  0  0  0  0  0  0  0
  145.9809  130.5492  153.4985 C   0  0  0  0  0  0  0  0  0  0  0  0
  146.7566  131.7585  152.9632 C   0  0  1  0  0  0  0  0  0  0  0  0
  146.4344  133.0913  153.6831 C   0  0  0  0  0  0  0  0  0  0  0  0
  145.9854  134.1344  152.7579 N   0  0  0  0  0  0  0  0  0  0  0  0
  145.0231  133.7728  151.7247 C   0  0  0  0  0  0  0  0  0  0  0  0
  146.1724  135.4455  153.0779 C   0  0  0  0  0  0  0  0  0  0  0  0
  145.4947  136.3805  152.3604 N   0  0  0  0  0  0  0  0  0  0  0  0
  145.6365  137.6815  152.6250 C   0  0  0  0  0  0  0  0  0  0  0  0
  146.4000  138.2642  153.5489 N   0  0  0  0  0  0  0  0  0  0  0  0
  147.0908  137.3394  154.2732 C   0  0  0  0  0  0  0  0  0  0  0  0
  147.0382  135.9239  154.1093 C   0  0  0  0  0  0  0  0  0  0  0  0
  147.8973  135.3224  155.0241 N   0  0  0  0  0  0  0  0  0  0  0  0
  148.4155  136.3165  155.6906 C   0  0  0  0  0  0  0  0  0  0  0  0
  147.9804  137.5635  155.3093 N   0  0  0  0  0  0  0  0  0  0  0  0
  148.3948  138.8345  155.8783 C   0  0  0  0  0  0  0  0  0  0  0  0
  149.3316  139.6455  154.9496 C   0  0  1  0  0  0  0  0  0  0  0  0
  148.5616  140.8186  154.2991 C   0  0  0  0  0  0  0  0  0  0  0  0
  149.1819  141.2132  153.0930 O   0  0  0  0  0  0  0  0  0  0  0  0
  150.6431  140.0840  155.6603 C   0  0  1  0  0  0  0  0  0  0  0  0
  150.5485  140.2543  157.1773 C   0  0  0  0  0  0  0  0  0  0  0  0
  151.7888  139.5382  157.7147 C   0  0  0  0  0  0  0  0  0  0  0  0
  152.6607  139.4547  156.5987 O   0  0  0  0  0  0  0  0  0  0  0  0
  151.8515  139.1592  155.4733 C   0  0  0  0  0  0  0  0  0  0  0  0
  148.1900  131.3445  152.9662 N   0  3  1  0  0  0  0  0  0  0  0  0
  149.1181  132.0976  153.8431 C   0  0  0  0  0  0  0  0  0  0  0  0
  148.2435  129.8794  153.1917 C   0  0  0  0  0  0  0  0  0  0  0  0
  146.6150  128.4838  153.6720 H   0  0  0  0  0  0  0  0  0  0  0  0
  146.5004  131.8723  151.9088 H   0  0  0  0  0  0  0  0  0  0  0  0
  146.9414  127.8322  150.1064 H   0  0  0  0  0  0  0  0  0  0  0  0
  146.9907  127.0575  151.6880 H   0  0  0  0  0  0  0  0  0  0  0  0
  148.3007  128.1384  151.1844 H   0  0  0  0  0  0  0  0  0  0  0  0
  144.9513  130.5096  153.1404 H   0  0  0  0  0  0  0  0  0  0  0  0
  145.9528  130.5776  154.5889 H   0  0  0  0  0  0  0  0  0  0  0  0
  145.7130  132.9315  154.4838 H   0  0  0  0  0  0  0  0  0  0  0  0
  147.3341  133.4669  154.1711 H   0  0  0  0  0  0  0  0  0  0  0  0
  145.1292  134.4155  150.8499 H   0  0  0  0  0  0  0  0  0  0  0  0
  144.0031  133.8545  152.1011 H   0  0  0  0  0  0  0  0  0  0  0  0
  145.1788  132.7448  151.3972 H   0  0  0  0  0  0  0  0  0  0  0  0
  145.0549  138.3513  152.0087 H   0  0  0  0  0  0  0  0  0  0  0  0
  149.1320  136.1676  156.4856 H   0  0  0  0  0  0  0  0  0  0  0  0
  147.4917  139.4039  156.1006 H   0  0  0  0  0  0  0  0  0  0  0  0
  148.8827  138.6498  156.8359 H   0  0  0  0  0  0  0  0  0  0  0  0
  149.6391  138.9786  154.1422 H   0  0  0  0  0  0  0  0  0  0  0  0
  147.5292  140.5415  154.0855 H   0  0  0  0  0  0  0  0  0  0  0  0
  148.5275  141.6900  154.9513 H   0  0  0  0  0  0  0  0  0  0  0  0
  149.0610  140.5272  152.4540 H   0  0  0  0  0  0  0  0  0  0  0  0
  150.9366  141.0632  155.2807 H   0  0  0  0  0  0  0  0  0  0  0  0
  150.5780  141.3142  157.4335 H   0  0  0  0  0  0  0  0  0  0  0  0
  149.6370  139.8463  157.6132 H   0  0  0  0  0  0  0  0  0  0  0  0
  152.2528  140.0671  158.5475 H   0  0  0  0  0  0  0  0  0  0  0  0
  151.5360  138.5306  158.0482 H   0  0  0  0  0  0  0  0  0  0  0  0
  151.5779  138.1047  155.5053 H   0  0  0  0  0  0  0  0  0  0  0  0
  152.3837  139.3446  154.5405 H   0  0  0  0  0  0  0  0  0  0  0  0
  148.8197  132.0298  154.8901 H   0  0  0  0  0  0  0  0  0  0  0  0
  149.1686  133.1483  153.5584 H   0  0  0  0  0  0  0  0  0  0  0  0
  150.1266  131.6922  153.7550 H   0  0  0  0  0  0  0  0  0  0  0  0
  148.5819  129.6789  154.2097 H   0  0  0  0  0  0  0  0  0  0  0  0
  148.9536  129.4022  152.5167 H   0  0  0  0  0  0  0  0  0  0  0  0
  148.5139  131.4986  152.0219 H   0  0  0  0  0  0  0  0  0  0  0  0
  1  2  1  0  0  0  0
  1 32  1  0  0  0  0
  1 33  1  0  0  0  0
  1 34  1  0  0  0  0
  2  3  1  0  0  0  0
  3 30  1  0  0  0  0
  3 29  1  0  0  0  0
  3  4  1  0  0  0  0
  4  5  1  0  0  0  0
  4 35  1  0  0  0  0
  4 36  1  0  0  0  0
  5 31  1  0  0  0  0
  5  6  1  0  0  0  0
  5 27  1  0  0  0  0
  6  7  1  0  0  0  0
  6 37  1  0  0  0  0
  6 38  1  0  0  0  0
  7  8  1  0  0  0  0
  7  9  1  0  0  0  0
  8 39  1  0  0  0  0
  8 40  1  0  0  0  0
  8 41  1  0  0  0  0
  9 14  1  0  0  0  0
  9 10  2  0  0  0  0
 10 11  1  0  0  0  0
 11 12  2  0  0  0  0
 11 42  1  0  0  0  0
 12 13  1  0  0  0  0
 13 17  1  0  0  0  0
 13 14  2  0  0  0  0
 14 15  1  0  0  0  0
 15 16  2  0  0  0  0
 16 17  1  0  0  0  0
 16 43  1  0  0  0  0
 17 18  1  0  0  0  0
 18 19  1  0  0  0  0
 18 44  1  0  0  0  0
 18 45  1  0  0  0  0
 19 20  1  0  0  0  0
 19 22  1  0  0  0  0
 19 46  1  0  0  0  0
 20 21  1  0  0  0  0
 20 47  1  0  0  0  0
 20 48  1  0  0  0  0
 21 49  1  0  0  0  0
 22 26  1  0  0  0  0
 22 23  1  0  0  0  0
 22 50  1  0  0  0  0
 23 24  1  0  0  0  0
 23 51  1  0  0  0  0
 23 52  1  0  0  0  0
 24 25  1  0  0  0  0
 24 53  1  0  0  0  0
 24 54  1  0  0  0  0
 25 26  1  0  0  0  0
 26 55  1  0  0  0  0
 26 56  1  0  0  0  0
 27 28  1  0  0  0  0
 27 29  1  0  0  0  0
 27 62  1  0  0  0  0
 28 57  1  0  0  0  0
 28 58  1  0  0  0  0
 28 59  1  0  0  0  0
 29 60  1  0  0  0  0
 29 61  1  0  0  0  0
M  CHG  1  27   1
M  END
> <s_m_source_file>
AV-unprocessed.smi

> <i_m_source_file_index>
21

> <i_lp_mmshare_version>
43012

> <i_f3d_flags>
0

> <s_epik_input>
W0NIM11PW0NASF0xW0NIMl1bQ0BIXShOKFtDSDNdKVtDSDJdMSlbQ0gyXU4oW0NIM10pYyhuW2NIXW4yKWMoYzIzKW5bY0hdbjNbQ0gyXVtDQEhdKFtDSDJdW09IXSlbQ0BASF00W0NIMl1bQ0gyXU9bQ0gyXTQ=

> <s_epik_cmdline>
J2VwaWtfcHl0aG9uJywgJy1waCcsICc3LjAnLCAnLXRuJywgJzgnLCAnLW1hJywgJzIwMCcsICctbWV0YWxfYmluZGluZycsICctaW1hZScsICc8aW5maWxlLm1hZT4nLCAnLW9tYWUnLCAnPG91dGZpbGUubWFlPic=

> <r_lp_tautomer_probability>
1

> <r_epik_Ionization_Penalty>
0.0157465

> <r_epik_Ionization_Penalty_Charging>
0.015354

> <r_epik_Ionization_Penalty_Neutral>
0.000392529

> <r_epik_State_Penalty>
0.0120612

> <r_epik_Charging_Adjusted_Penalty>
0.0274152

> <i_epik_Tot_Q>
1

> <i_epik_Tot_abs_Q>
1

> <r_epik_Metal_State_Penalty>
0.0121253

> <b_epik_Metal_Only>
0

> <s_lp_Force_Field>
OPLS_2005

> <r_lp_Energy>
62.4591

> <b_lp_Chiralities_Consistent>
1

> <s_lp_Variant>
AV-unprocessed.smi:21-30

> <Gold.Version>
5.8.1

> <Gold.Id.Protein>
6NUR|6NUR_protein|mol2

> <Gold.PLP.Fitness>
47.5203

> <Gold.PLP.PLP>
-35.6828

> <Gold.PLP.part.hbond>
-4.4744

> <Gold.PLP.part.metal>
0.0000

> <Gold.PLP.part.buried>
-1.1759

> <Gold.PLP.part.nonpolar>
-30.4760

> <Gold.PLP.part.repulsive>
0.5780

> <Gold.PLP.ligand.clash>
0.0000

> <Gold.PLP.ligand.torsion>
3.1099

> <Gold.PLP.Chemscore.Hbond>
3.8233

> <Gold.PLP.Chemscore.CHOScore>
1.9568

> <Gold.PLP.Chemscore.Metal>
0.0000

> <Gold.Chemscore.Hbonds>
donor molecule, donor type, donor heavy atom, donor atom, acceptor molecule, acceptor atom, score
      L1  H    21    49       P1  7957  0.72
      L1  H    27    62       P1 10747  1.00
      P1  H  7997  8009       L1    25  0.91
      P1  H  8011  8017       L1    21  1.00
      L1  C    11    42       P1 10171  1.00
      L1  C    11    42       P1 10175  0.96

> <Gold.PLP.Chemscore.Internal.Correction>
0.7171

> <Gold.Rescore>
     Score         DG    S(hbond)    S(metal)    S(lipo)     H(rot)  DE(clash)    DE(int)     intcor
     13.86     -18.40       3.29        0.00      83.77       3.08       0.43       4.12       ----

> <Gold.Chemscore.Fitness>
13.8563

> <Gold.Chemscore.DG>
-18.4018

> <Gold.Chemscore.ZeroCoef>
-5.4800

> <Gold.Chemscore.Hbond>
3.2919

> <Gold.Chemscore.Metal>
0.0000

> <Gold.Chemscore.Lipo>
83.7698

> <Gold.Chemscore.Internal_Hbond>
0.0000

> <Gold.Chemscore.DEClash>
0.4259

> <Gold.Chemscore.DEInternal>
4.1195

> <Gold.Chemscore.Rot>
3.0758

> <Gold.Chemscore.Internal.Correction>
   9.000000E+99

> <Gold.Chemscore.Hbonds>
donor molecule, donor type, donor heavy atom, donor atom, acceptor molecule, acceptor atom, score
      L1  H    21    49       P1  7957  0.70
      L1  H    27    62       P1 10747  0.95
      P1  H  7997  8009       L1    25  0.85
      P1  H  8011  8017       L1    21  0.52

> <Gold.Chemscore.Hbond.Weighted>
-10.9949

> <Gold.Chemscore.Metal.Weighted>
-0.0000

> <Gold.Chemscore.Lipo.Weighted>
-9.8011

> <Gold.Chemscore.Internal_Hbond.Weighted>
0.0000

> <Gold.Chemscore.DEClash.Weighted>
0.4259

> <Gold.Chemscore.DEInternal.Weighted>
4.1195

> <Gold.Chemscore.Rot.Weighted>
7.8741

> <Gold.Chemscore.Internal.Correction.Weighted>
   9.000000E+99

> <Gold.Protein.RotatedTorsions>
[ 6907 6896 6895 6894 ] final   47.19 input  -60.11 | X-H torsion
[ 7974 7965 7964 7962 ] final -179.85 input  175.53 | X-H torsion
[ 8008 7997 7996 7995 ] final  165.40 input   59.86 | X-H torsion
[ 10167 10162 10161 10158 ] final  117.78 input  -65.29 | X-H torsion
[ 10718 10713 10712 10709 ] final  153.85 input   66.30 | X-H torsion
[ 10763 10752 10751 10750 ] final -161.37 input  -60.55 | X-H torsion
[ 11005 11000 10999 10996 ] final   48.65 input  -57.11 | X-H torsion

> <Gold.Protein.ActiveResidues>
 VAL166  LYS551  ARG553  GLY616  TRP617  ASP618  TYR619  PRO620  LYS621  CYS622 
 ASP623  PHE694  ASN695  SER759  ASP760  ASP761  ALA762  ILE779  LEU786  VAL792 
 PHE793  MET794  SER795  GLU796  ALA797  LYS798  CYS799  TRP800  GLU811  SER814 

> <Gold.Protein.RotatedAtoms>
  152.2652  134.7992  160.0423 H   0  0  0  0  0  0  0  0  0  0  0  0  # atno 6907 bound_to 6896
  151.8624  133.3454  159.3716 H   0  0  0  0  0  0  0  0  0  0  0  0  # atno 6908 bound_to 6896
  150.7131  134.5121  159.5656 H   0  0  0  0  0  0  0  0  0  0  0  0  # atno 6909 bound_to 6896
  144.7139  140.0656  143.6431 H   0  0  0  0  0  0  0  0  0  0  0  0  # atno 7974 bound_to 7965
  156.1803  140.1671  156.8286 H   0  0  0  0  0  0  0  0  0  0  0  0  # atno 8008 bound_to 7997
  154.5353  140.0748  156.8449 H   0  0  0  0  0  0  0  0  0  0  0  0  # atno 8009 bound_to 7997
  155.3324  140.3380  155.4242 H   0  0  0  0  0  0  0  0  0  0  0  0  # atno 8010 bound_to 7997
  139.6155  144.7091  151.2748 H   0  0  0  0  0  0  0  0  0  0  0  0  # atno 10167 bound_to 10162
  157.2393  131.0756  151.1803 H   0  0  0  0  0  0  0  0  0  0  0  0  # atno 10718 bound_to 10713
  154.7309  135.3046  154.8892 H   0  0  0  0  0  0  0  0  0  0  0  0  # atno 10763 bound_to 10752
  153.9735  135.6739  153.4752 H   0  0  0  0  0  0  0  0  0  0  0  0  # atno 10764 bound_to 10752
  153.0918  135.4956  154.8624 H   0  0  0  0  0  0  0  0  0  0  0  0  # atno 10765 bound_to 10752
  140.1172  134.4877  155.8627 H   0  0  0  0  0  0  0  0  0  0  0  0  # atno 11005 bound_to 11000
  145.9827  139.2954  143.1032 LP  0  0  0  0  0  0  0  0  0  0  0  0  # atno 17320 bound_to 7965
  145.8992  140.9254  143.0512 LP  0  0  0  0  0  0  0  0  0  0  0  0  # atno 17321 bound_to 7965
  140.7348  143.6755  150.8045 LP  0  0  0  0  0  0  0  0  0  0  0  0  # atno 17342 bound_to 10162
  140.0357  143.5398  152.2740 LP  0  0  0  0  0  0  0  0  0  0  0  0  # atno 17343 bound_to 10162
  157.3395  130.7026  149.6373 LP  0  0  0  0  0  0  0  0  0  0  0  0  # atno 17370 bound_to 10713
  155.9671  130.4284  150.4786 LP  0  0  0  0  0  0  0  0  0  0  0  0  # atno 17371 bound_to 10713
  141.2144  133.6748  156.6819 LP  0  0  0  0  0  0  0  0  0  0  0  0  # atno 17394 bound_to 11000
  140.3012  134.8162  157.4099 LP  0  0  0  0  0  0  0  0  0  0  0  0  # atno 17395 bound_to 11000

$$$$
