AV-unprocessed.smi:1826|AV-procd|sdf|7415|dock6
  -GOLD-   22720 9 93D 1   1.00000     0.00000
 Structure written by MMmdl.
 39 41  0  0  0  0  0  0  0  0  1 V2000
  152.8512  138.8930  155.7022 O   0  0  0  0  0  0  0  0  0  0  0  0
  151.6053  139.3828  156.1493 C   0  0  0  0  0  0  0  0  0  0  0  0
  151.7441  140.5643  157.0608 C   0  0  0  0  0  0  0  0  0  0  0  0
  152.3109  140.4533  158.2628 N   0  0  0  0  0  0  0  0  0  0  0  0
  152.1843  141.7272  158.7788 C   0  0  0  0  0  0  0  0  0  0  0  0
  152.5866  142.2555  160.0263 C   0  0  0  0  0  0  0  0  0  0  0  0
  152.3375  143.6068  160.3437 C   0  0  0  0  0  0  0  0  0  0  0  0
  151.6793  144.4458  159.4220 C   0  0  0  0  0  0  0  0  0  0  0  0
  151.2693  143.9385  158.1746 C   0  0  0  0  0  0  0  0  0  0  0  0
  151.5304  142.5918  157.8563 C   0  0  0  0  0  0  0  0  0  0  0  0
  151.2845  141.8007  156.7357 N   0  0  0  0  0  0  0  0  0  0  0  0
  150.6390  142.2344  155.4993 C   0  0  0  0  0  0  0  0  0  0  0  0
  149.5254  141.2836  154.9962 C   0  0  2  0  0  0  0  0  0  0  0  0
  149.7565  140.9125  153.6515 O   0  0  0  0  0  0  0  0  0  0  0  0
  148.1238  141.8374  155.2240 C   0  0  0  0  0  0  0  0  0  0  0  0
  147.6236  142.0516  156.5282 C   0  0  0  0  0  0  0  0  0  0  0  0
  146.3154  142.5362  156.7185 C   0  0  0  0  0  0  0  0  0  0  0  0
  145.4883  142.8123  155.6085 C   0  0  0  0  0  0  0  0  0  0  0  0
  144.0731  143.3360  155.8036 C   0  0  0  0  0  0  0  0  0  0  0  0
  143.9225  144.4636  155.1100 F   0  0  0  0  0  0  0  0  0  0  0  0
  143.1828  142.4428  155.3703 F   0  0  0  0  0  0  0  0  0  0  0  0
  143.8205  143.5863  157.0889 F   0  0  0  0  0  0  0  0  0  0  0  0
  145.9927  142.6103  154.3062 C   0  0  0  0  0  0  0  0  0  0  0  0
  147.3008  142.1253  154.1152 C   0  0  0  0  0  0  0  0  0  0  0  0
  153.0272  138.0755  156.1420 H   0  0  0  0  0  0  0  0  0  0  0  0
  151.0124  139.6681  155.2795 H   0  0  0  0  0  0  0  0  0  0  0  0
  151.0613  138.5814  156.6450 H   0  0  0  0  0  0  0  0  0  0  0  0
  153.0864  141.6191  160.7413 H   0  0  0  0  0  0  0  0  0  0  0  0
  152.6505  144.0004  161.2998 H   0  0  0  0  0  0  0  0  0  0  0  0
  151.4898  145.4796  159.6723 H   0  0  0  0  0  0  0  0  0  0  0  0
  150.7660  144.5809  157.4679 H   0  0  0  0  0  0  0  0  0  0  0  0
  150.2318  143.2345  155.6471 H   0  0  0  0  0  0  0  0  0  0  0  0
  151.4070  142.3429  154.7329 H   0  0  0  0  0  0  0  0  0  0  0  0
  149.5983  140.3600  155.5717 H   0  0  0  0  0  0  0  0  0  0  0  0
  149.2146  140.1647  153.4508 H   0  0  0  0  0  0  0  0  0  0  0  0
  148.2332  141.8297  157.3919 H   0  0  0  0  0  0  0  0  0  0  0  0
  145.9509  142.6896  157.7234 H   0  0  0  0  0  0  0  0  0  0  0  0
  145.3746  142.8246  153.4466 H   0  0  0  0  0  0  0  0  0  0  0  0
  147.6677  141.9656  153.1119 H   0  0  0  0  0  0  0  0  0  0  0  0
  1  2  1  0  0  0  0
  1 25  1  0  0  0  0
  2  3  1  0  0  0  0
  2 26  1  0  0  0  0
  2 27  1  0  0  0  0
  3 11  1  0  0  0  0
  3  4  2  0  0  0  0
  4  5  1  0  0  0  0
  5 10  2  0  0  0  0
  5  6  1  0  0  0  0
  6  7  2  0  0  0  0
  6 28  1  0  0  0  0
  7  8  1  0  0  0  0
  7 29  1  0  0  0  0
  8  9  2  0  0  0  0
  8 30  1  0  0  0  0
  9 10  1  0  0  0  0
  9 31  1  0  0  0  0
 10 11  1  0  0  0  0
 11 12  1  0  0  0  0
 12 13  1  0  0  0  0
 12 32  1  0  0  0  0
 12 33  1  0  0  0  0
 13 14  1  0  0  0  0
 13 15  1  0  0  0  0
 13 34  1  0  0  0  0
 14 35  1  0  0  0  0
 15 24  1  0  0  0  0
 15 16  2  0  0  0  0
 16 17  1  0  0  0  0
 16 36  1  0  0  0  0
 17 18  2  0  0  0  0
 17 37  1  0  0  0  0
 18 19  1  0  0  0  0
 18 23  1  0  0  0  0
 19 20  1  0  0  0  0
 19 21  1  0  0  0  0
 19 22  1  0  0  0  0
 23 24  2  0  0  0  0
 23 38  1  0  0  0  0
 24 39  1  0  0  0  0
M  END
> <s_m_source_file>
AV-unprocessed.smi

> <i_m_source_file_index>
1826

> <i_lp_mmshare_version>
43012

> <i_f3d_flags>
0

> <s_epik_input>
W2NIXTFbY0hdW2NIXVtjSF1jKGMxMiluKGMobjIpW0NIMl1bT0hdKVtDSDJdW0NASF0oW09IXSljM1tjSF1bY0hdYyhDKEYpKEYpRilbY0hdW2NIXTM=

> <s_epik_cmdline>
J2VwaWtfcHl0aG9uJywgJy1waCcsICc3LjAnLCAnLXRuJywgJzgnLCAnLW1hJywgJzIwMCcsICctbWV0YWxfYmluZGluZycsICctaW1hZScsICc8aW5maWxlLm1hZT4nLCAnLW9tYWUnLCAnPG91dGZpbGUubWFlPic=

> <r_epik_Ionization_Penalty>
0.0634718

> <r_epik_Ionization_Penalty_Charging>
0

> <r_epik_Ionization_Penalty_Neutral>
0.0634718

> <r_epik_State_Penalty>
0.0551572

> <r_epik_Charging_Adjusted_Penalty>
0.0551572

> <i_epik_Tot_Q>
0

> <i_epik_Tot_abs_Q>
0

> <r_epik_Metal_State_Penalty>
5.78034e-05

> <b_epik_Metal_Only>
0

> <s_lp_Force_Field>
OPLS_2005

> <r_lp_Energy>
13.2523

> <b_lp_Chiralities_Consistent>
1

> <s_lp_Variant>
AV-unprocessed.smi:1826-1

> <Gold.Version>
5.8.1

> <Gold.Id.Protein>
6NUR|6NUR_protein|mol2

> <Gold.PLP.Fitness>
50.8571

> <Gold.PLP.PLP>
-45.7356

> <Gold.PLP.part.hbond>
-3.8200

> <Gold.PLP.part.metal>
0.0000

> <Gold.PLP.part.buried>
-1.0911

> <Gold.PLP.part.nonpolar>
-38.9623

> <Gold.PLP.part.repulsive>
0.0000

> <Gold.PLP.ligand.clash>
0.6477

> <Gold.PLP.ligand.torsion>
1.0788

> <Gold.PLP.Chemscore.Hbond>
2.3588

> <Gold.PLP.Chemscore.CHOScore>
0.0000

> <Gold.PLP.Chemscore.Metal>
0.0000

> <Gold.Chemscore.Hbonds>
donor molecule, donor type, donor heavy atom, donor atom, acceptor molecule, acceptor atom, score
      P1  H  7989  7998       L1    14  0.37
      P1  H  7997  8008       L1     1  1.00
      P1  H  8011  8017       L1    14  1.00

> <Gold.PLP.Chemscore.Internal.Correction>
0.8506

> <Gold.Rescore>
     Score         DG    S(hbond)    S(metal)    S(lipo)     H(rot)  DE(clash)    DE(int)     intcor
     14.46     -16.40       1.63        0.00     110.48       2.91       0.13       1.81       ----

> <Gold.Chemscore.Fitness>
14.4554

> <Gold.Chemscore.DG>
-16.3989

> <Gold.Chemscore.ZeroCoef>
-5.4800

> <Gold.Chemscore.Hbond>
1.6326

> <Gold.Chemscore.Metal>
0.0000

> <Gold.Chemscore.Lipo>
110.4783

> <Gold.Chemscore.Internal_Hbond>
0.0000

> <Gold.Chemscore.DEClash>
0.1335

> <Gold.Chemscore.DEInternal>
1.8100

> <Gold.Chemscore.Rot>
2.9141

> <Gold.Chemscore.Internal.Correction>
   9.000000E+99

> <Gold.Chemscore.Hbonds>
donor molecule, donor type, donor heavy atom, donor atom, acceptor molecule, acceptor atom, score
      L1  H    14    35       P1  7957  0.01
      P1  H  7989  7998       L1    14  0.18
      P1  H  7997  8008       L1     1  0.37
      P1  H  8011  8017       L1    14  0.81

> <Gold.Chemscore.Hbond.Weighted>
-5.4529

> <Gold.Chemscore.Metal.Weighted>
-0.0000

> <Gold.Chemscore.Lipo.Weighted>
-12.9260

> <Gold.Chemscore.Internal_Hbond.Weighted>
0.0000

> <Gold.Chemscore.DEClash.Weighted>
0.1335

> <Gold.Chemscore.DEInternal.Weighted>
1.8100

> <Gold.Chemscore.Rot.Weighted>
7.4600

> <Gold.Chemscore.Internal.Correction.Weighted>
   9.000000E+99

> <Gold.Protein.RotatedTorsions>
[ 6907 6896 6895 6894 ] final  110.66 input  -60.11 | X-H torsion
[ 7974 7965 7964 7962 ] final   78.39 input  175.53 | X-H torsion
[ 8008 7997 7996 7995 ] final  -40.34 input   59.86 | X-H torsion
[ 10167 10162 10161 10158 ] final -108.23 input  -65.29 | X-H torsion
[ 10718 10713 10712 10709 ] final   34.56 input   66.30 | X-H torsion
[ 10763 10752 10751 10750 ] final  135.81 input  -60.55 | X-H torsion
[ 11005 11000 10999 10996 ] final   66.79 input  -57.11 | X-H torsion

> <Gold.Protein.ActiveResidues>
 VAL166  LYS551  ARG553  GLY616  TRP617  ASP618  TYR619  PRO620  LYS621  CYS622 
 ASP623  PHE694  ASN695  SER759  ASP760  ASP761  ALA762  ILE779  LEU786  VAL792 
 PHE793  MET794  SER795  GLU796  ALA797  LYS798  CYS799  TRP800  GLU811  SER814 

> <Gold.Protein.RotatedAtoms>
  152.5008  133.8768  159.7325 H   0  0  0  0  0  0  0  0  0  0  0  0  # atno 6907 bound_to 6896
  150.9240  133.6837  159.2832 H   0  0  0  0  0  0  0  0  0  0  0  0  # atno 6908 bound_to 6896
  151.4204  135.1001  159.9664 H   0  0  0  0  0  0  0  0  0  0  0  0  # atno 6909 bound_to 6896
  145.6777  139.2515  143.1832 H   0  0  0  0  0  0  0  0  0  0  0  0  # atno 7974 bound_to 7965
  154.4013  140.1528  156.3011 H   0  0  0  0  0  0  0  0  0  0  0  0  # atno 8008 bound_to 7997
  155.8699  140.3449  155.5792 H   0  0  0  0  0  0  0  0  0  0  0  0  # atno 8009 bound_to 7997
  155.7786  140.0840  157.2061 H   0  0  0  0  0  0  0  0  0  0  0  0  # atno 8010 bound_to 7997
  140.1684  143.4063  152.1373 H   0  0  0  0  0  0  0  0  0  0  0  0  # atno 10167 bound_to 10162
  157.3119  130.7403  149.6730 H   0  0  0  0  0  0  0  0  0  0  0  0  # atno 10718 bound_to 10713
  153.8461  135.3085  155.3429 H   0  0  0  0  0  0  0  0  0  0  0  0  # atno 10763 bound_to 10752
  154.7911  135.4782  154.0059 H   0  0  0  0  0  0  0  0  0  0  0  0  # atno 10764 bound_to 10752
  153.1546  135.6849  153.8924 H   0  0  0  0  0  0  0  0  0  0  0  0  # atno 10765 bound_to 10752
  139.9810  134.6743  156.0262 H   0  0  0  0  0  0  0  0  0  0  0  0  # atno 11005 bound_to 11000
  146.0991  140.7565  142.9558 LP  0  0  0  0  0  0  0  0  0  0  0  0  # atno 17320 bound_to 7965
  144.7036  140.3759  143.7136 LP  0  0  0  0  0  0  0  0  0  0  0  0  # atno 17321 bound_to 7965
  139.5349  144.7199  151.4927 LP  0  0  0  0  0  0  0  0  0  0  0  0  # atno 17342 bound_to 10162
  140.6598  143.8522  150.6875 LP  0  0  0  0  0  0  0  0  0  0  0  0  # atno 17343 bound_to 10162
  155.9678  130.4249  150.4629 LP  0  0  0  0  0  0  0  0  0  0  0  0  # atno 17370 bound_to 10713
  157.2629  131.0570  151.2309 LP  0  0  0  0  0  0  0  0  0  0  0  0  # atno 17371 bound_to 10713
  141.1482  133.6552  156.3932 LP  0  0  0  0  0  0  0  0  0  0  0  0  # atno 17394 bound_to 11000
  140.5096  134.6408  157.5279 LP  0  0  0  0  0  0  0  0  0  0  0  0  # atno 17395 bound_to 11000

$$$$
