AV-unprocessed.smi:1462|AV-procd|sdf|5933|dock1
  -GOLD-   22720 6 13D 1   1.00000     0.00000
 Structure written by MMmdl.
 41 42  0  0  0  0  0  0  0  0  1 V2000
  146.4499  138.9397  151.1526 C   0  0  0  0  0  0  0  0  0  0  0  0
  146.7276  138.4173  152.4818 N   0  0  0  0  0  0  0  0  0  0  0  0
  145.6080  137.8016  153.1774 C   0  0  0  0  0  0  0  0  0  0  0  0
  147.4385  139.3169  153.2871 C   0  0  0  0  0  0  0  0  0  0  0  0
  148.6621  138.9520  153.8930 C   0  0  0  0  0  0  0  0  0  0  0  0
  149.3338  139.8991  154.6893 C   0  0  0  0  0  0  0  0  0  0  0  0
  148.7647  141.1849  154.8486 C   0  0  0  0  0  0  0  0  0  0  0  0
  149.3331  142.2192  155.6398 N   0  0  0  0  0  0  0  0  0  0  0  0
  150.2898  142.1246  156.5790 C   0  0  0  0  0  0  0  0  0  0  0  0
  150.8734  141.0884  156.8964 O   0  0  0  0  0  0  0  0  0  0  0  0
  150.5499  143.3225  157.1223 N   0  0  0  0  0  0  0  0  0  0  0  0
  151.5421  143.5966  158.1586 C   0  0  0  0  0  0  0  0  0  0  0  0
  151.5422  142.4557  159.1937 C   0  0  0  0  0  0  0  0  0  0  0  0
  152.5142  142.7450  160.3492 C   0  0  0  0  0  0  0  0  0  0  0  0
  152.2029  144.0942  161.0158 C   0  0  0  0  0  0  0  0  0  0  0  0
  152.2081  145.2355  159.9864 C   0  0  0  0  0  0  0  0  0  0  0  0
  151.2365  144.9494  158.8298 C   0  0  0  0  0  0  0  0  0  0  0  0
  147.5324  141.4405  154.2122 C   0  0  0  0  0  0  0  0  0  0  0  0
  146.8837  140.5378  153.4466 N   0  0  0  0  0  0  0  0  0  0  0  0
  147.3456  139.3810  150.7136 H   0  0  0  0  0  0  0  0  0  0  0  0
  145.6696  139.7006  151.1858 H   0  0  0  0  0  0  0  0  0  0  0  0
  146.1147  138.1365  150.4958 H   0  0  0  0  0  0  0  0  0  0  0  0
  145.9198  137.4143  154.1482 H   0  0  0  0  0  0  0  0  0  0  0  0
  145.2146  136.9687  152.5940 H   0  0  0  0  0  0  0  0  0  0  0  0
  144.8017  138.5190  153.3345 H   0  0  0  0  0  0  0  0  0  0  0  0
  149.0797  137.9653  153.7559 H   0  0  0  0  0  0  0  0  0  0  0  0
  150.2577  139.6158  155.1687 H   0  0  0  0  0  0  0  0  0  0  0  0
  149.0099  143.1518  155.4281 H   0  0  0  0  0  0  0  0  0  0  0  0
  150.0196  144.1142  156.7887 H   0  0  0  0  0  0  0  0  0  0  0  0
  152.5409  143.6529  157.7218 H   0  0  0  0  0  0  0  0  0  0  0  0
  150.5369  142.3190  159.5948 H   0  0  0  0  0  0  0  0  0  0  0  0
  151.8139  141.5152  158.7126 H   0  0  0  0  0  0  0  0  0  0  0  0
  152.4621  141.9445  161.0878 H   0  0  0  0  0  0  0  0  0  0  0  0
  153.5378  142.7514  159.9723 H   0  0  0  0  0  0  0  0  0  0  0  0
  151.2283  144.0452  161.5032 H   0  0  0  0  0  0  0  0  0  0  0  0
  152.9314  144.2982  161.8011 H   0  0  0  0  0  0  0  0  0  0  0  0
  151.9422  146.1750  160.4715 H   0  0  0  0  0  0  0  0  0  0  0  0
  153.2164  145.3662  159.5916 H   0  0  0  0  0  0  0  0  0  0  0  0
  151.2945  145.7528  158.0946 H   0  0  0  0  0  0  0  0  0  0  0  0
  150.2138  144.9516  159.2100 H   0  0  0  0  0  0  0  0  0  0  0  0
  147.0521  142.4027  154.3148 H   0  0  0  0  0  0  0  0  0  0  0  0
  1  2  1  0  0  0  0
  1 20  1  0  0  0  0
  1 21  1  0  0  0  0
  1 22  1  0  0  0  0
  2  3  1  0  0  0  0
  2  4  1  0  0  0  0
  3 23  1  0  0  0  0
  3 24  1  0  0  0  0
  3 25  1  0  0  0  0
  4 19  1  0  0  0  0
  4  5  2  0  0  0  0
  5  6  1  0  0  0  0
  5 26  1  0  0  0  0
  6  7  2  0  0  0  0
  6 27  1  0  0  0  0
  7  8  1  0  0  0  0
  7 18  1  0  0  0  0
  8  9  1  0  0  0  0
  8 28  1  0  0  0  0
  9 10  2  0  0  0  0
  9 11  1  0  0  0  0
 11 12  1  0  0  0  0
 11 29  1  0  0  0  0
 12 17  1  0  0  0  0
 12 13  1  0  0  0  0
 12 30  1  0  0  0  0
 13 14  1  0  0  0  0
 13 31  1  0  0  0  0
 13 32  1  0  0  0  0
 14 15  1  0  0  0  0
 14 33  1  0  0  0  0
 14 34  1  0  0  0  0
 15 16  1  0  0  0  0
 15 35  1  0  0  0  0
 15 36  1  0  0  0  0
 16 17  1  0  0  0  0
 16 37  1  0  0  0  0
 16 38  1  0  0  0  0
 17 39  1  0  0  0  0
 17 40  1  0  0  0  0
 18 19  2  0  0  0  0
 18 41  1  0  0  0  0
M  END
> <s_m_source_file>
AV-unprocessed.smi

> <i_m_source_file_index>
1462

> <i_lp_mmshare_version>
43012

> <i_f3d_flags>
0

> <s_epik_input>
W0NIM11OKFtDSDNdKWMxW2NIXVtjSF1jKFtjSF1uMSlbTkhdQyg9TylbTkhdW0NIXTJbQ0gyXVtDSDJdW0NIMl1bQ0gyXVtDSDJdMg==

> <s_epik_cmdline>
J2VwaWtfcHl0aG9uJywgJy1waCcsICc3LjAnLCAnLXRuJywgJzgnLCAnLW1hJywgJzIwMCcsICctbWV0YWxfYmluZGluZycsICctaW1hZScsICc8aW5maWxlLm1hZT4nLCAnLW9tYWUnLCAnPG91dGZpbGUubWFlPic=

> <r_lp_tautomer_probability>
1

> <r_epik_Ionization_Penalty>
0.630533

> <r_epik_Ionization_Penalty_Charging>
0

> <r_epik_Ionization_Penalty_Neutral>
0.630533

> <r_epik_State_Penalty>
0.646182

> <r_epik_Charging_Adjusted_Penalty>
0.646182

> <i_epik_Tot_Q>
0

> <i_epik_Tot_abs_Q>
0

> <r_epik_Metal_State_Penalty>
0.308859

> <b_epik_Metal_Only>
0

> <s_lp_Force_Field>
OPLS_2005

> <r_lp_Energy>
16.9169

> <b_lp_Chiralities_Consistent>
1

> <s_lp_Variant>
AV-unprocessed.smi:1462-2

> <Gold.Version>
5.8.1

> <Gold.Id.Protein>
6NUR|6NUR_protein|mol2

> <Gold.PLP.Fitness>
44.8472

> <Gold.PLP.PLP>
-39.8897

> <Gold.PLP.part.hbond>
-2.0000

> <Gold.PLP.part.metal>
0.0000

> <Gold.PLP.part.buried>
-0.9878

> <Gold.PLP.part.nonpolar>
-37.4907

> <Gold.PLP.part.repulsive>
0.7607

> <Gold.PLP.ligand.clash>
0.0000

> <Gold.PLP.ligand.torsion>
0.6124

> <Gold.PLP.Chemscore.Hbond>
1.9920

> <Gold.PLP.Chemscore.CHOScore>
0.0000

> <Gold.PLP.Chemscore.Metal>
0.0000

> <Gold.Chemscore.Hbonds>
donor molecule, donor type, donor heavy atom, donor atom, acceptor molecule, acceptor atom, score
      L1  H     8    28       P1  8028  1.00
      L1  H    11    29       P1  8028  0.98

> <Gold.PLP.Chemscore.Internal.Correction>
0.2063

> <Gold.Rescore>
     Score         DG    S(hbond)    S(metal)    S(lipo)     H(rot)  DE(clash)    DE(int)     intcor
     18.22     -21.94       1.93        0.00     111.46       1.18       0.58       3.14       ----

> <Gold.Chemscore.Fitness>
18.2171

> <Gold.Chemscore.DG>
-21.9379

> <Gold.Chemscore.ZeroCoef>
-5.4800

> <Gold.Chemscore.Hbond>
1.9305

> <Gold.Chemscore.Metal>
0.0000

> <Gold.Chemscore.Lipo>
111.4615

> <Gold.Chemscore.Internal_Hbond>
0.0000

> <Gold.Chemscore.DEClash>
0.5798

> <Gold.Chemscore.DEInternal>
3.1409

> <Gold.Chemscore.Rot>
1.1840

> <Gold.Chemscore.Internal.Correction>
   9.000000E+99

> <Gold.Chemscore.Hbonds>
donor molecule, donor type, donor heavy atom, donor atom, acceptor molecule, acceptor atom, score
      L1  H     8    28       P1  8028  0.96
      L1  H    11    29       P1  8028  0.90

> <Gold.Chemscore.Hbond.Weighted>
-6.4480

> <Gold.Chemscore.Metal.Weighted>
-0.0000

> <Gold.Chemscore.Lipo.Weighted>
-13.0410

> <Gold.Chemscore.Internal_Hbond.Weighted>
0.0000

> <Gold.Chemscore.DEClash.Weighted>
0.5798

> <Gold.Chemscore.DEInternal.Weighted>
3.1409

> <Gold.Chemscore.Rot.Weighted>
3.0311

> <Gold.Chemscore.Internal.Correction.Weighted>
   9.000000E+99

> <Gold.Protein.RotatedTorsions>
[ 6907 6896 6895 6894 ] final   54.00 input  -60.11 | X-H torsion
[ 7974 7965 7964 7962 ] final   86.56 input  175.53 | X-H torsion
[ 8008 7997 7996 7995 ] final  144.27 input   59.86 | X-H torsion
[ 10167 10162 10161 10158 ] final   23.47 input  -65.29 | X-H torsion
[ 10718 10713 10712 10709 ] final  -26.67 input   66.30 | X-H torsion
[ 10763 10752 10751 10750 ] final  -80.42 input  -60.55 | X-H torsion
[ 11005 11000 10999 10996 ] final   63.64 input  -57.11 | X-H torsion

> <Gold.Protein.ActiveResidues>
 VAL166  LYS551  ARG553  GLY616  TRP617  ASP618  TYR619  PRO620  LYS621  CYS622 
 ASP623  PHE694  ASN695  SER759  ASP760  ASP761  ALA762  ILE779  LEU786  VAL792 
 PHE793  MET794  SER795  GLU796  ALA797  LYS798  CYS799  TRP800  GLU811  SER814 

> <Gold.Protein.RotatedAtoms>
  152.3395  134.7154  160.0267 H   0  0  0  0  0  0  0  0  0  0  0  0  # atno 6907 bound_to 6896
  151.7544  133.3324  159.3408 H   0  0  0  0  0  0  0  0  0  0  0  0  # atno 6908 bound_to 6896
  150.7471  134.6096  159.6123 H   0  0  0  0  0  0  0  0  0  0  0  0  # atno 6909 bound_to 6896
  145.5706  139.2313  143.2408 H   0  0  0  0  0  0  0  0  0  0  0  0  # atno 7974 bound_to 7965
  156.2912  140.2240  156.5026 H   0  0  0  0  0  0  0  0  0  0  0  0  # atno 8008 bound_to 7997
  154.7676  140.0469  157.1047 H   0  0  0  0  0  0  0  0  0  0  0  0  # atno 8009 bound_to 7997
  154.9913  140.3090  155.4908 H   0  0  0  0  0  0  0  0  0  0  0  0  # atno 8010 bound_to 7997
  140.5266  143.9913  150.6443 H   0  0  0  0  0  0  0  0  0  0  0  0  # atno 10167 bound_to 10162
  156.4481  130.4478  149.7008 H   0  0  0  0  0  0  0  0  0  0  0  0  # atno 10718 bound_to 10713
  154.5509  135.5662  153.6921 H   0  0  0  0  0  0  0  0  0  0  0  0  # atno 10763 bound_to 10752
  152.9989  135.6250  154.2375 H   0  0  0  0  0  0  0  0  0  0  0  0  # atno 10764 bound_to 10752
  154.2310  135.2866  155.2870 H   0  0  0  0  0  0  0  0  0  0  0  0  # atno 10765 bound_to 10752
  140.0011  134.6441  155.9929 H   0  0  0  0  0  0  0  0  0  0  0  0  # atno 11005 bound_to 11000
  146.1787  140.6532  142.9199 LP  0  0  0  0  0  0  0  0  0  0  0  0  # atno 17320 bound_to 7965
  144.7440  140.5017  143.6849 LP  0  0  0  0  0  0  0  0  0  0  0  0  # atno 17321 bound_to 7965
  140.3276  143.3098  152.0720 LP  0  0  0  0  0  0  0  0  0  0  0  0  # atno 17342 bound_to 10162
  139.4940  144.6531  151.6632 LP  0  0  0  0  0  0  0  0  0  0  0  0  # atno 17343 bound_to 10162
  156.3845  130.7596  151.2592 LP  0  0  0  0  0  0  0  0  0  0  0  0  # atno 17370 bound_to 10713
  157.7504  131.0286  150.4055 LP  0  0  0  0  0  0  0  0  0  0  0  0  # atno 17371 bound_to 10713
  141.1642  133.6537  156.4423 LP  0  0  0  0  0  0  0  0  0  0  0  0  # atno 17394 bound_to 11000
  140.4726  134.6739  157.5136 LP  0  0  0  0  0  0  0  0  0  0  0  0  # atno 17395 bound_to 11000

$$$$
