AV-unprocessed.smi:354|AV-procd|sdf|2403|dock9
  -GOLD-   2262022333D 1   1.00000     0.00000
 Structure written by MMmdl.
 36 38  0  0  0  0  0  0  0  0  1 V2000
  152.0799  137.0906  153.8835 O   0  0  0  0  0  0  0  0  0  0  0  0
  151.3672  137.5197  155.0232 C   0  0  0  0  0  0  0  0  0  0  0  0
  150.3131  138.5381  154.7085 C   0  0  0  0  0  0  0  0  0  0  0  0
  149.2713  138.2462  153.9283 N   0  0  0  0  0  0  0  0  0  0  0  0
  148.5528  139.4252  153.9244 C   0  0  0  0  0  0  0  0  0  0  0  0
  147.3382  139.7583  153.2829 C   0  0  0  0  0  0  0  0  0  0  0  0
  146.7803  141.0447  153.4341 C   0  0  0  0  0  0  0  0  0  0  0  0
  147.4264  142.0138  154.2286 C   0  0  0  0  0  0  0  0  0  0  0  0
  148.6378  141.7029  154.8752 C   0  0  0  0  0  0  0  0  0  0  0  0
  149.1928  140.4182  154.7181 C   0  0  0  0  0  0  0  0  0  0  0  0
  150.3444  139.8038  155.2009 N   0  0  0  0  0  0  0  0  0  0  0  0
  151.3389  140.4231  156.0689 C   0  0  0  0  0  0  0  0  0  0  0  0
  150.9200  140.4270  157.5536 C   0  0  2  0  0  0  0  0  0  0  0  0
  149.5987  140.9150  157.6843 O   0  0  0  0  0  0  0  0  0  0  0  0
  151.9155  141.2074  158.4010 C   0  0  0  0  0  0  0  0  0  0  0  0
  152.6637  140.5549  159.4068 C   0  0  0  0  0  0  0  0  0  0  0  0
  153.5758  141.2788  160.1987 C   0  0  0  0  0  0  0  0  0  0  0  0
  153.7444  142.6612  159.9932 C   0  0  0  0  0  0  0  0  0  0  0  0
  152.9979  143.3192  158.9974 C   0  0  0  0  0  0  0  0  0  0  0  0
  152.0841  142.5972  158.2046 C   0  0  0  0  0  0  0  0  0  0  0  0
  151.3674  143.2486  157.2572 F   0  0  0  0  0  0  0  0  0  0  0  0
  151.4591  136.8776  153.2041 H   0  0  0  0  0  0  0  0  0  0  0  0
  150.8993  136.6483  155.4827 H   0  0  0  0  0  0  0  0  0  0  0  0
  152.0605  137.9223  155.7617 H   0  0  0  0  0  0  0  0  0  0  0  0
  146.8335  139.0218  152.6751 H   0  0  0  0  0  0  0  0  0  0  0  0
  145.8513  141.2884  152.9401 H   0  0  0  0  0  0  0  0  0  0  0  0
  146.9915  142.9960  154.3415 H   0  0  0  0  0  0  0  0  0  0  0  0
  149.1340  142.4435  155.4847 H   0  0  0  0  0  0  0  0  0  0  0  0
  152.2712  139.8699  155.9500 H   0  0  0  0  0  0  0  0  0  0  0  0
  151.5459  141.4387  155.7342 H   0  0  0  0  0  0  0  0  0  0  0  0
  150.8928  139.4003  157.9182 H   0  0  0  0  0  0  0  0  0  0  0  0
  149.6128  141.6705  158.2515 H   0  0  0  0  0  0  0  0  0  0  0  0
  152.5385  139.4956  159.5770 H   0  0  0  0  0  0  0  0  0  0  0  0
  154.1449  140.7737  160.9652 H   0  0  0  0  0  0  0  0  0  0  0  0
  154.4433  143.2170  160.6008 H   0  0  0  0  0  0  0  0  0  0  0  0
  153.1244  144.3806  158.8428 H   0  0  0  0  0  0  0  0  0  0  0  0
  1  2  1  0  0  0  0
  1 22  1  0  0  0  0
  2  3  1  0  0  0  0
  2 23  1  0  0  0  0
  2 24  1  0  0  0  0
  3 11  1  0  0  0  0
  3  4  2  0  0  0  0
  4  5  1  0  0  0  0
  5 10  2  0  0  0  0
  5  6  1  0  0  0  0
  6  7  2  0  0  0  0
  6 25  1  0  0  0  0
  7  8  1  0  0  0  0
  7 26  1  0  0  0  0
  8  9  2  0  0  0  0
  8 27  1  0  0  0  0
  9 10  1  0  0  0  0
  9 28  1  0  0  0  0
 10 11  1  0  0  0  0
 11 12  1  0  0  0  0
 12 13  1  0  0  0  0
 12 29  1  0  0  0  0
 12 30  1  0  0  0  0
 13 14  1  0  0  0  0
 13 15  1  0  0  0  0
 13 31  1  0  0  0  0
 14 32  1  0  0  0  0
 15 20  1  0  0  0  0
 15 16  2  0  0  0  0
 16 17  1  0  0  0  0
 16 33  1  0  0  0  0
 17 18  2  0  0  0  0
 17 34  1  0  0  0  0
 18 19  1  0  0  0  0
 18 35  1  0  0  0  0
 19 20  2  0  0  0  0
 19 36  1  0  0  0  0
 20 21  1  0  0  0  0
M  END
> <s_m_source_file>
AV-unprocessed.smi

> <i_m_source_file_index>
354

> <i_lp_mmshare_version>
43012

> <i_f3d_flags>
0

> <s_epik_input>
W2NIXTFbY0hdW2NIXVtjSF1jKGMxMiluKGMobjIpW0NIMl1bT0hdKVtDSDJdW0NASF0oW09IXSljM1tjSF1bY0hdW2NIXVtjSF1jM0Y=

> <s_epik_cmdline>
J2VwaWtfcHl0aG9uJywgJy1waCcsICc3LjAnLCAnLXRuJywgJzgnLCAnLW1hJywgJzIwMCcsICctbWV0YWxfYmluZGluZycsICctaW1hZScsICc8aW5maWxlLm1hZT4nLCAnLW9tYWUnLCAnPG91dGZpbGUubWFlPic=

> <r_epik_Ionization_Penalty>
0.0634722

> <r_epik_Ionization_Penalty_Charging>
0

> <r_epik_Ionization_Penalty_Neutral>
0.0634722

> <r_epik_State_Penalty>
0.0551572

> <r_epik_Charging_Adjusted_Penalty>
0.0551572

> <i_epik_Tot_Q>
0

> <i_epik_Tot_abs_Q>
0

> <r_epik_Metal_State_Penalty>
5.78034e-05

> <b_epik_Metal_Only>
0

> <s_lp_Force_Field>
OPLS_2005

> <r_lp_Energy>
13.1732

> <b_lp_Chiralities_Consistent>
1

> <s_lp_Variant>
AV-unprocessed.smi:354-1

> <Gold.Version>
5.8.1

> <Gold.Id.Protein>
6NUR|6NUR_protein|mol2

> <Gold.PLP.Fitness>
50.4623

> <Gold.PLP.PLP>
-45.2527

> <Gold.PLP.part.hbond>
-2.0000

> <Gold.PLP.part.metal>
0.0000

> <Gold.PLP.part.buried>
-2.2251

> <Gold.PLP.part.nonpolar>
-43.8051

> <Gold.PLP.part.repulsive>
1.8723

> <Gold.PLP.ligand.clash>
0.0000

> <Gold.PLP.ligand.torsion>
0.3705

> <Gold.PLP.Chemscore.Hbond>
1.9680

> <Gold.PLP.Chemscore.CHOScore>
0.0000

> <Gold.PLP.Chemscore.Metal>
0.0000

> <Gold.Chemscore.Hbonds>
donor molecule, donor type, donor heavy atom, donor atom, acceptor molecule, acceptor atom, score
      L1  H     1    22       P1  7949  0.91
      P1  H 10752 10763       L1     1  1.00

> <Gold.PLP.Chemscore.Internal.Correction>
0.0467

> <Gold.Rescore>
     Score         DG    S(hbond)    S(metal)    S(lipo)     H(rot)  DE(clash)    DE(int)     intcor
     14.03     -16.98       1.53        0.00     114.65       2.75       1.23       1.72       ----

> <Gold.Chemscore.Fitness>
14.0288

> <Gold.Chemscore.DG>
-16.9777

> <Gold.Chemscore.ZeroCoef>
-5.4800

> <Gold.Chemscore.Hbond>
1.5342

> <Gold.Chemscore.Metal>
0.0000

> <Gold.Chemscore.Lipo>
114.6454

> <Gold.Chemscore.Internal_Hbond>
0.0000

> <Gold.Chemscore.DEClash>
1.2258

> <Gold.Chemscore.DEInternal>
1.7231

> <Gold.Chemscore.Rot>
2.7500

> <Gold.Chemscore.Internal.Correction>
   9.000000E+99

> <Gold.Chemscore.Hbonds>
donor molecule, donor type, donor heavy atom, donor atom, acceptor molecule, acceptor atom, score
      L1  H     1    22       P1  7949  0.76
      P1  H 10752 10763       L1     1  0.42

> <Gold.Chemscore.Hbond.Weighted>
-5.1241

> <Gold.Chemscore.Metal.Weighted>
-0.0000

> <Gold.Chemscore.Lipo.Weighted>
-13.4135

> <Gold.Chemscore.Internal_Hbond.Weighted>
0.0000

> <Gold.Chemscore.DEClash.Weighted>
1.2258

> <Gold.Chemscore.DEInternal.Weighted>
1.7231

> <Gold.Chemscore.Rot.Weighted>
7.0399

> <Gold.Chemscore.Internal.Correction.Weighted>
   9.000000E+99

> <Gold.Protein.RotatedTorsions>
[ 6907 6896 6895 6894 ] final -121.35 input  -60.11 | X-H torsion
[ 7974 7965 7964 7962 ] final  109.40 input  175.53 | X-H torsion
[ 8008 7997 7996 7995 ] final -118.84 input   59.86 | X-H torsion
[ 10167 10162 10161 10158 ] final   92.08 input  -65.29 | X-H torsion
[ 10718 10713 10712 10709 ] final  -84.03 input   66.30 | X-H torsion
[ 10763 10752 10751 10750 ] final   21.77 input  -60.55 | X-H torsion
[ 11005 11000 10999 10996 ] final   20.95 input  -57.11 | X-H torsion

> <Gold.Protein.ActiveResidues>
 VAL166  LYS551  ARG553  GLY616  TRP617  ASP618  TYR619  PRO620  LYS621  CYS622 
 ASP623  PHE694  ASN695  SER759  ASP760  ASP761  ALA762  ILE779  LEU786  VAL792 
 PHE793  MET794  SER795  GLU796  ALA797  LYS798  CYS799  TRP800  GLU811  SER814 

> <Gold.Protein.RotatedAtoms>
  150.8475  133.7838  159.3037 H   0  0  0  0  0  0  0  0  0  0  0  0  # atno 6907 bound_to 6896
  151.5521  135.1065  159.9961 H   0  0  0  0  0  0  0  0  0  0  0  0  # atno 6908 bound_to 6896
  152.4526  133.7615  159.6805 H   0  0  0  0  0  0  0  0  0  0  0  0  # atno 6909 bound_to 6896
  145.2683  139.2676  143.3980 H   0  0  0  0  0  0  0  0  0  0  0  0  # atno 7974 bound_to 7965
  155.1061  140.0396  157.2711 H   0  0  0  0  0  0  0  0  0  0  0  0  # atno 8008 bound_to 7997
  154.6721  140.2614  155.6971 H   0  0  0  0  0  0  0  0  0  0  0  0  # atno 8009 bound_to 7997
  156.2662  140.2795  156.1233 H   0  0  0  0  0  0  0  0  0  0  0  0  # atno 8010 bound_to 7997
  139.8311  144.6686  150.9398 H   0  0  0  0  0  0  0  0  0  0  0  0  # atno 10167 bound_to 10162
  156.0011  130.4684  150.4347 H   0  0  0  0  0  0  0  0  0  0  0  0  # atno 10718 bound_to 10713
  153.0969  135.6662  153.9747 H   0  0  0  0  0  0  0  0  0  0  0  0  # atno 10763 bound_to 10752
  153.9328  135.3002  155.3446 H   0  0  0  0  0  0  0  0  0  0  0  0  # atno 10764 bound_to 10752
  154.7388  135.5089  153.9161 H   0  0  0  0  0  0  0  0  0  0  0  0  # atno 10765 bound_to 10752
  140.3970  134.1759  155.7663 H   0  0  0  0  0  0  0  0  0  0  0  0  # atno 11005 bound_to 11000
  146.3254  140.3118  142.8627 LP  0  0  0  0  0  0  0  0  0  0  0  0  # atno 17320 bound_to 7965
  144.9358  140.8024  143.5661 LP  0  0  0  0  0  0  0  0  0  0  0  0  # atno 17321 bound_to 7965
  140.7806  143.4000  151.1165 LP  0  0  0  0  0  0  0  0  0  0  0  0  # atno 17342 bound_to 10162
  139.7653  143.8574  152.3109 LP  0  0  0  0  0  0  0  0  0  0  0  0  # atno 17343 bound_to 10162
  157.2393  131.0522  151.2446 LP  0  0  0  0  0  0  0  0  0  0  0  0  # atno 17370 bound_to 10713
  157.3636  130.7144  149.6518 LP  0  0  0  0  0  0  0  0  0  0  0  0  # atno 17371 bound_to 10713
  141.1871  133.8289  157.1046 LP  0  0  0  0  0  0  0  0  0  0  0  0  # atno 17394 bound_to 11000
  140.0365  134.9876  157.0880 LP  0  0  0  0  0  0  0  0  0  0  0  0  # atno 17395 bound_to 11000

$$$$
