AV-unprocessed.smi:1471|AV-procd|sdf|5963|dock9
  -GOLD-   22720 6 53D 1   1.00000     0.00000
 Structure written by MMmdl.
 42 43  0  0  0  0  0  0  0  0  1 V2000
  149.6059  136.2159  163.7444 C   0  0  0  0  0  0  0  0  0  0  0  0
  149.5155  135.6447  162.3548 C   0  0  0  0  0  0  0  0  0  0  0  0
  149.5814  136.4864  161.3761 N   0  0  0  0  0  0  0  0  0  0  0  0
  149.5030  136.0689  160.0626 N   0  0  0  0  0  0  0  0  0  0  0  0
  149.5910  137.1593  159.0847 C   0  0  0  0  0  0  0  0  0  0  0  0
  150.8450  137.0368  158.1901 C   0  0  1  0  0  0  0  0  0  0  0  0
  150.5049  137.4199  156.8725 O   0  0  0  0  0  0  0  0  0  0  0  0
  151.9771  137.9640  158.6555 C   0  0  0  0  0  0  0  0  0  0  0  0
  151.5183  139.3070  158.6035 O   0  0  0  0  0  0  0  0  0  0  0  0
  152.4316  140.2050  157.9902 C   0  0  0  0  0  0  0  0  0  0  0  0
  152.2769  141.6372  158.4753 C   0  0  0  0  0  0  0  0  0  0  0  0
  151.0562  142.3191  158.2847 C   0  0  0  0  0  0  0  0  0  0  0  0
  150.9095  143.6478  158.7284 C   0  0  0  0  0  0  0  0  0  0  0  0
  151.9842  144.3020  159.3606 C   0  0  0  0  0  0  0  0  0  0  0  0
  153.2062  143.6276  159.5472 C   0  0  0  0  0  0  0  0  0  0  0  0
  153.3550  142.2988  159.1039 C   0  0  0  0  0  0  0  0  0  0  0  0
  154.5370  141.6625  159.2863 F   0  0  0  0  0  0  0  0  0  0  0  0
  149.3462  134.7734  159.6666 C   0  0  0  0  0  0  0  0  0  0  0  0
  149.2683  134.4472  158.4811 O   0  0  0  0  0  0  0  0  0  0  0  0
  149.2774  133.8243  160.7801 C   0  0  0  0  0  0  0  0  0  0  0  0
  149.1132  132.4555  160.4101 C   0  0  0  0  0  0  0  0  0  0  0  0
  148.9920  131.3486  160.0931 N   0  0  0  0  0  0  0  0  0  0  0  0
  149.3613  134.2207  162.0746 C   0  0  0  0  0  0  0  0  0  0  0  0
  149.2947  133.2745  163.2657 C   0  0  0  0  0  0  0  0  0  0  0  0
  148.7605  135.8938  164.3529 H   0  0  0  0  0  0  0  0  0  0  0  0
  149.6054  137.3072  163.7366 H   0  0  0  0  0  0  0  0  0  0  0  0
  150.5220  135.8888  164.2366 H   0  0  0  0  0  0  0  0  0  0  0  0
  148.6874  137.2125  158.4737 H   0  0  0  0  0  0  0  0  0  0  0  0
  149.6110  138.1067  159.6266 H   0  0  0  0  0  0  0  0  0  0  0  0
  151.2165  136.0116  158.1678 H   0  0  0  0  0  0  0  0  0  0  0  0
  150.1063  138.2761  156.9021 H   0  0  0  0  0  0  0  0  0  0  0  0
  152.2619  137.7279  159.6823 H   0  0  0  0  0  0  0  0  0  0  0  0
  152.8599  137.8219  158.0298 H   0  0  0  0  0  0  0  0  0  0  0  0
  153.4413  139.8757  158.2358 H   0  0  0  0  0  0  0  0  0  0  0  0
  152.3443  140.1486  156.9040 H   0  0  0  0  0  0  0  0  0  0  0  0
  150.2268  141.8250  157.8005 H   0  0  0  0  0  0  0  0  0  0  0  0
  149.9725  144.1651  158.5825 H   0  0  0  0  0  0  0  0  0  0  0  0
  151.8719  145.3212  159.7002 H   0  0  0  0  0  0  0  0  0  0  0  0
  154.0314  144.1305  160.0296 H   0  0  0  0  0  0  0  0  0  0  0  0
  149.3062  132.2285  162.9611 H   0  0  0  0  0  0  0  0  0  0  0  0
  148.3802  133.4444  163.8347 H   0  0  0  0  0  0  0  0  0  0  0  0
  150.1465  133.4264  163.9293 H   0  0  0  0  0  0  0  0  0  0  0  0
  1  2  1  0  0  0  0
  1 25  1  0  0  0  0
  1 26  1  0  0  0  0
  1 27  1  0  0  0  0
  2 23  1  0  0  0  0
  2  3  2  0  0  0  0
  3  4  1  0  0  0  0
  4  5  1  0  0  0  0
  4 18  1  0  0  0  0
  5  6  1  0  0  0  0
  5 28  1  0  0  0  0
  5 29  1  0  0  0  0
  6  7  1  0  0  0  0
  6  8  1  0  0  0  0
  6 30  1  0  0  0  0
  7 31  1  0  0  0  0
  8  9  1  0  0  0  0
  8 32  1  0  0  0  0
  8 33  1  0  0  0  0
  9 10  1  0  0  0  0
 10 11  1  0  0  0  0
 10 34  1  0  0  0  0
 10 35  1  0  0  0  0
 11 16  1  0  0  0  0
 11 12  2  0  0  0  0
 12 13  1  0  0  0  0
 12 36  1  0  0  0  0
 13 14  2  0  0  0  0
 13 37  1  0  0  0  0
 14 15  1  0  0  0  0
 14 38  1  0  0  0  0
 15 16  2  0  0  0  0
 15 39  1  0  0  0  0
 16 17  1  0  0  0  0
 18 19  2  0  0  0  0
 18 20  1  0  0  0  0
 20 21  1  0  0  0  0
 20 23  2  0  0  0  0
 21 22  3  0  0  0  0
 23 24  1  0  0  0  0
 24 40  1  0  0  0  0
 24 41  1  0  0  0  0
 24 42  1  0  0  0  0
M  END
> <s_m_source_file>
AV-unprocessed.smi

> <i_m_source_file_index>
1471

> <i_lp_mmshare_version>
43012

> <i_f3d_flags>
0

> <s_epik_input>
TiNDYyhjMVtDSDNdKWMoPU8pbihuYzFbQ0gzXSlbQ0gyXVtDQEhdKFtPSF0pW0NIMl1PW0NIMl1jMltjSF1bY0hdW2NIXVtjSF1jMkY=

> <s_epik_cmdline>
J2VwaWtfcHl0aG9uJywgJy1waCcsICc3LjAnLCAnLXRuJywgJzgnLCAnLW1hJywgJzIwMCcsICctbWV0YWxfYmluZGluZycsICctaW1hZScsICc8aW5maWxlLm1hZT4nLCAnLW9tYWUnLCAnPG91dGZpbGUubWFlPic=

> <r_lp_tautomer_probability>
1

> <r_epik_Ionization_Penalty>
6.13319e-08

> <r_epik_Ionization_Penalty_Charging>
2.19172e-10

> <r_epik_Ionization_Penalty_Neutral>
6.11128e-08

> <r_epik_State_Penalty>
-0

> <r_epik_Charging_Adjusted_Penalty>
2.19172e-10

> <i_epik_Tot_Q>
0

> <i_epik_Tot_abs_Q>
0

> <r_epik_Metal_State_Penalty>
-0

> <b_epik_Metal_Only>
0

> <s_lp_Force_Field>
OPLS_2005

> <r_lp_Energy>
30.1465

> <b_lp_Chiralities_Consistent>
1

> <s_lp_Variant>
AV-unprocessed.smi:1471-2

> <Gold.Version>
5.8.1

> <Gold.Id.Protein>
6NUR|6NUR_protein|mol2

> <Gold.PLP.Fitness>
54.9931

> <Gold.PLP.PLP>
-49.4059

> <Gold.PLP.part.hbond>
-3.0000

> <Gold.PLP.part.metal>
0.0000

> <Gold.PLP.part.buried>
-2.9380

> <Gold.PLP.part.nonpolar>
-44.3853

> <Gold.PLP.part.repulsive>
0.0000

> <Gold.PLP.ligand.clash>
0.0000

> <Gold.PLP.ligand.torsion>
1.0463

> <Gold.PLP.Chemscore.Hbond>
2.5456

> <Gold.PLP.Chemscore.CHOScore>
0.0000

> <Gold.PLP.Chemscore.Metal>
0.0000

> <Gold.Chemscore.Hbonds>
donor molecule, donor type, donor heavy atom, donor atom, acceptor molecule, acceptor atom, score
      P1  H  6931  6943       L1     3  0.83

> <Gold.PLP.Chemscore.Internal.Correction>
0.0431

> <Gold.Rescore>
     Score         DG    S(hbond)    S(metal)    S(lipo)     H(rot)  DE(clash)    DE(int)     intcor
     14.42     -15.89       0.88        0.00     121.73       2.65       0.08       1.40       ----

> <Gold.Chemscore.Fitness>
14.4159

> <Gold.Chemscore.DG>
-15.8918

> <Gold.Chemscore.ZeroCoef>
-5.4800

> <Gold.Chemscore.Hbond>
0.8818

> <Gold.Chemscore.Metal>
0.0000

> <Gold.Chemscore.Lipo>
121.7332

> <Gold.Chemscore.Internal_Hbond>
0.0000

> <Gold.Chemscore.DEClash>
0.0770

> <Gold.Chemscore.DEInternal>
1.3989

> <Gold.Chemscore.Rot>
2.6470

> <Gold.Chemscore.Internal.Correction>
   9.000000E+99

> <Gold.Chemscore.Hbonds>
donor molecule, donor type, donor heavy atom, donor atom, acceptor molecule, acceptor atom, score
      P1  H  6931  6943       L1     3  0.66

> <Gold.Chemscore.Hbond.Weighted>
-2.9452

> <Gold.Chemscore.Metal.Weighted>
-0.0000

> <Gold.Chemscore.Lipo.Weighted>
-14.2428

> <Gold.Chemscore.Internal_Hbond.Weighted>
0.0000

> <Gold.Chemscore.DEClash.Weighted>
0.0770

> <Gold.Chemscore.DEInternal.Weighted>
1.3989

> <Gold.Chemscore.Rot.Weighted>
6.7762

> <Gold.Chemscore.Internal.Correction.Weighted>
   9.000000E+99

> <Gold.Protein.RotatedTorsions>
[ 6907 6896 6895 6894 ] final  131.44 input  -60.11 | X-H torsion
[ 7974 7965 7964 7962 ] final  133.51 input  175.53 | X-H torsion
[ 8008 7997 7996 7995 ] final -107.92 input   59.86 | X-H torsion
[ 10167 10162 10161 10158 ] final -115.21 input  -65.29 | X-H torsion
[ 10718 10713 10712 10709 ] final  135.13 input   66.30 | X-H torsion
[ 10763 10752 10751 10750 ] final  125.52 input  -60.55 | X-H torsion
[ 11005 11000 10999 10996 ] final -140.74 input  -57.11 | X-H torsion

> <Gold.Protein.ActiveResidues>
 VAL166  LYS551  ARG553  GLY616  TRP617  ASP618  TYR619  PRO620  LYS621  CYS622 
 ASP623  PHE694  ASN695  SER759  ASP760  ASP761  ALA762  ILE779  LEU786  VAL792 
 PHE793  MET794  SER795  GLU796  ALA797  LYS798  CYS799  TRP800  GLU811  SER814 

> <Gold.Protein.RotatedAtoms>
  152.3426  133.6084  159.5886 H   0  0  0  0  0  0  0  0  0  0  0  0  # atno 6907 bound_to 6896
  150.7488  133.9699  159.3551 H   0  0  0  0  0  0  0  0  0  0  0  0  # atno 6908 bound_to 6896
  151.7561  135.0822  160.0389 H   0  0  0  0  0  0  0  0  0  0  0  0  # atno 6909 bound_to 6896
  144.9858  139.4457  143.5364 H   0  0  0  0  0  0  0  0  0  0  0  0  # atno 7974 bound_to 7965
  154.9365  140.0404  157.2075 H   0  0  0  0  0  0  0  0  0  0  0  0  # atno 8008 bound_to 7997
  154.8110  140.2868  155.5831 H   0  0  0  0  0  0  0  0  0  0  0  0  # atno 8009 bound_to 7997
  156.2971  140.2537  156.2998 H   0  0  0  0  0  0  0  0  0  0  0  0  # atno 8010 bound_to 7997
  140.0925  143.4686  152.1861 H   0  0  0  0  0  0  0  0  0  0  0  0  # atno 10167 bound_to 10162
  157.4602  131.1073  150.9928 H   0  0  0  0  0  0  0  0  0  0  0  0  # atno 10718 bound_to 10713
  153.6787  135.3318  155.3172 H   0  0  0  0  0  0  0  0  0  0  0  0  # atno 10763 bound_to 10752
  154.8472  135.4403  154.1629 H   0  0  0  0  0  0  0  0  0  0  0  0  # atno 10764 bound_to 10752
  153.2640  135.6994  153.7626 H   0  0  0  0  0  0  0  0  0  0  0  0  # atno 10765 bound_to 10752
  140.8393  134.2422  157.4818 H   0  0  0  0  0  0  0  0  0  0  0  0  # atno 11005 bound_to 11000
  146.3419  139.9159  142.8773 LP  0  0  0  0  0  0  0  0  0  0  0  0  # atno 17320 bound_to 7965
  145.2356  140.9990  143.3965 LP  0  0  0  0  0  0  0  0  0  0  0  0  # atno 17321 bound_to 7965
  139.5716  144.7466  151.3875 LP  0  0  0  0  0  0  0  0  0  0  0  0  # atno 17342 bound_to 10162
  140.7021  143.7606  150.7420 LP  0  0  0  0  0  0  0  0  0  0  0  0  # atno 17343 bound_to 10162
  157.0728  130.5871  149.5406 LP  0  0  0  0  0  0  0  0  0  0  0  0  # atno 17370 bound_to 10713
  156.0025  130.5107  150.7715 LP  0  0  0  0  0  0  0  0  0  0  0  0  # atno 17371 bound_to 10713
  139.8703  134.9627  156.4437 LP  0  0  0  0  0  0  0  0  0  0  0  0  # atno 17394 bound_to 11000
  140.8913  133.7846  155.9575 LP  0  0  0  0  0  0  0  0  0  0  0  0  # atno 17395 bound_to 11000

$$$$
