AV-unprocessed.smi:1549|AV-procd|sdf|6222|dock2
  -GOLD-   22720 6393D 1   1.00000     0.00000
 Structure written by MMmdl.
 41 42  0  0  0  0  0  0  0  0  1 V2000
  150.6550  138.7647  154.4277 C   0  0  0  0  0  0  0  0  0  0  0  0
  151.1485  137.4707  155.0794 C   0  0  0  0  0  0  0  0  0  0  0  0
  150.2277  136.4269  154.7774 O   0  0  0  0  0  0  0  0  0  0  0  0
  150.4549  135.1686  155.3018 C   0  0  0  0  0  0  0  0  0  0  0  0
  151.4351  135.0220  156.2286 N   0  0  0  0  0  0  0  0  0  0  0  0
  151.6607  133.7932  156.7369 C   0  0  0  0  0  0  0  0  0  0  0  0
  150.9329  132.6535  156.3485 C   0  0  0  0  0  0  0  0  0  0  0  0
  149.9150  132.8032  155.3886 C   0  0  0  0  0  0  0  0  0  0  0  0
  149.6571  134.0895  154.8556 C   0  0  0  0  0  0  0  0  0  0  0  0
  148.6724  134.3469  153.8622 N   0  0  0  0  0  0  0  0  0  0  0  0
  147.5552  133.6518  153.5899 C   0  0  0  0  0  0  0  0  0  0  0  0
  147.1577  132.6721  154.2202 O   0  0  0  0  0  0  0  0  0  0  0  0
  146.9037  134.1796  152.5435 N   0  0  0  0  0  0  0  0  0  0  0  0
  145.6459  133.6928  151.9825 C   0  0  2  0  0  0  0  0  0  0  0  0
  145.8027  132.2201  151.5574 C   0  0  0  0  0  0  0  0  0  0  0  0
  144.5295  131.6915  150.8769 C   0  0  0  0  0  0  0  0  0  0  0  0
  144.1365  132.5725  149.6789 C   0  0  1  0  0  0  0  0  0  0  0  0
  142.9319  132.0967  149.1165 O   0  0  0  0  0  0  0  0  0  0  0  0
  143.9613  134.0396  150.1065 C   0  0  0  0  0  0  0  0  0  0  0  0
  145.2321  134.5734  150.7873 C   0  0  0  0  0  0  0  0  0  0  0  0
  151.3390  139.5888  154.6315 H   0  0  0  0  0  0  0  0  0  0  0  0
  149.6719  139.0440  154.8074 H   0  0  0  0  0  0  0  0  0  0  0  0
  150.5778  138.6536  153.3458 H   0  0  0  0  0  0  0  0  0  0  0  0
  152.1404  137.2236  154.6976 H   0  0  0  0  0  0  0  0  0  0  0  0
  151.2259  137.6119  156.1585 H   0  0  0  0  0  0  0  0  0  0  0  0
  152.4496  133.7148  157.4702 H   0  0  0  0  0  0  0  0  0  0  0  0
  151.1543  131.6853  156.7729 H   0  0  0  0  0  0  0  0  0  0  0  0
  149.3671  131.9301  155.0704 H   0  0  0  0  0  0  0  0  0  0  0  0
  148.8137  135.1904  153.3255 H   0  0  0  0  0  0  0  0  0  0  0  0
  147.3105  134.9890  152.0979 H   0  0  0  0  0  0  0  0  0  0  0  0
  144.8532  133.7415  152.7315 H   0  0  0  0  0  0  0  0  0  0  0  0
  146.6452  132.1193  150.8718 H   0  0  0  0  0  0  0  0  0  0  0  0
  146.0364  131.6041  152.4265 H   0  0  0  0  0  0  0  0  0  0  0  0
  144.6859  130.6625  150.5512 H   0  0  0  0  0  0  0  0  0  0  0  0
  143.7154  131.6669  151.6030 H   0  0  0  0  0  0  0  0  0  0  0  0
  144.9113  132.5086  148.9139 H   0  0  0  0  0  0  0  0  0  0  0  0
  142.2675  132.7603  149.2220 H   0  0  0  0  0  0  0  0  0  0  0  0
  143.7204  134.6568  149.2403 H   0  0  0  0  0  0  0  0  0  0  0  0
  143.1191  134.1282  150.7945 H   0  0  0  0  0  0  0  0  0  0  0  0
  145.0674  135.5992  151.1188 H   0  0  0  0  0  0  0  0  0  0  0  0
  146.0420  134.6112  150.0572 H   0  0  0  0  0  0  0  0  0  0  0  0
  1  2  1  0  0  0  0
  1 21  1  0  0  0  0
  1 22  1  0  0  0  0
  1 23  1  0  0  0  0
  2  3  1  0  0  0  0
  2 24  1  0  0  0  0
  2 25  1  0  0  0  0
  3  4  1  0  0  0  0
  4  9  1  0  0  0  0
  4  5  2  0  0  0  0
  5  6  1  0  0  0  0
  6  7  2  0  0  0  0
  6 26  1  0  0  0  0
  7  8  1  0  0  0  0
  7 27  1  0  0  0  0
  8  9  2  0  0  0  0
  8 28  1  0  0  0  0
  9 10  1  0  0  0  0
 10 11  1  0  0  0  0
 10 29  1  0  0  0  0
 11 12  2  0  0  0  0
 11 13  1  0  0  0  0
 13 14  1  0  0  0  0
 13 30  1  0  0  0  0
 14 20  1  0  0  0  0
 14 15  1  0  0  0  0
 14 31  1  0  0  0  0
 15 16  1  0  0  0  0
 15 32  1  0  0  0  0
 15 33  1  0  0  0  0
 16 17  1  0  0  0  0
 16 34  1  0  0  0  0
 16 35  1  0  0  0  0
 17 18  1  0  0  0  0
 17 19  1  0  0  0  0
 17 36  1  0  0  0  0
 18 37  1  0  0  0  0
 19 20  1  0  0  0  0
 19 38  1  0  0  0  0
 19 39  1  0  0  0  0
 20 40  1  0  0  0  0
 20 41  1  0  0  0  0
M  END
> <s_m_source_file>
AV-unprocessed.smi

> <i_m_source_file_index>
1549

> <i_lp_mmshare_version>
43012

> <i_f3d_flags>
0

> <s_epik_input>
W0NIM11bQ0gyXU9jMW5bY0hdW2NIXVtjSF1jMVtOSF1DKD1PKVtOSF1bQ0BASF0yW0NIMl1bQ0gyXVtDQEBIXShbT0hdKVtDSDJdW0NIMl0y

> <s_epik_cmdline>
J2VwaWtfcHl0aG9uJywgJy1waCcsICc3LjAnLCAnLXRuJywgJzgnLCAnLW1hJywgJzIwMCcsICctbWV0YWxfYmluZGluZycsICctaW1hZScsICc8aW5maWxlLm1hZT4nLCAnLW9tYWUnLCAnPG91dGZpbGUubWFlPic=

> <r_lp_tautomer_probability>
1

> <r_epik_Ionization_Penalty>
0.000120387

> <r_epik_Ionization_Penalty_Charging>
0

> <r_epik_Ionization_Penalty_Neutral>
0.000120387

> <r_epik_State_Penalty>
-0

> <r_epik_Charging_Adjusted_Penalty>
0

> <i_epik_Tot_Q>
0

> <i_epik_Tot_abs_Q>
0

> <r_epik_Metal_State_Penalty>
-0

> <b_epik_Metal_Only>
0

> <s_lp_Force_Field>
OPLS_2005

> <r_lp_Energy>
10.7929

> <b_lp_Chiralities_Consistent>
1

> <s_lp_Variant>
AV-unprocessed.smi:1549-1

> <Gold.Version>
5.8.1

> <Gold.Id.Protein>
6NUR|6NUR_protein|mol2

> <Gold.PLP.Fitness>
50.7841

> <Gold.PLP.PLP>
-36.6051

> <Gold.PLP.part.hbond>
-6.0000

> <Gold.PLP.part.metal>
0.0000

> <Gold.PLP.part.buried>
-4.1878

> <Gold.PLP.part.nonpolar>
-27.2760

> <Gold.PLP.part.repulsive>
0.3667

> <Gold.PLP.ligand.clash>
0.0000

> <Gold.PLP.ligand.torsion>
0.2093

> <Gold.PLP.Chemscore.Hbond>
4.8620

> <Gold.PLP.Chemscore.CHOScore>
0.0000

> <Gold.PLP.Chemscore.Metal>
0.0000

> <Gold.Chemscore.Hbonds>
donor molecule, donor type, donor heavy atom, donor atom, acceptor molecule, acceptor atom, score
      L1  H    10    29       P1  7948  1.00
      L1  H    13    30       P1  7948  0.95
      L1  H    18    37       P1 10186  0.83
      P1  H 10752 10763       L1     5  0.77
      P1  H 10785 10796       L1    18  1.00

> <Gold.PLP.Chemscore.Internal.Correction>
0.0116

> <Gold.Rescore>
     Score         DG    S(hbond)    S(metal)    S(lipo)     H(rot)  DE(clash)    DE(int)     intcor
     18.12     -19.89       3.05        0.00      78.48       1.93       0.46       1.30       ----

> <Gold.Chemscore.Fitness>
18.1239

> <Gold.Chemscore.DG>
-19.8878

> <Gold.Chemscore.ZeroCoef>
-5.4800

> <Gold.Chemscore.Hbond>
3.0452

> <Gold.Chemscore.Metal>
0.0000

> <Gold.Chemscore.Lipo>
78.4819

> <Gold.Chemscore.Internal_Hbond>
0.0000

> <Gold.Chemscore.DEClash>
0.4602

> <Gold.Chemscore.DEInternal>
1.3037

> <Gold.Chemscore.Rot>
1.9318

> <Gold.Chemscore.Internal.Correction>
   9.000000E+99

> <Gold.Chemscore.Hbonds>
donor molecule, donor type, donor heavy atom, donor atom, acceptor molecule, acceptor atom, score
      L1  H    10    29       P1  7948  0.65
      L1  H    13    30       P1  7948  0.83
      L1  H    18    37       P1 10186  0.82
      P1  H 10752 10763       L1     5  0.09
      P1  H 10785 10796       L1    18  0.57

> <Gold.Chemscore.Hbond.Weighted>
-10.1708

> <Gold.Chemscore.Metal.Weighted>
-0.0000

> <Gold.Chemscore.Lipo.Weighted>
-9.1824

> <Gold.Chemscore.Internal_Hbond.Weighted>
0.0000

> <Gold.Chemscore.DEClash.Weighted>
0.4602

> <Gold.Chemscore.DEInternal.Weighted>
1.3037

> <Gold.Chemscore.Rot.Weighted>
4.9454

> <Gold.Chemscore.Internal.Correction.Weighted>
   9.000000E+99

> <Gold.Protein.RotatedTorsions>
[ 6907 6896 6895 6894 ] final   25.45 input  -60.11 | X-H torsion
[ 7974 7965 7964 7962 ] final   79.67 input  175.53 | X-H torsion
[ 8008 7997 7996 7995 ] final -177.94 input   59.86 | X-H torsion
[ 10167 10162 10161 10158 ] final   16.07 input  -65.29 | X-H torsion
[ 10718 10713 10712 10709 ] final -122.86 input   66.30 | X-H torsion
[ 10763 10752 10751 10750 ] final   86.43 input  -60.55 | X-H torsion
[ 11005 11000 10999 10996 ] final  108.32 input  -57.11 | X-H torsion

> <Gold.Protein.ActiveResidues>
 VAL166  LYS551  ARG553  GLY616  TRP617  ASP618  TYR619  PRO620  LYS621  CYS622 
 ASP623  PHE694  ASN695  SER759  ASP760  ASP761  ALA762  ILE779  LEU786  VAL792 
 PHE793  MET794  SER795  GLU796  ALA797  LYS798  CYS799  TRP800  GLU811  SER814 

> <Gold.Protein.RotatedAtoms>
  151.9727  135.0068  160.0553 H   0  0  0  0  0  0  0  0  0  0  0  0  # atno 6907 bound_to 6896
  152.1768  133.4676  159.4946 H   0  0  0  0  0  0  0  0  0  0  0  0  # atno 6908 bound_to 6896
  150.6910  134.1801  159.4288 H   0  0  0  0  0  0  0  0  0  0  0  0  # atno 6909 bound_to 6896
  145.6612  139.2472  143.1921 H   0  0  0  0  0  0  0  0  0  0  0  0  # atno 7974 bound_to 7965
  156.0130  140.1244  157.0435 H   0  0  0  0  0  0  0  0  0  0  0  0  # atno 8008 bound_to 7997
  154.4282  140.1084  156.5925 H   0  0  0  0  0  0  0  0  0  0  0  0  # atno 8009 bound_to 7997
  155.6053  140.3471  155.4608 H   0  0  0  0  0  0  0  0  0  0  0  0  # atno 8010 bound_to 7997
  140.5823  143.8957  150.6800 H   0  0  0  0  0  0  0  0  0  0  0  0  # atno 10167 bound_to 10162
  156.1453  130.6496  150.9833 H   0  0  0  0  0  0  0  0  0  0  0  0  # atno 10718 bound_to 10713
  153.1570  135.4580  154.9718 H   0  0  0  0  0  0  0  0  0  0  0  0  # atno 10763 bound_to 10752
  154.7869  135.3207  154.7869 H   0  0  0  0  0  0  0  0  0  0  0  0  # atno 10764 bound_to 10752
  153.8365  135.6934  153.4862 H   0  0  0  0  0  0  0  0  0  0  0  0  # atno 10765 bound_to 10752
  139.8842  134.9427  156.5955 H   0  0  0  0  0  0  0  0  0  0  0  0  # atno 11005 bound_to 11000
  146.1124  140.7412  142.9497 LP  0  0  0  0  0  0  0  0  0  0  0  0  # atno 17320 bound_to 7965
  144.7088  140.3960  143.7096 LP  0  0  0  0  0  0  0  0  0  0  0  0  # atno 17321 bound_to 7965
  140.2460  143.3629  152.1447 LP  0  0  0  0  0  0  0  0  0  0  0  0  # atno 17342 bound_to 10162
  139.5177  144.6995  151.5534 LP  0  0  0  0  0  0  0  0  0  0  0  0  # atno 17343 bound_to 10162
  157.6611  131.0880  150.7835 LP  0  0  0  0  0  0  0  0  0  0  0  0  # atno 17370 bound_to 10713
  156.7907  130.4889  149.5385 LP  0  0  0  0  0  0  0  0  0  0  0  0  # atno 17371 bound_to 10713
  140.7923  133.8572  155.8656 LP  0  0  0  0  0  0  0  0  0  0  0  0  # atno 17394 bound_to 11000
  140.9666  134.1586  157.4611 LP  0  0  0  0  0  0  0  0  0  0  0  0  # atno 17395 bound_to 11000

$$$$
