AV-unprocessed.smi:1184|AV-procd|sdf|4969|dock8
  -GOLD-   22720 3563D 1   1.00000     0.00000
 Structure written by MMmdl.
 43 44  0  0  0  0  0  0  0  0  2 V2000
  145.5859  129.4513  152.2556 C   0  0  0  0  0  0  0  0  0  0  0  0
  146.7251  129.7770  153.2324 C   0  0  0  0  0  0  0  0  0  0  0  0
  147.4624  131.0012  152.8414 N   0  3  1  0  0  0  0  0  0  0  0  0
  146.6418  132.2356  152.8106 C   0  0  0  0  0  0  0  0  0  0  0  0
  147.4944  133.3557  153.4265 C   0  0  0  0  0  0  0  0  0  0  0  0
  148.9124  132.7879  153.4541 C   0  0  1  0  0  0  0  0  0  0  0  0
  149.8438  133.4315  154.5028 C   0  0  0  0  0  0  0  0  0  0  0  0
  150.1229  134.8257  154.1805 N   0  0  0  0  0  0  0  0  0  0  0  0
  151.0363  135.5942  154.7932 C   0  0  0  0  0  0  0  0  0  0  0  0
  151.8724  135.1588  155.5842 O   0  0  0  0  0  0  0  0  0  0  0  0
  150.9444  137.0946  154.5188 C   0  0  0  0  0  0  0  0  0  0  0  0
  151.9287  137.8093  155.4122 C   0  0  0  0  0  0  0  0  0  0  0  0
  153.1737  138.4003  155.0496 C   0  0  0  0  0  0  0  0  0  0  0  0
  153.8115  138.4772  153.6923 C   0  0  0  0  0  0  0  0  0  0  0  0
  153.8070  138.9010  156.0970 N   0  0  0  0  0  0  0  0  0  0  0  0
  152.9774  138.6612  157.1965 O   0  0  0  0  0  0  0  0  0  0  0  0
  151.8669  138.0119  156.7636 C   0  0  0  0  0  0  0  0  0  0  0  0
  150.8591  137.6438  157.7990 C   0  0  0  0  0  0  0  0  0  0  0  0
  148.6604  131.2929  153.6522 C   0  0  0  0  0  0  0  0  0  0  0  0
  145.0198  128.5853  152.5991 H   0  0  0  0  0  0  0  0  0  0  0  0
  145.9619  129.2199  151.2586 H   0  0  0  0  0  0  0  0  0  0  0  0
  144.8909  130.2869  152.1662 H   0  0  0  0  0  0  0  0  0  0  0  0
  146.3025  129.9286  154.2265 H   0  0  0  0  0  0  0  0  0  0  0  0
  147.4138  128.9344  153.3076 H   0  0  0  0  0  0  0  0  0  0  0  0
  146.3842  132.4601  151.7750 H   0  0  0  0  0  0  0  0  0  0  0  0
  145.7094  132.1191  153.3654 H   0  0  0  0  0  0  0  0  0  0  0  0
  147.4290  134.2889  152.8662 H   0  0  0  0  0  0  0  0  0  0  0  0
  147.1503  133.5552  154.4424 H   0  0  0  0  0  0  0  0  0  0  0  0
  149.3465  132.9254  152.4621 H   0  0  0  0  0  0  0  0  0  0  0  0
  149.4101  133.3552  155.5011 H   0  0  0  0  0  0  0  0  0  0  0  0
  150.7967  132.9024  154.5345 H   0  0  0  0  0  0  0  0  0  0  0  0
  149.4952  135.2745  153.5291 H   0  0  0  0  0  0  0  0  0  0  0  0
  151.1519  137.2843  153.4650 H   0  0  0  0  0  0  0  0  0  0  0  0
  149.9210  137.4277  154.6947 H   0  0  0  0  0  0  0  0  0  0  0  0
  154.3188  137.5434  153.4491 H   0  0  0  0  0  0  0  0  0  0  0  0
  154.5467  139.2809  153.6375 H   0  0  0  0  0  0  0  0  0  0  0  0
  153.0661  138.6605  152.9183 H   0  0  0  0  0  0  0  0  0  0  0  0
  149.8556  137.9253  157.4792 H   0  0  0  0  0  0  0  0  0  0  0  0
  151.0643  138.1465  158.7446 H   0  0  0  0  0  0  0  0  0  0  0  0
  150.8682  136.5684  157.9782 H   0  0  0  0  0  0  0  0  0  0  0  0
  148.4597  131.0819  154.7041 H   0  0  0  0  0  0  0  0  0  0  0  0
  149.5078  130.6829  153.3394 H   0  0  0  0  0  0  0  0  0  0  0  0
  147.7879  130.8646  151.8949 H   0  0  0  0  0  0  0  0  0  0  0  0
  1  2  1  0  0  0  0
  1 20  1  0  0  0  0
  1 21  1  0  0  0  0
  1 22  1  0  0  0  0
  2  3  1  0  0  0  0
  2 23  1  0  0  0  0
  2 24  1  0  0  0  0
  3 19  1  0  0  0  0
  3  4  1  0  0  0  0
  3 43  1  0  0  0  0
  4  5  1  0  0  0  0
  4 25  1  0  0  0  0
  4 26  1  0  0  0  0
  5  6  1  0  0  0  0
  5 27  1  0  0  0  0
  5 28  1  0  0  0  0
  6  7  1  0  0  0  0
  6 19  1  0  0  0  0
  6 29  1  0  0  0  0
  7  8  1  0  0  0  0
  7 30  1  0  0  0  0
  7 31  1  0  0  0  0
  8  9  1  0  0  0  0
  8 32  1  0  0  0  0
  9 10  2  0  0  0  0
  9 11  1  0  0  0  0
 11 12  1  0  0  0  0
 11 33  1  0  0  0  0
 11 34  1  0  0  0  0
 12 17  2  0  0  0  0
 12 13  1  0  0  0  0
 13 14  1  0  0  0  0
 13 15  2  0  0  0  0
 14 35  1  0  0  0  0
 14 36  1  0  0  0  0
 14 37  1  0  0  0  0
 15 16  1  0  0  0  0
 16 17  1  0  0  0  0
 17 18  1  0  0  0  0
 18 38  1  0  0  0  0
 18 39  1  0  0  0  0
 18 40  1  0  0  0  0
 19 41  1  0  0  0  0
 19 42  1  0  0  0  0
M  CHG  1   3   1
M  END
> <s_m_source_file>
AV-unprocessed.smi

> <i_m_source_file_index>
1184

> <i_lp_mmshare_version>
43012

> <i_f3d_flags>
0

> <s_epik_input>
W0NIM11bQ0gyXU4xW0NIMl1bQ0gyXVtDQEhdKFtDSDJdMSlbQ0gyXVtOSF1DKD1PKVtDSDJdYzJjKFtDSDNdKW5vYzJbQ0gzXQ==

> <s_epik_cmdline>
J2VwaWtfcHl0aG9uJywgJy1waCcsICc3LjAnLCAnLXRuJywgJzgnLCAnLW1hJywgJzIwMCcsICctbWV0YWxfYmluZGluZycsICctaW1hZScsICc8aW5maWxlLm1hZT4nLCAnLW9tYWUnLCAnPG91dGZpbGUubWFlPic=

> <r_epik_Ionization_Penalty>
0.000590726

> <r_epik_Ionization_Penalty_Charging>
0.000590692

> <r_epik_Ionization_Penalty_Neutral>
3.44741e-08

> <r_epik_State_Penalty>
0.000371644

> <r_epik_Charging_Adjusted_Penalty>
0.000962336

> <i_epik_Tot_Q>
1

> <i_epik_Tot_abs_Q>
1

> <r_epik_Metal_State_Penalty>
-0

> <b_epik_Metal_Only>
0

> <s_lp_Force_Field>
OPLS_2005

> <r_lp_Energy>
20.0287

> <b_lp_Chiralities_Consistent>
1

> <s_lp_Variant>
AV-unprocessed.smi:1184-1

> <Gold.Version>
5.8.1

> <Gold.Id.Protein>
6NUR|6NUR_protein|mol2

> <Gold.PLP.Fitness>
43.9681

> <Gold.PLP.PLP>
-32.4774

> <Gold.PLP.part.hbond>
-4.1014

> <Gold.PLP.part.metal>
0.0000

> <Gold.PLP.part.buried>
-4.7149

> <Gold.PLP.part.nonpolar>
-24.1049

> <Gold.PLP.part.repulsive>
0.0878

> <Gold.PLP.ligand.clash>
0.0000

> <Gold.PLP.ligand.torsion>
0.2529

> <Gold.PLP.Chemscore.Hbond>
3.9913

> <Gold.PLP.Chemscore.CHOScore>
0.0000

> <Gold.PLP.Chemscore.Metal>
0.0000

> <Gold.Chemscore.Hbonds>
donor molecule, donor type, donor heavy atom, donor atom, acceptor molecule, acceptor atom, score
      L1  H     3    43       P1 10747  1.00
      L1  H     8    32       P1  7948  0.75
      P1  H  7997  8009       L1    15  0.38
      P1  H 10752 10763       L1    10  0.61

> <Gold.PLP.Chemscore.Internal.Correction>
0.0227

> <Gold.Rescore>
     Score         DG    S(hbond)    S(metal)    S(lipo)     H(rot)  DE(clash)    DE(int)     intcor
     16.30     -17.73       2.11        0.00      80.83       1.67       0.03       1.40       ----

> <Gold.Chemscore.Fitness>
16.3020

> <Gold.Chemscore.DG>
-17.7276

> <Gold.Chemscore.ZeroCoef>
-5.4800

> <Gold.Chemscore.Hbond>
2.1142

> <Gold.Chemscore.Metal>
0.0000

> <Gold.Chemscore.Lipo>
80.8323

> <Gold.Chemscore.Internal_Hbond>
0.0000

> <Gold.Chemscore.DEClash>
0.0282

> <Gold.Chemscore.DEInternal>
1.3973

> <Gold.Chemscore.Rot>
1.6684

> <Gold.Chemscore.Internal.Correction>
   9.000000E+99

> <Gold.Chemscore.Hbonds>
donor molecule, donor type, donor heavy atom, donor atom, acceptor molecule, acceptor atom, score
      L1  H     3    43       P1 10747  0.96
      L1  H     8    32       P1  7948  0.09
      P1  H  7997  8009       L1    15  0.24
      P1  H 10752 10763       L1    10  0.42

> <Gold.Chemscore.Hbond.Weighted>
-7.0615

> <Gold.Chemscore.Metal.Weighted>
-0.0000

> <Gold.Chemscore.Lipo.Weighted>
-9.4574

> <Gold.Chemscore.Internal_Hbond.Weighted>
0.0000

> <Gold.Chemscore.DEClash.Weighted>
0.0282

> <Gold.Chemscore.DEInternal.Weighted>
1.3973

> <Gold.Chemscore.Rot.Weighted>
4.2712

> <Gold.Chemscore.Internal.Correction.Weighted>
   9.000000E+99

> <Gold.Protein.RotatedTorsions>
[ 6907 6896 6895 6894 ] final  114.50 input  -60.11 | X-H torsion
[ 7974 7965 7964 7962 ] final  121.19 input  175.53 | X-H torsion
[ 8008 7997 7996 7995 ] final -158.04 input   59.86 | X-H torsion
[ 10167 10162 10161 10158 ] final  -52.72 input  -65.29 | X-H torsion
[ 10718 10713 10712 10709 ] final  144.79 input   66.30 | X-H torsion
[ 10763 10752 10751 10750 ] final   92.62 input  -60.55 | X-H torsion
[ 11005 11000 10999 10996 ] final   30.64 input  -57.11 | X-H torsion

> <Gold.Protein.ActiveResidues>
 VAL166  LYS551  ARG553  GLY616  TRP617  ASP618  TYR619  PRO620  LYS621  CYS622 
 ASP623  PHE694  ASN695  SER759  ASP760  ASP761  ALA762  ILE779  LEU786  VAL792 
 PHE793  MET794  SER795  GLU796  ALA797  LYS798  CYS799  TRP800  GLU811  SER814 

> <Gold.Protein.RotatedAtoms>
  152.4799  133.8228  159.7062 H   0  0  0  0  0  0  0  0  0  0  0  0  # atno 6907 bound_to 6896
  150.8841  133.7323  159.2930 H   0  0  0  0  0  0  0  0  0  0  0  0  # atno 6908 bound_to 6896
  151.4817  135.1056  159.9831 H   0  0  0  0  0  0  0  0  0  0  0  0  # atno 6909 bound_to 6896
  145.1222  139.3381  143.4708 H   0  0  0  0  0  0  0  0  0  0  0  0  # atno 7974 bound_to 7965
  155.7415  140.0815  157.2243 H   0  0  0  0  0  0  0  0  0  0  0  0  # atno 8008 bound_to 7997
  154.4021  140.1577  156.2677 H   0  0  0  0  0  0  0  0  0  0  0  0  # atno 8009 bound_to 7997
  155.9015  140.3409  155.6033 H   0  0  0  0  0  0  0  0  0  0  0  0  # atno 8010 bound_to 7997
  140.6523  143.2574  151.4688 H   0  0  0  0  0  0  0  0  0  0  0  0  # atno 10167 bound_to 10162
  157.3530  131.0953  151.0983 H   0  0  0  0  0  0  0  0  0  0  0  0  # atno 10718 bound_to 10713
  153.2212  135.4355  155.0491 H   0  0  0  0  0  0  0  0  0  0  0  0  # atno 10763 bound_to 10752
  154.8251  135.3357  154.6924 H   0  0  0  0  0  0  0  0  0  0  0  0  # atno 10764 bound_to 10752
  153.7356  135.7008  153.5035 H   0  0  0  0  0  0  0  0  0  0  0  0  # atno 10765 bound_to 10752
  140.2922  134.2851  155.7773 H   0  0  0  0  0  0  0  0  0  0  0  0  # atno 11005 bound_to 11000
  146.3520  140.1186  142.8601 LP  0  0  0  0  0  0  0  0  0  0  0  0  # atno 17320 bound_to 7965
  145.0727  140.9167  143.4872 LP  0  0  0  0  0  0  0  0  0  0  0  0  # atno 17321 bound_to 7965
  139.5739  144.1863  152.1876 LP  0  0  0  0  0  0  0  0  0  0  0  0  # atno 17342 bound_to 10162
  140.1168  144.5409  150.6889 LP  0  0  0  0  0  0  0  0  0  0  0  0  # atno 17343 bound_to 10162
  157.2151  130.6455  149.5789 LP  0  0  0  0  0  0  0  0  0  0  0  0  # atno 17370 bound_to 10713
  155.9724  130.4647  150.6228 LP  0  0  0  0  0  0  0  0  0  0  0  0  # atno 17371 bound_to 10713
  141.2144  133.7593  156.9642 LP  0  0  0  0  0  0  0  0  0  0  0  0  # atno 17394 bound_to 11000
  140.1185  134.9432  157.2169 LP  0  0  0  0  0  0  0  0  0  0  0  0  # atno 17395 bound_to 11000

$$$$
