AV-unprocessed.smi:3228|AV-procd|sdf|12320|dock2
  -GOLD-   2272018163D 1   1.00000     0.00000
 Structure written by MMmdl.
 31 32  0  0  0  0  0  0  0  0  1 V2000
  145.3649  138.4534  152.8388 O   0  0  0  0  0  0  0  0  0  0  0  0
  146.3903  137.8445  152.5316 C   0  0  0  0  0  0  0  0  0  0  0  0
  146.3856  136.6697  151.8855 N   0  0  0  0  0  0  0  0  0  0  0  0
  145.1873  135.9524  151.4631 C   0  0  0  0  0  0  0  0  0  0  0  0
  145.5243  134.5941  150.8116 C   0  0  1  0  0  0  0  0  0  0  0  0
  146.2709  133.6055  151.7173 C   0  0  0  0  0  0  0  0  0  0  0  0
  145.9917  132.2116  151.1341 C   0  0  0  0  0  0  0  0  0  0  0  0
  144.8906  132.3898  150.0767 C   0  0  0  0  0  0  0  0  0  0  0  0
  144.3193  133.7946  150.2943 C   0  0  1  0  0  0  0  0  0  0  0  0
  143.2862  133.7269  151.2599 O   0  0  0  0  0  0  0  0  0  0  0  0
  147.6448  138.2553  152.7875 N   0  0  0  0  0  0  0  0  0  0  0  0
  148.0622  139.4359  153.4567 C   0  0  0  0  0  0  0  0  0  0  0  0
  149.2081  139.5528  154.1383 N   0  0  0  0  0  0  0  0  0  0  0  0
  149.3617  140.8263  154.6919 C   0  0  0  0  0  0  0  0  0  0  0  0
  148.3161  141.6730  154.4189 C   0  0  0  0  0  0  0  0  0  0  0  0
  147.0895  140.8998  153.4507 S   0  0  0  0  0  0  0  0  0  0  0  0
  147.2730  136.2384  151.6716 H   0  0  0  0  0  0  0  0  0  0  0  0
  144.5628  135.8083  152.3450 H   0  0  0  0  0  0  0  0  0  0  0  0
  144.6090  136.5691  150.7733 H   0  0  0  0  0  0  0  0  0  0  0  0
  146.1632  134.7840  149.9470 H   0  0  0  0  0  0  0  0  0  0  0  0
  147.3380  133.8239  151.7705 H   0  0  0  0  0  0  0  0  0  0  0  0
  145.8760  133.6585  152.7327 H   0  0  0  0  0  0  0  0  0  0  0  0
  146.8882  131.7838  150.6844 H   0  0  0  0  0  0  0  0  0  0  0  0
  145.6672  131.5316  151.9226 H   0  0  0  0  0  0  0  0  0  0  0  0
  145.3419  132.3394  149.0847 H   0  0  0  0  0  0  0  0  0  0  0  0
  144.1315  131.6077  150.1227 H   0  0  0  0  0  0  0  0  0  0  0  0
  143.9141  134.2159  149.3736 H   0  0  0  0  0  0  0  0  0  0  0  0
  142.4549  133.7385  150.8107 H   0  0  0  0  0  0  0  0  0  0  0  0
  148.3886  137.6526  152.4680 H   0  0  0  0  0  0  0  0  0  0  0  0
  150.2488  141.0450  155.2679 H   0  0  0  0  0  0  0  0  0  0  0  0
  148.1942  142.7004  154.7280 H   0  0  0  0  0  0  0  0  0  0  0  0
  1  2  2  0  0  0  0
  2  3  1  0  0  0  0
  2 11  1  0  0  0  0
  3  4  1  0  0  0  0
  3 17  1  0  0  0  0
  4  5  1  0  0  0  0
  4 18  1  0  0  0  0
  4 19  1  0  0  0  0
  5  9  1  0  0  0  0
  5  6  1  0  0  0  0
  5 20  1  0  0  0  0
  6  7  1  0  0  0  0
  6 21  1  0  0  0  0
  6 22  1  0  0  0  0
  7  8  1  0  0  0  0
  7 23  1  0  0  0  0
  7 24  1  0  0  0  0
  8  9  1  0  0  0  0
  8 25  1  0  0  0  0
  8 26  1  0  0  0  0
  9 10  1  0  0  0  0
  9 27  1  0  0  0  0
 10 28  1  0  0  0  0
 11 12  1  0  0  0  0
 11 29  1  0  0  0  0
 12 16  1  0  0  0  0
 12 13  2  0  0  0  0
 13 14  1  0  0  0  0
 14 15  2  0  0  0  0
 14 30  1  0  0  0  0
 15 16  1  0  0  0  0
 15 31  1  0  0  0  0
M  END
> <s_m_source_file>
AV-unprocessed.smi

> <i_m_source_file_index>
3228

> <i_lp_mmshare_version>
43012

> <i_f3d_flags>
0

> <s_epik_input>
czFbY0hdW2NIXW5jMVtOSF1DKD1PKVtOSF1bQ0gyXVtDQEBIXTJbQ0gyXVtDSDJdW0NIMl1bQ0BIXTJbT0hd

> <s_epik_cmdline>
J2VwaWtfcHl0aG9uJywgJy1waCcsICc3LjAnLCAnLXRuJywgJzgnLCAnLW1hJywgJzIwMCcsICctbWV0YWxfYmluZGluZycsICctaW1hZScsICc8aW5maWxlLm1hZT4nLCAnLW9tYWUnLCAnPG91dGZpbGUubWFlPic=

> <r_lp_tautomer_probability>
0.999

> <r_epik_Ionization_Penalty>
0.000399498

> <r_epik_Ionization_Penalty_Charging>
0

> <r_epik_Ionization_Penalty_Neutral>
0.000399498

> <r_epik_State_Penalty>
0.000177984

> <r_epik_Charging_Adjusted_Penalty>
0.000177984

> <i_epik_Tot_Q>
0

> <i_epik_Tot_abs_Q>
0

> <r_epik_Metal_State_Penalty>
0.0060793

> <b_epik_Metal_Only>
0

> <s_lp_Force_Field>
OPLS_2005

> <r_lp_Energy>
23.3764

> <b_lp_Chiralities_Consistent>
1

> <s_lp_Variant>
AV-unprocessed.smi:3228-2

> <Gold.Version>
5.8.1

> <Gold.Id.Protein>
6NUR|6NUR_protein|mol2

> <Gold.PLP.Fitness>
40.0074

> <Gold.PLP.PLP>
-28.3713

> <Gold.PLP.part.hbond>
-3.8880

> <Gold.PLP.part.metal>
0.0000

> <Gold.PLP.part.buried>
-2.2868

> <Gold.PLP.part.nonpolar>
-26.4053

> <Gold.PLP.part.repulsive>
4.3819

> <Gold.PLP.ligand.clash>
0.0000

> <Gold.PLP.ligand.torsion>
0.1712

> <Gold.PLP.Chemscore.Hbond>
2.9920

> <Gold.PLP.Chemscore.CHOScore>
1.0000

> <Gold.PLP.Chemscore.Metal>
0.0000

> <Gold.Chemscore.Hbonds>
donor molecule, donor type, donor heavy atom, donor atom, acceptor molecule, acceptor atom, score
      L1  H     3    17       P1  7948  0.99
      L1  H    10    28       P1 10186  1.00
      L1  H    11    29       P1  7948  1.00
      L1  C    15    31       P1  8028  1.00

> <Gold.PLP.Chemscore.Internal.Correction>
0.0024

> <Gold.Rescore>
     Score         DG    S(hbond)    S(metal)    S(lipo)     H(rot)  DE(clash)    DE(int)     intcor
     15.35     -17.53       2.92        0.00      60.80       1.88       1.33       0.86       ----

> <Gold.Chemscore.Fitness>
15.3453

> <Gold.Chemscore.DG>
-17.5339

> <Gold.Chemscore.ZeroCoef>
-5.4800

> <Gold.Chemscore.Hbond>
2.9191

> <Gold.Chemscore.Metal>
0.0000

> <Gold.Chemscore.Lipo>
60.7986

> <Gold.Chemscore.Internal_Hbond>
0.0000

> <Gold.Chemscore.DEClash>
1.3322

> <Gold.Chemscore.DEInternal>
0.8565

> <Gold.Chemscore.Rot>
1.8786

> <Gold.Chemscore.Internal.Correction>
   9.000000E+99

> <Gold.Chemscore.Hbonds>
donor molecule, donor type, donor heavy atom, donor atom, acceptor molecule, acceptor atom, score
      L1  H     3    17       P1  7948  0.94
      L1  H    10    28       P1 10186  0.73
      L1  H    11    29       P1  7948  0.96

> <Gold.Chemscore.Hbond.Weighted>
-9.7496

> <Gold.Chemscore.Metal.Weighted>
-0.0000

> <Gold.Chemscore.Lipo.Weighted>
-7.1134

> <Gold.Chemscore.Internal_Hbond.Weighted>
0.0000

> <Gold.Chemscore.DEClash.Weighted>
1.3322

> <Gold.Chemscore.DEInternal.Weighted>
0.8565

> <Gold.Chemscore.Rot.Weighted>
4.8091

> <Gold.Chemscore.Internal.Correction.Weighted>
   9.000000E+99

> <Gold.Protein.RotatedTorsions>
[ 6907 6896 6895 6894 ] final  -11.54 input  -60.11 | X-H torsion
[ 7974 7965 7964 7962 ] final  -63.47 input  175.53 | X-H torsion
[ 8008 7997 7996 7995 ] final  119.32 input   59.86 | X-H torsion
[ 10167 10162 10161 10158 ] final -145.17 input  -65.29 | X-H torsion
[ 10718 10713 10712 10709 ] final  -44.16 input   66.30 | X-H torsion
[ 10763 10752 10751 10750 ] final  -49.15 input  -60.55 | X-H torsion
[ 11005 11000 10999 10996 ] final   72.37 input  -57.11 | X-H torsion

> <Gold.Protein.ActiveResidues>
 VAL166  LYS551  ARG553  GLY616  TRP617  ASP618  TYR619  PRO620  LYS621  CYS622 
 ASP623  PHE694  ASN695  SER759  ASP760  ASP761  ALA762  ILE779  LEU786  VAL792 
 PHE793  MET794  SER795  GLU796  ALA797  LYS798  CYS799  TRP800  GLU811  SER814 

> <Gold.Protein.RotatedAtoms>
  151.3846  135.0945  159.9506 H   0  0  0  0  0  0  0  0  0  0  0  0  # atno 6907 bound_to 6896
  152.5098  133.9039  159.7465 H   0  0  0  0  0  0  0  0  0  0  0  0  # atno 6908 bound_to 6896
  150.9479  133.6527  159.2806 H   0  0  0  0  0  0  0  0  0  0  0  0  # atno 6909 bound_to 6896
  145.7787  140.8774  143.0342 H   0  0  0  0  0  0  0  0  0  0  0  0  # atno 7974 bound_to 7965
  156.2590  140.2855  156.0972 H   0  0  0  0  0  0  0  0  0  0  0  0  # atno 8008 bound_to 7997
  155.1398  140.0395  157.2813 H   0  0  0  0  0  0  0  0  0  0  0  0  # atno 8009 bound_to 7997
  154.6538  140.2550  155.7191 H   0  0  0  0  0  0  0  0  0  0  0  0  # atno 8010 bound_to 7997
  139.7831  143.8073  152.2641 H   0  0  0  0  0  0  0  0  0  0  0  0  # atno 10167 bound_to 10162
  156.2414  130.4180  149.8755 H   0  0  0  0  0  0  0  0  0  0  0  0  # atno 10718 bound_to 10713
  154.0894  135.6579  153.4850 H   0  0  0  0  0  0  0  0  0  0  0  0  # atno 10763 bound_to 10752
  153.0327  135.5199  154.7395 H   0  0  0  0  0  0  0  0  0  0  0  0  # atno 10764 bound_to 10752
  154.6514  135.3002  154.9950 H   0  0  0  0  0  0  0  0  0  0  0  0  # atno 10765 bound_to 10752
  139.9494  134.7254  156.0899 H   0  0  0  0  0  0  0  0  0  0  0  0  # atno 11005 bound_to 11000
  144.6800  139.9958  143.7484 LP  0  0  0  0  0  0  0  0  0  0  0  0  # atno 17320 bound_to 7965
  146.0096  139.3159  143.0878 LP  0  0  0  0  0  0  0  0  0  0  0  0  # atno 17321 bound_to 7965
  139.8141  144.7323  150.9658 LP  0  0  0  0  0  0  0  0  0  0  0  0  # atno 17342 bound_to 10162
  140.7819  143.4222  151.0824 LP  0  0  0  0  0  0  0  0  0  0  0  0  # atno 17343 bound_to 10162
  156.6336  130.8676  151.3500 LP  0  0  0  0  0  0  0  0  0  0  0  0  # atno 17370 bound_to 10713
  157.7177  130.9518  150.1317 LP  0  0  0  0  0  0  0  0  0  0  0  0  # atno 17371 bound_to 10713
  141.1153  133.6630  156.3079 LP  0  0  0  0  0  0  0  0  0  0  0  0  # atno 17394 bound_to 11000
  140.5755  134.5797  157.5467 LP  0  0  0  0  0  0  0  0  0  0  0  0  # atno 17395 bound_to 11000

$$$$
