AV-unprocessed.smi:1703|AV-procd|sdf|6877|dock5
  -GOLD-   22720 8 83D 1   1.00000     0.00000
 Structure written by MMmdl.
 50 52  0  0  0  0  0  0  0  0  3 V2000
  146.7855  137.0999  155.3052 C   0  0  0  0  0  0  0  0  0  0  0  0
  148.1313  136.4868  155.7074 C   0  0  2  0  0  0  0  0  0  0  0  0
  149.3242  137.2903  155.1564 C   0  0  0  0  0  0  0  0  0  0  0  0
  150.6033  136.6276  155.5044 N   0  3  2  0  0  0  0  0  0  0  0  0
  151.7859  137.4045  155.0517 C   0  0  0  0  0  0  0  0  0  0  0  0
  151.5701  138.9285  155.1478 C   0  0  2  0  0  0  0  0  0  0  0  0
  152.8068  139.5783  154.9295 O   0  0  0  0  0  0  0  0  0  0  0  0
  151.0218  139.3653  156.5253 C   0  0  0  0  0  0  0  0  0  0  0  0
  150.8040  140.8171  156.6007 N   0  0  0  0  0  0  0  0  0  0  0  0
  149.9990  141.6203  155.8468 C   0  0  0  0  0  0  0  0  0  0  0  0
  149.1152  141.1978  154.7205 C   0  0  0  0  0  0  0  0  0  0  0  0
  148.2401  142.2251  154.3122 O   0  0  0  0  0  0  0  0  0  0  0  0
  150.1524  142.8932  156.3072 N   0  3  0  0  0  0  0  0  0  0  0  0
  151.0580  142.9058  157.3687 C   0  0  0  0  0  0  0  0  0  0  0  0
  151.5276  143.9561  158.1511 C   0  0  0  0  0  0  0  0  0  0  0  0
  152.4556  143.6272  159.1606 C   0  0  0  0  0  0  0  0  0  0  0  0
  152.8795  142.2979  159.3629 C   0  0  0  0  0  0  0  0  0  0  0  0
  152.3952  141.2407  158.5644 C   0  0  0  0  0  0  0  0  0  0  0  0
  151.4801  141.5741  157.5654 C   0  0  0  0  0  0  0  0  0  0  0  0
  150.5987  135.2195  155.0362 C   0  0  0  0  0  0  0  0  0  0  0  0
  149.3703  134.4721  155.5895 C   0  0  2  0  0  0  0  0  0  0  0  0
  149.2840  133.0339  155.0670 C   0  0  0  0  0  0  0  0  0  0  0  0
  148.1895  135.1610  155.1928 O   0  0  0  0  0  0  0  0  0  0  0  0
  146.6876  138.1169  155.6864 H   0  0  0  0  0  0  0  0  0  0  0  0
  145.9562  136.5152  155.7040 H   0  0  0  0  0  0  0  0  0  0  0  0
  146.6753  137.1365  154.2211 H   0  0  0  0  0  0  0  0  0  0  0  0
  148.1832  136.4519  156.7972 H   0  0  0  0  0  0  0  0  0  0  0  0
  149.2480  137.3873  154.0720 H   0  0  0  0  0  0  0  0  0  0  0  0
  149.3077  138.2992  155.5711 H   0  0  0  0  0  0  0  0  0  0  0  0
  152.6551  137.1021  155.6369 H   0  0  0  0  0  0  0  0  0  0  0  0
  152.0150  137.1530  154.0148 H   0  0  0  0  0  0  0  0  0  0  0  0
  150.8908  139.2652  154.3647 H   0  0  0  0  0  0  0  0  0  0  0  0
  152.9120  139.7300  154.0021 H   0  0  0  0  0  0  0  0  0  0  0  0
  150.0996  138.8443  156.7832 H   0  0  0  0  0  0  0  0  0  0  0  0
  151.7232  139.1164  157.3235 H   0  0  0  0  0  0  0  0  0  0  0  0
  149.7251  140.8856  153.8727 H   0  0  0  0  0  0  0  0  0  0  0  0
  148.5263  140.3328  155.0273 H   0  0  0  0  0  0  0  0  0  0  0  0
  148.6105  143.0565  154.5669 H   0  0  0  0  0  0  0  0  0  0  0  0
  151.2038  144.9756  157.9986 H   0  0  0  0  0  0  0  0  0  0  0  0
  152.8507  144.4103  159.7918 H   0  0  0  0  0  0  0  0  0  0  0  0
  153.5930  142.0857  160.1464 H   0  0  0  0  0  0  0  0  0  0  0  0
  152.7328  140.2290  158.7300 H   0  0  0  0  0  0  0  0  0  0  0  0
  150.5910  135.1980  153.9452 H   0  0  0  0  0  0  0  0  0  0  0  0
  151.5054  134.7083  155.3579 H   0  0  0  0  0  0  0  0  0  0  0  0
  149.4183  134.4414  156.6794 H   0  0  0  0  0  0  0  0  0  0  0  0
  150.1624  132.4569  155.3570 H   0  0  0  0  0  0  0  0  0  0  0  0
  149.2114  133.0116  153.9791 H   0  0  0  0  0  0  0  0  0  0  0  0
  148.4071  132.5260  155.4691 H   0  0  0  0  0  0  0  0  0  0  0  0
  150.6448  136.6059  156.5139 H   0  0  0  0  0  0  0  0  0  0  0  0
  149.6725  143.6948  155.9178 H   0  0  0  0  0  0  0  0  0  0  0  0
  1  2  1  0  0  0  0
  1 24  1  0  0  0  0
  1 25  1  0  0  0  0
  1 26  1  0  0  0  0
  2 23  1  0  0  0  0
  2  3  1  0  0  0  0
  2 27  1  0  0  0  0
  3  4  1  0  0  0  0
  3 28  1  0  0  0  0
  3 29  1  0  0  0  0
  4  5  1  0  0  0  0
  4 20  1  0  0  0  0
  4 49  1  0  0  0  0
  5  6  1  0  0  0  0
  5 30  1  0  0  0  0
  5 31  1  0  0  0  0
  6  7  1  0  0  0  0
  6  8  1  0  0  0  0
  6 32  1  0  0  0  0
  7 33  1  0  0  0  0
  8  9  1  0  0  0  0
  8 34  1  0  0  0  0
  8 35  1  0  0  0  0
  9 19  1  0  0  0  0
  9 10  1  0  0  0  0
 10 11  1  0  0  0  0
 10 13  2  0  0  0  0
 11 12  1  0  0  0  0
 11 36  1  0  0  0  0
 11 37  1  0  0  0  0
 12 38  1  0  0  0  0
 13 14  1  0  0  0  0
 13 50  1  0  0  0  0
 14 19  2  0  0  0  0
 14 15  1  0  0  0  0
 15 16  2  0  0  0  0
 15 39  1  0  0  0  0
 16 17  1  0  0  0  0
 16 40  1  0  0  0  0
 17 18  2  0  0  0  0
 17 41  1  0  0  0  0
 18 19  1  0  0  0  0
 18 42  1  0  0  0  0
 20 21  1  0  0  0  0
 20 43  1  0  0  0  0
 20 44  1  0  0  0  0
 21 22  1  0  0  0  0
 21 23  1  0  0  0  0
 21 45  1  0  0  0  0
 22 46  1  0  0  0  0
 22 47  1  0  0  0  0
 22 48  1  0  0  0  0
M  CHG  1   4   1
M  CHG  1  13   1
M  END
> <s_m_source_file>
AV-unprocessed.smi

> <i_m_source_file_index>
1703

> <i_lp_mmshare_version>
43012

> <i_f3d_flags>
0

> <s_epik_input>
W0NIM11bQ0BASF0xW0NIMl1OKFtDSDJdW0NASF0oTzEpW0NIM10pW0NIMl1bQ0BIXShbT0hdKVtDSDJdbihjKG4yKVtDSDJdW09IXSljKGMyMylbY0hdW2NIXVtjSF1bY0hdMw==

> <s_epik_cmdline>
J2VwaWtfcHl0aG9uJywgJy1waCcsICc3LjAnLCAnLXRuJywgJzgnLCAnLW1hJywgJzIwMCcsICctbWV0YWxfYmluZGluZycsICctaW1hZScsICc8aW5maWxlLm1hZT4nLCAnLW9tYWUnLCAnPG91dGZpbGUubWFlPic=

> <r_epik_Ionization_Penalty>
2.22579

> <r_epik_Ionization_Penalty_Charging>
2.22492

> <r_epik_Ionization_Penalty_Neutral>
0.000870007

> <r_epik_State_Penalty>
2.3141

> <r_epik_Charging_Adjusted_Penalty>
4.53902

> <i_epik_Tot_Q>
2

> <i_epik_Tot_abs_Q>
2

> <r_epik_Metal_State_Penalty>
6.36517

> <b_epik_Metal_Only>
0

> <s_lp_Force_Field>
OPLS_2005

> <r_lp_Energy>
31.942

> <b_lp_Chiralities_Consistent>
1

> <s_lp_Variant>
AV-unprocessed.smi:1703-25

> <Gold.Version>
5.8.1

> <Gold.Id.Protein>
6NUR|6NUR_protein|mol2

> <Gold.PLP.Fitness>
56.1117

> <Gold.PLP.PLP>
-44.9387

> <Gold.PLP.part.hbond>
-4.8749

> <Gold.PLP.part.metal>
0.0000

> <Gold.PLP.part.buried>
-5.2956

> <Gold.PLP.part.nonpolar>
-36.8889

> <Gold.PLP.part.repulsive>
0.2930

> <Gold.PLP.ligand.clash>
0.0000

> <Gold.PLP.ligand.torsion>
0.3791

> <Gold.PLP.Chemscore.Hbond>
3.9469

> <Gold.PLP.Chemscore.CHOScore>
0.0000

> <Gold.PLP.Chemscore.Metal>
0.0000

> <Gold.Chemscore.Hbonds>
donor molecule, donor type, donor heavy atom, donor atom, acceptor molecule, acceptor atom, score
      L1  H    12    38       P1  8028  1.00
      L1  H    13    50       P1  8028  0.91
      P1  H  7997  8008       L1     7  0.88

> <Gold.PLP.Chemscore.Internal.Correction>
0.0904

> <Gold.Rescore>
     Score         DG    S(hbond)    S(metal)    S(lipo)     H(rot)  DE(clash)    DE(int)     intcor
     19.16     -19.52       2.81        0.00     106.12       3.04       0.08       0.28       ----

> <Gold.Chemscore.Fitness>
19.1599

> <Gold.Chemscore.DG>
-19.5153

> <Gold.Chemscore.ZeroCoef>
-5.4800

> <Gold.Chemscore.Hbond>
2.8130

> <Gold.Chemscore.Metal>
0.0000

> <Gold.Chemscore.Lipo>
106.1248

> <Gold.Chemscore.Internal_Hbond>
0.0000

> <Gold.Chemscore.DEClash>
0.0756

> <Gold.Chemscore.DEInternal>
0.2798

> <Gold.Chemscore.Rot>
3.0378

> <Gold.Chemscore.Internal.Correction>
   9.000000E+99

> <Gold.Chemscore.Hbonds>
donor molecule, donor type, donor heavy atom, donor atom, acceptor molecule, acceptor atom, score
      L1  H    12    38       P1  8028  0.97
      L1  H    13    50       P1  8028  0.46
      P1  H  7997  8008       L1     7  0.79

> <Gold.Chemscore.Hbond.Weighted>
-9.3954

> <Gold.Chemscore.Metal.Weighted>
-0.0000

> <Gold.Chemscore.Lipo.Weighted>
-12.4166

> <Gold.Chemscore.Internal_Hbond.Weighted>
0.0000

> <Gold.Chemscore.DEClash.Weighted>
0.0756

> <Gold.Chemscore.DEInternal.Weighted>
0.2798

> <Gold.Chemscore.Rot.Weighted>
7.7767

> <Gold.Chemscore.Internal.Correction.Weighted>
   9.000000E+99

> <Gold.Protein.RotatedTorsions>
[ 6907 6896 6895 6894 ] final  134.65 input  -60.11 | X-H torsion
[ 7974 7965 7964 7962 ] final   16.38 input  175.53 | X-H torsion
[ 8008 7997 7996 7995 ] final  -36.75 input   59.86 | X-H torsion
[ 10167 10162 10161 10158 ] final  -94.06 input  -65.29 | X-H torsion
[ 10718 10713 10712 10709 ] final  141.92 input   66.30 | X-H torsion
[ 10763 10752 10751 10750 ] final  -29.28 input  -60.55 | X-H torsion
[ 11005 11000 10999 10996 ] final  -66.44 input  -57.11 | X-H torsion

> <Gold.Protein.ActiveResidues>
 VAL166  LYS551  ARG553  GLY616  TRP617  ASP618  TYR619  PRO620  LYS621  CYS622 
 ASP623  PHE694  ASN695  SER759  ASP760  ASP761  ALA762  ILE779  LEU786  VAL792 
 PHE793  MET794  SER795  GLU796  ALA797  LYS798  CYS799  TRP800  GLU811  SER814 

> <Gold.Protein.RotatedAtoms>
  152.3090  133.5733  159.5668 H   0  0  0  0  0  0  0  0  0  0  0  0  # atno 6907 bound_to 6896
  150.7314  134.0180  159.3700 H   0  0  0  0  0  0  0  0  0  0  0  0  # atno 6908 bound_to 6896
  151.8074  135.0691  160.0459 H   0  0  0  0  0  0  0  0  0  0  0  0  # atno 6909 bound_to 6896
  146.2251  139.8756  142.8580 H   0  0  0  0  0  0  0  0  0  0  0  0  # atno 7974 bound_to 7965
  154.4067  140.1622  156.2424 H   0  0  0  0  0  0  0  0  0  0  0  0  # atno 8008 bound_to 7997
  155.9189  140.3422  155.6135 H   0  0  0  0  0  0  0  0  0  0  0  0  # atno 8009 bound_to 7997
  155.7245  140.0772  157.2306 H   0  0  0  0  0  0  0  0  0  0  0  0  # atno 8010 bound_to 7997
  140.3183  143.3064  152.0074 H   0  0  0  0  0  0  0  0  0  0  0  0  # atno 10167 bound_to 10162
  157.3865  131.0999  151.0688 H   0  0  0  0  0  0  0  0  0  0  0  0  # atno 10718 bound_to 10713
  153.7620  135.6918  153.4923 H   0  0  0  0  0  0  0  0  0  0  0  0  # atno 10763 bound_to 10752
  153.1932  135.4463  155.0173 H   0  0  0  0  0  0  0  0  0  0  0  0  # atno 10764 bound_to 10752
  154.8149  135.3394  154.7135 H   0  0  0  0  0  0  0  0  0  0  0  0  # atno 10765 bound_to 10752
  141.1482  133.6699  156.6140 H   0  0  0  0  0  0  0  0  0  0  0  0  # atno 11005 bound_to 11000
  145.2564  141.0062  143.3851 LP  0  0  0  0  0  0  0  0  0  0  0  0  # atno 17320 bound_to 7965
  144.9333  139.4273  143.6484 LP  0  0  0  0  0  0  0  0  0  0  0  0  # atno 17321 bound_to 7965
  139.4879  144.6331  151.7030 LP  0  0  0  0  0  0  0  0  0  0  0  0  # atno 17342 bound_to 10162
  140.5506  144.0431  150.6125 LP  0  0  0  0  0  0  0  0  0  0  0  0  # atno 17343 bound_to 10162
  157.1737  130.6279  149.5649 LP  0  0  0  0  0  0  0  0  0  0  0  0  # atno 17370 bound_to 10713
  155.9788  130.4776  150.6677 LP  0  0  0  0  0  0  0  0  0  0  0  0  # atno 17371 bound_to 10713
  140.3592  134.7702  157.4522 LP  0  0  0  0  0  0  0  0  0  0  0  0  # atno 17394 bound_to 11000
  140.0799  134.5746  155.8552 LP  0  0  0  0  0  0  0  0  0  0  0  0  # atno 17395 bound_to 11000

$$$$
