AV-unprocessed.smi:249|AV-procd|sdf|1928|dock5
  -GOLD-   2262021 43D 1   1.00000     0.00000
 Structure written by MMmdl.
 64 67  0  0  0  0  0  0  0  0  2 V2000
  146.1740  129.8945  152.1411 C   0  0  0  0  0  0  0  0  0  0  0  0
  145.5528  131.2619  151.8166 C   0  0  0  0  0  0  0  0  0  0  0  0
  146.4571  132.1483  151.0260 N   0  3  2  0  0  0  0  0  0  0  0  0
  147.3036  133.0523  151.8551 C   0  0  0  0  0  0  0  0  0  0  0  0
  146.4830  134.1973  152.4784 C   0  0  0  0  0  0  0  0  0  0  0  0
  145.7427  134.9969  151.3880 C   0  0  2  0  0  0  0  0  0  0  0  0
  144.9474  136.0980  151.9426 N   0  0  0  0  0  0  0  0  0  0  0  0
  143.6789  135.8161  152.6141 C   0  0  0  0  0  0  0  0  0  0  0  0
  145.6708  137.1369  152.4335 C   0  0  0  0  0  0  0  0  0  0  0  0
  146.2617  138.0104  151.5754 N   0  0  0  0  0  0  0  0  0  0  0  0
  146.9545  139.0514  152.0453 C   0  0  0  0  0  0  0  0  0  0  0  0
  147.1831  139.3957  153.3136 N   0  0  0  0  0  0  0  0  0  0  0  0
  146.6093  138.5142  154.1816 C   0  0  0  0  0  0  0  0  0  0  0  0
  145.8334  137.3740  153.8276 C   0  0  0  0  0  0  0  0  0  0  0  0
  145.3967  136.7231  154.9748 N   0  0  0  0  0  0  0  0  0  0  0  0
  145.8806  137.4412  155.9506 C   0  0  0  0  0  0  0  0  0  0  0  0
  146.6512  138.5167  155.5671 N   0  0  0  0  0  0  0  0  0  0  0  0
  147.2953  139.4750  156.4553 C   0  0  0  0  0  0  0  0  0  0  0  0
  148.2714  140.4693  155.7610 C   0  0  1  0  0  0  0  0  0  0  0  0
  147.4573  141.6706  155.2220 C   0  0  0  0  0  0  0  0  0  0  0  0
  147.1248  142.5684  156.2613 O   0  0  0  0  0  0  0  0  0  0  0  0
  149.4364  140.9803  156.6658 C   0  0  1  0  0  0  0  0  0  0  0  0
  150.2604  139.9284  157.3960 C   0  0  0  0  0  0  0  0  0  0  0  0
  151.2192  139.4272  156.3214 C   0  0  0  0  0  0  0  0  0  0  0  0
  151.4217  140.5396  155.4571 O   0  0  0  0  0  0  0  0  0  0  0  0
  150.5756  141.6154  155.8517 C   0  0  0  0  0  0  0  0  0  0  0  0
  144.9108  134.0525  150.4976 C   0  0  0  0  0  0  0  0  0  0  0  0
  145.7915  132.9190  149.9306 C   0  0  2  0  0  0  0  0  0  0  0  0
  145.0361  132.0328  148.9238 C   0  0  0  0  0  0  0  0  0  0  0  0
  145.4264  129.2308  152.5758 H   0  0  0  0  0  0  0  0  0  0  0  0
  146.9851  129.9713  152.8647 H   0  0  0  0  0  0  0  0  0  0  0  0
  146.5606  129.4110  151.2435 H   0  0  0  0  0  0  0  0  0  0  0  0
  144.6486  131.0602  151.2456 H   0  0  0  0  0  0  0  0  0  0  0  0
  145.2298  131.7515  152.7352 H   0  0  0  0  0  0  0  0  0  0  0  0
  147.8393  132.5016  152.6262 H   0  0  0  0  0  0  0  0  0  0  0  0
  148.0790  133.4760  151.2155 H   0  0  0  0  0  0  0  0  0  0  0  0
  145.7789  133.7946  153.2061 H   0  0  0  0  0  0  0  0  0  0  0  0
  147.1491  134.8578  153.0347 H   0  0  0  0  0  0  0  0  0  0  0  0
  146.5117  135.4208  150.7424 H   0  0  0  0  0  0  0  0  0  0  0  0
  143.1394  136.7410  152.8221 H   0  0  0  0  0  0  0  0  0  0  0  0
  143.8409  135.2969  153.5592 H   0  0  0  0  0  0  0  0  0  0  0  0
  143.0300  135.2003  151.9934 H   0  0  0  0  0  0  0  0  0  0  0  0
  147.3885  139.7012  151.2997 H   0  0  0  0  0  0  0  0  0  0  0  0
  145.7029  137.1920  156.9869 H   0  0  0  0  0  0  0  0  0  0  0  0
  146.4855  140.0149  156.9462 H   0  0  0  0  0  0  0  0  0  0  0  0
  147.8140  138.9354  157.2484 H   0  0  0  0  0  0  0  0  0  0  0  0
  148.7208  139.9822  154.8968 H   0  0  0  0  0  0  0  0  0  0  0  0
  148.0185  142.2015  154.4522 H   0  0  0  0  0  0  0  0  0  0  0  0
  146.5217  141.3575  154.7626 H   0  0  0  0  0  0  0  0  0  0  0  0
  147.8251  143.1965  156.3518 H   0  0  0  0  0  0  0  0  0  0  0  0
  149.0315  141.6933  157.3854 H   0  0  0  0  0  0  0  0  0  0  0  0
  150.8378  140.4158  158.1833 H   0  0  0  0  0  0  0  0  0  0  0  0
  149.6948  139.1424  157.8848 H   0  0  0  0  0  0  0  0  0  0  0  0
  152.1606  139.0711  156.7401 H   0  0  0  0  0  0  0  0  0  0  0  0
  150.7716  138.6138  155.7496 H   0  0  0  0  0  0  0  0  0  0  0  0
  150.2532  142.1878  154.9838 H   0  0  0  0  0  0  0  0  0  0  0  0
  151.1549  142.2893  156.4847 H   0  0  0  0  0  0  0  0  0  0  0  0
  144.0769  133.6227  151.0519 H   0  0  0  0  0  0  0  0  0  0  0  0
  144.4720  134.6230  149.6780 H   0  0  0  0  0  0  0  0  0  0  0  0
  146.5970  133.3873  149.3621 H   0  0  0  0  0  0  0  0  0  0  0  0
  144.7514  132.6109  148.0441 H   0  0  0  0  0  0  0  0  0  0  0  0
  144.1171  131.6226  149.3424 H   0  0  0  0  0  0  0  0  0  0  0  0
  145.6565  131.2038  148.5818 H   0  0  0  0  0  0  0  0  0  0  0  0
  147.0986  131.5206  150.5624 H   0  0  0  0  0  0  0  0  0  0  0  0
  1  2  1  0  0  0  0
  1 30  1  0  0  0  0
  1 31  1  0  0  0  0
  1 32  1  0  0  0  0
  2  3  1  0  0  0  0
  2 33  1  0  0  0  0
  2 34  1  0  0  0  0
  3 28  1  0  0  0  0
  3  4  1  0  0  0  0
  3 64  1  0  0  0  0
  4  5  1  0  0  0  0
  4 35  1  0  0  0  0
  4 36  1  0  0  0  0
  5  6  1  0  0  0  0
  5 37  1  0  0  0  0
  5 38  1  0  0  0  0
  6  7  1  0  0  0  0
  6 27  1  0  0  0  0
  6 39  1  0  0  0  0
  7  8  1  0  0  0  0
  7  9  1  0  0  0  0
  8 40  1  0  0  0  0
  8 41  1  0  0  0  0
  8 42  1  0  0  0  0
  9 14  1  0  0  0  0
  9 10  2  0  0  0  0
 10 11  1  0  0  0  0
 11 12  2  0  0  0  0
 11 43  1  0  0  0  0
 12 13  1  0  0  0  0
 13 17  1  0  0  0  0
 13 14  2  0  0  0  0
 14 15  1  0  0  0  0
 15 16  2  0  0  0  0
 16 17  1  0  0  0  0
 16 44  1  0  0  0  0
 17 18  1  0  0  0  0
 18 19  1  0  0  0  0
 18 45  1  0  0  0  0
 18 46  1  0  0  0  0
 19 20  1  0  0  0  0
 19 22  1  0  0  0  0
 19 47  1  0  0  0  0
 20 21  1  0  0  0  0
 20 48  1  0  0  0  0
 20 49  1  0  0  0  0
 21 50  1  0  0  0  0
 22 26  1  0  0  0  0
 22 23  1  0  0  0  0
 22 51  1  0  0  0  0
 23 24  1  0  0  0  0
 23 52  1  0  0  0  0
 23 53  1  0  0  0  0
 24 25  1  0  0  0  0
 24 54  1  0  0  0  0
 24 55  1  0  0  0  0
 25 26  1  0  0  0  0
 26 56  1  0  0  0  0
 26 57  1  0  0  0  0
 27 28  1  0  0  0  0
 27 58  1  0  0  0  0
 27 59  1  0  0  0  0
 28 29  1  0  0  0  0
 28 60  1  0  0  0  0
 29 61  1  0  0  0  0
 29 62  1  0  0  0  0
 29 63  1  0  0  0  0
M  CHG  1   3   1
M  END
> <s_m_source_file>
AV-unprocessed.smi

> <i_m_source_file_index>
249

> <i_lp_mmshare_version>
43012

> <i_f3d_flags>
0

> <s_epik_input>
W0NIM11bQ0gyXU4xW0NIMl1bQ0gyXVtDQEhdKFtDSDJdW0NASF0xW0NIM10pTihbQ0gzXSljKG5bY0hdbjIpYyhjMjMpbltjSF1uM1tDSDJdW0NASF0oW0NIMl1bT0hdKVtDQEBIXTRbQ0gyXVtDSDJdT1tDSDJdNA==

> <s_epik_cmdline>
J2VwaWtfcHl0aG9uJywgJy1waCcsICc3LjAnLCAnLXRuJywgJzgnLCAnLW1hJywgJzIwMCcsICctbWV0YWxfYmluZGluZycsICctaW1hZScsICc8aW5maWxlLm1hZT4nLCAnLW9tYWUnLCAnPG91dGZpbGUubWFlPic=

> <r_lp_tautomer_probability>
1

> <r_epik_Ionization_Penalty>
0.00294688

> <r_epik_Ionization_Penalty_Charging>
0.00169971

> <r_epik_Ionization_Penalty_Neutral>
0.00124717

> <r_epik_State_Penalty>
-0

> <r_epik_Charging_Adjusted_Penalty>
0.00169971

> <i_epik_Tot_Q>
1

> <i_epik_Tot_abs_Q>
1

> <r_epik_Metal_State_Penalty>
-0

> <b_epik_Metal_Only>
0

> <s_lp_Force_Field>
OPLS_2005

> <r_lp_Energy>
58.8032

> <b_lp_Chiralities_Consistent>
1

> <s_lp_Variant>
AV-unprocessed.smi:249-31

> <Gold.Version>
5.8.1

> <Gold.Id.Protein>
6NUR|6NUR_protein|mol2

> <Gold.PLP.Fitness>
44.7042

> <Gold.PLP.PLP>
-37.8933

> <Gold.PLP.part.hbond>
-3.0000

> <Gold.PLP.part.metal>
0.0000

> <Gold.PLP.part.buried>
-2.2082

> <Gold.PLP.part.nonpolar>
-33.6689

> <Gold.PLP.part.repulsive>
1.1085

> <Gold.PLP.ligand.clash>
0.0000

> <Gold.PLP.ligand.torsion>
2.5150

> <Gold.PLP.Chemscore.Hbond>
2.6820

> <Gold.PLP.Chemscore.CHOScore>
0.8935

> <Gold.PLP.Chemscore.Metal>
0.0000

> <Gold.Chemscore.Hbonds>
donor molecule, donor type, donor heavy atom, donor atom, acceptor molecule, acceptor atom, score
      L1  H     3    64       P1 10747  1.00
      L1  H    21    50       P1  8028  0.80
      P1  H  7989  7998       L1    25  0.83
      L1  C    11    43       P1  7957  0.87

> <Gold.PLP.Chemscore.Internal.Correction>
1.1144

> <Gold.Rescore>
     Score         DG    S(hbond)    S(metal)    S(lipo)     H(rot)  DE(clash)    DE(int)     intcor
     10.43     -15.27       1.72        0.00      92.67       2.65       0.35       4.49       ----

> <Gold.Chemscore.Fitness>
10.4297

> <Gold.Chemscore.DG>
-15.2739

> <Gold.Chemscore.ZeroCoef>
-5.4800

> <Gold.Chemscore.Hbond>
1.7183

> <Gold.Chemscore.Metal>
0.0000

> <Gold.Chemscore.Lipo>
92.6726

> <Gold.Chemscore.Internal_Hbond>
0.0000

> <Gold.Chemscore.DEClash>
0.3538

> <Gold.Chemscore.DEInternal>
4.4905

> <Gold.Chemscore.Rot>
2.6515

> <Gold.Chemscore.Internal.Correction>
   9.000000E+99

> <Gold.Chemscore.Hbonds>
donor molecule, donor type, donor heavy atom, donor atom, acceptor molecule, acceptor atom, score
      L1  H     3    64       P1 10747  0.90
      L1  H    21    50       P1  8028  0.11
      P1  H  7989  7998       L1    25  0.28

> <Gold.Chemscore.Hbond.Weighted>
-5.7392

> <Gold.Chemscore.Metal.Weighted>
-0.0000

> <Gold.Chemscore.Lipo.Weighted>
-10.8427

> <Gold.Chemscore.Internal_Hbond.Weighted>
0.0000

> <Gold.Chemscore.DEClash.Weighted>
0.3538

> <Gold.Chemscore.DEInternal.Weighted>
4.4905

> <Gold.Chemscore.Rot.Weighted>
6.7880

> <Gold.Chemscore.Internal.Correction.Weighted>
   9.000000E+99

> <Gold.Protein.RotatedTorsions>
[ 6907 6896 6895 6894 ] final  -78.31 input  -60.11 | X-H torsion
[ 7974 7965 7964 7962 ] final  -60.10 input  175.53 | X-H torsion
[ 8008 7997 7996 7995 ] final  161.27 input   59.86 | X-H torsion
[ 10167 10162 10161 10158 ] final  -53.03 input  -65.29 | X-H torsion
[ 10718 10713 10712 10709 ] final  125.44 input   66.30 | X-H torsion
[ 10763 10752 10751 10750 ] final  122.61 input  -60.55 | X-H torsion
[ 11005 11000 10999 10996 ] final   89.04 input  -57.11 | X-H torsion

> <Gold.Protein.ActiveResidues>
 VAL166  LYS551  ARG553  GLY616  TRP617  ASP618  TYR619  PRO620  LYS621  CYS622 
 ASP623  PHE694  ASN695  SER759  ASP760  ASP761  ALA762  ILE779  LEU786  VAL792 
 PHE793  MET794  SER795  GLU796  ALA797  LYS798  CYS799  TRP800  GLU811  SER814 

> <Gold.Protein.RotatedAtoms>
  150.6976  134.4291  159.5239 H   0  0  0  0  0  0  0  0  0  0  0  0  # atno 6907 bound_to 6896
  152.2021  134.8576  160.0516 H   0  0  0  0  0  0  0  0  0  0  0  0  # atno 6908 bound_to 6896
  151.9492  133.3626  159.4030 H   0  0  0  0  0  0  0  0  0  0  0  0  # atno 6909 bound_to 6896
  145.8196  140.8548  143.0139 H   0  0  0  0  0  0  0  0  0  0  0  0  # atno 7974 bound_to 7965
  156.2115  140.1782  156.7685 H   0  0  0  0  0  0  0  0  0  0  0  0  # atno 8008 bound_to 7997
  154.5729  140.0679  156.9021 H   0  0  0  0  0  0  0  0  0  0  0  0  # atno 8009 bound_to 7997
  155.2640  140.3338  155.4273 H   0  0  0  0  0  0  0  0  0  0  0  0  # atno 8010 bound_to 7997
  140.6506  143.2564  151.4733 H   0  0  0  0  0  0  0  0  0  0  0  0  # atno 10167 bound_to 10162
  157.5503  131.1094  150.8713 H   0  0  0  0  0  0  0  0  0  0  0  0  # atno 10718 bound_to 10713
  153.6325  135.3393  155.3046 H   0  0  0  0  0  0  0  0  0  0  0  0  # atno 10763 bound_to 10752
  154.8577  135.4299  154.2091 H   0  0  0  0  0  0  0  0  0  0  0  0  # atno 10764 bound_to 10752
  153.2990  135.7023  153.7295 H   0  0  0  0  0  0  0  0  0  0  0  0  # atno 10765 bound_to 10752
  139.8883  134.8526  156.3085 H   0  0  0  0  0  0  0  0  0  0  0  0  # atno 11005 bound_to 11000
  144.6749  140.0514  143.7478 LP  0  0  0  0  0  0  0  0  0  0  0  0  # atno 17320 bound_to 7965
  145.9689  139.2855  143.1110 LP  0  0  0  0  0  0  0  0  0  0  0  0  # atno 17321 bound_to 7965
  139.5721  144.1903  152.1851 LP  0  0  0  0  0  0  0  0  0  0  0  0  # atno 17342 bound_to 10162
  140.1203  144.5379  150.6867 LP  0  0  0  0  0  0  0  0  0  0  0  0  # atno 17343 bound_to 10162
  156.9240  130.5325  149.5279 LP  0  0  0  0  0  0  0  0  0  0  0  0  # atno 17370 bound_to 10713
  156.0571  130.5630  150.9114 LP  0  0  0  0  0  0  0  0  0  0  0  0  # atno 17371 bound_to 10713
  140.9866  133.7234  156.0751 LP  0  0  0  0  0  0  0  0  0  0  0  0  # atno 17394 bound_to 11000
  140.7680  134.3864  157.5513 LP  0  0  0  0  0  0  0  0  0  0  0  0  # atno 17395 bound_to 11000

$$$$
