AV-unprocessed.smi:1762|AV-procd|sdf|7103|dock8
  -GOLD-   22720 8323D 1   1.00000     0.00000
 Structure written by MMmdl.
 52 53  0  0  0  0  0  0  0  0  1 V2000
  152.1969  144.3710  158.4010 C   0  0  0  0  0  0  0  0  0  0  0  0
  151.3557  143.4342  159.2861 C   0  0  1  0  0  0  0  0  0  0  0  0
  150.7325  142.2560  158.5111 C   0  0  0  0  0  0  0  0  0  0  0  0
  151.7060  141.2225  158.1365 N   0  0  0  0  0  0  0  0  0  0  0  0
  151.0986  140.1026  157.3631 C   0  0  2  0  0  0  0  0  0  0  0  0
  150.2467  139.1493  158.2355 C   0  0  0  0  0  0  0  0  0  0  0  0
  150.7704  138.4958  159.1386 O   0  0  0  0  0  0  0  0  0  0  0  0
  148.9321  139.1003  157.9679 N   0  0  0  0  0  0  0  0  0  0  0  0
  147.9591  138.2912  158.6951 C   0  0  0  0  0  0  0  0  0  0  0  0
  148.4134  136.8300  158.8814 C   0  0  0  0  0  0  0  0  0  0  0  0
  148.0204  136.2359  160.2242 C   0  0  0  0  0  0  0  0  0  0  0  0
  148.1617  134.8524  160.4635 C   0  0  0  0  0  0  0  0  0  0  0  0
  147.7673  134.3438  161.7163 C   0  0  0  0  0  0  0  0  0  0  0  0
  147.2482  135.2331  162.6771 C   0  0  0  0  0  0  0  0  0  0  0  0
  147.1463  136.5972  162.3404 C   0  0  0  0  0  0  0  0  0  0  0  0
  147.5213  137.0941  161.1424 N   0  0  0  0  0  0  0  0  0  0  0  0
  152.1038  139.2905  156.4784 C   0  0  0  0  0  0  0  0  0  0  0  0
  151.4412  138.5915  155.2739 C   0  0  0  0  0  0  0  0  0  0  0  0
  152.9645  138.2888  157.2736 C   0  0  0  0  0  0  0  0  0  0  0  0
  152.4243  140.8002  159.3496 C   0  0  0  0  0  0  0  0  0  0  0  0
  153.0791  141.9746  160.0985 C   0  0  2  0  0  0  0  0  0  0  0  0
  153.7293  141.5297  161.4134 C   0  0  0  0  0  0  0  0  0  0  0  0
  152.0952  142.9562  160.4071 O   0  0  0  0  0  0  0  0  0  0  0  0
  151.5832  144.8234  157.6217 H   0  0  0  0  0  0  0  0  0  0  0  0
  153.0128  143.8455  157.9050 H   0  0  0  0  0  0  0  0  0  0  0  0
  152.6285  145.1796  158.9909 H   0  0  0  0  0  0  0  0  0  0  0  0
  150.5412  144.0332  159.6942 H   0  0  0  0  0  0  0  0  0  0  0  0
  149.9443  141.8095  159.1194 H   0  0  0  0  0  0  0  0  0  0  0  0
  150.2444  142.6749  157.6337 H   0  0  0  0  0  0  0  0  0  0  0  0
  150.3958  140.5583  156.6623 H   0  0  0  0  0  0  0  0  0  0  0  0
  148.5792  139.6755  157.2169 H   0  0  0  0  0  0  0  0  0  0  0  0
  147.8063  138.7517  159.6715 H   0  0  0  0  0  0  0  0  0  0  0  0
  146.9930  138.3225  158.1889 H   0  0  0  0  0  0  0  0  0  0  0  0
  147.9898  136.2136  158.0878 H   0  0  0  0  0  0  0  0  0  0  0  0
  149.4963  136.7624  158.7656 H   0  0  0  0  0  0  0  0  0  0  0  0
  148.5590  134.1947  159.7046 H   0  0  0  0  0  0  0  0  0  0  0  0
  147.8593  133.2903  161.9356 H   0  0  0  0  0  0  0  0  0  0  0  0
  146.9357  134.8784  163.6481 H   0  0  0  0  0  0  0  0  0  0  0  0
  146.7513  137.3082  163.0507 H   0  0  0  0  0  0  0  0  0  0  0  0
  152.7888  140.0009  156.0189 H   0  0  0  0  0  0  0  0  0  0  0  0
  150.7966  137.7669  155.5796 H   0  0  0  0  0  0  0  0  0  0  0  0
  152.1946  138.1788  154.6024 H   0  0  0  0  0  0  0  0  0  0  0  0
  150.8389  139.2920  154.6951 H   0  0  0  0  0  0  0  0  0  0  0  0
  152.3670  137.4766  157.6868 H   0  0  0  0  0  0  0  0  0  0  0  0
  153.4845  138.7740  158.0998 H   0  0  0  0  0  0  0  0  0  0  0  0
  153.7250  137.8390  156.6348 H   0  0  0  0  0  0  0  0  0  0  0  0
  151.7378  140.2770  160.0175 H   0  0  0  0  0  0  0  0  0  0  0  0
  153.2263  140.1017  159.1143 H   0  0  0  0  0  0  0  0  0  0  0  0
  153.8521  142.4182  159.4705 H   0  0  0  0  0  0  0  0  0  0  0  0
  154.4905  140.7692  161.2375 H   0  0  0  0  0  0  0  0  0  0  0  0
  152.9903  141.1121  162.0975 H   0  0  0  0  0  0  0  0  0  0  0  0
  154.2087  142.3706  161.9151 H   0  0  0  0  0  0  0  0  0  0  0  0
  1  2  1  0  0  0  0
  1 24  1  0  0  0  0
  1 25  1  0  0  0  0
  1 26  1  0  0  0  0
  2 23  1  0  0  0  0
  2  3  1  0  0  0  0
  2 27  1  0  0  0  0
  3  4  1  0  0  0  0
  3 28  1  0  0  0  0
  3 29  1  0  0  0  0
  4  5  1  0  0  0  0
  4 20  1  0  0  0  0
  5  6  1  0  0  0  0
  5 17  1  0  0  0  0
  5 30  1  0  0  0  0
  6  7  2  0  0  0  0
  6  8  1  0  0  0  0
  8  9  1  0  0  0  0
  8 31  1  0  0  0  0
  9 10  1  0  0  0  0
  9 32  1  0  0  0  0
  9 33  1  0  0  0  0
 10 11  1  0  0  0  0
 10 34  1  0  0  0  0
 10 35  1  0  0  0  0
 11 16  1  0  0  0  0
 11 12  2  0  0  0  0
 12 13  1  0  0  0  0
 12 36  1  0  0  0  0
 13 14  2  0  0  0  0
 13 37  1  0  0  0  0
 14 15  1  0  0  0  0
 14 38  1  0  0  0  0
 15 16  2  0  0  0  0
 15 39  1  0  0  0  0
 17 18  1  0  0  0  0
 17 19  1  0  0  0  0
 17 40  1  0  0  0  0
 18 41  1  0  0  0  0
 18 42  1  0  0  0  0
 18 43  1  0  0  0  0
 19 44  1  0  0  0  0
 19 45  1  0  0  0  0
 19 46  1  0  0  0  0
 20 21  1  0  0  0  0
 20 47  1  0  0  0  0
 20 48  1  0  0  0  0
 21 22  1  0  0  0  0
 21 23  1  0  0  0  0
 21 49  1  0  0  0  0
 22 50  1  0  0  0  0
 22 51  1  0  0  0  0
 22 52  1  0  0  0  0
M  END
> <s_m_source_file>
AV-unprocessed.smi

> <i_m_source_file_index>
1762

> <i_lp_mmshare_version>
43012

> <i_f3d_flags>
0

> <s_epik_input>
W0NIM11bQ0BASF0xW0NIMl1OKFtDSDJdW0NASF0oTzEpW0NIM10pW0NAQEhdKFtDSF0oW0NIM10pW0NIM10pQyg9TylbTkhdW0NIMl1bQ0gyXWMyW2NIXVtjSF1bY0hdW2NIXW4y

> <s_epik_cmdline>
J2VwaWtfcHl0aG9uJywgJy1waCcsICc3LjAnLCAnLXRuJywgJzgnLCAnLW1hJywgJzIwMCcsICctbWV0YWxfYmluZGluZycsICctaW1hZScsICc8aW5maWxlLm1hZT4nLCAnLW9tYWUnLCAnPG91dGZpbGUubWFlPic=

> <r_epik_Ionization_Penalty>
0.0399736

> <r_epik_Ionization_Penalty_Charging>
0

> <r_epik_Ionization_Penalty_Neutral>
0.0399736

> <r_epik_State_Penalty>
0.0317634

> <r_epik_Charging_Adjusted_Penalty>
0.0317634

> <i_epik_Tot_Q>
0

> <i_epik_Tot_abs_Q>
0

> <r_epik_Metal_State_Penalty>
0.0307795

> <b_epik_Metal_Only>
0

> <s_lp_Force_Field>
OPLS_2005

> <r_lp_Energy>
29.7417

> <b_lp_Chiralities_Consistent>
1

> <s_lp_Variant>
AV-unprocessed.smi:1762-5

> <Gold.Version>
5.8.1

> <Gold.Id.Protein>
6NUR|6NUR_protein|mol2

> <Gold.PLP.Fitness>
47.7166

> <Gold.PLP.PLP>
-44.4512

> <Gold.PLP.part.hbond>
-2.7225

> <Gold.PLP.part.metal>
0.0000

> <Gold.PLP.part.buried>
-4.5682

> <Gold.PLP.part.nonpolar>
-38.3421

> <Gold.PLP.part.repulsive>
0.1974

> <Gold.PLP.ligand.clash>
0.0000

> <Gold.PLP.ligand.torsion>
1.0284

> <Gold.PLP.Chemscore.Hbond>
1.6800

> <Gold.PLP.Chemscore.CHOScore>
0.0000

> <Gold.PLP.Chemscore.Metal>
0.0000

> <Gold.Chemscore.Hbonds>
donor molecule, donor type, donor heavy atom, donor atom, acceptor molecule, acceptor atom, score
      P1  H  6931  6943       L1    16  0.67
      P1  H  6934  6947       L1    16  0.96

> <Gold.PLP.Chemscore.Internal.Correction>
0.2821

> <Gold.Rescore>
     Score         DG    S(hbond)    S(metal)    S(lipo)     H(rot)  DE(clash)    DE(int)     intcor
     13.17     -18.92       0.89        0.00     124.40       1.60       1.29       4.46       ----

> <Gold.Chemscore.Fitness>
13.1671

> <Gold.Chemscore.DG>
-18.9172

> <Gold.Chemscore.ZeroCoef>
-5.4800

> <Gold.Chemscore.Hbond>
0.8911

> <Gold.Chemscore.Metal>
0.0000

> <Gold.Chemscore.Lipo>
124.4028

> <Gold.Chemscore.Internal_Hbond>
0.0000

> <Gold.Chemscore.DEClash>
1.2946

> <Gold.Chemscore.DEInternal>
4.4555

> <Gold.Chemscore.Rot>
1.5993

> <Gold.Chemscore.Internal.Correction>
   9.000000E+99

> <Gold.Chemscore.Hbonds>
donor molecule, donor type, donor heavy atom, donor atom, acceptor molecule, acceptor atom, score
      P1  H  6931  6943       L1    16  0.06
      P1  H  6934  6947       L1    16  0.80

> <Gold.Chemscore.Hbond.Weighted>
-2.9761

> <Gold.Chemscore.Metal.Weighted>
-0.0000

> <Gold.Chemscore.Lipo.Weighted>
-14.5551

> <Gold.Chemscore.Internal_Hbond.Weighted>
0.0000

> <Gold.Chemscore.DEClash.Weighted>
1.2946

> <Gold.Chemscore.DEInternal.Weighted>
4.4555

> <Gold.Chemscore.Rot.Weighted>
4.0941

> <Gold.Chemscore.Internal.Correction.Weighted>
   9.000000E+99

> <Gold.Protein.RotatedTorsions>
[ 6907 6896 6895 6894 ] final -154.45 input  -60.11 | X-H torsion
[ 7974 7965 7964 7962 ] final  -96.51 input  175.53 | X-H torsion
[ 8008 7997 7996 7995 ] final  -30.26 input   59.86 | X-H torsion
[ 10167 10162 10161 10158 ] final -124.58 input  -65.29 | X-H torsion
[ 10718 10713 10712 10709 ] final  -27.32 input   66.30 | X-H torsion
[ 10763 10752 10751 10750 ] final  -48.73 input  -60.55 | X-H torsion
[ 11005 11000 10999 10996 ] final  134.71 input  -57.11 | X-H torsion

> <Gold.Protein.ActiveResidues>
 VAL166  LYS551  ARG553  GLY616  TRP617  ASP618  TYR619  PRO620  LYS621  CYS622 
 ASP623  PHE694  ASN695  SER759  ASP760  ASP761  ALA762  ILE779  LEU786  VAL792 
 PHE793  MET794  SER795  GLU796  ALA797  LYS798  CYS799  TRP800  GLU811  SER814 

> <Gold.Protein.RotatedAtoms>
  151.2577  133.4318  159.2614 H   0  0  0  0  0  0  0  0  0  0  0  0  # atno 6907 bound_to 6896
  151.0559  134.9704  159.8246 H   0  0  0  0  0  0  0  0  0  0  0  0  # atno 6908 bound_to 6896
  152.5390  134.2530  159.8958 H   0  0  0  0  0  0  0  0  0  0  0  0  # atno 6909 bound_to 6896
  145.3459  140.9468  143.2581 H   0  0  0  0  0  0  0  0  0  0  0  0  # atno 7974 bound_to 7965
  154.4257  140.1796  156.1378 H   0  0  0  0  0  0  0  0  0  0  0  0  # atno 8008 bound_to 7997
  156.0016  140.3359  155.6826 H   0  0  0  0  0  0  0  0  0  0  0  0  # atno 8009 bound_to 7997
  155.6235  140.0662  157.2661 H   0  0  0  0  0  0  0  0  0  0  0  0  # atno 8010 bound_to 7997
  139.9913  143.5638  152.2341 H   0  0  0  0  0  0  0  0  0  0  0  0  # atno 10167 bound_to 10162
  156.4397  130.4462  149.7061 H   0  0  0  0  0  0  0  0  0  0  0  0  # atno 10718 bound_to 10713
  154.0825  135.6589  153.4840 H   0  0  0  0  0  0  0  0  0  0  0  0  # atno 10763 bound_to 10752
  153.0351  135.5183  154.7460 H   0  0  0  0  0  0  0  0  0  0  0  0  # atno 10764 bound_to 10752
  154.6559  135.3008  154.9896 H   0  0  0  0  0  0  0  0  0  0  0  0  # atno 10765 bound_to 10752
  139.9932  134.9507  156.9905 H   0  0  0  0  0  0  0  0  0  0  0  0  # atno 11005 bound_to 11000
  144.8754  139.4978  143.6748 LP  0  0  0  0  0  0  0  0  0  0  0  0  # atno 17320 bound_to 7965
  146.2988  139.7361  142.9107 LP  0  0  0  0  0  0  0  0  0  0  0  0  # atno 17321 bound_to 7965
  139.6338  144.7647  151.2480 LP  0  0  0  0  0  0  0  0  0  0  0  0  # atno 17342 bound_to 10162
  140.7454  143.6433  150.8315 LP  0  0  0  0  0  0  0  0  0  0  0  0  # atno 17343 bound_to 10162
  156.3930  130.7637  151.2639 LP  0  0  0  0  0  0  0  0  0  0  0  0  # atno 17370 bound_to 10713
  157.7506  131.0262  150.3952 LP  0  0  0  0  0  0  0  0  0  0  0  0  # atno 17371 bound_to 10713
  140.4867  134.1234  155.7226 LP  0  0  0  0  0  0  0  0  0  0  0  0  # atno 17394 bound_to 11000
  141.1583  133.8840  157.1917 LP  0  0  0  0  0  0  0  0  0  0  0  0  # atno 17395 bound_to 11000

$$$$
