AV-unprocessed.smi:1295|AV-procd|sdf|5409|dock6
  -GOLD-   22720 4563D 1   1.00000     0.00000
 Structure written by MMmdl.
 42 43  0  0  0  0  0  0  0  0  2 V2000
  149.7633  135.3707  154.5428 C   0  0  0  0  0  0  0  0  0  0  0  0
  150.2486  136.7835  154.7856 C   0  0  0  0  0  0  0  0  0  0  0  0
  149.5253  137.7672  154.4066 N   0  0  0  0  0  0  0  0  0  0  0  0
  149.9701  139.0805  154.6343 C   0  0  0  0  0  0  0  0  0  0  0  0
  149.0480  140.1865  154.1505 C   0  0  0  0  0  0  0  0  0  0  0  0
  151.1600  139.3251  155.2547 C   0  0  0  0  0  0  0  0  0  0  0  0
  151.6856  140.7344  155.5251 C   0  0  0  0  0  0  0  0  0  0  0  0
  151.0693  141.4512  156.7281 C   0  0  0  0  0  0  0  0  0  0  0  0
  149.8680  141.7191  156.7435 O   0  0  0  0  0  0  0  0  0  0  0  0
  151.9106  141.7576  157.7279 N   0  0  0  0  0  0  0  0  0  0  0  0
  151.5651  142.4775  158.9525 C   0  0  2  0  0  0  0  0  0  0  0  0
  151.1844  143.9235  158.5782 C   0  0  0  0  0  0  0  0  0  0  0  0
  150.8717  144.7712  159.8195 C   0  0  0  0  0  0  0  0  0  0  0  0
  152.0464  144.7534  160.8063 C   0  0  0  0  0  0  0  0  0  0  0  0
  152.4119  143.3144  161.1989 C   0  0  0  0  0  0  0  0  0  0  0  0
  152.7376  142.4454  159.9670 C   0  0  1  0  0  0  0  0  0  0  0  0
  153.1095  141.0168  160.4030 C   0  0  0  0  0  0  0  0  0  0  0  0
  151.9627  138.1636  155.6776 C   0  0  0  0  0  0  0  0  0  0  0  0
  153.0389  138.3269  156.2511 O   0  0  0  0  0  0  0  0  0  0  0  0
  151.4666  136.9215  155.4123 N   0  5  0  0  0  0  0  0  0  0  0  0
  148.7201  135.3627  154.2241 H   0  0  0  0  0  0  0  0  0  0  0  0
  149.8445  134.7782  155.4546 H   0  0  0  0  0  0  0  0  0  0  0  0
  150.3637  134.8958  153.7667 H   0  0  0  0  0  0  0  0  0  0  0  0
  149.5410  140.7893  153.3877 H   0  0  0  0  0  0  0  0  0  0  0  0
  148.7607  140.8370  154.9768 H   0  0  0  0  0  0  0  0  0  0  0  0
  148.1352  139.7772  153.7157 H   0  0  0  0  0  0  0  0  0  0  0  0
  152.7684  140.7291  155.6523 H   0  0  0  0  0  0  0  0  0  0  0  0
  151.5179  141.3355  154.6308 H   0  0  0  0  0  0  0  0  0  0  0  0
  152.8781  141.4896  157.6214 H   0  0  0  0  0  0  0  0  0  0  0  0
  150.6931  142.0190  159.4230 H   0  0  0  0  0  0  0  0  0  0  0  0
  151.9998  144.3888  158.0223 H   0  0  0  0  0  0  0  0  0  0  0  0
  150.3205  143.9198  157.9120 H   0  0  0  0  0  0  0  0  0  0  0  0
  150.6499  145.7967  159.5232 H   0  0  0  0  0  0  0  0  0  0  0  0
  149.9753  144.3883  160.3091 H   0  0  0  0  0  0  0  0  0  0  0  0
  152.9118  145.2429  160.3575 H   0  0  0  0  0  0  0  0  0  0  0  0
  151.7924  145.3286  161.6971 H   0  0  0  0  0  0  0  0  0  0  0  0
  153.2638  143.3305  161.8794 H   0  0  0  0  0  0  0  0  0  0  0  0
  151.5844  142.8698  161.7536 H   0  0  0  0  0  0  0  0  0  0  0  0
  153.6150  142.8778  159.4835 H   0  0  0  0  0  0  0  0  0  0  0  0
  152.2572  140.5072  160.8532 H   0  0  0  0  0  0  0  0  0  0  0  0
  153.9154  141.0280  161.1372 H   0  0  0  0  0  0  0  0  0  0  0  0
  153.4509  140.4139  159.5615 H   0  0  0  0  0  0  0  0  0  0  0  0
  1  2  1  0  0  0  0
  1 21  1  0  0  0  0
  1 22  1  0  0  0  0
  1 23  1  0  0  0  0
  2 20  1  0  0  0  0
  2  3  2  0  0  0  0
  3  4  1  0  0  0  0
  4  5  1  0  0  0  0
  4  6  2  0  0  0  0
  5 24  1  0  0  0  0
  5 25  1  0  0  0  0
  5 26  1  0  0  0  0
  6  7  1  0  0  0  0
  6 18  1  0  0  0  0
  7  8  1  0  0  0  0
  7 27  1  0  0  0  0
  7 28  1  0  0  0  0
  8  9  2  0  0  0  0
  8 10  1  0  0  0  0
 10 11  1  0  0  0  0
 10 29  1  0  0  0  0
 11 16  1  0  0  0  0
 11 12  1  0  0  0  0
 11 30  1  0  0  0  0
 12 13  1  0  0  0  0
 12 31  1  0  0  0  0
 12 32  1  0  0  0  0
 13 14  1  0  0  0  0
 13 33  1  0  0  0  0
 13 34  1  0  0  0  0
 14 15  1  0  0  0  0
 14 35  1  0  0  0  0
 14 36  1  0  0  0  0
 15 16  1  0  0  0  0
 15 37  1  0  0  0  0
 15 38  1  0  0  0  0
 16 17  1  0  0  0  0
 16 39  1  0  0  0  0
 17 40  1  0  0  0  0
 17 41  1  0  0  0  0
 17 42  1  0  0  0  0
 18 19  2  0  0  0  0
 18 20  1  0  0  0  0
M  CHG  1  20  -1
M  END
> <s_m_source_file>
AV-unprocessed.smi

> <i_m_source_file_index>
1295

> <i_lp_mmshare_version>
43012

> <i_f3d_flags>
0

> <s_epik_input>
W0NIM11jMW5jKFtDSDNdKWMoYyg9TylbbkhdMSlbQ0gyXUMoPU8pW05IXVtDQEBIXTJbQ0gyXVtDSDJdW0NIMl1bQ0gyXVtDQEhdMltDSDNd

> <s_epik_cmdline>
J2VwaWtfcHl0aG9uJywgJy1waCcsICc3LjAnLCAnLXRuJywgJzgnLCAnLW1hJywgJzIwMCcsICctbWV0YWxfYmluZGluZycsICctaW1hZScsICc8aW5maWxlLm1hZT4nLCAnLW9tYWUnLCAnPG91dGZpbGUubWFlPic=

> <r_lp_tautomer_probability>
0.839158

> <r_epik_Ionization_Penalty>
6.67742

> <r_epik_Ionization_Penalty_Charging>
7.78154e-08

> <r_epik_Ionization_Penalty_Neutral>
6.67742

> <r_epik_State_Penalty>
4.51991

> <r_epik_Charging_Adjusted_Penalty>
4.51991

> <i_epik_Tot_Q>
-1

> <i_epik_Tot_abs_Q>
1

> <r_epik_Metal_State_Penalty>
0.853272

> <b_epik_Metal_Only>
1

> <s_lp_Force_Field>
OPLS_2005

> <r_lp_Energy>
15.3241

> <b_lp_Chiralities_Consistent>
1

> <s_lp_Variant>
AV-unprocessed.smi:1295-9

> <Gold.Version>
5.8.1

> <Gold.Id.Protein>
6NUR|6NUR_protein|mol2

> <Gold.PLP.Fitness>
48.1832

> <Gold.PLP.PLP>
-40.1519

> <Gold.PLP.part.hbond>
-2.0000

> <Gold.PLP.part.metal>
0.0000

> <Gold.PLP.part.buried>
-3.4806

> <Gold.PLP.part.nonpolar>
-34.7162

> <Gold.PLP.part.repulsive>
0.3877

> <Gold.PLP.ligand.clash>
0.0000

> <Gold.PLP.ligand.torsion>
0.3310

> <Gold.PLP.Chemscore.Hbond>
2.8960

> <Gold.PLP.Chemscore.CHOScore>
0.0000

> <Gold.PLP.Chemscore.Metal>
0.0000

> <Gold.Chemscore.Hbonds>
donor molecule, donor type, donor heavy atom, donor atom, acceptor molecule, acceptor atom, score
      P1  H  7997  8010       L1    19  0.58
      P1  H 10752 10764       L1    20  1.46

> <Gold.PLP.Chemscore.Internal.Correction>
0.0052

> <Gold.Rescore>
     Score         DG    S(hbond)    S(metal)    S(lipo)     H(rot)  DE(clash)    DE(int)     intcor
     17.61     -19.32       1.72        0.00     100.73       1.45       0.15       1.56       ----

> <Gold.Chemscore.Fitness>
17.6087

> <Gold.Chemscore.DG>
-19.3153

> <Gold.Chemscore.ZeroCoef>
-5.4800

> <Gold.Chemscore.Hbond>
1.7214

> <Gold.Chemscore.Metal>
0.0000

> <Gold.Chemscore.Lipo>
100.7257

> <Gold.Chemscore.Internal_Hbond>
0.0000

> <Gold.Chemscore.DEClash>
0.1456

> <Gold.Chemscore.DEInternal>
1.5610

> <Gold.Chemscore.Rot>
1.4450

> <Gold.Chemscore.Internal.Correction>
   9.000000E+99

> <Gold.Chemscore.Hbonds>
donor molecule, donor type, donor heavy atom, donor atom, acceptor molecule, acceptor atom, score
      P1  H  7997  8010       L1    19  0.55
      P1  H 10752 10764       L1    20  0.54

> <Gold.Chemscore.Hbond.Weighted>
-5.7496

> <Gold.Chemscore.Metal.Weighted>
-0.0000

> <Gold.Chemscore.Lipo.Weighted>
-11.7849

> <Gold.Chemscore.Internal_Hbond.Weighted>
0.0000

> <Gold.Chemscore.DEClash.Weighted>
0.1456

> <Gold.Chemscore.DEInternal.Weighted>
1.5610

> <Gold.Chemscore.Rot.Weighted>
3.6992

> <Gold.Chemscore.Internal.Correction.Weighted>
   9.000000E+99

> <Gold.Protein.RotatedTorsions>
[ 6907 6896 6895 6894 ] final  115.66 input  -60.11 | X-H torsion
[ 7974 7965 7964 7962 ] final   61.31 input  175.53 | X-H torsion
[ 8008 7997 7996 7995 ] final   71.87 input   59.86 | X-H torsion
[ 10167 10162 10161 10158 ] final   63.79 input  -65.29 | X-H torsion
[ 10718 10713 10712 10709 ] final  -14.94 input   66.30 | X-H torsion
[ 10763 10752 10751 10750 ] final  -48.97 input  -60.55 | X-H torsion
[ 11005 11000 10999 10996 ] final  167.99 input  -57.11 | X-H torsion

> <Gold.Protein.ActiveResidues>
 VAL166  LYS551  ARG553  GLY616  TRP617  ASP618  TYR619  PRO620  LYS621  CYS622 
 ASP623  PHE694  ASN695  SER759  ASP760  ASP761  ALA762  ILE779  LEU786  VAL792 
 PHE793  MET794  SER795  GLU796  ALA797  LYS798  CYS799  TRP800  GLU811  SER814 

> <Gold.Protein.RotatedAtoms>
  152.4728  133.8068  159.6981 H   0  0  0  0  0  0  0  0  0  0  0  0  # atno 6907 bound_to 6896
  150.8726  133.7474  159.2963 H   0  0  0  0  0  0  0  0  0  0  0  0  # atno 6908 bound_to 6896
  151.5004  135.1065  159.9879 H   0  0  0  0  0  0  0  0  0  0  0  0  # atno 6909 bound_to 6896
  145.8862  139.3478  143.0676 H   0  0  0  0  0  0  0  0  0  0  0  0  # atno 7974 bound_to 7965
  155.7604  140.3486  155.5195 H   0  0  0  0  0  0  0  0  0  0  0  0  # atno 8008 bound_to 7997
  155.8920  140.1019  157.1433 H   0  0  0  0  0  0  0  0  0  0  0  0  # atno 8009 bound_to 7997
  154.4034  140.1302  156.4314 H   0  0  0  0  0  0  0  0  0  0  0  0  # atno 8010 bound_to 7997
  140.1292  144.4659  150.6875 H   0  0  0  0  0  0  0  0  0  0  0  0  # atno 10167 bound_to 10162
  156.6088  130.4844  149.6210 H   0  0  0  0  0  0  0  0  0  0  0  0  # atno 10718 bound_to 10713
  154.0864  135.6584  153.4845 H   0  0  0  0  0  0  0  0  0  0  0  0  # atno 10763 bound_to 10752
  153.0337  135.5192  154.7424 H   0  0  0  0  0  0  0  0  0  0  0  0  # atno 10764 bound_to 10752
  154.6534  135.3004  154.9927 H   0  0  0  0  0  0  0  0  0  0  0  0  # atno 10765 bound_to 10752
  140.2825  134.7738  157.3770 H   0  0  0  0  0  0  0  0  0  0  0  0  # atno 11005 bound_to 11000
  145.8964  140.9271  143.0525 LP  0  0  0  0  0  0  0  0  0  0  0  0  # atno 17320 bound_to 7965
  144.6728  140.0974  143.7462 LP  0  0  0  0  0  0  0  0  0  0  0  0  # atno 17321 bound_to 7965
  140.6827  143.2334  151.5342 LP  0  0  0  0  0  0  0  0  0  0  0  0  # atno 17342 bound_to 10162
  139.5528  144.2351  152.1561 LP  0  0  0  0  0  0  0  0  0  0  0  0  # atno 17343 bound_to 10162
  156.2407  130.6849  151.1553 LP  0  0  0  0  0  0  0  0  0  0  0  0  # atno 17370 bound_to 10713
  157.7260  131.0649  150.5930 LP  0  0  0  0  0  0  0  0  0  0  0  0  # atno 17371 bound_to 10713
  140.1270  134.5145  155.8137 LP  0  0  0  0  0  0  0  0  0  0  0  0  # atno 17394 bound_to 11000
  141.2160  133.6776  156.6969 LP  0  0  0  0  0  0  0  0  0  0  0  0  # atno 17395 bound_to 11000

$$$$
