AV-unprocessed.smi:3318|AV-procd|sdf|12765|dock4
  -GOLD-   2272019103D 1   1.00000     0.00000
 Structure written by MMmdl.
 44 45  0  0  0  0  0  0  0  0  2 V2000
  144.3809  133.6381  150.5775 C   0  0  0  0  0  0  0  0  0  0  0  0
  145.2760  134.8637  150.7914 C   0  0  0  0  0  0  0  0  0  0  0  0
  145.4650  135.1972  152.2813 C   0  0  0  0  0  0  0  0  0  0  0  0
  146.2798  136.4208  152.4925 N   0  3  2  0  0  0  0  0  0  0  0  0
  146.3397  136.8501  153.9152 C   0  0  0  0  0  0  0  0  0  0  0  0
  147.2929  138.0432  154.0989 C   0  0  0  0  0  0  0  0  0  0  0  0
  146.8854  139.2234  153.1955 C   0  0  1  0  0  0  0  0  0  0  0  0
  147.8591  140.3059  153.2664 N   0  0  0  0  0  0  0  0  0  0  0  0
  147.8820  140.9365  154.5784 C   0  0  0  0  0  0  0  0  0  0  0  0
  149.2153  141.6692  154.7799 C   0  0  0  0  0  0  0  0  0  0  0  0
  150.3040  140.7354  155.2737 C   0  0  0  0  0  0  0  0  0  0  0  0
  150.7644  140.8054  156.6059 C   0  0  0  0  0  0  0  0  0  0  0  0
  151.7662  139.9052  157.0176 C   0  0  0  0  0  0  0  0  0  0  0  0
  152.2659  138.9742  156.0866 C   0  0  0  0  0  0  0  0  0  0  0  0
  151.7394  138.9852  154.7796 C   0  0  0  0  0  0  0  0  0  0  0  0
  150.7784  139.8435  154.3747 N   0  0  0  0  0  0  0  0  0  0  0  0
  146.8033  138.7399  151.7389 C   0  0  0  0  0  0  0  0  0  0  0  0
  145.8559  137.5365  151.6079 C   0  0  0  0  0  0  0  0  0  0  0  0
  144.2658  133.4224  149.5150 H   0  0  0  0  0  0  0  0  0  0  0  0
  143.3858  133.7984  150.9927 H   0  0  0  0  0  0  0  0  0  0  0  0
  144.8045  132.7527  151.0525 H   0  0  0  0  0  0  0  0  0  0  0  0
  146.2377  134.6766  150.3149 H   0  0  0  0  0  0  0  0  0  0  0  0
  144.8367  135.7195  150.2778 H   0  0  0  0  0  0  0  0  0  0  0  0
  144.4765  135.3494  152.7167 H   0  0  0  0  0  0  0  0  0  0  0  0
  145.9097  134.3557  152.8148 H   0  0  0  0  0  0  0  0  0  0  0  0
  145.3387  137.1158  154.2590 H   0  0  0  0  0  0  0  0  0  0  0  0
  146.6812  136.0306  154.5461 H   0  0  0  0  0  0  0  0  0  0  0  0
  147.2903  138.3392  155.1480 H   0  0  0  0  0  0  0  0  0  0  0  0
  148.3126  137.7306  153.8681 H   0  0  0  0  0  0  0  0  0  0  0  0
  145.9040  139.5979  153.4918 H   0  0  0  0  0  0  0  0  0  0  0  0
  148.7798  139.9688  153.0227 H   0  0  0  0  0  0  0  0  0  0  0  0
  147.0542  141.6420  154.6611 H   0  0  0  0  0  0  0  0  0  0  0  0
  147.7548  140.1879  155.3602 H   0  0  0  0  0  0  0  0  0  0  0  0
  149.5405  142.1254  153.8434 H   0  0  0  0  0  0  0  0  0  0  0  0
  149.0918  142.4853  155.4935 H   0  0  0  0  0  0  0  0  0  0  0  0
  150.3587  141.5283  157.2984 H   0  0  0  0  0  0  0  0  0  0  0  0
  152.1429  139.9274  158.0293 H   0  0  0  0  0  0  0  0  0  0  0  0
  153.0332  138.2682  156.3674 H   0  0  0  0  0  0  0  0  0  0  0  0
  152.0985  138.2850  154.0400 H   0  0  0  0  0  0  0  0  0  0  0  0
  146.4579  139.5494  151.0943 H   0  0  0  0  0  0  0  0  0  0  0  0
  147.7947  138.4591  151.3790 H   0  0  0  0  0  0  0  0  0  0  0  0
  145.8483  137.2026  150.5697 H   0  0  0  0  0  0  0  0  0  0  0  0
  144.8346  137.8315  151.8545 H   0  0  0  0  0  0  0  0  0  0  0  0
  147.2225  136.1867  152.2152 H   0  0  0  0  0  0  0  0  0  0  0  0
  1  2  1  0  0  0  0
  1 19  1  0  0  0  0
  1 20  1  0  0  0  0
  1 21  1  0  0  0  0
  2  3  1  0  0  0  0
  2 22  1  0  0  0  0
  2 23  1  0  0  0  0
  3  4  1  0  0  0  0
  3 24  1  0  0  0  0
  3 25  1  0  0  0  0
  4 18  1  0  0  0  0
  4  5  1  0  0  0  0
  4 44  1  0  0  0  0
  5  6  1  0  0  0  0
  5 26  1  0  0  0  0
  5 27  1  0  0  0  0
  6  7  1  0  0  0  0
  6 28  1  0  0  0  0
  6 29  1  0  0  0  0
  7  8  1  0  0  0  0
  7 17  1  0  0  0  0
  7 30  1  0  0  0  0
  8  9  1  0  0  0  0
  8 31  1  0  0  0  0
  9 10  1  0  0  0  0
  9 32  1  0  0  0  0
  9 33  1  0  0  0  0
 10 11  1  0  0  0  0
 10 34  1  0  0  0  0
 10 35  1  0  0  0  0
 11 16  1  0  0  0  0
 11 12  2  0  0  0  0
 12 13  1  0  0  0  0
 12 36  1  0  0  0  0
 13 14  2  0  0  0  0
 13 37  1  0  0  0  0
 14 15  1  0  0  0  0
 14 38  1  0  0  0  0
 15 16  2  0  0  0  0
 15 39  1  0  0  0  0
 17 18  1  0  0  0  0
 17 40  1  0  0  0  0
 17 41  1  0  0  0  0
 18 42  1  0  0  0  0
 18 43  1  0  0  0  0
M  CHG  1   4   1
M  END
> <s_m_source_file>
AV-unprocessed.smi

> <i_m_source_file_index>
3318

> <i_lp_mmshare_version>
43012

> <i_f3d_flags>
0

> <s_epik_input>
W0NIM11bQ0gyXVtDSDJdTjFbQ0gyXVtDSDJdW0NIXShbQ0gyXVtDSDJdMSlbTkhdW0NIMl1bQ0gyXWMyW2NIXVtjSF1bY0hdW2NIXW4y

> <s_epik_cmdline>
J2VwaWtfcHl0aG9uJywgJy1waCcsICc3LjAnLCAnLXRuJywgJzgnLCAnLW1hJywgJzIwMCcsICctbWV0YWxfYmluZGluZycsICctaW1hZScsICc8aW5maWxlLm1hZT4nLCAnLW9tYWUnLCAnPG91dGZpbGUubWFlPic=

> <r_epik_Ionization_Penalty>
2.30703

> <r_epik_Ionization_Penalty_Charging>
0.000286176

> <r_epik_Ionization_Penalty_Neutral>
2.30674

> <r_epik_State_Penalty>
2.39905

> <r_epik_Charging_Adjusted_Penalty>
2.39933

> <i_epik_Tot_Q>
1

> <i_epik_Tot_abs_Q>
1

> <r_epik_Metal_State_Penalty>
2.30906

> <b_epik_Metal_Only>
0

> <s_lp_Force_Field>
OPLS_2005

> <r_lp_Energy>
18.8506

> <b_lp_Chiralities_Consistent>
1

> <s_lp_Variant>
AV-unprocessed.smi:3318-4

> <Gold.Version>
5.8.1

> <Gold.Id.Protein>
6NUR|6NUR_protein|mol2

> <Gold.PLP.Fitness>
44.8968

> <Gold.PLP.PLP>
-35.2171

> <Gold.PLP.part.hbond>
-3.0000

> <Gold.PLP.part.metal>
0.0000

> <Gold.PLP.part.buried>
1.4285

> <Gold.PLP.part.nonpolar>
-33.1976

> <Gold.PLP.part.repulsive>
0.1411

> <Gold.PLP.ligand.clash>
0.0000

> <Gold.PLP.ligand.torsion>
0.4513

> <Gold.PLP.Chemscore.Hbond>
3.4992

> <Gold.PLP.Chemscore.CHOScore>
0.0000

> <Gold.PLP.Chemscore.Metal>
0.0000

> <Gold.Chemscore.Hbonds>
donor molecule, donor type, donor heavy atom, donor atom, acceptor molecule, acceptor atom, score
      L1  H     4    44       P1  7948  2.00
      L1  H     8    31       P1  7957  0.48
      P1  H  7989  7998       L1    16  0.90

> <Gold.PLP.Chemscore.Internal.Correction>
0.0847

> <Gold.Rescore>
     Score         DG    S(hbond)    S(metal)    S(lipo)     H(rot)  DE(clash)    DE(int)     intcor
     17.07     -18.46       1.76        0.00      93.03       1.48       0.77       0.62       ----

> <Gold.Chemscore.Fitness>
17.0733

> <Gold.Chemscore.DG>
-18.4639

> <Gold.Chemscore.ZeroCoef>
-5.4800

> <Gold.Chemscore.Hbond>
1.7639

> <Gold.Chemscore.Metal>
0.0000

> <Gold.Chemscore.Lipo>
93.0278

> <Gold.Chemscore.Internal_Hbond>
0.0000

> <Gold.Chemscore.DEClash>
0.7668

> <Gold.Chemscore.DEInternal>
0.6238

> <Gold.Chemscore.Rot>
1.4811

> <Gold.Chemscore.Internal.Correction>
   9.000000E+99

> <Gold.Chemscore.Hbonds>
donor molecule, donor type, donor heavy atom, donor atom, acceptor molecule, acceptor atom, score
      L1  H     4    44       P1  7948  1.00
      L1  H     8    31       P1  7957  0.46
      P1  H  7989  7998       L1    16  0.05

> <Gold.Chemscore.Hbond.Weighted>
-5.8914

> <Gold.Chemscore.Metal.Weighted>
-0.0000

> <Gold.Chemscore.Lipo.Weighted>
-10.8843

> <Gold.Chemscore.Internal_Hbond.Weighted>
0.0000

> <Gold.Chemscore.DEClash.Weighted>
0.7668

> <Gold.Chemscore.DEInternal.Weighted>
0.6238

> <Gold.Chemscore.Rot.Weighted>
3.7917

> <Gold.Chemscore.Internal.Correction.Weighted>
   9.000000E+99

> <Gold.Protein.RotatedTorsions>
[ 6907 6896 6895 6894 ] final -131.56 input  -60.11 | X-H torsion
[ 7974 7965 7964 7962 ] final   15.45 input  175.53 | X-H torsion
[ 8008 7997 7996 7995 ] final  -66.33 input   59.86 | X-H torsion
[ 10167 10162 10161 10158 ] final  -12.73 input  -65.29 | X-H torsion
[ 10718 10713 10712 10709 ] final  -99.82 input   66.30 | X-H torsion
[ 10763 10752 10751 10750 ] final   -0.41 input  -60.55 | X-H torsion
[ 11005 11000 10999 10996 ] final -115.22 input  -57.11 | X-H torsion

> <Gold.Protein.ActiveResidues>
 VAL166  LYS551  ARG553  GLY616  TRP617  ASP618  TYR619  PRO620  LYS621  CYS622 
 ASP623  PHE694  ASN695  SER759  ASP760  ASP761  ALA762  ILE779  LEU786  VAL792 
 PHE793  MET794  SER795  GLU796  ALA797  LYS798  CYS799  TRP800  GLU811  SER814 

> <Gold.Protein.RotatedAtoms>
  150.9523  133.6535  159.2769 H   0  0  0  0  0  0  0  0  0  0  0  0  # atno 6907 bound_to 6896
  151.3887  135.0951  159.9529 H   0  0  0  0  0  0  0  0  0  0  0  0  # atno 6908 bound_to 6896
  152.5115  133.9042  159.7511 H   0  0  0  0  0  0  0  0  0  0  0  0  # atno 6909 bound_to 6896
  146.2278  139.8893  142.8557 H   0  0  0  0  0  0  0  0  0  0  0  0  # atno 7974 bound_to 7965
  154.4728  140.0915  156.7187 H   0  0  0  0  0  0  0  0  0  0  0  0  # atno 8008 bound_to 7997
  155.4678  140.3463  155.4303 H   0  0  0  0  0  0  0  0  0  0  0  0  # atno 8009 bound_to 7997
  156.1067  140.1436  156.9383 H   0  0  0  0  0  0  0  0  0  0  0  0  # atno 8010 bound_to 7997
  140.7167  143.5501  150.9311 H   0  0  0  0  0  0  0  0  0  0  0  0  # atno 10167 bound_to 10162
  156.0145  130.5300  150.6726 H   0  0  0  0  0  0  0  0  0  0  0  0  # atno 10718 bound_to 10713
  153.3316  135.6975  153.6943 H   0  0  0  0  0  0  0  0  0  0  0  0  # atno 10763 bound_to 10752
  153.5743  135.3510  155.2851 H   0  0  0  0  0  0  0  0  0  0  0  0  # atno 10764 bound_to 10752
  154.8619  135.4280  154.2506 H   0  0  0  0  0  0  0  0  0  0  0  0  # atno 10765 bound_to 10752
  141.0501  133.9700  157.2850 H   0  0  0  0  0  0  0  0  0  0  0  0  # atno 11005 bound_to 11000
  145.2434  141.0017  143.3923 LP  0  0  0  0  0  0  0  0  0  0  0  0  # atno 17320 bound_to 7965
  144.9433  139.4164  143.6438 LP  0  0  0  0  0  0  0  0  0  0  0  0  # atno 17321 bound_to 7965
  139.9225  143.6589  152.3094 LP  0  0  0  0  0  0  0  0  0  0  0  0  # atno 17342 bound_to 10162
  139.7011  144.7635  151.1272 LP  0  0  0  0  0  0  0  0  0  0  0  0  # atno 17343 bound_to 10162
  157.4446  131.0865  151.0909 LP  0  0  0  0  0  0  0  0  0  0  0  0  # atno 17370 bound_to 10713
  157.1443  130.6156  149.5564 LP  0  0  0  0  0  0  0  0  0  0  0  0  # atno 17371 bound_to 10713
  139.9344  135.0197  156.8506 LP  0  0  0  0  0  0  0  0  0  0  0  0  # atno 17394 bound_to 11000
  140.6071  134.0117  155.7561 LP  0  0  0  0  0  0  0  0  0  0  0  0  # atno 17395 bound_to 11000

$$$$
