AV-unprocessed.smi:1278|AV-procd|sdf|5347|dock1
  -GOLD-   22720 4483D 1   1.00000     0.00000
 Structure written by MMmdl.
 39 40  0  0  0  0  0  0  0  0  2 V2000
  145.6490  142.0398  158.3231 C   0  0  0  0  0  0  0  0  0  0  0  0
  146.0765  142.5369  156.9347 C   0  0  2  0  0  0  0  0  0  0  0  0
  144.8573  142.8395  156.0471 C   0  0  0  0  0  0  0  0  0  0  0  0
  145.3129  143.3052  154.6588 C   0  0  0  0  0  0  0  0  0  0  0  0
  146.2600  142.2782  154.0187 C   0  0  0  0  0  0  0  0  0  0  0  0
  147.4306  142.0098  154.8934 N   0  3  2  0  0  0  0  0  0  0  0  0
  148.4230  141.1208  154.2390 C   0  0  0  0  0  0  0  0  0  0  0  0
  149.8266  141.2435  154.8634 C   0  0  0  0  0  0  0  0  0  0  0  0
  149.8820  142.3182  155.8481 N   0  0  0  0  0  0  0  0  0  0  0  0
  150.6606  142.3129  156.9400 C   0  0  0  0  0  0  0  0  0  0  0  0
  151.4205  141.3854  157.2212 O   0  0  0  0  0  0  0  0  0  0  0  0
  150.4998  143.4349  157.6634 N   0  0  0  0  0  0  0  0  0  0  0  0
  151.1607  143.8048  158.8644 C   0  0  0  0  0  0  0  0  0  0  0  0
  151.0228  144.9924  159.4654 N   0  0  0  0  0  0  0  0  0  0  0  0
  151.7837  145.0804  160.6337 C   0  0  0  0  0  0  0  0  0  0  0  0
  152.4998  143.9421  160.9097 C   0  0  0  0  0  0  0  0  0  0  0  0
  152.2466  142.7077  159.7047 S   0  0  0  0  0  0  0  0  0  0  0  0
  147.0086  141.5260  156.2361 C   0  0  0  0  0  0  0  0  0  0  0  0
  145.0933  141.1039  158.2562 H   0  0  0  0  0  0  0  0  0  0  0  0
  145.0115  142.7700  158.8225 H   0  0  0  0  0  0  0  0  0  0  0  0
  146.5149  141.8675  158.9630 H   0  0  0  0  0  0  0  0  0  0  0  0
  146.6311  143.4660  157.0756 H   0  0  0  0  0  0  0  0  0  0  0  0
  144.2368  141.9475  155.9489 H   0  0  0  0  0  0  0  0  0  0  0  0
  144.2321  143.6050  156.5082 H   0  0  0  0  0  0  0  0  0  0  0  0
  144.4460  143.4630  154.0162 H   0  0  0  0  0  0  0  0  0  0  0  0
  145.8169  144.2693  154.7404 H   0  0  0  0  0  0  0  0  0  0  0  0
  145.7296  141.3449  153.8225 H   0  0  0  0  0  0  0  0  0  0  0  0
  146.5984  142.6599  153.0548 H   0  0  0  0  0  0  0  0  0  0  0  0
  148.0633  140.0910  154.2702 H   0  0  0  0  0  0  0  0  0  0  0  0
  148.5034  141.3840  153.1832 H   0  0  0  0  0  0  0  0  0  0  0  0
  150.0934  140.3118  155.3631 H   0  0  0  0  0  0  0  0  0  0  0  0
  150.5908  141.4173  154.1054 H   0  0  0  0  0  0  0  0  0  0  0  0
  149.2843  143.1168  155.6901 H   0  0  0  0  0  0  0  0  0  0  0  0
  149.8326  144.1062  157.3127 H   0  0  0  0  0  0  0  0  0  0  0  0
  151.7561  145.9930  161.2105 H   0  0  0  0  0  0  0  0  0  0  0  0
  153.1579  143.7562  161.7455 H   0  0  0  0  0  0  0  0  0  0  0  0
  147.8828  141.3593  156.8649 H   0  0  0  0  0  0  0  0  0  0  0  0
  146.5090  140.5611  156.1330 H   0  0  0  0  0  0  0  0  0  0  0  0
  147.8887  142.8994  155.0303 H   0  0  0  0  0  0  0  0  0  0  0  0
  1  2  1  0  0  0  0
  1 19  1  0  0  0  0
  1 20  1  0  0  0  0
  1 21  1  0  0  0  0
  2 18  1  0  0  0  0
  2  3  1  0  0  0  0
  2 22  1  0  0  0  0
  3  4  1  0  0  0  0
  3 23  1  0  0  0  0
  3 24  1  0  0  0  0
  4  5  1  0  0  0  0
  4 25  1  0  0  0  0
  4 26  1  0  0  0  0
  5  6  1  0  0  0  0
  5 27  1  0  0  0  0
  5 28  1  0  0  0  0
  6  7  1  0  0  0  0
  6 18  1  0  0  0  0
  6 39  1  0  0  0  0
  7  8  1  0  0  0  0
  7 29  1  0  0  0  0
  7 30  1  0  0  0  0
  8  9  1  0  0  0  0
  8 31  1  0  0  0  0
  8 32  1  0  0  0  0
  9 10  1  0  0  0  0
  9 33  1  0  0  0  0
 10 11  2  0  0  0  0
 10 12  1  0  0  0  0
 12 13  1  0  0  0  0
 12 34  1  0  0  0  0
 13 17  1  0  0  0  0
 13 14  2  0  0  0  0
 14 15  1  0  0  0  0
 15 16  2  0  0  0  0
 15 35  1  0  0  0  0
 16 17  1  0  0  0  0
 16 36  1  0  0  0  0
 18 37  1  0  0  0  0
 18 38  1  0  0  0  0
M  CHG  1   6   1
M  END
> <s_m_source_file>
AV-unprocessed.smi

> <i_m_source_file_index>
1278

> <i_lp_mmshare_version>
43012

> <i_f3d_flags>
0

> <s_epik_input>
W0NIM11bQ0BASF0xW0NIMl1bQ0gyXVtDSDJdTihbQ0gyXTEpW0NIMl1bQ0gyXVtOSF1DKD1PKVtOSF1jMm5bY0hdW2NIXXMy

> <s_epik_cmdline>
J2VwaWtfcHl0aG9uJywgJy1waCcsICc3LjAnLCAnLXRuJywgJzgnLCAnLW1hJywgJzIwMCcsICctbWV0YWxfYmluZGluZycsICctaW1hZScsICc8aW5maWxlLm1hZT4nLCAnLW9tYWUnLCAnPG91dGZpbGUubWFlPic=

> <r_lp_tautomer_probability>
0.999

> <r_epik_Ionization_Penalty>
0.00222194

> <r_epik_Ionization_Penalty_Charging>
0.00208169

> <r_epik_Ionization_Penalty_Neutral>
0.000140251

> <r_epik_State_Penalty>
0.00142585

> <r_epik_Charging_Adjusted_Penalty>
0.00350754

> <i_epik_Tot_Q>
1

> <i_epik_Tot_abs_Q>
1

> <r_epik_Metal_State_Penalty>
0.0570424

> <b_epik_Metal_Only>
0

> <s_lp_Force_Field>
OPLS_2005

> <r_lp_Energy>
14.0127

> <b_lp_Chiralities_Consistent>
1

> <s_lp_Variant>
AV-unprocessed.smi:1278-1

> <Gold.Version>
5.8.1

> <Gold.Id.Protein>
6NUR|6NUR_protein|mol2

> <Gold.PLP.Fitness>
47.6491

> <Gold.PLP.PLP>
-37.0801

> <Gold.PLP.part.hbond>
-3.0000

> <Gold.PLP.part.metal>
0.0000

> <Gold.PLP.part.buried>
-6.6459

> <Gold.PLP.part.nonpolar>
-26.2370

> <Gold.PLP.part.repulsive>
0.4316

> <Gold.PLP.ligand.clash>
0.0000

> <Gold.PLP.ligand.torsion>
0.7105

> <Gold.PLP.Chemscore.Hbond>
3.9825

> <Gold.PLP.Chemscore.CHOScore>
0.0000

> <Gold.PLP.Chemscore.Metal>
0.0000

> <Gold.Chemscore.Hbonds>
donor molecule, donor type, donor heavy atom, donor atom, acceptor molecule, acceptor atom, score
      L1  H     6    39       P1  8028  1.46
      L1  H     9    33       P1  8028  1.00
      L1  H    12    34       P1  8028  0.90

> <Gold.PLP.Chemscore.Internal.Correction>
0.0424

> <Gold.Rescore>
     Score         DG    S(hbond)    S(metal)    S(lipo)     H(rot)  DE(clash)    DE(int)     intcor
     16.94     -19.28       2.76        0.00      74.13       1.60       0.35       1.99       ----

> <Gold.Chemscore.Fitness>
16.9435

> <Gold.Chemscore.DG>
-19.2835

> <Gold.Chemscore.ZeroCoef>
-5.4800

> <Gold.Chemscore.Hbond>
2.7625

> <Gold.Chemscore.Metal>
0.0000

> <Gold.Chemscore.Lipo>
74.1275

> <Gold.Chemscore.Internal_Hbond>
0.0000

> <Gold.Chemscore.DEClash>
0.3487

> <Gold.Chemscore.DEInternal>
1.9913

> <Gold.Chemscore.Rot>
1.6001

> <Gold.Chemscore.Internal.Correction>
   9.000000E+99

> <Gold.Chemscore.Hbonds>
donor molecule, donor type, donor heavy atom, donor atom, acceptor molecule, acceptor atom, score
      L1  H     6    39       P1  8028  0.64
      L1  H     9    33       P1  8028  0.98
      L1  H    12    34       P1  8028  0.48

> <Gold.Chemscore.Hbond.Weighted>
-9.2268

> <Gold.Chemscore.Metal.Weighted>
-0.0000

> <Gold.Chemscore.Lipo.Weighted>
-8.6729

> <Gold.Chemscore.Internal_Hbond.Weighted>
0.0000

> <Gold.Chemscore.DEClash.Weighted>
0.3487

> <Gold.Chemscore.DEInternal.Weighted>
1.9913

> <Gold.Chemscore.Rot.Weighted>
4.0963

> <Gold.Chemscore.Internal.Correction.Weighted>
   9.000000E+99

> <Gold.Protein.RotatedTorsions>
[ 6907 6896 6895 6894 ] final  -52.52 input  -60.11 | X-H torsion
[ 7974 7965 7964 7962 ] final  152.76 input  175.53 | X-H torsion
[ 8008 7997 7996 7995 ] final   22.03 input   59.86 | X-H torsion
[ 10167 10162 10161 10158 ] final -157.45 input  -65.29 | X-H torsion
[ 10718 10713 10712 10709 ] final  105.38 input   66.30 | X-H torsion
[ 10763 10752 10751 10750 ] final  -45.91 input  -60.55 | X-H torsion
[ 11005 11000 10999 10996 ] final  -46.63 input  -57.11 | X-H torsion

> <Gold.Protein.ActiveResidues>
 VAL166  LYS551  ARG553  GLY616  TRP617  ASP618  TYR619  PRO620  LYS621  CYS622 
 ASP623  PHE694  ASN695  SER759  ASP760  ASP761  ALA762  ILE779  LEU786  VAL792 
 PHE793  MET794  SER795  GLU796  ALA797  LYS798  CYS799  TRP800  GLU811  SER814 

> <Gold.Protein.RotatedAtoms>
  150.8511  134.7835  159.7008 H   0  0  0  0  0  0  0  0  0  0  0  0  # atno 6907 bound_to 6896
  152.4575  134.5255  159.9805 H   0  0  0  0  0  0  0  0  0  0  0  0  # atno 6908 bound_to 6896
  151.5376  133.3400  159.2965 H   0  0  0  0  0  0  0  0  0  0  0  0  # atno 6909 bound_to 6896
  144.8200  139.6711  143.6104 H   0  0  0  0  0  0  0  0  0  0  0  0  # atno 7974 bound_to 7965
  154.9596  140.3076  155.5037 H   0  0  0  0  0  0  0  0  0  0  0  0  # atno 8008 bound_to 7997
  156.2978  140.2304  156.4618 H   0  0  0  0  0  0  0  0  0  0  0  0  # atno 8009 bound_to 7997
  154.7978  140.0436  157.1238 H   0  0  0  0  0  0  0  0  0  0  0  0  # atno 8010 bound_to 7997
  139.6770  143.9647  152.2316 H   0  0  0  0  0  0  0  0  0  0  0  0  # atno 10167 bound_to 10162
  157.6707  131.0826  150.5848 H   0  0  0  0  0  0  0  0  0  0  0  0  # atno 10718 bound_to 10713
  154.0363  135.6650  153.4785 H   0  0  0  0  0  0  0  0  0  0  0  0  # atno 10763 bound_to 10752
  153.0520  135.5079  154.7885 H   0  0  0  0  0  0  0  0  0  0  0  0  # atno 10764 bound_to 10752
  154.6846  135.3051  154.9530 H   0  0  0  0  0  0  0  0  0  0  0  0  # atno 10765 bound_to 10752
  141.0591  133.6715  156.3183 H   0  0  0  0  0  0  0  0  0  0  0  0  # atno 11005 bound_to 11000
  146.2505  139.6189  142.9430 LP  0  0  0  0  0  0  0  0  0  0  0  0  # atno 17320 bound_to 7965
  145.5127  141.0435  143.2479 LP  0  0  0  0  0  0  0  0  0  0  0  0  # atno 17321 bound_to 7965
  139.9427  144.6671  150.8251 LP  0  0  0  0  0  0  0  0  0  0  0  0  # atno 17342 bound_to 10162
  140.7639  143.3234  151.2570 LP  0  0  0  0  0  0  0  0  0  0  0  0  # atno 17343 bound_to 10162
  156.6148  130.4390  149.5845 LP  0  0  0  0  0  0  0  0  0  0  0  0  # atno 17370 bound_to 10713
  156.2402  130.6846  151.1548 LP  0  0  0  0  0  0  0  0  0  0  0  0  # atno 17371 bound_to 10713
  140.5905  134.5655  157.5498 LP  0  0  0  0  0  0  0  0  0  0  0  0  # atno 17394 bound_to 11000
  139.9416  134.7776  156.0664 LP  0  0  0  0  0  0  0  0  0  0  0  0  # atno 17395 bound_to 11000

$$$$
