AV-unprocessed.smi:194|AV-procd|sdf|1522|dock10
  -GOLD-   2262019363D 1   1.00000     0.00000
 Structure written by MMmdl.
 53 55  0  0  0  0  0  0  0  0  1 V2000
  150.7089  143.2057  158.0476 C   0  0  0  0  0  0  0  0  0  0  0  0
  150.8966  141.8588  158.7648 C   0  0  2  0  0  0  0  0  0  0  0  0
  152.2571  141.7952  159.4923 C   0  0  0  0  0  0  0  0  0  0  0  0
  151.9997  141.7363  161.3330 S   0  0  2  0  0  0  0  0  0  0  0  0
  151.2874  143.4332  161.5663 C   0  0  0  0  0  0  0  0  0  0  0  0
  153.3887  141.7427  161.9743 O   0  0  0  0  0  0  0  0  0  0  0  0
  150.7019  140.7397  157.8325 N   0  0  0  0  0  0  0  0  0  0  0  0
  150.1850  140.9702  156.4867 C   0  0  0  0  0  0  0  0  0  0  0  0
  150.6387  139.4807  158.3397 C   0  0  0  0  0  0  0  0  0  0  0  0
  151.6433  139.0719  159.1585 N   0  0  0  0  0  0  0  0  0  0  0  0
  151.6405  137.8405  159.6747 C   0  0  0  0  0  0  0  0  0  0  0  0
  150.7442  136.8682  159.5043 N   0  0  0  0  0  0  0  0  0  0  0  0
  149.7314  137.2662  158.6825 C   0  0  0  0  0  0  0  0  0  0  0  0
  149.5969  138.5446  158.0674 C   0  0  0  0  0  0  0  0  0  0  0  0
  148.4195  138.5843  157.3283 N   0  0  0  0  0  0  0  0  0  0  0  0
  147.8968  137.4004  157.4895 C   0  0  0  0  0  0  0  0  0  0  0  0
  148.6286  136.5364  158.2715 N   0  0  0  0  0  0  0  0  0  0  0  0
  148.2752  135.1666  158.6147 C   0  0  0  0  0  0  0  0  0  0  0  0
  146.9970  134.9930  159.4909 C   0  0  0  0  0  0  0  0  0  0  0  0
  146.8193  136.1956  160.4667 C   0  0  0  0  0  0  0  0  0  0  0  0
  147.8893  136.3556  161.3766 O   0  0  0  0  0  0  0  0  0  0  0  0
  145.7410  134.7780  158.6075 C   0  0  0  0  0  0  0  0  0  0  0  0
  144.5281  134.2829  159.4134 C   0  0  0  0  0  0  0  0  0  0  0  0
  144.8539  133.0645  160.0697 O   0  0  0  0  0  0  0  0  0  0  0  0
  145.9056  133.2114  161.0147 C   0  0  0  0  0  0  0  0  0  0  0  0
  147.1908  133.6927  160.3127 C   0  0  0  0  0  0  0  0  0  0  0  0
  150.7710  144.0353  158.7523 H   0  0  0  0  0  0  0  0  0  0  0  0
  149.7336  143.2592  157.5628 H   0  0  0  0  0  0  0  0  0  0  0  0
  151.4707  143.3644  157.2839 H   0  0  0  0  0  0  0  0  0  0  0  0
  150.1234  141.8312  159.5307 H   0  0  0  0  0  0  0  0  0  0  0  0
  152.8189  140.9126  159.1884 H   0  0  0  0  0  0  0  0  0  0  0  0
  152.8752  142.6591  159.2466 H   0  0  0  0  0  0  0  0  0  0  0  0
  150.3470  143.5445  161.0289 H   0  0  0  0  0  0  0  0  0  0  0  0
  151.9855  144.1917  161.2126 H   0  0  0  0  0  0  0  0  0  0  0  0
  151.0950  143.6095  162.6244 H   0  0  0  0  0  0  0  0  0  0  0  0
  150.3896  140.1177  155.8381 H   0  0  0  0  0  0  0  0  0  0  0  0
  150.6501  141.8422  156.0293 H   0  0  0  0  0  0  0  0  0  0  0  0
  149.1078  141.1366  156.5103 H   0  0  0  0  0  0  0  0  0  0  0  0
  152.4769  137.5994  160.3140 H   0  0  0  0  0  0  0  0  0  0  0  0
  146.9612  137.1178  157.0291 H   0  0  0  0  0  0  0  0  0  0  0  0
  148.1652  134.6162  157.6792 H   0  0  0  0  0  0  0  0  0  0  0  0
  149.1325  134.7184  159.1189 H   0  0  0  0  0  0  0  0  0  0  0  0
  146.7351  137.1376  159.9283 H   0  0  0  0  0  0  0  0  0  0  0  0
  145.8940  136.0895  161.0342 H   0  0  0  0  0  0  0  0  0  0  0  0
  148.0096  135.5443  161.8460 H   0  0  0  0  0  0  0  0  0  0  0  0
  145.4757  135.6870  158.0676 H   0  0  0  0  0  0  0  0  0  0  0  0
  145.9630  134.0321  157.8433 H   0  0  0  0  0  0  0  0  0  0  0  0
  144.1969  135.0287  160.1372 H   0  0  0  0  0  0  0  0  0  0  0  0
  143.6876  134.1022  158.7431 H   0  0  0  0  0  0  0  0  0  0  0  0
  145.6003  133.8863  161.8144 H   0  0  0  0  0  0  0  0  0  0  0  0
  146.0840  132.2437  161.4839 H   0  0  0  0  0  0  0  0  0  0  0  0
  147.5245  132.8911  159.6522 H   0  0  0  0  0  0  0  0  0  0  0  0
  147.9854  133.8235  161.0484 H   0  0  0  0  0  0  0  0  0  0  0  0
  1  2  1  0  0  0  0
  1 27  1  0  0  0  0
  1 28  1  0  0  0  0
  1 29  1  0  0  0  0
  2  3  1  0  0  0  0
  2  7  1  0  0  0  0
  2 30  1  0  0  0  0
  3  4  1  0  0  0  0
  3 31  1  0  0  0  0
  3 32  1  0  0  0  0
  4  5  1  0  0  0  0
  4  6  2  0  0  0  0
  5 33  1  0  0  0  0
  5 34  1  0  0  0  0
  5 35  1  0  0  0  0
  7  8  1  0  0  0  0
  7  9  1  0  0  0  0
  8 36  1  0  0  0  0
  8 37  1  0  0  0  0
  8 38  1  0  0  0  0
  9 14  1  0  0  0  0
  9 10  2  0  0  0  0
 10 11  1  0  0  0  0
 11 12  2  0  0  0  0
 11 39  1  0  0  0  0
 12 13  1  0  0  0  0
 13 17  1  0  0  0  0
 13 14  2  0  0  0  0
 14 15  1  0  0  0  0
 15 16  2  0  0  0  0
 16 17  1  0  0  0  0
 16 40  1  0  0  0  0
 17 18  1  0  0  0  0
 18 19  1  0  0  0  0
 18 41  1  0  0  0  0
 18 42  1  0  0  0  0
 19 26  1  0  0  0  0
 19 20  1  0  0  0  0
 19 22  1  0  0  0  0
 20 21  1  0  0  0  0
 20 43  1  0  0  0  0
 20 44  1  0  0  0  0
 21 45  1  0  0  0  0
 22 23  1  0  0  0  0
 22 46  1  0  0  0  0
 22 47  1  0  0  0  0
 23 24  1  0  0  0  0
 23 48  1  0  0  0  0
 23 49  1  0  0  0  0
 24 25  1  0  0  0  0
 25 26  1  0  0  0  0
 25 50  1  0  0  0  0
 25 51  1  0  0  0  0
 26 52  1  0  0  0  0
 26 53  1  0  0  0  0
M  END
> <s_m_source_file>
AV-unprocessed.smi

> <i_m_source_file_index>
194

> <i_lp_mmshare_version>
43012

> <i_f3d_flags>
0

> <s_epik_input>
W0NIM11bU0BAXSg9TylbQ0gyXVtDQEBIXShbQ0gzXSlOKFtDSDNdKWMobltjSF1uMSljKGMxMiluW2NIXW4yW0NIMl1DMyhbQ0gyXVtPSF0pW0NIMl1bQ0gyXU9bQ0gyXVtDSDJdMw==

> <s_epik_cmdline>
J2VwaWtfcHl0aG9uJywgJy1waCcsICc3LjAnLCAnLXRuJywgJzgnLCAnLW1hJywgJzIwMCcsICctbWV0YWxfYmluZGluZycsICctaW1hZScsICc8aW5maWxlLm1hZT4nLCAnLW9tYWUnLCAnPG91dGZpbGUubWFlPic=

> <r_lp_tautomer_probability>
1

> <r_epik_Ionization_Penalty>
0.00101625

> <r_epik_Ionization_Penalty_Charging>
0

> <r_epik_Ionization_Penalty_Neutral>
0.00101625

> <r_epik_State_Penalty>
0.000568005

> <r_epik_Charging_Adjusted_Penalty>
0.000568005

> <i_epik_Tot_Q>
0

> <i_epik_Tot_abs_Q>
0

> <r_epik_Metal_State_Penalty>
-0

> <b_epik_Metal_Only>
0

> <s_lp_Force_Field>
OPLS_2005

> <r_lp_Energy>
28.7742

> <b_lp_Chiralities_Consistent>
1

> <s_lp_Variant>
AV-unprocessed.smi:194-3

> <Gold.Version>
5.8.1

> <Gold.Id.Protein>
6NUR|6NUR_protein|mol2

> <Gold.PLP.Fitness>
41.8986

> <Gold.PLP.PLP>
-39.7871

> <Gold.PLP.part.hbond>
-3.1297

> <Gold.PLP.part.metal>
0.0000

> <Gold.PLP.part.buried>
-4.7591

> <Gold.PLP.part.nonpolar>
-31.5344

> <Gold.PLP.part.repulsive>
0.0434

> <Gold.PLP.ligand.clash>
0.0000

> <Gold.PLP.ligand.torsion>
2.2337

> <Gold.PLP.Chemscore.Hbond>
2.0000

> <Gold.PLP.Chemscore.CHOScore>
0.0000

> <Gold.PLP.Chemscore.Metal>
0.0000

> <Gold.Chemscore.Hbonds>
donor molecule, donor type, donor heavy atom, donor atom, acceptor molecule, acceptor atom, score
      P1  H  6896  6907       L1    12  1.00
      P1  H  6931  6943       L1    21  0.39

> <Gold.PLP.Chemscore.Internal.Correction>
0.5789

> <Gold.Rescore>
     Score         DG    S(hbond)    S(metal)    S(lipo)     H(rot)  DE(clash)    DE(int)     intcor
     11.19     -13.77       1.95        0.00      81.36       3.03       0.00       2.58       ----

> <Gold.Chemscore.Fitness>
11.1873

> <Gold.Chemscore.DG>
-13.7667

> <Gold.Chemscore.ZeroCoef>
-5.4800

> <Gold.Chemscore.Hbond>
1.9529

> <Gold.Chemscore.Metal>
0.0000

> <Gold.Chemscore.Lipo>
81.3634

> <Gold.Chemscore.Internal_Hbond>
0.0000

> <Gold.Chemscore.DEClash>
0.0009

> <Gold.Chemscore.DEInternal>
2.5785

> <Gold.Chemscore.Rot>
3.0295

> <Gold.Chemscore.Internal.Correction>
   9.000000E+99

> <Gold.Chemscore.Hbonds>
donor molecule, donor type, donor heavy atom, donor atom, acceptor molecule, acceptor atom, score
      P1  H  6896  6907       L1    12  0.97
      P1  H  6931  6943       L1    21  0.39

> <Gold.Chemscore.Hbond.Weighted>
-6.5227

> <Gold.Chemscore.Metal.Weighted>
-0.0000

> <Gold.Chemscore.Lipo.Weighted>
-9.5195

> <Gold.Chemscore.Internal_Hbond.Weighted>
0.0000

> <Gold.Chemscore.DEClash.Weighted>
0.0009

> <Gold.Chemscore.DEInternal.Weighted>
2.5785

> <Gold.Chemscore.Rot.Weighted>
7.7555

> <Gold.Chemscore.Internal.Correction.Weighted>
   9.000000E+99

> <Gold.Protein.RotatedTorsions>
[ 6907 6896 6895 6894 ] final  -19.69 input  -60.11 | X-H torsion
[ 7974 7965 7964 7962 ] final  127.89 input  175.53 | X-H torsion
[ 8008 7997 7996 7995 ] final  -12.08 input   59.86 | X-H torsion
[ 10167 10162 10161 10158 ] final  -84.68 input  -65.29 | X-H torsion
[ 10718 10713 10712 10709 ] final  156.01 input   66.30 | X-H torsion
[ 10763 10752 10751 10750 ] final -144.53 input  -60.55 | X-H torsion
[ 11005 11000 10999 10996 ] final   -2.52 input  -57.11 | X-H torsion

> <Gold.Protein.ActiveResidues>
 VAL166  LYS551  ARG553  GLY616  TRP617  ASP618  TYR619  PRO620  LYS621  CYS622 
 ASP623  PHE694  ASN695  SER759  ASP760  ASP761  ALA762  ILE779  LEU786  VAL792 
 PHE793  MET794  SER795  GLU796  ALA797  LYS798  CYS799  TRP800  GLU811  SER814 

> <Gold.Protein.RotatedAtoms>
  151.2593  135.0648  159.9091 H   0  0  0  0  0  0  0  0  0  0  0  0  # atno 6907 bound_to 6896
  152.5368  134.0248  159.8008 H   0  0  0  0  0  0  0  0  0  0  0  0  # atno 6908 bound_to 6896
  151.0468  133.5608  159.2677 H   0  0  0  0  0  0  0  0  0  0  0  0  # atno 6909 bound_to 6896
  145.0456  139.3926  143.5080 H   0  0  0  0  0  0  0  0  0  0  0  0  # atno 7974 bound_to 7965
  154.5408  140.2285  155.8644 H   0  0  0  0  0  0  0  0  0  0  0  0  # atno 8008 bound_to 7997
  156.1856  140.3089  155.9195 H   0  0  0  0  0  0  0  0  0  0  0  0  # atno 8009 bound_to 7997
  155.3261  140.0443  157.3031 H   0  0  0  0  0  0  0  0  0  0  0  0  # atno 8010 bound_to 7997
  140.4110  143.2623  151.9018 H   0  0  0  0  0  0  0  0  0  0  0  0  # atno 10167 bound_to 10162
  157.2107  131.0697  151.1971 H   0  0  0  0  0  0  0  0  0  0  0  0  # atno 10718 bound_to 10713
  154.8424  135.3437  154.6361 H   0  0  0  0  0  0  0  0  0  0  0  0  # atno 10763 bound_to 10752
  153.6972  135.6971  153.5078 H   0  0  0  0  0  0  0  0  0  0  0  0  # atno 10764 bound_to 10752
  153.2550  135.4341  155.0791 H   0  0  0  0  0  0  0  0  0  0  0  0  # atno 10765 bound_to 10752
  140.6592  133.9335  155.8426 H   0  0  0  0  0  0  0  0  0  0  0  0  # atno 11005 bound_to 11000
  146.3513  140.0080  142.8670 LP  0  0  0  0  0  0  0  0  0  0  0  0  # atno 17320 bound_to 7965
  145.1592  140.9664  143.4387 LP  0  0  0  0  0  0  0  0  0  0  0  0  # atno 17321 bound_to 7965
  139.4782  144.5537  151.8346 LP  0  0  0  0  0  0  0  0  0  0  0  0  # atno 17342 bound_to 10162
  140.4638  144.1684  150.5909 LP  0  0  0  0  0  0  0  0  0  0  0  0  # atno 17343 bound_to 10162
  157.3675  130.7164  149.6543 LP  0  0  0  0  0  0  0  0  0  0  0  0  # atno 17370 bound_to 10713
  155.9691  130.4208  150.4439 LP  0  0  0  0  0  0  0  0  0  0  0  0  # atno 17371 bound_to 10713
  141.0478  134.0529  157.3822 LP  0  0  0  0  0  0  0  0  0  0  0  0  # atno 17394 bound_to 11000
  139.9018  135.0167  156.7306 LP  0  0  0  0  0  0  0  0  0  0  0  0  # atno 17395 bound_to 11000

$$$$
