AV-unprocessed.smi:2353|AV-procd|sdf|9382|dock9
  -GOLD-   2272013 13D 1   1.00000     0.00000
 Structure written by MMmdl.
 46 48  0  0  0  0  0  0  0  0  2 V2000
  147.6186  132.4969  160.2793 C   0  0  0  0  0  0  0  0  0  0  0  0
  147.3909  133.8215  160.9779 C   0  0  0  0  0  0  0  0  0  0  0  0
  147.1698  133.8636  162.3680 C   0  0  0  0  0  0  0  0  0  0  0  0
  146.9647  135.0984  163.0091 C   0  0  0  0  0  0  0  0  0  0  0  0
  146.9778  136.2970  162.2661 C   0  0  0  0  0  0  0  0  0  0  0  0
  146.7523  137.6199  162.9742 C   0  0  0  0  0  0  0  0  0  0  0  0
  147.1962  136.2691  160.8691 C   0  0  0  0  0  0  0  0  0  0  0  0
  147.1943  137.4771  160.2023 O   0  0  0  0  0  0  0  0  0  0  0  0
  147.5173  137.4912  158.8183 C   0  0  0  0  0  0  0  0  0  0  0  0
  148.7297  138.4127  158.6041 C   0  0  2  0  0  0  0  0  0  0  0  0
  148.6331  138.9340  157.2922 O   0  0  0  0  0  0  0  0  0  0  0  0
  150.0643  137.6415  158.7087 C   0  0  0  0  0  0  0  0  0  0  0  0
  151.2017  138.5415  158.9343 N   0  0  0  0  0  0  0  0  0  0  0  0
  150.9894  139.8361  158.4948 N   0  0  0  0  0  0  0  0  0  0  0  0
  151.8978  140.7458  158.6443 C   0  0  0  0  0  0  0  0  0  0  0  0
  151.7213  142.1216  158.2103 N   0  0  0  0  0  0  0  0  0  0  0  0
  152.4250  143.2535  158.5457 C   0  0  0  0  0  0  0  0  0  0  0  0
  151.8417  144.2852  157.8552 C   0  0  0  0  0  0  0  0  0  0  0  0
  150.8126  143.7421  157.1319 N   0  3  0  0  0  0  0  0  0  0  0  0
  150.7377  142.4241  157.3477 C   0  0  0  0  0  0  0  0  0  0  0  0
  153.1650  140.4062  159.2733 C   0  0  0  0  0  0  0  0  0  0  0  0
  153.3628  139.1398  159.6989 C   0  0  0  0  0  0  0  0  0  0  0  0
  152.3418  138.1046  159.5465 C   0  0  0  0  0  0  0  0  0  0  0  0
  152.4913  136.9474  159.9373 O   0  0  0  0  0  0  0  0  0  0  0  0
  147.4043  135.0183  160.2335 C   0  0  0  0  0  0  0  0  0  0  0  0
  147.4043  131.6566  160.9406 H   0  0  0  0  0  0  0  0  0  0  0  0
  148.6553  132.4179  159.9515 H   0  0  0  0  0  0  0  0  0  0  0  0
  146.9739  132.4124  159.4041 H   0  0  0  0  0  0  0  0  0  0  0  0
  147.1576  132.9518  162.9474 H   0  0  0  0  0  0  0  0  0  0  0  0
  146.7967  135.1213  164.0759 H   0  0  0  0  0  0  0  0  0  0  0  0
  145.8461  138.0975  162.6004 H   0  0  0  0  0  0  0  0  0  0  0  0
  147.5927  138.2922  162.7992 H   0  0  0  0  0  0  0  0  0  0  0  0
  146.6456  137.4844  164.0508 H   0  0  0  0  0  0  0  0  0  0  0  0
  147.7779  136.4746  158.5200 H   0  0  0  0  0  0  0  0  0  0  0  0
  146.6713  137.8132  158.2080 H   0  0  0  0  0  0  0  0  0  0  0  0
  148.7006  139.2250  159.3317 H   0  0  0  0  0  0  0  0  0  0  0  0
  149.3478  139.5369  157.1555 H   0  0  0  0  0  0  0  0  0  0  0  0
  150.0178  136.9276  159.5331 H   0  0  0  0  0  0  0  0  0  0  0  0
  150.2241  137.0274  157.8201 H   0  0  0  0  0  0  0  0  0  0  0  0
  153.2632  143.2600  159.2260 H   0  0  0  0  0  0  0  0  0  0  0  0
  152.0765  145.3393  157.8253 H   0  0  0  0  0  0  0  0  0  0  0  0
  150.0207  141.7534  156.9069 H   0  0  0  0  0  0  0  0  0  0  0  0
  153.9444  141.1396  159.4066 H   0  0  0  0  0  0  0  0  0  0  0  0
  154.3015  138.8820  160.1672 H   0  0  0  0  0  0  0  0  0  0  0  0
  147.5789  134.9511  159.1704 H   0  0  0  0  0  0  0  0  0  0  0  0
  150.1948  144.2620  156.5212 H   0  0  0  0  0  0  0  0  0  0  0  0
  1  2  1  0  0  0  0
  1 26  1  0  0  0  0
  1 27  1  0  0  0  0
  1 28  1  0  0  0  0
  2 25  1  0  0  0  0
  2  3  2  0  0  0  0
  3  4  1  0  0  0  0
  3 29  1  0  0  0  0
  4  5  2  0  0  0  0
  4 30  1  0  0  0  0
  5  6  1  0  0  0  0
  5  7  1  0  0  0  0
  6 31  1  0  0  0  0
  6 32  1  0  0  0  0
  6 33  1  0  0  0  0
  7  8  1  0  0  0  0
  7 25  2  0  0  0  0
  8  9  1  0  0  0  0
  9 10  1  0  0  0  0
  9 34  1  0  0  0  0
  9 35  1  0  0  0  0
 10 11  1  0  0  0  0
 10 12  1  0  0  0  0
 10 36  1  0  0  0  0
 11 37  1  0  0  0  0
 12 13  1  0  0  0  0
 12 38  1  0  0  0  0
 12 39  1  0  0  0  0
 13 23  1  0  0  0  0
 13 14  1  0  0  0  0
 14 15  2  0  0  0  0
 15 16  1  0  0  0  0
 15 21  1  0  0  0  0
 16 20  1  0  0  0  0
 16 17  1  0  0  0  0
 17 18  2  0  0  0  0
 17 40  1  0  0  0  0
 18 19  1  0  0  0  0
 18 41  1  0  0  0  0
 19 20  2  0  0  0  0
 19 46  1  0  0  0  0
 20 42  1  0  0  0  0
 21 22  2  0  0  0  0
 21 43  1  0  0  0  0
 22 23  1  0  0  0  0
 22 44  1  0  0  0  0
 23 24  2  0  0  0  0
 25 45  1  0  0  0  0
M  CHG  1  19   1
M  END
> <s_m_source_file>
AV-unprocessed.smi

> <i_m_source_file_index>
2353

> <i_lp_mmshare_version>
43012

> <i_f3d_flags>
0

> <s_epik_input>
W0NIM11jMVtjSF1bY0hdYyhbQ0gzXSljKFtjSF0xKU9bQ0gyXVtDQEhdKFtPSF0pW0NIMl1uMm5jKFtjSF1bY0hdYzI9TyktbjNbY0hdW2NIXW5bY0hdMw==

> <s_epik_cmdline>
J2VwaWtfcHl0aG9uJywgJy1waCcsICc3LjAnLCAnLXRuJywgJzgnLCAnLW1hJywgJzIwMCcsICctbWV0YWxfYmluZGluZycsICctaW1hZScsICc8aW5maWxlLm1hZT4nLCAnLW9tYWUnLCAnPG91dGZpbGUubWFlPic=

> <r_lp_tautomer_probability>
1

> <r_epik_Ionization_Penalty>
1.66053

> <r_epik_Ionization_Penalty_Charging>
2.43903e-09

> <r_epik_Ionization_Penalty_Neutral>
1.66053

> <r_epik_State_Penalty>
1.76336

> <r_epik_Charging_Adjusted_Penalty>
1.76336

> <i_epik_Tot_Q>
1

> <i_epik_Tot_abs_Q>
1

> <r_epik_Metal_State_Penalty>
1.79856

> <b_epik_Metal_Only>
0

> <s_lp_Force_Field>
OPLS_2005

> <r_lp_Energy>
37.6947

> <b_lp_Chiralities_Consistent>
1

> <s_lp_Variant>
AV-unprocessed.smi:2353-3

> <Gold.Version>
5.8.1

> <Gold.Id.Protein>
6NUR|6NUR_protein|mol2

> <Gold.PLP.Fitness>
59.3162

> <Gold.PLP.PLP>
-50.1709

> <Gold.PLP.part.hbond>
-3.0000

> <Gold.PLP.part.metal>
0.0000

> <Gold.PLP.part.buried>
-6.3185

> <Gold.PLP.part.nonpolar>
-41.4469

> <Gold.PLP.part.repulsive>
0.0000

> <Gold.PLP.ligand.clash>
0.0000

> <Gold.PLP.ligand.torsion>
1.4051

> <Gold.PLP.Chemscore.Hbond>
3.9760

> <Gold.PLP.Chemscore.CHOScore>
0.0000

> <Gold.PLP.Chemscore.Metal>
0.0000

> <Gold.Chemscore.Hbonds>
donor molecule, donor type, donor heavy atom, donor atom, acceptor molecule, acceptor atom, score
      L1  H    19    46       P1  8028  2.00
      P1  H  6896  6908       L1    24  1.00
      P1  H  6934  6947       L1     8  1.00

> <Gold.PLP.Chemscore.Internal.Correction>
0.0276

> <Gold.Rescore>
     Score         DG    S(hbond)    S(metal)    S(lipo)     H(rot)  DE(clash)    DE(int)     intcor
     18.54     -21.40       2.86        0.00     112.44       2.65       0.03       2.84       ----

> <Gold.Chemscore.Fitness>
18.5351

> <Gold.Chemscore.DG>
-21.4002

> <Gold.Chemscore.ZeroCoef>
-5.4800

> <Gold.Chemscore.Hbond>
2.8618

> <Gold.Chemscore.Metal>
0.0000

> <Gold.Chemscore.Lipo>
112.4389

> <Gold.Chemscore.Internal_Hbond>
0.0000

> <Gold.Chemscore.DEClash>
0.0274

> <Gold.Chemscore.DEInternal>
2.8377

> <Gold.Chemscore.Rot>
2.6537

> <Gold.Chemscore.Internal.Correction>
   9.000000E+99

> <Gold.Chemscore.Hbonds>
donor molecule, donor type, donor heavy atom, donor atom, acceptor molecule, acceptor atom, score
      L1  H    19    46       P1  8028  0.98
      P1  H  6896  6908       L1    24  0.99
      P1  H  6934  6947       L1     8  0.84

> <Gold.Chemscore.Hbond.Weighted>
-9.5583

> <Gold.Chemscore.Metal.Weighted>
-0.0000

> <Gold.Chemscore.Lipo.Weighted>
-13.1553

> <Gold.Chemscore.Internal_Hbond.Weighted>
0.0000

> <Gold.Chemscore.DEClash.Weighted>
0.0274

> <Gold.Chemscore.DEInternal.Weighted>
2.8377

> <Gold.Chemscore.Rot.Weighted>
6.7935

> <Gold.Chemscore.Internal.Correction.Weighted>
   9.000000E+99

> <Gold.Protein.RotatedTorsions>
[ 6907 6896 6895 6894 ] final -109.29 input  -60.11 | X-H torsion
[ 7974 7965 7964 7962 ] final  -16.12 input  175.53 | X-H torsion
[ 8008 7997 7996 7995 ] final  127.47 input   59.86 | X-H torsion
[ 10167 10162 10161 10158 ] final  141.38 input  -65.29 | X-H torsion
[ 10718 10713 10712 10709 ] final   85.44 input   66.30 | X-H torsion
[ 10763 10752 10751 10750 ] final  175.50 input  -60.55 | X-H torsion
[ 11005 11000 10999 10996 ] final -153.04 input  -57.11 | X-H torsion

> <Gold.Protein.ActiveResidues>
 VAL166  LYS551  ARG553  GLY616  TRP617  ASP618  TYR619  PRO620  LYS621  CYS622 
 ASP623  PHE694  ASN695  SER759  ASP760  ASP761  ALA762  ILE779  LEU786  VAL792 
 PHE793  MET794  SER795  GLU796  ALA797  LYS798  CYS799  TRP800  GLU811  SER814 

> <Gold.Protein.RotatedAtoms>
  150.7553  133.9551  159.3497 H   0  0  0  0  0  0  0  0  0  0  0  0  # atno 6907 bound_to 6896
  151.7471  135.0839  160.0334 H   0  0  0  0  0  0  0  0  0  0  0  0  # atno 6908 bound_to 6896
  152.3490  133.6120  159.5967 H   0  0  0  0  0  0  0  0  0  0  0  0  # atno 6909 bound_to 6896
  146.2002  140.3591  142.8426 H   0  0  0  0  0  0  0  0  0  0  0  0  # atno 7974 bound_to 7965
  156.2891  140.2668  156.2279 H   0  0  0  0  0  0  0  0  0  0  0  0  # atno 8008 bound_to 7997
  155.0102  140.0387  157.2414 H   0  0  0  0  0  0  0  0  0  0  0  0  # atno 8009 bound_to 7997
  154.7525  140.2745  155.6286 H   0  0  0  0  0  0  0  0  0  0  0  0  # atno 8010 bound_to 7997
  139.5022  144.6175  151.6129 H   0  0  0  0  0  0  0  0  0  0  0  0  # atno 10167 bound_to 10162
  157.6914  131.0175  150.2822 H   0  0  0  0  0  0  0  0  0  0  0  0  # atno 10718 bound_to 10713
  154.4684  135.2770  155.1661 H   0  0  0  0  0  0  0  0  0  0  0  0  # atno 10763 bound_to 10752
  154.3420  135.6168  153.5604 H   0  0  0  0  0  0  0  0  0  0  0  0  # atno 10764 bound_to 10752
  152.9861  135.5791  154.5060 H   0  0  0  0  0  0  0  0  0  0  0  0  # atno 10765 bound_to 10752
  140.7124  134.3817  157.5195 H   0  0  0  0  0  0  0  0  0  0  0  0  # atno 11005 bound_to 11000
  144.8666  140.7214  143.6073 LP  0  0  0  0  0  0  0  0  0  0  0  0  # atno 17320 bound_to 7965
  145.3510  139.1706  143.4434 LP  0  0  0  0  0  0  0  0  0  0  0  0  # atno 17321 bound_to 7965
  140.5868  143.9851  150.6300 LP  0  0  0  0  0  0  0  0  0  0  0  0  # atno 17342 bound_to 10162
  140.3018  143.3256  152.0964 LP  0  0  0  0  0  0  0  0  0  0  0  0  # atno 17343 bound_to 10162
  156.3367  130.3809  149.7444 LP  0  0  0  0  0  0  0  0  0  0  0  0  # atno 17370 bound_to 10713
  156.4966  130.8109  151.3116 LP  0  0  0  0  0  0  0  0  0  0  0  0  # atno 17371 bound_to 10713
  139.8868  134.8899  156.2564 LP  0  0  0  0  0  0  0  0  0  0  0  0  # atno 17394 bound_to 11000
  141.0073  133.7116  156.1054 LP  0  0  0  0  0  0  0  0  0  0  0  0  # atno 17395 bound_to 11000

$$$$
