AV-unprocessed.smi:1403|AV-procd|sdf|5698|dock2
  -GOLD-   22720 5323D 1   1.00000     0.00000
 Structure written by MMmdl.
 36 37  0  0  0  0  0  0  0  0  1 V2000
  150.0676  144.5390  159.5066 C   0  0  0  0  0  0  0  0  0  0  0  0
  150.5617  143.1741  159.0058 C   0  0  1  0  0  0  0  0  0  0  0  0
  150.3686  143.1084  157.5581 N   0  0  0  0  0  0  0  0  0  0  0  0
  150.3962  141.9961  156.8073 C   0  0  0  0  0  0  0  0  0  0  0  0
  150.6162  140.8744  157.2660 O   0  0  0  0  0  0  0  0  0  0  0  0
  150.1668  142.1961  155.3024 C   0  0  0  0  0  0  0  0  0  0  0  0
  149.1887  141.2543  154.7391 N   0  0  0  0  0  0  0  0  0  0  0  0
  147.8782  141.6536  154.5175 C   0  0  0  0  0  0  0  0  0  0  0  0
  146.9302  140.8418  153.9923 C   0  0  0  0  0  0  0  0  0  0  0  0
  147.2553  139.4680  153.6239 C   0  0  0  0  0  0  0  0  0  0  0  0
  146.4670  138.6569  153.1436 O   0  0  0  0  0  0  0  0  0  0  0  0
  148.5841  139.1048  153.8597 N   0  0  0  0  0  0  0  0  0  0  0  0
  149.5664  139.9367  154.3993 C   0  0  0  0  0  0  0  0  0  0  0  0
  150.7113  139.5163  154.5624 O   0  0  0  0  0  0  0  0  0  0  0  0
  152.0426  142.9322  159.3651 C   0  0  2  0  0  0  0  0  0  0  0  0
  152.5338  141.4980  159.1601 C   0  0  0  0  0  0  0  0  0  0  0  0
  153.7361  141.4553  160.0747 C   0  0  0  0  0  0  0  0  0  0  0  0
  153.2639  142.2939  161.2594 C   0  0  0  0  0  0  0  0  0  0  0  0
  152.2715  143.1822  160.7494 O   0  0  0  0  0  0  0  0  0  0  0  0
  148.8565  138.1632  153.6175 H   0  0  0  0  0  0  0  0  0  0  0  0
  150.1512  144.6150  160.5911 H   0  0  0  0  0  0  0  0  0  0  0  0
  149.0196  144.6966  159.2487 H   0  0  0  0  0  0  0  0  0  0  0  0
  150.6446  145.3555  159.0710 H   0  0  0  0  0  0  0  0  0  0  0  0
  149.9581  142.4078  159.4954 H   0  0  0  0  0  0  0  0  0  0  0  0
  150.1902  143.9845  157.0891 H   0  0  0  0  0  0  0  0  0  0  0  0
  149.8522  143.2237  155.1087 H   0  0  0  0  0  0  0  0  0  0  0  0
  151.1282  142.0901  154.7978 H   0  0  0  0  0  0  0  0  0  0  0  0
  147.5929  142.6648  154.7710 H   0  0  0  0  0  0  0  0  0  0  0  0
  145.9259  141.2110  153.8425 H   0  0  0  0  0  0  0  0  0  0  0  0
  152.6821  143.6093  158.7957 H   0  0  0  0  0  0  0  0  0  0  0  0
  151.7834  140.7814  159.4973 H   0  0  0  0  0  0  0  0  0  0  0  0
  152.7803  141.2746  158.1218 H   0  0  0  0  0  0  0  0  0  0  0  0
  154.0269  140.4433  160.3569 H   0  0  0  0  0  0  0  0  0  0  0  0
  154.5887  141.9341  159.5909 H   0  0  0  0  0  0  0  0  0  0  0  0
  152.8033  141.6610  162.0186 H   0  0  0  0  0  0  0  0  0  0  0  0
  154.0828  142.8414  161.7266 H   0  0  0  0  0  0  0  0  0  0  0  0
  1  2  1  0  0  0  0
  1 21  1  0  0  0  0
  1 22  1  0  0  0  0
  1 23  1  0  0  0  0
  2  3  1  0  0  0  0
  2 15  1  0  0  0  0
  2 24  1  0  0  0  0
  3  4  1  0  0  0  0
  3 25  1  0  0  0  0
  4  5  2  0  0  0  0
  4  6  1  0  0  0  0
  6  7  1  0  0  0  0
  6 26  1  0  0  0  0
  6 27  1  0  0  0  0
  7 13  1  0  0  0  0
  7  8  1  0  0  0  0
  8  9  2  0  0  0  0
  8 28  1  0  0  0  0
  9 10  1  0  0  0  0
  9 29  1  0  0  0  0
 10 11  2  0  0  0  0
 10 12  1  0  0  0  0
 12 20  1  0  0  0  0
 12 13  1  0  0  0  0
 13 14  2  0  0  0  0
 15 19  1  0  0  0  0
 15 16  1  0  0  0  0
 15 30  1  0  0  0  0
 16 17  1  0  0  0  0
 16 31  1  0  0  0  0
 16 32  1  0  0  0  0
 17 18  1  0  0  0  0
 17 33  1  0  0  0  0
 17 34  1  0  0  0  0
 18 19  1  0  0  0  0
 18 35  1  0  0  0  0
 18 36  1  0  0  0  0
M  END
> <s_m_source_file>
AV-unprocessed.smi

> <i_m_source_file_index>
1403

> <i_lp_mmshare_version>
43012

> <i_f3d_flags>
0

> <s_epik_input>
TzFbQ0gyXVtDSDJdW0NIMl1bQ0BIXTFbQ0BIXShbQ0gzXSlbTkhdQyg9TylbQ0gyXW4yW2NIXVtjSF1jKD1PKVtuSF1jMj1P

> <s_epik_cmdline>
J2VwaWtfcHl0aG9uJywgJy1waCcsICc3LjAnLCAnLXRuJywgJzgnLCAnLW1hJywgJzIwMCcsICctbWV0YWxfYmluZGluZycsICctaW1hZScsICc8aW5maWxlLm1hZT4nLCAnLW9tYWUnLCAnPG91dGZpbGUubWFlPic=

> <r_lp_tautomer_probability>
0.999537

> <r_epik_Ionization_Penalty>
0.00331407

> <r_epik_Ionization_Penalty_Charging>
0.00331405

> <r_epik_Ionization_Penalty_Neutral>
2.30132e-08

> <r_epik_State_Penalty>
0.00234266

> <r_epik_Charging_Adjusted_Penalty>
0.00565671

> <i_epik_Tot_Q>
0

> <i_epik_Tot_abs_Q>
0

> <r_epik_Metal_State_Penalty>
0.365604

> <b_epik_Metal_Only>
0

> <s_lp_Force_Field>
OPLS_2005

> <r_lp_Energy>
17.659

> <b_lp_Chiralities_Consistent>
1

> <s_lp_Variant>
AV-unprocessed.smi:1403-2

> <Gold.Version>
5.8.1

> <Gold.Id.Protein>
6NUR|6NUR_protein|mol2

> <Gold.PLP.Fitness>
41.1964

> <Gold.PLP.PLP>
-34.2717

> <Gold.PLP.part.hbond>
-3.0000

> <Gold.PLP.part.metal>
0.0000

> <Gold.PLP.part.buried>
-2.1952

> <Gold.PLP.part.nonpolar>
-29.6346

> <Gold.PLP.part.repulsive>
0.5330

> <Gold.PLP.ligand.clash>
0.0000

> <Gold.PLP.ligand.torsion>
0.6961

> <Gold.PLP.Chemscore.Hbond>
1.7680

> <Gold.PLP.Chemscore.CHOScore>
1.0000

> <Gold.PLP.Chemscore.Metal>
0.0000

> <Gold.Chemscore.Hbonds>
donor molecule, donor type, donor heavy atom, donor atom, acceptor molecule, acceptor atom, score
      L1  H     3    25       P1  8028  0.75
      P1  H  7989  7998       L1    14  0.90
      L1  C     8    28       P1  8028  0.95

> <Gold.PLP.Chemscore.Internal.Correction>
0.0129

> <Gold.Rescore>
     Score         DG    S(hbond)    S(metal)    S(lipo)     H(rot)  DE(clash)    DE(int)     intcor
     14.56     -17.29       2.60        0.00      71.33       2.04       0.49       2.24       ----

> <Gold.Chemscore.Fitness>
14.5568

> <Gold.Chemscore.DG>
-17.2855

> <Gold.Chemscore.ZeroCoef>
-5.4800

> <Gold.Chemscore.Hbond>
2.5992

> <Gold.Chemscore.Metal>
0.0000

> <Gold.Chemscore.Lipo>
71.3257

> <Gold.Chemscore.Internal_Hbond>
0.0000

> <Gold.Chemscore.DEClash>
0.4880

> <Gold.Chemscore.DEInternal>
2.2407

> <Gold.Chemscore.Rot>
2.0395

> <Gold.Chemscore.Internal.Correction>
   9.000000E+99

> <Gold.Chemscore.Hbonds>
donor molecule, donor type, donor heavy atom, donor atom, acceptor molecule, acceptor atom, score
      L1  H     3    25       P1  8028  0.66
      P1  H  7989  7998       L1    14  0.18

> <Gold.Chemscore.Hbond.Weighted>
-8.6815

> <Gold.Chemscore.Metal.Weighted>
-0.0000

> <Gold.Chemscore.Lipo.Weighted>
-8.3451

> <Gold.Chemscore.Internal_Hbond.Weighted>
0.0000

> <Gold.Chemscore.DEClash.Weighted>
0.4880

> <Gold.Chemscore.DEInternal.Weighted>
2.2407

> <Gold.Chemscore.Rot.Weighted>
5.2211

> <Gold.Chemscore.Internal.Correction.Weighted>
   9.000000E+99

> <Gold.Protein.RotatedTorsions>
[ 6907 6896 6895 6894 ] final  -77.72 input  -60.11 | X-H torsion
[ 7974 7965 7964 7962 ] final   51.38 input  175.53 | X-H torsion
[ 8008 7997 7996 7995 ] final   26.49 input   59.86 | X-H torsion
[ 10167 10162 10161 10158 ] final  -84.06 input  -65.29 | X-H torsion
[ 10718 10713 10712 10709 ] final   15.78 input   66.30 | X-H torsion
[ 10763 10752 10751 10750 ] final  -56.24 input  -60.55 | X-H torsion
[ 11005 11000 10999 10996 ] final  142.82 input  -57.11 | X-H torsion

> <Gold.Protein.ActiveResidues>
 VAL166  LYS551  ARG553  GLY616  TRP617  ASP618  TYR619  PRO620  LYS621  CYS622 
 ASP623  PHE694  ASN695  SER759  ASP760  ASP761  ALA762  ILE779  LEU786  VAL792 
 PHE793  MET794  SER795  GLU796  ALA797  LYS798  CYS799  TRP800  GLU811  SER814 

> <Gold.Protein.RotatedAtoms>
  150.6991  134.4380  159.5278 H   0  0  0  0  0  0  0  0  0  0  0  0  # atno 6907 bound_to 6896
  152.2094  134.8512  160.0508 H   0  0  0  0  0  0  0  0  0  0  0  0  # atno 6908 bound_to 6896
  151.9403  133.3601  159.3999 H   0  0  0  0  0  0  0  0  0  0  0  0  # atno 6909 bound_to 6896
  145.9919  139.4347  143.0068 H   0  0  0  0  0  0  0  0  0  0  0  0  # atno 7974 bound_to 7965
  155.0282  140.3155  155.4768 H   0  0  0  0  0  0  0  0  0  0  0  0  # atno 8008 bound_to 7997
  156.2879  140.2185  156.5345 H   0  0  0  0  0  0  0  0  0  0  0  0  # atno 8009 bound_to 7997
  154.7393  140.0475  157.0785 H   0  0  0  0  0  0  0  0  0  0  0  0  # atno 8010 bound_to 7997
  140.4168  143.2600  151.8944 H   0  0  0  0  0  0  0  0  0  0  0  0  # atno 10167 bound_to 10162
  157.0584  130.6299  149.5781 H   0  0  0  0  0  0  0  0  0  0  0  0  # atno 10718 bound_to 10713
  154.2035  135.6407  153.5094 H   0  0  0  0  0  0  0  0  0  0  0  0  # atno 10763 bound_to 10752
  153.0006  135.5457  154.6290 H   0  0  0  0  0  0  0  0  0  0  0  0  # atno 10764 bound_to 10752
  154.5709  135.2917  155.0801 H   0  0  0  0  0  0  0  0  0  0  0  0  # atno 10765 bound_to 10752
  140.0506  134.9257  157.1010 H   0  0  0  0  0  0  0  0  0  0  0  0  # atno 11005 bound_to 11000
  145.7618  140.9932  143.1196 LP  0  0  0  0  0  0  0  0  0  0  0  0  # atno 17320 bound_to 7965
  144.6891  139.9339  143.7473 LP  0  0  0  0  0  0  0  0  0  0  0  0  # atno 17321 bound_to 7965
  139.4782  144.5480  151.8429 LP  0  0  0  0  0  0  0  0  0  0  0  0  # atno 17342 bound_to 10162
  140.4578  144.1765  150.5903 LP  0  0  0  0  0  0  0  0  0  0  0  0  # atno 17343 bound_to 10162
  155.9986  130.5060  150.7576 LP  0  0  0  0  0  0  0  0  0  0  0  0  # atno 17370 bound_to 10713
  157.4974  131.0916  151.0355 LP  0  0  0  0  0  0  0  0  0  0  0  0  # atno 17371 bound_to 10713
  140.3923  134.2171  155.7166 LP  0  0  0  0  0  0  0  0  0  0  0  0  # atno 17394 bound_to 11000
  141.1928  133.8164  157.0823 LP  0  0  0  0  0  0  0  0  0  0  0  0  # atno 17395 bound_to 11000

$$$$
