AV-unprocessed.smi:1047|AV-procd|sdf|4560|dock4
  -GOLD-   22720 3 03D 1   1.00000     0.00000
 Structure written by MMmdl.
 57 59  0  0  0  0  0  0  0  0  3 V2000
  144.3896  147.4767  157.1948 C   0  0  0  0  0  0  0  0  0  0  0  0
  144.0646  146.3873  158.2271 C   0  0  0  0  0  0  0  0  0  0  0  0
  144.6172  145.0618  157.8510 N   0  3  1  0  0  0  0  0  0  0  0  0
  144.0676  143.9663  158.6850 C   0  0  0  0  0  0  0  0  0  0  0  0
  144.7139  142.6231  158.3067 C   0  0  0  0  0  0  0  0  0  0  0  0
  144.5077  142.3642  156.9232 O   0  0  0  0  0  0  0  0  0  0  0  0
  145.0908  143.3636  156.0937 C   0  0  1  0  0  0  0  0  0  0  0  0
  144.9338  142.9407  154.6227 C   0  0  0  0  0  0  0  0  0  0  0  0
  145.6356  141.6734  154.3309 N   0  3  0  0  0  0  0  0  0  0  0  0
  147.0507  141.8385  153.9433 C   0  0  0  0  0  0  0  0  0  0  0  0
  147.9890  141.3206  155.0454 C   0  0  2  0  0  0  0  0  0  0  0  0
  147.8228  142.1263  156.1966 O   0  0  0  0  0  0  0  0  0  0  0  0
  149.4671  141.3498  154.6110 C   0  0  0  0  0  0  0  0  0  0  0  0
  150.3418  140.7282  155.5893 N   0  0  0  0  0  0  0  0  0  0  0  0
  150.7967  139.4601  155.5862 C   0  0  0  0  0  0  0  0  0  0  0  0
  151.6005  139.0998  156.5824 N   0  0  0  0  0  0  0  0  0  0  0  0
  151.6691  140.2675  157.3229 C   0  0  0  0  0  0  0  0  0  0  0  0
  152.3675  140.5583  158.5152 C   0  0  0  0  0  0  0  0  0  0  0  0
  152.2911  141.8398  159.1057 C   0  0  0  0  0  0  0  0  0  0  0  0
  153.0589  142.1089  160.3879 C   0  0  0  0  0  0  0  0  0  0  0  0
  151.5050  142.8546  158.5028 C   0  0  0  0  0  0  0  0  0  0  0  0
  151.4043  144.2374  159.1223 C   0  0  0  0  0  0  0  0  0  0  0  0
  150.8033  142.5819  157.3099 C   0  0  0  0  0  0  0  0  0  0  0  0
  150.8887  141.3034  156.7312 C   0  0  0  0  0  0  0  0  0  0  0  0
  144.4642  144.7386  156.4101 C   0  0  0  0  0  0  0  0  0  0  0  0
  144.0536  148.4515  157.5493 H   0  0  0  0  0  0  0  0  0  0  0  0
  143.8982  147.2959  156.2394 H   0  0  0  0  0  0  0  0  0  0  0  0
  145.4632  147.5440  157.0163 H   0  0  0  0  0  0  0  0  0  0  0  0
  144.4955  146.6933  159.1816 H   0  0  0  0  0  0  0  0  0  0  0  0
  142.9871  146.3154  158.3833 H   0  0  0  0  0  0  0  0  0  0  0  0
  144.2506  144.1748  159.7399 H   0  0  0  0  0  0  0  0  0  0  0  0
  142.9858  143.9114  158.5523 H   0  0  0  0  0  0  0  0  0  0  0  0
  145.7810  142.6244  158.5351 H   0  0  0  0  0  0  0  0  0  0  0  0
  144.2663  141.8155  158.8861 H   0  0  0  0  0  0  0  0  0  0  0  0
  146.1599  143.4090  156.3098 H   0  0  0  0  0  0  0  0  0  0  0  0
  143.8764  142.8331  154.3776 H   0  0  0  0  0  0  0  0  0  0  0  0
  145.3319  143.7224  153.9740 H   0  0  0  0  0  0  0  0  0  0  0  0
  145.6054  141.0925  155.1574 H   0  0  0  0  0  0  0  0  0  0  0  0
  147.2219  141.2826  153.0205 H   0  0  0  0  0  0  0  0  0  0  0  0
  147.2578  142.8878  153.7276 H   0  0  0  0  0  0  0  0  0  0  0  0
  147.7141  140.2967  155.3026 H   0  0  0  0  0  0  0  0  0  0  0  0
  148.2793  142.9432  156.0599 H   0  0  0  0  0  0  0  0  0  0  0  0
  149.5937  140.8262  153.6625 H   0  0  0  0  0  0  0  0  0  0  0  0
  149.7977  142.3769  154.4476 H   0  0  0  0  0  0  0  0  0  0  0  0
  150.5286  138.7638  154.8048 H   0  0  0  0  0  0  0  0  0  0  0  0
  152.9651  139.7846  158.9749 H   0  0  0  0  0  0  0  0  0  0  0  0
  152.3750  142.3819  161.1919 H   0  0  0  0  0  0  0  0  0  0  0  0
  153.7688  142.9237  160.2445 H   0  0  0  0  0  0  0  0  0  0  0  0
  153.6194  141.2305  160.7093 H   0  0  0  0  0  0  0  0  0  0  0  0
  150.7477  144.8869  158.5427 H   0  0  0  0  0  0  0  0  0  0  0  0
  152.3868  144.7081  159.1674 H   0  0  0  0  0  0  0  0  0  0  0  0
  151.0034  144.1750  160.1343 H   0  0  0  0  0  0  0  0  0  0  0  0
  150.2019  143.3461  156.8406 H   0  0  0  0  0  0  0  0  0  0  0  0
  143.4037  144.7446  156.1536 H   0  0  0  0  0  0  0  0  0  0  0  0
  144.9458  145.5009  155.7984 H   0  0  0  0  0  0  0  0  0  0  0  0
  145.1536  141.1952  153.5835 H   0  0  0  0  0  0  0  0  0  0  0  0
  145.6080  145.0972  158.0463 H   0  0  0  0  0  0  0  0  0  0  0  0
  1  2  1  0  0  0  0
  1 26  1  0  0  0  0
  1 27  1  0  0  0  0
  1 28  1  0  0  0  0
  2  3  1  0  0  0  0
  2 29  1  0  0  0  0
  2 30  1  0  0  0  0
  3 25  1  0  0  0  0
  3  4  1  0  0  0  0
  3 57  1  0  0  0  0
  4  5  1  0  0  0  0
  4 31  1  0  0  0  0
  4 32  1  0  0  0  0
  5  6  1  0  0  0  0
  5 33  1  0  0  0  0
  5 34  1  0  0  0  0
  6  7  1  0  0  0  0
  7  8  1  0  0  0  0
  7 25  1  0  0  0  0
  7 35  1  0  0  0  0
  8  9  1  0  0  0  0
  8 36  1  0  0  0  0
  8 37  1  0  0  0  0
  9 10  1  0  0  0  0
  9 38  1  0  0  0  0
  9 56  1  0  0  0  0
 10 11  1  0  0  0  0
 10 39  1  0  0  0  0
 10 40  1  0  0  0  0
 11 12  1  0  0  0  0
 11 13  1  0  0  0  0
 11 41  1  0  0  0  0
 12 42  1  0  0  0  0
 13 14  1  0  0  0  0
 13 43  1  0  0  0  0
 13 44  1  0  0  0  0
 14 24  1  0  0  0  0
 14 15  1  0  0  0  0
 15 16  2  0  0  0  0
 15 45  1  0  0  0  0
 16 17  1  0  0  0  0
 17 24  2  0  0  0  0
 17 18  1  0  0  0  0
 18 19  2  0  0  0  0
 18 46  1  0  0  0  0
 19 20  1  0  0  0  0
 19 21  1  0  0  0  0
 20 47  1  0  0  0  0
 20 48  1  0  0  0  0
 20 49  1  0  0  0  0
 21 22  1  0  0  0  0
 21 23  2  0  0  0  0
 22 50  1  0  0  0  0
 22 51  1  0  0  0  0
 22 52  1  0  0  0  0
 23 24  1  0  0  0  0
 23 53  1  0  0  0  0
 25 54  1  0  0  0  0
 25 55  1  0  0  0  0
M  CHG  1   3   1
M  CHG  1   9   1
M  END
> <s_m_source_file>
AV-unprocessed.smi

> <i_m_source_file_index>
1047

> <i_lp_mmshare_version>
43012

> <i_f3d_flags>
0

> <s_epik_input>
W0NIM11bQ0gyXU4xW0NIMl1bQ0gyXU9bQ0BIXShbQ0gyXTEpW0NIMl1bTkhdW0NIMl1bQ0BIXShbT0hdKVtDSDJdbihbY0hdbjIpYyhjMjMpW2NIXWMoW0NIM10pYyhbY0hdMylbQ0gzXQ==

> <s_epik_cmdline>
J2VwaWtfcHl0aG9uJywgJy1waCcsICc3LjAnLCAnLXRuJywgJzgnLCAnLW1hJywgJzIwMCcsICctbWV0YWxfYmluZGluZycsICctaW1hZScsICc8aW5maWxlLm1hZT4nLCAnLW9tYWUnLCAnPG91dGZpbGUubWFlPic=

> <r_epik_Ionization_Penalty>
0.528991

> <r_epik_Ionization_Penalty_Charging>
0.438567

> <r_epik_Ionization_Penalty_Neutral>
0.0904237

> <r_epik_State_Penalty>
0.533036

> <r_epik_Charging_Adjusted_Penalty>
0.971603

> <i_epik_Tot_Q>
2

> <i_epik_Tot_abs_Q>
2

> <r_epik_Metal_State_Penalty>
0.448985

> <b_epik_Metal_Only>
0

> <s_lp_Force_Field>
OPLS_2005

> <r_lp_Energy>
32.0872

> <b_lp_Chiralities_Consistent>
1

> <s_lp_Variant>
AV-unprocessed.smi:1047-1

> <Gold.Version>
5.8.1

> <Gold.Id.Protein>
6NUR|6NUR_protein|mol2

> <Gold.PLP.Fitness>
61.0991

> <Gold.PLP.PLP>
-47.9287

> <Gold.PLP.part.hbond>
-3.0000

> <Gold.PLP.part.metal>
0.0000

> <Gold.PLP.part.buried>
-4.7438

> <Gold.PLP.part.nonpolar>
-40.4735

> <Gold.PLP.part.repulsive>
0.0340

> <Gold.PLP.ligand.clash>
0.0000

> <Gold.PLP.ligand.torsion>
1.0086

> <Gold.PLP.Chemscore.Hbond>
4.9825

> <Gold.PLP.Chemscore.CHOScore>
0.0000

> <Gold.PLP.Chemscore.Metal>
0.0000

> <Gold.Chemscore.Hbonds>
donor molecule, donor type, donor heavy atom, donor atom, acceptor molecule, acceptor atom, score
      L1  H     9    56       P1 10175  2.00
      L1  H    12    42       P1  8028  1.00

> <Gold.PLP.Chemscore.Internal.Correction>
0.2400

> <Gold.Rescore>
     Score         DG    S(hbond)    S(metal)    S(lipo)     H(rot)  DE(clash)    DE(int)     intcor
     18.92     -20.82       2.44        0.00     120.40       2.70       0.06       1.83       ----

> <Gold.Chemscore.Fitness>
18.9231

> <Gold.Chemscore.DG>
-20.8160

> <Gold.Chemscore.ZeroCoef>
-5.4800

> <Gold.Chemscore.Hbond>
2.4423

> <Gold.Chemscore.Metal>
0.0000

> <Gold.Chemscore.Lipo>
120.4006

> <Gold.Chemscore.Internal_Hbond>
0.0000

> <Gold.Chemscore.DEClash>
0.0590

> <Gold.Chemscore.DEInternal>
1.8339

> <Gold.Chemscore.Rot>
2.6985

> <Gold.Chemscore.Internal.Correction>
   9.000000E+99

> <Gold.Chemscore.Hbonds>
donor molecule, donor type, donor heavy atom, donor atom, acceptor molecule, acceptor atom, score
      L1  H     3    57       P1  8029  0.01
      L1  H     9    56       P1 10175  0.44
      L1  H    12    42       P1  8028  0.85

> <Gold.Chemscore.Hbond.Weighted>
-8.1572

> <Gold.Chemscore.Metal.Weighted>
-0.0000

> <Gold.Chemscore.Lipo.Weighted>
-14.0869

> <Gold.Chemscore.Internal_Hbond.Weighted>
0.0000

> <Gold.Chemscore.DEClash.Weighted>
0.0590

> <Gold.Chemscore.DEInternal.Weighted>
1.8339

> <Gold.Chemscore.Rot.Weighted>
6.9081

> <Gold.Chemscore.Internal.Correction.Weighted>
   9.000000E+99

> <Gold.Protein.RotatedTorsions>
[ 6907 6896 6895 6894 ] final  116.50 input  -60.11 | X-H torsion
[ 7974 7965 7964 7962 ] final  -56.51 input  175.53 | X-H torsion
[ 8008 7997 7996 7995 ] final   33.62 input   59.86 | X-H torsion
[ 10167 10162 10161 10158 ] final  142.43 input  -65.29 | X-H torsion
[ 10718 10713 10712 10709 ] final  165.46 input   66.30 | X-H torsion
[ 10763 10752 10751 10750 ] final -108.83 input  -60.55 | X-H torsion
[ 11005 11000 10999 10996 ] final   49.05 input  -57.11 | X-H torsion

> <Gold.Protein.ActiveResidues>
 VAL166  LYS551  ARG553  GLY616  TRP617  ASP618  TYR619  PRO620  LYS621  CYS622 
 ASP623  PHE694  ASN695  SER759  ASP760  ASP761  ALA762  ILE779  LEU786  VAL792 
 PHE793  MET794  SER795  GLU796  ALA797  LYS798  CYS799  TRP800  GLU811  SER814 

> <Gold.Protein.RotatedAtoms>
  152.4674  133.7953  159.6923 H   0  0  0  0  0  0  0  0  0  0  0  0  # atno 6907 bound_to 6896
  150.8645  133.7585  159.2987 H   0  0  0  0  0  0  0  0  0  0  0  0  # atno 6908 bound_to 6896
  151.5139  135.1069  159.9913 H   0  0  0  0  0  0  0  0  0  0  0  0  # atno 6909 bound_to 6896
  145.8618  140.8280  142.9933 H   0  0  0  0  0  0  0  0  0  0  0  0  # atno 7974 bound_to 7965
  155.1416  140.3266  155.4451 H   0  0  0  0  0  0  0  0  0  0  0  0  # atno 8008 bound_to 7997
  156.2603  140.1992  156.6481 H   0  0  0  0  0  0  0  0  0  0  0  0  # atno 8009 bound_to 7997
  154.6538  140.0555  156.9972 H   0  0  0  0  0  0  0  0  0  0  0  0  # atno 8010 bound_to 7997
  139.4994  144.6107  151.6277 H   0  0  0  0  0  0  0  0  0  0  0  0  # atno 10167 bound_to 10162
  157.0798  131.0389  151.2579 H   0  0  0  0  0  0  0  0  0  0  0  0  # atno 10718 bound_to 10713
  154.8158  135.4623  154.0641 H   0  0  0  0  0  0  0  0  0  0  0  0  # atno 10763 bound_to 10752
  153.2034  135.6872  153.8209 H   0  0  0  0  0  0  0  0  0  0  0  0  # atno 10764 bound_to 10752
  153.7685  135.3273  155.3325 H   0  0  0  0  0  0  0  0  0  0  0  0  # atno 10765 bound_to 10752
  140.1137  134.4921  155.8655 H   0  0  0  0  0  0  0  0  0  0  0  0  # atno 11005 bound_to 11000
  144.6726  140.1107  143.7455 LP  0  0  0  0  0  0  0  0  0  0  0  0  # atno 17320 bound_to 7965
  145.9239  139.2563  143.1365 LP  0  0  0  0  0  0  0  0  0  0  0  0  # atno 17321 bound_to 7965
  140.5781  143.9993  150.6253 LP  0  0  0  0  0  0  0  0  0  0  0  0  # atno 17342 bound_to 10162
  140.3133  143.3184  152.0857 LP  0  0  0  0  0  0  0  0  0  0  0  0  # atno 17343 bound_to 10162
  157.4810  130.7765  149.7414 LP  0  0  0  0  0  0  0  0  0  0  0  0  # atno 17370 bound_to 10713
  155.9927  130.3929  150.2932 LP  0  0  0  0  0  0  0  0  0  0  0  0  # atno 17371 bound_to 10713
  141.2136  133.6736  156.6755 LP  0  0  0  0  0  0  0  0  0  0  0  0  # atno 17394 bound_to 11000
  140.3057  134.8128  157.4134 LP  0  0  0  0  0  0  0  0  0  0  0  0  # atno 17395 bound_to 11000

$$$$
