AV-unprocessed.smi:283|AV-procd|sdf|2139|dock9
  -GOLD-   2262021463D 1   1.00000     0.00000
 Structure written by MMmdl.
 48 51  0  0  0  0  0  0  0  0  1 V2000
  152.4869  144.4820  157.9469 C   0  0  0  0  0  0  0  0  0  0  0  0
  152.3403  142.9910  158.3010 C   0  0  2  0  0  0  0  0  0  0  0  0
  151.0478  142.4676  157.8598 N   0  0  0  0  0  0  0  0  0  0  0  0
  150.9556  141.4412  156.9853 C   0  0  0  0  0  0  0  0  0  0  0  0
  152.0181  140.6356  156.7243 N   0  0  0  0  0  0  0  0  0  0  0  0
  151.8944  139.6239  155.8603 C   0  0  0  0  0  0  0  0  0  0  0  0
  150.8191  139.2483  155.1648 N   0  0  0  0  0  0  0  0  0  0  0  0
  149.7466  140.0519  155.4257 C   0  0  0  0  0  0  0  0  0  0  0  0
  149.7354  141.1598  156.3182 C   0  0  0  0  0  0  0  0  0  0  0  0
  148.4729  141.7386  156.3347 N   0  0  0  0  0  0  0  0  0  0  0  0
  147.7804  141.0101  155.5007 C   0  0  0  0  0  0  0  0  0  0  0  0
  148.4672  139.9723  154.9111 N   0  0  0  0  0  0  0  0  0  0  0  0
  147.9403  138.9766  153.9257 C   0  0  1  0  0  0  0  0  0  0  0  0
  146.7617  138.4264  154.4147 O   0  0  0  0  0  0  0  0  0  0  0  0
  145.9514  138.0070  153.3219 C   0  0  1  0  0  0  0  0  0  0  0  0
  144.4814  138.3409  153.6336 C   0  0  0  0  0  0  0  0  0  0  0  0
  143.6211  137.9607  152.5799 O   0  0  0  0  0  0  0  0  0  0  0  0
  146.5318  138.6491  152.0430 C   0  0  2  0  0  0  0  0  0  0  0  0
  147.1164  137.6443  151.2362 O   0  0  0  0  0  0  0  0  0  0  0  0
  147.6158  139.5894  152.5560 C   0  0  1  0  0  0  0  0  0  0  0  0
  147.1415  140.9215  152.6289 O   0  0  0  0  0  0  0  0  0  0  0  0
  152.5778  142.7842  159.7963 C   0  0  0  0  0  0  0  0  0  0  0  0
  153.5315  141.8357  160.2360 C   0  0  0  0  0  0  0  0  0  0  0  0
  153.7593  141.6290  161.6096 C   0  0  0  0  0  0  0  0  0  0  0  0
  153.0305  142.3640  162.5614 C   0  0  0  0  0  0  0  0  0  0  0  0
  152.0702  143.3005  162.1369 C   0  0  0  0  0  0  0  0  0  0  0  0
  151.8372  143.5116  160.7630 C   0  0  0  0  0  0  0  0  0  0  0  0
  150.6317  144.6632  160.3032 Cl  0  0  0  0  0  0  0  0  0  0  0  0
  148.7032  138.1989  153.8663 H   0  0  0  0  0  0  0  0  0  0  0  0
  146.0420  136.9204  153.2702 H   0  0  0  0  0  0  0  0  0  0  0  0
  145.7816  139.1663  151.4430 H   0  0  0  0  0  0  0  0  0  0  0  0
  148.5117  139.5873  151.9336 H   0  0  0  0  0  0  0  0  0  0  0  0
  153.4698  144.8565  158.2343 H   0  0  0  0  0  0  0  0  0  0  0  0
  151.7389  145.0856  158.4620 H   0  0  0  0  0  0  0  0  0  0  0  0
  152.3740  144.6592  156.8773 H   0  0  0  0  0  0  0  0  0  0  0  0
  153.1063  142.4295  157.7676 H   0  0  0  0  0  0  0  0  0  0  0  0
  150.2384  142.9649  158.2020 H   0  0  0  0  0  0  0  0  0  0  0  0
  152.7829  139.0299  155.7050 H   0  0  0  0  0  0  0  0  0  0  0  0
  146.7391  141.2096  155.2929 H   0  0  0  0  0  0  0  0  0  0  0  0
  144.1647  137.8091  154.5311 H   0  0  0  0  0  0  0  0  0  0  0  0
  144.3629  139.4059  153.8349 H   0  0  0  0  0  0  0  0  0  0  0  0
  144.0146  138.2269  151.7621 H   0  0  0  0  0  0  0  0  0  0  0  0
  147.6422  137.0854  151.7878 H   0  0  0  0  0  0  0  0  0  0  0  0
  147.6443  141.3822  153.2833 H   0  0  0  0  0  0  0  0  0  0  0  0
  154.0955  141.2538  159.5220 H   0  0  0  0  0  0  0  0  0  0  0  0
  154.4922  140.9041  161.9325 H   0  0  0  0  0  0  0  0  0  0  0  0
  153.2037  142.2061  163.6157 H   0  0  0  0  0  0  0  0  0  0  0  0
  151.5073  143.8583  162.8710 H   0  0  0  0  0  0  0  0  0  0  0  0
  1  2  1  0  0  0  0
  1 33  1  0  0  0  0
  1 34  1  0  0  0  0
  1 35  1  0  0  0  0
  2  3  1  0  0  0  0
  2 22  1  0  0  0  0
  2 36  1  0  0  0  0
  3  4  1  0  0  0  0
  3 37  1  0  0  0  0
  4  9  1  0  0  0  0
  4  5  2  0  0  0  0
  5  6  1  0  0  0  0
  6  7  2  0  0  0  0
  6 38  1  0  0  0  0
  7  8  1  0  0  0  0
  8 12  1  0  0  0  0
  8  9  2  0  0  0  0
  9 10  1  0  0  0  0
 10 11  2  0  0  0  0
 11 12  1  0  0  0  0
 11 39  1  0  0  0  0
 12 13  1  0  0  0  0
 13 29  1  0  0  0  0
 13 20  1  0  0  0  0
 13 14  1  0  0  0  0
 14 15  1  0  0  0  0
 15 30  1  0  0  0  0
 15 16  1  0  0  0  0
 15 18  1  0  0  0  0
 16 17  1  0  0  0  0
 16 40  1  0  0  0  0
 16 41  1  0  0  0  0
 17 42  1  0  0  0  0
 18 31  1  0  0  0  0
 18 19  1  0  0  0  0
 18 20  1  0  0  0  0
 19 43  1  0  0  0  0
 20 32  1  0  0  0  0
 20 21  1  0  0  0  0
 21 44  1  0  0  0  0
 22 27  1  0  0  0  0
 22 23  2  0  0  0  0
 23 24  1  0  0  0  0
 23 45  1  0  0  0  0
 24 25  2  0  0  0  0
 24 46  1  0  0  0  0
 25 26  1  0  0  0  0
 25 47  1  0  0  0  0
 26 27  2  0  0  0  0
 26 48  1  0  0  0  0
 27 28  1  0  0  0  0
M  END
> <s_m_source_file>
AV-unprocessed.smi

> <i_m_source_file_index>
283

> <i_lp_mmshare_version>
43012

> <i_f3d_flags>
0

> <s_epik_input>
Q2xjMVtjSF1bY0hdW2NIXVtjSF1jMVtDQEhdKFtDSDNdKVtOSF1jKG5bY0hdbjIpYyhjMjMpbltjSF1uM1tDQEBIXTRPW0NASF0oW0NIMl1bT0hdKVtDQEBIXShbT0hdKVtDQEhdNFtPSF0=

> <s_epik_cmdline>
J2VwaWtfcHl0aG9uJywgJy1waCcsICc3LjAnLCAnLXRuJywgJzgnLCAnLW1hJywgJzIwMCcsICctbWV0YWxfYmluZGluZycsICctaW1hZScsICc8aW5maWxlLm1hZT4nLCAnLW9tYWUnLCAnPG91dGZpbGUubWFlPic=

> <r_lp_tautomer_probability>
1

> <r_epik_Ionization_Penalty>
0.000266407

> <r_epik_Ionization_Penalty_Charging>
0

> <r_epik_Ionization_Penalty_Neutral>
0.000266407

> <r_epik_State_Penalty>
-0

> <r_epik_Charging_Adjusted_Penalty>
0

> <i_epik_Tot_Q>
0

> <i_epik_Tot_abs_Q>
0

> <r_epik_Metal_State_Penalty>
-0

> <b_epik_Metal_Only>
0

> <s_epik_Chemistry_Notes>
This compound contains an acetal/aminal-like group ( X-CH(R)-Y where X, Y are N, S, or O) that may be acid/base labile, releasing an aldehyde.

> <s_lp_Force_Field>
OPLS_2005

> <r_lp_Energy>
48.6958

> <b_lp_Chiralities_Consistent>
1

> <s_lp_Variant>
AV-unprocessed.smi:283-15

> <Gold.Version>
5.8.1

> <Gold.Id.Protein>
6NUR|6NUR_protein|mol2

> <Gold.PLP.Fitness>
55.7345

> <Gold.PLP.PLP>
-49.9229

> <Gold.PLP.part.hbond>
-5.6723

> <Gold.PLP.part.metal>
0.0000

> <Gold.PLP.part.buried>
6.6924

> <Gold.PLP.part.nonpolar>
-51.5709

> <Gold.PLP.part.repulsive>
0.6178

> <Gold.PLP.ligand.clash>
1.8709

> <Gold.PLP.ligand.torsion>
0.3661

> <Gold.PLP.Chemscore.Hbond>
2.7878

> <Gold.PLP.Chemscore.CHOScore>
0.0000

> <Gold.PLP.Chemscore.Metal>
0.0000

> <Gold.Chemscore.Hbonds>
donor molecule, donor type, donor heavy atom, donor atom, acceptor molecule, acceptor atom, score
      L1  H    17    42       P1 10171  0.99
      L1  H    19    43       P1  7948  0.85
      P1  H  7954  7966       L1    19  1.00

> <Gold.PLP.Chemscore.Internal.Correction>
0.0513

> <Gold.Rescore>
     Score         DG    S(hbond)    S(metal)    S(lipo)     H(rot)  DE(clash)    DE(int)     intcor
      9.43     -18.51       2.15        0.00     139.54       4.10       6.32       2.75       ----

> <Gold.Chemscore.Fitness>
9.4282

> <Gold.Chemscore.DG>
-18.5053

> <Gold.Chemscore.ZeroCoef>
-5.4800

> <Gold.Chemscore.Hbond>
2.1518

> <Gold.Chemscore.Metal>
0.0000

> <Gold.Chemscore.Lipo>
139.5396

> <Gold.Chemscore.Internal_Hbond>
0.0000

> <Gold.Chemscore.DEClash>
6.3237

> <Gold.Chemscore.DEInternal>
2.7534

> <Gold.Chemscore.Rot>
4.0968

> <Gold.Chemscore.Internal.Correction>
   9.000000E+99

> <Gold.Chemscore.Hbonds>
donor molecule, donor type, donor heavy atom, donor atom, acceptor molecule, acceptor atom, score
      L1  H    17    42       P1 10171  0.92
      L1  H    19    43       P1  7948  0.80
      P1  H  7954  7966       L1    19  0.30

> <Gold.Chemscore.Hbond.Weighted>
-7.1871

> <Gold.Chemscore.Metal.Weighted>
-0.0000

> <Gold.Chemscore.Lipo.Weighted>
-16.3261

> <Gold.Chemscore.Internal_Hbond.Weighted>
0.0000

> <Gold.Chemscore.DEClash.Weighted>
6.3237

> <Gold.Chemscore.DEInternal.Weighted>
2.7534

> <Gold.Chemscore.Rot.Weighted>
10.4879

> <Gold.Chemscore.Internal.Correction.Weighted>
   9.000000E+99

> <Gold.Protein.RotatedTorsions>
[ 6907 6896 6895 6894 ] final   64.39 input  -60.11 | X-H torsion
[ 7974 7965 7964 7962 ] final   27.55 input  175.53 | X-H torsion
[ 8008 7997 7996 7995 ] final   30.25 input   59.86 | X-H torsion
[ 10167 10162 10161 10158 ] final   73.60 input  -65.29 | X-H torsion
[ 10718 10713 10712 10709 ] final  128.34 input   66.30 | X-H torsion
[ 10763 10752 10751 10750 ] final -143.00 input  -60.55 | X-H torsion
[ 11005 11000 10999 10996 ] final   48.24 input  -57.11 | X-H torsion

> <Gold.Protein.ActiveResidues>
 VAL166  LYS551  ARG553  GLY616  TRP617  ASP618  TYR619  PRO620  LYS621  CYS622 
 ASP623  PHE694  ASN695  SER759  ASP760  ASP761  ALA762  ILE779  LEU786  VAL792 
 PHE793  MET794  SER795  GLU796  ALA797  LYS798  CYS799  TRP800  GLU811  SER814 

> <Gold.Protein.RotatedAtoms>
  152.4328  134.5745  159.9930 H   0  0  0  0  0  0  0  0  0  0  0  0  # atno 6907 bound_to 6896
  151.5864  133.3366  159.3026 H   0  0  0  0  0  0  0  0  0  0  0  0  # atno 6908 bound_to 6896
  150.8222  134.7471  159.6847 H   0  0  0  0  0  0  0  0  0  0  0  0  # atno 6909 bound_to 6896
  146.1778  139.7176  142.8922 H   0  0  0  0  0  0  0  0  0  0  0  0  # atno 7974 bound_to 7965
  155.0874  140.3216  155.4583 H   0  0  0  0  0  0  0  0  0  0  0  0  # atno 8008 bound_to 7997
  156.2751  140.2084  156.5947 H   0  0  0  0  0  0  0  0  0  0  0  0  # atno 8009 bound_to 7997
  154.6930  140.0514  157.0370 H   0  0  0  0  0  0  0  0  0  0  0  0  # atno 8010 bound_to 7997
  140.0228  144.5527  150.7568 H   0  0  0  0  0  0  0  0  0  0  0  0  # atno 10167 bound_to 10162
  157.5253  131.1098  150.9092 H   0  0  0  0  0  0  0  0  0  0  0  0  # atno 10718 bound_to 10713
  154.8487  135.3480  154.6118 H   0  0  0  0  0  0  0  0  0  0  0  0  # atno 10763 bound_to 10752
  153.6726  135.6984  153.5147 H   0  0  0  0  0  0  0  0  0  0  0  0  # atno 10764 bound_to 10752
  153.2730  135.4287  155.0963 H   0  0  0  0  0  0  0  0  0  0  0  0  # atno 10765 bound_to 10752
  140.1208  134.4832  155.8599 H   0  0  0  0  0  0  0  0  0  0  0  0  # atno 11005 bound_to 11000
  145.4163  141.0402  143.2989 LP  0  0  0  0  0  0  0  0  0  0  0  0  # atno 17320 bound_to 7965
  144.8264  139.5702  143.6963 LP  0  0  0  0  0  0  0  0  0  0  0  0  # atno 17321 bound_to 7965
  140.7335  143.2718  151.3864 LP  0  0  0  0  0  0  0  0  0  0  0  0  # atno 17342 bound_to 10162
  139.6128  144.1063  152.2316 LP  0  0  0  0  0  0  0  0  0  0  0  0  # atno 17343 bound_to 10162
  156.9690  130.5484  149.5289 LP  0  0  0  0  0  0  0  0  0  0  0  0  # atno 17370 bound_to 10713
  156.0382  130.5468  150.8707 LP  0  0  0  0  0  0  0  0  0  0  0  0  # atno 17371 bound_to 10713
  141.2151  133.6760  156.6885 LP  0  0  0  0  0  0  0  0  0  0  0  0  # atno 17394 bound_to 11000
  140.2967  134.8196  157.4063 LP  0  0  0  0  0  0  0  0  0  0  0  0  # atno 17395 bound_to 11000

$$$$
