AV-unprocessed.smi:1747|AV-procd|sdf|7035|dock6
  -GOLD-   22720 8253D 1   1.00000     0.00000
 Structure written by MMmdl.
 40 41  0  0  0  0  0  0  0  0  1 V2000
  152.1537  144.3777  160.9093 C   0  0  0  0  0  0  0  0  0  0  0  0
  152.2757  142.8977  160.5391 C   0  0  0  0  0  0  0  0  0  0  0  0
  153.0334  142.1963  161.2094 O   0  0  0  0  0  0  0  0  0  0  0  0
  151.5580  142.4128  159.4972 N   0  0  0  0  0  0  0  0  0  0  0  0
  150.6607  143.2016  158.6380 C   0  0  0  0  0  0  0  0  0  0  0  0
  151.2049  143.1858  157.1959 C   0  0  0  0  0  0  0  0  0  0  0  0
  151.2949  141.7867  156.7346 N   0  0  0  0  0  0  0  0  0  0  0  0
  150.5815  141.2186  155.7291 C   0  0  0  0  0  0  0  0  0  0  0  0
  150.9020  140.1616  155.1838 O   0  0  0  0  0  0  0  0  0  0  0  0
  149.4919  141.9068  155.3557 N   0  0  0  0  0  0  0  0  0  0  0  0
  148.5948  141.5326  154.2694 C   0  0  0  0  0  0  0  0  0  0  0  0
  147.2254  141.0647  154.7945 C   0  0  0  0  0  0  0  0  0  0  0  0
  146.2461  142.1854  154.9995 C   0  0  0  0  0  0  0  0  0  0  0  0
  145.5645  142.4803  156.1537 C   0  0  0  0  0  0  0  0  0  0  0  0
  144.5022  143.8464  155.9512 S   0  0  0  0  0  0  0  0  0  0  0  0
  145.0308  143.9703  154.2782 C   0  0  0  0  0  0  0  0  0  0  0  0
  144.5167  145.0022  153.3342 C   0  0  0  0  0  0  0  0  0  0  0  0
  145.9329  143.0457  153.9413 N   0  0  0  0  0  0  0  0  0  0  0  0
  152.1991  141.0042  157.5914 C   0  0  0  0  0  0  0  0  0  0  0  0
  151.6643  141.0196  159.0376 C   0  0  0  0  0  0  0  0  0  0  0  0
  152.4550  145.0108  160.0743 H   0  0  0  0  0  0  0  0  0  0  0  0
  152.7987  144.6161  161.7557 H   0  0  0  0  0  0  0  0  0  0  0  0
  151.1297  144.6237  161.1922 H   0  0  0  0  0  0  0  0  0  0  0  0
  149.6627  142.7613  158.6670 H   0  0  0  0  0  0  0  0  0  0  0  0
  150.5362  144.2326  158.9642 H   0  0  0  0  0  0  0  0  0  0  0  0
  150.5812  143.8237  156.5700 H   0  0  0  0  0  0  0  0  0  0  0  0
  152.1991  143.6345  157.1657 H   0  0  0  0  0  0  0  0  0  0  0  0
  149.2847  142.7681  155.8408 H   0  0  0  0  0  0  0  0  0  0  0  0
  148.4588  142.3950  153.6150 H   0  0  0  0  0  0  0  0  0  0  0  0
  149.0526  140.7455  153.6688 H   0  0  0  0  0  0  0  0  0  0  0  0
  146.8111  140.3326  154.1008 H   0  0  0  0  0  0  0  0  0  0  0  0
  147.3695  140.5273  155.7327 H   0  0  0  0  0  0  0  0  0  0  0  0
  145.6177  141.9739  157.1062 H   0  0  0  0  0  0  0  0  0  0  0  0
  145.0407  144.9451  152.3796 H   0  0  0  0  0  0  0  0  0  0  0  0
  144.6625  145.9976  153.7539 H   0  0  0  0  0  0  0  0  0  0  0  0
  143.4523  144.8473  153.1582 H   0  0  0  0  0  0  0  0  0  0  0  0
  152.3114  139.9720  157.2574 H   0  0  0  0  0  0  0  0  0  0  0  0
  153.1984  141.4404  157.5531 H   0  0  0  0  0  0  0  0  0  0  0  0
  152.3145  140.4137  159.6700 H   0  0  0  0  0  0  0  0  0  0  0  0
  150.6804  140.5506  159.0821 H   0  0  0  0  0  0  0  0  0  0  0  0
  1  2  1  0  0  0  0
  1 21  1  0  0  0  0
  1 22  1  0  0  0  0
  1 23  1  0  0  0  0
  2  3  2  0  0  0  0
  2  4  1  0  0  0  0
  4 20  1  0  0  0  0
  4  5  1  0  0  0  0
  5  6  1  0  0  0  0
  5 24  1  0  0  0  0
  5 25  1  0  0  0  0
  6  7  1  0  0  0  0
  6 26  1  0  0  0  0
  6 27  1  0  0  0  0
  7  8  1  0  0  0  0
  7 19  1  0  0  0  0
  8  9  2  0  0  0  0
  8 10  1  0  0  0  0
 10 11  1  0  0  0  0
 10 28  1  0  0  0  0
 11 12  1  0  0  0  0
 11 29  1  0  0  0  0
 11 30  1  0  0  0  0
 12 13  1  0  0  0  0
 12 31  1  0  0  0  0
 12 32  1  0  0  0  0
 13 18  1  0  0  0  0
 13 14  2  0  0  0  0
 14 15  1  0  0  0  0
 14 33  1  0  0  0  0
 15 16  1  0  0  0  0
 16 17  1  0  0  0  0
 16 18  2  0  0  0  0
 17 34  1  0  0  0  0
 17 35  1  0  0  0  0
 17 36  1  0  0  0  0
 19 20  1  0  0  0  0
 19 37  1  0  0  0  0
 19 38  1  0  0  0  0
 20 39  1  0  0  0  0
 20 40  1  0  0  0  0
M  END
> <s_m_source_file>
AV-unprocessed.smi

> <i_m_source_file_index>
1747

> <i_lp_mmshare_version>
43012

> <i_f3d_flags>
0

> <s_epik_input>
W0NIM11DKD1PKU4xW0NIMl1bQ0gyXU4oW0NIMl1bQ0gyXTEpQyg9TylbTkhdW0NIMl1bQ0gyXWMyW2NIXXNjKG4yKVtDSDNd

> <s_epik_cmdline>
J2VwaWtfcHl0aG9uJywgJy1waCcsICc3LjAnLCAnLXRuJywgJzgnLCAnLW1hJywgJzIwMCcsICctbWV0YWxfYmluZGluZycsICctaW1hZScsICc8aW5maWxlLm1hZT4nLCAnLW9tYWUnLCAnPG91dGZpbGUubWFlPic=

> <r_epik_Ionization_Penalty>
0.00199956

> <r_epik_Ionization_Penalty_Charging>
0

> <r_epik_Ionization_Penalty_Neutral>
0.00199956

> <r_epik_State_Penalty>
0.00133382

> <r_epik_Charging_Adjusted_Penalty>
0.00133382

> <i_epik_Tot_Q>
0

> <i_epik_Tot_abs_Q>
0

> <r_epik_Metal_State_Penalty>
-0

> <b_epik_Metal_Only>
0

> <s_lp_Force_Field>
OPLS_2005

> <r_lp_Energy>
44.3218

> <b_lp_Chiralities_Consistent>
1

> <s_lp_Variant>
AV-unprocessed.smi:1747-1

> <Gold.Version>
5.8.1

> <Gold.Id.Protein>
6NUR|6NUR_protein|mol2

> <Gold.PLP.Fitness>
45.6668

> <Gold.PLP.PLP>
-40.7899

> <Gold.PLP.part.hbond>
-2.0000

> <Gold.PLP.part.metal>
0.0000

> <Gold.PLP.part.buried>
-6.6124

> <Gold.PLP.part.nonpolar>
-30.7855

> <Gold.PLP.part.repulsive>
0.4598

> <Gold.PLP.ligand.clash>
0.0000

> <Gold.PLP.ligand.torsion>
0.4095

> <Gold.PLP.Chemscore.Hbond>
1.8920

> <Gold.PLP.Chemscore.CHOScore>
0.0000

> <Gold.PLP.Chemscore.Metal>
0.0000

> <Gold.Chemscore.Hbonds>
donor molecule, donor type, donor heavy atom, donor atom, acceptor molecule, acceptor atom, score
      L1  H    10    28       P1  8028  0.91
      P1  H  7989  7998       L1     9  0.95

> <Gold.PLP.Chemscore.Internal.Correction>
0.0199

> <Gold.Rescore>
     Score         DG    S(hbond)    S(metal)    S(lipo)     H(rot)  DE(clash)    DE(int)     intcor
     15.02     -15.46       1.02        0.00      86.41       1.38       0.13       0.31       ----

> <Gold.Chemscore.Fitness>
15.0163

> <Gold.Chemscore.DG>
-15.4568

> <Gold.Chemscore.ZeroCoef>
-5.4800

> <Gold.Chemscore.Hbond>
1.0166

> <Gold.Chemscore.Metal>
0.0000

> <Gold.Chemscore.Lipo>
86.4136

> <Gold.Chemscore.Internal_Hbond>
0.0000

> <Gold.Chemscore.DEClash>
0.1282

> <Gold.Chemscore.DEInternal>
0.3124

> <Gold.Chemscore.Rot>
1.3786

> <Gold.Chemscore.Internal.Correction>
   9.000000E+99

> <Gold.Chemscore.Hbonds>
donor molecule, donor type, donor heavy atom, donor atom, acceptor molecule, acceptor atom, score
      L1  H    10    28       P1  8028  0.86
      P1  H  7989  7998       L1     9  0.21

> <Gold.Chemscore.Hbond.Weighted>
-3.3956

> <Gold.Chemscore.Metal.Weighted>
-0.0000

> <Gold.Chemscore.Lipo.Weighted>
-10.1104

> <Gold.Chemscore.Internal_Hbond.Weighted>
0.0000

> <Gold.Chemscore.DEClash.Weighted>
0.1282

> <Gold.Chemscore.DEInternal.Weighted>
0.3124

> <Gold.Chemscore.Rot.Weighted>
3.5291

> <Gold.Chemscore.Internal.Correction.Weighted>
   9.000000E+99

> <Gold.Protein.RotatedTorsions>
[ 6907 6896 6895 6894 ] final  -56.95 input  -60.11 | X-H torsion
[ 7974 7965 7964 7962 ] final   86.24 input  175.53 | X-H torsion
[ 8008 7997 7996 7995 ] final   57.45 input   59.86 | X-H torsion
[ 10167 10162 10161 10158 ] final  -51.70 input  -65.29 | X-H torsion
[ 10718 10713 10712 10709 ] final  -44.81 input   66.30 | X-H torsion
[ 10763 10752 10751 10750 ] final  133.13 input  -60.55 | X-H torsion
[ 11005 11000 10999 10996 ] final  146.44 input  -57.11 | X-H torsion

> <Gold.Protein.ActiveResidues>
 VAL166  LYS551  ARG553  GLY616  TRP617  ASP618  TYR619  PRO620  LYS621  CYS622 
 ASP623  PHE694  ASN695  SER759  ASP760  ASP761  ALA762  ILE779  LEU786  VAL792 
 PHE793  MET794  SER795  GLU796  ALA797  LYS798  CYS799  TRP800  GLU811  SER814 

> <Gold.Protein.RotatedAtoms>
  150.8125  134.7288  159.6700 H   0  0  0  0  0  0  0  0  0  0  0  0  # atno 6907 bound_to 6896
  152.4245  134.5891  159.9979 H   0  0  0  0  0  0  0  0  0  0  0  0  # atno 6908 bound_to 6896
  151.6097  133.3311  159.3101 H   0  0  0  0  0  0  0  0  0  0  0  0  # atno 6909 bound_to 6896
  145.5749  139.2318  143.2385 H   0  0  0  0  0  0  0  0  0  0  0  0  # atno 7974 bound_to 7965
  155.5340  140.3483  155.4432 H   0  0  0  0  0  0  0  0  0  0  0  0  # atno 8008 bound_to 7997
  156.0698  140.1360  156.9869 H   0  0  0  0  0  0  0  0  0  0  0  0  # atno 8009 bound_to 7997
  154.4522  140.0968  156.6627 H   0  0  0  0  0  0  0  0  0  0  0  0  # atno 8010 bound_to 7997
  140.6575  143.2610  151.4542 H   0  0  0  0  0  0  0  0  0  0  0  0  # atno 10167 bound_to 10162
  156.2347  130.4175  149.8832 H   0  0  0  0  0  0  0  0  0  0  0  0  # atno 10718 bound_to 10713
  153.8021  135.3140  155.3391 H   0  0  0  0  0  0  0  0  0  0  0  0  # atno 10763 bound_to 10752
  154.8085  135.4682  154.0457 H   0  0  0  0  0  0  0  0  0  0  0  0  # atno 10764 bound_to 10752
  153.1808  135.6893  153.8568 H   0  0  0  0  0  0  0  0  0  0  0  0  # atno 10765 bound_to 10752
  140.0793  134.9106  157.1474 H   0  0  0  0  0  0  0  0  0  0  0  0  # atno 11005 bound_to 11000
  146.1758  140.6575  142.9212 LP  0  0  0  0  0  0  0  0  0  0  0  0  # atno 17320 bound_to 7965
  144.7420  140.4969  143.6862 LP  0  0  0  0  0  0  0  0  0  0  0  0  # atno 17321 bound_to 7965
  139.5800  144.1730  152.1956 LP  0  0  0  0  0  0  0  0  0  0  0  0  # atno 17342 bound_to 10162
  140.1053  144.5504  150.6961 LP  0  0  0  0  0  0  0  0  0  0  0  0  # atno 17343 bound_to 10162
  156.6434  130.8714  151.3518 LP  0  0  0  0  0  0  0  0  0  0  0  0  # atno 17370 bound_to 10713
  157.7149  130.9485  150.1219 LP  0  0  0  0  0  0  0  0  0  0  0  0  # atno 17371 bound_to 10713
  140.3511  134.2597  155.7198 LP  0  0  0  0  0  0  0  0  0  0  0  0  # atno 17394 bound_to 11000
  141.2041  133.7895  157.0305 LP  0  0  0  0  0  0  0  0  0  0  0  0  # atno 17395 bound_to 11000

$$$$
