AV-unprocessed.smi:2897|AV-procd|sdf|11140|dock1
  -GOLD-   2272016 13D 1   1.00000     0.00000
 Structure written by MMmdl.
 37 39  0  0  0  0  0  0  0  0  1 V2000
  146.1169  137.4236  154.9186 O   0  0  0  0  0  0  0  0  0  0  0  0
  146.9335  137.0773  154.0662 C   0  0  0  0  0  0  0  0  0  0  0  0
  146.6966  136.1144  153.1646 N   0  0  0  0  0  0  0  0  0  0  0  0
  145.4624  135.3410  153.0678 C   0  0  0  0  0  0  0  0  0  0  0  0
  145.3867  134.3186  151.9368 C   0  0  0  0  0  0  0  0  0  0  0  0
  146.6194  133.4119  151.9340 C   0  0  0  0  0  0  0  0  0  0  0  0
  146.5564  132.3780  150.9716 O   0  0  0  0  0  0  0  0  0  0  0  0
  144.0225  133.7538  151.5882 C   0  0  0  0  0  0  0  0  0  0  0  0
  144.7110  134.7004  150.6348 C   0  0  0  0  0  0  0  0  0  0  0  0
  148.1575  137.6068  153.8987 N   0  0  0  0  0  0  0  0  0  0  0  0
  148.8052  138.6131  154.6657 C   0  0  0  0  0  0  0  0  0  0  0  0
  149.9453  139.2470  154.1282 C   0  0  0  0  0  0  0  0  0  0  0  0
  150.6208  140.2018  154.8026 N   0  0  0  0  0  0  0  0  0  0  0  0
  150.1693  140.5127  156.0206 C   0  0  0  0  0  0  0  0  0  0  0  0
  150.8939  141.6009  156.7504 C   0  0  0  0  0  0  0  0  0  0  0  0
  151.6212  141.3149  158.0484 C   0  0  0  0  0  0  0  0  0  0  0  0
  150.3633  142.1378  158.0641 C   0  0  0  0  0  0  0  0  0  0  0  0
  149.1047  139.9870  156.6325 N   0  0  0  0  0  0  0  0  0  0  0  0
  148.4213  139.0325  155.9640 C   0  0  0  0  0  0  0  0  0  0  0  0
  147.4236  135.8963  152.4989 H   0  0  0  0  0  0  0  0  0  0  0  0
  145.3360  134.8108  154.0121 H   0  0  0  0  0  0  0  0  0  0  0  0
  144.6135  136.0236  152.9979 H   0  0  0  0  0  0  0  0  0  0  0  0
  147.5108  134.0072  151.7357 H   0  0  0  0  0  0  0  0  0  0  0  0
  146.7395  132.9607  152.9193 H   0  0  0  0  0  0  0  0  0  0  0  0
  147.3861  131.9258  150.9607 H   0  0  0  0  0  0  0  0  0  0  0  0
  143.9497  132.7096  151.2916 H   0  0  0  0  0  0  0  0  0  0  0  0
  143.1614  134.1357  152.1330 H   0  0  0  0  0  0  0  0  0  0  0  0
  144.3033  135.7054  150.5488 H   0  0  0  0  0  0  0  0  0  0  0  0
  145.1064  134.2835  149.7108 H   0  0  0  0  0  0  0  0  0  0  0  0
  148.6859  137.2589  153.1121 H   0  0  0  0  0  0  0  0  0  0  0  0
  150.3187  138.9896  153.1477 H   0  0  0  0  0  0  0  0  0  0  0  0
  151.3467  142.3082  156.0582 H   0  0  0  0  0  0  0  0  0  0  0  0
  151.5636  140.3061  158.4524 H   0  0  0  0  0  0  0  0  0  0  0  0
  152.5635  141.8318  158.2187 H   0  0  0  0  0  0  0  0  0  0  0  0
  150.4629  143.2059  158.2457 H   0  0  0  0  0  0  0  0  0  0  0  0
  149.4690  141.6759  158.4780 H   0  0  0  0  0  0  0  0  0  0  0  0
  147.5824  138.6108  156.4942 H   0  0  0  0  0  0  0  0  0  0  0  0
  1  2  2  0  0  0  0
  2  3  1  0  0  0  0
  2 10  1  0  0  0  0
  3  4  1  0  0  0  0
  3 20  1  0  0  0  0
  4  5  1  0  0  0  0
  4 21  1  0  0  0  0
  4 22  1  0  0  0  0
  5  9  1  0  0  0  0
  5  6  1  0  0  0  0
  5  8  1  0  0  0  0
  6  7  1  0  0  0  0
  6 23  1  0  0  0  0
  6 24  1  0  0  0  0
  7 25  1  0  0  0  0
  8  9  1  0  0  0  0
  8 26  1  0  0  0  0
  8 27  1  0  0  0  0
  9 28  1  0  0  0  0
  9 29  1  0  0  0  0
 10 11  1  0  0  0  0
 10 30  1  0  0  0  0
 11 19  1  0  0  0  0
 11 12  2  0  0  0  0
 12 13  1  0  0  0  0
 12 31  1  0  0  0  0
 13 14  2  0  0  0  0
 14 15  1  0  0  0  0
 14 18  1  0  0  0  0
 15 17  1  0  0  0  0
 15 16  1  0  0  0  0
 15 32  1  0  0  0  0
 16 17  1  0  0  0  0
 16 33  1  0  0  0  0
 16 34  1  0  0  0  0
 17 35  1  0  0  0  0
 17 36  1  0  0  0  0
 18 19  2  0  0  0  0
 19 37  1  0  0  0  0
M  END
> <s_m_source_file>
AV-unprocessed.smi

> <i_m_source_file_index>
2897

> <i_lp_mmshare_version>
43012

> <i_f3d_flags>
0

> <s_epik_input>
W09IXVtDSDJdQzEoW0NIMl1bQ0gyXTEpW0NIMl1bTkhdQyg9TylbTkhdYzJbY0hdbmMobltjSF0yKVtDSF0zW0NIMl1bQ0gyXTM=

> <s_epik_cmdline>
J2VwaWtfcHl0aG9uJywgJy1waCcsICc3LjAnLCAnLXRuJywgJzgnLCAnLW1hJywgJzIwMCcsICctbWV0YWxfYmluZGluZycsICctaW1hZScsICc8aW5maWxlLm1hZT4nLCAnLW9tYWUnLCAnPG91dGZpbGUubWFlPic=

> <r_lp_tautomer_probability>
1

> <r_epik_Ionization_Penalty>
2.67616e-05

> <r_epik_Ionization_Penalty_Charging>
0

> <r_epik_Ionization_Penalty_Neutral>
2.67616e-05

> <r_epik_State_Penalty>
-0

> <r_epik_Charging_Adjusted_Penalty>
0

> <i_epik_Tot_Q>
0

> <i_epik_Tot_abs_Q>
0

> <r_epik_Metal_State_Penalty>
-0

> <b_epik_Metal_Only>
0

> <s_lp_Force_Field>
OPLS_2005

> <r_lp_Energy>
23.6069

> <b_lp_Chiralities_Consistent>
1

> <s_lp_Variant>
AV-unprocessed.smi:2897-1

> <Gold.Version>
5.8.1

> <Gold.Id.Protein>
6NUR|6NUR_protein|mol2

> <Gold.PLP.Fitness>
40.5873

> <Gold.PLP.PLP>
-25.7820

> <Gold.PLP.part.hbond>
-4.0000

> <Gold.PLP.part.metal>
0.0000

> <Gold.PLP.part.buried>
-3.3214

> <Gold.PLP.part.nonpolar>
-19.3499

> <Gold.PLP.part.repulsive>
0.1317

> <Gold.PLP.ligand.clash>
0.0000

> <Gold.PLP.ligand.torsion>
0.7205

> <Gold.PLP.Chemscore.Hbond>
4.0000

> <Gold.PLP.Chemscore.CHOScore>
0.9943

> <Gold.PLP.Chemscore.Metal>
0.0000

> <Gold.Chemscore.Hbonds>
donor molecule, donor type, donor heavy atom, donor atom, acceptor molecule, acceptor atom, score
      L1  H     3    20       P1  7948  1.00
      L1  H     7    25       P1 10747  0.99
      L1  H    10    30       P1  7948  1.00
      P1  H  7989  7998       L1    13  1.00
      L1  C    12    31       P1  7957  0.90

> <Gold.PLP.Chemscore.Internal.Correction>
1.2633

> <Gold.Rescore>
     Score         DG    S(hbond)    S(metal)    S(lipo)     H(rot)  DE(clash)    DE(int)     intcor
     14.88     -16.81       3.27        0.00      55.11       2.35       0.09       1.83       ----

> <Gold.Chemscore.Fitness>
14.8822

> <Gold.Chemscore.DG>
-16.8081

> <Gold.Chemscore.ZeroCoef>
-5.4800

> <Gold.Chemscore.Hbond>
3.2661

> <Gold.Chemscore.Metal>
0.0000

> <Gold.Chemscore.Lipo>
55.1068

> <Gold.Chemscore.Internal_Hbond>
0.0000

> <Gold.Chemscore.DEClash>
0.0930

> <Gold.Chemscore.DEInternal>
1.8330

> <Gold.Chemscore.Rot>
2.3547

> <Gold.Chemscore.Internal.Correction>
   9.000000E+99

> <Gold.Chemscore.Hbonds>
donor molecule, donor type, donor heavy atom, donor atom, acceptor molecule, acceptor atom, score
      L1  H     3    20       P1  7948  0.94
      L1  H     7    25       P1 10747  0.92
      L1  H    10    30       P1  7948  0.97
      P1  H  7989  7998       L1    13  0.30

> <Gold.Chemscore.Hbond.Weighted>
-10.9087

> <Gold.Chemscore.Metal.Weighted>
-0.0000

> <Gold.Chemscore.Lipo.Weighted>
-6.4475

> <Gold.Chemscore.Internal_Hbond.Weighted>
0.0000

> <Gold.Chemscore.DEClash.Weighted>
0.0930

> <Gold.Chemscore.DEInternal.Weighted>
1.8330

> <Gold.Chemscore.Rot.Weighted>
6.0281

> <Gold.Chemscore.Internal.Correction.Weighted>
   9.000000E+99

> <Gold.Protein.RotatedTorsions>
[ 6907 6896 6895 6894 ] final  154.92 input  -60.11 | X-H torsion
[ 7974 7965 7964 7962 ] final -105.71 input  175.53 | X-H torsion
[ 8008 7997 7996 7995 ] final   52.26 input   59.86 | X-H torsion
[ 10167 10162 10161 10158 ] final -102.67 input  -65.29 | X-H torsion
[ 10718 10713 10712 10709 ] final   72.10 input   66.30 | X-H torsion
[ 10763 10752 10751 10750 ] final   49.16 input  -60.55 | X-H torsion
[ 11005 11000 10999 10996 ] final  158.33 input  -57.11 | X-H torsion

> <Gold.Protein.ActiveResidues>
 VAL166  LYS551  ARG553  GLY616  TRP617  ASP618  TYR619  PRO620  LYS621  CYS622 
 ASP623  PHE694  ASN695  SER759  ASP760  ASP761  ALA762  ILE779  LEU786  VAL792 
 PHE793  MET794  SER795  GLU796  ALA797  LYS798  CYS799  TRP800  GLU811  SER814 

> <Gold.Protein.RotatedAtoms>
  152.0516  133.4021  159.4379 H   0  0  0  0  0  0  0  0  0  0  0  0  # atno 6907 bound_to 6896
  150.6870  134.3302  159.4833 H   0  0  0  0  0  0  0  0  0  0  0  0  # atno 6908 bound_to 6896
  152.1112  134.9272  160.0617 H   0  0  0  0  0  0  0  0  0  0  0  0  # atno 6909 bound_to 6896
  145.2270  140.9156  143.3226 H   0  0  0  0  0  0  0  0  0  0  0  0  # atno 7974 bound_to 7965
  155.4488  140.3457  155.4298 H   0  0  0  0  0  0  0  0  0  0  0  0  # atno 8008 bound_to 7997
  156.1233  140.1493  156.9202 H   0  0  0  0  0  0  0  0  0  0  0  0  # atno 8009 bound_to 7997
  154.4839  140.0861  156.7422 H   0  0  0  0  0  0  0  0  0  0  0  0  # atno 8010 bound_to 7997
  140.2281  143.3626  152.0910 H   0  0  0  0  0  0  0  0  0  0  0  0  # atno 10167 bound_to 10162
  157.6484  130.9562  150.0882 H   0  0  0  0  0  0  0  0  0  0  0  0  # atno 10718 bound_to 10713
  152.9788  135.5921  154.4043 H   0  0  0  0  0  0  0  0  0  0  0  0  # atno 10763 bound_to 10752
  154.3685  135.2767  155.2281 H   0  0  0  0  0  0  0  0  0  0  0  0  # atno 10764 bound_to 10752
  154.4247  135.6050  153.6086 H   0  0  0  0  0  0  0  0  0  0  0  0  # atno 10765 bound_to 10752
  140.1855  134.8445  157.2852 H   0  0  0  0  0  0  0  0  0  0  0  0  # atno 11005 bound_to 11000
  144.9712  139.3878  143.6308 LP  0  0  0  0  0  0  0  0  0  0  0  0  # atno 17320 bound_to 7965
  146.3362  139.8810  142.8824 LP  0  0  0  0  0  0  0  0  0  0  0  0  # atno 17321 bound_to 7965
  139.5119  144.6909  151.5762 LP  0  0  0  0  0  0  0  0  0  0  0  0  # atno 17342 bound_to 10162
  140.6205  143.9267  150.6522 LP  0  0  0  0  0  0  0  0  0  0  0  0  # atno 17343 bound_to 10162
  156.1839  130.3651  149.8999 LP  0  0  0  0  0  0  0  0  0  0  0  0  # atno 17370 bound_to 10713
  156.6945  130.8908  151.3592 LP  0  0  0  0  0  0  0  0  0  0  0  0  # atno 17371 bound_to 10713
  140.2219  134.4013  155.7562 LP  0  0  0  0  0  0  0  0  0  0  0  0  # atno 17394 bound_to 11000
  141.2224  133.7170  156.8504 LP  0  0  0  0  0  0  0  0  0  0  0  0  # atno 17395 bound_to 11000

$$$$
