AV-unprocessed.smi:3335|AV-procd|sdf|12848|dock6
  -GOLD-   2272019233D 1   1.00000     0.00000
 Structure written by MMmdl.
 46 47  0  0  0  0  0  0  0  0  1 V2000
  145.6107  136.2705  151.6844 C   0  0  0  0  0  0  0  0  0  0  0  0
  146.2317  137.4116  152.4370 C   0  0  0  0  0  0  0  0  0  0  0  0
  146.3701  138.7640  152.0144 C   0  0  0  0  0  0  0  0  0  0  0  0
  146.9660  139.5261  152.9164 N   0  0  0  0  0  0  0  0  0  0  0  0
  147.2318  138.6908  153.9458 N   0  0  0  0  0  0  0  0  0  0  0  0
  147.8900  139.1886  155.1476 C   0  0  1  0  0  0  0  0  0  0  0  0
  148.2290  138.0155  156.0876 C   0  0  0  0  0  0  0  0  0  0  0  0
  149.1243  140.0691  154.8097 C   0  0  1  0  0  0  0  0  0  0  0  0
  148.7565  141.4135  154.1533 C   0  0  0  0  0  0  0  0  0  0  0  0
  149.8480  140.3785  156.0435 N   0  0  0  0  0  0  0  0  0  0  0  0
  151.3120  140.4736  155.8922 C   0  0  2  0  0  0  0  0  0  0  0  0
  151.8369  139.2306  155.1584 C   0  0  0  0  0  0  0  0  0  0  0  0
  152.0485  140.6361  157.2412 C   0  0  0  0  0  0  0  0  0  0  0  0
  152.7313  139.6986  157.6576 O   0  0  0  0  0  0  0  0  0  0  0  0
  151.9283  141.7902  157.9332 N   0  0  0  0  0  0  0  0  0  0  0  0
  151.1815  142.9786  157.5211 C   0  0  0  0  0  0  0  0  0  0  0  0
  151.5644  144.0772  158.5128 C   0  0  0  0  0  0  0  0  0  0  0  0
  151.9805  143.3196  159.7650 C   0  0  0  0  0  0  0  0  0  0  0  0
  152.5657  142.0125  159.2304 C   0  0  0  0  0  0  0  0  0  0  0  0
  146.7971  137.4087  153.6807 C   0  0  0  0  0  0  0  0  0  0  0  0
  146.3048  135.8429  150.9609 H   0  0  0  0  0  0  0  0  0  0  0  0
  144.7245  136.5857  151.1332 H   0  0  0  0  0  0  0  0  0  0  0  0
  145.3033  135.4646  152.3511 H   0  0  0  0  0  0  0  0  0  0  0  0
  146.0559  139.2119  151.0832 H   0  0  0  0  0  0  0  0  0  0  0  0
  147.1583  139.8157  155.6598 H   0  0  0  0  0  0  0  0  0  0  0  0
  148.5693  138.3703  157.0602 H   0  0  0  0  0  0  0  0  0  0  0  0
  149.0134  137.3827  155.6718 H   0  0  0  0  0  0  0  0  0  0  0  0
  147.3536  137.3893  156.2630 H   0  0  0  0  0  0  0  0  0  0  0  0
  149.7549  139.5220  154.1074 H   0  0  0  0  0  0  0  0  0  0  0  0
  148.2890  141.2708  153.1790 H   0  0  0  0  0  0  0  0  0  0  0  0
  149.6408  142.0304  153.9908 H   0  0  0  0  0  0  0  0  0  0  0  0
  148.0636  141.9827  154.7738 H   0  0  0  0  0  0  0  0  0  0  0  0
  149.4671  141.2142  156.4639 H   0  0  0  0  0  0  0  0  0  0  0  0
  151.5060  141.3323  155.2523 H   0  0  0  0  0  0  0  0  0  0  0  0
  152.9125  139.2954  154.9893 H   0  0  0  0  0  0  0  0  0  0  0  0
  151.3603  139.1224  154.1837 H   0  0  0  0  0  0  0  0  0  0  0  0
  151.6434  138.3184  155.7245 H   0  0  0  0  0  0  0  0  0  0  0  0
  151.4151  143.2792  156.4989 H   0  0  0  0  0  0  0  0  0  0  0  0
  150.1128  142.7669  157.5824 H   0  0  0  0  0  0  0  0  0  0  0  0
  152.4169  144.6373  158.1263 H   0  0  0  0  0  0  0  0  0  0  0  0
  150.7548  144.7843  158.6947 H   0  0  0  0  0  0  0  0  0  0  0  0
  152.6843  143.8767  160.3840 H   0  0  0  0  0  0  0  0  0  0  0  0
  151.0993  143.1049  160.3710 H   0  0  0  0  0  0  0  0  0  0  0  0
  152.3875  141.1877  159.9224 H   0  0  0  0  0  0  0  0  0  0  0  0
  153.6429  142.1065  159.0849 H   0  0  0  0  0  0  0  0  0  0  0  0
  146.9223  136.6072  154.3941 H   0  0  0  0  0  0  0  0  0  0  0  0
  1  2  1  0  0  0  0
  1 21  1  0  0  0  0
  1 22  1  0  0  0  0
  1 23  1  0  0  0  0
  2 20  2  0  0  0  0
  2  3  1  0  0  0  0
  3  4  2  0  0  0  0
  3 24  1  0  0  0  0
  4  5  1  0  0  0  0
  5  6  1  0  0  0  0
  5 20  1  0  0  0  0
  6  7  1  0  0  0  0
  6  8  1  0  0  0  0
  6 25  1  0  0  0  0
  7 26  1  0  0  0  0
  7 27  1  0  0  0  0
  7 28  1  0  0  0  0
  8  9  1  0  0  0  0
  8 10  1  0  0  0  0
  8 29  1  0  0  0  0
  9 30  1  0  0  0  0
  9 31  1  0  0  0  0
  9 32  1  0  0  0  0
 10 11  1  0  0  0  0
 10 33  1  0  0  0  0
 11 12  1  0  0  0  0
 11 13  1  0  0  0  0
 11 34  1  0  0  0  0
 12 35  1  0  0  0  0
 12 36  1  0  0  0  0
 12 37  1  0  0  0  0
 13 14  2  0  0  0  0
 13 15  1  0  0  0  0
 15 19  1  0  0  0  0
 15 16  1  0  0  0  0
 16 17  1  0  0  0  0
 16 38  1  0  0  0  0
 16 39  1  0  0  0  0
 17 18  1  0  0  0  0
 17 40  1  0  0  0  0
 17 41  1  0  0  0  0
 18 19  1  0  0  0  0
 18 42  1  0  0  0  0
 18 43  1  0  0  0  0
 19 44  1  0  0  0  0
 19 45  1  0  0  0  0
 20 46  1  0  0  0  0
M  END
> <s_m_source_file>
AV-unprocessed.smi

> <i_m_source_file_index>
3335

> <i_lp_mmshare_version>
43012

> <i_f3d_flags>
0

> <s_epik_input>
W0NIM11jMVtjSF1ubihbY0hdMSlbQ0BIXShbQ0gzXSlbQ0BIXShbQ0gzXSlbTkhdW0NASF0oW0NIM10pQyg9TylOMltDSDJdW0NIMl1bQ0gyXVtDSDJdMg==

> <s_epik_cmdline>
J2VwaWtfcHl0aG9uJywgJy1waCcsICc3LjAnLCAnLXRuJywgJzgnLCAnLW1hJywgJzIwMCcsICctbWV0YWxfYmluZGluZycsICctaW1hZScsICc8aW5maWxlLm1hZT4nLCAnLW9tYWUnLCAnPG91dGZpbGUubWFlPic=

> <r_lp_tautomer_probability>
1

> <r_epik_Ionization_Penalty>
0.918803

> <r_epik_Ionization_Penalty_Charging>
0

> <r_epik_Ionization_Penalty_Neutral>
0.918803

> <r_epik_State_Penalty>
0.958258

> <r_epik_Charging_Adjusted_Penalty>
0.958258

> <i_epik_Tot_Q>
0

> <i_epik_Tot_abs_Q>
0

> <r_epik_Metal_State_Penalty>
0.956786

> <b_epik_Metal_Only>
0

> <s_lp_Force_Field>
OPLS_2005

> <r_lp_Energy>
37.1843

> <b_lp_Chiralities_Consistent>
1

> <s_lp_Variant>
AV-unprocessed.smi:3335-12

> <Gold.Version>
5.8.1

> <Gold.Id.Protein>
6NUR|6NUR_protein|mol2

> <Gold.PLP.Fitness>
38.2954

> <Gold.PLP.PLP>
-34.9550

> <Gold.PLP.part.hbond>
-1.0000

> <Gold.PLP.part.metal>
0.0000

> <Gold.PLP.part.buried>
-0.6205

> <Gold.PLP.part.nonpolar>
-33.8777

> <Gold.PLP.part.repulsive>
0.2587

> <Gold.PLP.ligand.clash>
0.0000

> <Gold.PLP.ligand.torsion>
1.0174

> <Gold.PLP.Chemscore.Hbond>
1.0000

> <Gold.PLP.Chemscore.CHOScore>
0.7595

> <Gold.PLP.Chemscore.Metal>
0.0000

> <Gold.Chemscore.Hbonds>
donor molecule, donor type, donor heavy atom, donor atom, acceptor molecule, acceptor atom, score
      P1  H  7997  8008       L1    14  1.00
      L1  C     3    24       P1 10171  0.80

> <Gold.PLP.Chemscore.Internal.Correction>
0.0968

> <Gold.Rescore>
     Score         DG    S(hbond)    S(metal)    S(lipo)     H(rot)  DE(clash)    DE(int)     intcor
     13.19     -15.40       0.85        0.00      96.09       1.62       0.13       2.08       ----

> <Gold.Chemscore.Fitness>
13.1889

> <Gold.Chemscore.DG>
-15.3999

> <Gold.Chemscore.ZeroCoef>
-5.4800

> <Gold.Chemscore.Hbond>
0.8459

> <Gold.Chemscore.Metal>
0.0000

> <Gold.Chemscore.Lipo>
96.0921

> <Gold.Chemscore.Internal_Hbond>
0.0000

> <Gold.Chemscore.DEClash>
0.1325

> <Gold.Chemscore.DEInternal>
2.0785

> <Gold.Chemscore.Rot>
1.6204

> <Gold.Chemscore.Internal.Correction>
   9.000000E+99

> <Gold.Chemscore.Hbonds>
donor molecule, donor type, donor heavy atom, donor atom, acceptor molecule, acceptor atom, score
      P1  H  7997  8008       L1    14  0.51

> <Gold.Chemscore.Hbond.Weighted>
-2.8253

> <Gold.Chemscore.Metal.Weighted>
-0.0000

> <Gold.Chemscore.Lipo.Weighted>
-11.2428

> <Gold.Chemscore.Internal_Hbond.Weighted>
0.0000

> <Gold.Chemscore.DEClash.Weighted>
0.1325

> <Gold.Chemscore.DEInternal.Weighted>
2.0785

> <Gold.Chemscore.Rot.Weighted>
4.1482

> <Gold.Chemscore.Internal.Correction.Weighted>
   9.000000E+99

> <Gold.Protein.RotatedTorsions>
[ 6907 6896 6895 6894 ] final  -58.86 input  -60.11 | X-H torsion
[ 7974 7965 7964 7962 ] final -167.93 input  175.53 | X-H torsion
[ 8008 7997 7996 7995 ] final  -88.06 input   59.86 | X-H torsion
[ 10167 10162 10161 10158 ] final  179.50 input  -65.29 | X-H torsion
[ 10718 10713 10712 10709 ] final   98.14 input   66.30 | X-H torsion
[ 10763 10752 10751 10750 ] final   26.17 input  -60.55 | X-H torsion
[ 11005 11000 10999 10996 ] final -118.25 input  -57.11 | X-H torsion

> <Gold.Protein.ActiveResidues>
 VAL166  LYS551  ARG553  GLY616  TRP617  ASP618  TYR619  PRO620  LYS621  CYS622 
 ASP623  PHE694  ASN695  SER759  ASP760  ASP761  ALA762  ILE779  LEU786  VAL792 
 PHE793  MET794  SER795  GLU796  ALA797  LYS798  CYS799  TRP800  GLU811  SER814 

> <Gold.Protein.RotatedAtoms>
  150.7974  134.7044  159.6567 H   0  0  0  0  0  0  0  0  0  0  0  0  # atno 6907 bound_to 6896
  152.4088  134.6157  160.0047 H   0  0  0  0  0  0  0  0  0  0  0  0  # atno 6908 bound_to 6896
  151.6407  133.3289  159.3165 H   0  0  0  0  0  0  0  0  0  0  0  0  # atno 6909 bound_to 6896
  144.7213  140.2445  143.6287 H   0  0  0  0  0  0  0  0  0  0  0  0  # atno 7974 bound_to 7965
  154.6704  140.0558  157.0160 H   0  0  0  0  0  0  0  0  0  0  0  0  # atno 8008 bound_to 7997
  155.1096  140.3237  155.4506 H   0  0  0  0  0  0  0  0  0  0  0  0  # atno 8009 bound_to 7997
  156.2655  140.2016  156.6221 H   0  0  0  0  0  0  0  0  0  0  0  0  # atno 8010 bound_to 7997
  139.5339  144.2553  152.0751 H   0  0  0  0  0  0  0  0  0  0  0  0  # atno 10167 bound_to 10162
  157.6901  131.0631  150.4751 H   0  0  0  0  0  0  0  0  0  0  0  0  # atno 10718 bound_to 10713
  153.0641  135.6566  154.0395 H   0  0  0  0  0  0  0  0  0  0  0  0  # atno 10763 bound_to 10752
  154.0055  135.2933  155.3399 H   0  0  0  0  0  0  0  0  0  0  0  0  # atno 10764 bound_to 10752
  154.6992  135.5251  153.8570 H   0  0  0  0  0  0  0  0  0  0  0  0  # atno 10765 bound_to 10752
  141.0299  133.9997  157.3159 H   0  0  0  0  0  0  0  0  0  0  0  0  # atno 11005 bound_to 11000
  145.8288  139.2076  143.1895 LP  0  0  0  0  0  0  0  0  0  0  0  0  # atno 17320 bound_to 7965
  146.0449  140.8127  142.9810 LP  0  0  0  0  0  0  0  0  0  0  0  0  # atno 17321 bound_to 7965
  140.2021  144.4647  150.6426 LP  0  0  0  0  0  0  0  0  0  0  0  0  # atno 17342 bound_to 10162
  140.6534  143.2231  151.6024 LP  0  0  0  0  0  0  0  0  0  0  0  0  # atno 17343 bound_to 10162
  156.5086  130.4134  149.6313 LP  0  0  0  0  0  0  0  0  0  0  0  0  # atno 17370 bound_to 10713
  156.3261  130.7307  151.2228 LP  0  0  0  0  0  0  0  0  0  0  0  0  # atno 17371 bound_to 10713
  139.9201  135.0200  156.8030 LP  0  0  0  0  0  0  0  0  0  0  0  0  # atno 17394 bound_to 11000
  140.6425  133.9805  155.7715 LP  0  0  0  0  0  0  0  0  0  0  0  0  # atno 17395 bound_to 11000

$$$$
