AV-unprocessed.smi:1198|AV-procd|sdf|5010|dock6
  -GOLD-   22720 4 23D 1   1.00000     0.00000
 Structure written by MMmdl.
 40 41  0  0  0  0  0  0  0  0  2 V2000
  151.3667  141.6982  158.1379 C   0  0  0  0  0  0  0  0  0  0  0  0
  151.0830  141.6417  156.7443 O   0  0  0  0  0  0  0  0  0  0  0  0
  150.6952  140.4332  156.2027 C   0  0  0  0  0  0  0  0  0  0  0  0
  150.2400  139.4211  157.0708 C   0  0  0  0  0  0  0  0  0  0  0  0
  149.8410  138.1851  156.5272 C   0  0  0  0  0  0  0  0  0  0  0  0
  149.9177  137.9972  155.1263 C   0  0  0  0  0  0  0  0  0  0  0  0
  149.5249  136.8083  154.4540 N   0  0  0  0  0  0  0  0  0  0  0  0
  149.2464  135.6020  154.9771 C   0  0  0  0  0  0  0  0  0  0  0  0
  149.3431  135.3004  156.1663 O   0  0  0  0  0  0  0  0  0  0  0  0
  148.8564  134.7403  154.0270 N   0  0  0  0  0  0  0  0  0  0  0  0
  148.5013  133.3429  154.2536 C   0  0  0  0  0  0  0  0  0  0  0  0
  148.0505  132.6315  152.9622 C   0  0  2  0  0  0  0  0  0  0  0  0
  146.7768  133.2089  152.3483 C   0  0  0  0  0  0  0  0  0  0  0  0
  146.2324  132.0753  151.4702 C   0  0  0  0  0  0  0  0  0  0  0  0
  146.8670  130.8242  151.9478 N   0  3  2  0  0  0  0  0  0  0  0  0
  145.9303  129.6997  152.1516 C   0  0  0  0  0  0  0  0  0  0  0  0
  147.6838  131.1563  153.1331 C   0  0  0  0  0  0  0  0  0  0  0  0
  150.3762  139.0776  154.3443 C   0  0  0  0  0  0  0  0  0  0  0  0
  150.7605  140.2646  154.8588 N   0  0  0  0  0  0  0  0  0  0  0  0
  151.6564  142.7141  158.4062 H   0  0  0  0  0  0  0  0  0  0  0  0
  152.1930  141.0377  158.4044 H   0  0  0  0  0  0  0  0  0  0  0  0
  150.4914  141.4357  158.7337 H   0  0  0  0  0  0  0  0  0  0  0  0
  150.1927  139.5917  158.1362 H   0  0  0  0  0  0  0  0  0  0  0  0
  149.4735  137.4189  157.1917 H   0  0  0  0  0  0  0  0  0  0  0  0
  149.4888  136.8748  153.4472 H   0  0  0  0  0  0  0  0  0  0  0  0
  148.8170  135.0712  153.0739 H   0  0  0  0  0  0  0  0  0  0  0  0
  149.3735  132.8404  154.6726 H   0  0  0  0  0  0  0  0  0  0  0  0
  147.7180  133.2828  155.0109 H   0  0  0  0  0  0  0  0  0  0  0  0
  148.8426  132.7025  152.2147 H   0  0  0  0  0  0  0  0  0  0  0  0
  146.0548  133.4386  153.1335 H   0  0  0  0  0  0  0  0  0  0  0  0
  146.9581  134.1256  151.7863 H   0  0  0  0  0  0  0  0  0  0  0  0
  145.1431  132.0353  151.5180 H   0  0  0  0  0  0  0  0  0  0  0  0
  146.5115  132.2248  150.4269 H   0  0  0  0  0  0  0  0  0  0  0  0
  145.1869  129.9408  152.9125 H   0  0  0  0  0  0  0  0  0  0  0  0
  146.4707  128.8073  152.4691 H   0  0  0  0  0  0  0  0  0  0  0  0
  145.4084  129.4661  151.2230 H   0  0  0  0  0  0  0  0  0  0  0  0
  148.5598  130.5109  153.2054 H   0  0  0  0  0  0  0  0  0  0  0  0
  147.0910  131.0241  154.0400 H   0  0  0  0  0  0  0  0  0  0  0  0
  150.4401  138.9878  153.2696 H   0  0  0  0  0  0  0  0  0  0  0  0
  147.5153  130.5475  151.2241 H   0  0  0  0  0  0  0  0  0  0  0  0
  1  2  1  0  0  0  0
  1 20  1  0  0  0  0
  1 21  1  0  0  0  0
  1 22  1  0  0  0  0
  2  3  1  0  0  0  0
  3 19  1  0  0  0  0
  3  4  2  0  0  0  0
  4  5  1  0  0  0  0
  4 23  1  0  0  0  0
  5  6  2  0  0  0  0
  5 24  1  0  0  0  0
  6  7  1  0  0  0  0
  6 18  1  0  0  0  0
  7  8  1  0  0  0  0
  7 25  1  0  0  0  0
  8  9  2  0  0  0  0
  8 10  1  0  0  0  0
 10 11  1  0  0  0  0
 10 26  1  0  0  0  0
 11 12  1  0  0  0  0
 11 27  1  0  0  0  0
 11 28  1  0  0  0  0
 12 17  1  0  0  0  0
 12 13  1  0  0  0  0
 12 29  1  0  0  0  0
 13 14  1  0  0  0  0
 13 30  1  0  0  0  0
 13 31  1  0  0  0  0
 14 15  1  0  0  0  0
 14 32  1  0  0  0  0
 14 33  1  0  0  0  0
 15 16  1  0  0  0  0
 15 17  1  0  0  0  0
 15 40  1  0  0  0  0
 16 34  1  0  0  0  0
 16 35  1  0  0  0  0
 16 36  1  0  0  0  0
 17 37  1  0  0  0  0
 17 38  1  0  0  0  0
 18 19  2  0  0  0  0
 18 39  1  0  0  0  0
M  CHG  1  15   1
M  END
> <s_m_source_file>
AV-unprocessed.smi

> <i_m_source_file_index>
1198

> <i_lp_mmshare_version>
43012

> <i_f3d_flags>
0

> <s_epik_input>
W0NIM11PYzFbY0hdW2NIXWMoW2NIXW4xKVtOSF1DKD1PKVtOSF1bQ0gyXVtDQEBIXTJbQ0gyXVtDSDJdTihbQ0gzXSlbQ0gyXTI=

> <s_epik_cmdline>
J2VwaWtfcHl0aG9uJywgJy1waCcsICc3LjAnLCAnLXRuJywgJzgnLCAnLW1hJywgJzIwMCcsICctbWV0YWxfYmluZGluZycsICctaW1hZScsICc8aW5maWxlLm1hZT4nLCAnLW9tYWUnLCAnPG91dGZpbGUubWFlPic=

> <r_lp_tautomer_probability>
1

> <r_epik_Ionization_Penalty>
0.00131396

> <r_epik_Ionization_Penalty_Charging>
0.0012301

> <r_epik_Ionization_Penalty_Neutral>
8.38549e-05

> <r_epik_State_Penalty>
0.00081314

> <r_epik_Charging_Adjusted_Penalty>
0.00204324

> <i_epik_Tot_Q>
1

> <i_epik_Tot_abs_Q>
1

> <r_epik_Metal_State_Penalty>
-0

> <b_epik_Metal_Only>
0

> <s_lp_Force_Field>
OPLS_2005

> <r_lp_Energy>
30.1161

> <b_lp_Chiralities_Consistent>
1

> <s_lp_Variant>
AV-unprocessed.smi:1198-1

> <Gold.Version>
5.8.1

> <Gold.Id.Protein>
6NUR|6NUR_protein|mol2

> <Gold.PLP.Fitness>
43.6586

> <Gold.PLP.PLP>
-29.1894

> <Gold.PLP.part.hbond>
-4.0000

> <Gold.PLP.part.metal>
0.0000

> <Gold.PLP.part.buried>
-3.6766

> <Gold.PLP.part.nonpolar>
-21.6254

> <Gold.PLP.part.repulsive>
0.1646

> <Gold.PLP.ligand.clash>
0.0000

> <Gold.PLP.ligand.torsion>
0.2680

> <Gold.PLP.Chemscore.Hbond>
4.0000

> <Gold.PLP.Chemscore.CHOScore>
1.0000

> <Gold.PLP.Chemscore.Metal>
0.0000

> <Gold.Chemscore.Hbonds>
donor molecule, donor type, donor heavy atom, donor atom, acceptor molecule, acceptor atom, score
      L1  H     7    25       P1  7948  1.00
      L1  H    10    26       P1  7948  1.00
      L1  H    15    40       P1 10747  1.00
      P1  H  7989  7998       L1    19  0.95
      L1  C    18    39       P1  7957  1.00

> <Gold.PLP.Chemscore.Internal.Correction>
0.0051

> <Gold.Rescore>
     Score         DG    S(hbond)    S(metal)    S(lipo)     H(rot)  DE(clash)    DE(int)     intcor
     18.57     -19.99       3.22        0.00      65.19       1.51       0.03       1.38       ----

> <Gold.Chemscore.Fitness>
18.5672

> <Gold.Chemscore.DG>
-19.9867

> <Gold.Chemscore.ZeroCoef>
-5.4800

> <Gold.Chemscore.Hbond>
3.2209

> <Gold.Chemscore.Metal>
0.0000

> <Gold.Chemscore.Lipo>
65.1878

> <Gold.Chemscore.Internal_Hbond>
0.0000

> <Gold.Chemscore.DEClash>
0.0346

> <Gold.Chemscore.DEInternal>
1.3850

> <Gold.Chemscore.Rot>
1.5149

> <Gold.Chemscore.Internal.Correction>
   9.000000E+99

> <Gold.Chemscore.Hbonds>
donor molecule, donor type, donor heavy atom, donor atom, acceptor molecule, acceptor atom, score
      L1  H     7    25       P1  7948  0.81
      L1  H    10    26       P1  7948  0.39
      L1  H    15    40       P1 10747  0.95
      P1  H  7989  7998       L1    19  0.21

> <Gold.Chemscore.Hbond.Weighted>
-10.7578

> <Gold.Chemscore.Metal.Weighted>
-0.0000

> <Gold.Chemscore.Lipo.Weighted>
-7.6270

> <Gold.Chemscore.Internal_Hbond.Weighted>
0.0000

> <Gold.Chemscore.DEClash.Weighted>
0.0346

> <Gold.Chemscore.DEInternal.Weighted>
1.3850

> <Gold.Chemscore.Rot.Weighted>
3.8781

> <Gold.Chemscore.Internal.Correction.Weighted>
   9.000000E+99

> <Gold.Protein.RotatedTorsions>
[ 6907 6896 6895 6894 ] final  149.22 input  -60.11 | X-H torsion
[ 7974 7965 7964 7962 ] final  -35.17 input  175.53 | X-H torsion
[ 8008 7997 7996 7995 ] final   87.08 input   59.86 | X-H torsion
[ 10167 10162 10161 10158 ] final    8.87 input  -65.29 | X-H torsion
[ 10718 10713 10712 10709 ] final  159.19 input   66.30 | X-H torsion
[ 10763 10752 10751 10750 ] final   70.27 input  -60.55 | X-H torsion
[ 11005 11000 10999 10996 ] final   22.58 input  -57.11 | X-H torsion

> <Gold.Protein.ActiveResidues>
 VAL166  LYS551  ARG553  GLY616  TRP617  ASP618  TYR619  PRO620  LYS621  CYS622 
 ASP623  PHE694  ASN695  SER759  ASP760  ASP761  ALA762  ILE779  LEU786  VAL792 
 PHE793  MET794  SER795  GLU796  ALA797  LYS798  CYS799  TRP800  GLU811  SER814 

> <Gold.Protein.RotatedAtoms>
  152.1309  133.4407  159.4720 H   0  0  0  0  0  0  0  0  0  0  0  0  # atno 6907 bound_to 6896
  150.6878  134.2421  159.4486 H   0  0  0  0  0  0  0  0  0  0  0  0  # atno 6908 bound_to 6896
  152.0305  134.9770  160.0623 H   0  0  0  0  0  0  0  0  0  0  0  0  # atno 6909 bound_to 6896
  146.0769  140.6127  142.8926 H   0  0  0  0  0  0  0  0  0  0  0  0  # atno 7974 bound_to 7965
  155.9709  140.3385  155.6575 H   0  0  0  0  0  0  0  0  0  0  0  0  # atno 8008 bound_to 7997
  155.6675  140.0723  157.2550 H   0  0  0  0  0  0  0  0  0  0  0  0  # atno 8009 bound_to 7997
  154.4166  140.1697  156.1831 H   0  0  0  0  0  0  0  0  0  0  0  0  # atno 8010 bound_to 7997
  140.6288  143.8040  150.7268 H   0  0  0  0  0  0  0  0  0  0  0  0  # atno 10167 bound_to 10162
  157.1675  131.0602  151.2200 H   0  0  0  0  0  0  0  0  0  0  0  0  # atno 10718 bound_to 10713
  153.0332  135.5180  154.7416 H   0  0  0  0  0  0  0  0  0  0  0  0  # atno 10763 bound_to 10752
  154.6414  135.2913  155.0101 H   0  0  0  0  0  0  0  0  0  0  0  0  # atno 10764 bound_to 10752
  154.1018  135.6635  153.4922 H   0  0  0  0  0  0  0  0  0  0  0  0  # atno 10765 bound_to 10752
  140.3791  134.1940  155.7664 H   0  0  0  0  0  0  0  0  0  0  0  0  # atno 11005 bound_to 11000
  144.7267  140.4547  143.6968 LP  0  0  0  0  0  0  0  0  0  0  0  0  # atno 17320 bound_to 7965
  145.6290  139.1534  143.2980 LP  0  0  0  0  0  0  0  0  0  0  0  0  # atno 17321 bound_to 7965
  140.1646  143.4246  152.2043 LP  0  0  0  0  0  0  0  0  0  0  0  0  # atno 17342 bound_to 10162
  139.5505  144.7334  151.4450 LP  0  0  0  0  0  0  0  0  0  0  0  0  # atno 17343 bound_to 10162
  157.4074  130.7366  149.6813 LP  0  0  0  0  0  0  0  0  0  0  0  0  # atno 17370 bound_to 10713
  155.9743  130.4104  150.3930 LP  0  0  0  0  0  0  0  0  0  0  0  0  # atno 17371 bound_to 10713
  141.1929  133.8162  157.0819 LP  0  0  0  0  0  0  0  0  0  0  0  0  # atno 17394 bound_to 11000
  140.0492  134.9814  157.1106 LP  0  0  0  0  0  0  0  0  0  0  0  0  # atno 17395 bound_to 11000

$$$$
