AV-unprocessed.smi:658|AV-procd|sdf|3231|dock4
  -GOLD-   22720 0173D 1   1.00000     0.00000
 Structure written by MMmdl.
 38 38  0  0  0  0  0  0  0  0  2 V2000
  143.9738  136.3174  152.2848 C   0  0  0  0  0  0  0  0  0  0  0  0
  145.2262  136.1284  151.4094 C   0  0  1  0  0  0  0  0  0  0  0  0
  146.3673  136.8113  152.0607 N   0  3  0  0  0  0  0  0  0  0  0  0
  146.4227  138.2723  151.8478 C   0  0  0  0  0  0  0  0  0  0  0  0
  147.0457  138.9804  153.0565 C   0  0  0  0  0  0  0  0  0  0  0  0
  147.2096  140.4892  152.8331 C   0  0  0  0  0  0  0  0  0  0  0  0
  148.2033  141.2429  154.1874 S   0  0  0  0  0  0  0  0  0  0  0  0
  147.8359  142.9165  154.0405 N   0  0  0  0  0  0  0  0  0  0  0  0
  147.6662  140.7769  155.4747 O   0  0  0  0  0  0  0  0  0  0  0  0
  149.6287  141.0674  153.8716 O   0  0  0  0  0  0  0  0  0  0  0  0
  145.5624  134.6365  151.1432 C   0  0  2  0  0  0  0  0  0  0  0  0
  144.3136  133.7622  150.9249 C   0  0  0  0  0  0  0  0  0  0  0  0
  146.3795  134.0695  152.2091 N   0  0  0  0  0  0  0  0  0  0  0  0
  147.5120  133.2859  152.1062 C   0  0  0  0  0  0  0  0  0  0  0  0
  147.9187  132.9869  153.3746 C   0  0  0  0  0  0  0  0  0  0  0  0
  146.9580  133.6359  154.1991 C   0  0  0  0  0  0  0  0  0  0  0  0
  146.0380  134.2799  153.4992 N   0  0  0  0  0  0  0  0  0  0  0  0
  143.0769  135.9290  151.8014 H   0  0  0  0  0  0  0  0  0  0  0  0
  143.7933  137.3739  152.4863 H   0  0  0  0  0  0  0  0  0  0  0  0
  144.0807  135.8100  153.2442 H   0  0  0  0  0  0  0  0  0  0  0  0
  145.0195  136.6130  150.4535 H   0  0  0  0  0  0  0  0  0  0  0  0
  146.3041  136.6471  153.0553 H   0  0  0  0  0  0  0  0  0  0  0  0
  147.0029  138.4910  150.9508 H   0  0  0  0  0  0  0  0  0  0  0  0
  145.4123  138.6456  151.6766 H   0  0  0  0  0  0  0  0  0  0  0  0
  146.4264  138.8110  153.9383 H   0  0  0  0  0  0  0  0  0  0  0  0
  148.0199  138.5405  153.2736 H   0  0  0  0  0  0  0  0  0  0  0  0
  147.7158  140.6907  151.8887 H   0  0  0  0  0  0  0  0  0  0  0  0
  146.2395  140.9860  152.8060 H   0  0  0  0  0  0  0  0  0  0  0  0
  148.1549  143.4681  154.8367 H   0  0  0  0  0  0  0  0  0  0  0  0
  146.8709  143.0922  153.7619 H   0  0  0  0  0  0  0  0  0  0  0  0
  146.1518  134.5882  150.2253 H   0  0  0  0  0  0  0  0  0  0  0  0
  143.7618  134.0676  150.0360 H   0  0  0  0  0  0  0  0  0  0  0  0
  143.6327  133.8158  151.7749 H   0  0  0  0  0  0  0  0  0  0  0  0
  144.5887  132.7161  150.7857 H   0  0  0  0  0  0  0  0  0  0  0  0
  147.9308  133.0094  151.1499 H   0  0  0  0  0  0  0  0  0  0  0  0
  148.7719  132.3939  153.6691 H   0  0  0  0  0  0  0  0  0  0  0  0
  146.9018  133.6570  155.2775 H   0  0  0  0  0  0  0  0  0  0  0  0
  147.2240  136.3958  151.7235 H   0  0  0  0  0  0  0  0  0  0  0  0
  1  2  1  0  0  0  0
  1 18  1  0  0  0  0
  1 19  1  0  0  0  0
  1 20  1  0  0  0  0
  2  3  1  0  0  0  0
  2 11  1  0  0  0  0
  2 21  1  0  0  0  0
  3  4  1  0  0  0  0
  3 22  1  0  0  0  0
  3 38  1  0  0  0  0
  4  5  1  0  0  0  0
  4 23  1  0  0  0  0
  4 24  1  0  0  0  0
  5  6  1  0  0  0  0
  5 25  1  0  0  0  0
  5 26  1  0  0  0  0
  6  7  1  0  0  0  0
  6 27  1  0  0  0  0
  6 28  1  0  0  0  0
  7  8  1  0  0  0  0
  7  9  2  0  0  0  0
  7 10  2  0  0  0  0
  8 29  1  0  0  0  0
  8 30  1  0  0  0  0
 11 12  1  0  0  0  0
 11 13  1  0  0  0  0
 11 31  1  0  0  0  0
 12 32  1  0  0  0  0
 12 33  1  0  0  0  0
 12 34  1  0  0  0  0
 13 17  1  0  0  0  0
 13 14  1  0  0  0  0
 14 15  2  0  0  0  0
 14 35  1  0  0  0  0
 15 16  1  0  0  0  0
 15 36  1  0  0  0  0
 16 17  2  0  0  0  0
 16 37  1  0  0  0  0
M  CHG  1   3   1
M  END
> <s_m_source_file>
AV-unprocessed.smi

> <i_m_source_file_index>
658

> <i_lp_mmshare_version>
43012

> <i_f3d_flags>
0

> <s_epik_input>
bjFbY0hdW2NIXVtjSF1uMVtDQEBIXShbQ0gzXSlbQ0BIXShbQ0gzXSlbTkhdW0NIMl1bQ0gyXVtDSDJdUyg9TykoPU8pW05IMl0=

> <s_epik_cmdline>
J2VwaWtfcHl0aG9uJywgJy1waCcsICc3LjAnLCAnLXRuJywgJzgnLCAnLW1hJywgJzIwMCcsICctbWV0YWxfYmluZGluZycsICctaW1hZScsICc8aW5maWxlLm1hZT4nLCAnLW9tYWUnLCAnPG91dGZpbGUubWFlPic=

> <r_lp_tautomer_probability>
1

> <r_epik_Ionization_Penalty>
0.00535781

> <r_epik_Ionization_Penalty_Charging>
0.00511015

> <r_epik_Ionization_Penalty_Neutral>
0.000247661

> <r_epik_State_Penalty>
-0

> <r_epik_Charging_Adjusted_Penalty>
0.00511015

> <i_epik_Tot_Q>
1

> <i_epik_Tot_abs_Q>
1

> <r_epik_Metal_State_Penalty>
0.149106

> <b_epik_Metal_Only>
0

> <s_lp_Force_Field>
OPLS_2005

> <r_lp_Energy>
8.89673

> <b_lp_Chiralities_Consistent>
1

> <s_lp_Variant>
AV-unprocessed.smi:658-2

> <Gold.Version>
5.8.1

> <Gold.Id.Protein>
6NUR|6NUR_protein|mol2

> <Gold.PLP.Fitness>
44.2013

> <Gold.PLP.PLP>
-31.6672

> <Gold.PLP.part.hbond>
-6.0000

> <Gold.PLP.part.metal>
0.0000

> <Gold.PLP.part.buried>
0.1292

> <Gold.PLP.part.nonpolar>
-26.6379

> <Gold.PLP.part.repulsive>
1.8899

> <Gold.PLP.ligand.clash>
0.0000

> <Gold.PLP.ligand.torsion>
1.7410

> <Gold.PLP.Chemscore.Hbond>
4.2256

> <Gold.PLP.Chemscore.CHOScore>
1.0000

> <Gold.PLP.Chemscore.Metal>
0.0000

> <Gold.Chemscore.Hbonds>
donor molecule, donor type, donor heavy atom, donor atom, acceptor molecule, acceptor atom, score
      L1  H     3    38       P1  7948  2.00
      L1  H     8    29       P1  8028  1.00
      P1  H  7989  7998       L1    10  0.37
      P1  H  8011  8017       L1    10  0.86
      L1  C    14    35       P1 10747  0.99

> <Gold.PLP.Chemscore.Internal.Correction>
0.3393

> <Gold.Rescore>
     Score         DG    S(hbond)    S(metal)    S(lipo)     H(rot)  DE(clash)    DE(int)     intcor
      9.73     -13.18       2.77        0.00      55.32       3.13       0.50       2.94       ----

> <Gold.Chemscore.Fitness>
9.7315

> <Gold.Chemscore.DG>
-13.1760

> <Gold.Chemscore.ZeroCoef>
-5.4800

> <Gold.Chemscore.Hbond>
2.7664

> <Gold.Chemscore.Metal>
0.0000

> <Gold.Chemscore.Lipo>
55.3178

> <Gold.Chemscore.Internal_Hbond>
0.0000

> <Gold.Chemscore.DEClash>
0.5028

> <Gold.Chemscore.DEInternal>
2.9417

> <Gold.Chemscore.Rot>
3.1312

> <Gold.Chemscore.Internal.Correction>
   9.000000E+99

> <Gold.Chemscore.Hbonds>
donor molecule, donor type, donor heavy atom, donor atom, acceptor molecule, acceptor atom, score
      L1  H     3    38       P1  7948  0.94
      L1  H     8    29       P1  8028  0.89
      P1  H  7989  7998       L1    10  0.34
      P1  H  8011  8017       L1    10  0.20

> <Gold.Chemscore.Hbond.Weighted>
-9.2398

> <Gold.Chemscore.Metal.Weighted>
-0.0000

> <Gold.Chemscore.Lipo.Weighted>
-6.4722

> <Gold.Chemscore.Internal_Hbond.Weighted>
0.0000

> <Gold.Chemscore.DEClash.Weighted>
0.5028

> <Gold.Chemscore.DEInternal.Weighted>
2.9417

> <Gold.Chemscore.Rot.Weighted>
8.0160

> <Gold.Chemscore.Internal.Correction.Weighted>
   9.000000E+99

> <Gold.Protein.RotatedTorsions>
[ 6907 6896 6895 6894 ] final  151.17 input  -60.11 | X-H torsion
[ 7974 7965 7964 7962 ] final    7.37 input  175.53 | X-H torsion
[ 8008 7997 7996 7995 ] final  -15.73 input   59.86 | X-H torsion
[ 10167 10162 10161 10158 ] final -178.87 input  -65.29 | X-H torsion
[ 10718 10713 10712 10709 ] final  -31.31 input   66.30 | X-H torsion
[ 10763 10752 10751 10750 ] final   12.50 input  -60.55 | X-H torsion
[ 11005 11000 10999 10996 ] final -127.82 input  -57.11 | X-H torsion

> <Gold.Protein.ActiveResidues>
 VAL166  LYS551  ARG553  GLY616  TRP617  ASP618  TYR619  PRO620  LYS621  CYS622 
 ASP623  PHE694  ASN695  SER759  ASP760  ASP761  ALA762  ILE779  LEU786  VAL792 
 PHE793  MET794  SER795  GLU796  ALA797  LYS798  CYS799  TRP800  GLU811  SER814 

> <Gold.Protein.RotatedAtoms>
  152.1044  133.4267  159.4601 H   0  0  0  0  0  0  0  0  0  0  0  0  # atno 6907 bound_to 6896
  150.6865  134.2723  159.4602 H   0  0  0  0  0  0  0  0  0  0  0  0  # atno 6908 bound_to 6896
  152.0586  134.9608  160.0625 H   0  0  0  0  0  0  0  0  0  0  0  0  # atno 6909 bound_to 6896
  146.2427  140.0093  142.8408 H   0  0  0  0  0  0  0  0  0  0  0  0  # atno 7974 bound_to 7965
  154.5108  140.2188  155.9161 H   0  0  0  0  0  0  0  0  0  0  0  0  # atno 8008 bound_to 7997
  156.1549  140.3154  155.8676 H   0  0  0  0  0  0  0  0  0  0  0  0  # atno 8009 bound_to 7997
  155.3866  140.0475  157.3033 H   0  0  0  0  0  0  0  0  0  0  0  0  # atno 8010 bound_to 7997
  139.5412  144.2358  152.0899 H   0  0  0  0  0  0  0  0  0  0  0  0  # atno 10167 bound_to 10162
  156.3889  130.4369  149.7410 H   0  0  0  0  0  0  0  0  0  0  0  0  # atno 10718 bound_to 10713
  153.1816  135.6828  153.8471 H   0  0  0  0  0  0  0  0  0  0  0  0  # atno 10763 bound_to 10752
  153.7801  135.3183  155.3365 H   0  0  0  0  0  0  0  0  0  0  0  0  # atno 10764 bound_to 10752
  154.8063  135.4746  154.0495 H   0  0  0  0  0  0  0  0  0  0  0  0  # atno 10765 bound_to 10752
  140.9568  134.0991  157.4008 H   0  0  0  0  0  0  0  0  0  0  0  0  # atno 11005 bound_to 11000
  145.1342  140.9535  143.4526 LP  0  0  0  0  0  0  0  0  0  0  0  0  # atno 17320 bound_to 7965
  145.0358  139.3302  143.6002 LP  0  0  0  0  0  0  0  0  0  0  0  0  # atno 17321 bound_to 7965
  140.1837  144.4820  150.6515 LP  0  0  0  0  0  0  0  0  0  0  0  0  # atno 17342 bound_to 10162
  140.6643  143.2262  151.5782 LP  0  0  0  0  0  0  0  0  0  0  0  0  # atno 17343 bound_to 10162
  156.4472  130.7889  151.2910 LP  0  0  0  0  0  0  0  0  0  0  0  0  # atno 17370 bound_to 10713
  157.7497  131.0107  150.3315 LP  0  0  0  0  0  0  0  0  0  0  0  0  # atno 17371 bound_to 10713
  139.8865  135.0081  156.6500 LP  0  0  0  0  0  0  0  0  0  0  0  0  # atno 17394 bound_to 11000
  140.7525  133.8885  155.8357 LP  0  0  0  0  0  0  0  0  0  0  0  0  # atno 17395 bound_to 11000

$$$$
