AV-unprocessed.smi:716|AV-procd|sdf|3487|dock2
  -GOLD-   22720 0483D 1   1.00000     0.00000
 Structure written by MMmdl.
 48 50  0  0  0  0  0  0  0  0  1 V2000
  152.1185  144.7471  159.0456 C   0  0  0  0  0  0  0  0  0  0  0  0
  152.4909  143.4561  158.3137 C   0  0  0  0  0  0  0  0  0  0  0  0
  152.0597  142.3492  159.0882 O   0  0  0  0  0  0  0  0  0  0  0  0
  152.0763  141.1242  158.3712 C   0  0  1  0  0  0  0  0  0  0  0  0
  151.6304  139.9483  159.2430 C   0  0  0  0  0  0  0  0  0  0  0  0
  150.9900  139.3921  157.9721 C   0  0  1  0  0  0  0  0  0  0  0  0
  149.7336  138.6980  158.2314 N   0  0  0  0  0  0  0  0  0  0  0  0
  149.6412  137.4860  158.7958 C   0  0  0  0  0  0  0  0  0  0  0  0
  150.6241  136.8383  159.1601 O   0  0  0  0  0  0  0  0  0  0  0  0
  148.2186  136.9283  158.9473 C   0  0  0  0  0  0  0  0  0  0  0  0
  147.9751  136.2768  160.2424 N   0  0  0  0  0  0  0  0  0  0  0  0
  147.7043  137.1590  161.2757 N   0  0  0  0  0  0  0  0  0  0  0  0
  147.4540  136.7306  162.4693 C   0  0  0  0  0  0  0  0  0  0  0  0
  147.1693  137.7545  163.5277 C   0  0  0  0  0  0  0  0  0  0  0  0
  147.4592  135.3042  162.7324 C   0  0  0  0  0  0  0  0  0  0  0  0
  147.7260  134.4464  161.7242 C   0  0  0  0  0  0  0  0  0  0  0  0
  148.0093  134.9169  160.3699 C   0  0  0  0  0  0  0  0  0  0  0  0
  148.2530  134.1614  159.4294 O   0  0  0  0  0  0  0  0  0  0  0  0
  150.8469  140.8538  157.4636 C   0  0  0  0  0  0  0  0  0  0  0  0
  150.9996  141.0760  155.9601 C   0  0  0  0  0  0  0  0  0  0  0  0
  149.5959  141.2190  155.3599 C   0  0  0  0  0  0  0  0  0  0  0  0
  148.6524  141.4985  156.5327 C   0  0  0  0  0  0  0  0  0  0  0  0
  149.5483  141.6169  157.7670 C   0  0  0  0  0  0  0  0  0  0  0  0
  152.4457  145.6217  158.4828 H   0  0  0  0  0  0  0  0  0  0  0  0
  152.5861  144.7879  160.0296 H   0  0  0  0  0  0  0  0  0  0  0  0
  151.0394  144.8219  159.1829 H   0  0  0  0  0  0  0  0  0  0  0  0
  152.0205  143.4417  157.3305 H   0  0  0  0  0  0  0  0  0  0  0  0
  153.5709  143.4117  158.1652 H   0  0  0  0  0  0  0  0  0  0  0  0
  153.0308  140.9182  157.8807 H   0  0  0  0  0  0  0  0  0  0  0  0
  152.4432  139.3447  159.6478 H   0  0  0  0  0  0  0  0  0  0  0  0
  150.9113  140.2324  160.0138 H   0  0  0  0  0  0  0  0  0  0  0  0
  151.7077  138.8087  157.3896 H   0  0  0  0  0  0  0  0  0  0  0  0
  148.8825  139.1664  157.9561 H   0  0  0  0  0  0  0  0  0  0  0  0
  147.5008  137.7348  158.7873 H   0  0  0  0  0  0  0  0  0  0  0  0
  148.0439  136.2181  158.1370 H   0  0  0  0  0  0  0  0  0  0  0  0
  146.9956  137.2838  164.4957 H   0  0  0  0  0  0  0  0  0  0  0  0
  146.2823  138.3367  163.2755 H   0  0  0  0  0  0  0  0  0  0  0  0
  148.0074  138.4433  163.6376 H   0  0  0  0  0  0  0  0  0  0  0  0
  147.2508  134.9401  163.7277 H   0  0  0  0  0  0  0  0  0  0  0  0
  147.7295  133.3844  161.9211 H   0  0  0  0  0  0  0  0  0  0  0  0
  151.5665  141.9875  155.7707 H   0  0  0  0  0  0  0  0  0  0  0  0
  151.5481  140.2665  155.4775 H   0  0  0  0  0  0  0  0  0  0  0  0
  149.5670  142.0209  154.6215 H   0  0  0  0  0  0  0  0  0  0  0  0
  149.2995  140.3000  154.8532 H   0  0  0  0  0  0  0  0  0  0  0  0
  148.0607  142.4011  156.3772 H   0  0  0  0  0  0  0  0  0  0  0  0
  147.9546  140.6688  156.6515 H   0  0  0  0  0  0  0  0  0  0  0  0
  149.0411  141.2626  158.6647 H   0  0  0  0  0  0  0  0  0  0  0  0
  149.7632  142.6721  157.9359 H   0  0  0  0  0  0  0  0  0  0  0  0
  1  2  1  0  0  0  0
  1 24  1  0  0  0  0
  1 25  1  0  0  0  0
  1 26  1  0  0  0  0
  2  3  1  0  0  0  0
  2 27  1  0  0  0  0
  2 28  1  0  0  0  0
  3  4  1  0  0  0  0
  4 19  1  0  0  0  0
  4  5  1  0  0  0  0
  4 29  1  0  0  0  0
  5  6  1  0  0  0  0
  5 30  1  0  0  0  0
  5 31  1  0  0  0  0
  6  7  1  0  0  0  0
  6 19  1  0  0  0  0
  6 32  1  0  0  0  0
  7  8  1  0  0  0  0
  7 33  1  0  0  0  0
  8  9  2  0  0  0  0
  8 10  1  0  0  0  0
 10 11  1  0  0  0  0
 10 34  1  0  0  0  0
 10 35  1  0  0  0  0
 11 17  1  0  0  0  0
 11 12  1  0  0  0  0
 12 13  2  0  0  0  0
 13 14  1  0  0  0  0
 13 15  1  0  0  0  0
 14 36  1  0  0  0  0
 14 37  1  0  0  0  0
 14 38  1  0  0  0  0
 15 16  2  0  0  0  0
 15 39  1  0  0  0  0
 16 17  1  0  0  0  0
 16 40  1  0  0  0  0
 17 18  2  0  0  0  0
 19 23  1  0  0  0  0
 19 20  1  0  0  0  0
 20 21  1  0  0  0  0
 20 41  1  0  0  0  0
 20 42  1  0  0  0  0
 21 22  1  0  0  0  0
 21 43  1  0  0  0  0
 21 44  1  0  0  0  0
 22 23  1  0  0  0  0
 22 45  1  0  0  0  0
 22 46  1  0  0  0  0
 23 47  1  0  0  0  0
 23 48  1  0  0  0  0
M  END
> <s_m_source_file>
AV-unprocessed.smi

> <i_m_source_file_index>
716

> <i_lp_mmshare_version>
43012

> <i_f3d_flags>
0

> <s_epik_input>
W0NIMl0xW0NIMl1bQ0gyXVtDSDJdQzEyW0NASF0oT1tDSDJdW0NIM10pW0NIMl1bQ0BIXTJbTkhdQyg9TylbQ0gyXW4zbmMoW0NIM10pW2NIXVtjSF1jMz1P

> <s_epik_cmdline>
J2VwaWtfcHl0aG9uJywgJy1waCcsICc3LjAnLCAnLXRuJywgJzgnLCAnLW1hJywgJzIwMCcsICctbWV0YWxfYmluZGluZycsICctaW1hZScsICc8aW5maWxlLm1hZT4nLCAnLW9tYWUnLCAnPG91dGZpbGUubWFlPic=

> <r_lp_tautomer_probability>
1

> <r_epik_Ionization_Penalty>
4.75561e-08

> <r_epik_Ionization_Penalty_Charging>
2.86617e-08

> <r_epik_Ionization_Penalty_Neutral>
1.88944e-08

> <r_epik_State_Penalty>
-0

> <r_epik_Charging_Adjusted_Penalty>
2.86617e-08

> <i_epik_Tot_Q>
0

> <i_epik_Tot_abs_Q>
0

> <r_epik_Metal_State_Penalty>
-0

> <b_epik_Metal_Only>
0

> <s_lp_Force_Field>
OPLS_2005

> <r_lp_Energy>
50.2142

> <b_lp_Chiralities_Consistent>
1

> <s_lp_Variant>
AV-unprocessed.smi:716-2

> <Gold.Version>
5.8.1

> <Gold.Id.Protein>
6NUR|6NUR_protein|mol2

> <Gold.PLP.Fitness>
51.5772

> <Gold.PLP.PLP>
-45.3261

> <Gold.PLP.part.hbond>
-3.2685

> <Gold.PLP.part.metal>
0.0000

> <Gold.PLP.part.buried>
-5.2485

> <Gold.PLP.part.nonpolar>
-37.5767

> <Gold.PLP.part.repulsive>
0.1586

> <Gold.PLP.ligand.clash>
0.0000

> <Gold.PLP.ligand.torsion>
0.7750

> <Gold.PLP.Chemscore.Hbond>
2.4824

> <Gold.PLP.Chemscore.CHOScore>
0.0000

> <Gold.PLP.Chemscore.Metal>
0.0000

> <Gold.Chemscore.Hbonds>
donor molecule, donor type, donor heavy atom, donor atom, acceptor molecule, acceptor atom, score
      P1  H  6896  6909       L1     9  1.00
      P1  H  6931  6943       L1    12  0.54
      P1  H  6934  6947       L1    12  0.83

> <Gold.PLP.Chemscore.Internal.Correction>
0.3539

> <Gold.Rescore>
     Score         DG    S(hbond)    S(metal)    S(lipo)     H(rot)  DE(clash)    DE(int)     intcor
     18.87     -20.06       1.87        0.00     109.15       1.73       0.47       0.72       ----

> <Gold.Chemscore.Fitness>
18.8740

> <Gold.Chemscore.DG>
-20.0552

> <Gold.Chemscore.ZeroCoef>
-5.4800

> <Gold.Chemscore.Hbond>
1.8701

> <Gold.Chemscore.Metal>
0.0000

> <Gold.Chemscore.Lipo>
109.1476

> <Gold.Chemscore.Internal_Hbond>
0.0000

> <Gold.Chemscore.DEClash>
0.4653

> <Gold.Chemscore.DEInternal>
0.7158

> <Gold.Chemscore.Rot>
1.7348

> <Gold.Chemscore.Internal.Correction>
   9.000000E+99

> <Gold.Chemscore.Hbonds>
donor molecule, donor type, donor heavy atom, donor atom, acceptor molecule, acceptor atom, score
      P1  H  6896  6909       L1     9  0.91
      P1  H  6931  6943       L1    12  0.03
      P1  H  6934  6947       L1    12  0.74

> <Gold.Chemscore.Hbond.Weighted>
-6.2460

> <Gold.Chemscore.Metal.Weighted>
-0.0000

> <Gold.Chemscore.Lipo.Weighted>
-12.7703

> <Gold.Chemscore.Internal_Hbond.Weighted>
0.0000

> <Gold.Chemscore.DEClash.Weighted>
0.4653

> <Gold.Chemscore.DEInternal.Weighted>
0.7158

> <Gold.Chemscore.Rot.Weighted>
4.4411

> <Gold.Chemscore.Internal.Correction.Weighted>
   9.000000E+99

> <Gold.Protein.RotatedTorsions>
[ 6907 6896 6895 6894 ] final   74.90 input  -60.11 | X-H torsion
[ 7974 7965 7964 7962 ] final  -35.07 input  175.53 | X-H torsion
[ 8008 7997 7996 7995 ] final  160.71 input   59.86 | X-H torsion
[ 10167 10162 10161 10158 ] final -108.47 input  -65.29 | X-H torsion
[ 10718 10713 10712 10709 ] final  -38.47 input   66.30 | X-H torsion
[ 10763 10752 10751 10750 ] final  -55.37 input  -60.55 | X-H torsion
[ 11005 11000 10999 10996 ] final  -35.20 input  -57.11 | X-H torsion

> <Gold.Protein.ActiveResidues>
 VAL166  LYS551  ARG553  GLY616  TRP617  ASP618  TYR619  PRO620  LYS621  CYS622 
 ASP623  PHE694  ASN695  SER759  ASP760  ASP761  ALA762  ILE779  LEU786  VAL792 
 PHE793  MET794  SER795  GLU796  ALA797  LYS798  CYS799  TRP800  GLU811  SER814 

> <Gold.Protein.RotatedAtoms>
  152.4999  134.4201  159.9477 H   0  0  0  0  0  0  0  0  0  0  0  0  # atno 6907 bound_to 6896
  151.4174  133.3702  159.2759 H   0  0  0  0  0  0  0  0  0  0  0  0  # atno 6908 bound_to 6896
  150.9247  134.8687  159.7572 H   0  0  0  0  0  0  0  0  0  0  0  0  # atno 6909 bound_to 6896
  146.0777  140.6115  142.8923 H   0  0  0  0  0  0  0  0  0  0  0  0  # atno 7974 bound_to 7965
  156.2153  140.1797  156.7602 H   0  0  0  0  0  0  0  0  0  0  0  0  # atno 8008 bound_to 7997
  154.5783  140.0670  156.9095 H   0  0  0  0  0  0  0  0  0  0  0  0  # atno 8009 bound_to 7997
  155.2549  140.3331  155.4281 H   0  0  0  0  0  0  0  0  0  0  0  0  # atno 8010 bound_to 7997
  140.1657  143.4083  152.1392 H   0  0  0  0  0  0  0  0  0  0  0  0  # atno 10167 bound_to 10162
  156.3034  130.4243  149.8120 H   0  0  0  0  0  0  0  0  0  0  0  0  # atno 10718 bound_to 10713
  154.1897  135.6429  153.5056 H   0  0  0  0  0  0  0  0  0  0  0  0  # atno 10763 bound_to 10752
  153.0038  135.5426  154.6428 H   0  0  0  0  0  0  0  0  0  0  0  0  # atno 10764 bound_to 10752
  154.5813  135.2925  155.0702 H   0  0  0  0  0  0  0  0  0  0  0  0  # atno 10765 bound_to 10752
  140.9777  133.7074  156.1630 H   0  0  0  0  0  0  0  0  0  0  0  0  # atno 11005 bound_to 11000
  144.7272  140.4562  143.6964 LP  0  0  0  0  0  0  0  0  0  0  0  0  # atno 17320 bound_to 7965
  145.6275  139.1532  143.2987 LP  0  0  0  0  0  0  0  0  0  0  0  0  # atno 17321 bound_to 7965
  139.5360  144.7210  151.4891 LP  0  0  0  0  0  0  0  0  0  0  0  0  # atno 17342 bound_to 10162
  140.6614  143.8490  150.6892 LP  0  0  0  0  0  0  0  0  0  0  0  0  # atno 17343 bound_to 10162
  156.5490  130.8333  151.3293 LP  0  0  0  0  0  0  0  0  0  0  0  0  # atno 17370 bound_to 10713
  157.7373  130.9794  150.2189 LP  0  0  0  0  0  0  0  0  0  0  0  0  # atno 17371 bound_to 10713
  140.7234  134.4334  157.5573 LP  0  0  0  0  0  0  0  0  0  0  0  0  # atno 17394 bound_to 11000
  139.8937  134.8724  156.2210 LP  0  0  0  0  0  0  0  0  0  0  0  0  # atno 17395 bound_to 11000

$$$$
