AV-unprocessed.smi:2087|AV-procd|sdf|8520|dock3
  -GOLD-   2272011233D 1   1.00000     0.00000
 Structure written by MMmdl.
 51 52  0  0  0  0  0  0  0  0  2 V2000
  145.1894  135.0270  150.4483 C   0  0  0  0  0  0  0  0  0  0  0  0
  146.3555  134.5121  151.3048 C   0  0  0  0  0  0  0  0  0  0  0  0
  146.3626  132.9740  151.3310 C   0  0  0  0  0  0  0  0  0  0  0  0
  146.2910  135.1137  152.7257 C   0  0  0  0  0  0  0  0  0  0  0  0
  146.8229  136.4987  152.7975 N   0  3  1  0  0  0  0  0  0  0  0  0
  146.0850  137.4684  151.9504 C   0  0  0  0  0  0  0  0  0  0  0  0
  146.7234  138.8635  152.0519 C   0  0  0  0  0  0  0  0  0  0  0  0
  146.7626  139.2663  153.4137 O   0  0  0  0  0  0  0  0  0  0  0  0
  147.5602  138.3990  154.2141 C   0  0  1  0  0  0  0  0  0  0  0  0
  147.6536  138.9763  155.6385 C   0  0  0  0  0  0  0  0  0  0  0  0
  148.9507  139.6064  155.8546 N   0  0  0  0  0  0  0  0  0  0  0  0
  149.1371  140.9041  156.1369 C   0  0  0  0  0  0  0  0  0  0  0  0
  148.2158  141.6864  156.3719 O   0  0  0  0  0  0  0  0  0  0  0  0
  150.5893  141.3965  156.1346 C   0  0  0  0  0  0  0  0  0  0  0  0
  150.9447  142.0721  157.3897 N   0  0  0  0  0  0  0  0  0  0  0  0
  150.2770  143.2241  157.7632 C   0  0  0  0  0  0  0  0  0  0  0  0
  150.5479  143.9080  158.8964 C   0  0  0  0  0  0  0  0  0  0  0  0
  151.5922  143.4610  159.8104 C   0  0  0  0  0  0  0  0  0  0  0  0
  151.8596  144.0452  160.8608 O   0  0  0  0  0  0  0  0  0  0  0  0
  152.2702  142.2889  159.3976 N   0  0  0  0  0  0  0  0  0  0  0  0
  153.3213  141.7603  160.2423 C   0  0  0  0  0  0  0  0  0  0  0  0
  151.9676  141.5658  158.2227 C   0  0  0  0  0  0  0  0  0  0  0  0
  152.5665  140.5285  157.9247 O   0  0  0  0  0  0  0  0  0  0  0  0
  146.9208  136.9980  154.1900 C   0  0  0  0  0  0  0  0  0  0  0  0
  144.2274  134.7225  150.8619 H   0  0  0  0  0  0  0  0  0  0  0  0
  145.2500  134.6422  149.4298 H   0  0  0  0  0  0  0  0  0  0  0  0
  145.1958  136.1156  150.3872 H   0  0  0  0  0  0  0  0  0  0  0  0
  147.2717  134.8434  150.8169 H   0  0  0  0  0  0  0  0  0  0  0  0
  145.4671  132.5811  151.8132 H   0  0  0  0  0  0  0  0  0  0  0  0
  147.2282  132.5857  151.8683 H   0  0  0  0  0  0  0  0  0  0  0  0
  146.4005  132.5660  150.3205 H   0  0  0  0  0  0  0  0  0  0  0  0
  145.2671  135.1027  153.1026 H   0  0  0  0  0  0  0  0  0  0  0  0
  146.8666  134.4711  153.3940 H   0  0  0  0  0  0  0  0  0  0  0  0
  146.0875  137.1497  150.9087 H   0  0  0  0  0  0  0  0  0  0  0  0
  145.0422  137.5139  152.2689 H   0  0  0  0  0  0  0  0  0  0  0  0
  147.7290  138.8674  151.6283 H   0  0  0  0  0  0  0  0  0  0  0  0
  146.1378  139.5886  151.4866 H   0  0  0  0  0  0  0  0  0  0  0  0
  148.5667  138.3427  153.7943 H   0  0  0  0  0  0  0  0  0  0  0  0
  146.8379  139.6755  155.8310 H   0  0  0  0  0  0  0  0  0  0  0  0
  147.5522  138.1737  156.3694 H   0  0  0  0  0  0  0  0  0  0  0  0
  149.7679  139.0355  155.6936 H   0  0  0  0  0  0  0  0  0  0  0  0
  151.2405  140.5383  155.9637 H   0  0  0  0  0  0  0  0  0  0  0  0
  150.7608  142.0732  155.2953 H   0  0  0  0  0  0  0  0  0  0  0  0
  149.4963  143.6007  157.1182 H   0  0  0  0  0  0  0  0  0  0  0  0
  149.9846  144.7995  159.1298 H   0  0  0  0  0  0  0  0  0  0  0  0
  154.1484  141.4411  159.6051 H   0  0  0  0  0  0  0  0  0  0  0  0
  152.8933  140.9215  160.7933 H   0  0  0  0  0  0  0  0  0  0  0  0
  153.6918  142.5285  160.9211 H   0  0  0  0  0  0  0  0  0  0  0  0
  145.9273  137.0253  154.6411 H   0  0  0  0  0  0  0  0  0  0  0  0
  147.5248  136.3108  154.7839 H   0  0  0  0  0  0  0  0  0  0  0  0
  147.7692  136.4596  152.4463 H   0  0  0  0  0  0  0  0  0  0  0  0
  1  2  1  0  0  0  0
  1 25  1  0  0  0  0
  1 26  1  0  0  0  0
  1 27  1  0  0  0  0
  2  3  1  0  0  0  0
  2  4  1  0  0  0  0
  2 28  1  0  0  0  0
  3 29  1  0  0  0  0
  3 30  1  0  0  0  0
  3 31  1  0  0  0  0
  4  5  1  0  0  0  0
  4 32  1  0  0  0  0
  4 33  1  0  0  0  0
  5 24  1  0  0  0  0
  5  6  1  0  0  0  0
  5 51  1  0  0  0  0
  6  7  1  0  0  0  0
  6 34  1  0  0  0  0
  6 35  1  0  0  0  0
  7  8  1  0  0  0  0
  7 36  1  0  0  0  0
  7 37  1  0  0  0  0
  8  9  1  0  0  0  0
  9 10  1  0  0  0  0
  9 24  1  0  0  0  0
  9 38  1  0  0  0  0
 10 11  1  0  0  0  0
 10 39  1  0  0  0  0
 10 40  1  0  0  0  0
 11 12  1  0  0  0  0
 11 41  1  0  0  0  0
 12 13  2  0  0  0  0
 12 14  1  0  0  0  0
 14 15  1  0  0  0  0
 14 42  1  0  0  0  0
 14 43  1  0  0  0  0
 15 22  1  0  0  0  0
 15 16  1  0  0  0  0
 16 17  2  0  0  0  0
 16 44  1  0  0  0  0
 17 18  1  0  0  0  0
 17 45  1  0  0  0  0
 18 19  2  0  0  0  0
 18 20  1  0  0  0  0
 20 21  1  0  0  0  0
 20 22  1  0  0  0  0
 21 46  1  0  0  0  0
 21 47  1  0  0  0  0
 21 48  1  0  0  0  0
 22 23  2  0  0  0  0
 24 49  1  0  0  0  0
 24 50  1  0  0  0  0
M  CHG  1   5   1
M  END
> <s_m_source_file>
AV-unprocessed.smi

> <i_m_source_file_index>
2087

> <i_lp_mmshare_version>
43012

> <i_f3d_flags>
0

> <s_epik_input>
W0NIM11bQ0hdKFtDSDNdKVtDSDJdTjFbQ0gyXVtDSDJdT1tDQEhdKFtDSDJdMSlbQ0gyXVtOSF1DKD1PKVtDSDJdbjJbY0hdW2NIXWMoPU8pbihbQ0gzXSljMj1P

> <s_epik_cmdline>
J2VwaWtfcHl0aG9uJywgJy1waCcsICc3LjAnLCAnLXRuJywgJzgnLCAnLW1hJywgJzIwMCcsICctbWV0YWxfYmluZGluZycsICctaW1hZScsICc8aW5maWxlLm1hZT4nLCAnLW9tYWUnLCAnPG91dGZpbGUubWFlPic=

> <r_lp_tautomer_probability>
1

> <r_epik_Ionization_Penalty>
0.097593

> <r_epik_Ionization_Penalty_Charging>
0.097593

> <r_epik_Ionization_Penalty_Neutral>
6.27044e-08

> <r_epik_State_Penalty>
0.0877056

> <r_epik_Charging_Adjusted_Penalty>
0.185299

> <i_epik_Tot_Q>
1

> <i_epik_Tot_abs_Q>
1

> <r_epik_Metal_State_Penalty>
0.0877109

> <b_epik_Metal_Only>
0

> <s_lp_Force_Field>
OPLS_2005

> <r_lp_Energy>
25.8425

> <b_lp_Chiralities_Consistent>
1

> <s_lp_Variant>
AV-unprocessed.smi:2087-1

> <Gold.Version>
5.8.1

> <Gold.Id.Protein>
6NUR|6NUR_protein|mol2

> <Gold.PLP.Fitness>
50.6729

> <Gold.PLP.PLP>
-40.4127

> <Gold.PLP.part.hbond>
-2.0000

> <Gold.PLP.part.metal>
0.0000

> <Gold.PLP.part.buried>
-3.6757

> <Gold.PLP.part.nonpolar>
-35.5608

> <Gold.PLP.part.repulsive>
0.4409

> <Gold.PLP.ligand.clash>
0.0000

> <Gold.PLP.ligand.torsion>
0.8832

> <Gold.PLP.Chemscore.Hbond>
2.9120

> <Gold.PLP.Chemscore.CHOScore>
1.0000

> <Gold.PLP.Chemscore.Metal>
0.0000

> <Gold.Chemscore.Hbonds>
donor molecule, donor type, donor heavy atom, donor atom, acceptor molecule, acceptor atom, score
      L1  H     5    51       P1  7948  1.01
      P1  H  7997  8008       L1    23  0.30
      L1  C    16    44       P1  8028  0.74

> <Gold.PLP.Chemscore.Internal.Correction>
0.2906

> <Gold.Rescore>
     Score         DG    S(hbond)    S(metal)    S(lipo)     H(rot)  DE(clash)    DE(int)     intcor
     10.98     -12.45       0.99        0.00      79.97       2.22       0.03       1.44       ----

> <Gold.Chemscore.Fitness>
10.9808

> <Gold.Chemscore.DG>
-12.4538

> <Gold.Chemscore.ZeroCoef>
-5.4800

> <Gold.Chemscore.Hbond>
0.9918

> <Gold.Chemscore.Metal>
0.0000

> <Gold.Chemscore.Lipo>
79.9742

> <Gold.Chemscore.Internal_Hbond>
0.0000

> <Gold.Chemscore.DEClash>
0.0344

> <Gold.Chemscore.DEInternal>
1.4386

> <Gold.Chemscore.Rot>
2.2249

> <Gold.Chemscore.Internal.Correction>
   9.000000E+99

> <Gold.Chemscore.Hbonds>
donor molecule, donor type, donor heavy atom, donor atom, acceptor molecule, acceptor atom, score
      L1  H     5    51       P1  7948  0.52
      P1  H  7997  8008       L1    23  0.31

> <Gold.Chemscore.Hbond.Weighted>
-3.3125

> <Gold.Chemscore.Metal.Weighted>
-0.0000

> <Gold.Chemscore.Lipo.Weighted>
-9.3570

> <Gold.Chemscore.Internal_Hbond.Weighted>
0.0000

> <Gold.Chemscore.DEClash.Weighted>
0.0344

> <Gold.Chemscore.DEInternal.Weighted>
1.4386

> <Gold.Chemscore.Rot.Weighted>
5.6957

> <Gold.Chemscore.Internal.Correction.Weighted>
   9.000000E+99

> <Gold.Protein.RotatedTorsions>
[ 6907 6896 6895 6894 ] final  -84.78 input  -60.11 | X-H torsion
[ 7974 7965 7964 7962 ] final -143.42 input  175.53 | X-H torsion
[ 8008 7997 7996 7995 ] final  -57.11 input   59.86 | X-H torsion
[ 10167 10162 10161 10158 ] final -179.64 input  -65.29 | X-H torsion
[ 10718 10713 10712 10709 ] final -103.83 input   66.30 | X-H torsion
[ 10763 10752 10751 10750 ] final -113.47 input  -60.55 | X-H torsion
[ 11005 11000 10999 10996 ] final  115.31 input  -57.11 | X-H torsion

> <Gold.Protein.ActiveResidues>
 VAL166  LYS551  ARG553  GLY616  TRP617  ASP618  TYR619  PRO620  LYS621  CYS622 
 ASP623  PHE694  ASN695  SER759  ASP760  ASP761  ALA762  ILE779  LEU786  VAL792 
 PHE793  MET794  SER795  GLU796  ALA797  LYS798  CYS799  TRP800  GLU811  SER814 

> <Gold.Protein.RotatedAtoms>
  150.6874  134.3305  159.4824 H   0  0  0  0  0  0  0  0  0  0  0  0  # atno 6907 bound_to 6896
  152.1170  134.9230  160.0574 H   0  0  0  0  0  0  0  0  0  0  0  0  # atno 6908 bound_to 6896
  152.0451  133.3959  159.4390 H   0  0  0  0  0  0  0  0  0  0  0  0  # atno 6909 bound_to 6896
  144.8371  140.5837  143.5477 H   0  0  0  0  0  0  0  0  0  0  0  0  # atno 7974 bound_to 7965
  154.4255  140.1114  156.5745 H   0  0  0  0  0  0  0  0  0  0  0  0  # atno 8008 bound_to 7997
  155.6177  140.3495  155.4623 H   0  0  0  0  0  0  0  0  0  0  0  0  # atno 8009 bound_to 7997
  156.0049  140.1207  157.0501 H   0  0  0  0  0  0  0  0  0  0  0  0  # atno 8010 bound_to 7997
  139.5377  144.2451  152.0829 H   0  0  0  0  0  0  0  0  0  0  0  0  # atno 10167 bound_to 10162
  156.0280  130.5486  150.7310 H   0  0  0  0  0  0  0  0  0  0  0  0  # atno 10718 bound_to 10713
  154.8398  135.4453  154.1355 H   0  0  0  0  0  0  0  0  0  0  0  0  # atno 10763 bound_to 10752
  153.2554  135.6931  153.7641 H   0  0  0  0  0  0  0  0  0  0  0  0  # atno 10764 bound_to 10752
  153.6938  135.3383  155.3184 H   0  0  0  0  0  0  0  0  0  0  0  0  # atno 10765 bound_to 10752
  139.9006  134.9582  156.7025 H   0  0  0  0  0  0  0  0  0  0  0  0  # atno 11005 bound_to 11000
  145.4772  139.1498  143.3782 LP  0  0  0  0  0  0  0  0  0  0  0  0  # atno 17320 bound_to 7965
  146.2668  140.4907  142.8830 LP  0  0  0  0  0  0  0  0  0  0  0  0  # atno 17321 bound_to 7965
  140.1924  144.4739  150.6472 LP  0  0  0  0  0  0  0  0  0  0  0  0  # atno 17342 bound_to 10162
  140.6592  143.2247  151.5897 LP  0  0  0  0  0  0  0  0  0  0  0  0  # atno 17343 bound_to 10162
  157.4902  131.0910  151.0435 LP  0  0  0  0  0  0  0  0  0  0  0  0  # atno 17370 bound_to 10713
  157.0844  130.5916  149.5427 LP  0  0  0  0  0  0  0  0  0  0  0  0  # atno 17371 bound_to 10713
  140.7139  133.9199  155.8102 LP  0  0  0  0  0  0  0  0  0  0  0  0  # atno 17394 bound_to 11000
  141.0279  134.0797  157.4047 LP  0  0  0  0  0  0  0  0  0  0  0  0  # atno 17395 bound_to 11000

$$$$
