AV-unprocessed.smi:162|AV-procd|sdf|1378|dock8
  -GOLD-   2262019103D 1   1.00000     0.00000
 Structure written by MMmdl.
 54 57  0  0  0  0  0  0  0  0  1 V2000
  153.3666  138.5974  154.7597 C   0  0  0  0  0  0  0  0  0  0  0  0
  152.9340  139.7444  155.4684 O   0  0  0  0  0  0  0  0  0  0  0  0
  151.5212  139.8643  155.5045 C   0  0  0  0  0  0  0  0  0  0  0  0
  151.1145  140.6843  156.7397 C   0  0  2  0  0  0  0  0  0  0  0  0
  150.9495  142.1758  156.4617 C   0  0  0  0  0  0  0  0  0  0  0  0
  150.9867  142.7665  157.8739 C   0  0  2  0  0  0  0  0  0  0  0  0
  151.4558  144.1065  157.9116 O   0  0  0  0  0  0  0  0  0  0  0  0
  151.6309  144.6107  159.2257 C   0  0  0  0  0  0  0  0  0  0  0  0
  151.9439  141.8343  158.6322 C   0  0  0  0  0  0  0  0  0  0  0  0
  152.1108  140.6456  157.8037 N   0  0  0  0  0  0  0  0  0  0  0  0
  152.2327  139.4893  158.4896 C   0  0  0  0  0  0  0  0  0  0  0  0
  151.0875  138.8230  158.7743 N   0  0  0  0  0  0  0  0  0  0  0  0
  151.1351  137.6771  159.4603 C   0  0  0  0  0  0  0  0  0  0  0  0
  152.2018  137.0359  159.9432 N   0  0  0  0  0  0  0  0  0  0  0  0
  153.3557  137.7020  159.6503 C   0  0  0  0  0  0  0  0  0  0  0  0
  153.4631  138.9245  158.9297 C   0  0  0  0  0  0  0  0  0  0  0  0
  154.7986  139.2934  158.8194 N   0  0  0  0  0  0  0  0  0  0  0  0
  155.4425  138.3486  159.4488 C   0  0  0  0  0  0  0  0  0  0  0  0
  154.6540  137.3501  159.9749 N   0  0  0  0  0  0  0  0  0  0  0  0
  155.1031  136.1837  160.7198 C   0  0  0  0  0  0  0  0  0  0  0  0
  155.0622  136.3659  162.2570 C   0  0  0  0  0  0  0  0  0  0  0  0
  156.1440  137.2078  162.6178 O   0  0  0  0  0  0  0  0  0  0  0  0
  153.7488  137.0526  162.6829 C   0  0  0  0  0  0  0  0  0  0  0  0
  153.5930  137.1071  164.2132 C   0  0  0  0  0  0  0  0  0  0  0  0
  153.6900  135.7969  164.7583 O   0  0  0  0  0  0  0  0  0  0  0  0
  154.9604  135.1991  164.5307 C   0  0  0  0  0  0  0  0  0  0  0  0
  155.2054  135.0306  163.0204 C   0  0  0  0  0  0  0  0  0  0  0  0
  150.1593  140.3112  157.1092 H   0  0  0  0  0  0  0  0  0  0  0  0
  149.9976  142.6923  158.3300 H   0  0  0  0  0  0  0  0  0  0  0  0
  154.4558  138.5576  154.7588 H   0  0  0  0  0  0  0  0  0  0  0  0
  153.0294  138.6252  153.7229 H   0  0  0  0  0  0  0  0  0  0  0  0
  152.9962  137.6833  155.2256 H   0  0  0  0  0  0  0  0  0  0  0  0
  151.1421  140.3269  154.5917 H   0  0  0  0  0  0  0  0  0  0  0  0
  151.0867  138.8654  155.5699 H   0  0  0  0  0  0  0  0  0  0  0  0
  151.7920  142.5466  155.8756 H   0  0  0  0  0  0  0  0  0  0  0  0
  150.0297  142.4081  155.9246 H   0  0  0  0  0  0  0  0  0  0  0  0
  152.0157  145.6291  159.1753 H   0  0  0  0  0  0  0  0  0  0  0  0
  152.3465  144.0094  159.7878 H   0  0  0  0  0  0  0  0  0  0  0  0
  150.6890  144.6382  159.7740 H   0  0  0  0  0  0  0  0  0  0  0  0
  152.9220  142.3019  158.7492 H   0  0  0  0  0  0  0  0  0  0  0  0
  151.5662  141.6058  159.6301 H   0  0  0  0  0  0  0  0  0  0  0  0
  150.1814  137.2068  159.6493 H   0  0  0  0  0  0  0  0  0  0  0  0
  156.5188  138.3508  159.5436 H   0  0  0  0  0  0  0  0  0  0  0  0
  154.4916  135.3310  160.4210 H   0  0  0  0  0  0  0  0  0  0  0  0
  156.1198  135.9521  160.3999 H   0  0  0  0  0  0  0  0  0  0  0  0
  155.8163  138.0878  162.7241 H   0  0  0  0  0  0  0  0  0  0  0  0
  153.6874  138.0576  162.2635 H   0  0  0  0  0  0  0  0  0  0  0  0
  152.9034  136.4989  162.2718 H   0  0  0  0  0  0  0  0  0  0  0  0
  154.3437  137.7580  164.6639 H   0  0  0  0  0  0  0  0  0  0  0  0
  152.6194  137.5228  164.4735 H   0  0  0  0  0  0  0  0  0  0  0  0
  155.7457  135.8004  164.9914 H   0  0  0  0  0  0  0  0  0  0  0  0
  154.9819  134.2260  165.0214 H   0  0  0  0  0  0  0  0  0  0  0  0
  154.4814  134.3147  162.6293 H   0  0  0  0  0  0  0  0  0  0  0  0
  156.1897  134.5903  162.8567 H   0  0  0  0  0  0  0  0  0  0  0  0
  1  2  1  0  0  0  0
  1 30  1  0  0  0  0
  1 31  1  0  0  0  0
  1 32  1  0  0  0  0
  2  3  1  0  0  0  0
  3  4  1  0  0  0  0
  3 33  1  0  0  0  0
  3 34  1  0  0  0  0
  4 28  1  0  0  0  0
  4 10  1  0  0  0  0
  4  5  1  0  0  0  0
  5  6  1  0  0  0  0
  5 35  1  0  0  0  0
  5 36  1  0  0  0  0
  6 29  1  0  0  0  0
  6  7  1  0  0  0  0
  6  9  1  0  0  0  0
  7  8  1  0  0  0  0
  8 37  1  0  0  0  0
  8 38  1  0  0  0  0
  8 39  1  0  0  0  0
  9 10  1  0  0  0  0
  9 40  1  0  0  0  0
  9 41  1  0  0  0  0
 10 11  1  0  0  0  0
 11 16  1  0  0  0  0
 11 12  2  0  0  0  0
 12 13  1  0  0  0  0
 13 14  2  0  0  0  0
 13 42  1  0  0  0  0
 14 15  1  0  0  0  0
 15 19  1  0  0  0  0
 15 16  2  0  0  0  0
 16 17  1  0  0  0  0
 17 18  2  0  0  0  0
 18 19  1  0  0  0  0
 18 43  1  0  0  0  0
 19 20  1  0  0  0  0
 20 21  1  0  0  0  0
 20 44  1  0  0  0  0
 20 45  1  0  0  0  0
 21 27  1  0  0  0  0
 21 22  1  0  0  0  0
 21 23  1  0  0  0  0
 22 46  1  0  0  0  0
 23 24  1  0  0  0  0
 23 47  1  0  0  0  0
 23 48  1  0  0  0  0
 24 25  1  0  0  0  0
 24 49  1  0  0  0  0
 24 50  1  0  0  0  0
 25 26  1  0  0  0  0
 26 27  1  0  0  0  0
 26 51  1  0  0  0  0
 26 52  1  0  0  0  0
 27 53  1  0  0  0  0
 27 54  1  0  0  0  0
M  END
> <s_m_source_file>
AV-unprocessed.smi

> <i_m_source_file_index>
162

> <i_lp_mmshare_version>
43012

> <i_f3d_flags>
0

> <s_epik_input>
W0NIM11PW0NIMl1bQ0BASF0xW0NIMl1bQ0BASF0oT1tDSDNdKVtDSDJdTjFjKG5bY0hdbjIpYyhjMjMpbltjSF1uM1tDSDJdQzQoW09IXSlbQ0gyXVtDSDJdT1tDSDJdW0NIMl00

> <s_epik_cmdline>
J2VwaWtfcHl0aG9uJywgJy1waCcsICc3LjAnLCAnLXRuJywgJzgnLCAnLW1hJywgJzIwMCcsICctbWV0YWxfYmluZGluZycsICctaW1hZScsICc8aW5maWxlLm1hZT4nLCAnLW9tYWUnLCAnPG91dGZpbGUubWFlPic=

> <r_lp_tautomer_probability>
1

> <r_epik_Ionization_Penalty>
0.00660334

> <r_epik_Ionization_Penalty_Charging>
0

> <r_epik_Ionization_Penalty_Neutral>
0.00660334

> <r_epik_State_Penalty>
0.00469459

> <r_epik_Charging_Adjusted_Penalty>
0.00469459

> <i_epik_Tot_Q>
0

> <i_epik_Tot_abs_Q>
0

> <r_epik_Metal_State_Penalty>
-0

> <b_epik_Metal_Only>
0

> <s_lp_Force_Field>
OPLS_2005

> <r_lp_Energy>
44.4659

> <b_lp_Chiralities_Consistent>
1

> <s_lp_Variant>
AV-unprocessed.smi:162-3

> <Gold.Version>
5.8.1

> <Gold.Id.Protein>
6NUR|6NUR_protein|mol2

> <Gold.PLP.Fitness>
50.1034

> <Gold.PLP.PLP>
-44.5284

> <Gold.PLP.part.hbond>
-3.6872

> <Gold.PLP.part.metal>
0.0000

> <Gold.PLP.part.buried>
-6.4310

> <Gold.PLP.part.nonpolar>
-34.9147

> <Gold.PLP.part.repulsive>
0.1903

> <Gold.PLP.ligand.clash>
0.0000

> <Gold.PLP.ligand.torsion>
1.8012

> <Gold.PLP.Chemscore.Hbond>
3.0000

> <Gold.PLP.Chemscore.CHOScore>
0.0000

> <Gold.PLP.Chemscore.Metal>
0.0000

> <Gold.Chemscore.Hbonds>
donor molecule, donor type, donor heavy atom, donor atom, acceptor molecule, acceptor atom, score
      P1  H  6896  6907       L1    14  1.00
      P1  H  7997  8008       L1    17  1.00
      P1  H  7997  8009       L1     2  0.70

> <Gold.PLP.Chemscore.Internal.Correction>
0.1773

> <Gold.Rescore>
     Score         DG    S(hbond)    S(metal)    S(lipo)     H(rot)  DE(clash)    DE(int)     intcor
     16.04     -18.97       2.52        0.00     106.11       2.86       0.14       2.79       ----

> <Gold.Chemscore.Fitness>
16.0377

> <Gold.Chemscore.DG>
-18.9711

> <Gold.Chemscore.ZeroCoef>
-5.4800

> <Gold.Chemscore.Hbond>
2.5177

> <Gold.Chemscore.Metal>
0.0000

> <Gold.Chemscore.Lipo>
106.1053

> <Gold.Chemscore.Internal_Hbond>
0.0000

> <Gold.Chemscore.DEClash>
0.1448

> <Gold.Chemscore.DEInternal>
2.7886

> <Gold.Chemscore.Rot>
2.8642

> <Gold.Chemscore.Internal.Correction>
   9.000000E+99

> <Gold.Chemscore.Hbonds>
donor molecule, donor type, donor heavy atom, donor atom, acceptor molecule, acceptor atom, score
      P1  H  6896  6907       L1    14  0.60
      P1  H  7997  8008       L1    17  0.96
      P1  H  7997  8009       L1     2  0.07

> <Gold.Chemscore.Hbond.Weighted>
-8.4092

> <Gold.Chemscore.Metal.Weighted>
-0.0000

> <Gold.Chemscore.Lipo.Weighted>
-12.4143

> <Gold.Chemscore.Internal_Hbond.Weighted>
0.0000

> <Gold.Chemscore.DEClash.Weighted>
0.1448

> <Gold.Chemscore.DEInternal.Weighted>
2.7886

> <Gold.Chemscore.Rot.Weighted>
7.3324

> <Gold.Chemscore.Internal.Correction.Weighted>
   9.000000E+99

> <Gold.Protein.RotatedTorsions>
[ 6907 6896 6895 6894 ] final    9.78 input  -60.11 | X-H torsion
[ 7974 7965 7964 7962 ] final -161.82 input  175.53 | X-H torsion
[ 8008 7997 7996 7995 ] final -134.96 input   59.86 | X-H torsion
[ 10167 10162 10161 10158 ] final  139.42 input  -65.29 | X-H torsion
[ 10718 10713 10712 10709 ] final  -84.48 input   66.30 | X-H torsion
[ 10763 10752 10751 10750 ] final -128.11 input  -60.55 | X-H torsion
[ 11005 11000 10999 10996 ] final  171.29 input  -57.11 | X-H torsion

> <Gold.Protein.ActiveResidues>
 VAL166  LYS551  ARG553  GLY616  TRP617  ASP618  TYR619  PRO620  LYS621  CYS622 
 ASP623  PHE694  ASN695  SER759  ASP760  ASP761  ALA762  ILE779  LEU786  VAL792 
 PHE793  MET794  SER795  GLU796  ALA797  LYS798  CYS799  TRP800  GLU811  SER814 

> <Gold.Protein.RotatedAtoms>
  151.7277  135.0881  160.0294 H   0  0  0  0  0  0  0  0  0  0  0  0  # atno 6907 bound_to 6896
  152.3561  133.6235  159.5989 H   0  0  0  0  0  0  0  0  0  0  0  0  # atno 6908 bound_to 6896
  150.7572  133.9414  159.3499 H   0  0  0  0  0  0  0  0  0  0  0  0  # atno 6909 bound_to 6896
  144.7378  140.3343  143.6147 H   0  0  0  0  0  0  0  0  0  0  0  0  # atno 7974 bound_to 7965
  155.3707  140.0488  157.3045 H   0  0  0  0  0  0  0  0  0  0  0  0  # atno 8008 bound_to 7997
  154.5131  140.2199  155.9080 H   0  0  0  0  0  0  0  0  0  0  0  0  # atno 8009 bound_to 7997
  156.1606  140.3117  155.8806 H   0  0  0  0  0  0  0  0  0  0  0  0  # atno 8010 bound_to 7997
  139.5079  144.6296  151.5852 H   0  0  0  0  0  0  0  0  0  0  0  0  # atno 10167 bound_to 10162
  156.0006  130.4699  150.4416 H   0  0  0  0  0  0  0  0  0  0  0  0  # atno 10718 bound_to 10713
  154.8755  135.3939  154.3703 H   0  0  0  0  0  0  0  0  0  0  0  0  # atno 10763 bound_to 10752
  153.4464  135.7027  153.6142 H   0  0  0  0  0  0  0  0  0  0  0  0  # atno 10764 bound_to 10752
  153.4701  135.3792  155.2355 H   0  0  0  0  0  0  0  0  0  0  0  0  # atno 10765 bound_to 10752
  140.3174  134.7465  157.4038 H   0  0  0  0  0  0  0  0  0  0  0  0  # atno 11005 bound_to 11000
  145.7440  139.1773  143.2359 LP  0  0  0  0  0  0  0  0  0  0  0  0  # atno 17320 bound_to 7965
  146.1112  140.7426  142.9502 LP  0  0  0  0  0  0  0  0  0  0  0  0  # atno 17321 bound_to 7965
  140.6024  143.9586  150.6395 LP  0  0  0  0  0  0  0  0  0  0  0  0  # atno 17342 bound_to 10162
  140.2802  143.3395  152.1158 LP  0  0  0  0  0  0  0  0  0  0  0  0  # atno 17343 bound_to 10162
  157.2456  131.0535  151.2410 LP  0  0  0  0  0  0  0  0  0  0  0  0  # atno 17370 bound_to 10713
  157.3578  130.7115  149.6482 LP  0  0  0  0  0  0  0  0  0  0  0  0  # atno 17371 bound_to 10713
  140.0971  134.5522  155.8388 LP  0  0  0  0  0  0  0  0  0  0  0  0  # atno 17394 bound_to 11000
  141.2094  133.6684  156.6439 LP  0  0  0  0  0  0  0  0  0  0  0  0  # atno 17395 bound_to 11000

$$$$
