AV-unprocessed.smi:22|AV-procd|sdf|169|dock10
  -GOLD-   2262015423D 1   1.00000     0.00000
 Structure written by MMmdl.
 56 59  0  0  0  0  0  0  0  0  2 V2000
  146.7188  134.4614  153.9824 C   0  0  0  0  0  0  0  0  0  0  0  0
  148.1949  134.4932  153.8392 N   0  3  2  0  0  0  0  0  0  0  0  0
  148.7404  133.2542  153.2201 C   0  0  0  0  0  0  0  0  0  0  0  0
  147.9107  132.0107  153.5807 C   0  0  0  0  0  0  0  0  0  0  0  0
  148.5332  130.8517  153.0683 O   0  0  0  0  0  0  0  0  0  0  0  0
  148.8796  134.9323  155.0902 C   0  0  0  0  0  0  0  0  0  0  0  0
  148.1859  136.1540  155.7282 C   0  0  0  0  0  0  0  0  0  0  0  0
  148.8770  136.5515  157.0426 C   0  0  0  0  0  0  0  0  0  0  0  0
  150.3089  136.7652  156.8336 N   0  0  0  0  0  0  0  0  0  0  0  0
  150.9287  137.4698  157.8146 C   0  0  0  0  0  0  0  0  0  0  0  0
  151.2939  136.8498  158.9688 N   0  0  0  0  0  0  0  0  0  0  0  0
  151.8977  137.5373  159.9427 C   0  0  0  0  0  0  0  0  0  0  0  0
  152.2274  138.8298  159.9705 N   0  0  0  0  0  0  0  0  0  0  0  0
  151.8694  139.4570  158.8138 C   0  0  0  0  0  0  0  0  0  0  0  0
  151.2238  138.8575  157.6955 C   0  0  0  0  0  0  0  0  0  0  0  0
  151.0337  139.8045  156.6961 N   0  0  0  0  0  0  0  0  0  0  0  0
  151.5283  140.9026  157.1991 C   0  0  0  0  0  0  0  0  0  0  0  0
  152.0458  140.7858  158.4694 N   0  0  0  0  0  0  0  0  0  0  0  0
  152.6557  141.8433  159.2607 C   0  0  0  0  0  0  0  0  0  0  0  0
  151.7325  143.0667  159.4646 C   0  0  1  0  0  0  0  0  0  0  0  0
  150.4173  142.6109  159.7332 O   0  0  0  0  0  0  0  0  0  0  0  0
  152.1646  143.9947  160.5965 C   0  0  0  0  0  0  0  0  0  0  0  0
  151.7032  145.3609  160.1089 C   0  0  0  0  0  0  0  0  0  0  0  0
  151.9974  145.3088  158.7233 O   0  0  0  0  0  0  0  0  0  0  0  0
  151.6823  144.0059  158.2425 C   0  0  0  0  0  0  0  0  0  0  0  0
  151.0275  135.6320  156.2483 C   0  0  0  0  0  0  0  0  0  0  0  0
  150.3906  135.2096  154.9139 C   0  0  0  0  0  0  0  0  0  0  0  0
  146.4060  133.6845  154.6805 H   0  0  0  0  0  0  0  0  0  0  0  0
  146.2314  134.2706  153.0271 H   0  0  0  0  0  0  0  0  0  0  0  0
  146.3426  135.4177  154.3468 H   0  0  0  0  0  0  0  0  0  0  0  0
  148.7664  133.3360  152.1342 H   0  0  0  0  0  0  0  0  0  0  0  0
  149.7762  133.1179  153.5342 H   0  0  0  0  0  0  0  0  0  0  0  0
  147.8474  131.9121  154.6645 H   0  0  0  0  0  0  0  0  0  0  0  0
  146.8885  132.0748  153.2093 H   0  0  0  0  0  0  0  0  0  0  0  0
  148.3854  130.8167  152.1348 H   0  0  0  0  0  0  0  0  0  0  0  0
  148.7768  134.1197  155.8114 H   0  0  0  0  0  0  0  0  0  0  0  0
  148.2034  137.0101  155.0543 H   0  0  0  0  0  0  0  0  0  0  0  0
  147.1351  135.9332  155.9193 H   0  0  0  0  0  0  0  0  0  0  0  0
  148.3936  137.4393  157.4490 H   0  0  0  0  0  0  0  0  0  0  0  0
  148.7475  135.7618  157.7839 H   0  0  0  0  0  0  0  0  0  0  0  0
  152.1519  136.9710  160.8265 H   0  0  0  0  0  0  0  0  0  0  0  0
  151.5267  141.8361  156.6550 H   0  0  0  0  0  0  0  0  0  0  0  0
  152.9408  141.4248  160.2269 H   0  0  0  0  0  0  0  0  0  0  0  0
  153.5841  142.1455  158.7737 H   0  0  0  0  0  0  0  0  0  0  0  0
  150.4737  141.8355  160.2706 H   0  0  0  0  0  0  0  0  0  0  0  0
  151.7578  143.7229  161.5715 H   0  0  0  0  0  0  0  0  0  0  0  0
  153.2518  144.0056  160.6817 H   0  0  0  0  0  0  0  0  0  0  0  0
  150.6294  145.4894  160.2543 H   0  0  0  0  0  0  0  0  0  0  0  0
  152.2217  146.1837  160.6016 H   0  0  0  0  0  0  0  0  0  0  0  0
  152.4046  143.7271  157.4746 H   0  0  0  0  0  0  0  0  0  0  0  0
  150.6975  144.0179  157.7726 H   0  0  0  0  0  0  0  0  0  0  0  0
  152.0728  135.8956  156.0814 H   0  0  0  0  0  0  0  0  0  0  0  0
  151.0136  134.7964  156.9498 H   0  0  0  0  0  0  0  0  0  0  0  0
  150.9032  134.3265  154.5328 H   0  0  0  0  0  0  0  0  0  0  0  0
  150.5557  136.0035  154.1852 H   0  0  0  0  0  0  0  0  0  0  0  0
  148.3850  135.2292  153.1736 H   0  0  0  0  0  0  0  0  0  0  0  0
  1  2  1  0  0  0  0
  1 28  1  0  0  0  0
  1 29  1  0  0  0  0
  1 30  1  0  0  0  0
  2  3  1  0  0  0  0
  2  6  1  0  0  0  0
  2 56  1  0  0  0  0
  3  4  1  0  0  0  0
  3 31  1  0  0  0  0
  3 32  1  0  0  0  0
  4  5  1  0  0  0  0
  4 33  1  0  0  0  0
  4 34  1  0  0  0  0
  5 35  1  0  0  0  0
  6 27  1  0  0  0  0
  6  7  1  0  0  0  0
  6 36  1  0  0  0  0
  7  8  1  0  0  0  0
  7 37  1  0  0  0  0
  7 38  1  0  0  0  0
  8  9  1  0  0  0  0
  8 39  1  0  0  0  0
  8 40  1  0  0  0  0
  9 10  1  0  0  0  0
  9 26  1  0  0  0  0
 10 15  1  0  0  0  0
 10 11  2  0  0  0  0
 11 12  1  0  0  0  0
 12 13  2  0  0  0  0
 12 41  1  0  0  0  0
 13 14  1  0  0  0  0
 14 18  1  0  0  0  0
 14 15  2  0  0  0  0
 15 16  1  0  0  0  0
 16 17  2  0  0  0  0
 17 18  1  0  0  0  0
 17 42  1  0  0  0  0
 18 19  1  0  0  0  0
 19 20  1  0  0  0  0
 19 43  1  0  0  0  0
 19 44  1  0  0  0  0
 20 25  1  0  0  0  0
 20 21  1  0  0  0  0
 20 22  1  0  0  0  0
 21 45  1  0  0  0  0
 22 23  1  0  0  0  0
 22 46  1  0  0  0  0
 22 47  1  0  0  0  0
 23 24  1  0  0  0  0
 23 48  1  0  0  0  0
 23 49  1  0  0  0  0
 24 25  1  0  0  0  0
 25 50  1  0  0  0  0
 25 51  1  0  0  0  0
 26 27  1  0  0  0  0
 26 52  1  0  0  0  0
 26 53  1  0  0  0  0
 27 54  1  0  0  0  0
 27 55  1  0  0  0  0
M  CHG  1   2   1
M  END
> <s_m_source_file>
AV-unprocessed.smi

> <i_m_source_file_index>
22

> <i_lp_mmshare_version>
43012

> <i_f3d_flags>
0

> <s_epik_input>
W09IXVtDSDJdW0NIMl1OKFtDSDNdKVtDSF0xW0NIMl1bQ0gyXU4oW0NIMl1bQ0gyXTEpYyhuW2NIXW4yKWMoYzIzKW5bY0hdbjNbQ0gyXVtDQEBdNChbT0hdKVtDSDJdW0NIMl1PW0NIMl00

> <s_epik_cmdline>
J2VwaWtfcHl0aG9uJywgJy1waCcsICc3LjAnLCAnLXRuJywgJzgnLCAnLW1hJywgJzIwMCcsICctbWV0YWxfYmluZGluZycsICctaW1hZScsICc8aW5maWxlLm1hZT4nLCAnLW9tYWUnLCAnPG91dGZpbGUubWFlPic=

> <r_lp_tautomer_probability>
1

> <r_epik_Ionization_Penalty>
0.00317524

> <r_epik_Ionization_Penalty_Charging>
0.00191487

> <r_epik_Ionization_Penalty_Neutral>
0.00126037

> <r_epik_State_Penalty>
-0

> <r_epik_Charging_Adjusted_Penalty>
0.00191487

> <i_epik_Tot_Q>
1

> <i_epik_Tot_abs_Q>
1

> <r_epik_Metal_State_Penalty>
-0

> <b_epik_Metal_Only>
0

> <s_lp_Force_Field>
OPLS_2005

> <r_lp_Energy>
45.1339

> <b_lp_Chiralities_Consistent>
1

> <s_lp_Variant>
AV-unprocessed.smi:22-1

> <Gold.Version>
5.8.1

> <Gold.Id.Protein>
6NUR|6NUR_protein|mol2

> <Gold.PLP.Fitness>
51.8761

> <Gold.PLP.PLP>
-41.7955

> <Gold.PLP.part.hbond>
-4.0586

> <Gold.PLP.part.metal>
0.0000

> <Gold.PLP.part.buried>
-4.8305

> <Gold.PLP.part.nonpolar>
-32.8324

> <Gold.PLP.part.repulsive>
0.0647

> <Gold.PLP.ligand.clash>
0.0000

> <Gold.PLP.ligand.torsion>
1.0678

> <Gold.PLP.Chemscore.Hbond>
3.8800

> <Gold.PLP.Chemscore.CHOScore>
0.0000

> <Gold.PLP.Chemscore.Metal>
0.0000

> <Gold.Chemscore.Hbonds>
donor molecule, donor type, donor heavy atom, donor atom, acceptor molecule, acceptor atom, score
      L1  H     2    56       P1  7948  2.00
      L1  H     5    35       P1 10747  1.00
      P1  H  6896  6909       L1    11  0.85

> <Gold.PLP.Chemscore.Internal.Correction>
0.5762

> <Gold.Rescore>
     Score         DG    S(hbond)    S(metal)    S(lipo)     H(rot)  DE(clash)    DE(int)     intcor
     12.46     -13.53       1.95        0.00      95.39       3.76       0.13       0.94       ----

> <Gold.Chemscore.Fitness>
12.4615

> <Gold.Chemscore.DG>
-13.5304

> <Gold.Chemscore.ZeroCoef>
-5.4800

> <Gold.Chemscore.Hbond>
1.9493

> <Gold.Chemscore.Metal>
0.0000

> <Gold.Chemscore.Lipo>
95.3923

> <Gold.Chemscore.Internal_Hbond>
0.0000

> <Gold.Chemscore.DEClash>
0.1268

> <Gold.Chemscore.DEInternal>
0.9421

> <Gold.Chemscore.Rot>
3.7583

> <Gold.Chemscore.Internal.Correction>
   9.000000E+99

> <Gold.Chemscore.Hbonds>
donor molecule, donor type, donor heavy atom, donor atom, acceptor molecule, acceptor atom, score
      L1  H     2    56       P1  7948  0.94
      L1  H     5    35       P1 10747  0.93
      P1  H  6896  6909       L1    11  0.14

> <Gold.Chemscore.Hbond.Weighted>
-6.5107

> <Gold.Chemscore.Metal.Weighted>
-0.0000

> <Gold.Chemscore.Lipo.Weighted>
-11.1609

> <Gold.Chemscore.Internal_Hbond.Weighted>
0.0000

> <Gold.Chemscore.DEClash.Weighted>
0.1268

> <Gold.Chemscore.DEInternal.Weighted>
0.9421

> <Gold.Chemscore.Rot.Weighted>
9.6213

> <Gold.Chemscore.Internal.Correction.Weighted>
   9.000000E+99

> <Gold.Protein.RotatedTorsions>
[ 6907 6896 6895 6894 ] final  100.54 input  -60.11 | X-H torsion
[ 7974 7965 7964 7962 ] final -130.13 input  175.53 | X-H torsion
[ 8008 7997 7996 7995 ] final  -69.33 input   59.86 | X-H torsion
[ 10167 10162 10161 10158 ] final -129.19 input  -65.29 | X-H torsion
[ 10718 10713 10712 10709 ] final -117.34 input   66.30 | X-H torsion
[ 10763 10752 10751 10750 ] final   -9.90 input  -60.55 | X-H torsion
[ 11005 11000 10999 10996 ] final  165.69 input  -57.11 | X-H torsion

> <Gold.Protein.ActiveResidues>
 VAL166  LYS551  ARG553  GLY616  TRP617  ASP618  TYR619  PRO620  LYS621  CYS622 
 ASP623  PHE694  ASN695  SER759  ASP760  ASP761  ALA762  ILE779  LEU786  VAL792 
 PHE793  MET794  SER795  GLU796  ALA797  LYS798  CYS799  TRP800  GLU811  SER814 

> <Gold.Protein.RotatedAtoms>
  152.5370  134.0261  159.8003 H   0  0  0  0  0  0  0  0  0  0  0  0  # atno 6907 bound_to 6896
  151.0439  133.5674  159.2655 H   0  0  0  0  0  0  0  0  0  0  0  0  # atno 6908 bound_to 6896
  151.2633  135.0668  159.9160 H   0  0  0  0  0  0  0  0  0  0  0  0  # atno 6909 bound_to 6896
  144.9505  140.7339  143.4791 H   0  0  0  0  0  0  0  0  0  0  0  0  # atno 7974 bound_to 7965
  154.4931  140.0855  156.7638 H   0  0  0  0  0  0  0  0  0  0  0  0  # atno 8008 bound_to 7997
  155.4182  140.3444  155.4251 H   0  0  0  0  0  0  0  0  0  0  0  0  # atno 8009 bound_to 7997
  156.1357  140.1514  156.8986 H   0  0  0  0  0  0  0  0  0  0  0  0  # atno 8010 bound_to 7997
  139.9423  143.6149  152.2500 H   0  0  0  0  0  0  0  0  0  0  0  0  # atno 10167 bound_to 10162
  156.1027  130.6185  150.9152 H   0  0  0  0  0  0  0  0  0  0  0  0  # atno 10718 bound_to 10713
  153.4615  135.7016  153.6047 H   0  0  0  0  0  0  0  0  0  0  0  0  # atno 10763 bound_to 10752
  153.4340  135.3796  155.2188 H   0  0  0  0  0  0  0  0  0  0  0  0  # atno 10764 bound_to 10752
  154.8727  135.3957  154.4041 H   0  0  0  0  0  0  0  0  0  0  0  0  # atno 10765 bound_to 10752
  140.2587  134.7919  157.3570 H   0  0  0  0  0  0  0  0  0  0  0  0  # atno 11005 bound_to 11000
  145.2852  139.1903  143.4770 LP  0  0  0  0  0  0  0  0  0  0  0  0  # atno 17320 bound_to 7965
  146.3319  140.2820  142.8611 LP  0  0  0  0  0  0  0  0  0  0  0  0  # atno 17321 bound_to 7965
  139.6694  144.7661  151.1811 LP  0  0  0  0  0  0  0  0  0  0  0  0  # atno 17342 bound_to 10162
  140.7607  143.5888  150.8818 LP  0  0  0  0  0  0  0  0  0  0  0  0  # atno 17343 bound_to 10162
  157.6200  131.0930  150.8640 LP  0  0  0  0  0  0  0  0  0  0  0  0  # atno 17370 bound_to 10713
  156.8765  130.5164  149.5293 LP  0  0  0  0  0  0  0  0  0  0  0  0  # atno 17371 bound_to 10713
  140.1486  134.4879  155.7978 LP  0  0  0  0  0  0  0  0  0  0  0  0  # atno 17394 bound_to 11000
  141.2193  133.6853  156.7337 LP  0  0  0  0  0  0  0  0  0  0  0  0  # atno 17395 bound_to 11000

$$$$
