AV-unprocessed.smi:2945|AV-procd|sdf|11277|dock9
  -GOLD-   2272016173D 1   1.00000     0.00000
 Structure written by MMmdl.
 36 37  0  0  0  0  0  0  0  0  1 V2000
  140.3012  138.8317  153.4733 C   0  0  0  0  0  0  0  0  0  0  0  0
  140.7291  137.4062  153.5526 C   0  0  0  0  0  0  0  0  0  0  0  0
  141.8800  136.7593  153.2001 C   0  0  0  0  0  0  0  0  0  0  0  0
  141.6072  135.4094  153.5471 C   0  0  0  0  0  0  0  0  0  0  0  0
  142.5731  134.3943  153.3298 N   0  0  0  0  0  0  0  0  0  0  0  0
  143.6811  134.4638  152.5728 C   0  0  0  0  0  0  0  0  0  0  0  0
  144.0313  135.4454  151.9172 O   0  0  0  0  0  0  0  0  0  0  0  0
  144.3671  133.3120  152.6175 N   0  0  0  0  0  0  0  0  0  0  0  0
  145.6268  133.0264  151.9271 C   0  0  1  0  0  0  0  0  0  0  0  0
  146.6882  132.5697  152.9483 C   0  0  0  0  0  0  0  0  0  0  0  0
  146.3799  131.1764  153.5235 C   0  0  0  0  0  0  0  0  0  0  0  0
  146.2079  130.1386  152.4044 C   0  0  0  0  0  0  0  0  0  0  0  0
  145.1352  130.5765  151.3940 C   0  0  0  0  0  0  0  0  0  0  0  0
  145.4427  131.9701  150.8074 C   0  0  1  0  0  0  0  0  0  0  0  0
  144.4007  132.3836  149.7542 C   0  0  0  0  0  0  0  0  0  0  0  0
  140.4002  135.2469  154.0663 N   0  0  0  0  0  0  0  0  0  0  0  0
  139.8312  136.5261  154.0730 O   0  0  0  0  0  0  0  0  0  0  0  0
  141.0492  139.4353  152.9589 H   0  0  0  0  0  0  0  0  0  0  0  0
  140.1580  139.2479  154.4706 H   0  0  0  0  0  0  0  0  0  0  0  0
  139.3612  138.9241  152.9291 H   0  0  0  0  0  0  0  0  0  0  0  0
  142.7705  137.1856  152.7627 H   0  0  0  0  0  0  0  0  0  0  0  0
  142.4073  133.5228  153.8105 H   0  0  0  0  0  0  0  0  0  0  0  0
  143.9911  132.5649  153.1825 H   0  0  0  0  0  0  0  0  0  0  0  0
  145.9995  133.9428  151.4661 H   0  0  0  0  0  0  0  0  0  0  0  0
  147.6640  132.5445  152.4617 H   0  0  0  0  0  0  0  0  0  0  0  0
  146.7726  133.2975  153.7562 H   0  0  0  0  0  0  0  0  0  0  0  0
  147.1813  130.8677  154.1952 H   0  0  0  0  0  0  0  0  0  0  0  0
  145.4729  131.2171  154.1277 H   0  0  0  0  0  0  0  0  0  0  0  0
  147.1587  129.9972  151.8891 H   0  0  0  0  0  0  0  0  0  0  0  0
  145.9425  129.1716  152.8327 H   0  0  0  0  0  0  0  0  0  0  0  0
  145.0733  129.8410  150.5913 H   0  0  0  0  0  0  0  0  0  0  0  0
  144.1580  130.5822  151.8783 H   0  0  0  0  0  0  0  0  0  0  0  0
  146.3975  131.8935  150.2847 H   0  0  0  0  0  0  0  0  0  0  0  0
  143.3954  132.4259  150.1739 H   0  0  0  0  0  0  0  0  0  0  0  0
  144.3805  131.6746  148.9262 H   0  0  0  0  0  0  0  0  0  0  0  0
  144.6311  133.3656  149.3406 H   0  0  0  0  0  0  0  0  0  0  0  0
  1  2  1  0  0  0  0
  1 18  1  0  0  0  0
  1 19  1  0  0  0  0
  1 20  1  0  0  0  0
  2 17  1  0  0  0  0
  2  3  2  0  0  0  0
  3  4  1  0  0  0  0
  3 21  1  0  0  0  0
  4  5  1  0  0  0  0
  4 16  2  0  0  0  0
  5  6  1  0  0  0  0
  5 22  1  0  0  0  0
  6  7  2  0  0  0  0
  6  8  1  0  0  0  0
  8  9  1  0  0  0  0
  8 23  1  0  0  0  0
  9 14  1  0  0  0  0
  9 10  1  0  0  0  0
  9 24  1  0  0  0  0
 10 11  1  0  0  0  0
 10 25  1  0  0  0  0
 10 26  1  0  0  0  0
 11 12  1  0  0  0  0
 11 27  1  0  0  0  0
 11 28  1  0  0  0  0
 12 13  1  0  0  0  0
 12 29  1  0  0  0  0
 12 30  1  0  0  0  0
 13 14  1  0  0  0  0
 13 31  1  0  0  0  0
 13 32  1  0  0  0  0
 14 15  1  0  0  0  0
 14 33  1  0  0  0  0
 15 34  1  0  0  0  0
 15 35  1  0  0  0  0
 15 36  1  0  0  0  0
 16 17  1  0  0  0  0
M  END
> <s_m_source_file>
AV-unprocessed.smi

> <i_m_source_file_index>
2945

> <i_lp_mmshare_version>
43012

> <i_f3d_flags>
0

> <s_epik_input>
W0NIM11jMVtjSF1jKG5vMSlbTkhdQyg9TylbTkhdW0NAQEhdMltDSDJdW0NIMl1bQ0gyXVtDSDJdW0NASF0yW0NIM10=

> <s_epik_cmdline>
J2VwaWtfcHl0aG9uJywgJy1waCcsICc3LjAnLCAnLXRuJywgJzgnLCAnLW1hJywgJzIwMCcsICctbWV0YWxfYmluZGluZycsICctaW1hZScsICc8aW5maWxlLm1hZT4nLCAnLW9tYWUnLCAnPG91dGZpbGUubWFlPic=

> <r_lp_tautomer_probability>
1

> <r_epik_Ionization_Penalty>
2.357e-05

> <r_epik_Ionization_Penalty_Charging>
0

> <r_epik_Ionization_Penalty_Neutral>
2.357e-05

> <r_epik_State_Penalty>
-0

> <r_epik_Charging_Adjusted_Penalty>
0

> <i_epik_Tot_Q>
0

> <i_epik_Tot_abs_Q>
0

> <r_epik_Metal_State_Penalty>
-0

> <b_epik_Metal_Only>
0

> <s_lp_Force_Field>
OPLS_2005

> <r_lp_Energy>
7.46694

> <b_lp_Chiralities_Consistent>
1

> <s_lp_Variant>
AV-unprocessed.smi:2945-2

> <Gold.Version>
5.8.1

> <Gold.Id.Protein>
6NUR|6NUR_protein|mol2

> <Gold.PLP.Fitness>
40.0252

> <Gold.PLP.PLP>
-32.5716

> <Gold.PLP.part.hbond>
-3.5954

> <Gold.PLP.part.metal>
0.0000

> <Gold.PLP.part.buried>
-7.1139

> <Gold.PLP.part.nonpolar>
-22.0991

> <Gold.PLP.part.repulsive>
0.4098

> <Gold.PLP.ligand.clash>
0.0000

> <Gold.PLP.ligand.torsion>
0.0870

> <Gold.PLP.Chemscore.Hbond>
2.5403

> <Gold.PLP.Chemscore.CHOScore>
0.0000

> <Gold.PLP.Chemscore.Metal>
0.0000

> <Gold.Chemscore.Hbonds>
donor molecule, donor type, donor heavy atom, donor atom, acceptor molecule, acceptor atom, score
      L1  H     5    22       P1 10957  1.00
      L1  H     8    23       P1 10957  0.50
      P1  H 11000 11005       L1    16  1.00

> <Gold.PLP.Chemscore.Internal.Correction>
0.0068

> <Gold.Rescore>
     Score         DG    S(hbond)    S(metal)    S(lipo)     H(rot)  DE(clash)    DE(int)     intcor
     17.03     -18.50       2.34        0.00      66.37       1.00       0.00       1.46       ----

> <Gold.Chemscore.Fitness>
17.0342

> <Gold.Chemscore.DG>
-18.4969

> <Gold.Chemscore.ZeroCoef>
-5.4800

> <Gold.Chemscore.Hbond>
2.3389

> <Gold.Chemscore.Metal>
0.0000

> <Gold.Chemscore.Lipo>
66.3677

> <Gold.Chemscore.Internal_Hbond>
0.0000

> <Gold.Chemscore.DEClash>
0.0000

> <Gold.Chemscore.DEInternal>
1.4627

> <Gold.Chemscore.Rot>
1.0000

> <Gold.Chemscore.Internal.Correction>
   9.000000E+99

> <Gold.Chemscore.Hbonds>
donor molecule, donor type, donor heavy atom, donor atom, acceptor molecule, acceptor atom, score
      L1  H     5    22       P1 10957  0.94
      L1  H     8    23       P1 10957  0.09
      P1  H 11000 11005       L1    16  0.85

> <Gold.Chemscore.Hbond.Weighted>
-7.8119

> <Gold.Chemscore.Metal.Weighted>
-0.0000

> <Gold.Chemscore.Lipo.Weighted>
-7.7650

> <Gold.Chemscore.Internal_Hbond.Weighted>
0.0000

> <Gold.Chemscore.DEClash.Weighted>
0.0000

> <Gold.Chemscore.DEInternal.Weighted>
1.4627

> <Gold.Chemscore.Rot.Weighted>
2.5600

> <Gold.Chemscore.Internal.Correction.Weighted>
   9.000000E+99

> <Gold.Protein.RotatedTorsions>
[ 6907 6896 6895 6894 ] final   16.13 input  -60.11 | X-H torsion
[ 7974 7965 7964 7962 ] final  137.31 input  175.53 | X-H torsion
[ 8008 7997 7996 7995 ] final  -79.75 input   59.86 | X-H torsion
[ 10167 10162 10161 10158 ] final  125.38 input  -65.29 | X-H torsion
[ 10718 10713 10712 10709 ] final  108.04 input   66.30 | X-H torsion
[ 10763 10752 10751 10750 ] final  -53.67 input  -60.55 | X-H torsion
[ 11005 11000 10999 10996 ] final   26.64 input  -57.11 | X-H torsion

> <Gold.Protein.ActiveResidues>
 VAL166  LYS551  ARG553  GLY616  TRP617  ASP618  TYR619  PRO620  LYS621  CYS622 
 ASP623  PHE694  ASN695  SER759  ASP760  ASP761  ALA762  ILE779  LEU786  VAL792 
 PHE793  MET794  SER795  GLU796  ALA797  LYS798  CYS799  TRP800  GLU811  SER814 

> <Gold.Protein.RotatedAtoms>
  151.8291  135.0627  160.0434 H   0  0  0  0  0  0  0  0  0  0  0  0  # atno 6907 bound_to 6896
  152.2894  133.5542  159.5556 H   0  0  0  0  0  0  0  0  0  0  0  0  # atno 6908 bound_to 6896
  150.7223  134.0366  159.3793 H   0  0  0  0  0  0  0  0  0  0  0  0  # atno 6909 bound_to 6896
  144.9480  139.4852  143.5539 H   0  0  0  0  0  0  0  0  0  0  0  0  # atno 7974 bound_to 7965
  154.5816  140.0673  156.9112 H   0  0  0  0  0  0  0  0  0  0  0  0  # atno 8008 bound_to 7997
  155.2453  140.3347  155.4269 H   0  0  0  0  0  0  0  0  0  0  0  0  # atno 8009 bound_to 7997
  156.2193  140.1792  156.7500 H   0  0  0  0  0  0  0  0  0  0  0  0  # atno 8010 bound_to 7997
  139.5689  144.6927  151.3834 H   0  0  0  0  0  0  0  0  0  0  0  0  # atno 10167 bound_to 10162
  157.6603  131.0885  150.6247 H   0  0  0  0  0  0  0  0  0  0  0  0  # atno 10718 bound_to 10713
  154.1625  135.6472  153.4989 H   0  0  0  0  0  0  0  0  0  0  0  0  # atno 10763 bound_to 10752
  153.0106  135.5364  154.6696 H   0  0  0  0  0  0  0  0  0  0  0  0  # atno 10764 bound_to 10752
  154.6013  135.2944  155.0504 H   0  0  0  0  0  0  0  0  0  0  0  0  # atno 10765 bound_to 10752
  140.3348  134.2397  155.7697 H   0  0  0  0  0  0  0  0  0  0  0  0  # atno 11005 bound_to 11000
  146.3310  139.8546  142.8867 LP  0  0  0  0  0  0  0  0  0  0  0  0  # atno 17320 bound_to 7965
  145.2888  141.0161  143.3675 LP  0  0  0  0  0  0  0  0  0  0  0  0  # atno 17321 bound_to 7965
  140.6973  143.7718  150.7347 LP  0  0  0  0  0  0  0  0  0  0  0  0  # atno 17342 bound_to 10162
  140.1218  143.4605  152.2308 LP  0  0  0  0  0  0  0  0  0  0  0  0  # atno 17343 bound_to 10162
  156.6550  130.4496  149.5706 LP  0  0  0  0  0  0  0  0  0  0  0  0  # atno 17370 bound_to 10713
  156.2109  130.6678  151.1269 LP  0  0  0  0  0  0  0  0  0  0  0  0  # atno 17371 bound_to 10713
  141.2054  133.7861  157.0235 LP  0  0  0  0  0  0  0  0  0  0  0  0  # atno 17394 bound_to 11000
  140.0830  134.9637  157.1655 LP  0  0  0  0  0  0  0  0  0  0  0  0  # atno 17395 bound_to 11000

$$$$
