AV-unprocessed.smi:896|AV-procd|sdf|4078|dock8
  -GOLD-   22720 1563D 1   1.00000     0.00000
 Structure written by MMmdl.
 49 50  0  0  0  0  0  0  0  0  2 V2000
  150.3873  142.8282  157.3385 C   0  0  0  0  0  0  0  0  0  0  0  0
  150.9901  142.1221  156.2593 O   0  0  0  0  0  0  0  0  0  0  0  0
  150.3292  141.0259  155.7438 C   0  0  0  0  0  0  0  0  0  0  0  0
  148.9229  140.9935  155.8084 C   0  0  0  0  0  0  0  0  0  0  0  0
  148.2438  139.8786  155.2825 C   0  0  0  0  0  0  0  0  0  0  0  0
  148.9919  138.8298  154.6967 C   0  0  0  0  0  0  0  0  0  0  0  0
  148.3920  137.6562  154.1625 N   0  0  0  0  0  0  0  0  0  0  0  0
  147.2442  137.0696  154.5412 C   0  0  0  0  0  0  0  0  0  0  0  0
  146.5036  137.4710  155.4395 O   0  0  0  0  0  0  0  0  0  0  0  0
  146.9791  135.9896  153.7922 N   0  0  0  0  0  0  0  0  0  0  0  0
  145.7905  135.1558  153.9265 C   0  0  0  0  0  0  0  0  0  0  0  0
  145.8849  133.9001  153.0394 C   0  0  0  0  0  0  0  0  0  0  0  0
  146.5375  134.1446  151.6596 C   0  0  2  0  0  0  0  0  0  0  0  0
  145.7027  135.1048  150.7897 C   0  0  0  0  0  0  0  0  0  0  0  0
  144.4192  134.4410  150.2569 C   0  0  0  0  0  0  0  0  0  0  0  0
  144.7293  133.1992  149.5055 N   0  3  2  0  0  0  0  0  0  0  0  0
  143.5239  132.5945  148.8991 C   0  0  0  0  0  0  0  0  0  0  0  0
  145.5001  132.2265  150.3193 C   0  0  0  0  0  0  0  0  0  0  0  0
  146.8002  132.8566  150.8503 C   0  0  0  0  0  0  0  0  0  0  0  0
  150.4026  138.9490  154.6942 C   0  0  0  0  0  0  0  0  0  0  0  0
  151.2876  137.8656  154.1032 C   0  0  0  0  0  0  0  0  0  0  0  0
  151.0552  140.0190  155.1990 N   0  0  0  0  0  0  0  0  0  0  0  0
  151.0308  143.6577  157.6314 H   0  0  0  0  0  0  0  0  0  0  0  0
  150.2567  142.1871  158.2116 H   0  0  0  0  0  0  0  0  0  0  0  0
  149.4206  143.2450  157.0520 H   0  0  0  0  0  0  0  0  0  0  0  0
  148.3740  141.8079  156.2582 H   0  0  0  0  0  0  0  0  0  0  0  0
  147.1672  139.8405  155.3504 H   0  0  0  0  0  0  0  0  0  0  0  0
  148.8431  137.2699  153.3462 H   0  0  0  0  0  0  0  0  0  0  0  0
  147.6413  135.7303  153.0755 H   0  0  0  0  0  0  0  0  0  0  0  0
  145.6931  134.8670  154.9732 H   0  0  0  0  0  0  0  0  0  0  0  0
  144.9084  135.7487  153.6842 H   0  0  0  0  0  0  0  0  0  0  0  0
  146.4181  133.1138  153.5730 H   0  0  0  0  0  0  0  0  0  0  0  0
  144.8745  133.5182  152.8865 H   0  0  0  0  0  0  0  0  0  0  0  0
  147.4989  134.6258  151.8443 H   0  0  0  0  0  0  0  0  0  0  0  0
  145.4521  136.0056  151.3508 H   0  0  0  0  0  0  0  0  0  0  0  0
  146.3060  135.4371  149.9439 H   0  0  0  0  0  0  0  0  0  0  0  0
  143.7363  134.2145  151.0767 H   0  0  0  0  0  0  0  0  0  0  0  0
  143.8980  135.1392  149.6006 H   0  0  0  0  0  0  0  0  0  0  0  0
  142.8196  132.2722  149.6674 H   0  0  0  0  0  0  0  0  0  0  0  0
  143.7906  131.7272  148.2941 H   0  0  0  0  0  0  0  0  0  0  0  0
  143.0186  133.3099  148.2497 H   0  0  0  0  0  0  0  0  0  0  0  0
  144.8847  131.8628  151.1432 H   0  0  0  0  0  0  0  0  0  0  0  0
  145.7453  131.3580  149.7068 H   0  0  0  0  0  0  0  0  0  0  0  0
  147.4437  133.0978  150.0029 H   0  0  0  0  0  0  0  0  0  0  0  0
  147.3561  132.1276  151.4384 H   0  0  0  0  0  0  0  0  0  0  0  0
  151.0331  137.6960  153.0566 H   0  0  0  0  0  0  0  0  0  0  0  0
  151.1554  136.9299  154.6470 H   0  0  0  0  0  0  0  0  0  0  0  0
  152.3428  138.1376  154.1524 H   0  0  0  0  0  0  0  0  0  0  0  0
  145.3293  133.4708  148.7397 H   0  0  0  0  0  0  0  0  0  0  0  0
  1  2  1  0  0  0  0
  1 23  1  0  0  0  0
  1 24  1  0  0  0  0
  1 25  1  0  0  0  0
  2  3  1  0  0  0  0
  3 22  1  0  0  0  0
  3  4  2  0  0  0  0
  4  5  1  0  0  0  0
  4 26  1  0  0  0  0
  5  6  2  0  0  0  0
  5 27  1  0  0  0  0
  6  7  1  0  0  0  0
  6 20  1  0  0  0  0
  7  8  1  0  0  0  0
  7 28  1  0  0  0  0
  8  9  2  0  0  0  0
  8 10  1  0  0  0  0
 10 11  1  0  0  0  0
 10 29  1  0  0  0  0
 11 12  1  0  0  0  0
 11 30  1  0  0  0  0
 11 31  1  0  0  0  0
 12 13  1  0  0  0  0
 12 32  1  0  0  0  0
 12 33  1  0  0  0  0
 13 19  1  0  0  0  0
 13 14  1  0  0  0  0
 13 34  1  0  0  0  0
 14 15  1  0  0  0  0
 14 35  1  0  0  0  0
 14 36  1  0  0  0  0
 15 16  1  0  0  0  0
 15 37  1  0  0  0  0
 15 38  1  0  0  0  0
 16 17  1  0  0  0  0
 16 18  1  0  0  0  0
 16 49  1  0  0  0  0
 17 39  1  0  0  0  0
 17 40  1  0  0  0  0
 17 41  1  0  0  0  0
 18 19  1  0  0  0  0
 18 42  1  0  0  0  0
 18 43  1  0  0  0  0
 19 44  1  0  0  0  0
 19 45  1  0  0  0  0
 20 21  1  0  0  0  0
 20 22  2  0  0  0  0
 21 46  1  0  0  0  0
 21 47  1  0  0  0  0
 21 48  1  0  0  0  0
M  CHG  1  16   1
M  END
> <s_m_source_file>
AV-unprocessed.smi

> <i_m_source_file_index>
896

> <i_lp_mmshare_version>
43012

> <i_f3d_flags>
0

> <s_epik_input>
W0NIM11PYzFbY0hdW2NIXWMoYyhuMSlbQ0gzXSlbTkhdQyg9TylbTkhdW0NIMl1bQ0gyXVtDSF0yW0NIMl1bQ0gyXU4oW0NIM10pW0NIMl1bQ0gyXTI=

> <s_epik_cmdline>
J2VwaWtfcHl0aG9uJywgJy1waCcsICc3LjAnLCAnLXRuJywgJzgnLCAnLW1hJywgJzIwMCcsICctbWV0YWxfYmluZGluZycsICctaW1hZScsICc8aW5maWxlLm1hZT4nLCAnLW9tYWUnLCAnPG91dGZpbGUubWFlPic=

> <r_lp_tautomer_probability>
1

> <r_epik_Ionization_Penalty>
0.000968128

> <r_epik_Ionization_Penalty_Charging>
0.000718523

> <r_epik_Ionization_Penalty_Neutral>
0.000249604

> <r_epik_State_Penalty>
0.00045807

> <r_epik_Charging_Adjusted_Penalty>
0.00117659

> <i_epik_Tot_Q>
1

> <i_epik_Tot_abs_Q>
1

> <r_epik_Metal_State_Penalty>
-0

> <b_epik_Metal_Only>
0

> <s_lp_Force_Field>
OPLS_2005

> <r_lp_Energy>
21.0963

> <b_lp_Chiralities_Consistent>
1

> <s_lp_Variant>
AV-unprocessed.smi:896-2

> <Gold.Version>
5.8.1

> <Gold.Id.Protein>
6NUR|6NUR_protein|mol2

> <Gold.PLP.Fitness>
43.6372

> <Gold.PLP.PLP>
-33.1588

> <Gold.PLP.part.hbond>
-4.0000

> <Gold.PLP.part.metal>
0.0000

> <Gold.PLP.part.buried>
1.4966

> <Gold.PLP.part.nonpolar>
-29.9304

> <Gold.PLP.part.repulsive>
0.2719

> <Gold.PLP.ligand.clash>
0.0000

> <Gold.PLP.ligand.torsion>
0.7153

> <Gold.PLP.Chemscore.Hbond>
3.9500

> <Gold.PLP.Chemscore.CHOScore>
0.0000

> <Gold.PLP.Chemscore.Metal>
0.0000

> <Gold.Chemscore.Hbonds>
donor molecule, donor type, donor heavy atom, donor atom, acceptor molecule, acceptor atom, score
      L1  H     7    28       P1  7948  1.00
      L1  H    10    29       P1  7948  1.00
      L1  H    16    49       P1  7921  1.00
      P1  H  7989  7998       L1    22  1.00

> <Gold.PLP.Chemscore.Internal.Correction>
0.0591

> <Gold.Rescore>
     Score         DG    S(hbond)    S(metal)    S(lipo)     H(rot)  DE(clash)    DE(int)     intcor
     19.56     -21.62       2.95        0.00      89.86       1.65       0.21       1.84       ----

> <Gold.Chemscore.Fitness>
19.5623

> <Gold.Chemscore.DG>
-21.6151

> <Gold.Chemscore.ZeroCoef>
-5.4800

> <Gold.Chemscore.Hbond>
2.9495

> <Gold.Chemscore.Metal>
0.0000

> <Gold.Chemscore.Lipo>
89.8573

> <Gold.Chemscore.Internal_Hbond>
0.0000

> <Gold.Chemscore.DEClash>
0.2128

> <Gold.Chemscore.DEInternal>
1.8399

> <Gold.Chemscore.Rot>
1.6521

> <Gold.Chemscore.Internal.Correction>
   9.000000E+99

> <Gold.Chemscore.Hbonds>
donor molecule, donor type, donor heavy atom, donor atom, acceptor molecule, acceptor atom, score
      L1  H     7    28       P1  7948  0.99
      L1  H    10    29       P1  7948  0.94
      L1  H    16    49       P1  7921  0.43
      P1  H  7989  7998       L1    22  0.06

> <Gold.Chemscore.Hbond.Weighted>
-9.8512

> <Gold.Chemscore.Metal.Weighted>
-0.0000

> <Gold.Chemscore.Lipo.Weighted>
-10.5133

> <Gold.Chemscore.Internal_Hbond.Weighted>
0.0000

> <Gold.Chemscore.DEClash.Weighted>
0.2128

> <Gold.Chemscore.DEInternal.Weighted>
1.8399

> <Gold.Chemscore.Rot.Weighted>
4.2294

> <Gold.Chemscore.Internal.Correction.Weighted>
   9.000000E+99

> <Gold.Protein.RotatedTorsions>
[ 6907 6896 6895 6894 ] final  127.93 input  -60.11 | X-H torsion
[ 7974 7965 7964 7962 ] final  -35.21 input  175.53 | X-H torsion
[ 8008 7997 7996 7995 ] final  109.18 input   59.86 | X-H torsion
[ 10167 10162 10161 10158 ] final -124.28 input  -65.29 | X-H torsion
[ 10718 10713 10712 10709 ] final  -88.44 input   66.30 | X-H torsion
[ 10763 10752 10751 10750 ] final -119.94 input  -60.55 | X-H torsion
[ 11005 11000 10999 10996 ] final    1.55 input  -57.11 | X-H torsion

> <Gold.Protein.ActiveResidues>
 VAL166  LYS551  ARG553  GLY616  TRP617  ASP618  TYR619  PRO620  LYS621  CYS622 
 ASP623  PHE694  ASN695  SER759  ASP760  ASP761  ALA762  ILE779  LEU786  VAL792 
 PHE793  MET794  SER795  GLU796  ALA797  LYS798  CYS799  TRP800  GLU811  SER814 

> <Gold.Protein.RotatedAtoms>
  152.3767  133.6490  159.6128 H   0  0  0  0  0  0  0  0  0  0  0  0  # atno 6907 bound_to 6896
  150.7709  133.9182  159.3399 H   0  0  0  0  0  0  0  0  0  0  0  0  # atno 6908 bound_to 6896
  151.6995  135.0934  160.0299 H   0  0  0  0  0  0  0  0  0  0  0  0  # atno 6909 bound_to 6896
  146.0765  140.6132  142.8928 H   0  0  0  0  0  0  0  0  0  0  0  0  # atno 7974 bound_to 7965
  156.1960  140.3062  155.9428 H   0  0  0  0  0  0  0  0  0  0  0  0  # atno 8008 bound_to 7997
  155.3065  140.0449  157.3049 H   0  0  0  0  0  0  0  0  0  0  0  0  # atno 8009 bound_to 7997
  154.5510  140.2291  155.8494 H   0  0  0  0  0  0  0  0  0  0  0  0  # atno 8010 bound_to 7997
  139.9945  143.5606  152.2329 H   0  0  0  0  0  0  0  0  0  0  0  0  # atno 10167 bound_to 10162
  155.9983  130.4836  150.5020 H   0  0  0  0  0  0  0  0  0  0  0  0  # atno 10718 bound_to 10713
  154.8631  135.4220  154.2380 H   0  0  0  0  0  0  0  0  0  0  0  0  # atno 10763 bound_to 10752
  153.3351  135.6990  153.6920 H   0  0  0  0  0  0  0  0  0  0  0  0  # atno 10764 bound_to 10752
  153.5921  135.3553  155.2888 H   0  0  0  0  0  0  0  0  0  0  0  0  # atno 10765 bound_to 10752
  140.6142  133.9720  155.8192 H   0  0  0  0  0  0  0  0  0  0  0  0  # atno 11005 bound_to 11000
  144.7265  140.4541  143.6969 LP  0  0  0  0  0  0  0  0  0  0  0  0  # atno 17320 bound_to 7965
  145.6296  139.1534  143.2977 LP  0  0  0  0  0  0  0  0  0  0  0  0  # atno 17321 bound_to 7965
  139.6316  144.7645  151.2524 LP  0  0  0  0  0  0  0  0  0  0  0  0  # atno 17342 bound_to 10162
  140.7442  143.6469  150.8283 LP  0  0  0  0  0  0  0  0  0  0  0  0  # atno 17343 bound_to 10162
  157.3003  131.0644  151.2072 LP  0  0  0  0  0  0  0  0  0  0  0  0  # atno 17370 bound_to 10713
  157.3054  130.6863  149.6186 LP  0  0  0  0  0  0  0  0  0  0  0  0  # atno 17371 bound_to 10713
  141.0787  134.0095  157.3419 LP  0  0  0  0  0  0  0  0  0  0  0  0  # atno 17394 bound_to 11000
  139.9180  135.0198  156.7954 LP  0  0  0  0  0  0  0  0  0  0  0  0  # atno 17395 bound_to 11000

$$$$
