AV-unprocessed.smi:3331|AV-procd|sdf|12827|dock8
  -GOLD-   2272019203D 1   1.00000     0.00000
 Structure written by MMmdl.
 46 47  0  0  0  0  0  0  0  0  1 V2000
  149.5045  136.1228  157.7837 C   0  0  0  0  0  0  0  0  0  0  0  0
  149.9237  137.4872  157.2197 C   0  0  2  0  0  0  0  0  0  0  0  0
  150.8536  137.3346  155.9944 C   0  0  0  0  0  0  0  0  0  0  0  0
  151.3959  138.6917  155.4892 C   0  0  2  0  0  0  0  0  0  0  0  0
  152.4168  138.5055  154.3585 C   0  0  0  0  0  0  0  0  0  0  0  0
  151.9856  139.5032  156.6625 C   0  0  0  0  0  0  0  0  0  0  0  0
  150.9462  139.6550  157.6882 N   0  0  0  0  0  0  0  0  0  0  0  0
  150.3018  140.8303  157.8995 C   0  0  0  0  0  0  0  0  0  0  0  0
  149.3289  140.9105  158.6527 O   0  0  0  0  0  0  0  0  0  0  0  0
  150.7917  142.1230  157.2037 C   0  0  1  0  0  0  0  0  0  0  0  0
  150.6286  141.9937  155.6810 C   0  0  0  0  0  0  0  0  0  0  0  0
  150.0796  143.3244  157.6722 N   0  0  0  0  0  0  0  0  0  0  0  0
  150.5922  143.8423  158.9379 C   0  0  0  0  0  0  0  0  0  0  0  0
  152.1285  143.8108  158.9328 C   0  0  0  0  0  0  0  0  0  0  0  0
  152.6557  143.1190  160.0955 N   0  0  0  0  0  0  0  0  0  0  0  0
  153.5175  142.0431  160.1371 C   0  0  0  0  0  0  0  0  0  0  0  0
  153.7468  141.7572  161.4524 C   0  0  0  0  0  0  0  0  0  0  0  0
  152.9713  142.7260  162.1488 C   0  0  0  0  0  0  0  0  0  0  0  0
  152.3181  143.5387  161.3341 N   0  0  0  0  0  0  0  0  0  0  0  0
  150.6103  138.3591  158.2901 C   0  0  0  0  0  0  0  0  0  0  0  0
  150.3674  135.5557  158.1342 H   0  0  0  0  0  0  0  0  0  0  0  0
  148.9977  135.5242  157.0262 H   0  0  0  0  0  0  0  0  0  0  0  0
  148.8194  136.2401  158.6237 H   0  0  0  0  0  0  0  0  0  0  0  0
  149.0175  138.0015  156.8954 H   0  0  0  0  0  0  0  0  0  0  0  0
  151.6949  136.6943  156.2641 H   0  0  0  0  0  0  0  0  0  0  0  0
  150.3258  136.8223  155.1892 H   0  0  0  0  0  0  0  0  0  0  0  0
  150.5560  139.2573  155.0820 H   0  0  0  0  0  0  0  0  0  0  0  0
  153.2879  137.9444  154.6985 H   0  0  0  0  0  0  0  0  0  0  0  0
  152.7665  139.4679  153.9834 H   0  0  0  0  0  0  0  0  0  0  0  0
  151.9783  137.9646  153.5193 H   0  0  0  0  0  0  0  0  0  0  0  0
  152.8480  138.9876  157.0876 H   0  0  0  0  0  0  0  0  0  0  0  0
  152.3654  140.4603  156.3022 H   0  0  0  0  0  0  0  0  0  0  0  0
  151.8458  142.2905  157.4216 H   0  0  0  0  0  0  0  0  0  0  0  0
  151.1573  141.1222  155.2932 H   0  0  0  0  0  0  0  0  0  0  0  0
  151.0290  142.8697  155.1698 H   0  0  0  0  0  0  0  0  0  0  0  0
  149.5794  141.8967  155.3982 H   0  0  0  0  0  0  0  0  0  0  0  0
  150.0804  144.0594  156.9800 H   0  0  0  0  0  0  0  0  0  0  0  0
  150.2541  144.8605  159.1330 H   0  0  0  0  0  0  0  0  0  0  0  0
  150.2068  143.2232  159.7486 H   0  0  0  0  0  0  0  0  0  0  0  0
  152.4858  143.2989  158.0382 H   0  0  0  0  0  0  0  0  0  0  0  0
  152.5408  144.8203  158.9008 H   0  0  0  0  0  0  0  0  0  0  0  0
  153.8960  141.5806  159.2374 H   0  0  0  0  0  0  0  0  0  0  0  0
  154.3755  140.9774  161.8557 H   0  0  0  0  0  0  0  0  0  0  0  0
  152.8643  142.8623  163.2148 H   0  0  0  0  0  0  0  0  0  0  0  0
  149.9974  138.4392  159.1857 H   0  0  0  0  0  0  0  0  0  0  0  0
  151.5277  137.8748  158.6285 H   0  0  0  0  0  0  0  0  0  0  0  0
  1  2  1  0  0  0  0
  1 21  1  0  0  0  0
  1 22  1  0  0  0  0
  1 23  1  0  0  0  0
  2 20  1  0  0  0  0
  2  3  1  0  0  0  0
  2 24  1  0  0  0  0
  3  4  1  0  0  0  0
  3 25  1  0  0  0  0
  3 26  1  0  0  0  0
  4  5  1  0  0  0  0
  4  6  1  0  0  0  0
  4 27  1  0  0  0  0
  5 28  1  0  0  0  0
  5 29  1  0  0  0  0
  5 30  1  0  0  0  0
  6  7  1  0  0  0  0
  6 31  1  0  0  0  0
  6 32  1  0  0  0  0
  7  8  1  0  0  0  0
  7 20  1  0  0  0  0
  8  9  2  0  0  0  0
  8 10  1  0  0  0  0
 10 11  1  0  0  0  0
 10 12  1  0  0  0  0
 10 33  1  0  0  0  0
 11 34  1  0  0  0  0
 11 35  1  0  0  0  0
 11 36  1  0  0  0  0
 12 13  1  0  0  0  0
 12 37  1  0  0  0  0
 13 14  1  0  0  0  0
 13 38  1  0  0  0  0
 13 39  1  0  0  0  0
 14 15  1  0  0  0  0
 14 40  1  0  0  0  0
 14 41  1  0  0  0  0
 15 19  1  0  0  0  0
 15 16  1  0  0  0  0
 16 17  2  0  0  0  0
 16 42  1  0  0  0  0
 17 18  1  0  0  0  0
 17 43  1  0  0  0  0
 18 19  2  0  0  0  0
 18 44  1  0  0  0  0
 20 45  1  0  0  0  0
 20 46  1  0  0  0  0
M  END
> <s_m_source_file>
AV-unprocessed.smi

> <i_m_source_file_index>
3331

> <i_lp_mmshare_version>
43012

> <i_f3d_flags>
0

> <s_epik_input>
W0NIM11bQ0BASF0xW0NIMl1bQ0BASF0oW0NIM10pW0NIMl1OKFtDSDJdMSlDKD1PKVtDQEhdKFtDSDNdKVtOSF1bQ0gyXVtDSDJdbjJbY0hdW2NIXVtjSF1uMg==

> <s_epik_cmdline>
J2VwaWtfcHl0aG9uJywgJy1waCcsICc3LjAnLCAnLXRuJywgJzgnLCAnLW1hJywgJzIwMCcsICctbWV0YWxfYmluZGluZycsICctaW1hZScsICc8aW5maWxlLm1hZT4nLCAnLW9tYWUnLCAnPG91dGZpbGUubWFlPic=

> <r_lp_tautomer_probability>
1

> <r_epik_Ionization_Penalty>
0.767994

> <r_epik_Ionization_Penalty_Charging>
0

> <r_epik_Ionization_Penalty_Neutral>
0.767994

> <r_epik_State_Penalty>
0.795453

> <r_epik_Charging_Adjusted_Penalty>
0.795453

> <i_epik_Tot_Q>
0

> <i_epik_Tot_abs_Q>
0

> <r_epik_Metal_State_Penalty>
0.794784

> <b_epik_Metal_Only>
0

> <s_lp_Force_Field>
OPLS_2005

> <r_lp_Energy>
28.4318

> <b_lp_Chiralities_Consistent>
1

> <s_lp_Variant>
AV-unprocessed.smi:3331-11

> <Gold.Version>
5.8.1

> <Gold.Id.Protein>
6NUR|6NUR_protein|mol2

> <Gold.PLP.Fitness>
40.8005

> <Gold.PLP.PLP>
-39.9177

> <Gold.PLP.part.hbond>
-2.5049

> <Gold.PLP.part.metal>
0.0000

> <Gold.PLP.part.buried>
-4.0509

> <Gold.PLP.part.nonpolar>
-33.4902

> <Gold.PLP.part.repulsive>
0.1412

> <Gold.PLP.ligand.clash>
0.0000

> <Gold.PLP.ligand.torsion>
0.7507

> <Gold.PLP.Chemscore.Hbond>
0.7680

> <Gold.PLP.Chemscore.CHOScore>
0.0000

> <Gold.PLP.Chemscore.Metal>
0.0000

> <Gold.Chemscore.Hbonds>
donor molecule, donor type, donor heavy atom, donor atom, acceptor molecule, acceptor atom, score
      L1  H    12    37       P1  8028  0.75

> <Gold.PLP.Chemscore.Internal.Correction>
0.0801

> <Gold.Rescore>
     Score         DG    S(hbond)    S(metal)    S(lipo)     H(rot)  DE(clash)    DE(int)     intcor
     15.12     -16.29       0.93        0.00     102.33       1.66       0.11       1.05       ----

> <Gold.Chemscore.Fitness>
15.1244

> <Gold.Chemscore.DG>
-16.2862

> <Gold.Chemscore.ZeroCoef>
-5.4800

> <Gold.Chemscore.Hbond>
0.9270

> <Gold.Chemscore.Metal>
0.0000

> <Gold.Chemscore.Lipo>
102.3260

> <Gold.Chemscore.Internal_Hbond>
0.0000

> <Gold.Chemscore.DEClash>
0.1099

> <Gold.Chemscore.DEInternal>
1.0519

> <Gold.Chemscore.Rot>
1.6649

> <Gold.Chemscore.Internal.Correction>
   9.000000E+99

> <Gold.Chemscore.Hbonds>
donor molecule, donor type, donor heavy atom, donor atom, acceptor molecule, acceptor atom, score
      L1  H    12    37       P1  8028  0.71

> <Gold.Chemscore.Hbond.Weighted>
-3.0961

> <Gold.Chemscore.Metal.Weighted>
-0.0000

> <Gold.Chemscore.Lipo.Weighted>
-11.9721

> <Gold.Chemscore.Internal_Hbond.Weighted>
0.0000

> <Gold.Chemscore.DEClash.Weighted>
0.1099

> <Gold.Chemscore.DEInternal.Weighted>
1.0519

> <Gold.Chemscore.Rot.Weighted>
4.2621

> <Gold.Chemscore.Internal.Correction.Weighted>
   9.000000E+99

> <Gold.Protein.RotatedTorsions>
[ 6907 6896 6895 6894 ] final -147.58 input  -60.11 | X-H torsion
[ 7974 7965 7964 7962 ] final -133.38 input  175.53 | X-H torsion
[ 8008 7997 7996 7995 ] final -159.47 input   59.86 | X-H torsion
[ 10167 10162 10161 10158 ] final   50.54 input  -65.29 | X-H torsion
[ 10718 10713 10712 10709 ] final -146.55 input   66.30 | X-H torsion
[ 10763 10752 10751 10750 ] final  129.25 input  -60.55 | X-H torsion
[ 11005 11000 10999 10996 ] final -158.13 input  -57.11 | X-H torsion

> <Gold.Protein.ActiveResidues>
 VAL166  LYS551  ARG553  GLY616  TRP617  ASP618  TYR619  PRO620  LYS621  CYS622 
 ASP623  PHE694  ASN695  SER759  ASP760  ASP761  ALA762  ILE779  LEU786  VAL792 
 PHE793  MET794  SER795  GLU796  ALA797  LYS798  CYS799  TRP800  GLU811  SER814 

> <Gold.Protein.RotatedAtoms>
  151.1576  133.4866  159.2594 H   0  0  0  0  0  0  0  0  0  0  0  0  # atno 6907 bound_to 6896
  151.1487  135.0216  159.8669 H   0  0  0  0  0  0  0  0  0  0  0  0  # atno 6908 bound_to 6896
  152.5463  134.1463  159.8553 H   0  0  0  0  0  0  0  0  0  0  0  0  # atno 6909 bound_to 6896
  144.9199  140.7001  143.4972 H   0  0  0  0  0  0  0  0  0  0  0  0  # atno 7974 bound_to 7965
  155.7631  140.0842  157.2145 H   0  0  0  0  0  0  0  0  0  0  0  0  # atno 8008 bound_to 7997
  154.4002  140.1539  156.2912 H   0  0  0  0  0  0  0  0  0  0  0  0  # atno 8009 bound_to 7997
  155.8820  140.3420  155.5897 H   0  0  0  0  0  0  0  0  0  0  0  0  # atno 8010 bound_to 7997
  140.2713  144.3262  150.6289 H   0  0  0  0  0  0  0  0  0  0  0  0  # atno 10167 bound_to 10162
  156.3964  130.7911  151.2118 H   0  0  0  0  0  0  0  0  0  0  0  0  # atno 10718 bound_to 10713
  153.7387  135.3227  155.3300 H   0  0  0  0  0  0  0  0  0  0  0  0  # atno 10763 bound_to 10752
  154.8302  135.4539  154.1048 H   0  0  0  0  0  0  0  0  0  0  0  0  # atno 10764 bound_to 10752
  153.2217  135.6949  153.8074 H   0  0  0  0  0  0  0  0  0  0  0  0  # atno 10765 bound_to 10752
  140.6569  134.4390  157.5235 H   0  0  0  0  0  0  0  0  0  0  0  0  # atno 11005 bound_to 11000
  145.3314  139.1758  143.4535 LP  0  0  0  0  0  0  0  0  0  0  0  0  # atno 17320 bound_to 7965
  146.3199  140.3344  142.8643 LP  0  0  0  0  0  0  0  0  0  0  0  0  # atno 17321 bound_to 7965
  140.5887  143.2169  151.7293 LP  0  0  0  0  0  0  0  0  0  0  0  0  # atno 17342 bound_to 10162
  139.4988  144.3971  152.0219 LP  0  0  0  0  0  0  0  0  0  0  0  0  # atno 17343 bound_to 10162
  157.7502  131.0300  150.4118 LP  0  0  0  0  0  0  0  0  0  0  0  0  # atno 17370 bound_to 10713
  156.4389  130.3987  149.6710 LP  0  0  0  0  0  0  0  0  0  0  0  0  # atno 17371 bound_to 10713
  139.9026  134.8521  156.1833 LP  0  0  0  0  0  0  0  0  0  0  0  0  # atno 17394 bound_to 11000
  141.0494  133.6896  156.1744 LP  0  0  0  0  0  0  0  0  0  0  0  0  # atno 17395 bound_to 11000

$$$$
