AV-unprocessed.smi:2148|AV-procd|sdf|8746|dock5
  -GOLD-   2272011523D 1   1.00000     0.00000
 Structure written by MMmdl.
 44 45  0  0  0  0  0  0  0  0  1 V2000
  145.6371  141.6947  155.5916 C   0  0  0  0  0  0  0  0  0  0  0  0
  146.5018  142.5843  154.2686 S   0  0  0  0  0  0  0  0  0  0  0  0
  147.7674  141.3660  153.7988 C   0  0  2  0  0  0  0  0  0  0  0  0
  147.1027  140.1067  153.2197 C   0  0  0  0  0  0  0  0  0  0  0  0
  148.6912  141.0162  154.9731 C   0  0  0  0  0  0  0  0  0  0  0  0
  148.7194  139.8640  155.4059 O   0  0  0  0  0  0  0  0  0  0  0  0
  149.4058  142.0389  155.4788 N   0  0  0  0  0  0  0  0  0  0  0  0
  150.3342  142.0283  156.5547 C   0  0  0  0  0  0  0  0  0  0  0  0
  150.8852  143.1885  157.1460 C   0  0  0  0  0  0  0  0  0  0  0  0
  151.7810  143.0453  158.2227 C   0  0  0  0  0  0  0  0  0  0  0  0
  152.1000  141.7494  158.6921 C   0  0  0  0  0  0  0  0  0  0  0  0
  152.9945  141.5860  159.7721 N   0  0  0  0  0  0  0  0  0  0  0  0
  152.5840  142.2033  161.0303 C   0  0  0  0  0  0  0  0  0  0  0  0
  153.7600  142.2330  162.0253 C   0  0  1  0  0  0  0  0  0  0  0  0
  153.3359  142.7577  163.4009 C   0  0  0  0  0  0  0  0  0  0  0  0
  154.2710  140.9128  162.1891 O   0  0  0  0  0  0  0  0  0  0  0  0
  154.7719  140.3685  160.9712 C   0  0  1  0  0  0  0  0  0  0  0  0
  155.3835  138.9961  161.2721 C   0  0  0  0  0  0  0  0  0  0  0  0
  153.6232  140.2788  159.9495 C   0  0  0  0  0  0  0  0  0  0  0  0
  151.5646  140.6400  158.1262 N   0  0  0  0  0  0  0  0  0  0  0  0
  150.7051  140.7816  157.0958 C   0  0  0  0  0  0  0  0  0  0  0  0
  144.8654  142.3300  156.0257 H   0  0  0  0  0  0  0  0  0  0  0  0
  146.3337  141.4106  156.3803 H   0  0  0  0  0  0  0  0  0  0  0  0
  145.1601  140.7943  155.2048 H   0  0  0  0  0  0  0  0  0  0  0  0
  148.3656  141.8141  153.0037 H   0  0  0  0  0  0  0  0  0  0  0  0
  147.8446  139.3565  152.9427 H   0  0  0  0  0  0  0  0  0  0  0  0
  146.5316  140.3473  152.3226 H   0  0  0  0  0  0  0  0  0  0  0  0
  146.4157  139.6500  153.9335 H   0  0  0  0  0  0  0  0  0  0  0  0
  149.2161  142.9473  155.0806 H   0  0  0  0  0  0  0  0  0  0  0  0
  150.6330  144.1811  156.8073 H   0  0  0  0  0  0  0  0  0  0  0  0
  152.2179  143.9272  158.6667 H   0  0  0  0  0  0  0  0  0  0  0  0
  152.2209  143.2190  160.8798 H   0  0  0  0  0  0  0  0  0  0  0  0
  151.7545  141.6294  161.4459 H   0  0  0  0  0  0  0  0  0  0  0  0
  154.5515  142.8772  161.6381 H   0  0  0  0  0  0  0  0  0  0  0  0
  152.9492  143.7745  163.3308 H   0  0  0  0  0  0  0  0  0  0  0  0
  154.1803  142.7698  164.0905 H   0  0  0  0  0  0  0  0  0  0  0  0
  152.5573  142.1325  163.8386 H   0  0  0  0  0  0  0  0  0  0  0  0
  155.5575  141.0202  160.5846 H   0  0  0  0  0  0  0  0  0  0  0  0
  155.7948  138.5439  160.3694 H   0  0  0  0  0  0  0  0  0  0  0  0
  154.6381  138.3126  161.6797 H   0  0  0  0  0  0  0  0  0  0  0  0
  156.1914  139.0811  161.9991 H   0  0  0  0  0  0  0  0  0  0  0  0
  152.8733  139.5621  160.2878 H   0  0  0  0  0  0  0  0  0  0  0  0
  154.0139  139.9183  158.9969 H   0  0  0  0  0  0  0  0  0  0  0  0
  150.3042  139.8653  156.6873 H   0  0  0  0  0  0  0  0  0  0  0  0
  1  2  1  0  0  0  0
  1 22  1  0  0  0  0
  1 23  1  0  0  0  0
  1 24  1  0  0  0  0
  2  3  1  0  0  0  0
  3  4  1  0  0  0  0
  3  5  1  0  0  0  0
  3 25  1  0  0  0  0
  4 26  1  0  0  0  0
  4 27  1  0  0  0  0
  4 28  1  0  0  0  0
  5  6  2  0  0  0  0
  5  7  1  0  0  0  0
  7  8  1  0  0  0  0
  7 29  1  0  0  0  0
  8 21  1  0  0  0  0
  8  9  2  0  0  0  0
  9 10  1  0  0  0  0
  9 30  1  0  0  0  0
 10 11  2  0  0  0  0
 10 31  1  0  0  0  0
 11 12  1  0  0  0  0
 11 20  1  0  0  0  0
 12 19  1  0  0  0  0
 12 13  1  0  0  0  0
 13 14  1  0  0  0  0
 13 32  1  0  0  0  0
 13 33  1  0  0  0  0
 14 15  1  0  0  0  0
 14 16  1  0  0  0  0
 14 34  1  0  0  0  0
 15 35  1  0  0  0  0
 15 36  1  0  0  0  0
 15 37  1  0  0  0  0
 16 17  1  0  0  0  0
 17 18  1  0  0  0  0
 17 19  1  0  0  0  0
 17 38  1  0  0  0  0
 18 39  1  0  0  0  0
 18 40  1  0  0  0  0
 18 41  1  0  0  0  0
 19 42  1  0  0  0  0
 19 43  1  0  0  0  0
 20 21  2  0  0  0  0
 21 44  1  0  0  0  0
M  END
> <s_m_source_file>
AV-unprocessed.smi

> <i_m_source_file_index>
2148

> <i_lp_mmshare_version>
43012

> <i_f3d_flags>
0

> <s_epik_input>
W0NIM11TW0NASF0oW0NIM10pQyg9TylbTkhdYzFbY0hdW2NIXWMobltjSF0xKU4yW0NIMl1bQ0BASF0oW0NIM10pT1tDQEBIXShbQ0gzXSlbQ0gyXTI=

> <s_epik_cmdline>
J2VwaWtfcHl0aG9uJywgJy1waCcsICc3LjAnLCAnLXRuJywgJzgnLCAnLW1hJywgJzIwMCcsICctbWV0YWxfYmluZGluZycsICctaW1hZScsICc8aW5maWxlLm1hZT4nLCAnLW9tYWUnLCAnPG91dGZpbGUubWFlPic=

> <r_lp_tautomer_probability>
1

> <r_epik_Ionization_Penalty>
0.000646494

> <r_epik_Ionization_Penalty_Charging>
0

> <r_epik_Ionization_Penalty_Neutral>
0.000646494

> <r_epik_State_Penalty>
0.000408447

> <r_epik_Charging_Adjusted_Penalty>
0.000408447

> <i_epik_Tot_Q>
0

> <i_epik_Tot_abs_Q>
0

> <r_epik_Metal_State_Penalty>
-0

> <b_epik_Metal_Only>
0

> <s_lp_Force_Field>
OPLS_2005

> <r_lp_Energy>
22.6119

> <b_lp_Chiralities_Consistent>
1

> <s_lp_Variant>
AV-unprocessed.smi:2148-1

> <Gold.Version>
5.8.1

> <Gold.Id.Protein>
6NUR|6NUR_protein|mol2

> <Gold.PLP.Fitness>
42.6441

> <Gold.PLP.PLP>
-40.8862

> <Gold.PLP.part.hbond>
-1.0551

> <Gold.PLP.part.metal>
0.0000

> <Gold.PLP.part.buried>
-3.3147

> <Gold.PLP.part.nonpolar>
-35.6030

> <Gold.PLP.part.repulsive>
0.2135

> <Gold.PLP.ligand.clash>
0.0000

> <Gold.PLP.ligand.torsion>
0.3311

> <Gold.PLP.Chemscore.Hbond>
0.6880

> <Gold.PLP.Chemscore.CHOScore>
0.0000

> <Gold.PLP.Chemscore.Metal>
0.0000

> <Gold.Chemscore.Hbonds>
donor molecule, donor type, donor heavy atom, donor atom, acceptor molecule, acceptor atom, score
      L1  H     7    29       P1  8028  0.80

> <Gold.PLP.Chemscore.Internal.Correction>
0.3562

> <Gold.Rescore>
     Score         DG    S(hbond)    S(metal)    S(lipo)     H(rot)  DE(clash)    DE(int)     intcor
     16.45     -18.47       0.97        0.00     111.05       1.27       0.15       1.86       ----

> <Gold.Chemscore.Fitness>
16.4510

> <Gold.Chemscore.DG>
-18.4686

> <Gold.Chemscore.ZeroCoef>
-5.4800

> <Gold.Chemscore.Hbond>
0.9691

> <Gold.Chemscore.Metal>
0.0000

> <Gold.Chemscore.Lipo>
111.0455

> <Gold.Chemscore.Internal_Hbond>
0.0000

> <Gold.Chemscore.DEClash>
0.1541

> <Gold.Chemscore.DEInternal>
1.8635

> <Gold.Chemscore.Rot>
1.2659

> <Gold.Chemscore.Internal.Correction>
   9.000000E+99

> <Gold.Chemscore.Hbonds>
donor molecule, donor type, donor heavy atom, donor atom, acceptor molecule, acceptor atom, score
      L1  H     7    29       P1  8028  0.79

> <Gold.Chemscore.Hbond.Weighted>
-3.2369

> <Gold.Chemscore.Metal.Weighted>
-0.0000

> <Gold.Chemscore.Lipo.Weighted>
-12.9923

> <Gold.Chemscore.Internal_Hbond.Weighted>
0.0000

> <Gold.Chemscore.DEClash.Weighted>
0.1541

> <Gold.Chemscore.DEInternal.Weighted>
1.8635

> <Gold.Chemscore.Rot.Weighted>
3.2406

> <Gold.Chemscore.Internal.Correction.Weighted>
   9.000000E+99

> <Gold.Protein.RotatedTorsions>
[ 6907 6896 6895 6894 ] final -115.36 input  -60.11 | X-H torsion
[ 7974 7965 7964 7962 ] final  -62.99 input  175.53 | X-H torsion
[ 8008 7997 7996 7995 ] final  131.18 input   59.86 | X-H torsion
[ 10167 10162 10161 10158 ] final  -48.58 input  -65.29 | X-H torsion
[ 10718 10713 10712 10709 ] final  149.89 input   66.30 | X-H torsion
[ 10763 10752 10751 10750 ] final  -45.07 input  -60.55 | X-H torsion
[ 11005 11000 10999 10996 ] final   37.43 input  -57.11 | X-H torsion

> <Gold.Protein.ActiveResidues>
 VAL166  LYS551  ARG553  GLY616  TRP617  ASP618  TYR619  PRO620  LYS621  CYS622 
 ASP623  PHE694  ASN695  SER759  ASP760  ASP761  ALA762  ILE779  LEU786  VAL792 
 PHE793  MET794  SER795  GLU796  ALA797  LYS798  CYS799  TRP800  GLU811  SER814 

> <Gold.Protein.RotatedAtoms>
  150.7972  133.8669  159.3247 H   0  0  0  0  0  0  0  0  0  0  0  0  # atno 6907 bound_to 6896
  151.6491  135.1002  160.0166 H   0  0  0  0  0  0  0  0  0  0  0  0  # atno 6908 bound_to 6896
  152.4055  133.6844  159.6388 H   0  0  0  0  0  0  0  0  0  0  0  0  # atno 6909 bound_to 6896
  145.7845  140.8744  143.0313 H   0  0  0  0  0  0  0  0  0  0  0  0  # atno 7974 bound_to 7965
  156.2966  140.2577  156.2883 H   0  0  0  0  0  0  0  0  0  0  0  0  # atno 8008 bound_to 7997
  154.9534  140.0394  157.2174 H   0  0  0  0  0  0  0  0  0  0  0  0  # atno 8009 bound_to 7997
  154.8014  140.2829  155.5923 H   0  0  0  0  0  0  0  0  0  0  0  0  # atno 8010 bound_to 7997
  140.6724  143.2734  151.4091 H   0  0  0  0  0  0  0  0  0  0  0  0  # atno 10167 bound_to 10162
  157.2904  131.0852  151.1466 H   0  0  0  0  0  0  0  0  0  0  0  0  # atno 10718 bound_to 10713
  154.0224  135.6667  153.4773 H   0  0  0  0  0  0  0  0  0  0  0  0  # atno 10763 bound_to 10752
  153.0574  135.5048  154.8010 H   0  0  0  0  0  0  0  0  0  0  0  0  # atno 10764 bound_to 10752
  154.6929  135.3064  154.9418 H   0  0  0  0  0  0  0  0  0  0  0  0  # atno 10765 bound_to 10752
  140.2227  134.3622  155.7998 H   0  0  0  0  0  0  0  0  0  0  0  0  # atno 11005 bound_to 11000
  144.6791  140.0036  143.7484 LP  0  0  0  0  0  0  0  0  0  0  0  0  # atno 17320 bound_to 7965
  146.0040  139.3114  143.0910 LP  0  0  0  0  0  0  0  0  0  0  0  0  # atno 17321 bound_to 7965
  139.5999  144.1317  152.2187 LP  0  0  0  0  0  0  0  0  0  0  0  0  # atno 17342 bound_to 10162
  140.0698  144.5789  150.7200 LP  0  0  0  0  0  0  0  0  0  0  0  0  # atno 17343 bound_to 10162
  157.2865  130.6775  149.6092 LP  0  0  0  0  0  0  0  0  0  0  0  0  # atno 17370 bound_to 10713
  155.9667  130.4434  150.5419 LP  0  0  0  0  0  0  0  0  0  0  0  0  # atno 17371 bound_to 10713
  141.2222  133.7202  156.8602 LP  0  0  0  0  0  0  0  0  0  0  0  0  # atno 17394 bound_to 11000
  140.1833  134.9018  157.2974 LP  0  0  0  0  0  0  0  0  0  0  0  0  # atno 17395 bound_to 11000

$$$$
