AV-unprocessed.smi:240|AV-procd|sdf|1838|dock6
  -GOLD-   2262020453D 1   1.00000     0.00000
 Structure written by MMmdl.
 55 59  0  0  0  0  0  0  0  0  1 V2000
  149.9195  140.4862  153.5072 O   0  0  0  0  0  0  0  0  0  0  0  0
  148.9465  140.0867  154.4553 C   0  0  2  0  0  0  0  0  0  0  0  0
  147.5635  140.1795  153.8016 C   0  0  0  0  0  0  0  0  0  0  0  0
  147.0473  141.5931  154.0948 C   0  0  0  0  0  0  0  0  0  0  0  0
  148.0647  142.2303  155.0484 C   0  0  0  0  0  0  0  0  0  0  0  0
  148.8825  141.0703  155.6457 C   0  0  2  0  0  0  0  0  0  0  0  0
  150.2352  141.4836  156.3198 C   0  0  1  0  0  0  0  0  0  0  0  0
  150.0080  142.6254  157.3460 C   0  0  0  0  0  0  0  0  0  0  0  0
  151.2194  142.9854  157.9986 O   0  0  0  0  0  0  0  0  0  0  0  0
  151.7591  141.9030  158.7403 C   0  0  0  0  0  0  0  0  0  0  0  0
  152.0958  140.7706  157.7654 C   0  0  0  0  0  0  0  0  0  0  0  0
  150.9070  140.3732  157.0173 N   0  0  0  0  0  0  0  0  0  0  0  0
  151.1553  139.2522  156.3071 C   0  0  0  0  0  0  0  0  0  0  0  0
  151.9480  139.3770  155.2147 N   0  0  0  0  0  0  0  0  0  0  0  0
  152.2394  138.3016  154.4766 C   0  0  0  0  0  0  0  0  0  0  0  0
  151.8462  137.0379  154.6505 N   0  0  0  0  0  0  0  0  0  0  0  0
  151.0342  136.9138  155.7397 C   0  0  0  0  0  0  0  0  0  0  0  0
  150.6399  137.9621  156.6173 C   0  0  0  0  0  0  0  0  0  0  0  0
  149.8213  137.4593  157.6209 N   0  0  0  0  0  0  0  0  0  0  0  0
  149.7399  136.1846  157.3539 C   0  0  0  0  0  0  0  0  0  0  0  0
  150.4266  135.7724  156.2337 N   0  0  0  0  0  0  0  0  0  0  0  0
  150.5082  134.4169  155.7097 C   0  0  0  0  0  0  0  0  0  0  0  0
  150.9359  133.3534  156.7541 C   0  0  2  0  0  0  0  0  0  0  0  0
  152.0462  133.8375  157.4869 O   0  0  0  0  0  0  0  0  0  0  0  0
  151.2897  131.9892  156.1557 C   0  0  0  0  0  0  0  0  0  0  0  0
  150.0299  131.1698  156.3953 C   0  0  0  0  0  0  0  0  0  0  0  0
  149.6267  131.6072  157.6802 O   0  0  0  0  0  0  0  0  0  0  0  0
  149.7849  133.0197  157.7255 C   0  0  0  0  0  0  0  0  0  0  0  0
  149.5300  140.4597  152.6462 H   0  0  0  0  0  0  0  0  0  0  0  0
  149.1482  139.0608  154.7578 H   0  0  0  0  0  0  0  0  0  0  0  0
  147.5835  139.9536  152.7345 H   0  0  0  0  0  0  0  0  0  0  0  0
  146.8957  139.4540  154.2679 H   0  0  0  0  0  0  0  0  0  0  0  0
  146.9503  142.1818  153.1821 H   0  0  0  0  0  0  0  0  0  0  0  0
  146.0613  141.5433  154.5581 H   0  0  0  0  0  0  0  0  0  0  0  0
  148.7209  142.8913  154.4801 H   0  0  0  0  0  0  0  0  0  0  0  0
  147.5730  142.8330  155.8126 H   0  0  0  0  0  0  0  0  0  0  0  0
  148.2559  140.6154  156.4153 H   0  0  0  0  0  0  0  0  0  0  0  0
  150.9133  141.8685  155.5577 H   0  0  0  0  0  0  0  0  0  0  0  0
  149.6381  143.5241  156.8534 H   0  0  0  0  0  0  0  0  0  0  0  0
  149.2603  142.3397  158.0882 H   0  0  0  0  0  0  0  0  0  0  0  0
  152.6587  142.2366  159.2574 H   0  0  0  0  0  0  0  0  0  0  0  0
  151.0526  141.5710  159.5029 H   0  0  0  0  0  0  0  0  0  0  0  0
  152.8749  141.1023  157.0782 H   0  0  0  0  0  0  0  0  0  0  0  0
  152.4943  139.9178  158.3174 H   0  0  0  0  0  0  0  0  0  0  0  0
  152.8813  138.4783  153.6262 H   0  0  0  0  0  0  0  0  0  0  0  0
  149.1683  135.5056  157.9699 H   0  0  0  0  0  0  0  0  0  0  0  0
  149.5349  134.1576  155.2906 H   0  0  0  0  0  0  0  0  0  0  0  0
  151.2070  134.4210  154.8721 H   0  0  0  0  0  0  0  0  0  0  0  0
  152.8320  133.6600  156.9929 H   0  0  0  0  0  0  0  0  0  0  0  0
  151.5763  132.0146  155.1059 H   0  0  0  0  0  0  0  0  0  0  0  0
  152.1132  131.5281  156.7039 H   0  0  0  0  0  0  0  0  0  0  0  0
  149.2588  131.4080  155.6608 H   0  0  0  0  0  0  0  0  0  0  0  0
  150.2130  130.0954  156.3729 H   0  0  0  0  0  0  0  0  0  0  0  0
  149.9722  133.3489  158.7484 H   0  0  0  0  0  0  0  0  0  0  0  0
  148.8495  133.4789  157.4025 H   0  0  0  0  0  0  0  0  0  0  0  0
  1  2  1  0  0  0  0
  1 29  1  0  0  0  0
  2  6  1  0  0  0  0
  2  3  1  0  0  0  0
  2 30  1  0  0  0  0
  3  4  1  0  0  0  0
  3 31  1  0  0  0  0
  3 32  1  0  0  0  0
  4  5  1  0  0  0  0
  4 33  1  0  0  0  0
  4 34  1  0  0  0  0
  5  6  1  0  0  0  0
  5 35  1  0  0  0  0
  5 36  1  0  0  0  0
  6  7  1  0  0  0  0
  6 37  1  0  0  0  0
  7 12  1  0  0  0  0
  7  8  1  0  0  0  0
  7 38  1  0  0  0  0
  8  9  1  0  0  0  0
  8 39  1  0  0  0  0
  8 40  1  0  0  0  0
  9 10  1  0  0  0  0
 10 11  1  0  0  0  0
 10 41  1  0  0  0  0
 10 42  1  0  0  0  0
 11 12  1  0  0  0  0
 11 43  1  0  0  0  0
 11 44  1  0  0  0  0
 12 13  1  0  0  0  0
 13 18  1  0  0  0  0
 13 14  2  0  0  0  0
 14 15  1  0  0  0  0
 15 16  2  0  0  0  0
 15 45  1  0  0  0  0
 16 17  1  0  0  0  0
 17 21  1  0  0  0  0
 17 18  2  0  0  0  0
 18 19  1  0  0  0  0
 19 20  2  0  0  0  0
 20 21  1  0  0  0  0
 20 46  1  0  0  0  0
 21 22  1  0  0  0  0
 22 23  1  0  0  0  0
 22 47  1  0  0  0  0
 22 48  1  0  0  0  0
 23 28  1  0  0  0  0
 23 24  1  0  0  0  0
 23 25  1  0  0  0  0
 24 49  1  0  0  0  0
 25 26  1  0  0  0  0
 25 50  1  0  0  0  0
 25 51  1  0  0  0  0
 26 27  1  0  0  0  0
 26 52  1  0  0  0  0
 26 53  1  0  0  0  0
 27 28  1  0  0  0  0
 28 54  1  0  0  0  0
 28 55  1  0  0  0  0
M  END
> <s_m_source_file>
AV-unprocessed.smi

> <i_m_source_file_index>
240

> <i_lp_mmshare_version>
43012

> <i_f3d_flags>
0

> <s_epik_input>
W09IXVtDQEBIXTFbQ0gyXVtDSDJdW0NIMl1bQ0BIXTFbQ0BASF0yW0NIMl1PW0NIMl1bQ0gyXU4yYyhuW2NIXW4zKWMoYzM0KW5bY0hdbjRbQ0gyXVtDQEBdNShbT0hdKVtDSDJdW0NIMl1PW0NIMl01

> <s_epik_cmdline>
J2VwaWtfcHl0aG9uJywgJy1waCcsICc3LjAnLCAnLXRuJywgJzgnLCAnLW1hJywgJzIwMCcsICctbWV0YWxfYmluZGluZycsICctaW1hZScsICc8aW5maWxlLm1hZT4nLCAnLW9tYWUnLCAnPG91dGZpbGUubWFlPic=

> <r_lp_tautomer_probability>
1

> <r_epik_Ionization_Penalty>
0.000130618

> <r_epik_Ionization_Penalty_Charging>
0

> <r_epik_Ionization_Penalty_Neutral>
0.000130618

> <r_epik_State_Penalty>
-0

> <r_epik_Charging_Adjusted_Penalty>
0

> <i_epik_Tot_Q>
0

> <i_epik_Tot_abs_Q>
0

> <r_epik_Metal_State_Penalty>
-0

> <b_epik_Metal_Only>
0

> <s_lp_Force_Field>
OPLS_2005

> <r_lp_Energy>
64.4166

> <b_lp_Chiralities_Consistent>
1

> <s_lp_Variant>
AV-unprocessed.smi:240-15

> <Gold.Version>
5.8.1

> <Gold.Id.Protein>
6NUR|6NUR_protein|mol2

> <Gold.PLP.Fitness>
44.2387

> <Gold.PLP.PLP>
-35.5909

> <Gold.PLP.part.hbond>
-3.6340

> <Gold.PLP.part.metal>
0.0000

> <Gold.PLP.part.buried>
-3.7611

> <Gold.PLP.part.nonpolar>
-29.7660

> <Gold.PLP.part.repulsive>
0.2385

> <Gold.PLP.ligand.clash>
0.0000

> <Gold.PLP.ligand.torsion>
0.3918

> <Gold.PLP.Chemscore.Hbond>
3.0299

> <Gold.PLP.Chemscore.CHOScore>
0.0000

> <Gold.PLP.Chemscore.Metal>
0.0000

> <Gold.Chemscore.Hbonds>
donor molecule, donor type, donor heavy atom, donor atom, acceptor molecule, acceptor atom, score
      L1  H     1    29       P1  7957  0.99
      P1  H  6896  6907       L1    24  0.23
      P1  H  7989  7998       L1     1  0.50
      P1  H 10752 10764       L1    16  0.99

> <Gold.PLP.Chemscore.Internal.Correction>
0.3419

> <Gold.Rescore>
     Score         DG    S(hbond)    S(metal)    S(lipo)     H(rot)  DE(clash)    DE(int)     intcor
     14.25     -14.70       2.56        0.00      71.37       3.00       0.06       0.40       ----

> <Gold.Chemscore.Fitness>
14.2461

> <Gold.Chemscore.DG>
-14.7047

> <Gold.Chemscore.ZeroCoef>
-5.4800

> <Gold.Chemscore.Hbond>
2.5643

> <Gold.Chemscore.Metal>
0.0000

> <Gold.Chemscore.Lipo>
71.3651

> <Gold.Chemscore.Internal_Hbond>
0.0000

> <Gold.Chemscore.DEClash>
0.0585

> <Gold.Chemscore.DEInternal>
0.4001

> <Gold.Chemscore.Rot>
3.0039

> <Gold.Chemscore.Internal.Correction>
   9.000000E+99

> <Gold.Chemscore.Hbonds>
donor molecule, donor type, donor heavy atom, donor atom, acceptor molecule, acceptor atom, score
      L1  H     1    29       P1  7957  0.88
      P1  H  6896  6907       L1    24  0.04
      P1  H  7989  7998       L1     1  0.41
      P1  H 10752 10764       L1    16  0.65

> <Gold.Chemscore.Hbond.Weighted>
-8.5649

> <Gold.Chemscore.Metal.Weighted>
-0.0000

> <Gold.Chemscore.Lipo.Weighted>
-8.3497

> <Gold.Chemscore.Internal_Hbond.Weighted>
0.0000

> <Gold.Chemscore.DEClash.Weighted>
0.0585

> <Gold.Chemscore.DEInternal.Weighted>
0.4001

> <Gold.Chemscore.Rot.Weighted>
7.6899

> <Gold.Chemscore.Internal.Correction.Weighted>
   9.000000E+99

> <Gold.Protein.RotatedTorsions>
[ 6907 6896 6895 6894 ] final -160.98 input  -60.11 | X-H torsion
[ 7974 7965 7964 7962 ] final   81.15 input  175.53 | X-H torsion
[ 8008 7997 7996 7995 ] final  -45.66 input   59.86 | X-H torsion
[ 10167 10162 10161 10158 ] final -128.93 input  -65.29 | X-H torsion
[ 10718 10713 10712 10709 ] final  136.10 input   66.30 | X-H torsion
[ 10763 10752 10751 10750 ] final  -59.08 input  -60.55 | X-H torsion
[ 11005 11000 10999 10996 ] final    8.90 input  -57.11 | X-H torsion

> <Gold.Protein.ActiveResidues>
 VAL166  LYS551  ARG553  GLY616  TRP617  ASP618  TYR619  PRO620  LYS621  CYS622 
 ASP623  PHE694  ASN695  SER759  ASP760  ASP761  ALA762  ILE779  LEU786  VAL792 
 PHE793  MET794  SER795  GLU796  ALA797  LYS798  CYS799  TRP800  GLU811  SER814 

> <Gold.Protein.RotatedAtoms>
  151.3575  133.3902  159.2686 H   0  0  0  0  0  0  0  0  0  0  0  0  # atno 6907 bound_to 6896
  150.9752  134.9119  159.7822 H   0  0  0  0  0  0  0  0  0  0  0  0  # atno 6908 bound_to 6896
  152.5198  134.3537  159.9312 H   0  0  0  0  0  0  0  0  0  0  0  0  # atno 6909 bound_to 6896
  145.6419  139.2427  143.2026 H   0  0  0  0  0  0  0  0  0  0  0  0  # atno 7974 bound_to 7965
  154.4002  140.1391  156.3883 H   0  0  0  0  0  0  0  0  0  0  0  0  # atno 8008 bound_to 7997
  155.7938  140.3478  155.5344 H   0  0  0  0  0  0  0  0  0  0  0  0  # atno 8009 bound_to 7997
  155.8552  140.0948  157.1639 H   0  0  0  0  0  0  0  0  0  0  0  0  # atno 8010 bound_to 7997
  139.9451  143.6119  152.2492 H   0  0  0  0  0  0  0  0  0  0  0  0  # atno 10167 bound_to 10162
  157.4502  131.1065  151.0042 H   0  0  0  0  0  0  0  0  0  0  0  0  # atno 10718 bound_to 10713
  154.2482  135.6331  153.5231 H   0  0  0  0  0  0  0  0  0  0  0  0  # atno 10763 bound_to 10752
  152.9917  135.5558  154.5837 H   0  0  0  0  0  0  0  0  0  0  0  0  # atno 10764 bound_to 10752
  154.5358  135.2891  155.1114 H   0  0  0  0  0  0  0  0  0  0  0  0  # atno 10765 bound_to 10752
  140.5317  134.0460  155.7875 H   0  0  0  0  0  0  0  0  0  0  0  0  # atno 11005 bound_to 11000
  146.1274  140.7230  142.9428 LP  0  0  0  0  0  0  0  0  0  0  0  0  # atno 17320 bound_to 7965
  144.7154  140.4191  143.7048 LP  0  0  0  0  0  0  0  0  0  0  0  0  # atno 17321 bound_to 7965
  139.6673  144.7662  151.1849 LP  0  0  0  0  0  0  0  0  0  0  0  0  # atno 17342 bound_to 10162
  140.7599  143.5918  150.8788 LP  0  0  0  0  0  0  0  0  0  0  0  0  # atno 17343 bound_to 10162
  157.0875  130.5928  149.5433 LP  0  0  0  0  0  0  0  0  0  0  0  0  # atno 17370 bound_to 10713
  155.9984  130.5058  150.7569 LP  0  0  0  0  0  0  0  0  0  0  0  0  # atno 17371 bound_to 10713
  141.1277  133.9354  157.2600 LP  0  0  0  0  0  0  0  0  0  0  0  0  # atno 17394 bound_to 11000
  139.9550  135.0167  156.9103 LP  0  0  0  0  0  0  0  0  0  0  0  0  # atno 17395 bound_to 11000

$$$$
