AV-unprocessed.smi:3179|AV-procd|sdf|12132|dock1
  -GOLD-   2272017573D 1   1.00000     0.00000
 Structure written by MMmdl.
 34 34  0  0  0  0  0  0  0  0  2 V2000
  141.6901  136.6892  153.7013 C   0  0  0  0  0  0  0  0  0  0  0  0
  142.8854  137.3723  153.0308 C   0  0  0  0  0  0  0  0  0  0  0  0
  144.0682  136.5015  153.0378 N   0  3  0  0  0  0  0  0  0  0  0  0
  145.3066  136.8566  152.6432 C   0  0  0  0  0  0  0  0  0  0  0  0
  145.5367  138.1036  152.1873 N   0  0  0  0  0  0  0  0  0  0  0  0
  146.8312  138.6214  151.7249 C   0  0  0  0  0  0  0  0  0  0  0  0
  146.8330  140.1520  151.6831 C   0  0  0  0  0  0  0  0  0  0  0  0
  146.3155  135.9657  152.7042 N   0  0  0  0  0  0  0  0  0  0  0  0
  146.2061  134.5752  153.1662 C   0  0  0  0  0  0  0  0  0  0  0  0
  146.7012  133.5947  152.0964 C   0  0  0  0  0  0  0  0  0  0  0  0
  145.5927  133.0712  151.2461 C   0  0  0  0  0  0  0  0  0  0  0  0
  144.8749  133.8363  150.4190 N   0  0  0  0  0  0  0  0  0  0  0  0
  143.8815  133.1158  149.7510 C   0  0  0  0  0  0  0  0  0  0  0  0
  143.8415  131.7891  150.0975 C   0  0  0  0  0  0  0  0  0  0  0  0
  145.0573  131.3942  151.2818 S   0  0  0  0  0  0  0  0  0  0  0  0
  140.8193  137.3454  153.6994 H   0  0  0  0  0  0  0  0  0  0  0  0
  141.9114  136.4345  154.7382 H   0  0  0  0  0  0  0  0  0  0  0  0
  141.4160  135.7720  153.1794 H   0  0  0  0  0  0  0  0  0  0  0  0
  142.6399  137.6322  152.0009 H   0  0  0  0  0  0  0  0  0  0  0  0
  143.1245  138.2998  153.5517 H   0  0  0  0  0  0  0  0  0  0  0  0
  144.7593  138.7475  152.1542 H   0  0  0  0  0  0  0  0  0  0  0  0
  147.6168  138.2640  152.3910 H   0  0  0  0  0  0  0  0  0  0  0  0
  147.0396  138.2207  150.7325 H   0  0  0  0  0  0  0  0  0  0  0  0
  147.7933  140.5275  151.3290 H   0  0  0  0  0  0  0  0  0  0  0  0
  146.6559  140.5741  152.6728 H   0  0  0  0  0  0  0  0  0  0  0  0
  146.0611  140.5298  151.0121 H   0  0  0  0  0  0  0  0  0  0  0  0
  147.2269  136.2599  152.3836 H   0  0  0  0  0  0  0  0  0  0  0  0
  146.7907  134.4561  154.0790 H   0  0  0  0  0  0  0  0  0  0  0  0
  145.1651  134.3692  153.4174 H   0  0  0  0  0  0  0  0  0  0  0  0
  147.4375  134.0789  151.4535 H   0  0  0  0  0  0  0  0  0  0  0  0
  147.2054  132.7495  152.5662 H   0  0  0  0  0  0  0  0  0  0  0  0
  143.2449  133.6285  149.0449 H   0  0  0  0  0  0  0  0  0  0  0  0
  143.1722  131.0246  149.7311 H   0  0  0  0  0  0  0  0  0  0  0  0
  143.9259  135.5564  153.3644 H   0  0  0  0  0  0  0  0  0  0  0  0
  1  2  1  0  0  0  0
  1 16  1  0  0  0  0
  1 17  1  0  0  0  0
  1 18  1  0  0  0  0
  2  3  1  0  0  0  0
  2 19  1  0  0  0  0
  2 20  1  0  0  0  0
  3  4  2  0  0  0  0
  3 34  1  0  0  0  0
  4  5  1  0  0  0  0
  4  8  1  0  0  0  0
  5  6  1  0  0  0  0
  5 21  1  0  0  0  0
  6  7  1  0  0  0  0
  6 22  1  0  0  0  0
  6 23  1  0  0  0  0
  7 24  1  0  0  0  0
  7 25  1  0  0  0  0
  7 26  1  0  0  0  0
  8  9  1  0  0  0  0
  8 27  1  0  0  0  0
  9 10  1  0  0  0  0
  9 28  1  0  0  0  0
  9 29  1  0  0  0  0
 10 11  1  0  0  0  0
 10 30  1  0  0  0  0
 10 31  1  0  0  0  0
 11 15  1  0  0  0  0
 11 12  2  0  0  0  0
 12 13  1  0  0  0  0
 13 14  2  0  0  0  0
 13 32  1  0  0  0  0
 14 15  1  0  0  0  0
 14 33  1  0  0  0  0
M  CHG  1   3   1
M  END
> <s_m_source_file>
AV-unprocessed.smi

> <i_m_source_file_index>
3179

> <i_lp_mmshare_version>
43012

> <i_f3d_flags>
0

> <s_epik_input>
W0NIM11bQ0gyXS9OPUMoXFtOSF1bQ0gyXVtDSDNdKVtOSF1bQ0gyXVtDSDJdYzFuW2NIXVtjSF1zMQ==

> <s_epik_cmdline>
J2VwaWtfcHl0aG9uJywgJy1waCcsICc3LjAnLCAnLXRuJywgJzgnLCAnLW1hJywgJzIwMCcsICctbWV0YWxfYmluZGluZycsICctaW1hZScsICc8aW5maWxlLm1hZT4nLCAnLW9tYWUnLCAnPG91dGZpbGUubWFlPic=

> <r_lp_tautomer_probability>
1

> <r_epik_Ionization_Penalty>
3.28801e-05

> <r_epik_Ionization_Penalty_Charging>
8.99277e-08

> <r_epik_Ionization_Penalty_Neutral>
3.27902e-05

> <r_epik_State_Penalty>
-0

> <r_epik_Charging_Adjusted_Penalty>
8.99277e-08

> <i_epik_Tot_Q>
1

> <i_epik_Tot_abs_Q>
1

> <r_epik_Metal_State_Penalty>
-0

> <b_epik_Metal_Only>
0

> <s_epik_Chemistry_Notes>
This compound has an imine and may undergo hydrolysis.

> <s_lp_Force_Field>
OPLS_2005

> <r_lp_Energy>
0.386487

> <b_lp_Chiralities_Consistent>
1

> <s_lp_Variant>
AV-unprocessed.smi:3179-1

> <Gold.Version>
5.8.1

> <Gold.Id.Protein>
6NUR|6NUR_protein|mol2

> <Gold.PLP.Fitness>
42.9869

> <Gold.PLP.PLP>
-26.5972

> <Gold.PLP.part.hbond>
-3.0000

> <Gold.PLP.part.metal>
0.0000

> <Gold.PLP.part.buried>
2.6202

> <Gold.PLP.part.nonpolar>
-26.5332

> <Gold.PLP.part.repulsive>
0.7661

> <Gold.PLP.ligand.clash>
0.0000

> <Gold.PLP.ligand.torsion>
0.4260

> <Gold.PLP.Chemscore.Hbond>
4.0000

> <Gold.PLP.Chemscore.CHOScore>
1.7409

> <Gold.PLP.Chemscore.Metal>
0.0000

> <Gold.Chemscore.Hbonds>
donor molecule, donor type, donor heavy atom, donor atom, acceptor molecule, acceptor atom, score
      L1  H     5    21       P1 10175  1.95
      L1  H     8    27       P1  7948  2.00
      L1  C    13    32       P1 10186  0.90
      L1  C    14    33       P1 10952  1.00

> <Gold.PLP.Chemscore.Internal.Correction>
0.0190

> <Gold.Rescore>
     Score         DG    S(hbond)    S(metal)    S(lipo)     H(rot)  DE(clash)    DE(int)     intcor
     14.62     -16.68       1.99        0.00      76.54       1.72       1.58       0.48       ----

> <Gold.Chemscore.Fitness>
14.6228

> <Gold.Chemscore.DG>
-16.6817

> <Gold.Chemscore.ZeroCoef>
-5.4800

> <Gold.Chemscore.Hbond>
1.9900

> <Gold.Chemscore.Metal>
0.0000

> <Gold.Chemscore.Lipo>
76.5374

> <Gold.Chemscore.Internal_Hbond>
0.0000

> <Gold.Chemscore.DEClash>
1.5831

> <Gold.Chemscore.DEInternal>
0.4758

> <Gold.Chemscore.Rot>
1.7187

> <Gold.Chemscore.Internal.Correction>
   9.000000E+99

> <Gold.Chemscore.Hbonds>
donor molecule, donor type, donor heavy atom, donor atom, acceptor molecule, acceptor atom, score
      L1  H     5    21       P1 10175  0.92
      L1  H     8    27       P1  7948  1.00

> <Gold.Chemscore.Hbond.Weighted>
-6.6466

> <Gold.Chemscore.Metal.Weighted>
-0.0000

> <Gold.Chemscore.Lipo.Weighted>
-8.9549

> <Gold.Chemscore.Internal_Hbond.Weighted>
0.0000

> <Gold.Chemscore.DEClash.Weighted>
1.5831

> <Gold.Chemscore.DEInternal.Weighted>
0.4758

> <Gold.Chemscore.Rot.Weighted>
4.3998

> <Gold.Chemscore.Internal.Correction.Weighted>
   9.000000E+99

> <Gold.Protein.RotatedTorsions>
[ 6907 6896 6895 6894 ] final   96.41 input  -60.11 | X-H torsion
[ 7974 7965 7964 7962 ] final -178.06 input  175.53 | X-H torsion
[ 8008 7997 7996 7995 ] final   88.61 input   59.86 | X-H torsion
[ 10167 10162 10161 10158 ] final  164.13 input  -65.29 | X-H torsion
[ 10718 10713 10712 10709 ] final  -88.94 input   66.30 | X-H torsion
[ 10763 10752 10751 10750 ] final    2.98 input  -60.55 | X-H torsion
[ 11005 11000 10999 10996 ] final -115.43 input  -57.11 | X-H torsion

> <Gold.Protein.ActiveResidues>
 VAL166  LYS551  ARG553  GLY616  TRP617  ASP618  TYR619  PRO620  LYS621  CYS622 
 ASP623  PHE694  ASN695  SER759  ASP760  ASP761  ALA762  ILE779  LEU786  VAL792 
 PHE793  MET794  SER795  GLU796  ALA797  LYS798  CYS799  TRP800  GLU811  SER814 

> <Gold.Protein.RotatedAtoms>
  152.5435  134.0891  159.8268 H   0  0  0  0  0  0  0  0  0  0  0  0  # atno 6907 bound_to 6896
  151.0983  133.5256  159.2618 H   0  0  0  0  0  0  0  0  0  0  0  0  # atno 6908 bound_to 6896
  151.2020  135.0455  159.8930 H   0  0  0  0  0  0  0  0  0  0  0  0  # atno 6909 bound_to 6896
  144.7129  140.0925  143.6420 H   0  0  0  0  0  0  0  0  0  0  0  0  # atno 7974 bound_to 7965
  155.9899  140.3369  155.6743 H   0  0  0  0  0  0  0  0  0  0  0  0  # atno 8008 bound_to 7997
  155.6435  140.0698  157.2629 H   0  0  0  0  0  0  0  0  0  0  0  0  # atno 8009 bound_to 7997
  154.4216  140.1738  156.1585 H   0  0  0  0  0  0  0  0  0  0  0  0  # atno 8010 bound_to 7997
  139.4884  144.4266  151.9121 H   0  0  0  0  0  0  0  0  0  0  0  0  # atno 10167 bound_to 10162
  155.9984  130.4854  150.5096 H   0  0  0  0  0  0  0  0  0  0  0  0  # atno 10718 bound_to 10713
  153.2889  135.6947  153.7312 H   0  0  0  0  0  0  0  0  0  0  0  0  # atno 10763 bound_to 10752
  153.6270  135.3417  155.3030 H   0  0  0  0  0  0  0  0  0  0  0  0  # atno 10764 bound_to 10752
  154.8518  135.4400  154.1966 H   0  0  0  0  0  0  0  0  0  0  0  0  # atno 10765 bound_to 10752
  141.0488  133.9720  157.2872 H   0  0  0  0  0  0  0  0  0  0  0  0  # atno 11005 bound_to 11000
  145.9608  139.2799  143.1157 LP  0  0  0  0  0  0  0  0  0  0  0  0  # atno 17320 bound_to 7965
  145.9223  140.9107  143.0399 LP  0  0  0  0  0  0  0  0  0  0  0  0  # atno 17321 bound_to 7965
  140.3713  144.2852  150.5919 LP  0  0  0  0  0  0  0  0  0  0  0  0  # atno 17342 bound_to 10162
  140.5317  143.2242  151.8228 LP  0  0  0  0  0  0  0  0  0  0  0  0  # atno 17343 bound_to 10162
  157.3070  131.0656  151.2028 LP  0  0  0  0  0  0  0  0  0  0  0  0  # atno 17370 bound_to 10713
  157.2987  130.6832  149.6152 LP  0  0  0  0  0  0  0  0  0  0  0  0  # atno 17371 bound_to 10713
  139.9333  135.0198  156.8474 LP  0  0  0  0  0  0  0  0  0  0  0  0  # atno 17394 bound_to 11000
  140.6095  134.0096  155.7571 LP  0  0  0  0  0  0  0  0  0  0  0  0  # atno 17395 bound_to 11000

$$$$
