AV-unprocessed.smi:1839|AV-procd|sdf|7486|dock4
  -GOLD-   22720 9183D 1   1.00000     0.00000
 Structure written by MMmdl.
 47 48  0  0  0  0  0  0  0  0  2 V2000
  154.7080  141.2489  162.7688 C   0  0  0  0  0  0  0  0  0  0  0  0
  153.7859  141.7666  161.7578 N   0  0  0  0  0  0  0  0  0  0  0  0
  152.8810  142.8121  162.2508 C   0  0  0  0  0  0  0  0  0  0  0  0
  153.5969  141.0917  160.5972 C   0  0  0  0  0  0  0  0  0  0  0  0
  153.9480  139.9174  160.4608 O   0  0  0  0  0  0  0  0  0  0  0  0
  152.9676  141.7690  159.6067 N   0  0  0  0  0  0  0  0  0  0  0  0
  153.2672  143.1685  159.2681 C   0  0  0  0  0  0  0  0  0  0  0  0
  151.9570  143.9225  158.9779 C   0  0  0  0  0  0  0  0  0  0  0  0
  151.1487  143.2177  157.8740 C   0  0  0  0  0  0  0  0  0  0  0  0
  150.9599  141.7180  158.1909 C   0  0  1  0  0  0  0  0  0  0  0  0
  150.2538  140.9757  157.0497 C   0  0  0  0  0  0  0  0  0  0  0  0
  149.7795  139.8546  157.2327 O   0  0  0  0  0  0  0  0  0  0  0  0
  150.1585  141.6319  155.8835 N   0  0  0  0  0  0  0  0  0  0  0  0
  149.4487  141.1527  154.7011 C   0  0  0  0  0  0  0  0  0  0  0  0
  148.0143  141.7109  154.5758 C   0  0  0  0  0  0  0  0  0  0  0  0
  147.2303  141.6991  155.8781 C   0  0  0  0  0  0  0  0  0  0  0  0
  146.2430  140.7275  156.1498 C   0  0  0  0  0  0  0  0  0  0  0  0
  145.5346  140.7878  157.3683 C   0  0  0  0  0  0  0  0  0  0  0  0
  145.8252  141.8180  158.2869 C   0  0  0  0  0  0  0  0  0  0  0  0
  146.8206  142.7628  157.9645 C   0  0  0  0  0  0  0  0  0  0  0  0
  147.4790  142.6691  156.7886 N   0  3  0  0  0  0  0  0  0  0  0  0
  152.3249  141.0631  158.4935 C   0  0  0  0  0  0  0  0  0  0  0  0
  155.6215  140.8609  162.3151 H   0  0  0  0  0  0  0  0  0  0  0  0
  154.2392  140.4443  163.3363 H   0  0  0  0  0  0  0  0  0  0  0  0
  155.0050  142.0308  163.4688 H   0  0  0  0  0  0  0  0  0  0  0  0
  151.8924  142.7553  161.7930 H   0  0  0  0  0  0  0  0  0  0  0  0
  153.2949  143.8014  162.0558 H   0  0  0  0  0  0  0  0  0  0  0  0
  152.7300  142.7250  163.3277 H   0  0  0  0  0  0  0  0  0  0  0  0
  153.8288  143.6800  160.0499 H   0  0  0  0  0  0  0  0  0  0  0  0
  153.9085  143.1888  158.3855 H   0  0  0  0  0  0  0  0  0  0  0  0
  151.3583  143.9830  159.8870 H   0  0  0  0  0  0  0  0  0  0  0  0
  152.1737  144.9495  158.6826 H   0  0  0  0  0  0  0  0  0  0  0  0
  150.1808  143.7062  157.7555 H   0  0  0  0  0  0  0  0  0  0  0  0
  151.6733  143.3367  156.9245 H   0  0  0  0  0  0  0  0  0  0  0  0
  150.3404  141.6395  159.0866 H   0  0  0  0  0  0  0  0  0  0  0  0
  150.5846  142.5455  155.8195 H   0  0  0  0  0  0  0  0  0  0  0  0
  150.0299  141.4656  153.8333 H   0  0  0  0  0  0  0  0  0  0  0  0
  149.4361  140.0619  154.6851 H   0  0  0  0  0  0  0  0  0  0  0  0
  148.0515  142.7314  154.1933 H   0  0  0  0  0  0  0  0  0  0  0  0
  147.4611  141.1353  153.8321 H   0  0  0  0  0  0  0  0  0  0  0  0
  146.0267  139.9488  155.4326 H   0  0  0  0  0  0  0  0  0  0  0  0
  144.7742  140.0543  157.5938 H   0  0  0  0  0  0  0  0  0  0  0  0
  145.2917  141.8835  159.2239 H   0  0  0  0  0  0  0  0  0  0  0  0
  147.1057  143.5859  158.6040 H   0  0  0  0  0  0  0  0  0  0  0  0
  152.9783  141.0917  157.6195 H   0  0  0  0  0  0  0  0  0  0  0  0
  152.1692  140.0098  158.7320 H   0  0  0  0  0  0  0  0  0  0  0  0
  148.1929  143.3660  156.5736 H   0  0  0  0  0  0  0  0  0  0  0  0
  1  2  1  0  0  0  0
  1 23  1  0  0  0  0
  1 24  1  0  0  0  0
  1 25  1  0  0  0  0
  2  3  1  0  0  0  0
  2  4  1  0  0  0  0
  3 26  1  0  0  0  0
  3 27  1  0  0  0  0
  3 28  1  0  0  0  0
  4  5  2  0  0  0  0
  4  6  1  0  0  0  0
  6 22  1  0  0  0  0
  6  7  1  0  0  0  0
  7  8  1  0  0  0  0
  7 29  1  0  0  0  0
  7 30  1  0  0  0  0
  8  9  1  0  0  0  0
  8 31  1  0  0  0  0
  8 32  1  0  0  0  0
  9 10  1  0  0  0  0
  9 33  1  0  0  0  0
  9 34  1  0  0  0  0
 10 11  1  0  0  0  0
 10 22  1  0  0  0  0
 10 35  1  0  0  0  0
 11 12  2  0  0  0  0
 11 13  1  0  0  0  0
 13 14  1  0  0  0  0
 13 36  1  0  0  0  0
 14 15  1  0  0  0  0
 14 37  1  0  0  0  0
 14 38  1  0  0  0  0
 15 16  1  0  0  0  0
 15 39  1  0  0  0  0
 15 40  1  0  0  0  0
 16 21  1  0  0  0  0
 16 17  2  0  0  0  0
 17 18  1  0  0  0  0
 17 41  1  0  0  0  0
 18 19  2  0  0  0  0
 18 42  1  0  0  0  0
 19 20  1  0  0  0  0
 19 43  1  0  0  0  0
 20 21  2  0  0  0  0
 20 44  1  0  0  0  0
 21 47  1  0  0  0  0
 22 45  1  0  0  0  0
 22 46  1  0  0  0  0
M  CHG  1  21   1
M  END
> <s_m_source_file>
AV-unprocessed.smi

> <i_m_source_file_index>
1839

> <i_lp_mmshare_version>
43012

> <i_f3d_flags>
0

> <s_epik_input>
W0NIM11OKFtDSDNdKUMoPU8pTjFbQ0gyXVtDSDJdW0NIMl1bQ0BIXShbQ0gyXTEpQyg9TylbTkhdW0NIMl1bQ0gyXWMyW2NIXVtjSF1bY0hdW2NIXW4y

> <s_epik_cmdline>
J2VwaWtfcHl0aG9uJywgJy1waCcsICc3LjAnLCAnLXRuJywgJzgnLCAnLW1hJywgJzIwMCcsICctbWV0YWxfYmluZGluZycsICctaW1hZScsICc8aW5maWxlLm1hZT4nLCAnLW9tYWUnLCAnPG91dGZpbGUubWFlPic=

> <r_epik_Ionization_Penalty>
1.8476

> <r_epik_Ionization_Penalty_Charging>
1.84754

> <r_epik_Ionization_Penalty_Neutral>
5.83857e-05

> <r_epik_State_Penalty>
1.96477

> <r_epik_Charging_Adjusted_Penalty>
3.81231

> <i_epik_Tot_Q>
1

> <i_epik_Tot_abs_Q>
1

> <r_epik_Metal_State_Penalty>
1.99061

> <b_epik_Metal_Only>
0

> <s_lp_Force_Field>
OPLS_2005

> <r_lp_Energy>
54.126

> <b_lp_Chiralities_Consistent>
1

> <s_lp_Variant>
AV-unprocessed.smi:1839-3

> <Gold.Version>
5.8.1

> <Gold.Id.Protein>
6NUR|6NUR_protein|mol2

> <Gold.PLP.Fitness>
45.7066

> <Gold.PLP.PLP>
-41.9423

> <Gold.PLP.part.hbond>
-1.0000

> <Gold.PLP.part.metal>
0.0000

> <Gold.PLP.part.buried>
-1.1937

> <Gold.PLP.part.nonpolar>
-39.2397

> <Gold.PLP.part.repulsive>
0.1237

> <Gold.PLP.ligand.clash>
0.6934

> <Gold.PLP.ligand.torsion>
1.4257

> <Gold.PLP.Chemscore.Hbond>
2.0000

> <Gold.PLP.Chemscore.CHOScore>
0.0000

> <Gold.PLP.Chemscore.Metal>
0.0000

> <Gold.Chemscore.Hbonds>
donor molecule, donor type, donor heavy atom, donor atom, acceptor molecule, acceptor atom, score
      L1  H    21    47       P1  8028  1.90

> <Gold.PLP.Chemscore.Internal.Correction>
1.3090

> <Gold.Rescore>
     Score         DG    S(hbond)    S(metal)    S(lipo)     H(rot)  DE(clash)    DE(int)     intcor
     10.70     -14.21       0.74        0.00      88.71       1.60       0.10       3.41       ----

> <Gold.Chemscore.Fitness>
10.7021

> <Gold.Chemscore.DG>
-14.2138

> <Gold.Chemscore.ZeroCoef>
-5.4800

> <Gold.Chemscore.Hbond>
0.7374

> <Gold.Chemscore.Metal>
0.0000

> <Gold.Chemscore.Lipo>
88.7143

> <Gold.Chemscore.Internal_Hbond>
0.0000

> <Gold.Chemscore.DEClash>
0.1045

> <Gold.Chemscore.DEInternal>
3.4072

> <Gold.Chemscore.Rot>
1.6049

> <Gold.Chemscore.Internal.Correction>
   9.000000E+99

> <Gold.Chemscore.Hbonds>
donor molecule, donor type, donor heavy atom, donor atom, acceptor molecule, acceptor atom, score
      L1  H    21    47       P1  8028  0.21

> <Gold.Chemscore.Hbond.Weighted>
-2.4629

> <Gold.Chemscore.Metal.Weighted>
-0.0000

> <Gold.Chemscore.Lipo.Weighted>
-10.3796

> <Gold.Chemscore.Internal_Hbond.Weighted>
0.0000

> <Gold.Chemscore.DEClash.Weighted>
0.1045

> <Gold.Chemscore.DEInternal.Weighted>
3.4072

> <Gold.Chemscore.Rot.Weighted>
4.1087

> <Gold.Chemscore.Internal.Correction.Weighted>
   9.000000E+99

> <Gold.Protein.RotatedTorsions>
[ 6907 6896 6895 6894 ] final   47.60 input  -60.11 | X-H torsion
[ 7974 7965 7964 7962 ] final  137.74 input  175.53 | X-H torsion
[ 8008 7997 7996 7995 ] final  -82.05 input   59.86 | X-H torsion
[ 10167 10162 10161 10158 ] final   63.83 input  -65.29 | X-H torsion
[ 10718 10713 10712 10709 ] final -170.30 input   66.30 | X-H torsion
[ 10763 10752 10751 10750 ] final   47.85 input  -60.55 | X-H torsion
[ 11005 11000 10999 10996 ] final -120.36 input  -57.11 | X-H torsion

> <Gold.Protein.ActiveResidues>
 VAL166  LYS551  ARG553  GLY616  TRP617  ASP618  TYR619  PRO620  LYS621  CYS622 
 ASP623  PHE694  ASN695  SER759  ASP760  ASP761  ALA762  ILE779  LEU786  VAL792 
 PHE793  MET794  SER795  GLU796  ALA797  LYS798  CYS799  TRP800  GLU811  SER814 

> <Gold.Protein.RotatedAtoms>
  152.2699  134.7944  160.0415 H   0  0  0  0  0  0  0  0  0  0  0  0  # atno 6907 bound_to 6896
  151.8560  133.3443  159.3697 H   0  0  0  0  0  0  0  0  0  0  0  0  # atno 6908 bound_to 6896
  150.7148  134.5180  159.5684 H   0  0  0  0  0  0  0  0  0  0  0  0  # atno 6909 bound_to 6896
  144.9439  139.4898  143.5558 H   0  0  0  0  0  0  0  0  0  0  0  0  # atno 7974 bound_to 7965
  154.6046  140.0639  156.9414 H   0  0  0  0  0  0  0  0  0  0  0  0  # atno 8008 bound_to 7997
  155.2075  140.3320  155.4315 H   0  0  0  0  0  0  0  0  0  0  0  0  # atno 8009 bound_to 7997
  156.2339  140.1854  156.7154 H   0  0  0  0  0  0  0  0  0  0  0  0  # atno 8010 bound_to 7997
  140.1288  144.4662  150.6877 H   0  0  0  0  0  0  0  0  0  0  0  0  # atno 10167 bound_to 10162
  156.7242  130.9281  151.3100 H   0  0  0  0  0  0  0  0  0  0  0  0  # atno 10718 bound_to 10713
  152.9796  135.5963  154.3830 H   0  0  0  0  0  0  0  0  0  0  0  0  # atno 10763 bound_to 10752
  154.3493  135.2767  155.2382 H   0  0  0  0  0  0  0  0  0  0  0  0  # atno 10764 bound_to 10752
  154.4429  135.6009  153.6196 H   0  0  0  0  0  0  0  0  0  0  0  0  # atno 10765 bound_to 10752
  141.0149  134.0210  157.3364 H   0  0  0  0  0  0  0  0  0  0  0  0  # atno 11005 bound_to 11000
  146.3296  139.8477  142.8879 LP  0  0  0  0  0  0  0  0  0  0  0  0  # atno 17320 bound_to 7965
  145.2948  141.0178  143.3642 LP  0  0  0  0  0  0  0  0  0  0  0  0  # atno 17321 bound_to 7965
  140.6829  143.2335  151.5337 LP  0  0  0  0  0  0  0  0  0  0  0  0  # atno 17342 bound_to 10162
  139.5530  144.2346  152.1564 LP  0  0  0  0  0  0  0  0  0  0  0  0  # atno 17343 bound_to 10162
  157.6886  130.9210  150.0452 LP  0  0  0  0  0  0  0  0  0  0  0  0  # atno 17370 bound_to 10713
  156.1574  130.3643  149.9349 LP  0  0  0  0  0  0  0  0  0  0  0  0  # atno 17371 bound_to 10713
  139.9111  135.0190  156.7694 LP  0  0  0  0  0  0  0  0  0  0  0  0  # atno 17394 bound_to 11000
  140.6672  133.9592  155.7836 LP  0  0  0  0  0  0  0  0  0  0  0  0  # atno 17395 bound_to 11000

$$$$
