AV-unprocessed.smi:2032|AV-procd|sdf|8250|dock5
  -GOLD-   2272010523D 1   1.00000     0.00000
 Structure written by MMmdl.
 41 42  0  0  0  0  0  0  0  0  2 V2000
  151.1362  141.9500  156.5020 C   0  0  0  0  0  0  0  0  0  0  0  0
  150.7662  142.2830  157.9578 C   0  0  1  0  0  0  0  0  0  0  0  0
  151.5068  141.4114  158.9916 C   0  0  0  0  0  0  0  0  0  0  0  0
  152.9232  141.7608  159.1502 N   0  0  0  0  0  0  0  0  0  0  0  0
  153.6062  140.9208  160.1633 C   0  0  1  0  0  0  0  0  0  0  0  0
  153.2690  141.3434  161.6165 C   0  0  0  0  0  0  0  0  0  0  0  0
  153.3145  139.4027  160.0033 C   0  0  0  0  0  0  0  0  0  0  0  0
  154.1004  138.5829  160.9197 N   0  0  0  0  0  0  0  0  0  0  0  0
  153.9035  137.2789  161.1548 C   0  0  0  0  0  0  0  0  0  0  0  0
  153.0015  136.6786  160.5656 O   0  0  0  0  0  0  0  0  0  0  0  0
  154.7630  136.7513  162.0564 N   0  5  0  0  0  0  0  0  0  0  0  0
  154.3153  135.8927  162.9871 C   0  0  0  0  0  0  0  0  0  0  0  0
  154.5059  134.5703  162.9116 N   0  0  0  0  0  0  0  0  0  0  0  0
  153.9546  133.8678  163.9848 C   0  0  0  0  0  0  0  0  0  0  0  0
  153.3195  134.6729  164.8929 C   0  0  0  0  0  0  0  0  0  0  0  0
  153.3964  136.3476  164.4253 S   0  0  0  0  0  0  0  0  0  0  0  0
  153.0016  143.1932  159.4521 C   0  0  0  0  0  0  0  0  0  0  0  0
  152.3091  144.0677  158.3910 C   0  0  2  0  0  0  0  0  0  0  0  0
  152.3263  145.5527  158.7690 C   0  0  0  0  0  0  0  0  0  0  0  0
  150.9508  143.6656  158.2512 O   0  0  0  0  0  0  0  0  0  0  0  0
  150.8701  140.9208  156.2606 H   0  0  0  0  0  0  0  0  0  0  0  0
  152.2037  142.0617  156.3132 H   0  0  0  0  0  0  0  0  0  0  0  0
  150.6033  142.5994  155.8071 H   0  0  0  0  0  0  0  0  0  0  0  0
  149.6981  142.0909  158.0640 H   0  0  0  0  0  0  0  0  0  0  0  0
  151.0035  141.5019  159.9554 H   0  0  0  0  0  0  0  0  0  0  0  0
  151.3949  140.3750  158.6785 H   0  0  0  0  0  0  0  0  0  0  0  0
  154.6822  141.0511  160.0363 H   0  0  0  0  0  0  0  0  0  0  0  0
  153.7203  140.6865  162.3593 H   0  0  0  0  0  0  0  0  0  0  0  0
  152.1922  141.3372  161.7880 H   0  0  0  0  0  0  0  0  0  0  0  0
  153.6438  142.3374  161.8556 H   0  0  0  0  0  0  0  0  0  0  0  0
  152.2521  139.2087  160.1597 H   0  0  0  0  0  0  0  0  0  0  0  0
  153.5638  139.0489  159.0042 H   0  0  0  0  0  0  0  0  0  0  0  0
  154.8474  139.0407  161.4209 H   0  0  0  0  0  0  0  0  0  0  0  0
  154.0611  132.7937  164.0206 H   0  0  0  0  0  0  0  0  0  0  0  0
  152.8140  134.3859  165.8025 H   0  0  0  0  0  0  0  0  0  0  0  0
  152.5642  143.3872  160.4328 H   0  0  0  0  0  0  0  0  0  0  0  0
  154.0374  143.5217  159.4967 H   0  0  0  0  0  0  0  0  0  0  0  0
  152.8223  143.9540  157.4358 H   0  0  0  0  0  0  0  0  0  0  0  0
  153.3479  145.9186  158.8760 H   0  0  0  0  0  0  0  0  0  0  0  0
  151.8079  145.7256  159.7124 H   0  0  0  0  0  0  0  0  0  0  0  0
  151.8360  146.1548  158.0038 H   0  0  0  0  0  0  0  0  0  0  0  0
  1  2  1  0  0  0  0
  1 21  1  0  0  0  0
  1 22  1  0  0  0  0
  1 23  1  0  0  0  0
  2 20  1  0  0  0  0
  2  3  1  0  0  0  0
  2 24  1  0  0  0  0
  3  4  1  0  0  0  0
  3 25  1  0  0  0  0
  3 26  1  0  0  0  0
  4  5  1  0  0  0  0
  4 17  1  0  0  0  0
  5  6  1  0  0  0  0
  5  7  1  0  0  0  0
  5 27  1  0  0  0  0
  6 28  1  0  0  0  0
  6 29  1  0  0  0  0
  6 30  1  0  0  0  0
  7  8  1  0  0  0  0
  7 31  1  0  0  0  0
  7 32  1  0  0  0  0
  8  9  1  0  0  0  0
  8 33  1  0  0  0  0
  9 10  2  0  0  0  0
  9 11  1  0  0  0  0
 11 12  1  0  0  0  0
 12 16  1  0  0  0  0
 12 13  2  0  0  0  0
 13 14  1  0  0  0  0
 14 15  2  0  0  0  0
 14 34  1  0  0  0  0
 15 16  1  0  0  0  0
 15 35  1  0  0  0  0
 17 18  1  0  0  0  0
 17 36  1  0  0  0  0
 17 37  1  0  0  0  0
 18 19  1  0  0  0  0
 18 20  1  0  0  0  0
 18 38  1  0  0  0  0
 19 39  1  0  0  0  0
 19 40  1  0  0  0  0
 19 41  1  0  0  0  0
M  CHG  1  11  -1
M  END
> <s_m_source_file>
AV-unprocessed.smi

> <i_m_source_file_index>
2032

> <i_lp_mmshare_version>
43012

> <i_f3d_flags>
0

> <s_epik_input>
W0NIM11bQ0BASF0xW0NIMl1OKFtDSDJdW0NASF0oTzEpW0NIM10pW0NASF0oW0NIM10pW0NIMl1bTkhdQyg9TylbTkhdYzJuW2NIXVtjSF1zMg==

> <s_epik_cmdline>
J2VwaWtfcHl0aG9uJywgJy1waCcsICc3LjAnLCAnLXRuJywgJzgnLCAnLW1hJywgJzIwMCcsICctbWV0YWxfYmluZGluZycsICctaW1hZScsICc8aW5maWxlLm1hZT4nLCAnLW9tYWUnLCAnPG91dGZpbGUubWFlPic=

> <r_lp_tautomer_probability>
0.999

> <r_epik_Ionization_Penalty>
7.22375

> <r_epik_Ionization_Penalty_Charging>
5.82415

> <r_epik_Ionization_Penalty_Neutral>
1.39959

> <r_epik_State_Penalty>
6.03347

> <r_epik_Charging_Adjusted_Penalty>
11.8576

> <i_epik_Tot_Q>
-1

> <i_epik_Tot_abs_Q>
1

> <r_epik_Metal_State_Penalty>
2.01024

> <b_epik_Metal_Only>
1

> <s_lp_Force_Field>
OPLS_2005

> <r_lp_Energy>
26.7829

> <b_lp_Chiralities_Consistent>
1

> <s_lp_Variant>
AV-unprocessed.smi:2032-20

> <Gold.Version>
5.8.1

> <Gold.Id.Protein>
6NUR|6NUR_protein|mol2

> <Gold.PLP.Fitness>
40.9516

> <Gold.PLP.PLP>
-40.6986

> <Gold.PLP.part.hbond>
-0.9001

> <Gold.PLP.part.metal>
0.0000

> <Gold.PLP.part.buried>
-5.5398

> <Gold.PLP.part.nonpolar>
-34.5145

> <Gold.PLP.part.repulsive>
0.1383

> <Gold.PLP.ligand.clash>
0.0000

> <Gold.PLP.ligand.torsion>
1.2978

> <Gold.PLP.Chemscore.Hbond>
0.9263

> <Gold.PLP.Chemscore.CHOScore>
0.0000

> <Gold.PLP.Chemscore.Metal>
0.0000

> <Gold.Chemscore.Hbonds>
donor molecule, donor type, donor heavy atom, donor atom, acceptor molecule, acceptor atom, score
      P1  H  6896  6908       L1    10  1.00

> <Gold.PLP.Chemscore.Internal.Correction>
0.0699

> <Gold.Rescore>
     Score         DG    S(hbond)    S(metal)    S(lipo)     H(rot)  DE(clash)    DE(int)     intcor
     16.70     -18.05       1.00        0.00     112.66       1.54       0.02       1.33       ----

> <Gold.Chemscore.Fitness>
16.6990

> <Gold.Chemscore.DG>
-18.0498

> <Gold.Chemscore.ZeroCoef>
-5.4800

> <Gold.Chemscore.Hbond>
0.9995

> <Gold.Chemscore.Metal>
0.0000

> <Gold.Chemscore.Lipo>
112.6634

> <Gold.Chemscore.Internal_Hbond>
0.0000

> <Gold.Chemscore.DEClash>
0.0221

> <Gold.Chemscore.DEInternal>
1.3286

> <Gold.Chemscore.Rot>
1.5431

> <Gold.Chemscore.Internal.Correction>
   9.000000E+99

> <Gold.Chemscore.Hbonds>
donor molecule, donor type, donor heavy atom, donor atom, acceptor molecule, acceptor atom, score
      P1  H  6896  6908       L1    10  0.99

> <Gold.Chemscore.Hbond.Weighted>
-3.3384

> <Gold.Chemscore.Metal.Weighted>
-0.0000

> <Gold.Chemscore.Lipo.Weighted>
-13.1816

> <Gold.Chemscore.Internal_Hbond.Weighted>
0.0000

> <Gold.Chemscore.DEClash.Weighted>
0.0221

> <Gold.Chemscore.DEInternal.Weighted>
1.3286

> <Gold.Chemscore.Rot.Weighted>
3.9503

> <Gold.Chemscore.Internal.Correction.Weighted>
   9.000000E+99

> <Gold.Protein.RotatedTorsions>
[ 6907 6896 6895 6894 ] final  -90.60 input  -60.11 | X-H torsion
[ 7974 7965 7964 7962 ] final -135.23 input  175.53 | X-H torsion
[ 8008 7997 7996 7995 ] final  -11.33 input   59.86 | X-H torsion
[ 10167 10162 10161 10158 ] final  -26.16 input  -65.29 | X-H torsion
[ 10718 10713 10712 10709 ] final   72.84 input   66.30 | X-H torsion
[ 10763 10752 10751 10750 ] final   74.57 input  -60.55 | X-H torsion
[ 11005 11000 10999 10996 ] final  -93.07 input  -57.11 | X-H torsion

> <Gold.Protein.ActiveResidues>
 VAL166  LYS551  ARG553  GLY616  TRP617  ASP618  TYR619  PRO620  LYS621  CYS622 
 ASP623  PHE694  ASN695  SER759  ASP760  ASP761  ALA762  ILE779  LEU786  VAL792 
 PHE793  MET794  SER795  GLU796  ALA797  LYS798  CYS799  TRP800  GLU811  SER814 

> <Gold.Protein.RotatedAtoms>
  150.6883  134.2407  159.4471 H   0  0  0  0  0  0  0  0  0  0  0  0  # atno 6907 bound_to 6896
  152.0351  134.9742  160.0582 H   0  0  0  0  0  0  0  0  0  0  0  0  # atno 6908 bound_to 6896
  152.1266  133.4349  159.4737 H   0  0  0  0  0  0  0  0  0  0  0  0  # atno 6909 bound_to 6896
  144.9032  140.6799  143.5071 H   0  0  0  0  0  0  0  0  0  0  0  0  # atno 7974 bound_to 7965
  154.5474  140.2305  155.8541 H   0  0  0  0  0  0  0  0  0  0  0  0  # atno 8008 bound_to 7997
  156.1915  140.3076  155.9304 H   0  0  0  0  0  0  0  0  0  0  0  0  # atno 8009 bound_to 7997
  155.3138  140.0437  157.3027 H   0  0  0  0  0  0  0  0  0  0  0  0  # atno 8010 bound_to 7997
  140.7284  143.4202  151.0964 H   0  0  0  0  0  0  0  0  0  0  0  0  # atno 10167 bound_to 10162
  157.6520  130.9599  150.0986 H   0  0  0  0  0  0  0  0  0  0  0  0  # atno 10718 bound_to 10713
  153.0596  135.5021  154.8062 H   0  0  0  0  0  0  0  0  0  0  0  0  # atno 10763 bound_to 10752
  154.6861  135.2976  154.9547 H   0  0  0  0  0  0  0  0  0  0  0  0  # atno 10764 bound_to 10752
  154.0317  135.6728  153.4834 H   0  0  0  0  0  0  0  0  0  0  0  0  # atno 10765 bound_to 10752
  141.1506  133.7863  157.0108 H   0  0  0  0  0  0  0  0  0  0  0  0  # atno 11005 bound_to 11000
  145.3580  139.1689  143.4399 LP  0  0  0  0  0  0  0  0  0  0  0  0  # atno 17320 bound_to 7965
  146.3120  140.3639  142.8667 LP  0  0  0  0  0  0  0  0  0  0  0  0  # atno 17321 bound_to 7965
  139.7846  143.8305  152.3143 LP  0  0  0  0  0  0  0  0  0  0  0  0  # atno 17342 bound_to 10162
  139.8268  144.7271  150.9501 LP  0  0  0  0  0  0  0  0  0  0  0  0  # atno 17343 bound_to 10162
  156.1915  130.3655  149.8904 LP  0  0  0  0  0  0  0  0  0  0  0  0  # atno 17370 bound_to 10713
  156.6831  130.8866  151.3578 LP  0  0  0  0  0  0  0  0  0  0  0  0  # atno 17371 bound_to 10713
  140.0879  134.9610  157.1729 LP  0  0  0  0  0  0  0  0  0  0  0  0  # atno 17394 bound_to 11000
  140.3486  134.2623  155.7201 LP  0  0  0  0  0  0  0  0  0  0  0  0  # atno 17395 bound_to 11000

$$$$
