AV-unprocessed.smi:480|AV-procd|sdf|2678|dock3
  -GOLD-   2262023103D 1   1.00000     0.00000
 Structure written by MMmdl.
 47 49  0  0  0  0  0  0  0  0  2 V2000
  148.1647  140.6820  155.1654 C   0  0  0  0  0  0  0  0  0  0  0  0
  149.4718  141.4025  154.8071 C   0  0  0  0  0  0  0  0  0  0  0  0
  150.2587  141.8098  156.0155 C   0  0  0  0  0  0  0  0  0  0  0  0
  150.5286  143.0900  156.4020 N   0  3  0  0  0  0  0  0  0  0  0  0
  151.2983  143.0841  157.5650 C   0  0  0  0  0  0  0  0  0  0  0  0
  151.7992  144.1313  158.3321 C   0  0  0  0  0  0  0  0  0  0  0  0
  152.5565  143.7771  159.4679 C   0  0  0  0  0  0  0  0  0  0  0  0
  152.7921  142.4275  159.8018 C   0  0  0  0  0  0  0  0  0  0  0  0
  152.2797  141.3748  159.0152 C   0  0  0  0  0  0  0  0  0  0  0  0
  151.5289  141.7340  157.8963 C   0  0  0  0  0  0  0  0  0  0  0  0
  150.8716  140.9837  156.9153 N   0  0  0  0  0  0  0  0  0  0  0  0
  150.9175  139.5145  156.9973 C   0  0  0  0  0  0  0  0  0  0  0  0
  151.9454  138.8721  156.0372 C   0  0  2  0  0  0  0  0  0  0  0  0
  151.6617  139.3192  154.7285 O   0  0  0  0  0  0  0  0  0  0  0  0
  151.9531  137.3321  156.0439 C   0  0  0  0  0  0  0  0  0  0  0  0
  150.6627  136.8645  155.6714 O   0  0  0  0  0  0  0  0  0  0  0  0
  150.4736  135.5087  155.5289 C   0  0  0  0  0  0  0  0  0  0  0  0
  151.2749  134.6651  156.3249 C   0  0  0  0  0  0  0  0  0  0  0  0
  151.1362  133.2661  156.2562 C   0  0  0  0  0  0  0  0  0  0  0  0
  150.1945  132.6924  155.3798 C   0  0  0  0  0  0  0  0  0  0  0  0
  150.0471  131.1868  155.3041 C   0  0  0  0  0  0  0  0  0  0  0  0
  151.3500  130.5038  155.3002 C   0  0  0  0  0  0  0  0  0  0  0  0
  152.3746  129.9666  155.2980 N   0  0  0  0  0  0  0  0  0  0  0  0
  149.3962  133.5263  154.5719 C   0  0  0  0  0  0  0  0  0  0  0  0
  149.5338  134.9261  154.6429 C   0  0  0  0  0  0  0  0  0  0  0  0
  147.6310  140.3820  154.2636 H   0  0  0  0  0  0  0  0  0  0  0  0
  147.4984  141.3234  155.7430 H   0  0  0  0  0  0  0  0  0  0  0  0
  148.3567  139.7821  155.7498 H   0  0  0  0  0  0  0  0  0  0  0  0
  150.0774  140.7474  154.1821 H   0  0  0  0  0  0  0  0  0  0  0  0
  149.2569  142.2922  154.2150 H   0  0  0  0  0  0  0  0  0  0  0  0
  151.6208  145.1657  158.0774 H   0  0  0  0  0  0  0  0  0  0  0  0
  152.9658  144.5561  160.0948 H   0  0  0  0  0  0  0  0  0  0  0  0
  153.3775  142.1942  160.6794 H   0  0  0  0  0  0  0  0  0  0  0  0
  152.4651  140.3441  159.2790 H   0  0  0  0  0  0  0  0  0  0  0  0
  151.1515  139.2509  158.0290 H   0  0  0  0  0  0  0  0  0  0  0  0
  149.9150  139.1277  156.8087 H   0  0  0  0  0  0  0  0  0  0  0  0
  152.9472  139.2267  156.2811 H   0  0  0  0  0  0  0  0  0  0  0  0
  151.2165  138.6273  154.2635 H   0  0  0  0  0  0  0  0  0  0  0  0
  152.7305  136.9676  155.3709 H   0  0  0  0  0  0  0  0  0  0  0  0
  152.1760  136.9590  157.0449 H   0  0  0  0  0  0  0  0  0  0  0  0
  151.9976  135.0966  157.0021 H   0  0  0  0  0  0  0  0  0  0  0  0
  151.7550  132.6336  156.8757 H   0  0  0  0  0  0  0  0  0  0  0  0
  149.4718  130.8276  156.1580 H   0  0  0  0  0  0  0  0  0  0  0  0
  149.5062  130.9028  154.4008 H   0  0  0  0  0  0  0  0  0  0  0  0
  148.6761  133.0943  153.8922 H   0  0  0  0  0  0  0  0  0  0  0  0
  148.9105  135.5334  154.0042 H   0  0  0  0  0  0  0  0  0  0  0  0
  150.2006  143.9080  155.9049 H   0  0  0  0  0  0  0  0  0  0  0  0
  1  2  1  0  0  0  0
  1 26  1  0  0  0  0
  1 27  1  0  0  0  0
  1 28  1  0  0  0  0
  2  3  1  0  0  0  0
  2 29  1  0  0  0  0
  2 30  1  0  0  0  0
  3 11  1  0  0  0  0
  3  4  2  0  0  0  0
  4  5  1  0  0  0  0
  4 47  1  0  0  0  0
  5 10  2  0  0  0  0
  5  6  1  0  0  0  0
  6  7  2  0  0  0  0
  6 31  1  0  0  0  0
  7  8  1  0  0  0  0
  7 32  1  0  0  0  0
  8  9  2  0  0  0  0
  8 33  1  0  0  0  0
  9 10  1  0  0  0  0
  9 34  1  0  0  0  0
 10 11  1  0  0  0  0
 11 12  1  0  0  0  0
 12 13  1  0  0  0  0
 12 35  1  0  0  0  0
 12 36  1  0  0  0  0
 13 14  1  0  0  0  0
 13 15  1  0  0  0  0
 13 37  1  0  0  0  0
 14 38  1  0  0  0  0
 15 16  1  0  0  0  0
 15 39  1  0  0  0  0
 15 40  1  0  0  0  0
 16 17  1  0  0  0  0
 17 25  1  0  0  0  0
 17 18  2  0  0  0  0
 18 19  1  0  0  0  0
 18 41  1  0  0  0  0
 19 20  2  0  0  0  0
 19 42  1  0  0  0  0
 20 21  1  0  0  0  0
 20 24  1  0  0  0  0
 21 22  1  0  0  0  0
 21 43  1  0  0  0  0
 21 44  1  0  0  0  0
 22 23  3  0  0  0  0
 24 25  2  0  0  0  0
 24 45  1  0  0  0  0
 25 46  1  0  0  0  0
M  CHG  1   4   1
M  END
> <s_m_source_file>
AV-unprocessed.smi

> <i_m_source_file_index>
480

> <i_lp_mmshare_version>
43012

> <i_f3d_flags>
0

> <s_epik_input>
W2NIXTFbY0hdW2NIXVtjSF1jKGMxMiluKGMobjIpW0NIMl1bQ0gzXSlbQ0gyXVtDQEhdKFtPSF0pW0NIMl1PYzNbY0hdW2NIXWMoW0NIMl1DI04pW2NIXVtjSF0z

> <s_epik_cmdline>
J2VwaWtfcHl0aG9uJywgJy1waCcsICc3LjAnLCAnLXRuJywgJzgnLCAnLW1hJywgJzIwMCcsICctbWV0YWxfYmluZGluZycsICctaW1hZScsICc8aW5maWxlLm1hZT4nLCAnLW9tYWUnLCAnPG91dGZpbGUubWFlPic=

> <r_lp_tautomer_probability>
1

> <r_epik_Ionization_Penalty>
1.03158

> <r_epik_Ionization_Penalty_Charging>
1.03158

> <r_epik_Ionization_Penalty_Neutral>
2.3994e-06

> <r_epik_State_Penalty>
1.08278

> <r_epik_Charging_Adjusted_Penalty>
2.11436

> <i_epik_Tot_Q>
1

> <i_epik_Tot_abs_Q>
1

> <r_epik_Metal_State_Penalty>
5.07177

> <b_epik_Metal_Only>
0

> <s_lp_Force_Field>
OPLS_2005

> <r_lp_Energy>
18.4444

> <b_lp_Chiralities_Consistent>
1

> <s_lp_Variant>
AV-unprocessed.smi:480-3

> <Gold.Version>
5.8.1

> <Gold.Id.Protein>
6NUR|6NUR_protein|mol2

> <Gold.PLP.Fitness>
55.6699

> <Gold.PLP.PLP>
-49.0817

> <Gold.PLP.part.hbond>
-1.7694

> <Gold.PLP.part.metal>
0.0000

> <Gold.PLP.part.buried>
-5.4854

> <Gold.PLP.part.nonpolar>
-42.7603

> <Gold.PLP.part.repulsive>
0.2037

> <Gold.PLP.ligand.clash>
0.0000

> <Gold.PLP.ligand.torsion>
0.9275

> <Gold.PLP.Chemscore.Hbond>
2.7600

> <Gold.PLP.Chemscore.CHOScore>
0.0000

> <Gold.PLP.Chemscore.Metal>
0.0000

> <Gold.Chemscore.Hbonds>
donor molecule, donor type, donor heavy atom, donor atom, acceptor molecule, acceptor atom, score
      L1  H     4    47       P1  8028  1.66
      P1  H  7989  7998       L1    14  1.00

> <Gold.PLP.Chemscore.Internal.Correction>
0.1632

> <Gold.Rescore>
     Score         DG    S(hbond)    S(metal)    S(lipo)     H(rot)  DE(clash)    DE(int)     intcor
     18.58     -19.53       1.87        0.00     125.26       2.67       0.07       0.88       ----

> <Gold.Chemscore.Fitness>
18.5809

> <Gold.Chemscore.DG>
-19.5304

> <Gold.Chemscore.ZeroCoef>
-5.4800

> <Gold.Chemscore.Hbond>
1.8661

> <Gold.Chemscore.Metal>
0.0000

> <Gold.Chemscore.Lipo>
125.2583

> <Gold.Chemscore.Internal_Hbond>
0.0000

> <Gold.Chemscore.DEClash>
0.0724

> <Gold.Chemscore.DEInternal>
0.8771

> <Gold.Chemscore.Rot>
2.6710

> <Gold.Chemscore.Internal.Correction>
   9.000000E+99

> <Gold.Chemscore.Hbonds>
donor molecule, donor type, donor heavy atom, donor atom, acceptor molecule, acceptor atom, score
      L1  H     4    47       P1  8028  0.79
      P1  H  7989  7998       L1    14  0.48

> <Gold.Chemscore.Hbond.Weighted>
-6.2329

> <Gold.Chemscore.Metal.Weighted>
-0.0000

> <Gold.Chemscore.Lipo.Weighted>
-14.6552

> <Gold.Chemscore.Internal_Hbond.Weighted>
0.0000

> <Gold.Chemscore.DEClash.Weighted>
0.0724

> <Gold.Chemscore.DEInternal.Weighted>
0.8771

> <Gold.Chemscore.Rot.Weighted>
6.8377

> <Gold.Chemscore.Internal.Correction.Weighted>
   9.000000E+99

> <Gold.Protein.RotatedTorsions>
[ 6907 6896 6895 6894 ] final    3.93 input  -60.11 | X-H torsion
[ 7974 7965 7964 7962 ] final  155.61 input  175.53 | X-H torsion
[ 8008 7997 7996 7995 ] final  148.24 input   59.86 | X-H torsion
[ 10167 10162 10161 10158 ] final -168.59 input  -65.29 | X-H torsion
[ 10718 10713 10712 10709 ] final  127.39 input   66.30 | X-H torsion
[ 10763 10752 10751 10750 ] final  -63.49 input  -60.55 | X-H torsion
[ 11005 11000 10999 10996 ] final  107.90 input  -57.11 | X-H torsion

> <Gold.Protein.ActiveResidues>
 VAL166  LYS551  ARG553  GLY616  TRP617  ASP618  TYR619  PRO620  LYS621  CYS622 
 ASP623  PHE694  ASN695  SER759  ASP760  ASP761  ALA762  ILE779  LEU786  VAL792 
 PHE793  MET794  SER795  GLU796  ALA797  LYS798  CYS799  TRP800  GLU811  SER814 

> <Gold.Protein.RotatedAtoms>
  151.6330  135.1021  160.0125 H   0  0  0  0  0  0  0  0  0  0  0  0  # atno 6907 bound_to 6896
  152.4096  133.6938  159.6394 H   0  0  0  0  0  0  0  0  0  0  0  0  # atno 6908 bound_to 6896
  150.7987  133.8565  159.3261 H   0  0  0  0  0  0  0  0  0  0  0  0  # atno 6909 bound_to 6896
  144.8014  139.7091  143.6180 H   0  0  0  0  0  0  0  0  0  0  0  0  # atno 7974 bound_to 7965
  156.2798  140.2134  156.5667 H   0  0  0  0  0  0  0  0  0  0  0  0  # atno 8008 bound_to 7997
  154.7169  140.0507  157.0626 H   0  0  0  0  0  0  0  0  0  0  0  0  # atno 8009 bound_to 7997
  155.0530  140.3158  155.4688 H   0  0  0  0  0  0  0  0  0  0  0  0  # atno 8010 bound_to 7997
  139.5976  144.1079  152.1706 H   0  0  0  0  0  0  0  0  0  0  0  0  # atno 10167 bound_to 10162
  157.5337  131.1098  150.8969 H   0  0  0  0  0  0  0  0  0  0  0  0  # atno 10718 bound_to 10713
  154.3158  135.6206  153.5485 H   0  0  0  0  0  0  0  0  0  0  0  0  # atno 10763 bound_to 10752
  152.9825  135.5712  154.5126 H   0  0  0  0  0  0  0  0  0  0  0  0  # atno 10764 bound_to 10752
  154.4784  135.2862  155.1566 H   0  0  0  0  0  0  0  0  0  0  0  0  # atno 10765 bound_to 10752
  139.8835  134.9415  156.5890 H   0  0  0  0  0  0  0  0  0  0  0  0  # atno 11005 bound_to 11000
  146.2296  139.5789  142.9564 LP  0  0  0  0  0  0  0  0  0  0  0  0  # atno 17320 bound_to 7965
  145.5544  141.0410  143.2261 LP  0  0  0  0  0  0  0  0  0  0  0  0  # atno 17321 bound_to 7965
  140.0668  144.5812  150.7221 LP  0  0  0  0  0  0  0  0  0  0  0  0  # atno 17342 bound_to 10162
  140.7224  143.2602  151.4234 LP  0  0  0  0  0  0  0  0  0  0  0  0  # atno 17343 bound_to 10162
  156.9543  130.5431  149.5283 LP  0  0  0  0  0  0  0  0  0  0  0  0  # atno 17370 bound_to 10713
  156.0442  130.5520  150.8841 LP  0  0  0  0  0  0  0  0  0  0  0  0  # atno 17371 bound_to 10713
  140.7969  133.8536  155.8693 LP  0  0  0  0  0  0  0  0  0  0  0  0  # atno 17394 bound_to 11000
  140.9627  134.1634  157.4641 LP  0  0  0  0  0  0  0  0  0  0  0  0  # atno 17395 bound_to 11000

$$$$
