AV-unprocessed.smi:1859|AV-procd|sdf|7543|dock8
  -GOLD-   22720 9253D 1   1.00000     0.00000
 Structure written by MMmdl.
 45 47  0  0  0  0  0  0  0  0  1 V2000
  151.0983  140.5262  154.8390 O   0  0  0  0  0  0  0  0  0  0  0  0
  151.5848  139.7182  155.6303 C   0  0  0  0  0  0  0  0  0  0  0  0
  151.6663  139.9484  156.9508 N   0  0  0  0  0  0  0  0  0  0  0  0
  151.2272  141.1652  157.6300 C   0  0  0  0  0  0  0  0  0  0  0  0
  151.6767  141.2164  159.1023 C   0  0  0  0  0  0  0  0  0  0  0  0
  151.7480  142.6203  159.6791 C   0  0  0  0  0  0  0  0  0  0  0  0
  152.2200  143.6981  158.8996 C   0  0  0  0  0  0  0  0  0  0  0  0
  152.2538  144.9806  159.4797 C   0  0  0  0  0  0  0  0  0  0  0  0
  151.8230  145.1346  160.8115 C   0  0  0  0  0  0  0  0  0  0  0  0
  151.3754  143.9941  161.5069 C   0  0  0  0  0  0  0  0  0  0  0  0
  151.3287  142.7616  160.9569 N   0  0  0  0  0  0  0  0  0  0  0  0
  152.1488  138.3719  155.1356 C   0  0  2  0  0  0  0  0  0  0  0  0
  151.0945  137.5609  154.3393 C   0  0  0  0  0  0  0  0  0  0  0  0
  150.0897  136.8089  155.2374 C   0  0  0  0  0  0  0  0  0  0  0  0
  150.8280  136.0160  156.3270 C   0  0  0  0  0  0  0  0  0  0  0  0
  151.6656  136.9372  157.1066 N   0  0  0  0  0  0  0  0  0  0  0  0
  151.5029  137.2475  158.4166 C   0  0  0  0  0  0  0  0  0  0  0  0
  150.4606  136.9870  159.0184 O   0  0  0  0  0  0  0  0  0  0  0  0
  152.6645  137.8767  159.1309 C   0  0  0  0  0  0  0  0  0  0  0  0
  154.0214  137.2068  159.0120 C   0  0  0  0  0  0  0  0  0  0  0  0
  153.2488  137.1169  160.3031 C   0  0  0  0  0  0  0  0  0  0  0  0
  152.7412  137.5135  156.2841 C   0  0  0  0  0  0  0  0  0  0  0  0
  152.0784  139.2304  157.5289 H   0  0  0  0  0  0  0  0  0  0  0  0
  151.6489  142.0162  157.0950 H   0  0  0  0  0  0  0  0  0  0  0  0
  150.1437  141.2775  157.5648 H   0  0  0  0  0  0  0  0  0  0  0  0
  151.0002  140.6147  159.7106 H   0  0  0  0  0  0  0  0  0  0  0  0
  152.6587  140.7520  159.1989 H   0  0  0  0  0  0  0  0  0  0  0  0
  152.5493  143.5483  157.8819 H   0  0  0  0  0  0  0  0  0  0  0  0
  152.6107  145.8298  158.9162 H   0  0  0  0  0  0  0  0  0  0  0  0
  151.8438  146.1018  161.2912 H   0  0  0  0  0  0  0  0  0  0  0  0
  151.0425  144.0749  162.5310 H   0  0  0  0  0  0  0  0  0  0  0  0
  152.9650  138.6030  154.4489 H   0  0  0  0  0  0  0  0  0  0  0  0
  150.5567  138.2067  153.6434 H   0  0  0  0  0  0  0  0  0  0  0  0
  151.6179  136.8314  153.7200 H   0  0  0  0  0  0  0  0  0  0  0  0
  149.3939  137.5096  155.6993 H   0  0  0  0  0  0  0  0  0  0  0  0
  149.4849  136.1348  154.6303 H   0  0  0  0  0  0  0  0  0  0  0  0
  150.1282  135.4403  156.9310 H   0  0  0  0  0  0  0  0  0  0  0  0
  151.4709  135.2681  155.8603 H   0  0  0  0  0  0  0  0  0  0  0  0
  152.7031  138.9632  159.1649 H   0  0  0  0  0  0  0  0  0  0  0  0
  154.1147  136.2978  158.4204 H   0  0  0  0  0  0  0  0  0  0  0  0
  154.8910  137.8603  158.9831 H   0  0  0  0  0  0  0  0  0  0  0  0
  153.5940  137.7064  161.1498 H   0  0  0  0  0  0  0  0  0  0  0  0
  152.8156  136.1516  160.5597 H   0  0  0  0  0  0  0  0  0  0  0  0
  153.3399  136.7023  155.8672 H   0  0  0  0  0  0  0  0  0  0  0  0
  153.4401  138.1173  156.8659 H   0  0  0  0  0  0  0  0  0  0  0  0
  1  2  2  0  0  0  0
  2  3  1  0  0  0  0
  2 12  1  0  0  0  0
  3  4  1  0  0  0  0
  3 23  1  0  0  0  0
  4  5  1  0  0  0  0
  4 24  1  0  0  0  0
  4 25  1  0  0  0  0
  5  6  1  0  0  0  0
  5 26  1  0  0  0  0
  5 27  1  0  0  0  0
  6 11  1  0  0  0  0
  6  7  2  0  0  0  0
  7  8  1  0  0  0  0
  7 28  1  0  0  0  0
  8  9  2  0  0  0  0
  8 29  1  0  0  0  0
  9 10  1  0  0  0  0
  9 30  1  0  0  0  0
 10 11  2  0  0  0  0
 10 31  1  0  0  0  0
 12 22  1  0  0  0  0
 12 13  1  0  0  0  0
 12 32  1  0  0  0  0
 13 14  1  0  0  0  0
 13 33  1  0  0  0  0
 13 34  1  0  0  0  0
 14 15  1  0  0  0  0
 14 35  1  0  0  0  0
 14 36  1  0  0  0  0
 15 16  1  0  0  0  0
 15 37  1  0  0  0  0
 15 38  1  0  0  0  0
 16 17  1  0  0  0  0
 16 22  1  0  0  0  0
 17 18  2  0  0  0  0
 17 19  1  0  0  0  0
 19 21  1  0  0  0  0
 19 20  1  0  0  0  0
 19 39  1  0  0  0  0
 20 21  1  0  0  0  0
 20 40  1  0  0  0  0
 20 41  1  0  0  0  0
 21 42  1  0  0  0  0
 21 43  1  0  0  0  0
 22 44  1  0  0  0  0
 22 45  1  0  0  0  0
M  END
> <s_m_source_file>
AV-unprocessed.smi

> <i_m_source_file_index>
1859

> <i_lp_mmshare_version>
43012

> <i_f3d_flags>
0

> <s_epik_input>
W0NIMl0xW0NIMl1bQ0hdMUMoPU8pTihbQ0gyXTIpW0NIMl1bQ0gyXVtDSDJdW0NASF0yQyg9TylbTkhdW0NIMl1bQ0gyXWMzW2NIXVtjSF1bY0hdW2NIXW4z

> <s_epik_cmdline>
J2VwaWtfcHl0aG9uJywgJy1waCcsICc3LjAnLCAnLXRuJywgJzgnLCAnLW1hJywgJzIwMCcsICctbWV0YWxfYmluZGluZycsICctaW1hZScsICc8aW5maWxlLm1hZT4nLCAnLW9tYWUnLCAnPG91dGZpbGUubWFlPic=

> <r_epik_Ionization_Penalty>
0.0268048

> <r_epik_Ionization_Penalty_Charging>
0

> <r_epik_Ionization_Penalty_Neutral>
0.0268048

> <r_epik_State_Penalty>
0.0219025

> <r_epik_Charging_Adjusted_Penalty>
0.0219025

> <i_epik_Tot_Q>
0

> <i_epik_Tot_abs_Q>
0

> <r_epik_Metal_State_Penalty>
0.020951

> <b_epik_Metal_Only>
0

> <s_lp_Force_Field>
OPLS_2005

> <r_lp_Energy>
24.9831

> <b_lp_Chiralities_Consistent>
1

> <s_lp_Variant>
AV-unprocessed.smi:1859-1

> <Gold.Version>
5.8.1

> <Gold.Id.Protein>
6NUR|6NUR_protein|mol2

> <Gold.PLP.Fitness>
47.9845

> <Gold.PLP.PLP>
-43.3705

> <Gold.PLP.part.hbond>
-2.5276

> <Gold.PLP.part.metal>
0.0000

> <Gold.PLP.part.buried>
-5.1572

> <Gold.PLP.part.nonpolar>
-36.3903

> <Gold.PLP.part.repulsive>
0.2663

> <Gold.PLP.ligand.clash>
0.2229

> <Gold.PLP.ligand.torsion>
0.6786

> <Gold.PLP.Chemscore.Hbond>
1.9425

> <Gold.PLP.Chemscore.CHOScore>
0.0000

> <Gold.PLP.Chemscore.Metal>
0.0000

> <Gold.Chemscore.Hbonds>
donor molecule, donor type, donor heavy atom, donor atom, acceptor molecule, acceptor atom, score
      P1  H  6896  6907       L1    18  0.35
      P1  H  6933  6945       L1    11  0.21
      P1  H  7989  7998       L1     1  0.88

> <Gold.PLP.Chemscore.Internal.Correction>
0.3665

> <Gold.Rescore>
     Score         DG    S(hbond)    S(metal)    S(lipo)     H(rot)  DE(clash)    DE(int)     intcor
     19.12     -21.44       1.94        0.00     115.95       1.59       0.04       2.27       ----

> <Gold.Chemscore.Fitness>
19.1223

> <Gold.Chemscore.DG>
-21.4351

> <Gold.Chemscore.ZeroCoef>
-5.4800

> <Gold.Chemscore.Hbond>
1.9374

> <Gold.Chemscore.Metal>
0.0000

> <Gold.Chemscore.Lipo>
115.9457

> <Gold.Chemscore.Internal_Hbond>
0.0000

> <Gold.Chemscore.DEClash>
0.0398

> <Gold.Chemscore.DEInternal>
2.2729

> <Gold.Chemscore.Rot>
1.5943

> <Gold.Chemscore.Internal.Correction>
   9.000000E+99

> <Gold.Chemscore.Hbonds>
donor molecule, donor type, donor heavy atom, donor atom, acceptor molecule, acceptor atom, score
      P1  H  6896  6907       L1    18  0.03
      P1  H  6933  6945       L1    11  0.07
      P1  H  7989  7998       L1     1  0.81

> <Gold.Chemscore.Hbond.Weighted>
-6.4709

> <Gold.Chemscore.Metal.Weighted>
-0.0000

> <Gold.Chemscore.Lipo.Weighted>
-13.5657

> <Gold.Chemscore.Internal_Hbond.Weighted>
0.0000

> <Gold.Chemscore.DEClash.Weighted>
0.0398

> <Gold.Chemscore.DEInternal.Weighted>
2.2729

> <Gold.Chemscore.Rot.Weighted>
4.0814

> <Gold.Chemscore.Internal.Correction.Weighted>
   9.000000E+99

> <Gold.Protein.RotatedTorsions>
[ 6907 6896 6895 6894 ] final  -14.54 input  -60.11 | X-H torsion
[ 7974 7965 7964 7962 ] final  166.50 input  175.53 | X-H torsion
[ 8008 7997 7996 7995 ] final -155.93 input   59.86 | X-H torsion
[ 10167 10162 10161 10158 ] final -122.52 input  -65.29 | X-H torsion
[ 10718 10713 10712 10709 ] final -159.77 input   66.30 | X-H torsion
[ 10763 10752 10751 10750 ] final  170.26 input  -60.55 | X-H torsion
[ 11005 11000 10999 10996 ] final -136.35 input  -57.11 | X-H torsion

> <Gold.Protein.ActiveResidues>
 VAL166  LYS551  ARG553  GLY616  TRP617  ASP618  TYR619  PRO620  LYS621  CYS622 
 ASP623  PHE694  ASN695  SER759  ASP760  ASP761  ALA762  ILE779  LEU786  VAL792 
 PHE793  MET794  SER795  GLU796  ALA797  LYS798  CYS799  TRP800  GLU811  SER814 

> <Gold.Protein.RotatedAtoms>
  151.3378  135.0856  159.9360 H   0  0  0  0  0  0  0  0  0  0  0  0  # atno 6907 bound_to 6896
  152.5219  133.9478  159.7667 H   0  0  0  0  0  0  0  0  0  0  0  0  # atno 6908 bound_to 6896
  150.9829  133.6174  159.2749 H   0  0  0  0  0  0  0  0  0  0  0  0  # atno 6909 bound_to 6896
  144.7460  139.8624  143.6382 H   0  0  0  0  0  0  0  0  0  0  0  0  # atno 7974 bound_to 7965
  155.7094  140.0776  157.2377 H   0  0  0  0  0  0  0  0  0  0  0  0  # atno 8008 bound_to 7997
  154.4061  140.1633  156.2332 H   0  0  0  0  0  0  0  0  0  0  0  0  # atno 8009 bound_to 7997
  155.9296  140.3392  155.6241 H   0  0  0  0  0  0  0  0  0  0  0  0  # atno 8010 bound_to 7997
  140.0134  143.5419  152.2253 H   0  0  0  0  0  0  0  0  0  0  0  0  # atno 10167 bound_to 10162
  156.5727  130.8695  151.2842 H   0  0  0  0  0  0  0  0  0  0  0  0  # atno 10718 bound_to 10713
  154.3950  135.2754  155.2131 H   0  0  0  0  0  0  0  0  0  0  0  0  # atno 10763 bound_to 10752
  154.4181  135.6006  153.5997 H   0  0  0  0  0  0  0  0  0  0  0  0  # atno 10764 bound_to 10752
  152.9831  135.5966  154.4210 H   0  0  0  0  0  0  0  0  0  0  0  0  # atno 10765 bound_to 10752
  140.8813  134.1928  157.4589 H   0  0  0  0  0  0  0  0  0  0  0  0  # atno 11005 bound_to 11000
  146.1339  139.4380  143.0151 LP  0  0  0  0  0  0  0  0  0  0  0  0  # atno 17320 bound_to 7965
  145.7121  141.0103  143.1447 LP  0  0  0  0  0  0  0  0  0  0  0  0  # atno 17321 bound_to 7965
  139.6189  144.7625  151.2783 LP  0  0  0  0  0  0  0  0  0  0  0  0  # atno 17342 bound_to 10162
  140.7372  143.6684  150.8103 LP  0  0  0  0  0  0  0  0  0  0  0  0  # atno 17343 bound_to 10162
  157.7344  130.9746  150.2029 LP  0  0  0  0  0  0  0  0  0  0  0  0  # atno 17370 bound_to 10713
  156.2700  130.3720  149.8041 LP  0  0  0  0  0  0  0  0  0  0  0  0  # atno 17371 bound_to 10713
  139.8720  134.9818  156.5133 LP  0  0  0  0  0  0  0  0  0  0  0  0  # atno 17394 bound_to 11000
  140.8457  133.8170  155.9119 LP  0  0  0  0  0  0  0  0  0  0  0  0  # atno 17395 bound_to 11000

$$$$
