AV-unprocessed.smi:100|AV-procd|sdf|909|dock4
  -GOLD-   2262017403D 1   1.00000     0.00000
 Structure written by MMmdl.
 31 33  0  0  0  0  0  0  0  0  1 V2000
  155.2154  141.0404  160.4758 N   0  0  0  0  0  0  0  0  0  0  0  0
  153.9625  141.3788  160.1419 C   0  0  0  0  0  0  0  0  0  0  0  0
  153.4004  142.4468  160.7542 N   0  0  0  0  0  0  0  0  0  0  0  0
  152.1516  142.8036  160.4383 C   0  0  0  0  0  0  0  0  0  0  0  0
  151.3194  142.2397  159.5592 N   0  0  0  0  0  0  0  0  0  0  0  0
  151.8860  141.1623  158.9411 C   0  0  0  0  0  0  0  0  0  0  0  0
  153.1998  140.6701  159.1795 C   0  0  0  0  0  0  0  0  0  0  0  0
  153.4428  139.5608  158.3820 N   0  0  0  0  0  0  0  0  0  0  0  0
  152.3330  139.4090  157.7112 C   0  0  0  0  0  0  0  0  0  0  0  0
  151.3419  140.3275  157.9830 N   0  0  0  0  0  0  0  0  0  0  0  0
  149.9761  140.3879  157.3635 C   0  0  2  0  0  0  0  0  0  0  0  0
  149.8794  139.4478  156.3326 O   0  0  0  0  0  0  0  0  0  0  0  0
  149.6439  140.1080  155.0915 C   0  0  1  0  0  0  0  0  0  0  0  0
  148.8808  139.1934  154.1212 C   0  0  0  0  0  0  0  0  0  0  0  0
  149.5843  137.9844  153.9297 O   0  0  0  0  0  0  0  0  0  0  0  0
  148.9278  141.4009  155.4889 C   0  0  1  0  0  0  0  0  0  0  0  0
  147.6377  141.1726  155.7459 F   0  0  0  0  0  0  0  0  0  0  0  0
  149.6356  141.7745  156.7781 C   0  0  2  0  0  0  0  0  0  0  0  0
  150.7602  142.5975  156.5209 O   0  0  0  0  0  0  0  0  0  0  0  0
  155.6563  140.2467  160.0335 H   0  0  0  0  0  0  0  0  0  0  0  0
  155.7159  141.5794  161.1673 H   0  0  0  0  0  0  0  0  0  0  0  0
  151.7626  143.6627  160.9644 H   0  0  0  0  0  0  0  0  0  0  0  0
  152.2047  138.6128  156.9922 H   0  0  0  0  0  0  0  0  0  0  0  0
  149.2977  140.0915  158.1648 H   0  0  0  0  0  0  0  0  0  0  0  0
  150.6108  140.3630  154.6569 H   0  0  0  0  0  0  0  0  0  0  0  0
  147.8979  138.9568  154.5295 H   0  0  0  0  0  0  0  0  0  0  0  0
  148.7186  139.6809  153.1595 H   0  0  0  0  0  0  0  0  0  0  0  0
  149.1723  137.5048  153.2274 H   0  0  0  0  0  0  0  0  0  0  0  0
  148.9730  142.1744  154.7210 H   0  0  0  0  0  0  0  0  0  0  0  0
  148.9778  142.3095  157.4640 H   0  0  0  0  0  0  0  0  0  0  0  0
  150.4529  143.4638  156.3008 H   0  0  0  0  0  0  0  0  0  0  0  0
  1  2  1  0  0  0  0
  1 20  1  0  0  0  0
  1 21  1  0  0  0  0
  2  7  1  0  0  0  0
  2  3  2  0  0  0  0
  3  4  1  0  0  0  0
  4  5  2  0  0  0  0
  4 22  1  0  0  0  0
  5  6  1  0  0  0  0
  6 10  1  0  0  0  0
  6  7  2  0  0  0  0
  7  8  1  0  0  0  0
  8  9  2  0  0  0  0
  9 10  1  0  0  0  0
  9 23  1  0  0  0  0
 10 11  1  0  0  0  0
 11 18  1  0  0  0  0
 11 12  1  0  0  0  0
 11 24  1  0  0  0  0
 12 13  1  0  0  0  0
 13 14  1  0  0  0  0
 13 16  1  0  0  0  0
 13 25  1  0  0  0  0
 14 15  1  0  0  0  0
 14 26  1  0  0  0  0
 14 27  1  0  0  0  0
 15 28  1  0  0  0  0
 16 17  1  0  0  0  0
 16 18  1  0  0  0  0
 16 29  1  0  0  0  0
 18 19  1  0  0  0  0
 18 30  1  0  0  0  0
 19 31  1  0  0  0  0
M  END
> <s_m_source_file>
AV-unprocessed.smi

> <i_m_source_file_index>
100

> <i_lp_mmshare_version>
43012

> <i_f3d_flags>
0

> <s_epik_input>
bjFbY0hdbmMoW05IMl0pYyhjMTIpbltjSF1uMltDQEBIXTNPW0NAQEhdKFtDSDJdW09IXSlbQ0BIXShGKVtDQEhdM1tPSF0=

> <s_epik_cmdline>
J2VwaWtfcHl0aG9uJywgJy1waCcsICc3LjAnLCAnLXRuJywgJzgnLCAnLW1hJywgJzIwMCcsICctbWV0YWxfYmluZGluZycsICctaW1hZScsICc8aW5maWxlLm1hZT4nLCAnLW9tYWUnLCAnPG91dGZpbGUubWFlPic=

> <r_lp_tautomer_probability>
1

> <r_epik_Ionization_Penalty>
0.000750324

> <r_epik_Ionization_Penalty_Charging>
0

> <r_epik_Ionization_Penalty_Neutral>
0.000750324

> <r_epik_State_Penalty>
-0

> <r_epik_Charging_Adjusted_Penalty>
0

> <i_epik_Tot_Q>
0

> <i_epik_Tot_abs_Q>
0

> <r_epik_Metal_State_Penalty>
-0

> <b_epik_Metal_Only>
0

> <s_epik_Chemistry_Notes>
This compound contains an acetal/aminal-like group ( X-CH(R)-Y where X, Y are N, S, or O) that may be acid/base labile, releasing an aldehyde.

> <s_lp_Force_Field>
OPLS_2005

> <r_lp_Energy>
35.7638

> <b_lp_Chiralities_Consistent>
1

> <s_lp_Variant>
AV-unprocessed.smi:100-13

> <Gold.Version>
5.8.1

> <Gold.Id.Protein>
6NUR|6NUR_protein|mol2

> <Gold.PLP.Fitness>
38.7067

> <Gold.PLP.PLP>
-30.0340

> <Gold.PLP.part.hbond>
-4.4905

> <Gold.PLP.part.metal>
0.0000

> <Gold.PLP.part.buried>
-4.6309

> <Gold.PLP.part.nonpolar>
-20.7648

> <Gold.PLP.part.repulsive>
0.0525

> <Gold.PLP.ligand.clash>
0.0000

> <Gold.PLP.ligand.torsion>
0.1026

> <Gold.PLP.Chemscore.Hbond>
2.9588

> <Gold.PLP.Chemscore.CHOScore>
0.0000

> <Gold.PLP.Chemscore.Metal>
0.0000

> <Gold.Chemscore.Hbonds>
donor molecule, donor type, donor heavy atom, donor atom, acceptor molecule, acceptor atom, score
      L1  H    15    28       P1  7948  1.00
      L1  H    19    31       P1  8028  0.83
      P1  H  7997  8009       L1     8  1.00

> <Gold.PLP.Chemscore.Internal.Correction>
0.0016

> <Gold.Rescore>
     Score         DG    S(hbond)    S(metal)    S(lipo)     H(rot)  DE(clash)    DE(int)     intcor
     10.09     -10.22       2.80        0.00      30.46       3.19       0.10       0.03       ----

> <Gold.Chemscore.Fitness>
10.0903

> <Gold.Chemscore.DG>
-10.2200

> <Gold.Chemscore.ZeroCoef>
-5.4800

> <Gold.Chemscore.Hbond>
2.7972

> <Gold.Chemscore.Metal>
0.0000

> <Gold.Chemscore.Lipo>
30.4614

> <Gold.Chemscore.Internal_Hbond>
0.0000

> <Gold.Chemscore.DEClash>
0.1039

> <Gold.Chemscore.DEInternal>
0.0257

> <Gold.Chemscore.Rot>
3.1901

> <Gold.Chemscore.Internal.Correction>
   9.000000E+99

> <Gold.Chemscore.Hbonds>
donor molecule, donor type, donor heavy atom, donor atom, acceptor molecule, acceptor atom, score
      L1  H    15    28       P1  7948  0.99
      L1  H    19    31       P1  8028  0.78
      P1  H  7997  8009       L1     8  0.42

> <Gold.Chemscore.Hbond.Weighted>
-9.3426

> <Gold.Chemscore.Metal.Weighted>
-0.0000

> <Gold.Chemscore.Lipo.Weighted>
-3.5640

> <Gold.Chemscore.Internal_Hbond.Weighted>
0.0000

> <Gold.Chemscore.DEClash.Weighted>
0.1039

> <Gold.Chemscore.DEInternal.Weighted>
0.0257

> <Gold.Chemscore.Rot.Weighted>
8.1667

> <Gold.Chemscore.Internal.Correction.Weighted>
   9.000000E+99

> <Gold.Protein.RotatedTorsions>
[ 6907 6896 6895 6894 ] final  155.20 input  -60.11 | X-H torsion
[ 7974 7965 7964 7962 ] final   57.79 input  175.53 | X-H torsion
[ 8008 7997 7996 7995 ] final  138.32 input   59.86 | X-H torsion
[ 10167 10162 10161 10158 ] final  -38.22 input  -65.29 | X-H torsion
[ 10718 10713 10712 10709 ] final -146.38 input   66.30 | X-H torsion
[ 10763 10752 10751 10750 ] final   83.97 input  -60.55 | X-H torsion
[ 11005 11000 10999 10996 ] final  119.88 input  -57.11 | X-H torsion

> <Gold.Protein.ActiveResidues>
 VAL166  LYS551  ARG553  GLY616  TRP617  ASP618  TYR619  PRO620  LYS621  CYS622 
 ASP623  PHE694  ASN695  SER759  ASP760  ASP761  ALA762  ILE779  LEU786  VAL792 
 PHE793  MET794  SER795  GLU796  ALA797  LYS798  CYS799  TRP800  GLU811  SER814 

> <Gold.Protein.RotatedAtoms>
  152.0476  133.4004  159.4362 H   0  0  0  0  0  0  0  0  0  0  0  0  # atno 6907 bound_to 6896
  150.6872  134.3345  159.4850 H   0  0  0  0  0  0  0  0  0  0  0  0  # atno 6908 bound_to 6896
  152.1151  134.9246  160.0616 H   0  0  0  0  0  0  0  0  0  0  0  0  # atno 6909 bound_to 6896
  145.9252  139.3762  143.0454 H   0  0  0  0  0  0  0  0  0  0  0  0  # atno 7974 bound_to 7965
  156.2998  140.2396  156.4054 H   0  0  0  0  0  0  0  0  0  0  0  0  # atno 8008 bound_to 7997
  154.8489  140.0425  157.1611 H   0  0  0  0  0  0  0  0  0  0  0  0  # atno 8009 bound_to 7997
  154.9020  140.2978  155.5316 H   0  0  0  0  0  0  0  0  0  0  0  0  # atno 8010 bound_to 7997
  140.7098  143.3291  151.2611 H   0  0  0  0  0  0  0  0  0  0  0  0  # atno 10167 bound_to 10162
  156.3942  130.7901  151.2106 H   0  0  0  0  0  0  0  0  0  0  0  0  # atno 10718 bound_to 10713
  153.1339  135.4671  154.9392 H   0  0  0  0  0  0  0  0  0  0  0  0  # atno 10763 bound_to 10752
  154.7689  135.3153  154.8232 H   0  0  0  0  0  0  0  0  0  0  0  0  # atno 10764 bound_to 10752
  153.8769  135.6898  153.4824 H   0  0  0  0  0  0  0  0  0  0  0  0  # atno 10765 bound_to 10752
  139.9163  134.9631  156.7723 H   0  0  0  0  0  0  0  0  0  0  0  0  # atno 11005 bound_to 11000
  145.8498  140.9535  143.0755 LP  0  0  0  0  0  0  0  0  0  0  0  0  # atno 17320 bound_to 7965
  144.6758  140.0392  143.7481 LP  0  0  0  0  0  0  0  0  0  0  0  0  # atno 17321 bound_to 7965
  139.6768  143.9924  152.2785 LP  0  0  0  0  0  0  0  0  0  0  0  0  # atno 17342 bound_to 10162
  139.9541  144.6601  150.8143 LP  0  0  0  0  0  0  0  0  0  0  0  0  # atno 17343 bound_to 10162
  157.7500  131.0306  150.4146 LP  0  0  0  0  0  0  0  0  0  0  0  0  # atno 17370 bound_to 10713
  156.4413  130.3992  149.6695 LP  0  0  0  0  0  0  0  0  0  0  0  0  # atno 17371 bound_to 10713
  140.6611  133.9644  155.7805 LP  0  0  0  0  0  0  0  0  0  0  0  0  # atno 17394 bound_to 11000
  141.0643  134.0300  157.3616 LP  0  0  0  0  0  0  0  0  0  0  0  0  # atno 17395 bound_to 11000

$$$$
