AV-unprocessed.smi:3170|AV-procd|sdf|12107|dock3
  -GOLD-   2272017543D 1   1.00000     0.00000
 Structure written by MMmdl.
 36 37  0  0  0  0  0  0  0  0  2 V2000
  146.1255  137.9764  154.8792 O   0  0  0  0  0  0  0  0  0  0  0  0
  146.9708  137.5298  154.1033 C   0  0  0  0  0  0  0  0  0  0  0  0
  146.7290  136.5685  153.2009 N   0  0  0  0  0  0  0  0  0  0  0  0
  145.4521  135.8846  153.0162 C   0  0  0  0  0  0  0  0  0  0  0  0
  145.0606  135.7597  151.5317 C   0  0  0  0  0  0  0  0  0  0  0  0
  145.4176  134.4593  150.9561 N   0  0  0  0  0  0  0  0  0  0  0  0
  144.6126  133.6312  150.2167 C   0  0  0  0  0  0  0  0  0  0  0  0
  145.3725  132.5383  149.8888 C   0  0  0  0  0  0  0  0  0  0  0  0
  146.6065  132.7426  150.4457 N   0  3  0  0  0  0  0  0  0  0  0  0
  146.6310  133.9097  151.0975 C   0  0  0  0  0  0  0  0  0  0  0  0
  148.2422  137.9499  154.0546 N   0  0  0  0  0  0  0  0  0  0  0  0
  148.8162  138.9813  154.9121 C   0  0  0  0  0  0  0  0  0  0  0  0
  150.3376  139.1212  154.7123 C   0  0  2  0  0  0  0  0  0  0  0  0
  151.0929  137.8119  154.8060 C   0  0  0  0  0  0  0  0  0  0  0  0
  152.5202  138.2954  155.0398 C   0  0  0  0  0  0  0  0  0  0  0  0
  152.3984  139.4873  155.8100 O   0  0  0  0  0  0  0  0  0  0  0  0
  151.0530  139.9568  155.7771 C   0  0  0  0  0  0  0  0  0  0  0  0
  147.4923  136.2697  152.6111 H   0  0  0  0  0  0  0  0  0  0  0  0
  145.5587  134.8861  153.4404 H   0  0  0  0  0  0  0  0  0  0  0  0
  144.6606  136.3718  153.5885 H   0  0  0  0  0  0  0  0  0  0  0  0
  143.9915  135.9287  151.3925 H   0  0  0  0  0  0  0  0  0  0  0  0
  145.5789  136.5209  150.9472 H   0  0  0  0  0  0  0  0  0  0  0  0
  143.5879  133.8780  149.9795 H   0  0  0  0  0  0  0  0  0  0  0  0
  145.1339  131.6544  149.3155 H   0  0  0  0  0  0  0  0  0  0  0  0
  147.4693  134.3292  151.6246 H   0  0  0  0  0  0  0  0  0  0  0  0
  148.8615  137.5218  153.3816 H   0  0  0  0  0  0  0  0  0  0  0  0
  148.3197  139.9243  154.6814 H   0  0  0  0  0  0  0  0  0  0  0  0
  148.5911  138.7630  155.9573 H   0  0  0  0  0  0  0  0  0  0  0  0
  150.5397  139.5588  153.7330 H   0  0  0  0  0  0  0  0  0  0  0  0
  150.7500  137.2312  155.6638 H   0  0  0  0  0  0  0  0  0  0  0  0
  150.9946  137.1943  153.9126 H   0  0  0  0  0  0  0  0  0  0  0  0
  153.1368  137.5527  155.5464 H   0  0  0  0  0  0  0  0  0  0  0  0
  152.9972  138.5419  154.0903 H   0  0  0  0  0  0  0  0  0  0  0  0
  151.0114  141.0249  155.5624 H   0  0  0  0  0  0  0  0  0  0  0  0
  150.6107  139.7940  156.7608 H   0  0  0  0  0  0  0  0  0  0  0  0
  147.3893  132.1049  150.3738 H   0  0  0  0  0  0  0  0  0  0  0  0
  1  2  2  0  0  0  0
  2  3  1  0  0  0  0
  2 11  1  0  0  0  0
  3  4  1  0  0  0  0
  3 18  1  0  0  0  0
  4  5  1  0  0  0  0
  4 19  1  0  0  0  0
  4 20  1  0  0  0  0
  5  6  1  0  0  0  0
  5 21  1  0  0  0  0
  5 22  1  0  0  0  0
  6 10  1  0  0  0  0
  6  7  1  0  0  0  0
  7  8  2  0  0  0  0
  7 23  1  0  0  0  0
  8  9  1  0  0  0  0
  8 24  1  0  0  0  0
  9 10  2  0  0  0  0
  9 36  1  0  0  0  0
 10 25  1  0  0  0  0
 11 12  1  0  0  0  0
 11 26  1  0  0  0  0
 12 13  1  0  0  0  0
 12 27  1  0  0  0  0
 12 28  1  0  0  0  0
 13 17  1  0  0  0  0
 13 14  1  0  0  0  0
 13 29  1  0  0  0  0
 14 15  1  0  0  0  0
 14 30  1  0  0  0  0
 14 31  1  0  0  0  0
 15 16  1  0  0  0  0
 15 32  1  0  0  0  0
 15 33  1  0  0  0  0
 16 17  1  0  0  0  0
 17 34  1  0  0  0  0
 17 35  1  0  0  0  0
M  CHG  1   9   1
M  END
> <s_m_source_file>
AV-unprocessed.smi

> <i_m_source_file_index>
3170

> <i_lp_mmshare_version>
43012

> <i_f3d_flags>
0

> <s_epik_input>
W0NIMl0xT1tDSDJdW0NIMl1bQ0BIXTFbQ0gyXVtOSF1DKD1PKVtOSF1bQ0gyXVtDSDJdbjJbY0hdW2NIXW5bY0hdMg==

> <s_epik_cmdline>
J2VwaWtfcHl0aG9uJywgJy1waCcsICc3LjAnLCAnLXRuJywgJzgnLCAnLW1hJywgJzIwMCcsICctbWV0YWxfYmluZGluZycsICctaW1hZScsICc8aW5maWxlLm1hZT4nLCAnLW9tYWUnLCAnPG91dGZpbGUubWFlPic=

> <r_lp_tautomer_probability>
1

> <r_epik_Ionization_Penalty>
0.255699

> <r_epik_Ionization_Penalty_Charging>
0

> <r_epik_Ionization_Penalty_Neutral>
0.255699

> <r_epik_State_Penalty>
0.247169

> <r_epik_Charging_Adjusted_Penalty>
0.247169

> <i_epik_Tot_Q>
1

> <i_epik_Tot_abs_Q>
1

> <r_epik_Metal_State_Penalty>
0.536793

> <b_epik_Metal_Only>
0

> <s_lp_Force_Field>
OPLS_2005

> <r_lp_Energy>
19.7141

> <b_lp_Chiralities_Consistent>
1

> <s_lp_Variant>
AV-unprocessed.smi:3170-1

> <Gold.Version>
5.8.1

> <Gold.Id.Protein>
6NUR|6NUR_protein|mol2

> <Gold.PLP.Fitness>
47.7199

> <Gold.PLP.PLP>
-32.2330

> <Gold.PLP.part.hbond>
-4.1675

> <Gold.PLP.part.metal>
0.0000

> <Gold.PLP.part.buried>
-3.9544

> <Gold.PLP.part.nonpolar>
-24.6827

> <Gold.PLP.part.repulsive>
0.1819

> <Gold.PLP.ligand.clash>
0.0000

> <Gold.PLP.ligand.torsion>
0.5380

> <Gold.PLP.Chemscore.Hbond>
3.7645

> <Gold.PLP.Chemscore.CHOScore>
1.7432

> <Gold.PLP.Chemscore.Metal>
0.0000

> <Gold.Chemscore.Hbonds>
donor molecule, donor type, donor heavy atom, donor atom, acceptor molecule, acceptor atom, score
      L1  H     3    18       P1  7948  1.00
      L1  H     9    36       P1 10747  1.00
      L1  H    11    26       P1  7948  0.91
      P1  H  7997  8010       L1    16  0.84
      L1  C     7    23       P1 10186  0.65
      L1  C    10    25       P1  7948  0.97

> <Gold.PLP.Chemscore.Internal.Correction>
0.0398

> <Gold.Rescore>
     Score         DG    S(hbond)    S(metal)    S(lipo)     H(rot)  DE(clash)    DE(int)     intcor
     18.67     -19.34       3.75        0.00      62.25       2.33       0.06       0.62       ----

> <Gold.Chemscore.Fitness>
18.6658

> <Gold.Chemscore.DG>
-19.3438

> <Gold.Chemscore.ZeroCoef>
-5.4800

> <Gold.Chemscore.Hbond>
3.7550

> <Gold.Chemscore.Metal>
0.0000

> <Gold.Chemscore.Lipo>
62.2548

> <Gold.Chemscore.Internal_Hbond>
0.0000

> <Gold.Chemscore.DEClash>
0.0611

> <Gold.Chemscore.DEInternal>
0.6169

> <Gold.Chemscore.Rot>
2.3288

> <Gold.Chemscore.Internal.Correction>
   9.000000E+99

> <Gold.Chemscore.Hbonds>
donor molecule, donor type, donor heavy atom, donor atom, acceptor molecule, acceptor atom, score
      L1  H     3    18       P1  7948  0.99
      L1  H     9    36       P1 10747  0.95
      L1  H    11    26       P1  7948  0.86
      P1  H  7997  8010       L1    16  0.50

> <Gold.Chemscore.Hbond.Weighted>
-12.5417

> <Gold.Chemscore.Metal.Weighted>
-0.0000

> <Gold.Chemscore.Lipo.Weighted>
-7.2838

> <Gold.Chemscore.Internal_Hbond.Weighted>
0.0000

> <Gold.Chemscore.DEClash.Weighted>
0.0611

> <Gold.Chemscore.DEInternal.Weighted>
0.6169

> <Gold.Chemscore.Rot.Weighted>
5.9617

> <Gold.Chemscore.Internal.Correction.Weighted>
   9.000000E+99

> <Gold.Protein.RotatedTorsions>
[ 6907 6896 6895 6894 ] final  116.20 input  -60.11 | X-H torsion
[ 7974 7965 7964 7962 ] final -146.08 input  175.53 | X-H torsion
[ 8008 7997 7996 7995 ] final   82.77 input   59.86 | X-H torsion
[ 10167 10162 10161 10158 ] final -175.15 input  -65.29 | X-H torsion
[ 10718 10713 10712 10709 ] final -140.02 input   66.30 | X-H torsion
[ 10763 10752 10751 10750 ] final   16.96 input  -60.55 | X-H torsion
[ 11005 11000 10999 10996 ] final   35.38 input  -57.11 | X-H torsion

> <Gold.Protein.ActiveResidues>
 VAL166  LYS551  ARG553  GLY616  TRP617  ASP618  TYR619  PRO620  LYS621  CYS622 
 ASP623  PHE694  ASN695  SER759  ASP760  ASP761  ALA762  ILE779  LEU786  VAL792 
 PHE793  MET794  SER795  GLU796  ALA797  LYS798  CYS799  TRP800  GLU811  SER814 

> <Gold.Protein.RotatedAtoms>
  152.4693  133.7993  159.6944 H   0  0  0  0  0  0  0  0  0  0  0  0  # atno 6907 bound_to 6896
  150.8674  133.7545  159.2979 H   0  0  0  0  0  0  0  0  0  0  0  0  # atno 6908 bound_to 6896
  151.5092  135.1067  159.9901 H   0  0  0  0  0  0  0  0  0  0  0  0  # atno 6909 bound_to 6896
  144.8183  140.5502  143.5595 H   0  0  0  0  0  0  0  0  0  0  0  0  # atno 7974 bound_to 7965
  155.9150  140.3425  155.6128 H   0  0  0  0  0  0  0  0  0  0  0  0  # atno 8008 bound_to 7997
  155.7342  140.0799  157.2294 H   0  0  0  0  0  0  0  0  0  0  0  0  # atno 8009 bound_to 7997
  154.4061  140.1582  156.2530 H   0  0  0  0  0  0  0  0  0  0  0  0  # atno 8010 bound_to 7997
  139.5596  144.1902  152.1217 H   0  0  0  0  0  0  0  0  0  0  0  0  # atno 10167 bound_to 10162
  156.3174  130.7515  151.1605 H   0  0  0  0  0  0  0  0  0  0  0  0  # atno 10718 bound_to 10713
  153.1382  135.6754  153.9069 H   0  0  0  0  0  0  0  0  0  0  0  0  # atno 10763 bound_to 10752
  153.8534  135.3090  155.3435 H   0  0  0  0  0  0  0  0  0  0  0  0  # atno 10764 bound_to 10752
  154.7765  135.4911  153.9839 H   0  0  0  0  0  0  0  0  0  0  0  0  # atno 10765 bound_to 10752
  140.2432  134.3390  155.7917 H   0  0  0  0  0  0  0  0  0  0  0  0  # atno 11005 bound_to 11000
  145.5162  139.1478  143.3577 LP  0  0  0  0  0  0  0  0  0  0  0  0  # atno 17320 bound_to 7965
  146.2488  140.5303  142.8902 LP  0  0  0  0  0  0  0  0  0  0  0  0  # atno 17321 bound_to 7965
  140.1413  144.5199  150.6742 LP  0  0  0  0  0  0  0  0  0  0  0  0  # atno 17342 bound_to 10162
  140.6874  143.2357  151.5223 LP  0  0  0  0  0  0  0  0  0  0  0  0  # atno 17343 bound_to 10162
  157.7404  131.0517  150.5165 LP  0  0  0  0  0  0  0  0  0  0  0  0  # atno 17370 bound_to 10713
  156.5313  130.4185  149.6200 LP  0  0  0  0  0  0  0  0  0  0  0  0  # atno 17371 bound_to 10713
  141.2208  133.7311  156.8919 LP  0  0  0  0  0  0  0  0  0  0  0  0  # atno 17394 bound_to 11000
  140.1632  134.9151  157.2741 LP  0  0  0  0  0  0  0  0  0  0  0  0  # atno 17395 bound_to 11000

$$$$
