AV-unprocessed.smi:3211|AV-procd|sdf|12277|dock4
  -GOLD-   2272018113D 1   1.00000     0.00000
 Structure written by MMmdl.
 34 35  0  0  0  0  0  0  0  0  1 V2000
  153.7680  141.4932  161.2315 C   0  0  0  0  0  0  0  0  0  0  0  0
  153.0238  142.7817  161.5973 C   0  0  0  0  0  0  0  0  0  0  0  0
  152.4786  143.4871  160.4008 C   0  0  0  0  0  0  0  0  0  0  0  0
  152.3875  142.9257  159.1921 N   0  0  0  0  0  0  0  0  0  0  0  0
  151.8111  143.7777  158.2446 C   0  0  0  0  0  0  0  0  0  0  0  0
  151.6334  143.3154  156.8304 C   0  0  0  0  0  0  0  0  0  0  0  0
  150.7634  142.0509  156.7372 C   0  0  0  0  0  0  0  0  0  0  0  0
  149.7323  142.1816  155.7138 N   0  0  0  0  0  0  0  0  0  0  0  0
  149.5538  141.3351  154.6881 C   0  0  0  0  0  0  0  0  0  0  0  0
  150.2623  140.3437  154.5058 O   0  0  0  0  0  0  0  0  0  0  0  0
  148.4170  141.7000  153.7901 C   0  0  1  0  0  0  0  0  0  0  0  0
  147.3416  140.6570  153.5620 C   0  0  0  0  0  0  0  0  0  0  0  0
  147.0457  141.8640  154.4188 C   0  0  2  0  0  0  0  0  0  0  0  0
  146.1076  142.9490  153.9358 C   0  0  0  0  0  0  0  0  0  0  0  0
  151.4537  144.9983  158.7609 C   0  0  0  0  0  0  0  0  0  0  0  0
  151.8263  145.1207  160.4582 S   0  0  0  0  0  0  0  0  0  0  0  0
  154.1527  141.0000  162.1240 H   0  0  0  0  0  0  0  0  0  0  0  0
  154.6131  141.7003  160.5743 H   0  0  0  0  0  0  0  0  0  0  0  0
  153.1092  140.7909  160.7195 H   0  0  0  0  0  0  0  0  0  0  0  0
  152.1995  142.5551  162.2740 H   0  0  0  0  0  0  0  0  0  0  0  0
  153.6910  143.4582  162.1329 H   0  0  0  0  0  0  0  0  0  0  0  0
  151.1851  144.1141  156.2382 H   0  0  0  0  0  0  0  0  0  0  0  0
  152.6070  143.1211  156.3785 H   0  0  0  0  0  0  0  0  0  0  0  0
  151.3833  141.1902  156.4844 H   0  0  0  0  0  0  0  0  0  0  0  0
  150.3055  141.8298  157.7030 H   0  0  0  0  0  0  0  0  0  0  0  0
  149.1082  142.9716  155.7923 H   0  0  0  0  0  0  0  0  0  0  0  0
  148.6536  142.3482  152.9470 H   0  0  0  0  0  0  0  0  0  0  0  0
  146.9047  140.6112  152.5664 H   0  0  0  0  0  0  0  0  0  0  0  0
  147.4321  139.6964  154.0664 H   0  0  0  0  0  0  0  0  0  0  0  0
  146.9658  141.6759  155.4886 H   0  0  0  0  0  0  0  0  0  0  0  0
  146.2038  143.0940  152.8593 H   0  0  0  0  0  0  0  0  0  0  0  0
  146.3359  143.8904  154.4357 H   0  0  0  0  0  0  0  0  0  0  0  0
  145.0758  142.6778  154.1594 H   0  0  0  0  0  0  0  0  0  0  0  0
  150.9909  145.8286  158.2478 H   0  0  0  0  0  0  0  0  0  0  0  0
  1  2  1  0  0  0  0
  1 17  1  0  0  0  0
  1 18  1  0  0  0  0
  1 19  1  0  0  0  0
  2  3  1  0  0  0  0
  2 20  1  0  0  0  0
  2 21  1  0  0  0  0
  3 16  1  0  0  0  0
  3  4  2  0  0  0  0
  4  5  1  0  0  0  0
  5  6  1  0  0  0  0
  5 15  2  0  0  0  0
  6  7  1  0  0  0  0
  6 22  1  0  0  0  0
  6 23  1  0  0  0  0
  7  8  1  0  0  0  0
  7 24  1  0  0  0  0
  7 25  1  0  0  0  0
  8  9  1  0  0  0  0
  8 26  1  0  0  0  0
  9 10  2  0  0  0  0
  9 11  1  0  0  0  0
 11 13  1  0  0  0  0
 11 12  1  0  0  0  0
 11 27  1  0  0  0  0
 12 13  1  0  0  0  0
 12 28  1  0  0  0  0
 12 29  1  0  0  0  0
 13 14  1  0  0  0  0
 13 30  1  0  0  0  0
 14 31  1  0  0  0  0
 14 32  1  0  0  0  0
 14 33  1  0  0  0  0
 15 16  1  0  0  0  0
 15 34  1  0  0  0  0
M  END
> <s_m_source_file>
AV-unprocessed.smi

> <i_m_source_file_index>
3211

> <i_lp_mmshare_version>
43012

> <i_f3d_flags>
0

> <s_epik_input>
W0NIM11bQ0gyXWMxbmMoW2NIXXMxKVtDSDJdW0NIMl1bTkhdQyg9TylbQ0BASF0yW0NIMl1bQ0BIXTJbQ0gzXQ==

> <s_epik_cmdline>
J2VwaWtfcHl0aG9uJywgJy1waCcsICc3LjAnLCAnLXRuJywgJzgnLCAnLW1hJywgJzIwMCcsICctbWV0YWxfYmluZGluZycsICctaW1hZScsICc8aW5maWxlLm1hZT4nLCAnLW9tYWUnLCAnPG91dGZpbGUubWFlPic=

> <r_epik_Ionization_Penalty>
0.00109667

> <r_epik_Ionization_Penalty_Charging>
0

> <r_epik_Ionization_Penalty_Neutral>
0.00109667

> <r_epik_State_Penalty>
0.000719322

> <r_epik_Charging_Adjusted_Penalty>
0.000719322

> <i_epik_Tot_Q>
0

> <i_epik_Tot_abs_Q>
0

> <r_epik_Metal_State_Penalty>
-0

> <b_epik_Metal_Only>
0

> <s_lp_Force_Field>
OPLS_2005

> <r_lp_Energy>
-0.564993

> <b_lp_Chiralities_Consistent>
1

> <s_lp_Variant>
AV-unprocessed.smi:3211-4

> <Gold.Version>
5.8.1

> <Gold.Id.Protein>
6NUR|6NUR_protein|mol2

> <Gold.PLP.Fitness>
50.4799

> <Gold.PLP.PLP>
-45.4408

> <Gold.PLP.part.hbond>
-2.0000

> <Gold.PLP.part.metal>
0.0000

> <Gold.PLP.part.buried>
-4.6041

> <Gold.PLP.part.nonpolar>
-38.0090

> <Gold.PLP.part.repulsive>
0.2431

> <Gold.PLP.ligand.clash>
0.0000

> <Gold.PLP.ligand.torsion>
0.5222

> <Gold.PLP.Chemscore.Hbond>
2.0000

> <Gold.PLP.Chemscore.CHOScore>
0.0000

> <Gold.PLP.Chemscore.Metal>
0.0000

> <Gold.Chemscore.Hbonds>
donor molecule, donor type, donor heavy atom, donor atom, acceptor molecule, acceptor atom, score
      L1  H     8    26       P1  8028  0.96
      P1  H  7989  7998       L1    10  1.00

> <Gold.PLP.Chemscore.Internal.Correction>
0.0835

> <Gold.Rescore>
     Score         DG    S(hbond)    S(metal)    S(lipo)     H(rot)  DE(clash)    DE(int)     intcor
     19.62     -20.35       1.53        0.00     116.40       1.51       0.34       0.39       ----

> <Gold.Chemscore.Fitness>
19.6216

> <Gold.Chemscore.DG>
-20.3524

> <Gold.Chemscore.ZeroCoef>
-5.4800

> <Gold.Chemscore.Hbond>
1.5323

> <Gold.Chemscore.Metal>
0.0000

> <Gold.Chemscore.Lipo>
116.4022

> <Gold.Chemscore.Internal_Hbond>
0.0000

> <Gold.Chemscore.DEClash>
0.3386

> <Gold.Chemscore.DEInternal>
0.3921

> <Gold.Chemscore.Rot>
1.5096

> <Gold.Chemscore.Internal.Correction>
   9.000000E+99

> <Gold.Chemscore.Hbonds>
donor molecule, donor type, donor heavy atom, donor atom, acceptor molecule, acceptor atom, score
      L1  H     8    26       P1  8028  0.92
      P1  H  7989  7998       L1    10  0.53

> <Gold.Chemscore.Hbond.Weighted>
-5.1179

> <Gold.Chemscore.Metal.Weighted>
-0.0000

> <Gold.Chemscore.Lipo.Weighted>
-13.6191

> <Gold.Chemscore.Internal_Hbond.Weighted>
0.0000

> <Gold.Chemscore.DEClash.Weighted>
0.3386

> <Gold.Chemscore.DEInternal.Weighted>
0.3921

> <Gold.Chemscore.Rot.Weighted>
3.8646

> <Gold.Chemscore.Internal.Correction.Weighted>
   9.000000E+99

> <Gold.Protein.RotatedTorsions>
[ 6907 6896 6895 6894 ] final   34.44 input  -60.11 | X-H torsion
[ 7974 7965 7964 7962 ] final   58.02 input  175.53 | X-H torsion
[ 8008 7997 7996 7995 ] final  112.51 input   59.86 | X-H torsion
[ 10167 10162 10161 10158 ] final -103.73 input  -65.29 | X-H torsion
[ 10718 10713 10712 10709 ] final  155.27 input   66.30 | X-H torsion
[ 10763 10752 10751 10750 ] final  113.86 input  -60.55 | X-H torsion
[ 11005 11000 10999 10996 ] final  172.69 input  -57.11 | X-H torsion

> <Gold.Protein.ActiveResidues>
 VAL166  LYS551  ARG553  GLY616  TRP617  ASP618  TYR619  PRO620  LYS621  CYS622 
 ASP623  PHE694  ASN695  SER759  ASP760  ASP761  ALA762  ILE779  LEU786  VAL792 
 PHE793  MET794  SER795  GLU796  ALA797  LYS798  CYS799  TRP800  GLU811  SER814 

> <Gold.Protein.RotatedAtoms>
  152.1024  134.9332  160.0568 H   0  0  0  0  0  0  0  0  0  0  0  0  # atno 6907 bound_to 6896
  152.0542  133.4027  159.4398 H   0  0  0  0  0  0  0  0  0  0  0  0  # atno 6908 bound_to 6896
  150.6840  134.3194  159.4824 H   0  0  0  0  0  0  0  0  0  0  0  0  # atno 6909 bound_to 6896
  145.9227  139.3742  143.0469 H   0  0  0  0  0  0  0  0  0  0  0  0  # atno 7974 bound_to 7965
  156.2197  140.2998  155.9922 H   0  0  0  0  0  0  0  0  0  0  0  0  # atno 8008 bound_to 7997
  155.2514  140.0426  157.3004 H   0  0  0  0  0  0  0  0  0  0  0  0  # atno 8009 bound_to 7997
  154.5821  140.2378  155.8047 H   0  0  0  0  0  0  0  0  0  0  0  0  # atno 8010 bound_to 7997
  140.2168  143.3705  152.1003 H   0  0  0  0  0  0  0  0  0  0  0  0  # atno 10167 bound_to 10162
  157.2206  131.0717  151.1914 H   0  0  0  0  0  0  0  0  0  0  0  0  # atno 10718 bound_to 10713
  153.4987  135.3643  155.2529 H   0  0  0  0  0  0  0  0  0  0  0  0  # atno 10763 bound_to 10752
  154.8749  135.3994  154.3504 H   0  0  0  0  0  0  0  0  0  0  0  0  # atno 10764 bound_to 10752
  153.4136  135.7078  153.6408 H   0  0  0  0  0  0  0  0  0  0  0  0  # atno 10765 bound_to 10752
  140.3325  134.7345  157.4144 H   0  0  0  0  0  0  0  0  0  0  0  0  # atno 11005 bound_to 11000
  145.8529  140.9518  143.0740 LP  0  0  0  0  0  0  0  0  0  0  0  0  # atno 17320 bound_to 7965
  144.6755  140.0430  143.7480 LP  0  0  0  0  0  0  0  0  0  0  0  0  # atno 17321 bound_to 7965
  139.5159  144.6969  151.5604 LP  0  0  0  0  0  0  0  0  0  0  0  0  # atno 17342 bound_to 10162
  140.6284  143.9125  150.6584 LP  0  0  0  0  0  0  0  0  0  0  0  0  # atno 17343 bound_to 10162
  157.3580  130.7116  149.6483 LP  0  0  0  0  0  0  0  0  0  0  0  0  # atno 17370 bound_to 10713
  155.9682  130.4233  150.4558 LP  0  0  0  0  0  0  0  0  0  0  0  0  # atno 17371 bound_to 10713
  140.0849  134.5680  155.8502 LP  0  0  0  0  0  0  0  0  0  0  0  0  # atno 17394 bound_to 11000
  141.2060  133.6651  156.6213 LP  0  0  0  0  0  0  0  0  0  0  0  0  # atno 17395 bound_to 11000

$$$$
