AV-unprocessed.smi:1116|AV-procd|sdf|4809|dock3
  -GOLD-   22720 3363D 1   1.00000     0.00000
 Structure written by MMmdl.
 35 36  0  0  0  0  0  0  0  0  2 V2000
  151.8101  145.3068  158.9599 C   0  0  0  0  0  0  0  0  0  0  0  0
  152.3299  144.2057  159.8194 C   0  0  0  0  0  0  0  0  0  0  0  0
  152.9826  143.1415  159.3446 N   0  0  0  0  0  0  0  0  0  0  0  0
  153.3638  142.2500  160.3525 C   0  0  0  0  0  0  0  0  0  0  0  0
  154.0981  140.9915  160.0030 C   0  0  0  0  0  0  0  0  0  0  0  0
  154.5102  140.1956  161.2529 C   0  0  0  0  0  0  0  0  0  0  0  0
  154.7419  138.7893  160.9461 N   0  0  0  0  0  0  0  0  0  0  0  0
  155.3720  138.3281  159.8550 C   0  0  0  0  0  0  0  0  0  0  0  0
  155.8228  139.0596  158.9730 O   0  0  0  0  0  0  0  0  0  0  0  0
  155.5085  136.8090  159.7412 C   0  0  0  0  0  0  0  0  0  0  0  0
  154.7636  136.2471  158.5160 C   0  0  0  0  0  0  0  0  0  0  0  0
  154.8926  134.7148  158.3884 C   0  0  2  0  0  0  0  0  0  0  0  0
  154.4782  134.0443  159.6088 N   0  5  0  0  0  0  0  0  0  0  0  0
  155.5167  133.3069  160.0677 C   0  0  0  0  0  0  0  0  0  0  0  0
  155.5481  132.5932  161.0677 O   0  0  0  0  0  0  0  0  0  0  0  0
  156.5822  133.4435  159.2716 N   0  0  0  0  0  0  0  0  0  0  0  0
  156.3349  134.2640  158.2557 C   0  0  0  0  0  0  0  0  0  0  0  0
  157.1109  134.6054  157.3643 O   0  0  0  0  0  0  0  0  0  0  0  0
  152.9912  142.6614  161.6080 C   0  0  0  0  0  0  0  0  0  0  0  0
  152.1423  144.1821  161.5684 S   0  0  0  0  0  0  0  0  0  0  0  0
  151.9506  145.0708  157.9045 H   0  0  0  0  0  0  0  0  0  0  0  0
  152.3374  146.2341  159.1842 H   0  0  0  0  0  0  0  0  0  0  0  0
  150.7463  145.4545  159.1462 H   0  0  0  0  0  0  0  0  0  0  0  0
  153.4768  140.3700  159.3571 H   0  0  0  0  0  0  0  0  0  0  0  0
  154.9868  141.2326  159.4183 H   0  0  0  0  0  0  0  0  0  0  0  0
  155.4342  140.6042  161.6632 H   0  0  0  0  0  0  0  0  0  0  0  0
  153.7544  140.2878  162.0348 H   0  0  0  0  0  0  0  0  0  0  0  0
  154.4058  138.1136  161.6173 H   0  0  0  0  0  0  0  0  0  0  0  0
  156.5651  136.5422  159.6908 H   0  0  0  0  0  0  0  0  0  0  0  0
  155.1189  136.3560  160.6533 H   0  0  0  0  0  0  0  0  0  0  0  0
  153.7080  136.5130  158.5943 H   0  0  0  0  0  0  0  0  0  0  0  0
  155.1276  136.7289  157.6063 H   0  0  0  0  0  0  0  0  0  0  0  0
  154.3435  134.3653  157.5129 H   0  0  0  0  0  0  0  0  0  0  0  0
  157.4681  132.9870  159.4300 H   0  0  0  0  0  0  0  0  0  0  0  0
  153.1621  142.1612  162.5498 H   0  0  0  0  0  0  0  0  0  0  0  0
  1  2  1  0  0  0  0
  1 21  1  0  0  0  0
  1 22  1  0  0  0  0
  1 23  1  0  0  0  0
  2 20  1  0  0  0  0
  2  3  2  0  0  0  0
  3  4  1  0  0  0  0
  4  5  1  0  0  0  0
  4 19  2  0  0  0  0
  5  6  1  0  0  0  0
  5 24  1  0  0  0  0
  5 25  1  0  0  0  0
  6  7  1  0  0  0  0
  6 26  1  0  0  0  0
  6 27  1  0  0  0  0
  7  8  1  0  0  0  0
  7 28  1  0  0  0  0
  8  9  2  0  0  0  0
  8 10  1  0  0  0  0
 10 11  1  0  0  0  0
 10 29  1  0  0  0  0
 10 30  1  0  0  0  0
 11 12  1  0  0  0  0
 11 31  1  0  0  0  0
 11 32  1  0  0  0  0
 12 17  1  0  0  0  0
 12 13  1  0  0  0  0
 12 33  1  0  0  0  0
 13 14  1  0  0  0  0
 14 15  2  0  0  0  0
 14 16  1  0  0  0  0
 16 17  1  0  0  0  0
 16 34  1  0  0  0  0
 17 18  2  0  0  0  0
 19 20  1  0  0  0  0
 19 35  1  0  0  0  0
M  CHG  1  13  -1
M  END
> <s_m_source_file>
AV-unprocessed.smi

> <i_m_source_file_index>
1116

> <i_lp_mmshare_version>
43012

> <i_f3d_flags>
0

> <s_epik_input>
W0NIM11jMW5jKFtjSF1zMSlbQ0gyXVtDSDJdW05IXUMoPU8pW0NIMl1bQ0gyXVtDQEBIXTJbTkhdQyg9TylbTkhdQzI9Tw==

> <s_epik_cmdline>
J2VwaWtfcHl0aG9uJywgJy1waCcsICc3LjAnLCAnLXRuJywgJzgnLCAnLW1hJywgJzIwMCcsICctbWV0YWxfYmluZGluZycsICctaW1hZScsICc8aW5maWxlLm1hZT4nLCAnLW9tYWUnLCAnPG91dGZpbGUubWFlPic=

> <r_lp_tautomer_probability>
1

> <r_epik_Ionization_Penalty>
5.7962

> <r_epik_Ionization_Penalty_Charging>
5.79516

> <r_epik_Ionization_Penalty_Neutral>
0.00104588

> <r_epik_State_Penalty>
5.80096

> <r_epik_Charging_Adjusted_Penalty>
11.5961

> <i_epik_Tot_Q>
-1

> <i_epik_Tot_abs_Q>
1

> <r_epik_Metal_State_Penalty>
2.1448

> <b_epik_Metal_Only>
1

> <s_lp_Force_Field>
OPLS_2005

> <r_lp_Energy>
4.59195

> <b_lp_Chiralities_Consistent>
1

> <s_lp_Variant>
AV-unprocessed.smi:1116-3

> <Gold.Version>
5.8.1

> <Gold.Id.Protein>
6NUR|6NUR_protein|mol2

> <Gold.PLP.Fitness>
42.0338

> <Gold.PLP.PLP>
-33.4899

> <Gold.PLP.part.hbond>
-2.0000

> <Gold.PLP.part.metal>
0.0000

> <Gold.PLP.part.buried>
-5.2174

> <Gold.PLP.part.nonpolar>
-25.7285

> <Gold.PLP.part.repulsive>
0.0301

> <Gold.PLP.ligand.clash>
0.0000

> <Gold.PLP.ligand.torsion>
0.2742

> <Gold.PLP.Chemscore.Hbond>
3.0000

> <Gold.PLP.Chemscore.CHOScore>
0.0000

> <Gold.PLP.Chemscore.Metal>
0.0000

> <Gold.Chemscore.Hbonds>
donor molecule, donor type, donor heavy atom, donor atom, acceptor molecule, acceptor atom, score
      P1  H  6896  6907       L1    13  2.00
      P1  H  7997  8010       L1     9  1.00

> <Gold.PLP.Chemscore.Internal.Correction>
0.0922

> <Gold.Rescore>
     Score         DG    S(hbond)    S(metal)    S(lipo)     H(rot)  DE(clash)    DE(int)     intcor
     13.60     -15.28       1.99        0.00      87.44       2.77       0.00       1.68       ----

> <Gold.Chemscore.Fitness>
13.6000

> <Gold.Chemscore.DG>
-15.2830

> <Gold.Chemscore.ZeroCoef>
-5.4800

> <Gold.Chemscore.Hbond>
1.9946

> <Gold.Chemscore.Metal>
0.0000

> <Gold.Chemscore.Lipo>
87.4355

> <Gold.Chemscore.Internal_Hbond>
0.0000

> <Gold.Chemscore.DEClash>
0.0000

> <Gold.Chemscore.DEInternal>
1.6830

> <Gold.Chemscore.Rot>
2.7691

> <Gold.Chemscore.Internal.Correction>
   9.000000E+99

> <Gold.Chemscore.Hbonds>
donor molecule, donor type, donor heavy atom, donor atom, acceptor molecule, acceptor atom, score
      P1  H  6896  6907       L1    13  0.82
      P1  H  7997  8010       L1     9  1.00

> <Gold.Chemscore.Hbond.Weighted>
-6.6620

> <Gold.Chemscore.Metal.Weighted>
-0.0000

> <Gold.Chemscore.Lipo.Weighted>
-10.2300

> <Gold.Chemscore.Internal_Hbond.Weighted>
0.0000

> <Gold.Chemscore.DEClash.Weighted>
0.0000

> <Gold.Chemscore.DEInternal.Weighted>
1.6830

> <Gold.Chemscore.Rot.Weighted>
7.0889

> <Gold.Chemscore.Internal.Correction.Weighted>
   9.000000E+99

> <Gold.Protein.RotatedTorsions>
[ 6907 6896 6895 6894 ] final   96.34 input  -60.11 | X-H torsion
[ 7974 7965 7964 7962 ] final -152.46 input  175.53 | X-H torsion
[ 8008 7997 7996 7995 ] final  -13.54 input   59.86 | X-H torsion
[ 10167 10162 10161 10158 ] final  176.12 input  -65.29 | X-H torsion
[ 10718 10713 10712 10709 ] final  -44.42 input   66.30 | X-H torsion
[ 10763 10752 10751 10750 ] final   60.68 input  -60.55 | X-H torsion
[ 11005 11000 10999 10996 ] final   26.86 input  -57.11 | X-H torsion

> <Gold.Protein.ActiveResidues>
 VAL166  LYS551  ARG553  GLY616  TRP617  ASP618  TYR619  PRO620  LYS621  CYS622 
 ASP623  PHE694  ASN695  SER759  ASP760  ASP761  ALA762  ILE779  LEU786  VAL792 
 PHE793  MET794  SER795  GLU796  ALA797  LYS798  CYS799  TRP800  GLU811  SER814 

> <Gold.Protein.RotatedAtoms>
  152.5436  134.0901  159.8272 H   0  0  0  0  0  0  0  0  0  0  0  0  # atno 6907 bound_to 6896
  151.0992  133.5249  159.2618 H   0  0  0  0  0  0  0  0  0  0  0  0  # atno 6908 bound_to 6896
  151.2011  135.0452  159.8927 H   0  0  0  0  0  0  0  0  0  0  0  0  # atno 6909 bound_to 6896
  144.7793  140.4660  143.5850 H   0  0  0  0  0  0  0  0  0  0  0  0  # atno 7974 bound_to 7965
  154.5284  140.2247  155.8849 H   0  0  0  0  0  0  0  0  0  0  0  0  # atno 8008 bound_to 7997
  156.1737  140.3116  155.8985 H   0  0  0  0  0  0  0  0  0  0  0  0  # atno 8009 bound_to 7997
  155.3503  140.0455  157.3036 H   0  0  0  0  0  0  0  0  0  0  0  0  # atno 8010 bound_to 7997
  139.5202  144.2952  152.0428 H   0  0  0  0  0  0  0  0  0  0  0  0  # atno 10167 bound_to 10162
  156.2388  130.4178  149.8785 H   0  0  0  0  0  0  0  0  0  0  0  0  # atno 10718 bound_to 10713
  152.9928  135.5527  154.5913 H   0  0  0  0  0  0  0  0  0  0  0  0  # atno 10763 bound_to 10752
  154.5274  135.2811  155.1212 H   0  0  0  0  0  0  0  0  0  0  0  0  # atno 10764 bound_to 10752
  154.2541  135.6393  153.5303 H   0  0  0  0  0  0  0  0  0  0  0  0  # atno 10765 bound_to 10752
  140.3325  134.2422  155.7700 H   0  0  0  0  0  0  0  0  0  0  0  0  # atno 11005 bound_to 11000
  145.6095  139.1512  143.3084 LP  0  0  0  0  0  0  0  0  0  0  0  0  # atno 17320 bound_to 7965
  146.1992  140.6212  142.9110 LP  0  0  0  0  0  0  0  0  0  0  0  0  # atno 17321 bound_to 7965
  140.2402  144.4277  150.6263 LP  0  0  0  0  0  0  0  0  0  0  0  0  # atno 17342 bound_to 10162
  140.6296  143.2185  151.6524 LP  0  0  0  0  0  0  0  0  0  0  0  0  # atno 17343 bound_to 10162
  156.6374  130.8691  151.3507 LP  0  0  0  0  0  0  0  0  0  0  0  0  # atno 17370 bound_to 10713
  157.7166  130.9505  150.1279 LP  0  0  0  0  0  0  0  0  0  0  0  0  # atno 17371 bound_to 10713
  141.2060  133.7846  157.0203 LP  0  0  0  0  0  0  0  0  0  0  0  0  # atno 17394 bound_to 11000
  140.0849  134.9627  157.1683 LP  0  0  0  0  0  0  0  0  0  0  0  0  # atno 17395 bound_to 11000

$$$$
