AV-unprocessed.smi:2208|AV-procd|sdf|8945|dock9
  -GOLD-   2272012163D 1   1.00000     0.00000
 Structure written by MMmdl.
 35 36  0  0  0  0  0  0  0  0  1 V2000
  149.7882  137.0612  159.1562 C   0  0  0  0  0  0  0  0  0  0  0  0
  150.5028  137.0240  157.8358 C   0  0  0  0  0  0  0  0  0  0  0  0
  151.3243  136.0202  157.5801 N   0  0  0  0  0  0  0  0  0  0  0  0
  151.8258  136.2515  156.2960 O   0  0  0  0  0  0  0  0  0  0  0  0
  151.2774  137.3983  155.8214 C   0  0  0  0  0  0  0  0  0  0  0  0
  151.6824  137.8111  154.4471 C   0  0  0  0  0  0  0  0  0  0  0  0
  150.4280  137.9409  156.7464 C   0  0  0  0  0  0  0  0  0  0  0  0
  149.5966  139.1943  156.6302 C   0  0  0  0  0  0  0  0  0  0  0  0
  150.5219  140.3872  156.3944 C   0  0  0  0  0  0  0  0  0  0  0  0
  151.1035  140.5125  155.3172 O   0  0  0  0  0  0  0  0  0  0  0  0
  150.6189  141.2711  157.3991 N   0  0  0  0  0  0  0  0  0  0  0  0
  151.2970  142.5609  157.3253 C   0  0  0  0  0  0  0  0  0  0  0  0
  151.0115  143.4402  158.5597 C   0  0  2  0  0  0  0  0  0  0  0  0
  151.7889  144.7610  158.6275 C   0  0  0  0  0  0  0  0  0  0  0  0
  151.8909  144.9882  160.1185 C   0  0  0  0  0  0  0  0  0  0  0  0
  152.0937  143.5664  160.6281 C   0  0  0  0  0  0  0  0  0  0  0  0
  151.3081  142.7452  159.7706 O   0  0  0  0  0  0  0  0  0  0  0  0
  149.1639  137.9489  159.2514 H   0  0  0  0  0  0  0  0  0  0  0  0
  150.4965  137.0667  159.9850 H   0  0  0  0  0  0  0  0  0  0  0  0
  149.1422  136.1913  159.2763 H   0  0  0  0  0  0  0  0  0  0  0  0
  151.7847  136.9434  153.7948 H   0  0  0  0  0  0  0  0  0  0  0  0
  152.6376  138.3353  154.4676 H   0  0  0  0  0  0  0  0  0  0  0  0
  150.9406  138.4761  154.0045 H   0  0  0  0  0  0  0  0  0  0  0  0
  148.8744  139.1310  155.8160 H   0  0  0  0  0  0  0  0  0  0  0  0
  149.0142  139.3678  157.5361 H   0  0  0  0  0  0  0  0  0  0  0  0
  150.1105  141.0749  158.2488 H   0  0  0  0  0  0  0  0  0  0  0  0
  152.3680  142.3695  157.2564 H   0  0  0  0  0  0  0  0  0  0  0  0
  151.0220  143.0894  156.4113 H   0  0  0  0  0  0  0  0  0  0  0  0
  149.9449  143.6669  158.5905 H   0  0  0  0  0  0  0  0  0  0  0  0
  152.7912  144.6617  158.2112 H   0  0  0  0  0  0  0  0  0  0  0  0
  151.2868  145.5755  158.1050 H   0  0  0  0  0  0  0  0  0  0  0  0
  152.7030  145.6607  160.3960 H   0  0  0  0  0  0  0  0  0  0  0  0
  150.9559  145.3981  160.5027 H   0  0  0  0  0  0  0  0  0  0  0  0
  153.1392  143.2740  160.5287 H   0  0  0  0  0  0  0  0  0  0  0  0
  151.8057  143.4477  161.6727 H   0  0  0  0  0  0  0  0  0  0  0  0
  1  2  1  0  0  0  0
  1 18  1  0  0  0  0
  1 19  1  0  0  0  0
  1 20  1  0  0  0  0
  2  7  1  0  0  0  0
  2  3  2  0  0  0  0
  3  4  1  0  0  0  0
  4  5  1  0  0  0  0
  5  6  1  0  0  0  0
  5  7  2  0  0  0  0
  6 21  1  0  0  0  0
  6 22  1  0  0  0  0
  6 23  1  0  0  0  0
  7  8  1  0  0  0  0
  8  9  1  0  0  0  0
  8 24  1  0  0  0  0
  8 25  1  0  0  0  0
  9 10  2  0  0  0  0
  9 11  1  0  0  0  0
 11 12  1  0  0  0  0
 11 26  1  0  0  0  0
 12 13  1  0  0  0  0
 12 27  1  0  0  0  0
 12 28  1  0  0  0  0
 13 17  1  0  0  0  0
 13 14  1  0  0  0  0
 13 29  1  0  0  0  0
 14 15  1  0  0  0  0
 14 30  1  0  0  0  0
 14 31  1  0  0  0  0
 15 16  1  0  0  0  0
 15 32  1  0  0  0  0
 15 33  1  0  0  0  0
 16 17  1  0  0  0  0
 16 34  1  0  0  0  0
 16 35  1  0  0  0  0
M  END
> <s_m_source_file>
AV-unprocessed.smi

> <i_m_source_file_index>
2208

> <i_lp_mmshare_version>
43012

> <i_f3d_flags>
0

> <s_epik_input>
W0NIM11jMW5vYyhbQ0gzXSljMVtDSDJdQyg9TylbTkhdW0NIMl1bQ0BASF0yW0NIMl1bQ0gyXVtDSDJdTzI=

> <s_epik_cmdline>
J2VwaWtfcHl0aG9uJywgJy1waCcsICc3LjAnLCAnLXRuJywgJzgnLCAnLW1hJywgJzIwMCcsICctbWV0YWxfYmluZGluZycsICctaW1hZScsICc8aW5maWxlLm1hZT4nLCAnLW9tYWUnLCAnPG91dGZpbGUubWFlPic=

> <r_lp_tautomer_probability>
1

> <r_epik_Ionization_Penalty>
3.13901e-08

> <r_epik_Ionization_Penalty_Charging>
0

> <r_epik_Ionization_Penalty_Neutral>
3.13901e-08

> <r_epik_State_Penalty>
-0

> <r_epik_Charging_Adjusted_Penalty>
0

> <i_epik_Tot_Q>
0

> <i_epik_Tot_abs_Q>
0

> <r_epik_Metal_State_Penalty>
-0

> <b_epik_Metal_Only>
0

> <s_lp_Force_Field>
OPLS_2005

> <r_lp_Energy>
11.1183

> <b_lp_Chiralities_Consistent>
1

> <s_lp_Variant>
AV-unprocessed.smi:2208-1

> <Gold.Version>
5.8.1

> <Gold.Id.Protein>
6NUR|6NUR_protein|mol2

> <Gold.PLP.Fitness>
36.9133

> <Gold.PLP.PLP>
-31.3967

> <Gold.PLP.part.hbond>
-3.4367

> <Gold.PLP.part.metal>
0.0000

> <Gold.PLP.part.buried>
-5.6870

> <Gold.PLP.part.nonpolar>
-22.7245

> <Gold.PLP.part.repulsive>
0.0936

> <Gold.PLP.ligand.clash>
0.0000

> <Gold.PLP.ligand.torsion>
0.1602

> <Gold.PLP.Chemscore.Hbond>
1.9440

> <Gold.PLP.Chemscore.CHOScore>
0.0000

> <Gold.PLP.Chemscore.Metal>
0.0000

> <Gold.Chemscore.Hbonds>
donor molecule, donor type, donor heavy atom, donor atom, acceptor molecule, acceptor atom, score
      P1  H  7989  7998       L1    10  0.94
      P1  H 10752 10763       L1     4  1.00

> <Gold.PLP.Chemscore.Internal.Correction>
0.0049

> <Gold.Rescore>
     Score         DG    S(hbond)    S(metal)    S(lipo)     H(rot)  DE(clash)    DE(int)     intcor
     17.63     -17.90       1.92        0.00      85.48       1.56       0.06       0.22       ----

> <Gold.Chemscore.Fitness>
17.6283

> <Gold.Chemscore.DG>
-17.9044

> <Gold.Chemscore.ZeroCoef>
-5.4800

> <Gold.Chemscore.Hbond>
1.9175

> <Gold.Chemscore.Metal>
0.0000

> <Gold.Chemscore.Lipo>
85.4776

> <Gold.Chemscore.Internal_Hbond>
0.0000

> <Gold.Chemscore.DEClash>
0.0566

> <Gold.Chemscore.DEInternal>
0.2194

> <Gold.Chemscore.Rot>
1.5551

> <Gold.Chemscore.Internal.Correction>
   9.000000E+99

> <Gold.Chemscore.Hbonds>
donor molecule, donor type, donor heavy atom, donor atom, acceptor molecule, acceptor atom, score
      P1  H  7989  7998       L1    10  0.91
      P1  H 10752 10763       L1     4  0.77

> <Gold.Chemscore.Hbond.Weighted>
-6.4044

> <Gold.Chemscore.Metal.Weighted>
-0.0000

> <Gold.Chemscore.Lipo.Weighted>
-10.0009

> <Gold.Chemscore.Internal_Hbond.Weighted>
0.0000

> <Gold.Chemscore.DEClash.Weighted>
0.0566

> <Gold.Chemscore.DEInternal.Weighted>
0.2194

> <Gold.Chemscore.Rot.Weighted>
3.9809

> <Gold.Chemscore.Internal.Correction.Weighted>
   9.000000E+99

> <Gold.Protein.RotatedTorsions>
[ 6907 6896 6895 6894 ] final  129.50 input  -60.11 | X-H torsion
[ 7974 7965 7964 7962 ] final -156.66 input  175.53 | X-H torsion
[ 8008 7997 7996 7995 ] final  -45.43 input   59.86 | X-H torsion
[ 10167 10162 10161 10158 ] final  -83.85 input  -65.29 | X-H torsion
[ 10718 10713 10712 10709 ] final  -46.76 input   66.30 | X-H torsion
[ 10763 10752 10751 10750 ] final   85.70 input  -60.55 | X-H torsion
[ 11005 11000 10999 10996 ] final   14.86 input  -57.11 | X-H torsion

> <Gold.Protein.ActiveResidues>
 VAL166  LYS551  ARG553  GLY616  TRP617  ASP618  TYR619  PRO620  LYS621  CYS622 
 ASP623  PHE694  ASN695  SER759  ASP760  ASP761  ALA762  ILE779  LEU786  VAL792 
 PHE793  MET794  SER795  GLU796  ALA797  LYS798  CYS799  TRP800  GLU811  SER814 

> <Gold.Protein.RotatedAtoms>
  152.3618  133.6306  159.6020 H   0  0  0  0  0  0  0  0  0  0  0  0  # atno 6907 bound_to 6896
  150.7606  133.9411  159.3465 H   0  0  0  0  0  0  0  0  0  0  0  0  # atno 6908 bound_to 6896
  151.7248  135.0888  160.0341 H   0  0  0  0  0  0  0  0  0  0  0  0  # atno 6909 bound_to 6896
  144.7583  140.4078  143.5996 H   0  0  0  0  0  0  0  0  0  0  0  0  # atno 7974 bound_to 7965
  154.4001  140.1397  156.3847 H   0  0  0  0  0  0  0  0  0  0  0  0  # atno 8008 bound_to 7997
  155.7971  140.3477  155.5361 H   0  0  0  0  0  0  0  0  0  0  0  0  # atno 8009 bound_to 7997
  155.8521  140.0943  157.1658 H   0  0  0  0  0  0  0  0  0  0  0  0  # atno 8010 bound_to 7997
  140.4188  143.2593  151.8918 H   0  0  0  0  0  0  0  0  0  0  0  0  # atno 10167 bound_to 10162
  156.2151  130.4163  149.9065 H   0  0  0  0  0  0  0  0  0  0  0  0  # atno 10718 bound_to 10713
  153.1499  135.4608  154.9621 H   0  0  0  0  0  0  0  0  0  0  0  0  # atno 10763 bound_to 10752
  154.7816  135.3190  154.7979 H   0  0  0  0  0  0  0  0  0  0  0  0  # atno 10764 bound_to 10752
  153.8486  135.6923  153.4849 H   0  0  0  0  0  0  0  0  0  0  0  0  # atno 10765 bound_to 10752
  140.4647  134.1091  155.7722 H   0  0  0  0  0  0  0  0  0  0  0  0  # atno 11005 bound_to 11000
  145.6705  139.1598  143.2757 LP  0  0  0  0  0  0  0  0  0  0  0  0  # atno 17320 bound_to 7965
  146.1618  140.6776  142.9274 LP  0  0  0  0  0  0  0  0  0  0  0  0  # atno 17321 bound_to 7965
  139.4782  144.5459  151.8459 LP  0  0  0  0  0  0  0  0  0  0  0  0  # atno 17342 bound_to 10162
  140.4556  144.1793  150.5901 LP  0  0  0  0  0  0  0  0  0  0  0  0  # atno 17343 bound_to 10162
  156.6730  130.8828  151.3565 LP  0  0  0  0  0  0  0  0  0  0  0  0  # atno 17370 bound_to 10713
  157.7059  130.9384  150.0929 LP  0  0  0  0  0  0  0  0  0  0  0  0  # atno 17371 bound_to 10713
  141.1605  133.8802  157.1862 LP  0  0  0  0  0  0  0  0  0  0  0  0  # atno 17394 bound_to 11000
  139.9923  135.0060  157.0002 LP  0  0  0  0  0  0  0  0  0  0  0  0  # atno 17395 bound_to 11000

$$$$
