AV-unprocessed.smi:2648|AV-procd|sdf|10286|dock10
  -GOLD-   2272014303D 1   1.00000     0.00000
 Structure written by MMmdl.
 33 34  0  0  0  0  0  0  0  0  2 V2000
  146.2907  131.0514  153.8182 O   0  0  0  0  0  0  0  0  0  0  0  0
  147.0305  130.9041  152.8457 C   0  0  0  0  0  0  0  0  0  0  0  0
  148.1811  130.2171  152.8905 N   0  0  0  0  0  0  0  0  0  0  0  0
  148.7083  129.5554  154.0780 C   0  0  0  0  0  0  0  0  0  0  0  0
  149.6741  130.4722  154.8508 C   0  0  0  0  0  0  0  0  0  0  0  0
  150.5117  129.7032  155.7741 N   0  0  0  0  0  0  0  0  0  0  0  0
  150.7550  130.0580  157.0426 C   0  0  0  0  0  0  0  0  0  0  0  0
  150.3455  131.0568  157.6332 O   0  0  0  0  0  0  0  0  0  0  0  0
  151.6374  129.0032  157.6739 C   0  0  0  0  0  0  0  0  0  0  0  0
  151.7702  128.1038  156.5479 N   0  0  0  0  0  0  0  0  0  0  0  0
  151.1054  128.5353  155.4682 C   0  0  0  0  0  0  0  0  0  0  0  0
  151.0512  127.9494  154.3880 O   0  0  0  0  0  0  0  0  0  0  0  0
  146.8138  131.4180  151.6222 N   0  0  0  0  0  0  0  0  0  0  0  0
  145.7013  132.1778  151.1676 C   0  0  0  0  0  0  0  0  0  0  0  0
  145.6217  132.4612  149.7859 C   0  0  0  0  0  0  0  0  0  0  0  0
  144.5261  133.1957  149.2880 C   0  0  0  0  0  0  0  0  0  0  0  0
  143.5578  133.6139  150.1310 N   0  3  0  0  0  0  0  0  0  0  0  0
  143.5828  133.3564  151.4562 C   0  0  0  0  0  0  0  0  0  0  0  0
  144.6533  132.6263  152.0118 C   0  0  0  0  0  0  0  0  0  0  0  0
  148.7335  130.1477  152.0482 H   0  0  0  0  0  0  0  0  0  0  0  0
  147.8862  129.2345  154.7205 H   0  0  0  0  0  0  0  0  0  0  0  0
  149.2252  128.6484  153.7630 H   0  0  0  0  0  0  0  0  0  0  0  0
  150.3016  131.0279  154.1517 H   0  0  0  0  0  0  0  0  0  0  0  0
  149.1146  131.2265  155.4070 H   0  0  0  0  0  0  0  0  0  0  0  0
  152.6010  129.4131  157.9782 H   0  0  0  0  0  0  0  0  0  0  0  0
  151.1466  128.5206  158.5196 H   0  0  0  0  0  0  0  0  0  0  0  0
  152.3017  127.2461  156.5880 H   0  0  0  0  0  0  0  0  0  0  0  0
  147.5573  131.2919  150.9511 H   0  0  0  0  0  0  0  0  0  0  0  0
  146.3950  132.1252  149.1101 H   0  0  0  0  0  0  0  0  0  0  0  0
  144.3953  133.4574  148.2482 H   0  0  0  0  0  0  0  0  0  0  0  0
  142.7481  133.7341  152.0287 H   0  0  0  0  0  0  0  0  0  0  0  0
  144.6421  132.4148  153.0700 H   0  0  0  0  0  0  0  0  0  0  0  0
  142.7721  134.1420  149.7505 H   0  0  0  0  0  0  0  0  0  0  0  0
  1  2  2  0  0  0  0
  2  3  1  0  0  0  0
  2 13  1  0  0  0  0
  3  4  1  0  0  0  0
  3 20  1  0  0  0  0
  4  5  1  0  0  0  0
  4 21  1  0  0  0  0
  4 22  1  0  0  0  0
  5  6  1  0  0  0  0
  5 23  1  0  0  0  0
  5 24  1  0  0  0  0
  6 11  1  0  0  0  0
  6  7  1  0  0  0  0
  7  8  2  0  0  0  0
  7  9  1  0  0  0  0
  9 10  1  0  0  0  0
  9 25  1  0  0  0  0
  9 26  1  0  0  0  0
 10 11  1  0  0  0  0
 10 27  1  0  0  0  0
 11 12  2  0  0  0  0
 13 14  1  0  0  0  0
 13 28  1  0  0  0  0
 14 19  1  0  0  0  0
 14 15  2  0  0  0  0
 15 16  1  0  0  0  0
 15 29  1  0  0  0  0
 16 17  2  0  0  0  0
 16 30  1  0  0  0  0
 17 18  1  0  0  0  0
 17 33  1  0  0  0  0
 18 19  2  0  0  0  0
 18 31  1  0  0  0  0
 19 32  1  0  0  0  0
M  CHG  1  17   1
M  END
> <s_m_source_file>
AV-unprocessed.smi

> <i_m_source_file_index>
2648

> <i_lp_mmshare_version>
43012

> <i_f3d_flags>
0

> <s_epik_input>
W2NIXTFbY0hdbltjSF1bY0hdYzFbTkhdQyg9TylbTkhdW0NIMl1bQ0gyXU4yQyg9TylbQ0gyXVtOSF1DMj1P

> <s_epik_cmdline>
J2VwaWtfcHl0aG9uJywgJy1waCcsICc3LjAnLCAnLXRuJywgJzgnLCAnLW1hJywgJzIwMCcsICctbWV0YWxfYmluZGluZycsICctaW1hZScsICc8aW5maWxlLm1hZT4nLCAnLW9tYWUnLCAnPG91dGZpbGUubWFlPic=

> <r_lp_tautomer_probability>
1

> <r_epik_Ionization_Penalty>
1.05701

> <r_epik_Ionization_Penalty_Charging>
1.05694

> <r_epik_Ionization_Penalty_Neutral>
7.31213e-05

> <r_epik_State_Penalty>
1.11031

> <r_epik_Charging_Adjusted_Penalty>
2.16725

> <i_epik_Tot_Q>
1

> <i_epik_Tot_abs_Q>
1

> <r_epik_Metal_State_Penalty>
1.22924

> <b_epik_Metal_Only>
0

> <s_lp_Force_Field>
OPLS_2005

> <r_lp_Energy>
27.1091

> <b_lp_Chiralities_Consistent>
1

> <s_lp_Variant>
AV-unprocessed.smi:2648-2

> <Gold.Version>
5.8.1

> <Gold.Id.Protein>
6NUR|6NUR_protein|mol2

> <Gold.PLP.Fitness>
46.4271

> <Gold.PLP.PLP>
-32.8398

> <Gold.PLP.part.hbond>
-4.0000

> <Gold.PLP.part.metal>
0.0000

> <Gold.PLP.part.buried>
-5.1007

> <Gold.PLP.part.nonpolar>
-23.8275

> <Gold.PLP.part.repulsive>
0.3067

> <Gold.PLP.ligand.clash>
0.0000

> <Gold.PLP.ligand.torsion>
0.4718

> <Gold.PLP.Chemscore.Hbond>
4.8400

> <Gold.PLP.Chemscore.CHOScore>
0.0000

> <Gold.PLP.Chemscore.Metal>
0.0000

> <Gold.Chemscore.Hbonds>
donor molecule, donor type, donor heavy atom, donor atom, acceptor molecule, acceptor atom, score
      L1  H     3    20       P1 10747  0.93
      L1  H    13    28       P1 10747  1.00
      L1  H    17    33       P1 10186  2.00

> <Gold.PLP.Chemscore.Internal.Correction>
0.0109

> <Gold.Rescore>
     Score         DG    S(hbond)    S(metal)    S(lipo)     H(rot)  DE(clash)    DE(int)     intcor
     14.69     -17.81       3.33        0.00      53.29       1.96       0.07       3.06       ----

> <Gold.Chemscore.Fitness>
14.6890

> <Gold.Chemscore.DG>
-17.8141

> <Gold.Chemscore.ZeroCoef>
-5.4800

> <Gold.Chemscore.Hbond>
3.3322

> <Gold.Chemscore.Metal>
0.0000

> <Gold.Chemscore.Lipo>
53.2867

> <Gold.Chemscore.Internal_Hbond>
0.0000

> <Gold.Chemscore.DEClash>
0.0651

> <Gold.Chemscore.DEInternal>
3.0599

> <Gold.Chemscore.Rot>
1.9648

> <Gold.Chemscore.Internal.Correction>
   9.000000E+99

> <Gold.Chemscore.Hbonds>
donor molecule, donor type, donor heavy atom, donor atom, acceptor molecule, acceptor atom, score
      L1  H     3    20       P1 10747  0.27
      L1  H    13    28       P1 10747  0.99
      L1  H    17    33       P1 10186  0.96

> <Gold.Chemscore.Hbond.Weighted>
-11.1294

> <Gold.Chemscore.Metal.Weighted>
-0.0000

> <Gold.Chemscore.Lipo.Weighted>
-6.2345

> <Gold.Chemscore.Internal_Hbond.Weighted>
0.0000

> <Gold.Chemscore.DEClash.Weighted>
0.0651

> <Gold.Chemscore.DEInternal.Weighted>
3.0599

> <Gold.Chemscore.Rot.Weighted>
5.0299

> <Gold.Chemscore.Internal.Correction.Weighted>
   9.000000E+99

> <Gold.Protein.RotatedTorsions>
[ 6907 6896 6895 6894 ] final  -35.61 input  -60.11 | X-H torsion
[ 7974 7965 7964 7962 ] final  156.86 input  175.53 | X-H torsion
[ 8008 7997 7996 7995 ] final  141.85 input   59.86 | X-H torsion
[ 10167 10162 10161 10158 ] final  177.81 input  -65.29 | X-H torsion
[ 10718 10713 10712 10709 ] final  114.01 input   66.30 | X-H torsion
[ 10763 10752 10751 10750 ] final  162.63 input  -60.55 | X-H torsion
[ 11005 11000 10999 10996 ] final  -77.66 input  -57.11 | X-H torsion

> <Gold.Protein.ActiveResidues>
 VAL166  LYS551  ARG553  GLY616  TRP617  ASP618  TYR619  PRO620  LYS621  CYS622 
 ASP623  PHE694  ASN695  SER759  ASP760  ASP761  ALA762  ILE779  LEU786  VAL792 
 PHE793  MET794  SER795  GLU796  ALA797  LYS798  CYS799  TRP800  GLU811  SER814 

> <Gold.Protein.RotatedAtoms>
  151.0376  134.9584  159.8144 H   0  0  0  0  0  0  0  0  0  0  0  0  # atno 6907 bound_to 6896
  152.5358  134.2700  159.8978 H   0  0  0  0  0  0  0  0  0  0  0  0  # atno 6908 bound_to 6896
  151.2711  133.4212  159.2655 H   0  0  0  0  0  0  0  0  0  0  0  0  # atno 6909 bound_to 6896
  144.7938  139.7261  143.6210 H   0  0  0  0  0  0  0  0  0  0  0  0  # atno 7974 bound_to 7965
  156.2959  140.2304  156.4631 H   0  0  0  0  0  0  0  0  0  0  0  0  # atno 8008 bound_to 7997
  154.8001  140.0449  157.1287 H   0  0  0  0  0  0  0  0  0  0  0  0  # atno 8009 bound_to 7997
  154.9544  140.3046  155.5063 H   0  0  0  0  0  0  0  0  0  0  0  0  # atno 8010 bound_to 7997
  139.5268  144.2755  152.0592 H   0  0  0  0  0  0  0  0  0  0  0  0  # atno 10167 bound_to 10162
  157.6305  131.0992  150.7124 H   0  0  0  0  0  0  0  0  0  0  0  0  # atno 10718 bound_to 10713
  154.2813  135.2763  155.2696 H   0  0  0  0  0  0  0  0  0  0  0  0  # atno 10763 bound_to 10752
  154.5216  135.5755  153.6689 H   0  0  0  0  0  0  0  0  0  0  0  0  # atno 10764 bound_to 10752
  152.9929  135.6206  154.2972 H   0  0  0  0  0  0  0  0  0  0  0  0  # atno 10765 bound_to 10752
  141.1661  133.7031  156.7854 H   0  0  0  0  0  0  0  0  0  0  0  0  # atno 11005 bound_to 11000
  146.2199  139.5617  142.9625 LP  0  0  0  0  0  0  0  0  0  0  0  0  # atno 17320 bound_to 7965
  145.5726  141.0392  143.2165 LP  0  0  0  0  0  0  0  0  0  0  0  0  # atno 17321 bound_to 7965
  140.2212  144.4464  150.6341 LP  0  0  0  0  0  0  0  0  0  0  0  0  # atno 17342 bound_to 10162
  140.6417  143.2205  151.6275 LP  0  0  0  0  0  0  0  0  0  0  0  0  # atno 17343 bound_to 10162
  156.7465  130.4755  149.5466 LP  0  0  0  0  0  0  0  0  0  0  0  0  # atno 17370 bound_to 10713
  156.1506  130.6307  151.0590 LP  0  0  0  0  0  0  0  0  0  0  0  0  # atno 17371 bound_to 10713
  140.2364  134.8647  157.3529 LP  0  0  0  0  0  0  0  0  0  0  0  0  # atno 17394 bound_to 11000
  140.1839  134.4455  155.7755 LP  0  0  0  0  0  0  0  0  0  0  0  0  # atno 17395 bound_to 11000

$$$$
