AV-unprocessed.smi:1242|AV-procd|sdf|5217|dock1
  -GOLD-   22720 4313D 1   1.00000     0.00000
 Structure written by MMmdl.
 39 40  0  0  0  0  0  0  0  0  1 V2000
  149.9219  134.4689  158.0092 O   0  0  0  0  0  0  0  0  0  0  0  0
  148.8531  135.0742  158.1003 C   0  0  0  0  0  0  0  0  0  0  0  0
  148.5713  135.9917  159.2977 C   0  0  0  0  0  0  0  0  0  0  0  0
  147.8596  135.3087  160.3906 N   0  0  0  0  0  0  0  0  0  0  0  0
  147.4110  133.9958  160.1454 C   0  0  0  0  0  0  0  0  0  0  0  0
  146.7639  133.2580  161.0678 C   0  0  0  0  0  0  0  0  0  0  0  0
  146.2478  131.8615  160.7583 C   0  0  0  0  0  0  0  0  0  0  0  0
  145.4751  131.4061  161.7447 F   0  0  0  0  0  0  0  0  0  0  0  0
  145.5368  131.8489  159.6300 F   0  0  0  0  0  0  0  0  0  0  0  0
  147.2721  131.0223  160.6124 F   0  0  0  0  0  0  0  0  0  0  0  0
  146.5107  133.8980  162.3437 C   0  0  0  0  0  0  0  0  0  0  0  0
  146.9281  135.1545  162.5928 C   0  0  0  0  0  0  0  0  0  0  0  0
  147.6533  135.9350  161.5879 C   0  0  0  0  0  0  0  0  0  0  0  0
  148.0481  137.0805  161.8074 O   0  0  0  0  0  0  0  0  0  0  0  0
  147.8687  134.9692  157.1932 N   0  0  0  0  0  0  0  0  0  0  0  0
  147.9253  134.1720  155.9657 C   0  0  1  0  0  0  0  0  0  0  0  0
  146.5776  133.4266  155.8306 C   0  0  0  0  0  0  0  0  0  0  0  0
  146.6474  132.1738  154.9401 C   0  0  0  0  0  0  0  0  0  0  0  0
  146.9614  132.4449  153.4611 C   0  0  0  0  0  0  0  0  0  0  0  0
  148.3395  133.0869  153.2290 C   0  0  0  0  0  0  0  0  0  0  0  0
  148.3387  134.5118  153.5332 N   0  0  0  0  0  0  0  0  0  0  0  0
  148.1307  135.0804  154.7305 C   0  0  0  0  0  0  0  0  0  0  0  0
  148.1003  136.3062  154.8390 O   0  0  0  0  0  0  0  0  0  0  0  0
  149.5092  136.4113  159.6671 H   0  0  0  0  0  0  0  0  0  0  0  0
  147.9980  136.8481  158.9401 H   0  0  0  0  0  0  0  0  0  0  0  0
  147.6331  133.6225  159.1560 H   0  0  0  0  0  0  0  0  0  0  0  0
  145.9823  133.3588  163.1159 H   0  0  0  0  0  0  0  0  0  0  0  0
  146.7249  135.5985  163.5563 H   0  0  0  0  0  0  0  0  0  0  0  0
  147.0264  135.5039  157.3470 H   0  0  0  0  0  0  0  0  0  0  0  0
  148.7449  133.4555  156.0448 H   0  0  0  0  0  0  0  0  0  0  0  0
  146.2542  133.0957  156.8189 H   0  0  0  0  0  0  0  0  0  0  0  0
  145.7927  134.0980  155.4780 H   0  0  0  0  0  0  0  0  0  0  0  0
  147.3862  131.4821  155.3465 H   0  0  0  0  0  0  0  0  0  0  0  0
  145.6911  131.6531  154.9995 H   0  0  0  0  0  0  0  0  0  0  0  0
  146.9309  131.4933  152.9295 H   0  0  0  0  0  0  0  0  0  0  0  0
  146.1787  133.0603  153.0156 H   0  0  0  0  0  0  0  0  0  0  0  0
  149.1164  132.5734  153.7971 H   0  0  0  0  0  0  0  0  0  0  0  0
  148.6103  132.9842  152.1779 H   0  0  0  0  0  0  0  0  0  0  0  0
  148.4814  135.1336  152.7505 H   0  0  0  0  0  0  0  0  0  0  0  0
  1  2  2  0  0  0  0
  2  3  1  0  0  0  0
  2 15  1  0  0  0  0
  3  4  1  0  0  0  0
  3 24  1  0  0  0  0
  3 25  1  0  0  0  0
  4 13  1  0  0  0  0
  4  5  1  0  0  0  0
  5  6  2  0  0  0  0
  5 26  1  0  0  0  0
  6  7  1  0  0  0  0
  6 11  1  0  0  0  0
  7  8  1  0  0  0  0
  7  9  1  0  0  0  0
  7 10  1  0  0  0  0
 11 12  2  0  0  0  0
 11 27  1  0  0  0  0
 12 13  1  0  0  0  0
 12 28  1  0  0  0  0
 13 14  2  0  0  0  0
 15 16  1  0  0  0  0
 15 29  1  0  0  0  0
 16 22  1  0  0  0  0
 16 17  1  0  0  0  0
 16 30  1  0  0  0  0
 17 18  1  0  0  0  0
 17 31  1  0  0  0  0
 17 32  1  0  0  0  0
 18 19  1  0  0  0  0
 18 33  1  0  0  0  0
 18 34  1  0  0  0  0
 19 20  1  0  0  0  0
 19 35  1  0  0  0  0
 19 36  1  0  0  0  0
 20 21  1  0  0  0  0
 20 37  1  0  0  0  0
 20 38  1  0  0  0  0
 21 22  1  0  0  0  0
 21 39  1  0  0  0  0
 22 23  2  0  0  0  0
M  END
> <s_m_source_file>
AV-unprocessed.smi

> <i_m_source_file_index>
1242

> <i_lp_mmshare_version>
43012

> <i_f3d_flags>
0

> <s_epik_input>
Tz1jMVtjSF1bY0hdYyhDKEYpKEYpRilbY0hdbjFbQ0gyXUMoPU8pW05IXVtDQEBIXTJbQ0gyXVtDSDJdW0NIMl1bQ0gyXVtOSF1DMj1P

> <s_epik_cmdline>
J2VwaWtfcHl0aG9uJywgJy1waCcsICc3LjAnLCAnLXRuJywgJzgnLCAnLW1hJywgJzIwMCcsICctbWV0YWxfYmluZGluZycsICctaW1hZScsICc8aW5maWxlLm1hZT4nLCAnLW9tYWUnLCAnPG91dGZpbGUubWFlPic=

> <r_lp_tautomer_probability>
1

> <r_epik_Ionization_Penalty>
6.92876e-08

> <r_epik_Ionization_Penalty_Charging>
1.59659e-08

> <r_epik_Ionization_Penalty_Neutral>
5.33217e-08

> <r_epik_State_Penalty>
-0

> <r_epik_Charging_Adjusted_Penalty>
1.59659e-08

> <i_epik_Tot_Q>
0

> <i_epik_Tot_abs_Q>
0

> <r_epik_Metal_State_Penalty>
-0

> <b_epik_Metal_Only>
0

> <s_lp_Force_Field>
OPLS_2005

> <r_lp_Energy>
23.3592

> <b_lp_Chiralities_Consistent>
1

> <s_lp_Variant>
AV-unprocessed.smi:1242-2

> <Gold.Version>
5.8.1

> <Gold.Id.Protein>
6NUR|6NUR_protein|mol2

> <Gold.PLP.Fitness>
39.5897

> <Gold.PLP.PLP>
-30.9700

> <Gold.PLP.part.hbond>
-3.9269

> <Gold.PLP.part.metal>
0.0000

> <Gold.PLP.part.buried>
-2.2846

> <Gold.PLP.part.nonpolar>
-24.3625

> <Gold.PLP.part.repulsive>
0.1165

> <Gold.PLP.ligand.clash>
0.9107

> <Gold.PLP.ligand.torsion>
0.7841

> <Gold.PLP.Chemscore.Hbond>
3.6880

> <Gold.PLP.Chemscore.CHOScore>
0.0000

> <Gold.PLP.Chemscore.Metal>
0.0000

> <Gold.Chemscore.Hbonds>
donor molecule, donor type, donor heavy atom, donor atom, acceptor molecule, acceptor atom, score
      L1  H    21    39       P1  7948  0.81
      P1  H  6896  6907       L1     1  0.98
      P1  H  6931  6943       L1    14  0.99
      P1  H  6934  6947       L1    14  0.21

> <Gold.PLP.Chemscore.Internal.Correction>
0.0345

> <Gold.Rescore>
     Score         DG    S(hbond)    S(metal)    S(lipo)     H(rot)  DE(clash)    DE(int)     intcor
     17.93     -18.75       3.47        0.00      52.00       1.72       0.04       0.78       ----

> <Gold.Chemscore.Fitness>
17.9283

> <Gold.Chemscore.DG>
-18.7454

> <Gold.Chemscore.ZeroCoef>
-5.4800

> <Gold.Chemscore.Hbond>
3.4692

> <Gold.Chemscore.Metal>
0.0000

> <Gold.Chemscore.Lipo>
52.0039

> <Gold.Chemscore.Internal_Hbond>
0.0000

> <Gold.Chemscore.DEClash>
0.0375

> <Gold.Chemscore.DEInternal>
0.7796

> <Gold.Chemscore.Rot>
1.7212

> <Gold.Chemscore.Internal.Correction>
   9.000000E+99

> <Gold.Chemscore.Hbonds>
donor molecule, donor type, donor heavy atom, donor atom, acceptor molecule, acceptor atom, score
      L1  H    21    39       P1  7948  0.56
      P1  H  6896  6907       L1     1  0.80
      P1  H  6931  6943       L1    14  0.92
      P1  H  6934  6947       L1    14  0.20

> <Gold.Chemscore.Hbond.Weighted>
-11.5872

> <Gold.Chemscore.Metal.Weighted>
-0.0000

> <Gold.Chemscore.Lipo.Weighted>
-6.0845

> <Gold.Chemscore.Internal_Hbond.Weighted>
0.0000

> <Gold.Chemscore.DEClash.Weighted>
0.0375

> <Gold.Chemscore.DEInternal.Weighted>
0.7796

> <Gold.Chemscore.Rot.Weighted>
4.4062

> <Gold.Chemscore.Internal.Correction.Weighted>
   9.000000E+99

> <Gold.Protein.RotatedTorsions>
[ 6907 6896 6895 6894 ] final  -89.21 input  -60.11 | X-H torsion
[ 7974 7965 7964 7962 ] final   51.19 input  175.53 | X-H torsion
[ 8008 7997 7996 7995 ] final   94.78 input   59.86 | X-H torsion
[ 10167 10162 10161 10158 ] final -116.75 input  -65.29 | X-H torsion
[ 10718 10713 10712 10709 ] final   32.88 input   66.30 | X-H torsion
[ 10763 10752 10751 10750 ] final   73.27 input  -60.55 | X-H torsion
[ 11005 11000 10999 10996 ] final   41.03 input  -57.11 | X-H torsion

> <Gold.Protein.ActiveResidues>
 VAL166  LYS551  ARG553  GLY616  TRP617  ASP618  TYR619  PRO620  LYS621  CYS622 
 ASP623  PHE694  ASN695  SER759  ASP760  ASP761  ALA762  ILE779  LEU786  VAL792 
 PHE793  MET794  SER795  GLU796  ALA797  LYS798  CYS799  TRP800  GLU811  SER814 

> <Gold.Protein.RotatedAtoms>
  150.6872  134.2623  159.4553 H   0  0  0  0  0  0  0  0  0  0  0  0  # atno 6907 bound_to 6896
  152.0552  134.9626  160.0584 H   0  0  0  0  0  0  0  0  0  0  0  0  # atno 6908 bound_to 6896
  152.1075  133.4248  159.4652 H   0  0  0  0  0  0  0  0  0  0  0  0  # atno 6909 bound_to 6896
  145.9938  139.4366  143.0057 H   0  0  0  0  0  0  0  0  0  0  0  0  # atno 7974 bound_to 7965
  156.0617  140.3295  155.7470 H   0  0  0  0  0  0  0  0  0  0  0  0  # atno 8008 bound_to 7997
  155.5444  140.0604  157.2880 H   0  0  0  0  0  0  0  0  0  0  0  0  # atno 8009 bound_to 7997
  154.4485  140.1905  156.0612 H   0  0  0  0  0  0  0  0  0  0  0  0  # atno 8010 bound_to 7997
  140.0758  143.4834  152.1954 H   0  0  0  0  0  0  0  0  0  0  0  0  # atno 10167 bound_to 10162
  157.2908  130.7301  149.6609 H   0  0  0  0  0  0  0  0  0  0  0  0  # atno 10718 bound_to 10713
  153.0511  135.5069  154.7869 H   0  0  0  0  0  0  0  0  0  0  0  0  # atno 10763 bound_to 10752
  154.6731  135.2956  154.9718 H   0  0  0  0  0  0  0  0  0  0  0  0  # atno 10764 bound_to 10752
  154.0530  135.6701  153.4855 H   0  0  0  0  0  0  0  0  0  0  0  0  # atno 10765 bound_to 10752
  140.1873  134.4030  155.8166 H   0  0  0  0  0  0  0  0  0  0  0  0  # atno 11005 bound_to 11000
  145.7590  140.9942  143.1210 LP  0  0  0  0  0  0  0  0  0  0  0  0  # atno 17320 bound_to 7965
  144.6897  139.9307  143.7471 LP  0  0  0  0  0  0  0  0  0  0  0  0  # atno 17321 bound_to 7965
  139.5809  144.7510  151.3643 LP  0  0  0  0  0  0  0  0  0  0  0  0  # atno 17342 bound_to 10162
  140.7103  143.7409  150.7554 LP  0  0  0  0  0  0  0  0  0  0  0  0  # atno 17343 bound_to 10162
  155.9667  130.4309  150.4898 LP  0  0  0  0  0  0  0  0  0  0  0  0  # atno 17370 bound_to 10713
  157.2860  131.0616  151.2165 LP  0  0  0  0  0  0  0  0  0  0  0  0  # atno 17371 bound_to 10713
  141.2225  133.7029  156.8035 LP  0  0  0  0  0  0  0  0  0  0  0  0  # atno 17394 bound_to 11000
  140.2199  134.8765  157.3366 LP  0  0  0  0  0  0  0  0  0  0  0  0  # atno 17395 bound_to 11000

$$$$
