AV-unprocessed.smi:1312|AV-procd|sdf|5449|dock7
  -GOLD-   22720 5 23D 1   1.00000     0.00000
 Structure written by MMmdl.
 50 51  0  0  0  0  0  0  0  0  2 V2000
  148.2890  132.7136  153.6060 C   0  0  0  0  0  0  0  0  0  0  0  0
  148.3387  134.1175  154.2296 C   0  0  0  0  0  0  0  0  0  0  0  0
  147.0011  134.9087  154.1706 C   0  0  1  0  0  0  0  0  0  0  0  0
  147.1310  136.2245  154.9928 C   0  0  0  0  0  0  0  0  0  0  0  0
  148.1555  137.1434  154.5092 N   0  0  0  0  0  0  0  0  0  0  0  0
  148.3471  138.3930  154.9632 C   0  0  0  0  0  0  0  0  0  0  0  0
  147.6545  138.8995  155.8450 O   0  0  0  0  0  0  0  0  0  0  0  0
  149.4644  139.2112  154.3086 C   0  0  0  0  0  0  0  0  0  0  0  0
  150.4171  139.7598  155.3441 C   0  0  0  0  0  0  0  0  0  0  0  0
  151.7934  139.4265  155.5154 C   0  0  0  0  0  0  0  0  0  0  0  0
  152.6253  138.4599  154.7213 C   0  0  0  0  0  0  0  0  0  0  0  0
  152.3515  140.0863  156.5161 N   0  0  0  0  0  0  0  0  0  0  0  0
  151.3649  140.8581  157.0135 N   0  0  0  0  0  0  0  0  0  0  0  0
  151.6426  141.7251  158.1422 C   0  0  0  0  0  0  0  0  0  0  0  0
  150.1785  140.6839  156.3273 C   0  0  0  0  0  0  0  0  0  0  0  0
  148.9359  141.4348  156.6856 C   0  0  0  0  0  0  0  0  0  0  0  0
  146.5791  135.1927  152.7583 N   0  3  0  0  0  0  0  0  0  0  0  0
  146.1216  134.0365  151.9541 C   0  0  0  0  0  0  0  0  0  0  0  0
  145.3710  134.6426  150.7751 C   0  0  0  0  0  0  0  0  0  0  0  0
  144.6531  135.8291  151.4038 C   0  0  0  0  0  0  0  0  0  0  0  0
  145.5397  136.2422  152.5863 C   0  0  0  0  0  0  0  0  0  0  0  0
  149.2925  132.2941  153.5309 H   0  0  0  0  0  0  0  0  0  0  0  0
  147.8692  132.7423  152.6002 H   0  0  0  0  0  0  0  0  0  0  0  0
  147.7004  132.0164  154.2008 H   0  0  0  0  0  0  0  0  0  0  0  0
  148.6859  134.0453  155.2610 H   0  0  0  0  0  0  0  0  0  0  0  0
  149.1177  134.6475  153.6837 H   0  0  0  0  0  0  0  0  0  0  0  0
  146.2378  134.2738  154.6232 H   0  0  0  0  0  0  0  0  0  0  0  0
  146.1922  136.7764  155.0102 H   0  0  0  0  0  0  0  0  0  0  0  0
  147.3552  135.9874  156.0332 H   0  0  0  0  0  0  0  0  0  0  0  0
  148.7785  136.8022  153.7912 H   0  0  0  0  0  0  0  0  0  0  0  0
  149.9750  138.5757  153.5853 H   0  0  0  0  0  0  0  0  0  0  0  0
  149.0160  140.0193  153.7291 H   0  0  0  0  0  0  0  0  0  0  0  0
  152.2457  138.3517  153.7054 H   0  0  0  0  0  0  0  0  0  0  0  0
  152.6223  137.4727  155.1833 H   0  0  0  0  0  0  0  0  0  0  0  0
  153.6616  138.7914  154.6487 H   0  0  0  0  0  0  0  0  0  0  0  0
  151.2741  142.7299  157.9358 H   0  0  0  0  0  0  0  0  0  0  0  0
  152.7152  141.7776  158.3328 H   0  0  0  0  0  0  0  0  0  0  0  0
  151.1436  141.3378  159.0307 H   0  0  0  0  0  0  0  0  0  0  0  0
  148.0638  141.0321  156.1719 H   0  0  0  0  0  0  0  0  0  0  0  0
  149.0291  142.4858  156.4114 H   0  0  0  0  0  0  0  0  0  0  0  0
  148.7428  141.3802  157.7572 H   0  0  0  0  0  0  0  0  0  0  0  0
  146.9515  133.4112  151.6231 H   0  0  0  0  0  0  0  0  0  0  0  0
  145.4373  133.4238  152.5436 H   0  0  0  0  0  0  0  0  0  0  0  0
  146.0798  134.9915  150.0227 H   0  0  0  0  0  0  0  0  0  0  0  0
  144.6895  133.9382  150.2969 H   0  0  0  0  0  0  0  0  0  0  0  0
  144.4955  136.6418  150.6937 H   0  0  0  0  0  0  0  0  0  0  0  0
  143.6746  135.5155  151.7703 H   0  0  0  0  0  0  0  0  0  0  0  0
  144.9222  136.3464  153.4792 H   0  0  0  0  0  0  0  0  0  0  0  0
  146.0197  137.2027  152.3959 H   0  0  0  0  0  0  0  0  0  0  0  0
  147.3995  135.5334  152.2780 H   0  0  0  0  0  0  0  0  0  0  0  0
  1  2  1  0  0  0  0
  1 22  1  0  0  0  0
  1 23  1  0  0  0  0
  1 24  1  0  0  0  0
  2  3  1  0  0  0  0
  2 25  1  0  0  0  0
  2 26  1  0  0  0  0
  3  4  1  0  0  0  0
  3 17  1  0  0  0  0
  3 27  1  0  0  0  0
  4  5  1  0  0  0  0
  4 28  1  0  0  0  0
  4 29  1  0  0  0  0
  5  6  1  0  0  0  0
  5 30  1  0  0  0  0
  6  7  2  0  0  0  0
  6  8  1  0  0  0  0
  8  9  1  0  0  0  0
  8 31  1  0  0  0  0
  8 32  1  0  0  0  0
  9 15  2  0  0  0  0
  9 10  1  0  0  0  0
 10 11  1  0  0  0  0
 10 12  2  0  0  0  0
 11 33  1  0  0  0  0
 11 34  1  0  0  0  0
 11 35  1  0  0  0  0
 12 13  1  0  0  0  0
 13 14  1  0  0  0  0
 13 15  1  0  0  0  0
 14 36  1  0  0  0  0
 14 37  1  0  0  0  0
 14 38  1  0  0  0  0
 15 16  1  0  0  0  0
 16 39  1  0  0  0  0
 16 40  1  0  0  0  0
 16 41  1  0  0  0  0
 17 21  1  0  0  0  0
 17 18  1  0  0  0  0
 17 50  1  0  0  0  0
 18 19  1  0  0  0  0
 18 42  1  0  0  0  0
 18 43  1  0  0  0  0
 19 20  1  0  0  0  0
 19 44  1  0  0  0  0
 19 45  1  0  0  0  0
 20 21  1  0  0  0  0
 20 46  1  0  0  0  0
 20 47  1  0  0  0  0
 21 48  1  0  0  0  0
 21 49  1  0  0  0  0
M  CHG  1  17   1
M  END
> <s_m_source_file>
AV-unprocessed.smi

> <i_m_source_file_index>
1312

> <i_lp_mmshare_version>
43012

> <i_f3d_flags>
0

> <s_epik_input>
W0NIMl0xW0NIMl1bQ0gyXVtDSDJdTjFbQ0BIXShbQ0gyXVtDSDNdKVtDSDJdW05IXUMoPU8pW0NIMl1jMmMoW0NIM10pbm4oW0NIM10pYzJbQ0gzXQ==

> <s_epik_cmdline>
J2VwaWtfcHl0aG9uJywgJy1waCcsICc3LjAnLCAnLXRuJywgJzgnLCAnLW1hJywgJzIwMCcsICctbWV0YWxfYmluZGluZycsICctaW1hZScsICc8aW5maWxlLm1hZT4nLCAnLW9tYWUnLCAnPG91dGZpbGUubWFlPic=

> <r_lp_tautomer_probability>
1

> <r_epik_Ionization_Penalty>
0.00585463

> <r_epik_Ionization_Penalty_Charging>
0.00366302

> <r_epik_Ionization_Penalty_Neutral>
0.00219161

> <r_epik_State_Penalty>
-0

> <r_epik_Charging_Adjusted_Penalty>
0.00366302

> <i_epik_Tot_Q>
1

> <i_epik_Tot_abs_Q>
1

> <r_epik_Metal_State_Penalty>
-0

> <b_epik_Metal_Only>
0

> <s_lp_Force_Field>
OPLS_2005

> <r_lp_Energy>
35.2401

> <b_lp_Chiralities_Consistent>
1

> <s_lp_Variant>
AV-unprocessed.smi:1312-2

> <Gold.Version>
5.8.1

> <Gold.Id.Protein>
6NUR|6NUR_protein|mol2

> <Gold.PLP.Fitness>
46.3655

> <Gold.PLP.PLP>
-35.2701

> <Gold.PLP.part.hbond>
-3.0000

> <Gold.PLP.part.metal>
0.0000

> <Gold.PLP.part.buried>
-2.3296

> <Gold.PLP.part.nonpolar>
-30.1785

> <Gold.PLP.part.repulsive>
0.0076

> <Gold.PLP.ligand.clash>
0.0000

> <Gold.PLP.ligand.torsion>
0.3344

> <Gold.PLP.Chemscore.Hbond>
3.8640

> <Gold.PLP.Chemscore.CHOScore>
0.0000

> <Gold.PLP.Chemscore.Metal>
0.0000

> <Gold.Chemscore.Hbonds>
donor molecule, donor type, donor heavy atom, donor atom, acceptor molecule, acceptor atom, score
      L1  H     5    30       P1  7948  0.94
      L1  H    17    50       P1  7948  2.00
      P1  H  7997  8010       L1    12  1.00

> <Gold.PLP.Chemscore.Internal.Correction>
0.1722

> <Gold.Rescore>
     Score         DG    S(hbond)    S(metal)    S(lipo)     H(rot)  DE(clash)    DE(int)     intcor
     18.55     -20.34       2.88        0.00      82.30       1.72       0.13       1.66       ----

> <Gold.Chemscore.Fitness>
18.5508

> <Gold.Chemscore.DG>
-20.3367

> <Gold.Chemscore.ZeroCoef>
-5.4800

> <Gold.Chemscore.Hbond>
2.8843

> <Gold.Chemscore.Metal>
0.0000

> <Gold.Chemscore.Lipo>
82.3038

> <Gold.Chemscore.Internal_Hbond>
0.0000

> <Gold.Chemscore.DEClash>
0.1277

> <Gold.Chemscore.DEInternal>
1.6582

> <Gold.Chemscore.Rot>
1.7213

> <Gold.Chemscore.Internal.Correction>
   9.000000E+99

> <Gold.Chemscore.Hbonds>
donor molecule, donor type, donor heavy atom, donor atom, acceptor molecule, acceptor atom, score
      L1  H     5    30       P1  7948  0.87
      L1  H    17    50       P1  7948  1.00
      P1  H  7997  8010       L1    12  0.70

> <Gold.Chemscore.Hbond.Weighted>
-9.6337

> <Gold.Chemscore.Metal.Weighted>
-0.0000

> <Gold.Chemscore.Lipo.Weighted>
-9.6295

> <Gold.Chemscore.Internal_Hbond.Weighted>
0.0000

> <Gold.Chemscore.DEClash.Weighted>
0.1277

> <Gold.Chemscore.DEInternal.Weighted>
1.6582

> <Gold.Chemscore.Rot.Weighted>
4.4065

> <Gold.Chemscore.Internal.Correction.Weighted>
   9.000000E+99

> <Gold.Protein.RotatedTorsions>
[ 6907 6896 6895 6894 ] final  -94.17 input  -60.11 | X-H torsion
[ 7974 7965 7964 7962 ] final   89.29 input  175.53 | X-H torsion
[ 8008 7997 7996 7995 ] final   81.63 input   59.86 | X-H torsion
[ 10167 10162 10161 10158 ] final  -88.32 input  -65.29 | X-H torsion
[ 10718 10713 10712 10709 ] final  165.33 input   66.30 | X-H torsion
[ 10763 10752 10751 10750 ] final  -37.99 input  -60.55 | X-H torsion
[ 11005 11000 10999 10996 ] final -141.51 input  -57.11 | X-H torsion

> <Gold.Protein.ActiveResidues>
 VAL166  LYS551  ARG553  GLY616  TRP617  ASP618  TYR619  PRO620  LYS621  CYS622 
 ASP623  PHE694  ASN695  SER759  ASP760  ASP761  ALA762  ILE779  LEU786  VAL792 
 PHE793  MET794  SER795  GLU796  ALA797  LYS798  CYS799  TRP800  GLU811  SER814 

> <Gold.Protein.RotatedAtoms>
  150.6936  134.1854  159.4264 H   0  0  0  0  0  0  0  0  0  0  0  0  # atno 6907 bound_to 6896
  151.9827  135.0018  160.0567 H   0  0  0  0  0  0  0  0  0  0  0  0  # atno 6908 bound_to 6896
  152.1740  133.4628  159.4961 H   0  0  0  0  0  0  0  0  0  0  0  0  # atno 6909 bound_to 6896
  145.5343  139.2285  143.2601 H   0  0  0  0  0  0  0  0  0  0  0  0  # atno 7974 bound_to 7965
  155.8997  140.3434  155.6017 H   0  0  0  0  0  0  0  0  0  0  0  0  # atno 8008 bound_to 7997
  155.7514  140.0820  157.2218 H   0  0  0  0  0  0  0  0  0  0  0  0  # atno 8009 bound_to 7997
  154.4042  140.1552  156.2715 H   0  0  0  0  0  0  0  0  0  0  0  0  # atno 8010 bound_to 7997
  140.3758  143.2772  151.9444 H   0  0  0  0  0  0  0  0  0  0  0  0  # atno 10167 bound_to 10162
  157.0817  131.0394  151.2572 H   0  0  0  0  0  0  0  0  0  0  0  0  # atno 10718 bound_to 10713
  153.9054  135.6798  153.4753 H   0  0  0  0  0  0  0  0  0  0  0  0  # atno 10763 bound_to 10752
  153.1107  135.4784  154.9027 H   0  0  0  0  0  0  0  0  0  0  0  0  # atno 10764 bound_to 10752
  154.7554  135.3196  154.8434 H   0  0  0  0  0  0  0  0  0  0  0  0  # atno 10765 bound_to 10752
  140.8317  134.2508  157.4853 H   0  0  0  0  0  0  0  0  0  0  0  0  # atno 11005 bound_to 11000
  146.2024  140.6160  142.9096 LP  0  0  0  0  0  0  0  0  0  0  0  0  # atno 17320 bound_to 7965
  144.7610  140.5421  143.6736 LP  0  0  0  0  0  0  0  0  0  0  0  0  # atno 17321 bound_to 7965
  139.4799  144.5865  151.7845 LP  0  0  0  0  0  0  0  0  0  0  0  0  # atno 17342 bound_to 10162
  140.4987  144.1201  150.5966 LP  0  0  0  0  0  0  0  0  0  0  0  0  # atno 17343 bound_to 10162
  157.4794  130.7756  149.7399 LP  0  0  0  0  0  0  0  0  0  0  0  0  # atno 17370 bound_to 10713
  155.9922  130.3933  150.2953 LP  0  0  0  0  0  0  0  0  0  0  0  0  # atno 17371 bound_to 10713
  139.8705  134.9590  156.4317 LP  0  0  0  0  0  0  0  0  0  0  0  0  # atno 17394 bound_to 11000
  140.8990  133.7793  155.9659 LP  0  0  0  0  0  0  0  0  0  0  0  0  # atno 17395 bound_to 11000

$$$$
