AV-unprocessed.smi:1072|AV-procd|sdf|4684|dock1
  -GOLD-   22720 3203D 1   1.00000     0.00000
 Structure written by MMmdl.
 46 47  0  0  0  0  0  0  0  0  1 V2000
  147.0469  135.8340  154.4426 C   0  0  0  0  0  0  0  0  0  0  0  0
  148.1423  136.1916  155.4249 C   0  0  0  0  0  0  0  0  0  0  0  0
  147.9644  136.2824  156.7019 N   0  0  0  0  0  0  0  0  0  0  0  0
  149.0569  136.6219  157.5119 C   0  0  0  0  0  0  0  0  0  0  0  0
  148.7692  136.7024  159.0015 C   0  0  0  0  0  0  0  0  0  0  0  0
  150.2936  136.8592  156.9834 C   0  0  0  0  0  0  0  0  0  0  0  0
  151.5030  137.2270  157.8419 C   0  0  0  0  0  0  0  0  0  0  0  0
  152.0359  138.6506  157.6622 C   0  0  0  0  0  0  0  0  0  0  0  0
  153.2168  138.8333  157.3676 O   0  0  0  0  0  0  0  0  0  0  0  0
  151.1448  139.6383  157.8620 N   0  0  0  0  0  0  0  0  0  0  0  0
  151.3419  141.0944  157.8305 C   0  0  1  0  0  0  0  0  0  0  0  0
  151.6494  141.4296  156.3552 C   0  0  0  0  0  0  0  0  0  0  0  0
  150.0475  141.8209  158.2886 C   0  0  0  0  0  0  0  0  0  0  0  0
  150.2243  143.3437  158.4258 C   0  0  0  0  0  0  0  0  0  0  0  0
  151.3969  143.6992  159.3576 C   0  0  2  0  0  0  0  0  0  0  0  0
  151.5631  145.2195  159.4934 C   0  0  0  0  0  0  0  0  0  0  0  0
  152.6951  143.0318  158.8679 C   0  0  0  0  0  0  0  0  0  0  0  0
  152.5370  141.5061  158.7339 C   0  0  0  0  0  0  0  0  0  0  0  0
  150.4847  136.7537  155.5237 C   0  0  0  0  0  0  0  0  0  0  0  0
  151.5530  136.9425  154.9438 O   0  0  0  0  0  0  0  0  0  0  0  0
  149.3782  136.4200  154.8225 N   0  0  0  0  0  0  0  0  0  0  0  0
  149.4579  136.3328  153.8199 H   0  0  0  0  0  0  0  0  0  0  0  0
  146.6537  134.8414  154.6635 H   0  0  0  0  0  0  0  0  0  0  0  0
  147.4114  135.8359  153.4144 H   0  0  0  0  0  0  0  0  0  0  0  0
  146.2289  136.5512  154.5159 H   0  0  0  0  0  0  0  0  0  0  0  0
  148.9506  137.7112  159.3730 H   0  0  0  0  0  0  0  0  0  0  0  0
  149.4014  136.0082  159.5554 H   0  0  0  0  0  0  0  0  0  0  0  0
  147.7307  136.4490  159.2179 H   0  0  0  0  0  0  0  0  0  0  0  0
  151.2864  137.0788  158.9002 H   0  0  0  0  0  0  0  0  0  0  0  0
  152.3038  136.5201  157.6220 H   0  0  0  0  0  0  0  0  0  0  0  0
  150.2070  139.3432  158.0927 H   0  0  0  0  0  0  0  0  0  0  0  0
  151.8121  142.4938  156.1918 H   0  0  0  0  0  0  0  0  0  0  0  0
  150.8292  141.1279  155.7024 H   0  0  0  0  0  0  0  0  0  0  0  0
  152.5461  140.9123  156.0118 H   0  0  0  0  0  0  0  0  0  0  0  0
  149.2308  141.6061  157.5983 H   0  0  0  0  0  0  0  0  0  0  0  0
  149.7215  141.4444  159.2578 H   0  0  0  0  0  0  0  0  0  0  0  0
  150.3773  143.7935  157.4445 H   0  0  0  0  0  0  0  0  0  0  0  0
  149.3019  143.7777  158.8132 H   0  0  0  0  0  0  0  0  0  0  0  0
  151.1699  143.3039  160.3489 H   0  0  0  0  0  0  0  0  0  0  0  0
  151.7905  145.6812  158.5319 H   0  0  0  0  0  0  0  0  0  0  0  0
  152.3724  145.4666  160.1809 H   0  0  0  0  0  0  0  0  0  0  0  0
  150.6529  145.6810  159.8774 H   0  0  0  0  0  0  0  0  0  0  0  0
  152.9989  143.4627  157.9137 H   0  0  0  0  0  0  0  0  0  0  0  0
  153.5054  143.2480  159.5652 H   0  0  0  0  0  0  0  0  0  0  0  0
  152.4124  141.1052  159.7391 H   0  0  0  0  0  0  0  0  0  0  0  0
  153.4632  141.0721  158.3547 H   0  0  0  0  0  0  0  0  0  0  0  0
  1  2  1  0  0  0  0
  1 23  1  0  0  0  0
  1 24  1  0  0  0  0
  1 25  1  0  0  0  0
  2 21  1  0  0  0  0
  2  3  2  0  0  0  0
  3  4  1  0  0  0  0
  4  5  1  0  0  0  0
  4  6  2  0  0  0  0
  5 26  1  0  0  0  0
  5 27  1  0  0  0  0
  5 28  1  0  0  0  0
  6  7  1  0  0  0  0
  6 19  1  0  0  0  0
  7  8  1  0  0  0  0
  7 29  1  0  0  0  0
  7 30  1  0  0  0  0
  8  9  2  0  0  0  0
  8 10  1  0  0  0  0
 10 11  1  0  0  0  0
 10 31  1  0  0  0  0
 11 18  1  0  0  0  0
 11 12  1  0  0  0  0
 11 13  1  0  0  0  0
 12 32  1  0  0  0  0
 12 33  1  0  0  0  0
 12 34  1  0  0  0  0
 13 14  1  0  0  0  0
 13 35  1  0  0  0  0
 13 36  1  0  0  0  0
 14 15  1  0  0  0  0
 14 37  1  0  0  0  0
 14 38  1  0  0  0  0
 15 16  1  0  0  0  0
 15 17  1  0  0  0  0
 15 39  1  0  0  0  0
 16 40  1  0  0  0  0
 16 41  1  0  0  0  0
 16 42  1  0  0  0  0
 17 18  1  0  0  0  0
 17 43  1  0  0  0  0
 17 44  1  0  0  0  0
 18 45  1  0  0  0  0
 18 46  1  0  0  0  0
 19 20  2  0  0  0  0
 19 21  1  0  0  0  0
 21 22  1  0  0  0  0
M  END
> <s_m_source_file>
AV-unprocessed.smi

> <i_m_source_file_index>
1072

> <i_lp_mmshare_version>
43012

> <i_f3d_flags>
0

> <s_epik_input>
W0NIM11jMW5jKFtDSDNdKWMoYyg9TylbbkhdMSlbQ0gyXUMoPU8pW05IXVtDQEBdMihbQ0gzXSlbQ0gyXVtDSDJdW0NAQEhdKFtDSDNdKVtDSDJdW0NIMl0y

> <s_epik_cmdline>
J2VwaWtfcHl0aG9uJywgJy1waCcsICc3LjAnLCAnLXRuJywgJzgnLCAnLW1hJywgJzIwMCcsICctbWV0YWxfYmluZGluZycsICctaW1hZScsICc8aW5maWxlLm1hZT4nLCAnLW9tYWUnLCAnPG91dGZpbGUubWFlPic=

> <r_lp_tautomer_probability>
0.839158

> <r_epik_Ionization_Penalty>
0.000352328

> <r_epik_Ionization_Penalty_Charging>
0.000314696

> <r_epik_Ionization_Penalty_Neutral>
3.76315e-05

> <r_epik_State_Penalty>
0.09125

> <r_epik_Charging_Adjusted_Penalty>
0.0915647

> <i_epik_Tot_Q>
0

> <i_epik_Tot_abs_Q>
0

> <r_epik_Metal_State_Penalty>
0.245598

> <b_epik_Metal_Only>
0

> <s_lp_Force_Field>
OPLS_2005

> <r_lp_Energy>
14.8959

> <b_lp_Chiralities_Consistent>
1

> <s_lp_Variant>
AV-unprocessed.smi:1072-2

> <Gold.Version>
5.8.1

> <Gold.Id.Protein>
6NUR|6NUR_protein|mol2

> <Gold.PLP.Fitness>
35.7529

> <Gold.PLP.PLP>
-27.3856

> <Gold.PLP.part.hbond>
-3.0000

> <Gold.PLP.part.metal>
0.0000

> <Gold.PLP.part.buried>
-5.2795

> <Gold.PLP.part.nonpolar>
-18.9631

> <Gold.PLP.part.repulsive>
0.2101

> <Gold.PLP.ligand.clash>
0.0000

> <Gold.PLP.ligand.torsion>
0.1644

> <Gold.PLP.Chemscore.Hbond>
2.8960

> <Gold.PLP.Chemscore.CHOScore>
0.0000

> <Gold.PLP.Chemscore.Metal>
0.0000

> <Gold.Chemscore.Hbonds>
donor molecule, donor type, donor heavy atom, donor atom, acceptor molecule, acceptor atom, score
      L1  H    21    22       P1  7948  1.00
      P1  H  7997  8010       L1     9  0.88
      P1  H 10752 10765       L1    20  1.00

> <Gold.PLP.Chemscore.Internal.Correction>
0.0081

> <Gold.Rescore>
     Score         DG    S(hbond)    S(metal)    S(lipo)     H(rot)  DE(clash)    DE(int)     intcor
     18.65     -20.32       2.66        0.00      82.97       1.47       1.51       0.15       ----

> <Gold.Chemscore.Fitness>
18.6541

> <Gold.Chemscore.DG>
-20.3181

> <Gold.Chemscore.ZeroCoef>
-5.4800

> <Gold.Chemscore.Hbond>
2.6622

> <Gold.Chemscore.Metal>
0.0000

> <Gold.Chemscore.Lipo>
82.9668

> <Gold.Chemscore.Internal_Hbond>
0.0000

> <Gold.Chemscore.DEClash>
1.5108

> <Gold.Chemscore.DEInternal>
0.1533

> <Gold.Chemscore.Rot>
1.4690

> <Gold.Chemscore.Internal.Correction>
   9.000000E+99

> <Gold.Chemscore.Hbonds>
donor molecule, donor type, donor heavy atom, donor atom, acceptor molecule, acceptor atom, score
      L1  H    21    22       P1  7948  0.76
      P1  H  7997  8010       L1     9  0.86
      P1  H 10752 10765       L1    20  0.93

> <Gold.Chemscore.Hbond.Weighted>
-8.8917

> <Gold.Chemscore.Metal.Weighted>
-0.0000

> <Gold.Chemscore.Lipo.Weighted>
-9.7071

> <Gold.Chemscore.Internal_Hbond.Weighted>
0.0000

> <Gold.Chemscore.DEClash.Weighted>
1.5108

> <Gold.Chemscore.DEInternal.Weighted>
0.1533

> <Gold.Chemscore.Rot.Weighted>
3.7607

> <Gold.Chemscore.Internal.Correction.Weighted>
   9.000000E+99

> <Gold.Protein.RotatedTorsions>
[ 6907 6896 6895 6894 ] final  -19.38 input  -60.11 | X-H torsion
[ 7974 7965 7964 7962 ] final   97.52 input  175.53 | X-H torsion
[ 8008 7997 7996 7995 ] final   23.48 input   59.86 | X-H torsion
[ 10167 10162 10161 10158 ] final  156.41 input  -65.29 | X-H torsion
[ 10718 10713 10712 10709 ] final -157.25 input   66.30 | X-H torsion
[ 10763 10752 10751 10750 ] final -168.84 input  -60.55 | X-H torsion
[ 11005 11000 10999 10996 ] final  -63.86 input  -57.11 | X-H torsion

> <Gold.Protein.ActiveResidues>
 VAL166  LYS551  ARG553  GLY616  TRP617  ASP618  TYR619  PRO620  LYS621  CYS622 
 ASP623  PHE694  ASN695  SER759  ASP760  ASP761  ALA762  ILE779  LEU786  VAL792 
 PHE793  MET794  SER795  GLU796  ALA797  LYS798  CYS799  TRP800  GLU811  SER814 

> <Gold.Protein.RotatedAtoms>
  151.2639  135.0663  159.9108 H   0  0  0  0  0  0  0  0  0  0  0  0  # atno 6907 bound_to 6896
  152.5361  134.0201  159.7988 H   0  0  0  0  0  0  0  0  0  0  0  0  # atno 6908 bound_to 6896
  151.0429  133.5641  159.2680 H   0  0  0  0  0  0  0  0  0  0  0  0  # atno 6909 bound_to 6896
  145.4244  139.2317  143.3179 H   0  0  0  0  0  0  0  0  0  0  0  0  # atno 7974 bound_to 7965
  154.9816  140.3103  155.4944 H   0  0  0  0  0  0  0  0  0  0  0  0  # atno 8008 bound_to 7997
  156.2952  140.2265  156.4855 H   0  0  0  0  0  0  0  0  0  0  0  0  # atno 8009 bound_to 7997
  154.7784  140.0447  157.1095 H   0  0  0  0  0  0  0  0  0  0  0  0  # atno 8010 bound_to 7997
  139.4821  144.5011  151.8166 H   0  0  0  0  0  0  0  0  0  0  0  0  # atno 10167 bound_to 10162
  156.5378  130.8549  151.2738 H   0  0  0  0  0  0  0  0  0  0  0  0  # atno 10718 bound_to 10713
  154.6586  135.2921  154.9895 H   0  0  0  0  0  0  0  0  0  0  0  0  # atno 10763 bound_to 10752
  154.0963  135.6583  153.4864 H   0  0  0  0  0  0  0  0  0  0  0  0  # atno 10764 bound_to 10752
  153.0417  135.5232  154.7527 H   0  0  0  0  0  0  0  0  0  0  0  0  # atno 10765 bound_to 10752
  141.1406  133.6657  156.5745 H   0  0  0  0  0  0  0  0  0  0  0  0  # atno 11005 bound_to 11000
  146.2640  140.4972  142.8842 LP  0  0  0  0  0  0  0  0  0  0  0  0  # atno 17320 bound_to 7965
  144.8224  140.6572  143.6344 LP  0  0  0  0  0  0  0  0  0  0  0  0  # atno 17321 bound_to 7965
  140.4505  144.1862  150.5897 LP  0  0  0  0  0  0  0  0  0  0  0  0  # atno 17342 bound_to 10162
  140.4590  143.2456  151.9245 LP  0  0  0  0  0  0  0  0  0  0  0  0  # atno 17343 bound_to 10162
  157.7411  130.9862  150.2420 LP  0  0  0  0  0  0  0  0  0  0  0  0  # atno 17370 bound_to 10713
  156.3000  130.3757  149.7759 LP  0  0  0  0  0  0  0  0  0  0  0  0  # atno 17371 bound_to 10713
  140.3887  134.7460  157.4707 LP  0  0  0  0  0  0  0  0  0  0  0  0  # atno 17394 bound_to 11000
  140.0583  134.6032  155.8779 LP  0  0  0  0  0  0  0  0  0  0  0  0  # atno 17395 bound_to 11000

$$$$
