AV-unprocessed.smi:55|AV-procd|sdf|562|dock9
  -GOLD-   2262016463D 1   1.00000     0.00000
 Structure written by MMmdl.
 31 32  0  0  0  0  0  0  0  0  1 V2000
  151.2330  144.9861  158.8673 C   0  0  0  0  0  0  0  0  0  0  0  0
  151.6297  143.5506  158.5648 C   0  0  0  0  0  0  0  0  0  0  0  0
  151.1748  142.8850  157.4726 C   0  0  0  0  0  0  0  0  0  0  0  0
  151.5184  141.5750  157.1689 N   0  0  0  0  0  0  0  0  0  0  0  0
  150.9732  140.8900  155.9363 C   0  0  1  0  0  0  0  0  0  0  0  0
  150.2241  139.6104  156.3109 C   0  0  0  0  0  0  0  0  0  0  0  0
  149.0625  139.6513  155.3405 C   0  0  1  0  0  0  0  0  0  0  0  0
  147.9646  138.9116  155.8342 O   0  0  0  0  0  0  0  0  0  0  0  0
  148.7685  141.1511  155.2573 C   0  0  2  0  0  0  0  0  0  0  0  0
  148.0526  141.5641  153.9625 C   0  0  0  0  0  0  0  0  0  0  0  0
  147.6520  142.9153  154.0413 O   0  0  0  0  0  0  0  0  0  0  0  0
  150.0661  141.7446  155.3028 O   0  0  0  0  0  0  0  0  0  0  0  0
  152.3750  140.8667  158.0375 C   0  0  0  0  0  0  0  0  0  0  0  0
  152.7049  139.6964  157.8499 O   0  0  0  0  0  0  0  0  0  0  0  0
  152.8451  141.5506  159.1575 N   0  0  0  0  0  0  0  0  0  0  0  0
  152.5335  142.8696  159.4960 C   0  0  0  0  0  0  0  0  0  0  0  0
  153.0123  143.3642  160.5151 O   0  0  0  0  0  0  0  0  0  0  0  0
  151.8000  140.7220  155.2446 H   0  0  0  0  0  0  0  0  0  0  0  0
  149.3730  139.2633  154.3690 H   0  0  0  0  0  0  0  0  0  0  0  0
  148.1989  141.4590  156.1364 H   0  0  0  0  0  0  0  0  0  0  0  0
  153.4612  141.0484  159.7800 H   0  0  0  0  0  0  0  0  0  0  0  0
  150.5753  145.3947  158.0997 H   0  0  0  0  0  0  0  0  0  0  0  0
  152.1167  145.6227  158.9223 H   0  0  0  0  0  0  0  0  0  0  0  0
  150.7089  145.0433  159.8221 H   0  0  0  0  0  0  0  0  0  0  0  0
  150.5046  143.4070  156.8067 H   0  0  0  0  0  0  0  0  0  0  0  0
  150.8608  138.7314  156.2065 H   0  0  0  0  0  0  0  0  0  0  0  0
  149.8724  139.6766  157.3423 H   0  0  0  0  0  0  0  0  0  0  0  0
  147.1797  139.2131  155.4024 H   0  0  0  0  0  0  0  0  0  0  0  0
  148.6866  141.4042  153.0898 H   0  0  0  0  0  0  0  0  0  0  0  0
  147.1523  140.9646  153.8236 H   0  0  0  0  0  0  0  0  0  0  0  0
  148.3610  143.4175  154.4130 H   0  0  0  0  0  0  0  0  0  0  0  0
  1  2  1  0  0  0  0
  1 22  1  0  0  0  0
  1 23  1  0  0  0  0
  1 24  1  0  0  0  0
  2 16  1  0  0  0  0
  2  3  2  0  0  0  0
  3  4  1  0  0  0  0
  3 25  1  0  0  0  0
  4  5  1  0  0  0  0
  4 13  1  0  0  0  0
  5 18  1  0  0  0  0
  5 12  1  0  0  0  0
  5  6  1  0  0  0  0
  6  7  1  0  0  0  0
  6 26  1  0  0  0  0
  6 27  1  0  0  0  0
  7 19  1  0  0  0  0
  7  8  1  0  0  0  0
  7  9  1  0  0  0  0
  8 28  1  0  0  0  0
  9 20  1  0  0  0  0
  9 10  1  0  0  0  0
  9 12  1  0  0  0  0
 10 11  1  0  0  0  0
 10 29  1  0  0  0  0
 10 30  1  0  0  0  0
 11 31  1  0  0  0  0
 13 14  2  0  0  0  0
 13 15  1  0  0  0  0
 15 21  1  0  0  0  0
 15 16  1  0  0  0  0
 16 17  2  0  0  0  0
M  END
> <s_m_source_file>
AV-unprocessed.smi

> <i_m_source_file_index>
55

> <i_lp_mmshare_version>
43012

> <i_f3d_flags>
0

> <s_epik_input>
Tz1jMVtuSF1jKD1PKW4oW2NIXWMxW0NIM10pW0NAQEhdMltDSDJdW0NAQEhdKFtPSF0pW0NAQEhdKE8yKVtDSDJdW09IXQ==

> <s_epik_cmdline>
J2VwaWtfcHl0aG9uJywgJy1waCcsICc3LjAnLCAnLXRuJywgJzgnLCAnLW1hJywgJzIwMCcsICctbWV0YWxfYmluZGluZycsICctaW1hZScsICc8aW5maWxlLm1hZT4nLCAnLW9tYWUnLCAnPG91dGZpbGUubWFlPic=

> <r_lp_tautomer_probability>
0.999537

> <r_epik_Ionization_Penalty>
0.00121888

> <r_epik_Ionization_Penalty_Charging>
0.00121876

> <r_epik_Ionization_Penalty_Neutral>
1.19946e-07

> <r_epik_State_Penalty>
0.000805124

> <r_epik_Charging_Adjusted_Penalty>
0.00202389

> <i_epik_Tot_Q>
0

> <i_epik_Tot_abs_Q>
0

> <r_epik_Metal_State_Penalty>
0.662472

> <b_epik_Metal_Only>
0

> <s_epik_Chemistry_Notes>
This compound contains an acetal/aminal-like group ( X-CH(R)-Y where X, Y are N, S, or O) that may be acid/base labile, releasing an aldehyde.

> <s_lp_Force_Field>
OPLS_2005

> <r_lp_Energy>
25.0544

> <b_lp_Chiralities_Consistent>
1

> <s_lp_Variant>
AV-unprocessed.smi:55-2

> <Gold.Version>
5.8.1

> <Gold.Id.Protein>
6NUR|6NUR_protein|mol2

> <Gold.PLP.Fitness>
38.0030

> <Gold.PLP.PLP>
-29.1979

> <Gold.PLP.part.hbond>
-4.1035

> <Gold.PLP.part.metal>
0.0000

> <Gold.PLP.part.buried>
-2.9195

> <Gold.PLP.part.nonpolar>
-21.9513

> <Gold.PLP.part.repulsive>
0.2331

> <Gold.PLP.ligand.clash>
0.0000

> <Gold.PLP.ligand.torsion>
0.0902

> <Gold.PLP.Chemscore.Hbond>
1.9920

> <Gold.PLP.Chemscore.CHOScore>
1.0000

> <Gold.PLP.Chemscore.Metal>
0.0000

> <Gold.Chemscore.Hbonds>
donor molecule, donor type, donor heavy atom, donor atom, acceptor molecule, acceptor atom, score
      L1  H    11    31       P1  8028  0.93
      P1  H  7997  8009       L1    14  0.75
      L1  C     3    25       P1  8028  1.00

> <Gold.PLP.Chemscore.Internal.Correction>
0.0096

> <Gold.Rescore>
     Score         DG    S(hbond)    S(metal)    S(lipo)     H(rot)  DE(clash)    DE(int)     intcor
      9.45     -10.86       1.86        0.00      52.53       2.73       0.04       1.37       ----

> <Gold.Chemscore.Fitness>
9.4519

> <Gold.Chemscore.DG>
-10.8569

> <Gold.Chemscore.ZeroCoef>
-5.4800

> <Gold.Chemscore.Hbond>
1.8584

> <Gold.Chemscore.Metal>
0.0000

> <Gold.Chemscore.Lipo>
52.5345

> <Gold.Chemscore.Internal_Hbond>
0.0000

> <Gold.Chemscore.DEClash>
0.0400

> <Gold.Chemscore.DEInternal>
1.3651

> <Gold.Chemscore.Rot>
2.7253

> <Gold.Chemscore.Internal.Correction>
   9.000000E+99

> <Gold.Chemscore.Hbonds>
donor molecule, donor type, donor heavy atom, donor atom, acceptor molecule, acceptor atom, score
      L1  H    11    31       P1  8028  0.89
      P1  H  7997  8009       L1    14  0.14

> <Gold.Chemscore.Hbond.Weighted>
-6.2072

> <Gold.Chemscore.Metal.Weighted>
-0.0000

> <Gold.Chemscore.Lipo.Weighted>
-6.1465

> <Gold.Chemscore.Internal_Hbond.Weighted>
0.0000

> <Gold.Chemscore.DEClash.Weighted>
0.0400

> <Gold.Chemscore.DEInternal.Weighted>
1.3651

> <Gold.Chemscore.Rot.Weighted>
6.9769

> <Gold.Chemscore.Internal.Correction.Weighted>
   9.000000E+99

> <Gold.Protein.RotatedTorsions>
[ 6907 6896 6895 6894 ] final  107.69 input  -60.11 | X-H torsion
[ 7974 7965 7964 7962 ] final  171.11 input  175.53 | X-H torsion
[ 8008 7997 7996 7995 ] final  151.54 input   59.86 | X-H torsion
[ 10167 10162 10161 10158 ] final   59.27 input  -65.29 | X-H torsion
[ 10718 10713 10712 10709 ] final  -89.82 input   66.30 | X-H torsion
[ 10763 10752 10751 10750 ] final  -41.88 input  -60.55 | X-H torsion
[ 11005 11000 10999 10996 ] final   84.62 input  -57.11 | X-H torsion

> <Gold.Protein.ActiveResidues>
 VAL166  LYS551  ARG553  GLY616  TRP617  ASP618  TYR619  PRO620  LYS621  CYS622 
 ASP623  PHE694  ASN695  SER759  ASP760  ASP761  ALA762  ILE779  LEU786  VAL792 
 PHE793  MET794  SER795  GLU796  ALA797  LYS798  CYS799  TRP800  GLU811  SER814 

> <Gold.Protein.RotatedAtoms>
  152.5144  133.9197  159.7528 H   0  0  0  0  0  0  0  0  0  0  0  0  # atno 6907 bound_to 6896
  150.9572  133.6476  159.2768 H   0  0  0  0  0  0  0  0  0  0  0  0  # atno 6908 bound_to 6896
  151.3734  135.0932  159.9526 H   0  0  0  0  0  0  0  0  0  0  0  0  # atno 6909 bound_to 6896
  144.7304  139.9302  143.6424 H   0  0  0  0  0  0  0  0  0  0  0  0  # atno 7974 bound_to 7965
  156.2669  140.2045  156.6192 H   0  0  0  0  0  0  0  0  0  0  0  0  # atno 8008 bound_to 7997
  154.6770  140.0544  157.0250 H   0  0  0  0  0  0  0  0  0  0  0  0  # atno 8009 bound_to 7997
  155.1054  140.3210  155.4538 H   0  0  0  0  0  0  0  0  0  0  0  0  # atno 8010 bound_to 7997
  140.1782  144.4209  150.6628 H   0  0  0  0  0  0  0  0  0  0  0  0  # atno 10167 bound_to 10162
  155.9985  130.4886  150.5229 H   0  0  0  0  0  0  0  0  0  0  0  0  # atno 10718 bound_to 10713
  153.9698  135.6730  153.4747 H   0  0  0  0  0  0  0  0  0  0  0  0  # atno 10763 bound_to 10752
  153.0798  135.4929  154.8476 H   0  0  0  0  0  0  0  0  0  0  0  0  # atno 10764 bound_to 10752
  154.7225  135.3120  154.8984 H   0  0  0  0  0  0  0  0  0  0  0  0  # atno 10765 bound_to 10752
  139.8995  134.8229  156.2470 H   0  0  0  0  0  0  0  0  0  0  0  0  # atno 11005 bound_to 11000
  146.0863  139.3851  143.0433 LP  0  0  0  0  0  0  0  0  0  0  0  0  # atno 17320 bound_to 7965
  145.7772  140.9871  143.1118 LP  0  0  0  0  0  0  0  0  0  0  0  0  # atno 17321 bound_to 7965
  140.6537  143.2232  151.6017 LP  0  0  0  0  0  0  0  0  0  0  0  0  # atno 17342 bound_to 10162
  139.5308  144.2923  152.1142 LP  0  0  0  0  0  0  0  0  0  0  0  0  # atno 17343 bound_to 10162
  157.3188  131.0678  151.1947 LP  0  0  0  0  0  0  0  0  0  0  0  0  # atno 17370 bound_to 10713
  157.2867  130.6776  149.6093 LP  0  0  0  0  0  0  0  0  0  0  0  0  # atno 17371 bound_to 10713
  141.0248  133.7021  156.1329 LP  0  0  0  0  0  0  0  0  0  0  0  0  # atno 17394 bound_to 11000
  140.7182  134.4388  157.5577 LP  0  0  0  0  0  0  0  0  0  0  0  0  # atno 17395 bound_to 11000

$$$$
