AV-unprocessed.smi:1296|AV-procd|sdf|5414|dock5
  -GOLD-   22720 4573D 1   1.00000     0.00000
 Structure written by MMmdl.
 36 36  0  0  0  0  0  0  0  0  1 V2000
  146.8064  138.7104  152.5002 C   0  0  0  0  0  0  0  0  0  0  0  0
  147.8648  139.3086  153.4016 C   0  0  0  0  0  0  0  0  0  0  0  0
  148.9580  138.4817  153.6006 N   0  0  0  0  0  0  0  0  0  0  0  0
  149.9735  138.9375  154.4227 C   0  0  0  0  0  0  0  0  0  0  0  0
  151.1307  137.9689  154.5933 C   0  0  0  0  0  0  0  0  0  0  0  0
  149.9066  140.1590  155.0106 C   0  0  0  0  0  0  0  0  0  0  0  0
  151.0044  140.6989  155.9270 C   0  0  0  0  0  0  0  0  0  0  0  0
  150.5415  141.4995  157.1472 C   0  0  0  0  0  0  0  0  0  0  0  0
  149.7954  140.9955  157.9870 O   0  0  0  0  0  0  0  0  0  0  0  0
  150.9993  142.7563  157.2313 N   0  0  0  0  0  0  0  0  0  0  0  0
  150.6914  143.6763  158.3187 C   0  0  0  0  0  0  0  0  0  0  0  0
  151.9582  144.3800  158.8432 C   0  0  0  0  0  0  0  0  0  0  0  0
  153.0247  143.3834  159.3301 C   0  0  0  0  0  0  0  0  0  0  0  0
  151.6046  145.3796  159.9542 C   0  0  0  0  0  0  0  0  0  0  0  0
  148.7189  141.0052  154.7472 C   0  0  0  0  0  0  0  0  0  0  0  0
  148.6094  142.1303  155.2329 O   0  0  0  0  0  0  0  0  0  0  0  0
  147.7105  140.4907  153.9160 N   0  0  0  0  0  0  0  0  0  0  0  0
  149.0483  137.5669  153.1828 H   0  0  0  0  0  0  0  0  0  0  0  0
  145.9960  139.4194  152.3264 H   0  0  0  0  0  0  0  0  0  0  0  0
  146.3839  137.8139  152.9546 H   0  0  0  0  0  0  0  0  0  0  0  0
  147.2357  138.4408  151.5348 H   0  0  0  0  0  0  0  0  0  0  0  0
  151.2261  137.6689  155.6369 H   0  0  0  0  0  0  0  0  0  0  0  0
  152.0659  138.4340  154.2807 H   0  0  0  0  0  0  0  0  0  0  0  0
  150.9906  137.0666  153.9970 H   0  0  0  0  0  0  0  0  0  0  0  0
  151.6605  141.3403  155.3382 H   0  0  0  0  0  0  0  0  0  0  0  0
  151.6463  139.8866  156.2696 H   0  0  0  0  0  0  0  0  0  0  0  0
  151.6086  143.0945  156.5007 H   0  0  0  0  0  0  0  0  0  0  0  0
  149.9756  144.4171  157.9590 H   0  0  0  0  0  0  0  0  0  0  0  0
  150.2041  143.1296  159.1279 H   0  0  0  0  0  0  0  0  0  0  0  0
  152.3902  144.9504  158.0196 H   0  0  0  0  0  0  0  0  0  0  0  0
  152.6429  142.7600  160.1394 H   0  0  0  0  0  0  0  0  0  0  0  0
  153.9074  143.9049  159.7012 H   0  0  0  0  0  0  0  0  0  0  0  0
  153.3545  142.7226  158.5284 H   0  0  0  0  0  0  0  0  0  0  0  0
  151.1613  144.8756  160.8138 H   0  0  0  0  0  0  0  0  0  0  0  0
  150.8915  146.1247  159.6007 H   0  0  0  0  0  0  0  0  0  0  0  0
  152.4902  145.9125  160.3013 H   0  0  0  0  0  0  0  0  0  0  0  0
  1 19  1  0  0  0  0
  1 20  1  0  0  0  0
  1 21  1  0  0  0  0
  1  2  1  0  0  0  0
  2  3  1  0  0  0  0
  2 17  2  0  0  0  0
  3  4  1  0  0  0  0
  3 18  1  0  0  0  0
  4  6  2  0  0  0  0
  4  5  1  0  0  0  0
  5 22  1  0  0  0  0
  5 23  1  0  0  0  0
  5 24  1  0  0  0  0
  6 15  1  0  0  0  0
  6  7  1  0  0  0  0
  7  8  1  0  0  0  0
  7 25  1  0  0  0  0
  7 26  1  0  0  0  0
  8  9  2  0  0  0  0
  8 10  1  0  0  0  0
 10 11  1  0  0  0  0
 10 27  1  0  0  0  0
 11 12  1  0  0  0  0
 11 28  1  0  0  0  0
 11 29  1  0  0  0  0
 12 13  1  0  0  0  0
 12 14  1  0  0  0  0
 12 30  1  0  0  0  0
 13 31  1  0  0  0  0
 13 32  1  0  0  0  0
 13 33  1  0  0  0  0
 14 34  1  0  0  0  0
 14 35  1  0  0  0  0
 14 36  1  0  0  0  0
 15 16  2  0  0  0  0
 15 17  1  0  0  0  0
M  END
> <s_m_source_file>
AV-unprocessed.smi

> <i_m_source_file_index>
1296

> <i_lp_mmshare_version>
43012

> <i_f3d_flags>
0

> <s_epik_input>
W0NIM11jMW5jKFtDSDNdKWMoYyg9TylbbkhdMSlbQ0gyXUMoPU8pW05IXVtDSDJdW0NIXShbQ0gzXSlbQ0gzXQ==

> <s_epik_cmdline>
J2VwaWtfcHl0aG9uJywgJy1waCcsICc3LjAnLCAnLXRuJywgJzgnLCAnLW1hJywgJzIwMCcsICctbWV0YWxfYmluZGluZycsICctaW1hZScsICc8aW5maWxlLm1hZT4nLCAnLW9tYWUnLCAnPG91dGZpbGUubWFlPic=

> <r_lp_tautomer_probability>
0.156392

> <r_epik_Ionization_Penalty>
0.0142343

> <r_epik_Ionization_Penalty_Charging>
0.0141145

> <r_epik_Ionization_Penalty_Neutral>
0.000119779

> <r_epik_State_Penalty>
1.52879

> <r_epik_Charging_Adjusted_Penalty>
1.5429

> <i_epik_Tot_Q>
0

> <i_epik_Tot_abs_Q>
0

> <r_epik_Metal_State_Penalty>
1.70685

> <b_epik_Metal_Only>
0

> <s_lp_Force_Field>
OPLS_2005

> <r_lp_Energy>
9.70595

> <b_lp_Chiralities_Consistent>
1

> <s_lp_Variant>
AV-unprocessed.smi:1296-2

> <Gold.Version>
5.8.1

> <Gold.Id.Protein>
6NUR|6NUR_protein|mol2

> <Gold.PLP.Fitness>
39.1749

> <Gold.PLP.PLP>
-36.9209

> <Gold.PLP.part.hbond>
-2.4376

> <Gold.PLP.part.metal>
0.0000

> <Gold.PLP.part.buried>
-3.4451

> <Gold.PLP.part.nonpolar>
-34.9482

> <Gold.PLP.part.repulsive>
3.4734

> <Gold.PLP.ligand.clash>
0.0000

> <Gold.PLP.ligand.torsion>
0.3802

> <Gold.PLP.Chemscore.Hbond>
1.0000

> <Gold.PLP.Chemscore.CHOScore>
0.0000

> <Gold.PLP.Chemscore.Metal>
0.0000

> <Gold.Chemscore.Hbonds>
donor molecule, donor type, donor heavy atom, donor atom, acceptor molecule, acceptor atom, score
      L1  H     3    18       P1  7948  1.00

> <Gold.PLP.Chemscore.Internal.Correction>
0.0144

> <Gold.Rescore>
     Score         DG    S(hbond)    S(metal)    S(lipo)     H(rot)  DE(clash)    DE(int)     intcor
     12.28     -14.08       0.99        0.00      83.06       1.73       0.06       1.74       ----

> <Gold.Chemscore.Fitness>
12.2802

> <Gold.Chemscore.DG>
-14.0750

> <Gold.Chemscore.ZeroCoef>
-5.4800

> <Gold.Chemscore.Hbond>
0.9893

> <Gold.Chemscore.Metal>
0.0000

> <Gold.Chemscore.Lipo>
83.0648

> <Gold.Chemscore.Internal_Hbond>
0.0000

> <Gold.Chemscore.DEClash>
0.0578

> <Gold.Chemscore.DEInternal>
1.7371

> <Gold.Chemscore.Rot>
1.7296

> <Gold.Chemscore.Internal.Correction>
   9.000000E+99

> <Gold.Chemscore.Hbonds>
donor molecule, donor type, donor heavy atom, donor atom, acceptor molecule, acceptor atom, score
      L1  H     3    18       P1  7948  0.99

> <Gold.Chemscore.Hbond.Weighted>
-3.3041

> <Gold.Chemscore.Metal.Weighted>
-0.0000

> <Gold.Chemscore.Lipo.Weighted>
-9.7186

> <Gold.Chemscore.Internal_Hbond.Weighted>
0.0000

> <Gold.Chemscore.DEClash.Weighted>
0.0578

> <Gold.Chemscore.DEInternal.Weighted>
1.7371

> <Gold.Chemscore.Rot.Weighted>
4.4277

> <Gold.Chemscore.Internal.Correction.Weighted>
   9.000000E+99

> <Gold.Protein.RotatedTorsions>
[ 6907 6896 6895 6894 ] final -170.99 input  -60.11 | X-H torsion
[ 7974 7965 7964 7962 ] final   60.84 input  175.53 | X-H torsion
[ 8008 7997 7996 7995 ] final  -27.64 input   59.86 | X-H torsion
[ 10167 10162 10161 10158 ] final -166.59 input  -65.29 | X-H torsion
[ 10718 10713 10712 10709 ] final   42.00 input   66.30 | X-H torsion
[ 10763 10752 10751 10750 ] final   -9.79 input  -60.55 | X-H torsion
[ 11005 11000 10999 10996 ] final -130.00 input  -57.11 | X-H torsion

> <Gold.Protein.ActiveResidues>
 VAL166  LYS551  ARG553  GLY616  TRP617  ASP618  TYR619  PRO620  LYS621  CYS622 
 ASP623  PHE694  ASN695  SER759  ASP760  ASP761  ALA762  ILE779  LEU786  VAL792 
 PHE793  MET794  SER795  GLU796  ALA797  LYS798  CYS799  TRP800  GLU811  SER814 

> <Gold.Protein.RotatedAtoms>
  151.5165  133.3474  159.2893 H   0  0  0  0  0  0  0  0  0  0  0  0  # atno 6907 bound_to 6896
  150.8679  134.8049  159.7143 H   0  0  0  0  0  0  0  0  0  0  0  0  # atno 6908 bound_to 6896
  152.4677  134.5045  159.9786 H   0  0  0  0  0  0  0  0  0  0  0  0  # atno 6909 bound_to 6896
  145.8915  139.3514  143.0647 H   0  0  0  0  0  0  0  0  0  0  0  0  # atno 7974 bound_to 7965
  154.4368  140.1867  156.0964 H   0  0  0  0  0  0  0  0  0  0  0  0  # atno 8008 bound_to 7997
  156.0326  140.3329  155.7130 H   0  0  0  0  0  0  0  0  0  0  0  0  # atno 8009 bound_to 7997
  155.5817  140.0622  157.2772 H   0  0  0  0  0  0  0  0  0  0  0  0  # atno 8010 bound_to 7997
  139.6105  144.0824  152.1837 H   0  0  0  0  0  0  0  0  0  0  0  0  # atno 10167 bound_to 10162
  157.3999  130.7854  149.7340 H   0  0  0  0  0  0  0  0  0  0  0  0  # atno 10718 bound_to 10713
  153.4599  135.7016  153.6057 H   0  0  0  0  0  0  0  0  0  0  0  0  # atno 10763 bound_to 10752
  153.4356  135.3792  155.2197 H   0  0  0  0  0  0  0  0  0  0  0  0  # atno 10764 bound_to 10752
  154.8727  135.3961  154.4023 H   0  0  0  0  0  0  0  0  0  0  0  0  # atno 10765 bound_to 10752
  140.9383  134.1227  157.4173 H   0  0  0  0  0  0  0  0  0  0  0  0  # atno 11005 bound_to 11000
  145.8903  140.9308  143.0555 LP  0  0  0  0  0  0  0  0  0  0  0  0  # atno 17320 bound_to 7965
  144.6731  140.0897  143.7465 LP  0  0  0  0  0  0  0  0  0  0  0  0  # atno 17321 bound_to 7965
  140.0442  144.5983  150.7387 LP  0  0  0  0  0  0  0  0  0  0  0  0  # atno 17342 bound_to 10162
  140.7315  143.2696  151.3933 LP  0  0  0  0  0  0  0  0  0  0  0  0  # atno 17343 bound_to 10162
  155.9820  130.4013  150.3438 LP  0  0  0  0  0  0  0  0  0  0  0  0  # atno 17370 bound_to 10713
  157.1564  131.0334  151.2861 LP  0  0  0  0  0  0  0  0  0  0  0  0  # atno 17371 bound_to 10713
  139.8813  135.0028  156.6149 LP  0  0  0  0  0  0  0  0  0  0  0  0  # atno 17394 bound_to 11000
  140.7769  133.8692  155.8536 LP  0  0  0  0  0  0  0  0  0  0  0  0  # atno 17395 bound_to 11000

$$$$
