AV-unprocessed.smi:2032|AV-procd|sdf|8232|dock6
  -GOLD-   2272010503D 1   1.00000     0.00000
 Structure written by MMmdl.
 42 43  0  0  0  0  0  0  0  0  1 V2000
  148.6918  132.9780  152.9154 C   0  0  0  0  0  0  0  0  0  0  0  0
  147.1804  133.0817  152.6845 C   0  0  1  0  0  0  0  0  0  0  0  0
  146.6437  134.4967  152.9700 C   0  0  0  0  0  0  0  0  0  0  0  0
  145.2100  134.6320  152.6911 N   0  0  0  0  0  0  0  0  0  0  0  0
  144.7090  136.0028  152.9464 C   0  0  2  0  0  0  0  0  0  0  0  0
  143.1644  136.1055  152.8702 C   0  0  0  0  0  0  0  0  0  0  0  0
  145.3260  137.0703  151.9963 C   0  0  0  0  0  0  0  0  0  0  0  0
  146.6787  137.4686  152.3772 N   0  0  0  0  0  0  0  0  0  0  0  0
  146.9753  138.4896  153.1940 C   0  0  0  0  0  0  0  0  0  0  0  0
  146.1228  139.2053  153.7211 O   0  0  0  0  0  0  0  0  0  0  0  0
  148.3045  138.6196  153.3498 N   0  0  0  0  0  0  0  0  0  0  0  0
  149.0062  139.5709  154.1363 C   0  0  0  0  0  0  0  0  0  0  0  0
  150.1153  139.3014  154.8351 N   0  0  0  0  0  0  0  0  0  0  0  0
  150.5928  140.4241  155.5157 C   0  0  0  0  0  0  0  0  0  0  0  0
  149.8300  141.5487  155.3219 C   0  0  0  0  0  0  0  0  0  0  0  0
  148.4738  141.2405  154.2702 S   0  0  0  0  0  0  0  0  0  0  0  0
  144.9790  134.1981  151.3082 C   0  0  0  0  0  0  0  0  0  0  0  0
  145.5266  132.7877  151.0172 C   0  0  1  0  0  0  0  0  0  0  0  0
  145.3571  132.3948  149.5457 C   0  0  0  0  0  0  0  0  0  0  0  0
  146.9133  132.7486  151.3286 O   0  0  0  0  0  0  0  0  0  0  0  0
  148.9480  133.2177  153.9475 H   0  0  0  0  0  0  0  0  0  0  0  0
  149.2386  133.6628  152.2664 H   0  0  0  0  0  0  0  0  0  0  0  0
  149.0485  131.9684  152.7106 H   0  0  0  0  0  0  0  0  0  0  0  0
  146.6776  132.3623  153.3334 H   0  0  0  0  0  0  0  0  0  0  0  0
  146.8490  134.7086  154.0181 H   0  0  0  0  0  0  0  0  0  0  0  0
  147.2042  135.2259  152.3827 H   0  0  0  0  0  0  0  0  0  0  0  0
  144.9927  136.2739  153.9645 H   0  0  0  0  0  0  0  0  0  0  0  0
  142.8084  137.1273  152.9959 H   0  0  0  0  0  0  0  0  0  0  0  0
  142.6753  135.5368  153.6599 H   0  0  0  0  0  0  0  0  0  0  0  0
  142.7906  135.7438  151.9118 H   0  0  0  0  0  0  0  0  0  0  0  0
  145.3818  136.7247  150.9654 H   0  0  0  0  0  0  0  0  0  0  0  0
  144.6994  137.9626  151.9849 H   0  0  0  0  0  0  0  0  0  0  0  0
  147.4387  136.9318  151.9857 H   0  0  0  0  0  0  0  0  0  0  0  0
  148.8822  137.9607  152.8491 H   0  0  0  0  0  0  0  0  0  0  0  0
  151.4846  140.3328  156.1180 H   0  0  0  0  0  0  0  0  0  0  0  0
  149.9833  142.5355  155.7327 H   0  0  0  0  0  0  0  0  0  0  0  0
  143.9147  134.1719  151.0852 H   0  0  0  0  0  0  0  0  0  0  0  0
  145.4297  134.9137  150.6184 H   0  0  0  0  0  0  0  0  0  0  0  0
  145.0028  132.0578  151.6371 H   0  0  0  0  0  0  0  0  0  0  0  0
  144.3059  132.3984  149.2565 H   0  0  0  0  0  0  0  0  0  0  0  0
  145.7490  131.3941  149.3621 H   0  0  0  0  0  0  0  0  0  0  0  0
  145.8875  133.0859  148.8900 H   0  0  0  0  0  0  0  0  0  0  0  0
  1  2  1  0  0  0  0
  1 21  1  0  0  0  0
  1 22  1  0  0  0  0
  1 23  1  0  0  0  0
  2 20  1  0  0  0  0
  2  3  1  0  0  0  0
  2 24  1  0  0  0  0
  3  4  1  0  0  0  0
  3 25  1  0  0  0  0
  3 26  1  0  0  0  0
  4  5  1  0  0  0  0
  4 17  1  0  0  0  0
  5  6  1  0  0  0  0
  5  7  1  0  0  0  0
  5 27  1  0  0  0  0
  6 28  1  0  0  0  0
  6 29  1  0  0  0  0
  6 30  1  0  0  0  0
  7  8  1  0  0  0  0
  7 31  1  0  0  0  0
  7 32  1  0  0  0  0
  8  9  1  0  0  0  0
  8 33  1  0  0  0  0
  9 10  2  0  0  0  0
  9 11  1  0  0  0  0
 11 12  1  0  0  0  0
 11 34  1  0  0  0  0
 12 16  1  0  0  0  0
 12 13  2  0  0  0  0
 13 14  1  0  0  0  0
 14 15  2  0  0  0  0
 14 35  1  0  0  0  0
 15 16  1  0  0  0  0
 15 36  1  0  0  0  0
 17 18  1  0  0  0  0
 17 37  1  0  0  0  0
 17 38  1  0  0  0  0
 18 19  1  0  0  0  0
 18 20  1  0  0  0  0
 18 39  1  0  0  0  0
 19 40  1  0  0  0  0
 19 41  1  0  0  0  0
 19 42  1  0  0  0  0
M  END
> <s_m_source_file>
AV-unprocessed.smi

> <i_m_source_file_index>
2032

> <i_lp_mmshare_version>
43012

> <i_f3d_flags>
0

> <s_epik_input>
W0NIM11bQ0BASF0xW0NIMl1OKFtDSDJdW0NASF0oTzEpW0NIM10pW0NASF0oW0NIM10pW0NIMl1bTkhdQyg9TylbTkhdYzJuW2NIXVtjSF1zMg==

> <s_epik_cmdline>
J2VwaWtfcHl0aG9uJywgJy1waCcsICc3LjAnLCAnLXRuJywgJzgnLCAnLW1hJywgJzIwMCcsICctbWV0YWxfYmluZGluZycsICctaW1hZScsICc8aW5maWxlLm1hZT4nLCAnLW9tYWUnLCAnPG91dGZpbGUubWFlPic=

> <r_lp_tautomer_probability>
0.999

> <r_epik_Ionization_Penalty>
0.219202

> <r_epik_Ionization_Penalty_Charging>
0

> <r_epik_Ionization_Penalty_Neutral>
0.219202

> <r_epik_State_Penalty>
0.209349

> <r_epik_Charging_Adjusted_Penalty>
0.209349

> <i_epik_Tot_Q>
0

> <i_epik_Tot_abs_Q>
0

> <r_epik_Metal_State_Penalty>
0.247737

> <b_epik_Metal_Only>
0

> <s_lp_Force_Field>
OPLS_2005

> <r_lp_Energy>
24.8092

> <b_lp_Chiralities_Consistent>
1

> <s_lp_Variant>
AV-unprocessed.smi:2032-2

> <Gold.Version>
5.8.1

> <Gold.Id.Protein>
6NUR|6NUR_protein|mol2

> <Gold.PLP.Fitness>
39.8184

> <Gold.PLP.PLP>
-32.2647

> <Gold.PLP.part.hbond>
-3.0000

> <Gold.PLP.part.metal>
0.0000

> <Gold.PLP.part.buried>
-2.4294

> <Gold.PLP.part.nonpolar>
-28.4931

> <Gold.PLP.part.repulsive>
1.6911

> <Gold.PLP.ligand.clash>
0.0000

> <Gold.PLP.ligand.torsion>
0.7289

> <Gold.PLP.Chemscore.Hbond>
1.9920

> <Gold.PLP.Chemscore.CHOScore>
0.9998

> <Gold.PLP.Chemscore.Metal>
0.0000

> <Gold.Chemscore.Hbonds>
donor molecule, donor type, donor heavy atom, donor atom, acceptor molecule, acceptor atom, score
      L1  H     8    33       P1  7948  1.00
      L1  H    11    34       P1  7948  0.96
      L1  C    15    36       P1  8028  1.00

> <Gold.PLP.Chemscore.Internal.Correction>
0.0361

> <Gold.Rescore>
     Score         DG    S(hbond)    S(metal)    S(lipo)     H(rot)  DE(clash)    DE(int)     intcor
     15.14     -16.07       1.94        0.00      69.47       1.57       0.07       0.85       ----

> <Gold.Chemscore.Fitness>
15.1449

> <Gold.Chemscore.DG>
-16.0704

> <Gold.Chemscore.ZeroCoef>
-5.4800

> <Gold.Chemscore.Hbond>
1.9445

> <Gold.Chemscore.Metal>
0.0000

> <Gold.Chemscore.Lipo>
69.4686

> <Gold.Chemscore.Internal_Hbond>
0.0000

> <Gold.Chemscore.DEClash>
0.0718

> <Gold.Chemscore.DEInternal>
0.8538

> <Gold.Chemscore.Rot>
1.5750

> <Gold.Chemscore.Internal.Correction>
   9.000000E+99

> <Gold.Chemscore.Hbonds>
donor molecule, donor type, donor heavy atom, donor atom, acceptor molecule, acceptor atom, score
      L1  H     8    33       P1  7948  0.99
      L1  H    11    34       P1  7948  0.91

> <Gold.Chemscore.Hbond.Weighted>
-6.4945

> <Gold.Chemscore.Metal.Weighted>
-0.0000

> <Gold.Chemscore.Lipo.Weighted>
-8.1278

> <Gold.Chemscore.Internal_Hbond.Weighted>
0.0000

> <Gold.Chemscore.DEClash.Weighted>
0.0718

> <Gold.Chemscore.DEInternal.Weighted>
0.8538

> <Gold.Chemscore.Rot.Weighted>
4.0319

> <Gold.Chemscore.Internal.Correction.Weighted>
   9.000000E+99

> <Gold.Protein.RotatedTorsions>
[ 6907 6896 6895 6894 ] final -138.70 input  -60.11 | X-H torsion
[ 7974 7965 7964 7962 ] final   23.55 input  175.53 | X-H torsion
[ 8008 7997 7996 7995 ] final -115.85 input   59.86 | X-H torsion
[ 10167 10162 10161 10158 ] final  106.35 input  -65.29 | X-H torsion
[ 10718 10713 10712 10709 ] final  -64.01 input   66.30 | X-H torsion
[ 10763 10752 10751 10750 ] final  -81.75 input  -60.55 | X-H torsion
[ 11005 11000 10999 10996 ] final  -92.08 input  -57.11 | X-H torsion

> <Gold.Protein.ActiveResidues>
 VAL166  LYS551  ARG553  GLY616  TRP617  ASP618  TYR619  PRO620  LYS621  CYS622 
 ASP623  PHE694  ASN695  SER759  ASP760  ASP761  ALA762  ILE779  LEU786  VAL792 
 PHE793  MET794  SER795  GLU796  ALA797  LYS798  CYS799  TRP800  GLU811  SER814 

> <Gold.Protein.RotatedAtoms>
  151.0384  133.5728  159.2653 H   0  0  0  0  0  0  0  0  0  0  0  0  # atno 6907 bound_to 6896
  151.2784  135.0705  159.9170 H   0  0  0  0  0  0  0  0  0  0  0  0  # atno 6908 bound_to 6896
  152.5359  134.0102  159.7989 H   0  0  0  0  0  0  0  0  0  0  0  0  # atno 6909 bound_to 6896
  146.1979  139.7729  142.8783 H   0  0  0  0  0  0  0  0  0  0  0  0  # atno 7974 bound_to 7965
  155.0586  140.0393  157.2569 H   0  0  0  0  0  0  0  0  0  0  0  0  # atno 8008 bound_to 7997
  154.7078  140.2686  155.6633 H   0  0  0  0  0  0  0  0  0  0  0  0  # atno 8009 bound_to 7997
  156.2780  140.2727  156.1710 H   0  0  0  0  0  0  0  0  0  0  0  0  # atno 8010 bound_to 7997
  139.7016  144.7093  151.1175 H   0  0  0  0  0  0  0  0  0  0  0  0  # atno 10167 bound_to 10162
  156.0755  130.4228  150.1359 H   0  0  0  0  0  0  0  0  0  0  0  0  # atno 10718 bound_to 10713
  154.5673  135.5615  153.7062 H   0  0  0  0  0  0  0  0  0  0  0  0  # atno 10763 bound_to 10752
  153.0037  135.6288  154.2162 H   0  0  0  0  0  0  0  0  0  0  0  0  # atno 10764 bound_to 10752
  154.2101  135.2874  155.2941 H   0  0  0  0  0  0  0  0  0  0  0  0  # atno 10765 bound_to 10752
  141.1530  133.7797  156.9969 H   0  0  0  0  0  0  0  0  0  0  0  0  # atno 11005 bound_to 11000
  145.3583  141.0321  143.3299 LP  0  0  0  0  0  0  0  0  0  0  0  0  # atno 17320 bound_to 7965
  144.8619  139.5164  143.6808 LP  0  0  0  0  0  0  0  0  0  0  0  0  # atno 17321 bound_to 7965
  140.7711  143.5415  150.9307 LP  0  0  0  0  0  0  0  0  0  0  0  0  # atno 17342 bound_to 10162
  139.9097  143.6735  152.3117 LP  0  0  0  0  0  0  0  0  0  0  0  0  # atno 17343 bound_to 10162
  156.9402  130.9742  151.3517 LP  0  0  0  0  0  0  0  0  0  0  0  0  # atno 17370 bound_to 10713
  157.5848  130.8402  149.8574 LP  0  0  0  0  0  0  0  0  0  0  0  0  # atno 17371 bound_to 10713
  140.0965  134.9561  157.1858 LP  0  0  0  0  0  0  0  0  0  0  0  0  # atno 17394 bound_to 11000
  140.3375  134.2741  155.7217 LP  0  0  0  0  0  0  0  0  0  0  0  0  # atno 17395 bound_to 11000

$$$$
