AV-unprocessed.smi:1813|AV-procd|sdf|7347|dock2
  -GOLD-   22720 9 13D 1   1.00000     0.00000
 Structure written by MMmdl.
 39 40  0  0  0  0  0  0  0  0  3 V2000
  146.0656  134.3811  152.4220 C   0  0  0  0  0  0  0  0  0  0  0  0
  146.6796  135.5952  152.9377 N   0  0  0  0  0  0  0  0  0  0  0  0
  146.3770  136.1503  154.1195 C   0  0  0  0  0  0  0  0  0  0  0  0
  145.5464  135.6766  154.8957 O   0  0  0  0  0  0  0  0  0  0  0  0
  147.1450  137.4242  154.4860 C   0  0  0  0  0  0  0  0  0  0  0  0
  148.6191  137.2616  154.4011 N   0  3  2  0  0  0  0  0  0  0  0  0
  149.1865  136.5003  155.5467 C   0  0  0  0  0  0  0  0  0  0  0  0
  150.6938  136.2555  155.3596 C   0  0  0  0  0  0  0  0  0  0  0  0
  151.4645  137.5753  155.1580 C   0  0  2  0  0  0  0  0  0  0  0  0
  151.4667  138.3911  156.3719 N   0  0  0  0  0  0  0  0  0  0  0  0
  151.9480  139.6359  156.4941 C   0  0  0  0  0  0  0  0  0  0  0  0
  152.4263  140.2115  155.5143 O   0  0  0  0  0  0  0  0  0  0  0  0
  151.8521  140.1282  157.7494 N   0  5  0  0  0  0  0  0  0  0  0  0
  151.9029  141.4540  157.9573 C   0  0  0  0  0  0  0  0  0  0  0  0
  151.2277  142.3352  157.2110 N   0  0  0  0  0  0  0  0  0  0  0  0
  151.4176  143.6600  157.6087 C   0  0  0  0  0  0  0  0  0  0  0  0
  152.2506  143.7896  158.6883 C   0  0  0  0  0  0  0  0  0  0  0  0
  152.8247  142.2424  159.2411 S   0  0  0  0  0  0  0  0  0  0  0  0
  150.8297  138.3591  153.9972 C   0  0  0  0  0  0  0  0  0  0  0  0
  149.3160  138.5585  154.2010 C   0  0  0  0  0  0  0  0  0  0  0  0
  146.4352  134.1754  151.4175 H   0  0  0  0  0  0  0  0  0  0  0  0
  144.9806  134.4828  152.3708 H   0  0  0  0  0  0  0  0  0  0  0  0
  146.3063  133.5268  153.0560 H   0  0  0  0  0  0  0  0  0  0  0  0
  147.3780  136.0399  152.3591 H   0  0  0  0  0  0  0  0  0  0  0  0
  146.8198  138.1942  153.7852 H   0  0  0  0  0  0  0  0  0  0  0  0
  146.8650  137.7697  155.4829 H   0  0  0  0  0  0  0  0  0  0  0  0
  149.0049  137.0446  156.4748 H   0  0  0  0  0  0  0  0  0  0  0  0
  148.6819  135.5389  155.6456 H   0  0  0  0  0  0  0  0  0  0  0  0
  151.0903  135.7031  156.2120 H   0  0  0  0  0  0  0  0  0  0  0  0
  150.8467  135.6145  154.4904 H   0  0  0  0  0  0  0  0  0  0  0  0
  152.5002  137.3503  154.8974 H   0  0  0  0  0  0  0  0  0  0  0  0
  151.0728  137.9737  157.2023 H   0  0  0  0  0  0  0  0  0  0  0  0
  150.9191  144.4489  157.0658 H   0  0  0  0  0  0  0  0  0  0  0  0
  152.5597  144.6940  159.1899 H   0  0  0  0  0  0  0  0  0  0  0  0
  151.3219  139.3254  153.8801 H   0  0  0  0  0  0  0  0  0  0  0  0
  150.9973  137.8187  153.0645 H   0  0  0  0  0  0  0  0  0  0  0  0
  148.9042  139.0642  153.3271 H   0  0  0  0  0  0  0  0  0  0  0  0
  149.1290  139.2083  155.0575 H   0  0  0  0  0  0  0  0  0  0  0  0
  148.7946  136.7142  153.5703 H   0  0  0  0  0  0  0  0  0  0  0  0
  1  2  1  0  0  0  0
  1 21  1  0  0  0  0
  1 22  1  0  0  0  0
  1 23  1  0  0  0  0
  2  3  1  0  0  0  0
  2 24  1  0  0  0  0
  3  4  2  0  0  0  0
  3  5  1  0  0  0  0
  5  6  1  0  0  0  0
  5 25  1  0  0  0  0
  5 26  1  0  0  0  0
  6 20  1  0  0  0  0
  6  7  1  0  0  0  0
  6 39  1  0  0  0  0
  7  8  1  0  0  0  0
  7 27  1  0  0  0  0
  7 28  1  0  0  0  0
  8  9  1  0  0  0  0
  8 29  1  0  0  0  0
  8 30  1  0  0  0  0
  9 10  1  0  0  0  0
  9 19  1  0  0  0  0
  9 31  1  0  0  0  0
 10 11  1  0  0  0  0
 10 32  1  0  0  0  0
 11 12  2  0  0  0  0
 11 13  1  0  0  0  0
 13 14  1  0  0  0  0
 14 18  1  0  0  0  0
 14 15  2  0  0  0  0
 15 16  1  0  0  0  0
 16 17  2  0  0  0  0
 16 33  1  0  0  0  0
 17 18  1  0  0  0  0
 17 34  1  0  0  0  0
 19 20  1  0  0  0  0
 19 35  1  0  0  0  0
 19 36  1  0  0  0  0
 20 37  1  0  0  0  0
 20 38  1  0  0  0  0
M  CHG  1   6   1
M  CHG  1  13  -1
M  END
> <s_m_source_file>
AV-unprocessed.smi

> <i_m_source_file_index>
1813

> <i_lp_mmshare_version>
43012

> <i_f3d_flags>
0

> <s_epik_input>
W0NIM11bTkhdQyg9TylbQ0gyXU4xW0NIMl1bQ0gyXVtDSF0oW0NIMl1bQ0gyXTEpW05IXUMoPU8pW05IXWMybltjSF1bY0hdczI=

> <s_epik_cmdline>
J2VwaWtfcHl0aG9uJywgJy1waCcsICc3LjAnLCAnLXRuJywgJzgnLCAnLW1hJywgJzIwMCcsICctbWV0YWxfYmluZGluZycsICctaW1hZScsICc8aW5maWxlLm1hZT4nLCAnLW9tYWUnLCAnPG91dGZpbGUubWFlPic=

> <r_lp_tautomer_probability>
0.999

> <r_epik_Ionization_Penalty>
7.12128

> <r_epik_Ionization_Penalty_Charging>
6.25357

> <r_epik_Ionization_Penalty_Neutral>
0.867707

> <r_epik_State_Penalty>
6.33838

> <r_epik_Charging_Adjusted_Penalty>
12.592

> <i_epik_Tot_Q>
0

> <i_epik_Tot_abs_Q>
2

> <r_epik_Metal_State_Penalty>
2.34161

> <b_epik_Metal_Only>
1

> <s_lp_Force_Field>
OPLS_2005

> <r_lp_Energy>
4.26142

> <b_lp_Chiralities_Consistent>
1

> <s_lp_Variant>
AV-unprocessed.smi:1813-8

> <Gold.Version>
5.8.1

> <Gold.Id.Protein>
6NUR|6NUR_protein|mol2

> <Gold.PLP.Fitness>
43.3013

> <Gold.PLP.PLP>
-28.7684

> <Gold.PLP.part.hbond>
-4.0000

> <Gold.PLP.part.metal>
0.0000

> <Gold.PLP.part.buried>
-2.4161

> <Gold.PLP.part.nonpolar>
-22.9802

> <Gold.PLP.part.repulsive>
0.1593

> <Gold.PLP.ligand.clash>
0.0000

> <Gold.PLP.ligand.torsion>
0.7281

> <Gold.PLP.Chemscore.Hbond>
4.2808

> <Gold.PLP.Chemscore.CHOScore>
1.0000

> <Gold.PLP.Chemscore.Metal>
0.0000

> <Gold.Chemscore.Hbonds>
donor molecule, donor type, donor heavy atom, donor atom, acceptor molecule, acceptor atom, score
      L1  H     2    24       P1  7948  1.00
      L1  H     6    39       P1  7948  2.00
      P1  H  7989  7998       L1    12  0.27
      P1  H  7997  8009       L1    12  0.96
      L1  C    16    33       P1  8028  1.00

> <Gold.PLP.Chemscore.Internal.Correction>
0.1465

> <Gold.Rescore>
     Score         DG    S(hbond)    S(metal)    S(lipo)     H(rot)  DE(clash)    DE(int)     intcor
     15.70     -18.65       2.88        0.00      68.93       1.76       0.09       2.86       ----

> <Gold.Chemscore.Fitness>
15.7010

> <Gold.Chemscore.DG>
-18.6485

> <Gold.Chemscore.ZeroCoef>
-5.4800

> <Gold.Chemscore.Hbond>
2.8771

> <Gold.Chemscore.Metal>
0.0000

> <Gold.Chemscore.Lipo>
68.9344

> <Gold.Chemscore.Internal_Hbond>
0.0000

> <Gold.Chemscore.DEClash>
0.0884

> <Gold.Chemscore.DEInternal>
2.8592

> <Gold.Chemscore.Rot>
1.7603

> <Gold.Chemscore.Internal.Correction>
   9.000000E+99

> <Gold.Chemscore.Hbonds>
donor molecule, donor type, donor heavy atom, donor atom, acceptor molecule, acceptor atom, score
      L1  H     2    24       P1  7948  0.96
      L1  H     6    39       P1  7948  1.00
      P1  H  7989  7998       L1    12  0.28
      P1  H  7997  8009       L1    12  0.35

> <Gold.Chemscore.Hbond.Weighted>
-9.6096

> <Gold.Chemscore.Metal.Weighted>
-0.0000

> <Gold.Chemscore.Lipo.Weighted>
-8.0653

> <Gold.Chemscore.Internal_Hbond.Weighted>
0.0000

> <Gold.Chemscore.DEClash.Weighted>
0.0884

> <Gold.Chemscore.DEInternal.Weighted>
2.8592

> <Gold.Chemscore.Rot.Weighted>
4.5064

> <Gold.Chemscore.Internal.Correction.Weighted>
   9.000000E+99

> <Gold.Protein.RotatedTorsions>
[ 6907 6896 6895 6894 ] final   84.08 input  -60.11 | X-H torsion
[ 7974 7965 7964 7962 ] final  160.22 input  175.53 | X-H torsion
[ 8008 7997 7996 7995 ] final -136.92 input   59.86 | X-H torsion
[ 10167 10162 10161 10158 ] final   17.28 input  -65.29 | X-H torsion
[ 10718 10713 10712 10709 ] final  116.48 input   66.30 | X-H torsion
[ 10763 10752 10751 10750 ] final   91.50 input  -60.55 | X-H torsion
[ 11005 11000 10999 10996 ] final  -85.13 input  -57.11 | X-H torsion

> <Gold.Protein.ActiveResidues>
 VAL166  LYS551  ARG553  GLY616  TRP617  ASP618  TYR619  PRO620  LYS621  CYS622 
 ASP623  PHE694  ASN695  SER759  ASP760  ASP761  ALA762  ILE779  LEU786  VAL792 
 PHE793  MET794  SER795  GLU796  ALA797  LYS798  CYS799  TRP800  GLU811  SER814 

> <Gold.Protein.RotatedAtoms>
  152.5343  134.2796  159.9002 H   0  0  0  0  0  0  0  0  0  0  0  0  # atno 6907 bound_to 6896
  151.2751  133.4230  159.2631 H   0  0  0  0  0  0  0  0  0  0  0  0  # atno 6908 bound_to 6896
  151.0333  134.9570  159.8179 H   0  0  0  0  0  0  0  0  0  0  0  0  # atno 6909 bound_to 6896
  144.7748  139.7727  143.6283 H   0  0  0  0  0  0  0  0  0  0  0  0  # atno 7974 bound_to 7965
  155.4033  140.0507  157.3035 H   0  0  0  0  0  0  0  0  0  0  0  0  # atno 8008 bound_to 7997
  154.4981  140.2146  155.9365 H   0  0  0  0  0  0  0  0  0  0  0  0  # atno 8009 bound_to 7997
  156.1431  140.3150  155.8532 H   0  0  0  0  0  0  0  0  0  0  0  0  # atno 8010 bound_to 7997
  140.5737  143.9113  150.6733 H   0  0  0  0  0  0  0  0  0  0  0  0  # atno 10167 bound_to 10162
  157.6157  131.1026  150.7479 H   0  0  0  0  0  0  0  0  0  0  0  0  # atno 10718 bound_to 10713
  153.2090  135.4395  155.0357 H   0  0  0  0  0  0  0  0  0  0  0  0  # atno 10763 bound_to 10752
  154.8189  135.3328  154.7098 H   0  0  0  0  0  0  0  0  0  0  0  0  # atno 10764 bound_to 10752
  153.7537  135.6996  153.4996 H   0  0  0  0  0  0  0  0  0  0  0  0  # atno 10765 bound_to 10752
  141.1644  133.7383  156.8970 H   0  0  0  0  0  0  0  0  0  0  0  0  # atno 11005 bound_to 11000
  146.1920  139.5166  142.9799 LP  0  0  0  0  0  0  0  0  0  0  0  0  # atno 17320 bound_to 7965
  145.6217  141.0321  143.1911 LP  0  0  0  0  0  0  0  0  0  0  0  0  # atno 17321 bound_to 7965
  140.2595  143.3534  152.1336 LP  0  0  0  0  0  0  0  0  0  0  0  0  # atno 17342 bound_to 10162
  139.5131  144.6927  151.5715 LP  0  0  0  0  0  0  0  0  0  0  0  0  # atno 17343 bound_to 10162
  156.7847  130.4870  149.5395 LP  0  0  0  0  0  0  0  0  0  0  0  0  # atno 17370 bound_to 10713
  156.1279  130.6157  151.0290 LP  0  0  0  0  0  0  0  0  0  0  0  0  # atno 17371 bound_to 10713
  140.1609  134.9166  157.2713 LP  0  0  0  0  0  0  0  0  0  0  0  0  # atno 17394 bound_to 11000
  140.2612  134.3568  155.7406 LP  0  0  0  0  0  0  0  0  0  0  0  0  # atno 17395 bound_to 11000

$$$$
