AV-unprocessed.smi:49|AV-procd|sdf|470|dock3
  -GOLD-   2262016333D 1   1.00000     0.00000
 Structure written by MMmdl.
 28 29  0  0  0  0  0  0  0  0  2 V2000
  152.7534  142.6878  161.7783 C   0  0  0  0  0  0  0  0  0  0  0  0
  152.3062  143.4785  160.5437 C   0  0  0  0  0  0  0  0  0  0  0  0
  151.9417  142.5873  159.4028 C   0  0  0  0  0  0  0  0  0  0  0  0
  151.4422  143.0634  158.2224 N   0  0  0  0  0  0  0  0  0  0  0  0
  151.2425  141.9199  157.5699 C   0  0  0  0  0  0  0  0  0  0  0  0
  150.6848  141.7803  156.1849 C   0  0  1  0  0  0  0  0  0  0  0  0
  150.6367  140.3494  155.6478 C   0  0  0  0  0  0  0  0  0  0  0  0
  149.4203  140.3697  154.7233 C   0  0  2  0  0  0  0  0  0  0  0  0
  149.7954  140.8268  153.4392 O   0  0  0  0  0  0  0  0  0  0  0  0
  148.4657  141.3819  155.3774 C   0  0  0  0  0  0  0  0  0  0  0  0
  149.2802  142.2231  156.2788 N   0  3  0  0  0  0  0  0  0  0  0  0
  151.5771  140.8549  158.3022 N   0  0  0  0  0  0  0  0  0  0  0  0
  152.0312  141.2625  159.5057 N   0  0  0  0  0  0  0  0  0  0  0  0
  151.2137  142.4343  155.4898 H   0  0  0  0  0  0  0  0  0  0  0  0
  148.9641  139.3842  154.6231 H   0  0  0  0  0  0  0  0  0  0  0  0
  151.5094  139.8811  158.0413 H   0  0  0  0  0  0  0  0  0  0  0  0
  153.0124  143.3596  162.5966 H   0  0  0  0  0  0  0  0  0  0  0  0
  153.6301  142.0776  161.5588 H   0  0  0  0  0  0  0  0  0  0  0  0
  151.9620  142.0246  162.1290 H   0  0  0  0  0  0  0  0  0  0  0  0
  151.4485  144.1032  160.7957 H   0  0  0  0  0  0  0  0  0  0  0  0
  153.1011  144.1568  160.2305 H   0  0  0  0  0  0  0  0  0  0  0  0
  151.5634  140.0367  155.1651 H   0  0  0  0  0  0  0  0  0  0  0  0
  150.4393  139.6529  156.4644 H   0  0  0  0  0  0  0  0  0  0  0  0
  149.5343  140.1812  152.7995 H   0  0  0  0  0  0  0  0  0  0  0  0
  147.9265  141.9880  154.6481 H   0  0  0  0  0  0  0  0  0  0  0  0
  147.7244  140.8626  155.9854 H   0  0  0  0  0  0  0  0  0  0  0  0
  148.9620  142.0788  157.2270 H   0  0  0  0  0  0  0  0  0  0  0  0
  149.2005  143.2006  156.0376 H   0  0  0  0  0  0  0  0  0  0  0  0
  1  2  1  0  0  0  0
  1 17  1  0  0  0  0
  1 18  1  0  0  0  0
  1 19  1  0  0  0  0
  2 20  1  0  0  0  0
  2 21  1  0  0  0  0
  2  3  1  0  0  0  0
  3  4  1  0  0  0  0
  3 13  2  0  0  0  0
  4  5  2  0  0  0  0
  5  6  1  0  0  0  0
  5 12  1  0  0  0  0
  6 14  1  0  0  0  0
  6 11  1  0  0  0  0
  6  7  1  0  0  0  0
  7  8  1  0  0  0  0
  7 22  1  0  0  0  0
  7 23  1  0  0  0  0
  8 15  1  0  0  0  0
  8  9  1  0  0  0  0
  8 10  1  0  0  0  0
  9 24  1  0  0  0  0
 10 11  1  0  0  0  0
 10 25  1  0  0  0  0
 10 26  1  0  0  0  0
 11 27  1  0  0  0  0
 11 28  1  0  0  0  0
 12 13  1  0  0  0  0
 12 16  1  0  0  0  0
M  CHG  1  11   1
M  END
> <s_m_source_file>
AV-unprocessed.smi

> <i_m_source_file_index>
49

> <i_lp_mmshare_version>
43012

> <i_f3d_flags>
0

> <s_epik_input>
W0NIM11bQ0gyXWMxbmMobltuSF0xKVtDQEBIXTJbQ0gyXVtDQEBIXShbT0hdKVtDSDJdW05IXTI=

> <s_epik_cmdline>
J2VwaWtfcHl0aG9uJywgJy1waCcsICc3LjAnLCAnLXRuJywgJzgnLCAnLW1hJywgJzIwMCcsICctbWV0YWxfYmluZGluZycsICctaW1hZScsICc8aW5maWxlLm1hZT4nLCAnLW9tYWUnLCAnPG91dGZpbGUubWFlPic=

> <r_epik_Ionization_Penalty>
0.372103

> <r_epik_Ionization_Penalty_Charging>
0.0688988

> <r_epik_Ionization_Penalty_Neutral>
0.303204

> <r_epik_State_Penalty>
0.737493

> <r_epik_Charging_Adjusted_Penalty>
0.806392

> <i_epik_Tot_Q>
1

> <i_epik_Tot_abs_Q>
1

> <r_epik_Metal_State_Penalty>
1.01235

> <b_epik_Metal_Only>
0

> <s_lp_Force_Field>
OPLS_2005

> <r_lp_Energy>
18.6675

> <b_lp_Chiralities_Consistent>
1

> <s_lp_Variant>
AV-unprocessed.smi:49-8

> <Gold.Version>
5.8.1

> <Gold.Id.Protein>
6NUR|6NUR_protein|mol2

> <Gold.PLP.Fitness>
40.3706

> <Gold.PLP.PLP>
-28.3923

> <Gold.PLP.part.hbond>
-3.2041

> <Gold.PLP.part.metal>
0.0000

> <Gold.PLP.part.buried>
-3.6557

> <Gold.PLP.part.nonpolar>
-21.1342

> <Gold.PLP.part.repulsive>
0.2423

> <Gold.PLP.ligand.clash>
0.0000

> <Gold.PLP.ligand.torsion>
0.0815

> <Gold.PLP.Chemscore.Hbond>
4.0400

> <Gold.PLP.Chemscore.CHOScore>
0.0000

> <Gold.PLP.Chemscore.Metal>
0.0000

> <Gold.Chemscore.Hbonds>
donor molecule, donor type, donor heavy atom, donor atom, acceptor molecule, acceptor atom, score
      L1  H     9    24       P1  7957  0.72
      L1  H    11    28       P1  8028  2.00
      P1  H  7989  7998       L1     9  0.30
      P1  H  8011  8017       L1     9  1.00

> <Gold.PLP.Chemscore.Internal.Correction>
0.0212

> <Gold.Rescore>
     Score         DG    S(hbond)    S(metal)    S(lipo)     H(rot)  DE(clash)    DE(int)     intcor
     14.08     -14.09       2.31        0.00      48.92       1.89       0.00       0.02       ----

> <Gold.Chemscore.Fitness>
14.0762

> <Gold.Chemscore.DG>
-14.0947

> <Gold.Chemscore.ZeroCoef>
-5.4800

> <Gold.Chemscore.Hbond>
2.3129

> <Gold.Chemscore.Metal>
0.0000

> <Gold.Chemscore.Lipo>
48.9209

> <Gold.Chemscore.Internal_Hbond>
0.0000

> <Gold.Chemscore.DEClash>
0.0000

> <Gold.Chemscore.DEInternal>
0.0185

> <Gold.Chemscore.Rot>
1.8883

> <Gold.Chemscore.Internal.Correction>
   9.000000E+99

> <Gold.Chemscore.Hbonds>
donor molecule, donor type, donor heavy atom, donor atom, acceptor molecule, acceptor atom, score
      L1  H     9    24       P1  7957  0.72
      L1  H    11    28       P1  8028  0.98
      P1  H  7989  7998       L1     9  0.12
      P1  H  8011  8017       L1     9  0.25

> <Gold.Chemscore.Hbond.Weighted>
-7.7250

> <Gold.Chemscore.Metal.Weighted>
-0.0000

> <Gold.Chemscore.Lipo.Weighted>
-5.7237

> <Gold.Chemscore.Internal_Hbond.Weighted>
0.0000

> <Gold.Chemscore.DEClash.Weighted>
0.0000

> <Gold.Chemscore.DEInternal.Weighted>
0.0185

> <Gold.Chemscore.Rot.Weighted>
4.8340

> <Gold.Chemscore.Internal.Correction.Weighted>
   9.000000E+99

> <Gold.Protein.RotatedTorsions>
[ 6907 6896 6895 6894 ] final   71.12 input  -60.11 | X-H torsion
[ 7974 7965 7964 7962 ] final  -89.61 input  175.53 | X-H torsion
[ 8008 7997 7996 7995 ] final  -85.61 input   59.86 | X-H torsion
[ 10167 10162 10161 10158 ] final   44.87 input  -65.29 | X-H torsion
[ 10718 10713 10712 10709 ] final  -43.19 input   66.30 | X-H torsion
[ 10763 10752 10751 10750 ] final   51.44 input  -60.55 | X-H torsion
[ 11005 11000 10999 10996 ] final  -18.35 input  -57.11 | X-H torsion

> <Gold.Protein.ActiveResidues>
 VAL166  LYS551  ARG553  GLY616  TRP617  ASP618  TYR619  PRO620  LYS621  CYS622 
 ASP623  PHE694  ASN695  SER759  ASP760  ASP761  ALA762  ILE779  LEU786  VAL792 
 PHE793  MET794  SER795  GLU796  ALA797  LYS798  CYS799  TRP800  GLU811  SER814 

> <Gold.Protein.RotatedAtoms>
  152.4791  134.4767  159.9652 H   0  0  0  0  0  0  0  0  0  0  0  0  # atno 6907 bound_to 6896
  151.4777  133.3548  159.2841 H   0  0  0  0  0  0  0  0  0  0  0  0  # atno 6908 bound_to 6896
  150.8850  134.8272  159.7313 H   0  0  0  0  0  0  0  0  0  0  0  0  # atno 6909 bound_to 6896
  145.4375  140.9558  143.2094 H   0  0  0  0  0  0  0  0  0  0  0  0  # atno 7974 bound_to 7965
  154.6426  140.0589  156.9863 H   0  0  0  0  0  0  0  0  0  0  0  0  # atno 8008 bound_to 7997
  155.1493  140.3272  155.4416 H   0  0  0  0  0  0  0  0  0  0  0  0  # atno 8009 bound_to 7997
  156.2538  140.1950  156.6606 H   0  0  0  0  0  0  0  0  0  0  0  0  # atno 8010 bound_to 7997
  140.3299  144.2602  150.6169 H   0  0  0  0  0  0  0  0  0  0  0  0  # atno 10167 bound_to 10162
  156.2516  130.4188  149.8643 H   0  0  0  0  0  0  0  0  0  0  0  0  # atno 10718 bound_to 10713
  152.9785  135.5845  154.4416 H   0  0  0  0  0  0  0  0  0  0  0  0  # atno 10763 bound_to 10752
  154.4017  135.2769  155.2094 H   0  0  0  0  0  0  0  0  0  0  0  0  # atno 10764 bound_to 10752
  154.3923  135.6122  153.5904 H   0  0  0  0  0  0  0  0  0  0  0  0  # atno 10765 bound_to 10752
  140.8259  133.8033  155.9708 H   0  0  0  0  0  0  0  0  0  0  0  0  # atno 11005 bound_to 11000
  144.8143  139.5905  143.7015 LP  0  0  0  0  0  0  0  0  0  0  0  0  # atno 17320 bound_to 7965
  146.2574  139.6333  142.9385 LP  0  0  0  0  0  0  0  0  0  0  0  0  # atno 17321 bound_to 7965
  140.5407  143.2224  151.8090 LP  0  0  0  0  0  0  0  0  0  0  0  0  # atno 17342 bound_to 10162
  139.4858  144.4604  151.9548 LP  0  0  0  0  0  0  0  0  0  0  0  0  # atno 17343 bound_to 10162
  156.6190  130.8618  151.3471 LP  0  0  0  0  0  0  0  0  0  0  0  0  # atno 17370 bound_to 10713
  157.7216  130.9567  150.1463 LP  0  0  0  0  0  0  0  0  0  0  0  0  # atno 17371 bound_to 10713
  140.9049  134.2332  157.5020 LP  0  0  0  0  0  0  0  0  0  0  0  0  # atno 17394 bound_to 11000
  139.8706  134.9724  156.4771 LP  0  0  0  0  0  0  0  0  0  0  0  0  # atno 17395 bound_to 11000

$$$$
