AV-unprocessed.smi:703|AV-procd|sdf|3430|dock10
  -GOLD-   22720 0413D 1   1.00000     0.00000
 Structure written by MMmdl.
 38 39  0  0  0  0  0  0  0  0  2 V2000
  146.7027  144.3341  161.5230 C   0  0  0  0  0  0  0  0  0  0  0  0
  146.7228  144.9530  160.1189 C   0  0  0  0  0  0  0  0  0  0  0  0
  147.9888  144.6735  159.4017 N   0  3  1  0  0  0  0  0  0  0  0  0
  149.2131  145.1314  160.0853 C   0  0  0  0  0  0  0  0  0  0  0  0
  150.3545  144.4025  159.3727 C   0  0  1  0  0  0  0  0  0  0  0  0
  151.6087  144.2239  160.2386 C   0  0  0  0  0  0  0  0  0  0  0  0
  149.7253  143.0781  158.9015 C   0  0  2  0  0  0  0  0  0  0  0  0
  150.0433  142.8340  157.4912 N   0  0  0  0  0  0  0  0  0  0  0  0
  149.9067  141.2250  156.8875 S   0  0  0  0  0  0  0  0  0  0  0  0
  149.5554  140.3558  158.0209 O   0  0  0  0  0  0  0  0  0  0  0  0
  149.0366  141.2748  155.7029 O   0  0  0  0  0  0  0  0  0  0  0  0
  151.6308  140.8432  156.3608 C   0  0  0  0  0  0  0  0  0  0  0  0
  151.7104  139.4188  155.8900 C   0  0  0  0  0  0  0  0  0  0  0  0
  150.7955  138.7066  155.0659 C   0  0  0  0  0  0  0  0  0  0  0  0
  151.3603  137.4684  154.9592 C   0  0  0  0  0  0  0  0  0  0  0  0
  152.5261  137.4165  155.6515 O   0  0  0  0  0  0  0  0  0  0  0  0
  152.7418  138.6672  156.2412 N   0  0  0  0  0  0  0  0  0  0  0  0
  148.2096  143.2452  159.0991 C   0  0  0  0  0  0  0  0  0  0  0  0
  145.7914  144.6124  162.0527 H   0  0  0  0  0  0  0  0  0  0  0  0
  147.5491  144.6779  162.1185 H   0  0  0  0  0  0  0  0  0  0  0  0
  146.7376  143.2452  161.4847 H   0  0  0  0  0  0  0  0  0  0  0  0
  145.8729  144.5978  159.5343 H   0  0  0  0  0  0  0  0  0  0  0  0
  146.6095  146.0338  160.2122 H   0  0  0  0  0  0  0  0  0  0  0  0
  149.3263  146.2148  160.0388 H   0  0  0  0  0  0  0  0  0  0  0  0
  149.1736  144.8392  161.1363 H   0  0  0  0  0  0  0  0  0  0  0  0
  150.6245  145.0015  158.5008 H   0  0  0  0  0  0  0  0  0  0  0  0
  151.3948  143.6417  161.1356 H   0  0  0  0  0  0  0  0  0  0  0  0
  152.0075  145.1884  160.5540 H   0  0  0  0  0  0  0  0  0  0  0  0
  152.3923  143.7058  159.6850 H   0  0  0  0  0  0  0  0  0  0  0  0
  150.0753  142.2408  159.5079 H   0  0  0  0  0  0  0  0  0  0  0  0
  149.5692  143.4981  156.8794 H   0  0  0  0  0  0  0  0  0  0  0  0
  151.9126  141.5342  155.5668 H   0  0  0  0  0  0  0  0  0  0  0  0
  152.2945  141.0190  157.2079 H   0  0  0  0  0  0  0  0  0  0  0  0
  149.8702  139.0488  154.6268 H   0  0  0  0  0  0  0  0  0  0  0  0
  151.0698  136.5612  154.4503 H   0  0  0  0  0  0  0  0  0  0  0  0
  147.8904  142.6403  159.9498 H   0  0  0  0  0  0  0  0  0  0  0  0
  147.6215  142.9308  158.2357 H   0  0  0  0  0  0  0  0  0  0  0  0
  147.9534  145.1519  158.5129 H   0  0  0  0  0  0  0  0  0  0  0  0
  1  2  1  0  0  0  0
  1 19  1  0  0  0  0
  1 20  1  0  0  0  0
  1 21  1  0  0  0  0
  2  3  1  0  0  0  0
  2 22  1  0  0  0  0
  2 23  1  0  0  0  0
  3 18  1  0  0  0  0
  3  4  1  0  0  0  0
  3 38  1  0  0  0  0
  4  5  1  0  0  0  0
  4 24  1  0  0  0  0
  4 25  1  0  0  0  0
  5  6  1  0  0  0  0
  5  7  1  0  0  0  0
  5 26  1  0  0  0  0
  6 27  1  0  0  0  0
  6 28  1  0  0  0  0
  6 29  1  0  0  0  0
  7  8  1  0  0  0  0
  7 18  1  0  0  0  0
  7 30  1  0  0  0  0
  8  9  1  0  0  0  0
  8 31  1  0  0  0  0
  9 10  2  0  0  0  0
  9 11  2  0  0  0  0
  9 12  1  0  0  0  0
 12 13  1  0  0  0  0
 12 32  1  0  0  0  0
 12 33  1  0  0  0  0
 13 17  2  0  0  0  0
 13 14  1  0  0  0  0
 14 15  2  0  0  0  0
 14 34  1  0  0  0  0
 15 16  1  0  0  0  0
 15 35  1  0  0  0  0
 16 17  1  0  0  0  0
 18 36  1  0  0  0  0
 18 37  1  0  0  0  0
M  CHG  1   3   1
M  END
> <s_m_source_file>
AV-unprocessed.smi

> <i_m_source_file_index>
703

> <i_lp_mmshare_version>
43012

> <i_f3d_flags>
0

> <s_epik_input>
W0NIM11bQ0gyXU4xW0NIMl1bQ0BASF0oW0NIM10pW0NASF0oW0NIMl0xKVtOSF1TKD1PKSg9TylbQ0gyXWMyW2NIXVtjSF1vbjI=

> <s_epik_cmdline>
J2VwaWtfcHl0aG9uJywgJy1waCcsICc3LjAnLCAnLXRuJywgJzgnLCAnLW1hJywgJzIwMCcsICctbWV0YWxfYmluZGluZycsICctaW1hZScsICc8aW5maWxlLm1hZT4nLCAnLW9tYWUnLCAnPG91dGZpbGUubWFlPic=

> <r_epik_Ionization_Penalty>
0.00324529

> <r_epik_Ionization_Penalty_Charging>
0.0019384

> <r_epik_Ionization_Penalty_Neutral>
0.00130689

> <r_epik_State_Penalty>
0.00218682

> <r_epik_Charging_Adjusted_Penalty>
0.00412522

> <i_epik_Tot_Q>
1

> <i_epik_Tot_abs_Q>
1

> <r_epik_Metal_State_Penalty>
0.310831

> <b_epik_Metal_Only>
0

> <s_lp_Force_Field>
OPLS_2005

> <r_lp_Energy>
19.0456

> <b_lp_Chiralities_Consistent>
1

> <s_lp_Variant>
AV-unprocessed.smi:703-5

> <Gold.Version>
5.8.1

> <Gold.Id.Protein>
6NUR|6NUR_protein|mol2

> <Gold.PLP.Fitness>
46.1877

> <Gold.PLP.PLP>
-31.3816

> <Gold.PLP.part.hbond>
-4.0000

> <Gold.PLP.part.metal>
0.0000

> <Gold.PLP.part.buried>
-5.9088

> <Gold.PLP.part.nonpolar>
-22.6452

> <Gold.PLP.part.repulsive>
0.2950

> <Gold.PLP.ligand.clash>
0.0000

> <Gold.PLP.ligand.torsion>
0.5449

> <Gold.PLP.Chemscore.Hbond>
4.2458

> <Gold.PLP.Chemscore.CHOScore>
0.9996

> <Gold.PLP.Chemscore.Metal>
0.0000

> <Gold.Chemscore.Hbonds>
donor molecule, donor type, donor heavy atom, donor atom, acceptor molecule, acceptor atom, score
      L1  H     3    38       P1  8029  1.69
      L1  H     8    31       P1  8028  1.00
      P1  H  7997  8008       L1    17  0.70
      P1  H 10752 10764       L1    16  0.22

> <Gold.PLP.Chemscore.Internal.Correction>
0.1596

> <Gold.Rescore>
     Score         DG    S(hbond)    S(metal)    S(lipo)     H(rot)  DE(clash)    DE(int)     intcor
     17.22     -17.99       2.74        0.00      71.29       1.94       0.25       0.52       ----

> <Gold.Chemscore.Fitness>
17.2199

> <Gold.Chemscore.DG>
-17.9918

> <Gold.Chemscore.ZeroCoef>
-5.4800

> <Gold.Chemscore.Hbond>
2.7357

> <Gold.Chemscore.Metal>
0.0000

> <Gold.Chemscore.Lipo>
71.2924

> <Gold.Chemscore.Internal_Hbond>
0.0000

> <Gold.Chemscore.DEClash>
0.2506

> <Gold.Chemscore.DEInternal>
0.5213

> <Gold.Chemscore.Rot>
1.9400

> <Gold.Chemscore.Internal.Correction>
   9.000000E+99

> <Gold.Chemscore.Hbonds>
donor molecule, donor type, donor heavy atom, donor atom, acceptor molecule, acceptor atom, score
      L1  H     3    38       P1  8029  0.82
      L1  H     8    31       P1  8028  0.98
      P1  H  7997  8008       L1    17  0.27
      P1  H 10752 10764       L1    16  0.01

> <Gold.Chemscore.Hbond.Weighted>
-9.1371

> <Gold.Chemscore.Metal.Weighted>
-0.0000

> <Gold.Chemscore.Lipo.Weighted>
-8.3412

> <Gold.Chemscore.Internal_Hbond.Weighted>
0.0000

> <Gold.Chemscore.DEClash.Weighted>
0.2506

> <Gold.Chemscore.DEInternal.Weighted>
0.5213

> <Gold.Chemscore.Rot.Weighted>
4.9665

> <Gold.Chemscore.Internal.Correction.Weighted>
   9.000000E+99

> <Gold.Protein.RotatedTorsions>
[ 6907 6896 6895 6894 ] final   95.99 input  -60.11 | X-H torsion
[ 7974 7965 7964 7962 ] final   17.66 input  175.53 | X-H torsion
[ 8008 7997 7996 7995 ] final  -47.67 input   59.86 | X-H torsion
[ 10167 10162 10161 10158 ] final   -5.43 input  -65.29 | X-H torsion
[ 10718 10713 10712 10709 ] final  -33.70 input   66.30 | X-H torsion
[ 10763 10752 10751 10750 ] final  -56.11 input  -60.55 | X-H torsion
[ 11005 11000 10999 10996 ] final   56.33 input  -57.11 | X-H torsion

> <Gold.Protein.ActiveResidues>
 VAL166  LYS551  ARG553  GLY616  TRP617  ASP618  TYR619  PRO620  LYS621  CYS622 
 ASP623  PHE694  ASN695  SER759  ASP760  ASP761  ALA762  ILE779  LEU786  VAL792 
 PHE793  MET794  SER795  GLU796  ALA797  LYS798  CYS799  TRP800  GLU811  SER814 

> <Gold.Protein.RotatedAtoms>
  152.5439  134.0954  159.8294 H   0  0  0  0  0  0  0  0  0  0  0  0  # atno 6907 bound_to 6896
  151.1039  133.5216  159.2616 H   0  0  0  0  0  0  0  0  0  0  0  0  # atno 6908 bound_to 6896
  151.1960  135.0432  159.8907 H   0  0  0  0  0  0  0  0  0  0  0  0  # atno 6909 bound_to 6896
  146.2211  139.8569  142.8612 H   0  0  0  0  0  0  0  0  0  0  0  0  # atno 7974 bound_to 7965
  154.4019  140.1340  156.4213 H   0  0  0  0  0  0  0  0  0  0  0  0  # atno 8008 bound_to 7997
  155.7640  140.3485  155.5192 H   0  0  0  0  0  0  0  0  0  0  0  0  # atno 8009 bound_to 7997
  155.8831  140.0991  157.1461 H   0  0  0  0  0  0  0  0  0  0  0  0  # atno 8010 bound_to 7997
  140.6962  143.6310  150.8523 H   0  0  0  0  0  0  0  0  0  0  0  0  # atno 10167 bound_to 10162
  156.3595  130.4321  149.7636 H   0  0  0  0  0  0  0  0  0  0  0  0  # atno 10718 bound_to 10713
  154.2014  135.6410  153.5088 H   0  0  0  0  0  0  0  0  0  0  0  0  # atno 10763 bound_to 10752
  153.0011  135.5452  154.6311 H   0  0  0  0  0  0  0  0  0  0  0  0  # atno 10764 bound_to 10752
  154.5725  135.2918  155.0786 H   0  0  0  0  0  0  0  0  0  0  0  0  # atno 10765 bound_to 10752
  140.0538  134.5700  155.9232 H   0  0  0  0  0  0  0  0  0  0  0  0  # atno 11005 bound_to 11000
  145.2744  141.0119  143.3753 LP  0  0  0  0  0  0  0  0  0  0  0  0  # atno 17320 bound_to 7965
  144.9199  139.4425  143.6546 LP  0  0  0  0  0  0  0  0  0  0  0  0  # atno 17321 bound_to 7965
  140.0028  143.5726  152.2869 LP  0  0  0  0  0  0  0  0  0  0  0  0  # atno 17342 bound_to 10162
  139.6421  144.7655  151.2317 LP  0  0  0  0  0  0  0  0  0  0  0  0  # atno 17343 bound_to 10162
  156.4805  130.8039  151.3053 LP  0  0  0  0  0  0  0  0  0  0  0  0  # atno 17370 bound_to 10713
  157.7471  131.0007  150.2936 LP  0  0  0  0  0  0  0  0  0  0  0  0  # atno 17371 bound_to 10713
  141.1942  133.6582  156.5586 LP  0  0  0  0  0  0  0  0  0  0  0  0  # atno 17394 bound_to 11000
  140.3876  134.7468  157.4701 LP  0  0  0  0  0  0  0  0  0  0  0  0  # atno 17395 bound_to 11000

$$$$
