AV-unprocessed.smi:3154|AV-procd|sdf|12022|dock8
  -GOLD-   2272017433D 1   1.00000     0.00000
 Structure written by MMmdl.
 35 36  0  0  0  0  0  0  0  0  2 V2000
  145.9049  133.2703  154.1291 C   0  0  0  0  0  0  0  0  0  0  0  0
  146.8788  133.8080  153.0669 C   0  0  1  0  0  0  0  0  0  0  0  0
  146.1466  134.4430  151.8618 C   0  0  0  0  0  0  0  0  0  0  0  0
  145.3538  133.4857  151.1115 N   0  0  0  0  0  0  0  0  0  0  0  0
  145.7836  132.3959  150.3834 C   0  0  0  0  0  0  0  0  0  0  0  0
  144.6743  131.7910  149.8657 C   0  0  0  0  0  0  0  0  0  0  0  0
  143.5985  132.5897  150.3448 C   0  0  0  0  0  0  0  0  0  0  0  0
  144.0085  133.6013  151.0932 N   0  0  0  0  0  0  0  0  0  0  0  0
  147.8058  134.7730  153.6986 N   0  3  0  0  0  0  0  0  0  0  0  0
  149.0032  134.1820  154.3366 C   0  0  0  0  0  0  0  0  0  0  0  0
  149.7797  135.2040  155.1693 C   0  0  0  0  0  0  0  0  0  0  0  0
  150.1549  134.9309  156.3104 O   0  0  0  0  0  0  0  0  0  0  0  0
  150.0121  136.3848  154.5776 N   0  0  0  0  0  0  0  0  0  0  0  0
  150.7159  137.4807  155.1615 C   0  0  0  0  0  0  0  0  0  0  0  0
  150.6182  138.8254  154.4737 C   0  0  0  0  0  0  0  0  0  0  0  0
  151.8991  138.0407  154.4017 C   0  0  0  0  0  0  0  0  0  0  0  0
  145.2672  132.4821  153.7279 H   0  0  0  0  0  0  0  0  0  0  0  0
  145.2570  134.0607  154.5098 H   0  0  0  0  0  0  0  0  0  0  0  0
  146.4444  132.8452  154.9760 H   0  0  0  0  0  0  0  0  0  0  0  0
  147.4717  132.9621  152.7156 H   0  0  0  0  0  0  0  0  0  0  0  0
  145.4864  135.2423  152.2020 H   0  0  0  0  0  0  0  0  0  0  0  0
  146.8542  134.8985  151.1690 H   0  0  0  0  0  0  0  0  0  0  0  0
  146.8303  132.1449  150.2928 H   0  0  0  0  0  0  0  0  0  0  0  0
  144.6364  130.9101  149.2421 H   0  0  0  0  0  0  0  0  0  0  0  0
  142.5395  132.4642  150.1736 H   0  0  0  0  0  0  0  0  0  0  0  0
  148.0985  135.4528  153.0114 H   0  0  0  0  0  0  0  0  0  0  0  0
  148.7018  133.3580  154.9848 H   0  0  0  0  0  0  0  0  0  0  0  0
  149.6704  133.7756  153.5766 H   0  0  0  0  0  0  0  0  0  0  0  0
  149.6654  136.5211  153.6389 H   0  0  0  0  0  0  0  0  0  0  0  0
  150.7935  137.5046  156.2477 H   0  0  0  0  0  0  0  0  0  0  0  0
  150.0195  138.8926  153.5671 H   0  0  0  0  0  0  0  0  0  0  0  0
  150.6078  139.7121  155.1044 H   0  0  0  0  0  0  0  0  0  0  0  0
  152.7434  138.4025  154.9854 H   0  0  0  0  0  0  0  0  0  0  0  0
  152.1551  137.5854  153.4466 H   0  0  0  0  0  0  0  0  0  0  0  0
  147.2962  135.2576  154.4237 H   0  0  0  0  0  0  0  0  0  0  0  0
  1  2  1  0  0  0  0
  1 17  1  0  0  0  0
  1 18  1  0  0  0  0
  1 19  1  0  0  0  0
  2  3  1  0  0  0  0
  2  9  1  0  0  0  0
  2 20  1  0  0  0  0
  3  4  1  0  0  0  0
  3 21  1  0  0  0  0
  3 22  1  0  0  0  0
  4  8  1  0  0  0  0
  4  5  1  0  0  0  0
  5  6  2  0  0  0  0
  5 23  1  0  0  0  0
  6  7  1  0  0  0  0
  6 24  1  0  0  0  0
  7  8  2  0  0  0  0
  7 25  1  0  0  0  0
  9 10  1  0  0  0  0
  9 26  1  0  0  0  0
  9 35  1  0  0  0  0
 10 11  1  0  0  0  0
 10 27  1  0  0  0  0
 10 28  1  0  0  0  0
 11 12  2  0  0  0  0
 11 13  1  0  0  0  0
 13 14  1  0  0  0  0
 13 29  1  0  0  0  0
 14 16  1  0  0  0  0
 14 15  1  0  0  0  0
 14 30  1  0  0  0  0
 15 16  1  0  0  0  0
 15 31  1  0  0  0  0
 15 32  1  0  0  0  0
 16 33  1  0  0  0  0
 16 34  1  0  0  0  0
M  CHG  1   9   1
M  END
> <s_m_source_file>
AV-unprocessed.smi

> <i_m_source_file_index>
3154

> <i_lp_mmshare_version>
43012

> <i_f3d_flags>
0

> <s_epik_input>
bjFbY0hdW2NIXVtjSF1uMVtDSDJdW0NAQEhdKFtDSDNdKVtOSF1bQ0gyXUMoPU8pW05IXVtDSF0yW0NIMl1bQ0gyXTI=

> <s_epik_cmdline>
J2VwaWtfcHl0aG9uJywgJy1waCcsICc3LjAnLCAnLXRuJywgJzgnLCAnLW1hJywgJzIwMCcsICctbWV0YWxfYmluZGluZycsICctaW1hZScsICc8aW5maWxlLm1hZT4nLCAnLW9tYWUnLCAnPG91dGZpbGUubWFlPic=

> <r_lp_tautomer_probability>
1

> <r_epik_Ionization_Penalty>
0.12065

> <r_epik_Ionization_Penalty_Charging>
0.120646

> <r_epik_Ionization_Penalty_Neutral>
4.1343e-06

> <r_epik_State_Penalty>
0.110186

> <r_epik_Charging_Adjusted_Penalty>
0.230832

> <i_epik_Tot_Q>
1

> <i_epik_Tot_abs_Q>
1

> <r_epik_Metal_State_Penalty>
0.110197

> <b_epik_Metal_Only>
0

> <s_lp_Force_Field>
OPLS_2005

> <r_lp_Energy>
15.3554

> <b_lp_Chiralities_Consistent>
1

> <s_lp_Variant>
AV-unprocessed.smi:3154-2

> <Gold.Version>
5.8.1

> <Gold.Id.Protein>
6NUR|6NUR_protein|mol2

> <Gold.PLP.Fitness>
43.4407

> <Gold.PLP.PLP>
-28.9992

> <Gold.PLP.part.hbond>
-2.1370

> <Gold.PLP.part.metal>
0.0000

> <Gold.PLP.part.buried>
-3.4987

> <Gold.PLP.part.nonpolar>
-24.3451

> <Gold.PLP.part.repulsive>
0.2239

> <Gold.PLP.ligand.clash>
0.0000

> <Gold.PLP.ligand.torsion>
0.6410

> <Gold.PLP.Chemscore.Hbond>
3.0000

> <Gold.PLP.Chemscore.CHOScore>
2.2164

> <Gold.PLP.Chemscore.Metal>
0.0000

> <Gold.Chemscore.Hbonds>
donor molecule, donor type, donor heavy atom, donor atom, acceptor molecule, acceptor atom, score
      L1  H     9    26       P1  7948  2.00
      L1  H    13    29       P1  7948  1.00
      L1  C     5    23       P1 10747  1.00
      L1  C     7    25       P1 10186  0.81
      L1  C     7    25       P1 10952  0.37

> <Gold.PLP.Chemscore.Internal.Correction>
0.0743

> <Gold.Rescore>
     Score         DG    S(hbond)    S(metal)    S(lipo)     H(rot)  DE(clash)    DE(int)     intcor
     13.64     -14.36       1.90        0.00      69.89       2.20       0.03       0.69       ----

> <Gold.Chemscore.Fitness>
13.6369

> <Gold.Chemscore.DG>
-14.3605

> <Gold.Chemscore.ZeroCoef>
-5.4800

> <Gold.Chemscore.Hbond>
1.8999

> <Gold.Chemscore.Metal>
0.0000

> <Gold.Chemscore.Lipo>
69.8921

> <Gold.Chemscore.Internal_Hbond>
0.0000

> <Gold.Chemscore.DEClash>
0.0324

> <Gold.Chemscore.DEInternal>
0.6912

> <Gold.Chemscore.Rot>
2.2042

> <Gold.Chemscore.Internal.Correction>
   9.000000E+99

> <Gold.Chemscore.Hbonds>
donor molecule, donor type, donor heavy atom, donor atom, acceptor molecule, acceptor atom, score
      L1  H     9    26       P1  7948  0.99
      L1  H    13    29       P1  7948  0.55

> <Gold.Chemscore.Hbond.Weighted>
-6.3458

> <Gold.Chemscore.Metal.Weighted>
-0.0000

> <Gold.Chemscore.Lipo.Weighted>
-8.1774

> <Gold.Chemscore.Internal_Hbond.Weighted>
0.0000

> <Gold.Chemscore.DEClash.Weighted>
0.0324

> <Gold.Chemscore.DEInternal.Weighted>
0.6912

> <Gold.Chemscore.Rot.Weighted>
5.6427

> <Gold.Chemscore.Internal.Correction.Weighted>
   9.000000E+99

> <Gold.Protein.RotatedTorsions>
[ 6907 6896 6895 6894 ] final   95.34 input  -60.11 | X-H torsion
[ 7974 7965 7964 7962 ] final  -26.21 input  175.53 | X-H torsion
[ 8008 7997 7996 7995 ] final -146.62 input   59.86 | X-H torsion
[ 10167 10162 10161 10158 ] final -163.95 input  -65.29 | X-H torsion
[ 10718 10713 10712 10709 ] final   76.10 input   66.30 | X-H torsion
[ 10763 10752 10751 10750 ] final  114.34 input  -60.55 | X-H torsion
[ 11005 11000 10999 10996 ] final -157.21 input  -57.11 | X-H torsion

> <Gold.Protein.ActiveResidues>
 VAL166  LYS551  ARG553  GLY616  TRP617  ASP618  TYR619  PRO620  LYS621  CYS622 
 ASP623  PHE694  ASN695  SER759  ASP760  ASP761  ALA762  ILE779  LEU786  VAL792 
 PHE793  MET794  SER795  GLU796  ALA797  LYS798  CYS799  TRP800  GLU811  SER814 

> <Gold.Protein.RotatedAtoms>
  152.5444  134.1055  159.8335 H   0  0  0  0  0  0  0  0  0  0  0  0  # atno 6907 bound_to 6896
  151.1127  133.5153  159.2612 H   0  0  0  0  0  0  0  0  0  0  0  0  # atno 6908 bound_to 6896
  151.1866  135.0393  159.8869 H   0  0  0  0  0  0  0  0  0  0  0  0  # atno 6909 bound_to 6896
  146.1440  140.4990  142.8639 H   0  0  0  0  0  0  0  0  0  0  0  0  # atno 7974 bound_to 7965
  155.5623  140.0626  157.2826 H   0  0  0  0  0  0  0  0  0  0  0  0  # atno 8008 bound_to 7997
  154.4386  140.1883  156.0841 H   0  0  0  0  0  0  0  0  0  0  0  0  # atno 8009 bound_to 7997
  156.0437  140.3292  155.7276 H   0  0  0  0  0  0  0  0  0  0  0  0  # atno 8010 bound_to 7997
  139.6285  144.0486  152.1995 H   0  0  0  0  0  0  0  0  0  0  0  0  # atno 10167 bound_to 10162
  157.6660  130.9758  150.1449 H   0  0  0  0  0  0  0  0  0  0  0  0  # atno 10718 bound_to 10713
  153.5058  135.3628  155.2562 H   0  0  0  0  0  0  0  0  0  0  0  0  # atno 10763 bound_to 10752
  154.8745  135.4011  154.3426 H   0  0  0  0  0  0  0  0  0  0  0  0  # atno 10764 bound_to 10752
  153.4070  135.7076  153.6452 H   0  0  0  0  0  0  0  0  0  0  0  0  # atno 10765 bound_to 10752
  140.6671  134.4286  157.5233 H   0  0  0  0  0  0  0  0  0  0  0  0  # atno 11005 bound_to 11000
  144.7825  140.5869  143.6596 LP  0  0  0  0  0  0  0  0  0  0  0  0  # atno 17320 bound_to 7965
  145.4980  139.1485  143.3673 LP  0  0  0  0  0  0  0  0  0  0  0  0  # atno 17321 bound_to 7965
  140.0145  144.6199  150.7619 LP  0  0  0  0  0  0  0  0  0  0  0  0  # atno 17342 bound_to 10162
  140.7425  143.2833  151.3536 LP  0  0  0  0  0  0  0  0  0  0  0  0  # atno 17343 bound_to 10162
  156.2262  130.3678  149.8497 LP  0  0  0  0  0  0  0  0  0  0  0  0  # atno 17370 bound_to 10713
  156.6337  130.8676  151.3500 LP  0  0  0  0  0  0  0  0  0  0  0  0  # atno 17371 bound_to 10713
  139.8993  134.8593  156.1964 LP  0  0  0  0  0  0  0  0  0  0  0  0  # atno 17394 bound_to 11000
  141.0420  133.6933  156.1615 LP  0  0  0  0  0  0  0  0  0  0  0  0  # atno 17395 bound_to 11000

$$$$
