AV-unprocessed.smi:54|AV-procd|sdf|529|dock5
  -GOLD-   2262016403D 1   1.00000     0.00000
 Structure written by MMmdl.
 44 46  0  0  0  0  0  0  0  0  1 V2000
  152.8536  142.6873  159.8050 C   0  0  0  0  0  0  0  0  0  0  0  0
  152.1174  143.4780  158.7113 C   0  0  0  0  0  0  0  0  0  0  0  0
  151.5444  144.7936  159.2630 C   0  0  0  0  0  0  0  0  0  0  0  0
  151.0058  142.6287  158.0852 C   0  0  0  0  0  0  0  0  0  0  0  0
  150.0674  142.1893  158.7496 O   0  0  0  0  0  0  0  0  0  0  0  0
  151.1439  142.3691  156.6648 N   0  0  0  0  0  0  0  0  0  0  0  0
  150.2925  141.6752  155.8755 C   0  0  0  0  0  0  0  0  0  0  0  0
  150.5594  140.4615  155.4137 N   0  0  0  0  0  0  0  0  0  0  0  0
  149.5612  139.9038  154.6609 C   0  0  0  0  0  0  0  0  0  0  0  0
  148.3474  140.4863  154.3542 C   0  0  0  0  0  0  0  0  0  0  0  0
  147.5851  139.6290  153.5697 N   0  0  0  0  0  0  0  0  0  0  0  0
  148.3375  138.5741  153.4330 C   0  0  0  0  0  0  0  0  0  0  0  0
  149.5547  138.6562  154.0647 N   0  0  0  0  0  0  0  0  0  0  0  0
  150.6300  137.6179  154.0960 C   0  0  2  0  0  0  0  0  0  0  0  0
  150.0462  136.3918  154.4138 O   0  0  0  0  0  0  0  0  0  0  0  0
  150.8537  135.7051  155.3631 C   0  0  2  0  0  0  0  0  0  0  0  0
  149.9887  134.7151  156.1589 C   0  0  0  0  0  0  0  0  0  0  0  0
  150.8059  133.9014  156.9730 O   0  0  0  0  0  0  0  0  0  0  0  0
  151.4204  136.8481  156.2073 C   0  0  1  0  0  0  0  0  0  0  0  0
  152.5794  136.4774  156.9305 O   0  0  0  0  0  0  0  0  0  0  0  0
  151.6734  137.9442  155.1763 C   0  0  1  0  0  0  0  0  0  0  0  0
  152.9844  137.8892  154.6432 O   0  0  0  0  0  0  0  0  0  0  0  0
  148.0456  141.7996  154.8457 C   0  0  0  0  0  0  0  0  0  0  0  0
  147.0259  142.4631  154.6706 O   0  0  0  0  0  0  0  0  0  0  0  0
  149.0883  142.3277  155.6160 N   0  0  0  0  0  0  0  0  0  0  0  0
  151.0336  137.6057  153.0822 H   0  0  0  0  0  0  0  0  0  0  0  0
  151.6681  135.1957  154.8435 H   0  0  0  0  0  0  0  0  0  0  0  0
  150.6681  137.1951  156.9139 H   0  0  0  0  0  0  0  0  0  0  0  0
  151.5096  138.9380  155.5958 H   0  0  0  0  0  0  0  0  0  0  0  0
  153.2558  141.7513  159.4153 H   0  0  0  0  0  0  0  0  0  0  0  0
  152.1936  142.4446  160.6388 H   0  0  0  0  0  0  0  0  0  0  0  0
  153.6908  143.2613  160.2034 H   0  0  0  0  0  0  0  0  0  0  0  0
  152.8382  143.7251  157.9306 H   0  0  0  0  0  0  0  0  0  0  0  0
  151.0151  145.3513  158.4892 H   0  0  0  0  0  0  0  0  0  0  0  0
  152.3399  145.4361  159.6416 H   0  0  0  0  0  0  0  0  0  0  0  0
  150.8459  144.6162  160.0822 H   0  0  0  0  0  0  0  0  0  0  0  0
  151.9871  142.7148  156.2309 H   0  0  0  0  0  0  0  0  0  0  0  0
  148.0256  137.7085  152.8668 H   0  0  0  0  0  0  0  0  0  0  0  0
  149.3052  135.2542  156.8155 H   0  0  0  0  0  0  0  0  0  0  0  0
  149.3824  134.0965  155.4970 H   0  0  0  0  0  0  0  0  0  0  0  0
  151.2885  133.3091  156.4168 H   0  0  0  0  0  0  0  0  0  0  0  0
  152.7672  137.1557  157.5611 H   0  0  0  0  0  0  0  0  0  0  0  0
  152.9224  137.8742  153.7001 H   0  0  0  0  0  0  0  0  0  0  0  0
  148.9418  143.2491  156.0016 H   0  0  0  0  0  0  0  0  0  0  0  0
  1  2  1  0  0  0  0
  1 30  1  0  0  0  0
  1 31  1  0  0  0  0
  1 32  1  0  0  0  0
  2  3  1  0  0  0  0
  2  4  1  0  0  0  0
  2 33  1  0  0  0  0
  3 34  1  0  0  0  0
  3 35  1  0  0  0  0
  3 36  1  0  0  0  0
  4  5  2  0  0  0  0
  4  6  1  0  0  0  0
  6 37  1  0  0  0  0
  6  7  1  0  0  0  0
  7 25  1  0  0  0  0
  7  8  2  0  0  0  0
  8  9  1  0  0  0  0
  9 13  1  0  0  0  0
  9 10  2  0  0  0  0
 10 11  1  0  0  0  0
 10 23  1  0  0  0  0
 11 12  2  0  0  0  0
 12 13  1  0  0  0  0
 12 38  1  0  0  0  0
 13 14  1  0  0  0  0
 14 26  1  0  0  0  0
 14 21  1  0  0  0  0
 14 15  1  0  0  0  0
 15 16  1  0  0  0  0
 16 27  1  0  0  0  0
 16 17  1  0  0  0  0
 16 19  1  0  0  0  0
 17 18  1  0  0  0  0
 17 39  1  0  0  0  0
 17 40  1  0  0  0  0
 18 41  1  0  0  0  0
 19 28  1  0  0  0  0
 19 20  1  0  0  0  0
 19 21  1  0  0  0  0
 20 42  1  0  0  0  0
 21 29  1  0  0  0  0
 21 22  1  0  0  0  0
 22 43  1  0  0  0  0
 23 24  2  0  0  0  0
 23 25  1  0  0  0  0
 25 44  1  0  0  0  0
M  END
> <s_m_source_file>
AV-unprocessed.smi

> <i_m_source_file_index>
54

> <i_lp_mmshare_version>
43012

> <i_f3d_flags>
0

> <s_epik_input>
W0NIM11bQ0hdKFtDSDNdKUMoPU8pW05IXWMobjEpW25IXWMoPU8pYyhjMTIpbltjSF1uMltDQEBIXTNPW0NASF0oW0NIMl1bT0hdKVtDQEBIXShbT0hdKVtDQEhdM1tPSF0=

> <s_epik_cmdline>
J2VwaWtfcHl0aG9uJywgJy1waCcsICc3LjAnLCAnLXRuJywgJzgnLCAnLW1hJywgJzIwMCcsICctbWV0YWxfYmluZGluZycsICctaW1hZScsICc8aW5maWxlLm1hZT4nLCAnLW9tYWUnLCAnPG91dGZpbGUubWFlPic=

> <r_lp_tautomer_probability>
0.85571

> <r_epik_Ionization_Penalty>
0.0316551

> <r_epik_Ionization_Penalty_Charging>
0.0316043

> <r_epik_Ionization_Penalty_Neutral>
5.07097e-05

> <r_epik_State_Penalty>
3.15494e-07

> <r_epik_Charging_Adjusted_Penalty>
0.0316047

> <i_epik_Tot_Q>
0

> <i_epik_Tot_abs_Q>
0

> <r_epik_Metal_State_Penalty>
0.421206

> <b_epik_Metal_Only>
0

> <s_epik_Chemistry_Notes>
This compound contains an acetal/aminal-like group ( X-CH(R)-Y where X, Y are N, S, or O) that may be acid/base labile, releasing an aldehyde.

> <s_lp_Force_Field>
OPLS_2005

> <r_lp_Energy>
41.8927

> <b_lp_Chiralities_Consistent>
1

> <s_lp_Variant>
AV-unprocessed.smi:54-1

> <Gold.Version>
5.8.1

> <Gold.Id.Protein>
6NUR|6NUR_protein|mol2

> <Gold.PLP.Fitness>
45.4508

> <Gold.PLP.PLP>
-36.9273

> <Gold.PLP.part.hbond>
-4.3171

> <Gold.PLP.part.metal>
0.0000

> <Gold.PLP.part.buried>
-1.5797

> <Gold.PLP.part.nonpolar>
-33.5467

> <Gold.PLP.part.repulsive>
2.0166

> <Gold.PLP.ligand.clash>
0.0000

> <Gold.PLP.ligand.torsion>
1.0497

> <Gold.PLP.Chemscore.Hbond>
2.5787

> <Gold.PLP.Chemscore.CHOScore>
0.9532

> <Gold.PLP.Chemscore.Metal>
0.0000

> <Gold.Chemscore.Hbonds>
donor molecule, donor type, donor heavy atom, donor atom, acceptor molecule, acceptor atom, score
      L1  H    25    44       P1  8028  0.83
      P1  H  6896  6908       L1    18  0.26
      P1  H  7989  7998       L1     8  0.20
      P1  H 10752 10765       L1    20  0.60
      L1  C    12    38       P1  7948  0.93

> <Gold.PLP.Chemscore.Internal.Correction>
0.0272

> <Gold.Rescore>
     Score         DG    S(hbond)    S(metal)    S(lipo)     H(rot)  DE(clash)    DE(int)     intcor
      4.21      -7.02       1.27        0.00      65.56       4.05       0.17       2.64       ----

> <Gold.Chemscore.Fitness>
4.2053

> <Gold.Chemscore.DG>
-7.0191

> <Gold.Chemscore.ZeroCoef>
-5.4800

> <Gold.Chemscore.Hbond>
1.2680

> <Gold.Chemscore.Metal>
0.0000

> <Gold.Chemscore.Lipo>
65.5578

> <Gold.Chemscore.Internal_Hbond>
0.0000

> <Gold.Chemscore.DEClash>
0.1713

> <Gold.Chemscore.DEInternal>
2.6425

> <Gold.Chemscore.Rot>
4.0493

> <Gold.Chemscore.Internal.Correction>
   9.000000E+99

> <Gold.Chemscore.Hbonds>
donor molecule, donor type, donor heavy atom, donor atom, acceptor molecule, acceptor atom, score
      L1  H    25    44       P1  8028  0.78
      P1  H  6896  6908       L1    18  0.25
      P1  H 10752 10765       L1    20  0.13

> <Gold.Chemscore.Hbond.Weighted>
-4.2351

> <Gold.Chemscore.Metal.Weighted>
-0.0000

> <Gold.Chemscore.Lipo.Weighted>
-7.6703

> <Gold.Chemscore.Internal_Hbond.Weighted>
0.0000

> <Gold.Chemscore.DEClash.Weighted>
0.1713

> <Gold.Chemscore.DEInternal.Weighted>
2.6425

> <Gold.Chemscore.Rot.Weighted>
10.3662

> <Gold.Chemscore.Internal.Correction.Weighted>
   9.000000E+99

> <Gold.Protein.RotatedTorsions>
[ 6907 6896 6895 6894 ] final  100.64 input  -60.11 | X-H torsion
[ 7974 7965 7964 7962 ] final  -17.67 input  175.53 | X-H torsion
[ 8008 7997 7996 7995 ] final  108.45 input   59.86 | X-H torsion
[ 10167 10162 10161 10158 ] final  -59.77 input  -65.29 | X-H torsion
[ 10718 10713 10712 10709 ] final   72.02 input   66.30 | X-H torsion
[ 10763 10752 10751 10750 ] final -116.44 input  -60.55 | X-H torsion
[ 11005 11000 10999 10996 ] final   87.94 input  -57.11 | X-H torsion

> <Gold.Protein.ActiveResidues>
 VAL166  LYS551  ARG553  GLY616  TRP617  ASP618  TYR619  PRO620  LYS621  CYS622 
 ASP623  PHE694  ASN695  SER759  ASP760  ASP761  ALA762  ILE779  LEU786  VAL792 
 PHE793  MET794  SER795  GLU796  ALA797  LYS798  CYS799  TRP800  GLU811  SER814 

> <Gold.Protein.RotatedAtoms>
  152.5367  134.0245  159.7996 H   0  0  0  0  0  0  0  0  0  0  0  0  # atno 6907 bound_to 6896
  151.0426  133.5685  159.2657 H   0  0  0  0  0  0  0  0  0  0  0  0  # atno 6908 bound_to 6896
  151.2649  135.0673  159.9166 H   0  0  0  0  0  0  0  0  0  0  0  0  # atno 6909 bound_to 6896
  146.1929  140.3813  142.8451 H   0  0  0  0  0  0  0  0  0  0  0  0  # atno 7974 bound_to 7965
  156.1904  140.3076  155.9321 H   0  0  0  0  0  0  0  0  0  0  0  0  # atno 8008 bound_to 7997
  155.3187  140.0454  157.3055 H   0  0  0  0  0  0  0  0  0  0  0  0  # atno 8009 bound_to 7997
  154.5445  140.2272  155.8595 H   0  0  0  0  0  0  0  0  0  0  0  0  # atno 8010 bound_to 7997
  140.6114  143.2388  151.5700 H   0  0  0  0  0  0  0  0  0  0  0  0  # atno 10167 bound_to 10162
  157.6480  130.9558  150.0870 H   0  0  0  0  0  0  0  0  0  0  0  0  # atno 10718 bound_to 10713
  154.8519  135.4345  154.1821 H   0  0  0  0  0  0  0  0  0  0  0  0  # atno 10763 bound_to 10752
  153.2909  135.6961  153.7300 H   0  0  0  0  0  0  0  0  0  0  0  0  # atno 10764 bound_to 10752
  153.6468  135.3458  155.3062 H   0  0  0  0  0  0  0  0  0  0  0  0  # atno 10765 bound_to 10752
  139.8908  134.8455  156.2931 H   0  0  0  0  0  0  0  0  0  0  0  0  # atno 11005 bound_to 11000
  144.8523  140.7019  143.6160 LP  0  0  0  0  0  0  0  0  0  0  0  0  # atno 17320 bound_to 7965
  145.3735  139.1653  143.4319 LP  0  0  0  0  0  0  0  0  0  0  0  0  # atno 17321 bound_to 7965
  139.5364  144.2769  152.1260 LP  0  0  0  0  0  0  0  0  0  0  0  0  # atno 17342 bound_to 10162
  140.1969  144.4696  150.6451 LP  0  0  0  0  0  0  0  0  0  0  0  0  # atno 17343 bound_to 10162
  156.1830  130.3651  149.9010 LP  0  0  0  0  0  0  0  0  0  0  0  0  # atno 17370 bound_to 10713
  156.6957  130.8913  151.3593 LP  0  0  0  0  0  0  0  0  0  0  0  0  # atno 17371 bound_to 10713
  140.9963  133.7178  156.0891 LP  0  0  0  0  0  0  0  0  0  0  0  0  # atno 17394 bound_to 11000
  140.7558  134.3994  157.5534 LP  0  0  0  0  0  0  0  0  0  0  0  0  # atno 17395 bound_to 11000

$$$$
