AV-unprocessed.smi:2866|AV-procd|sdf|11020|dock1
  -GOLD-   2272015483D 1   1.00000     0.00000
 Structure written by MMmdl.
 41 43  0  0  0  0  0  0  0  0  1 V2000
  150.4664  145.1927  159.5406 C   0  0  0  0  0  0  0  0  0  0  0  0
  151.4089  144.1253  160.0677 C   0  0  0  0  0  0  0  0  0  0  0  0
  151.9227  144.2489  161.3782 C   0  0  0  0  0  0  0  0  0  0  0  0
  152.7969  143.2749  161.9083 C   0  0  0  0  0  0  0  0  0  0  0  0
  153.4053  143.1930  163.1492 N   0  0  0  0  0  0  0  0  0  0  0  0
  154.0904  142.0587  163.0375 C   0  0  0  0  0  0  0  0  0  0  0  0
  153.9985  141.3953  161.8691 N   0  0  0  0  0  0  0  0  0  0  0  0
  154.6503  140.1447  161.5235 C   0  0  0  0  0  0  0  0  0  0  0  0
  154.8079  139.9654  159.9984 C   0  0  1  0  0  0  0  0  0  0  0  0
  156.0698  140.4498  159.5834 O   0  0  0  0  0  0  0  0  0  0  0  0
  154.6809  138.5008  159.5340 C   0  0  0  0  0  0  0  0  0  0  0  0
  153.4763  138.2524  158.7623 N   0  0  0  0  0  0  0  0  0  0  0  0
  152.4154  137.4287  159.0703 C   0  0  0  0  0  0  0  0  0  0  0  0
  151.5264  137.5096  158.0375 C   0  0  0  0  0  0  0  0  0  0  0  0
  152.1382  138.4153  157.1227 C   0  0  0  0  0  0  0  0  0  0  0  0
  151.6192  138.8925  155.7917 C   0  0  0  0  0  0  0  0  0  0  0  0
  151.3636  140.2000  155.8372 F   0  0  0  0  0  0  0  0  0  0  0  0
  152.5275  138.6660  154.8428 F   0  0  0  0  0  0  0  0  0  0  0  0
  150.4955  138.2458  155.4820 F   0  0  0  0  0  0  0  0  0  0  0  0
  153.3099  138.8525  157.5645 N   0  0  0  0  0  0  0  0  0  0  0  0
  153.1485  142.1665  161.0838 C   0  0  0  0  0  0  0  0  0  0  0  0
  152.6462  142.0339  159.7773 C   0  0  0  0  0  0  0  0  0  0  0  0
  151.7712  143.0142  159.2643 C   0  0  0  0  0  0  0  0  0  0  0  0
  151.2293  142.8584  157.8545 C   0  0  0  0  0  0  0  0  0  0  0  0
  150.3029  145.9786  160.2785 H   0  0  0  0  0  0  0  0  0  0  0  0
  149.4975  144.7581  159.2941 H   0  0  0  0  0  0  0  0  0  0  0  0
  150.8768  145.6569  158.6435 H   0  0  0  0  0  0  0  0  0  0  0  0
  151.6468  145.0945  161.9911 H   0  0  0  0  0  0  0  0  0  0  0  0
  154.6930  141.6857  163.8530 H   0  0  0  0  0  0  0  0  0  0  0  0
  155.6228  140.1091  162.0161 H   0  0  0  0  0  0  0  0  0  0  0  0
  154.0591  139.3319  161.9469 H   0  0  0  0  0  0  0  0  0  0  0  0
  154.0490  140.5637  159.4925 H   0  0  0  0  0  0  0  0  0  0  0  0
  155.9715  140.8517  158.7335 H   0  0  0  0  0  0  0  0  0  0  0  0
  155.5405  138.2205  158.9233 H   0  0  0  0  0  0  0  0  0  0  0  0
  154.6794  137.8323  160.3962 H   0  0  0  0  0  0  0  0  0  0  0  0
  152.3805  136.8614  159.9889 H   0  0  0  0  0  0  0  0  0  0  0  0
  150.5804  136.9967  157.9468 H   0  0  0  0  0  0  0  0  0  0  0  0
  152.9288  141.1816  159.1771 H   0  0  0  0  0  0  0  0  0  0  0  0
  151.6069  141.9517  157.3808 H   0  0  0  0  0  0  0  0  0  0  0  0
  151.5233  143.7063  157.2353 H   0  0  0  0  0  0  0  0  0  0  0  0
  150.1407  142.8000  157.8681 H   0  0  0  0  0  0  0  0  0  0  0  0
  1  2  1  0  0  0  0
  1 25  1  0  0  0  0
  1 26  1  0  0  0  0
  1 27  1  0  0  0  0
  2 23  1  0  0  0  0
  2  3  2  0  0  0  0
  3  4  1  0  0  0  0
  3 28  1  0  0  0  0
  4 21  2  0  0  0  0
  4  5  1  0  0  0  0
  5  6  2  0  0  0  0
  6  7  1  0  0  0  0
  6 29  1  0  0  0  0
  7  8  1  0  0  0  0
  7 21  1  0  0  0  0
  8  9  1  0  0  0  0
  8 30  1  0  0  0  0
  8 31  1  0  0  0  0
  9 10  1  0  0  0  0
  9 11  1  0  0  0  0
  9 32  1  0  0  0  0
 10 33  1  0  0  0  0
 11 12  1  0  0  0  0
 11 34  1  0  0  0  0
 11 35  1  0  0  0  0
 12 20  1  0  0  0  0
 12 13  1  0  0  0  0
 13 14  2  0  0  0  0
 13 36  1  0  0  0  0
 14 15  1  0  0  0  0
 14 37  1  0  0  0  0
 15 16  1  0  0  0  0
 15 20  2  0  0  0  0
 16 17  1  0  0  0  0
 16 18  1  0  0  0  0
 16 19  1  0  0  0  0
 21 22  1  0  0  0  0
 22 23  2  0  0  0  0
 22 38  1  0  0  0  0
 23 24  1  0  0  0  0
 24 39  1  0  0  0  0
 24 40  1  0  0  0  0
 24 41  1  0  0  0  0
M  END
> <s_m_source_file>
AV-unprocessed.smi

> <i_m_source_file_index>
2866

> <i_lp_mmshare_version>
43012

> <i_f3d_flags>
0

> <s_epik_input>
W0NIM11jKFtjSF0xKWMoW0NIM10pW2NIXWMoYzEyKW4oW2NIXW4yKVtDSDJdW0NASF0oW09IXSlbQ0gyXW4zW2NIXVtjSF1jKG4zKUMoRikoRilG

> <s_epik_cmdline>
J2VwaWtfcHl0aG9uJywgJy1waCcsICc3LjAnLCAnLXRuJywgJzgnLCAnLW1hJywgJzIwMCcsICctbWV0YWxfYmluZGluZycsICctaW1hZScsICc8aW5maWxlLm1hZT4nLCAnLW9tYWUnLCAnPG91dGZpbGUubWFlPic=

> <r_lp_tautomer_probability>
1

> <r_epik_Ionization_Penalty>
0.1021

> <r_epik_Ionization_Penalty_Charging>
0

> <r_epik_Ionization_Penalty_Neutral>
0.1021

> <r_epik_State_Penalty>
0.0920694

> <r_epik_Charging_Adjusted_Penalty>
0.0920694

> <i_epik_Tot_Q>
0

> <i_epik_Tot_abs_Q>
0

> <r_epik_Metal_State_Penalty>
0.0784291

> <b_epik_Metal_Only>
0

> <s_lp_Force_Field>
OPLS_2005

> <r_lp_Energy>
10.7654

> <b_lp_Chiralities_Consistent>
1

> <s_lp_Variant>
AV-unprocessed.smi:2866-2

> <Gold.Version>
5.8.1

> <Gold.Id.Protein>
6NUR|6NUR_protein|mol2

> <Gold.PLP.Fitness>
53.3975

> <Gold.PLP.PLP>
-53.5724

> <Gold.PLP.part.hbond>
-1.1747

> <Gold.PLP.part.metal>
0.0000

> <Gold.PLP.part.buried>
-3.6926

> <Gold.PLP.part.nonpolar>
-47.8023

> <Gold.PLP.part.repulsive>
0.1157

> <Gold.PLP.ligand.clash>
0.0000

> <Gold.PLP.ligand.torsion>
1.6131

> <Gold.PLP.Chemscore.Hbond>
1.0000

> <Gold.PLP.Chemscore.CHOScore>
0.0000

> <Gold.PLP.Chemscore.Metal>
0.0000

> <Gold.Chemscore.Hbonds>
donor molecule, donor type, donor heavy atom, donor atom, acceptor molecule, acceptor atom, score
      P1  H  7997  8010       L1    20  1.00

> <Gold.PLP.Chemscore.Internal.Correction>
0.0513

> <Gold.Rescore>
     Score         DG    S(hbond)    S(metal)    S(lipo)     H(rot)  DE(clash)    DE(int)     intcor
     15.01     -17.61       1.00        0.00     128.33       2.42       0.09       2.52       ----

> <Gold.Chemscore.Fitness>
15.0115

> <Gold.Chemscore.DG>
-17.6148

> <Gold.Chemscore.ZeroCoef>
-5.4800

> <Gold.Chemscore.Hbond>
0.9960

> <Gold.Chemscore.Metal>
0.0000

> <Gold.Chemscore.Lipo>
128.3284

> <Gold.Chemscore.Internal_Hbond>
0.0000

> <Gold.Chemscore.DEClash>
0.0851

> <Gold.Chemscore.DEInternal>
2.5181

> <Gold.Chemscore.Rot>
2.4243

> <Gold.Chemscore.Internal.Correction>
   9.000000E+99

> <Gold.Chemscore.Hbonds>
donor molecule, donor type, donor heavy atom, donor atom, acceptor molecule, acceptor atom, score
      P1  H  7997  8010       L1    20  0.99

> <Gold.Chemscore.Hbond.Weighted>
-3.3266

> <Gold.Chemscore.Metal.Weighted>
-0.0000

> <Gold.Chemscore.Lipo.Weighted>
-15.0144

> <Gold.Chemscore.Internal_Hbond.Weighted>
0.0000

> <Gold.Chemscore.DEClash.Weighted>
0.0851

> <Gold.Chemscore.DEInternal.Weighted>
2.5181

> <Gold.Chemscore.Rot.Weighted>
6.2063

> <Gold.Chemscore.Internal.Correction.Weighted>
   9.000000E+99

> <Gold.Protein.RotatedTorsions>
[ 6907 6896 6895 6894 ] final   91.63 input  -60.11 | X-H torsion
[ 7974 7965 7964 7962 ] final  -55.75 input  175.53 | X-H torsion
[ 8008 7997 7996 7995 ] final   43.83 input   59.86 | X-H torsion
[ 10167 10162 10161 10158 ] final   28.19 input  -65.29 | X-H torsion
[ 10718 10713 10712 10709 ] final  -88.96 input   66.30 | X-H torsion
[ 10763 10752 10751 10750 ] final   92.58 input  -60.55 | X-H torsion
[ 11005 11000 10999 10996 ] final -161.43 input  -57.11 | X-H torsion

> <Gold.Protein.ActiveResidues>
 VAL166  LYS551  ARG553  GLY616  TRP617  ASP618  TYR619  PRO620  LYS621  CYS622 
 ASP623  PHE694  ASN695  SER759  ASP760  ASP761  ALA762  ILE779  LEU786  VAL792 
 PHE793  MET794  SER795  GLU796  ALA797  LYS798  CYS799  TRP800  GLU811  SER814 

> <Gold.Protein.RotatedAtoms>
  152.5450  134.1627  159.8564 H   0  0  0  0  0  0  0  0  0  0  0  0  # atno 6907 bound_to 6896
  151.1644  133.4817  159.2601 H   0  0  0  0  0  0  0  0  0  0  0  0  # atno 6908 bound_to 6896
  151.1339  135.0156  159.8650 H   0  0  0  0  0  0  0  0  0  0  0  0  # atno 6909 bound_to 6896
  145.8706  140.8219  142.9890 H   0  0  0  0  0  0  0  0  0  0  0  0  # atno 7974 bound_to 7965
  155.3092  140.3390  155.4244 H   0  0  0  0  0  0  0  0  0  0  0  0  # atno 8008 bound_to 7997
  156.1964  140.1716  156.8028 H   0  0  0  0  0  0  0  0  0  0  0  0  # atno 8009 bound_to 7997
  154.5504  140.0707  156.8642 H   0  0  0  0  0  0  0  0  0  0  0  0  # atno 8010 bound_to 7997
  140.4873  144.0522  150.6285 H   0  0  0  0  0  0  0  0  0  0  0  0  # atno 10167 bound_to 10162
  155.9984  130.4854  150.5098 H   0  0  0  0  0  0  0  0  0  0  0  0  # atno 10718 bound_to 10713
  153.2207  135.4356  155.0486 H   0  0  0  0  0  0  0  0  0  0  0  0  # atno 10763 bound_to 10752
  154.8248  135.3355  154.6931 H   0  0  0  0  0  0  0  0  0  0  0  0  # atno 10764 bound_to 10752
  153.7363  135.7007  153.5033 H   0  0  0  0  0  0  0  0  0  0  0  0  # atno 10765 bound_to 10752
  140.6205  134.4756  157.5223 H   0  0  0  0  0  0  0  0  0  0  0  0  # atno 11005 bound_to 11000
  144.6726  140.1233  143.7448 LP  0  0  0  0  0  0  0  0  0  0  0  0  # atno 17320 bound_to 7965
  145.9141  139.2505  143.1420 LP  0  0  0  0  0  0  0  0  0  0  0  0  # atno 17321 bound_to 7965
  140.3781  143.2818  152.0202 LP  0  0  0  0  0  0  0  0  0  0  0  0  # atno 17342 bound_to 10162
  139.4844  144.6177  151.7315 LP  0  0  0  0  0  0  0  0  0  0  0  0  # atno 17343 bound_to 10162
  157.3073  131.0657  151.2026 LP  0  0  0  0  0  0  0  0  0  0  0  0  # atno 17370 bound_to 10713
  157.2985  130.6831  149.6151 LP  0  0  0  0  0  0  0  0  0  0  0  0  # atno 17371 bound_to 10713
  139.9155  134.8254  156.1380 LP  0  0  0  0  0  0  0  0  0  0  0  0  # atno 17394 bound_to 11000
  141.0746  133.6781  156.2210 LP  0  0  0  0  0  0  0  0  0  0  0  0  # atno 17395 bound_to 11000

$$$$
