AV-unprocessed.smi:2119|AV-procd|sdf|8633|dock3
  -GOLD-   2272011383D 1   1.00000     0.00000
 Structure written by MMmdl.
 47 49  0  0  0  0  0  0  0  0  1 V2000
  144.9482  136.7106  153.3683 O   0  0  0  0  0  0  0  0  0  0  0  0
  146.0454  136.3523  152.9420 C   0  0  0  0  0  0  0  0  0  0  0  0
  147.1823  137.0264  153.1620 N   0  0  0  0  0  0  0  0  0  0  0  0
  147.2884  138.2914  153.8802 C   0  0  0  0  0  0  0  0  0  0  0  0
  148.6825  138.9557  153.7034 C   0  0  1  0  0  0  0  0  0  0  0  0
  148.5974  140.5110  153.6843 C   0  0  1  0  0  0  0  0  0  0  0  0
  147.6508  141.0688  152.6325 C   0  0  0  0  0  0  0  0  0  0  0  0
  147.4268  142.4922  153.1232 C   0  0  0  0  0  0  0  0  0  0  0  0
  147.4042  142.3892  154.5397 O   0  0  0  0  0  0  0  0  0  0  0  0
  148.0209  141.1707  154.9464 C   0  0  0  0  0  0  0  0  0  0  0  0
  149.6867  138.4791  154.6715 N   0  0  0  0  0  0  0  0  0  0  0  0
  151.0642  138.8046  154.3116 C   0  0  0  0  0  0  0  0  0  0  0  0
  152.0448  138.4152  155.4309 C   0  0  0  0  0  0  0  0  0  0  0  0
  151.9023  137.0296  155.7292 O   0  0  0  0  0  0  0  0  0  0  0  0
  150.5800  136.6845  156.1316 C   0  0  0  0  0  0  0  0  0  0  0  0
  149.5841  137.0630  155.0219 C   0  0  0  0  0  0  0  0  0  0  0  0
  146.2745  135.2458  152.2145 N   0  0  0  0  0  0  0  0  0  0  0  0
  145.3367  134.3022  151.7147 C   0  0  0  0  0  0  0  0  0  0  0  0
  145.8213  133.2611  150.8964 C   0  0  0  0  0  0  0  0  0  0  0  0
  144.9138  132.3233  150.3684 C   0  0  0  0  0  0  0  0  0  0  0  0
  143.5471  132.4691  150.6743 C   0  0  0  0  0  0  0  0  0  0  0  0
  143.0637  133.4665  151.4441 N   0  0  0  0  0  0  0  0  0  0  0  0
  143.9400  134.3621  151.9486 C   0  0  0  0  0  0  0  0  0  0  0  0
  148.0384  136.6480  152.7842 H   0  0  0  0  0  0  0  0  0  0  0  0
  146.5090  138.9841  153.5585 H   0  0  0  0  0  0  0  0  0  0  0  0
  147.0856  138.0658  154.9259 H   0  0  0  0  0  0  0  0  0  0  0  0
  149.0464  138.6640  152.7170 H   0  0  0  0  0  0  0  0  0  0  0  0
  149.5881  140.9324  153.5072 H   0  0  0  0  0  0  0  0  0  0  0  0
  148.0622  141.0371  151.6230 H   0  0  0  0  0  0  0  0  0  0  0  0
  146.7087  140.5184  152.6349 H   0  0  0  0  0  0  0  0  0  0  0  0
  148.2604  143.1318  152.8297 H   0  0  0  0  0  0  0  0  0  0  0  0
  146.5067  142.9315  152.7377 H   0  0  0  0  0  0  0  0  0  0  0  0
  147.2552  140.5424  155.4029 H   0  0  0  0  0  0  0  0  0  0  0  0
  148.7882  141.3671  155.6954 H   0  0  0  0  0  0  0  0  0  0  0  0
  151.3547  138.2833  153.4001 H   0  0  0  0  0  0  0  0  0  0  0  0
  151.1542  139.8721  154.1077 H   0  0  0  0  0  0  0  0  0  0  0  0
  153.0712  138.6097  155.1198 H   0  0  0  0  0  0  0  0  0  0  0  0
  151.8632  139.0082  156.3286 H   0  0  0  0  0  0  0  0  0  0  0  0
  150.5350  135.6143  156.3327 H   0  0  0  0  0  0  0  0  0  0  0  0
  150.3310  137.1961  157.0626 H   0  0  0  0  0  0  0  0  0  0  0  0
  148.5754  136.8231  155.3561 H   0  0  0  0  0  0  0  0  0  0  0  0
  149.7810  136.4446  154.1455 H   0  0  0  0  0  0  0  0  0  0  0  0
  147.2422  135.0387  152.0150 H   0  0  0  0  0  0  0  0  0  0  0  0
  146.8756  133.1777  150.6758 H   0  0  0  0  0  0  0  0  0  0  0  0
  145.2566  131.5126  149.7426 H   0  0  0  0  0  0  0  0  0  0  0  0
  142.8222  131.7690  150.2859 H   0  0  0  0  0  0  0  0  0  0  0  0
  143.4894  135.1495  152.5320 H   0  0  0  0  0  0  0  0  0  0  0  0
  1  2  2  0  0  0  0
  2  3  1  0  0  0  0
  2 17  1  0  0  0  0
  3  4  1  0  0  0  0
  3 24  1  0  0  0  0
  4  5  1  0  0  0  0
  4 25  1  0  0  0  0
  4 26  1  0  0  0  0
  5  6  1  0  0  0  0
  5 11  1  0  0  0  0
  5 27  1  0  0  0  0
  6 10  1  0  0  0  0
  6  7  1  0  0  0  0
  6 28  1  0  0  0  0
  7  8  1  0  0  0  0
  7 29  1  0  0  0  0
  7 30  1  0  0  0  0
  8  9  1  0  0  0  0
  8 31  1  0  0  0  0
  8 32  1  0  0  0  0
  9 10  1  0  0  0  0
 10 33  1  0  0  0  0
 10 34  1  0  0  0  0
 11 16  1  0  0  0  0
 11 12  1  0  0  0  0
 12 13  1  0  0  0  0
 12 35  1  0  0  0  0
 12 36  1  0  0  0  0
 13 14  1  0  0  0  0
 13 37  1  0  0  0  0
 13 38  1  0  0  0  0
 14 15  1  0  0  0  0
 15 16  1  0  0  0  0
 15 39  1  0  0  0  0
 15 40  1  0  0  0  0
 16 41  1  0  0  0  0
 16 42  1  0  0  0  0
 17 18  1  0  0  0  0
 17 43  1  0  0  0  0
 18 23  1  0  0  0  0
 18 19  2  0  0  0  0
 19 20  1  0  0  0  0
 19 44  1  0  0  0  0
 20 21  2  0  0  0  0
 20 45  1  0  0  0  0
 21 22  1  0  0  0  0
 21 46  1  0  0  0  0
 22 23  2  0  0  0  0
 23 47  1  0  0  0  0
M  END
> <s_m_source_file>
AV-unprocessed.smi

> <i_m_source_file_index>
2119

> <i_lp_mmshare_version>
43012

> <i_f3d_flags>
0

> <s_epik_input>
W2NIXTFuW2NIXVtjSF1bY0hdYzFbTkhdQyg9TylbTkhdW0NIMl1bQ0BIXShbQ0BASF0yW0NIMl1bQ0gyXU9bQ0gyXTIpTjNbQ0gyXVtDSDJdT1tDSDJdW0NIMl0z

> <s_epik_cmdline>
J2VwaWtfcHl0aG9uJywgJy1waCcsICc3LjAnLCAnLXRuJywgJzgnLCAnLW1hJywgJzIwMCcsICctbWV0YWxfYmluZGluZycsICctaW1hZScsICc8aW5maWxlLm1hZT4nLCAnLW9tYWUnLCAnPG91dGZpbGUubWFlPic=

> <r_epik_Ionization_Penalty>
0.129787

> <r_epik_Ionization_Penalty_Charging>
0

> <r_epik_Ionization_Penalty_Neutral>
0.129787

> <r_epik_State_Penalty>
0.121311

> <r_epik_Charging_Adjusted_Penalty>
0.121311

> <i_epik_Tot_Q>
0

> <i_epik_Tot_abs_Q>
0

> <r_epik_Metal_State_Penalty>
0.117931

> <b_epik_Metal_Only>
0

> <s_lp_Force_Field>
OPLS_2005

> <r_lp_Energy>
52.557

> <b_lp_Chiralities_Consistent>
1

> <s_lp_Variant>
AV-unprocessed.smi:2119-4

> <Gold.Version>
5.8.1

> <Gold.Id.Protein>
6NUR|6NUR_protein|mol2

> <Gold.PLP.Fitness>
45.8839

> <Gold.PLP.PLP>
-35.8273

> <Gold.PLP.part.hbond>
-3.0000

> <Gold.PLP.part.metal>
0.0000

> <Gold.PLP.part.buried>
-7.3899

> <Gold.PLP.part.nonpolar>
-27.3099

> <Gold.PLP.part.repulsive>
0.7496

> <Gold.PLP.ligand.clash>
0.0000

> <Gold.PLP.ligand.torsion>
0.7313

> <Gold.PLP.Chemscore.Hbond>
2.7443

> <Gold.PLP.Chemscore.CHOScore>
0.9649

> <Gold.PLP.Chemscore.Metal>
0.0000

> <Gold.Chemscore.Hbonds>
donor molecule, donor type, donor heavy atom, donor atom, acceptor molecule, acceptor atom, score
      L1  H     3    24       P1  7948  0.59
      L1  H    17    43       P1  7948  0.65
      P1  H 10752 10763       L1    14  0.89
      L1  C    21    46       P1 10952  0.94

> <Gold.PLP.Chemscore.Internal.Correction>
0.3917

> <Gold.Rescore>
     Score         DG    S(hbond)    S(metal)    S(lipo)     H(rot)  DE(clash)    DE(int)     intcor
     17.32     -20.32       2.59        0.00      89.05       1.65       0.00       3.00       ----

> <Gold.Chemscore.Fitness>
17.3213

> <Gold.Chemscore.DG>
-20.3198

> <Gold.Chemscore.ZeroCoef>
-5.4800

> <Gold.Chemscore.Hbond>
2.5891

> <Gold.Chemscore.Metal>
0.0000

> <Gold.Chemscore.Lipo>
89.0459

> <Gold.Chemscore.Internal_Hbond>
0.0000

> <Gold.Chemscore.DEClash>
0.0015

> <Gold.Chemscore.DEInternal>
2.9970

> <Gold.Chemscore.Rot>
1.6508

> <Gold.Chemscore.Internal.Correction>
   9.000000E+99

> <Gold.Chemscore.Hbonds>
donor molecule, donor type, donor heavy atom, donor atom, acceptor molecule, acceptor atom, score
      L1  H     3    24       P1  7948  0.58
      L1  H    17    43       P1  7948  0.59
      P1  H 10752 10763       L1    14  0.75

> <Gold.Chemscore.Hbond.Weighted>
-8.6476

> <Gold.Chemscore.Metal.Weighted>
-0.0000

> <Gold.Chemscore.Lipo.Weighted>
-10.4184

> <Gold.Chemscore.Internal_Hbond.Weighted>
0.0000

> <Gold.Chemscore.DEClash.Weighted>
0.0015

> <Gold.Chemscore.DEInternal.Weighted>
2.9970

> <Gold.Chemscore.Rot.Weighted>
4.2262

> <Gold.Chemscore.Internal.Correction.Weighted>
   9.000000E+99

> <Gold.Protein.RotatedTorsions>
[ 6907 6896 6895 6894 ] final   19.77 input  -60.11 | X-H torsion
[ 7974 7965 7964 7962 ] final -129.03 input  175.53 | X-H torsion
[ 8008 7997 7996 7995 ] final   -2.13 input   59.86 | X-H torsion
[ 10167 10162 10161 10158 ] final  -70.50 input  -65.29 | X-H torsion
[ 10718 10713 10712 10709 ] final -112.33 input   66.30 | X-H torsion
[ 10763 10752 10751 10750 ] final   64.45 input  -60.55 | X-H torsion
[ 11005 11000 10999 10996 ] final -102.53 input  -57.11 | X-H torsion

> <Gold.Protein.ActiveResidues>
 VAL166  LYS551  ARG553  GLY616  TRP617  ASP618  TYR619  PRO620  LYS621  CYS622 
 ASP623  PHE694  ASN695  SER759  ASP760  ASP761  ALA762  ILE779  LEU786  VAL792 
 PHE793  MET794  SER795  GLU796  ALA797  LYS798  CYS799  TRP800  GLU811  SER814 

> <Gold.Protein.RotatedAtoms>
  151.8861  135.0435  160.0493 H   0  0  0  0  0  0  0  0  0  0  0  0  # atno 6907 bound_to 6896
  152.2474  133.5181  159.5313 H   0  0  0  0  0  0  0  0  0  0  0  0  # atno 6908 bound_to 6896
  150.7072  134.0924  159.3979 H   0  0  0  0  0  0  0  0  0  0  0  0  # atno 6909 bound_to 6896
  144.9612  140.7448  143.4728 H   0  0  0  0  0  0  0  0  0  0  0  0  # atno 7974 bound_to 7965
  154.6392  140.2542  155.7342 H   0  0  0  0  0  0  0  0  0  0  0  0  # atno 8008 bound_to 7997
  156.2520  140.2891  156.0698 H   0  0  0  0  0  0  0  0  0  0  0  0  # atno 8009 bound_to 7997
  155.1623  140.0384  157.2835 H   0  0  0  0  0  0  0  0  0  0  0  0  # atno 8010 bound_to 7997
  140.5348  143.2319  151.7197 H   0  0  0  0  0  0  0  0  0  0  0  0  # atno 10167 bound_to 10162
  156.0699  130.5914  150.8494 H   0  0  0  0  0  0  0  0  0  0  0  0  # atno 10718 bound_to 10713
  153.0056  135.5392  154.6512 H   0  0  0  0  0  0  0  0  0  0  0  0  # atno 10763 bound_to 10752
  154.5743  135.2844  155.0798 H   0  0  0  0  0  0  0  0  0  0  0  0  # atno 10764 bound_to 10752
  154.1952  135.6493  153.5123 H   0  0  0  0  0  0  0  0  0  0  0  0  # atno 10765 bound_to 10752
  141.1185  133.8566  157.1371 H   0  0  0  0  0  0  0  0  0  0  0  0  # atno 11005 bound_to 11000
  145.2697  139.1959  143.4848 LP  0  0  0  0  0  0  0  0  0  0  0  0  # atno 17320 bound_to 7965
  146.3353  140.2641  142.8603 LP  0  0  0  0  0  0  0  0  0  0  0  0  # atno 17321 bound_to 7965
  139.4967  144.4060  152.0131 LP  0  0  0  0  0  0  0  0  0  0  0  0  # atno 17342 bound_to 10162
  140.3164  144.3478  150.6020 LP  0  0  0  0  0  0  0  0  0  0  0  0  # atno 17343 bound_to 10162
  157.5764  131.0946  150.9338 LP  0  0  0  0  0  0  0  0  0  0  0  0  # atno 17370 bound_to 10713
  156.9543  130.5431  149.5283 LP  0  0  0  0  0  0  0  0  0  0  0  0  # atno 17371 bound_to 10713
  140.0125  134.9982  157.0424 LP  0  0  0  0  0  0  0  0  0  0  0  0  # atno 17394 bound_to 11000
  140.4576  134.1517  155.7188 LP  0  0  0  0  0  0  0  0  0  0  0  0  # atno 17395 bound_to 11000

$$$$
