AV-unprocessed.smi:703|AV-procd|sdf|3427|dock3
  -GOLD-   22720 0413D 1   1.00000     0.00000
 Structure written by MMmdl.
 38 39  0  0  0  0  0  0  0  0  2 V2000
  152.5551  144.3777  158.8872 C   0  0  0  0  0  0  0  0  0  0  0  0
  151.6349  144.6791  157.6967 C   0  0  0  0  0  0  0  0  0  0  0  0
  150.6631  143.5883  157.4496 N   0  3  2  0  0  0  0  0  0  0  0  0
  149.8655  143.1768  158.6216 C   0  0  0  0  0  0  0  0  0  0  0  0
  149.2971  141.8043  158.2535 C   0  0  1  0  0  0  0  0  0  0  0  0
  147.9680  141.9555  157.4839 C   0  0  0  0  0  0  0  0  0  0  0  0
  150.4545  141.1726  157.4516 C   0  0  1  0  0  0  0  0  0  0  0  0
  149.9830  140.2627  156.4003 N   0  0  0  0  0  0  0  0  0  0  0  0
  151.1373  139.2846  155.5692 S   0  0  0  0  0  0  0  0  0  0  0  0
  150.8432  139.3804  154.1313 O   0  0  0  0  0  0  0  0  0  0  0  0
  152.4727  139.6430  156.0711 O   0  0  0  0  0  0  0  0  0  0  0  0
  150.7233  137.5890  156.1589 C   0  0  0  0  0  0  0  0  0  0  0  0
  151.8927  137.0177  156.9086 C   0  0  0  0  0  0  0  0  0  0  0  0
  152.5322  137.5295  158.0715 C   0  0  0  0  0  0  0  0  0  0  0  0
  153.5223  136.6222  158.3161 C   0  0  0  0  0  0  0  0  0  0  0  0
  153.5025  135.6352  157.3852 O   0  0  0  0  0  0  0  0  0  0  0  0
  152.4594  135.8972  156.4897 N   0  0  0  0  0  0  0  0  0  0  0  0
  151.2603  142.3584  156.8864 C   0  0  0  0  0  0  0  0  0  0  0  0
  153.2157  145.2216  159.0862 H   0  0  0  0  0  0  0  0  0  0  0  0
  153.1849  143.5079  158.7000 H   0  0  0  0  0  0  0  0  0  0  0  0
  151.9790  144.1883  159.7933 H   0  0  0  0  0  0  0  0  0  0  0  0
  151.0819  145.5954  157.9074 H   0  0  0  0  0  0  0  0  0  0  0  0
  152.2238  144.8672  156.7979 H   0  0  0  0  0  0  0  0  0  0  0  0
  150.5194  143.0802  159.4902 H   0  0  0  0  0  0  0  0  0  0  0  0
  149.0917  143.9050  158.8670 H   0  0  0  0  0  0  0  0  0  0  0  0
  149.1011  141.2243  159.1565 H   0  0  0  0  0  0  0  0  0  0  0  0
  148.1025  142.4998  156.5484 H   0  0  0  0  0  0  0  0  0  0  0  0
  147.2333  142.4980  158.0792 H   0  0  0  0  0  0  0  0  0  0  0  0
  147.5311  140.9847  157.2479 H   0  0  0  0  0  0  0  0  0  0  0  0
  151.0875  140.6155  158.1440 H   0  0  0  0  0  0  0  0  0  0  0  0
  149.3714  140.7445  155.7416 H   0  0  0  0  0  0  0  0  0  0  0  0
  149.8345  137.6501  156.7879 H   0  0  0  0  0  0  0  0  0  0  0  0
  150.4781  136.9728  155.2942 H   0  0  0  0  0  0  0  0  0  0  0  0
  152.2991  138.4188  158.6383 H   0  0  0  0  0  0  0  0  0  0  0  0
  154.2860  136.5436  159.0759 H   0  0  0  0  0  0  0  0  0  0  0  0
  151.2231  142.4177  155.7982 H   0  0  0  0  0  0  0  0  0  0  0  0
  152.3084  142.2617  157.1745 H   0  0  0  0  0  0  0  0  0  0  0  0
  150.0048  143.9187  156.7587 H   0  0  0  0  0  0  0  0  0  0  0  0
  1  2  1  0  0  0  0
  1 19  1  0  0  0  0
  1 20  1  0  0  0  0
  1 21  1  0  0  0  0
  2  3  1  0  0  0  0
  2 22  1  0  0  0  0
  2 23  1  0  0  0  0
  3 18  1  0  0  0  0
  3  4  1  0  0  0  0
  3 38  1  0  0  0  0
  4  5  1  0  0  0  0
  4 24  1  0  0  0  0
  4 25  1  0  0  0  0
  5  6  1  0  0  0  0
  5  7  1  0  0  0  0
  5 26  1  0  0  0  0
  6 27  1  0  0  0  0
  6 28  1  0  0  0  0
  6 29  1  0  0  0  0
  7  8  1  0  0  0  0
  7 18  1  0  0  0  0
  7 30  1  0  0  0  0
  8  9  1  0  0  0  0
  8 31  1  0  0  0  0
  9 10  2  0  0  0  0
  9 11  2  0  0  0  0
  9 12  1  0  0  0  0
 12 13  1  0  0  0  0
 12 32  1  0  0  0  0
 12 33  1  0  0  0  0
 13 17  2  0  0  0  0
 13 14  1  0  0  0  0
 14 15  2  0  0  0  0
 14 34  1  0  0  0  0
 15 16  1  0  0  0  0
 15 35  1  0  0  0  0
 16 17  1  0  0  0  0
 18 36  1  0  0  0  0
 18 37  1  0  0  0  0
M  CHG  1   3   1
M  END
> <s_m_source_file>
AV-unprocessed.smi

> <i_m_source_file_index>
703

> <i_lp_mmshare_version>
43012

> <i_f3d_flags>
0

> <s_epik_input>
W0NIM11bQ0gyXU4xW0NIMl1bQ0BASF0oW0NIM10pW0NASF0oW0NIMl0xKVtOSF1TKD1PKSg9TylbQ0gyXWMyW2NIXVtjSF1vbjI=

> <s_epik_cmdline>
J2VwaWtfcHl0aG9uJywgJy1waCcsICc3LjAnLCAnLXRuJywgJzgnLCAnLW1hJywgJzIwMCcsICctbWV0YWxfYmluZGluZycsICctaW1hZScsICc8aW5maWxlLm1hZT4nLCAnLW9tYWUnLCAnPG91dGZpbGUubWFlPic=

> <r_epik_Ionization_Penalty>
0.00324529

> <r_epik_Ionization_Penalty_Charging>
0.0019384

> <r_epik_Ionization_Penalty_Neutral>
0.00130689

> <r_epik_State_Penalty>
0.00218682

> <r_epik_Charging_Adjusted_Penalty>
0.00412522

> <i_epik_Tot_Q>
1

> <i_epik_Tot_abs_Q>
1

> <r_epik_Metal_State_Penalty>
0.310831

> <b_epik_Metal_Only>
0

> <s_lp_Force_Field>
OPLS_2005

> <r_lp_Energy>
22.9594

> <b_lp_Chiralities_Consistent>
1

> <s_lp_Variant>
AV-unprocessed.smi:703-2

> <Gold.Version>
5.8.1

> <Gold.Id.Protein>
6NUR|6NUR_protein|mol2

> <Gold.PLP.Fitness>
40.8654

> <Gold.PLP.PLP>
-26.2470

> <Gold.PLP.part.hbond>
-5.0000

> <Gold.PLP.part.metal>
0.0000

> <Gold.PLP.part.buried>
-4.9412

> <Gold.PLP.part.nonpolar>
-16.0645

> <Gold.PLP.part.repulsive>
0.1822

> <Gold.PLP.ligand.clash>
0.0000

> <Gold.PLP.ligand.torsion>
0.2694

> <Gold.PLP.Chemscore.Hbond>
5.0000

> <Gold.PLP.Chemscore.CHOScore>
0.0000

> <Gold.PLP.Chemscore.Metal>
0.0000

> <Gold.Chemscore.Hbonds>
donor molecule, donor type, donor heavy atom, donor atom, acceptor molecule, acceptor atom, score
      L1  H     3    38       P1  8028  2.00
      P1  H  7989  7998       L1    10  1.00
      P1  H  7997  8008       L1    11  1.00
      P1  H 10752 10763       L1    17  1.00

> <Gold.PLP.Chemscore.Internal.Correction>
0.1574

> <Gold.Rescore>
     Score         DG    S(hbond)    S(metal)    S(lipo)     H(rot)  DE(clash)    DE(int)     intcor
     19.83     -21.32       3.85        0.00      67.82       1.94       0.26       1.23       ----

> <Gold.Chemscore.Fitness>
19.8283

> <Gold.Chemscore.DG>
-21.3194

> <Gold.Chemscore.ZeroCoef>
-5.4800

> <Gold.Chemscore.Hbond>
3.8535

> <Gold.Chemscore.Metal>
0.0000

> <Gold.Chemscore.Lipo>
67.8216

> <Gold.Chemscore.Internal_Hbond>
0.0000

> <Gold.Chemscore.DEClash>
0.2627

> <Gold.Chemscore.DEInternal>
1.2284

> <Gold.Chemscore.Rot>
1.9400

> <Gold.Chemscore.Internal.Correction>
   9.000000E+99

> <Gold.Chemscore.Hbonds>
donor molecule, donor type, donor heavy atom, donor atom, acceptor molecule, acceptor atom, score
      L1  H     3    38       P1  8028  0.99
      P1  H  7989  7998       L1    10  0.70
      P1  H  7997  8008       L1    11  0.95
      P1  H 10752 10763       L1    17  0.25

> <Gold.Chemscore.Hbond.Weighted>
-12.8708

> <Gold.Chemscore.Metal.Weighted>
-0.0000

> <Gold.Chemscore.Lipo.Weighted>
-7.9351

> <Gold.Chemscore.Internal_Hbond.Weighted>
0.0000

> <Gold.Chemscore.DEClash.Weighted>
0.2627

> <Gold.Chemscore.DEInternal.Weighted>
1.2284

> <Gold.Chemscore.Rot.Weighted>
4.9665

> <Gold.Chemscore.Internal.Correction.Weighted>
   9.000000E+99

> <Gold.Protein.RotatedTorsions>
[ 6907 6896 6895 6894 ] final -179.40 input  -60.11 | X-H torsion
[ 7974 7965 7964 7962 ] final  -67.07 input  175.53 | X-H torsion
[ 8008 7997 7996 7995 ] final  -23.03 input   59.86 | X-H torsion
[ 10167 10162 10161 10158 ] final  -36.22 input  -65.29 | X-H torsion
[ 10718 10713 10712 10709 ] final  -24.77 input   66.30 | X-H torsion
[ 10763 10752 10751 10750 ] final   91.08 input  -60.55 | X-H torsion
[ 11005 11000 10999 10996 ] final -107.44 input  -57.11 | X-H torsion

> <Gold.Protein.ActiveResidues>
 VAL166  LYS551  ARG553  GLY616  TRP617  ASP618  TYR619  PRO620  LYS621  CYS622 
 ASP623  PHE694  ASN695  SER759  ASP760  ASP761  ALA762  ILE779  LEU786  VAL792 
 PHE793  MET794  SER795  GLU796  ALA797  LYS798  CYS799  TRP800  GLU811  SER814 

> <Gold.Protein.RotatedAtoms>
  151.6529  133.3320  159.3155 H   0  0  0  0  0  0  0  0  0  0  0  0  # atno 6907 bound_to 6896
  150.7951  134.7009  159.6559 H   0  0  0  0  0  0  0  0  0  0  0  0  # atno 6908 bound_to 6896
  152.4037  134.6247  160.0111 H   0  0  0  0  0  0  0  0  0  0  0  0  # atno 6909 bound_to 6896
  145.7338  140.8985  143.0566 H   0  0  0  0  0  0  0  0  0  0  0  0  # atno 7974 bound_to 7965
  154.4609  140.1992  156.0248 H   0  0  0  0  0  0  0  0  0  0  0  0  # atno 8008 bound_to 7997
  156.0838  140.3268  155.7699 H   0  0  0  0  0  0  0  0  0  0  0  0  # atno 8009 bound_to 7997
  155.5069  140.0558  157.2921 H   0  0  0  0  0  0  0  0  0  0  0  0  # atno 8010 bound_to 7997
  140.7147  143.3423  151.2330 H   0  0  0  0  0  0  0  0  0  0  0  0  # atno 10167 bound_to 10162
  156.4733  130.4529  149.6856 H   0  0  0  0  0  0  0  0  0  0  0  0  # atno 10718 bound_to 10713
  153.2044  135.4410  155.0305 H   0  0  0  0  0  0  0  0  0  0  0  0  # atno 10763 bound_to 10752
  154.8165  135.3317  154.7163 H   0  0  0  0  0  0  0  0  0  0  0  0  # atno 10764 bound_to 10752
  153.7606  135.6992  153.4982 H   0  0  0  0  0  0  0  0  0  0  0  0  # atno 10765 bound_to 10752
  141.0954  133.8981  157.1976 H   0  0  0  0  0  0  0  0  0  0  0  0  # atno 11005 bound_to 11000
  144.6886  139.9367  143.7473 LP  0  0  0  0  0  0  0  0  0  0  0  0  # atno 17320 bound_to 7965
  146.0513  139.3513  143.0638 LP  0  0  0  0  0  0  0  0  0  0  0  0  # atno 17321 bound_to 7965
  139.6934  143.9654  152.2870 LP  0  0  0  0  0  0  0  0  0  0  0  0  # atno 17342 bound_to 10162
  139.9323  144.6734  150.8350 LP  0  0  0  0  0  0  0  0  0  0  0  0  # atno 17343 bound_to 10162
  156.3596  130.7475  151.2445 LP  0  0  0  0  0  0  0  0  0  0  0  0  # atno 17370 bound_to 10713
  157.7489  131.0354  150.4361 LP  0  0  0  0  0  0  0  0  0  0  0  0  # atno 17371 bound_to 10713
  139.9789  135.0105  156.9701 LP  0  0  0  0  0  0  0  0  0  0  0  0  # atno 17394 bound_to 11000
  140.5153  134.0961  155.7279 LP  0  0  0  0  0  0  0  0  0  0  0  0  # atno 17395 bound_to 11000

$$$$
