AV-unprocessed.smi:1|AV-procd|sdf|4|dock9
  -GOLD-   2262015 83D 1   1.00000     0.00000
 Structure written by MMmdl.
 57 62  0  0  0  0  0  0  0  0  1 V2000
  152.1081  140.4271  159.6478 O   0  0  0  0  0  0  0  0  0  0  0  0
  151.9640  141.2893  158.7806 C   0  0  0  0  0  0  0  0  0  0  0  0
  151.8173  140.9554  157.3748 N   0  0  0  0  0  0  0  0  0  0  0  0
  151.8653  139.7332  156.7948 C   0  0  0  0  0  0  0  0  0  0  0  0
  152.6617  139.4622  155.7275 N   0  0  0  0  0  0  0  0  0  0  0  0
  152.6795  138.2365  155.1961 C   0  0  0  0  0  0  0  0  0  0  0  0
  151.9943  137.1551  155.5723 N   0  0  0  0  0  0  0  0  0  0  0  0
  151.1887  137.4178  156.6413 C   0  0  0  0  0  0  0  0  0  0  0  0
  151.0688  138.6732  157.3011 C   0  0  0  0  0  0  0  0  0  0  0  0
  150.1565  138.5720  158.3426 N   0  0  0  0  0  0  0  0  0  0  0  0
  149.7638  137.3274  158.2982 C   0  0  0  0  0  0  0  0  0  0  0  0
  150.3418  136.5580  157.3126 N   0  0  0  0  0  0  0  0  0  0  0  0
  150.0849  135.1134  157.0263 C   0  0  1  0  0  0  0  0  0  0  0  0
  148.7821  134.9632  156.5448 O   0  0  0  0  0  0  0  0  0  0  0  0
  148.7918  134.4494  155.2153 C   0  0  2  0  0  0  0  0  0  0  0  0
  147.5596  133.5755  154.9545 C   0  0  0  0  0  0  0  0  0  0  0  0
  147.3162  133.5244  153.5587 O   0  0  0  0  0  0  0  0  0  0  0  0
  146.1404  133.9543  153.0628 C   0  0  0  0  0  0  0  0  0  0  0  0
  145.4448  134.8153  153.6058 O   0  0  0  0  0  0  0  0  0  0  0  0
  145.7666  133.2771  151.7876 C   0  0  0  0  0  0  0  0  0  0  0  0
  144.6554  133.7508  151.0515 C   0  0  0  0  0  0  0  0  0  0  0  0
  144.2774  133.1312  149.8445 C   0  0  0  0  0  0  0  0  0  0  0  0
  145.0063  132.0301  149.3587 C   0  0  0  0  0  0  0  0  0  0  0  0
  146.1138  131.5493  150.0813 C   0  0  0  0  0  0  0  0  0  0  0  0
  146.4936  132.1677  151.2886 C   0  0  0  0  0  0  0  0  0  0  0  0
  150.1245  133.7107  155.1066 C   0  0  2  0  0  0  0  0  0  0  0  0
  150.0468  132.4157  155.6804 O   0  0  0  0  0  0  0  0  0  0  0  0
  151.4231  132.1600  156.5920 S   0  0  0  0  0  0  0  0  0  0  0  0
  151.0106  131.8471  157.9687 O   0  0  0  0  0  0  0  0  0  0  0  0
  152.3349  131.3007  155.8220 O   0  0  0  0  0  0  0  0  0  0  0  0
  152.0261  133.7185  156.5651 O   0  0  0  0  0  0  0  0  0  0  0  0
  151.0561  134.5631  155.9712 C   0  0  2  0  0  0  0  0  0  0  0  0
  151.8478  142.7454  159.1264 C   0  0  0  0  0  0  0  0  0  0  0  0
  152.0564  143.1747  160.4565 C   0  0  0  0  0  0  0  0  0  0  0  0
  151.9616  144.5404  160.7883 C   0  0  0  0  0  0  0  0  0  0  0  0
  151.6651  145.4892  159.7916 C   0  0  0  0  0  0  0  0  0  0  0  0
  151.4682  145.0719  158.4618 C   0  0  0  0  0  0  0  0  0  0  0  0
  151.5626  143.7065  158.1287 C   0  0  0  0  0  0  0  0  0  0  0  0
  151.6680  141.7341  156.7500 H   0  0  0  0  0  0  0  0  0  0  0  0
  153.3387  138.1029  154.3511 H   0  0  0  0  0  0  0  0  0  0  0  0
  149.0380  136.9320  158.9942 H   0  0  0  0  0  0  0  0  0  0  0  0
  150.1689  134.6173  157.9940 H   0  0  0  0  0  0  0  0  0  0  0  0
  148.8029  135.2834  154.5138 H   0  0  0  0  0  0  0  0  0  0  0  0
  147.7402  132.5628  155.3176 H   0  0  0  0  0  0  0  0  0  0  0  0
  146.6905  133.9678  155.4845 H   0  0  0  0  0  0  0  0  0  0  0  0
  144.0805  134.5949  151.4051 H   0  0  0  0  0  0  0  0  0  0  0  0
  143.4269  133.5015  149.2915 H   0  0  0  0  0  0  0  0  0  0  0  0
  144.7163  131.5551  148.4331 H   0  0  0  0  0  0  0  0  0  0  0  0
  146.6746  130.7043  149.7093 H   0  0  0  0  0  0  0  0  0  0  0  0
  147.3491  131.7736  151.8177 H   0  0  0  0  0  0  0  0  0  0  0  0
  150.4725  133.6247  154.0768 H   0  0  0  0  0  0  0  0  0  0  0  0
  151.5128  135.3672  155.3936 H   0  0  0  0  0  0  0  0  0  0  0  0
  152.2854  142.4590  161.2331 H   0  0  0  0  0  0  0  0  0  0  0  0
  152.1171  144.8595  161.8084 H   0  0  0  0  0  0  0  0  0  0  0  0
  151.5924  146.5362  160.0461 H   0  0  0  0  0  0  0  0  0  0  0  0
  151.2468  145.8000  157.6953 H   0  0  0  0  0  0  0  0  0  0  0  0
  151.4167  143.4095  157.1002 H   0  0  0  0  0  0  0  0  0  0  0  0
  1  2  2  0  0  0  0
  2  3  1  0  0  0  0
  2 33  1  0  0  0  0
  3  4  1  0  0  0  0
  3 39  1  0  0  0  0
  4  9  1  0  0  0  0
  4  5  2  0  0  0  0
  5  6  1  0  0  0  0
  6  7  2  0  0  0  0
  6 40  1  0  0  0  0
  7  8  1  0  0  0  0
  8 12  1  0  0  0  0
  8  9  2  0  0  0  0
  9 10  1  0  0  0  0
 10 11  2  0  0  0  0
 11 12  1  0  0  0  0
 11 41  1  0  0  0  0
 12 13  1  0  0  0  0
 13 32  1  0  0  0  0
 13 14  1  0  0  0  0
 13 42  1  0  0  0  0
 14 15  1  0  0  0  0
 15 16  1  0  0  0  0
 15 26  1  0  0  0  0
 15 43  1  0  0  0  0
 16 17  1  0  0  0  0
 16 44  1  0  0  0  0
 16 45  1  0  0  0  0
 17 18  1  0  0  0  0
 18 19  2  0  0  0  0
 18 20  1  0  0  0  0
 20 25  1  0  0  0  0
 20 21  2  0  0  0  0
 21 22  1  0  0  0  0
 21 46  1  0  0  0  0
 22 23  2  0  0  0  0
 22 47  1  0  0  0  0
 23 24  1  0  0  0  0
 23 48  1  0  0  0  0
 24 25  2  0  0  0  0
 24 49  1  0  0  0  0
 25 50  1  0  0  0  0
 26 32  1  0  0  0  0
 26 27  1  0  0  0  0
 26 51  1  0  0  0  0
 27 28  1  0  0  0  0
 28 29  2  0  0  0  0
 28 30  2  0  0  0  0
 28 31  1  0  0  0  0
 31 32  1  0  0  0  0
 32 52  1  0  0  0  0
 33 38  1  0  0  0  0
 33 34  2  0  0  0  0
 34 35  1  0  0  0  0
 34 53  1  0  0  0  0
 35 36  2  0  0  0  0
 35 54  1  0  0  0  0
 36 37  1  0  0  0  0
 36 55  1  0  0  0  0
 37 38  2  0  0  0  0
 37 56  1  0  0  0  0
 38 57  1  0  0  0  0
M  END
> <s_m_source_file>
AV-unprocessed.smi

> <i_m_source_file_index>
1

> <i_lp_mmshare_version>
43012

> <i_f3d_flags>
0

> <s_epik_input>
W2NIXTFbY0hdW2NIXVtjSF1bY0hdYzFDKD1PKVtOSF1jKG5bY0hdbjIpYyhjMjMpbltjSF1uM1tDQEBIXShbQ0BIXShbQ0BIXTQ1KU9TKE81KSg9Tyk9TylPW0NASF00W0NIMl1PQyg9TyljNltjSF1bY0hdW2NIXVtjSF1bY0hdNg==

> <s_epik_cmdline>
J2VwaWtfcHl0aG9uJywgJy1waCcsICc3LjAnLCAnLXRuJywgJzgnLCAnLW1hJywgJzIwMCcsICctbWV0YWxfYmluZGluZycsICctaW1hZScsICc8aW5maWxlLm1hZT4nLCAnLW9tYWUnLCAnPG91dGZpbGUubWFlPic=

> <r_lp_tautomer_probability>
1

> <r_epik_Ionization_Penalty>
0.00195722

> <r_epik_Ionization_Penalty_Charging>
0

> <r_epik_Ionization_Penalty_Neutral>
0.00195722

> <r_epik_State_Penalty>
0.00633741

> <r_epik_Charging_Adjusted_Penalty>
0.00633741

> <i_epik_Tot_Q>
0

> <i_epik_Tot_abs_Q>
0

> <r_epik_Metal_State_Penalty>
0.341185

> <b_epik_Metal_Only>
0

> <s_epik_Chemistry_Notes>
This compound has an ester and may undergo hydrolysis at high or low pH. This compound contains an acetal/aminal-like group ( X-CH(R)-Y where X, Y are N, S, or O) that may be acid/base labile, releasing an aldehyde.

> <s_lp_Force_Field>
OPLS_2005

> <r_lp_Energy>
46.3459

> <b_lp_Chiralities_Consistent>
1

> <s_lp_Variant>
AV-unprocessed.smi:1-4

> <Gold.Version>
5.8.1

> <Gold.Id.Protein>
6NUR|6NUR_protein|mol2

> <Gold.PLP.Fitness>
63.5104

> <Gold.PLP.PLP>
-57.8623

> <Gold.PLP.part.hbond>
-3.0369

> <Gold.PLP.part.metal>
0.0000

> <Gold.PLP.part.buried>
-7.8952

> <Gold.PLP.part.nonpolar>
-47.6919

> <Gold.PLP.part.repulsive>
0.3097

> <Gold.PLP.ligand.clash>
0.0000

> <Gold.PLP.ligand.torsion>
1.6370

> <Gold.PLP.Chemscore.Hbond>
2.9027

> <Gold.PLP.Chemscore.CHOScore>
0.0000

> <Gold.PLP.Chemscore.Metal>
0.0000

> <Gold.Chemscore.Hbonds>
donor molecule, donor type, donor heavy atom, donor atom, acceptor molecule, acceptor atom, score
      P1  H  6896  6907       L1    29  1.00
      P1  H  7997  8010       L1     5  1.00
      P1  H 10752 10763       L1     7  0.92

> <Gold.PLP.Chemscore.Internal.Correction>
0.2140

> <Gold.Rescore>
     Score         DG    S(hbond)    S(metal)    S(lipo)     H(rot)  DE(clash)    DE(int)     intcor
     17.85     -22.97       1.84        0.00     143.54       2.13       0.15       4.98       ----

> <Gold.Chemscore.Fitness>
17.8494

> <Gold.Chemscore.DG>
-22.9703

> <Gold.Chemscore.ZeroCoef>
-5.4800

> <Gold.Chemscore.Hbond>
1.8437

> <Gold.Chemscore.Metal>
0.0000

> <Gold.Chemscore.Lipo>
143.5362

> <Gold.Chemscore.Internal_Hbond>
0.0000

> <Gold.Chemscore.DEClash>
0.1451

> <Gold.Chemscore.DEInternal>
4.9758

> <Gold.Chemscore.Rot>
2.1333

> <Gold.Chemscore.Internal.Correction>
   9.000000E+99

> <Gold.Chemscore.Hbonds>
donor molecule, donor type, donor heavy atom, donor atom, acceptor molecule, acceptor atom, score
      P1  H  6896  6907       L1    29  0.84
      P1  H  7997  8010       L1     5  0.28
      P1  H 10752 10763       L1     7  0.46

> <Gold.Chemscore.Hbond.Weighted>
-6.1580

> <Gold.Chemscore.Metal.Weighted>
-0.0000

> <Gold.Chemscore.Lipo.Weighted>
-16.7937

> <Gold.Chemscore.Internal_Hbond.Weighted>
0.0000

> <Gold.Chemscore.DEClash.Weighted>
0.1451

> <Gold.Chemscore.DEInternal.Weighted>
4.9758

> <Gold.Chemscore.Rot.Weighted>
5.4614

> <Gold.Chemscore.Internal.Correction.Weighted>
   9.000000E+99

> <Gold.Protein.RotatedTorsions>
[ 6907 6896 6895 6894 ] final -163.17 input  -60.11 | X-H torsion
[ 7974 7965 7964 7962 ] final  134.63 input  175.53 | X-H torsion
[ 8008 7997 7996 7995 ] final   74.58 input   59.86 | X-H torsion
[ 10167 10162 10161 10158 ] final -125.49 input  -65.29 | X-H torsion
[ 10718 10713 10712 10709 ] final   30.26 input   66.30 | X-H torsion
[ 10763 10752 10751 10750 ] final   75.08 input  -60.55 | X-H torsion
[ 11005 11000 10999 10996 ] final  -47.71 input  -57.11 | X-H torsion

> <Gold.Protein.ActiveResidues>
 VAL166  LYS551  ARG553  GLY616  TRP617  ASP618  TYR619  PRO620  LYS621  CYS622 
 ASP623  PHE694  ASN695  SER759  ASP760  ASP761  ALA762  ILE779  LEU786  VAL792 
 PHE793  MET794  SER795  GLU796  ALA797  LYS798  CYS799  TRP800  GLU811  SER814 

> <Gold.Protein.RotatedAtoms>
  151.3919  133.3786  159.2721 H   0  0  0  0  0  0  0  0  0  0  0  0  # atno 6907 bound_to 6896
  150.9499  134.8901  159.7676 H   0  0  0  0  0  0  0  0  0  0  0  0  # atno 6908 bound_to 6896
  152.5107  134.3874  159.9424 H   0  0  0  0  0  0  0  0  0  0  0  0  # atno 6909 bound_to 6896
  144.9744  139.4570  143.5417 H   0  0  0  0  0  0  0  0  0  0  0  0  # atno 7974 bound_to 7965
  155.8004  140.3476  155.5400 H   0  0  0  0  0  0  0  0  0  0  0  0  # atno 8008 bound_to 7997
  155.8543  140.0961  157.1675 H   0  0  0  0  0  0  0  0  0  0  0  0  # atno 8009 bound_to 7997
  154.4009  140.1370  156.3870 H   0  0  0  0  0  0  0  0  0  0  0  0  # atno 8010 bound_to 7997
  139.9815  143.5737  152.2376 H   0  0  0  0  0  0  0  0  0  0  0  0  # atno 10167 bound_to 10162
  157.2573  130.7144  149.6436 H   0  0  0  0  0  0  0  0  0  0  0  0  # atno 10718 bound_to 10713
  153.0630  135.5002  154.8137 H   0  0  0  0  0  0  0  0  0  0  0  0  # atno 10763 bound_to 10752
  154.6911  135.2984  154.9480 H   0  0  0  0  0  0  0  0  0  0  0  0  # atno 10764 bound_to 10752
  154.0234  135.6739  153.4827 H   0  0  0  0  0  0  0  0  0  0  0  0  # atno 10765 bound_to 10752
  141.0657  133.6694  156.3336 H   0  0  0  0  0  0  0  0  0  0  0  0  # atno 11005 bound_to 11000
  146.3391  139.8977  142.8799 LP  0  0  0  0  0  0  0  0  0  0  0  0  # atno 17320 bound_to 7965
  145.2511  141.0044  143.3880 LP  0  0  0  0  0  0  0  0  0  0  0  0  # atno 17321 bound_to 7965
  139.6406  144.7654  151.2347 LP  0  0  0  0  0  0  0  0  0  0  0  0  # atno 17342 bound_to 10162
  140.7487  143.6324  150.8411 LP  0  0  0  0  0  0  0  0  0  0  0  0  # atno 17343 bound_to 10162
  155.9664  130.4408  150.5316 LP  0  0  0  0  0  0  0  0  0  0  0  0  # atno 17370 bound_to 10713
  157.3213  131.0682  151.1929 LP  0  0  0  0  0  0  0  0  0  0  0  0  # atno 17371 bound_to 10713
  140.5778  134.5776  157.5472 LP  0  0  0  0  0  0  0  0  0  0  0  0  # atno 17394 bound_to 11000
  139.9474  134.7677  156.0529 LP  0  0  0  0  0  0  0  0  0  0  0  0  # atno 17395 bound_to 11000

$$$$
