AV-unprocessed.smi:863|AV-procd|sdf|3984|dock7
  -GOLD-   22720 1463D 1   1.00000     0.00000
 Structure written by MMmdl.
 42 44  0  0  0  0  0  0  0  0  1 V2000
  153.6387  139.5905  158.7521 O   0  0  0  0  0  0  0  0  0  0  0  0
  152.9208  140.5306  159.0932 C   0  0  0  0  0  0  0  0  0  0  0  0
  153.3377  141.4274  160.2594 C   0  0  0  0  0  0  0  0  0  0  0  0
  152.8407  142.8307  160.0394 C   0  0  0  0  0  0  0  0  0  0  0  0
  152.2600  143.7201  160.9861 C   0  0  0  0  0  0  0  0  0  0  0  0
  151.9966  144.8405  160.2524 C   0  0  0  0  0  0  0  0  0  0  0  0
  152.3754  144.6630  158.9617 O   0  0  0  0  0  0  0  0  0  0  0  0
  152.9107  143.3760  158.8342 N   0  0  0  0  0  0  0  0  0  0  0  0
  151.7581  140.8303  158.4926 N   0  0  0  0  0  0  0  0  0  0  0  0
  151.1846  140.1089  157.3606 C   0  0  2  0  0  0  0  0  0  0  0  0
  152.2878  139.7577  156.3565 C   0  0  0  0  0  0  0  0  0  0  0  0
  151.6884  139.1018  155.1053 C   0  0  0  0  0  0  0  0  0  0  0  0
  150.6953  139.9464  154.5261 O   0  0  0  0  0  0  0  0  0  0  0  0
  149.5817  140.2927  155.3601 C   0  0  0  0  0  0  0  0  0  0  0  0
  148.7553  141.3245  154.5567 C   0  0  0  0  0  0  0  0  0  0  0  0
  148.1240  140.7240  153.2884 C   0  0  0  0  0  0  0  0  0  0  0  0
  147.2608  139.4993  153.6201 C   0  0  0  0  0  0  0  0  0  0  0  0
  148.0707  138.4526  154.3974 C   0  0  0  0  0  0  0  0  0  0  0  0
  148.6892  139.0595  155.6674 C   0  0  0  0  0  0  0  0  0  0  0  0
  150.1142  140.9589  156.6524 C   0  0  0  0  0  0  0  0  0  0  0  0
  152.9545  141.0185  161.1956 H   0  0  0  0  0  0  0  0  0  0  0  0
  154.4251  141.4205  160.3431 H   0  0  0  0  0  0  0  0  0  0  0  0
  152.0693  143.5605  162.0368 H   0  0  0  0  0  0  0  0  0  0  0  0
  151.5618  145.7994  160.4929 H   0  0  0  0  0  0  0  0  0  0  0  0
  151.2365  141.6226  158.8390 H   0  0  0  0  0  0  0  0  0  0  0  0
  150.7394  139.1818  157.7248 H   0  0  0  0  0  0  0  0  0  0  0  0
  152.8260  140.6605  156.0639 H   0  0  0  0  0  0  0  0  0  0  0  0
  153.0198  139.0908  156.8136 H   0  0  0  0  0  0  0  0  0  0  0  0
  152.4718  138.9375  154.3654 H   0  0  0  0  0  0  0  0  0  0  0  0
  151.2783  138.1192  155.3369 H   0  0  0  0  0  0  0  0  0  0  0  0
  147.9623  141.7273  155.1886 H   0  0  0  0  0  0  0  0  0  0  0  0
  149.3824  142.1729  154.2798 H   0  0  0  0  0  0  0  0  0  0  0  0
  147.5186  141.4777  152.7841 H   0  0  0  0  0  0  0  0  0  0  0  0
  148.9081  140.4394  152.5855 H   0  0  0  0  0  0  0  0  0  0  0  0
  146.3980  139.8084  154.2118 H   0  0  0  0  0  0  0  0  0  0  0  0
  146.8667  139.0609  152.7029 H   0  0  0  0  0  0  0  0  0  0  0  0
  147.4295  137.6120  154.6632 H   0  0  0  0  0  0  0  0  0  0  0  0
  148.8589  138.0496  153.7603 H   0  0  0  0  0  0  0  0  0  0  0  0
  149.2374  138.2875  156.2052 H   0  0  0  0  0  0  0  0  0  0  0  0
  147.8835  139.3608  156.3381 H   0  0  0  0  0  0  0  0  0  0  0  0
  149.2870  141.1702  157.3314 H   0  0  0  0  0  0  0  0  0  0  0  0
  150.5507  141.9266  156.3996 H   0  0  0  0  0  0  0  0  0  0  0  0
  1  2  2  0  0  0  0
  2  3  1  0  0  0  0
  2  9  1  0  0  0  0
  3  4  1  0  0  0  0
  3 21  1  0  0  0  0
  3 22  1  0  0  0  0
  4  8  2  0  0  0  0
  4  5  1  0  0  0  0
  5  6  2  0  0  0  0
  5 23  1  0  0  0  0
  6  7  1  0  0  0  0
  6 24  1  0  0  0  0
  7  8  1  0  0  0  0
  9 10  1  0  0  0  0
  9 25  1  0  0  0  0
 10 20  1  0  0  0  0
 10 11  1  0  0  0  0
 10 26  1  0  0  0  0
 11 12  1  0  0  0  0
 11 27  1  0  0  0  0
 11 28  1  0  0  0  0
 12 13  1  0  0  0  0
 12 29  1  0  0  0  0
 12 30  1  0  0  0  0
 13 14  1  0  0  0  0
 14 19  1  0  0  0  0
 14 15  1  0  0  0  0
 14 20  1  0  0  0  0
 15 16  1  0  0  0  0
 15 31  1  0  0  0  0
 15 32  1  0  0  0  0
 16 17  1  0  0  0  0
 16 33  1  0  0  0  0
 16 34  1  0  0  0  0
 17 18  1  0  0  0  0
 17 35  1  0  0  0  0
 17 36  1  0  0  0  0
 18 19  1  0  0  0  0
 18 37  1  0  0  0  0
 18 38  1  0  0  0  0
 19 39  1  0  0  0  0
 19 40  1  0  0  0  0
 20 41  1  0  0  0  0
 20 42  1  0  0  0  0
M  END
> <s_m_source_file>
AV-unprocessed.smi

> <i_m_source_file_index>
863

> <i_lp_mmshare_version>
43012

> <i_f3d_flags>
0

> <s_epik_input>
bjFvW2NIXVtjSF1jMVtDSDJdQyg9TylbTkhdW0NAQEhdKFtDSDJdMilbQ0gyXVtDSDJdT0MyM1tDSDJdW0NIMl1bQ0gyXVtDSDJdW0NIMl0z

> <s_epik_cmdline>
J2VwaWtfcHl0aG9uJywgJy1waCcsICc3LjAnLCAnLXRuJywgJzgnLCAnLW1hJywgJzIwMCcsICctbWV0YWxfYmluZGluZycsICctaW1hZScsICc8aW5maWxlLm1hZT4nLCAnLW9tYWUnLCAnPG91dGZpbGUubWFlPic=

> <r_lp_tautomer_probability>
1

> <r_epik_Ionization_Penalty>
1.10177e-07

> <r_epik_Ionization_Penalty_Charging>
0

> <r_epik_Ionization_Penalty_Neutral>
1.10177e-07

> <r_epik_State_Penalty>
-0

> <r_epik_Charging_Adjusted_Penalty>
0

> <i_epik_Tot_Q>
0

> <i_epik_Tot_abs_Q>
0

> <r_epik_Metal_State_Penalty>
-0

> <b_epik_Metal_Only>
0

> <s_lp_Force_Field>
OPLS_2005

> <r_lp_Energy>
15.5763

> <b_lp_Chiralities_Consistent>
1

> <s_lp_Variant>
AV-unprocessed.smi:863-1

> <Gold.Version>
5.8.1

> <Gold.Id.Protein>
6NUR|6NUR_protein|mol2

> <Gold.PLP.Fitness>
42.5418

> <Gold.PLP.PLP>
-38.7452

> <Gold.PLP.part.hbond>
-2.0000

> <Gold.PLP.part.metal>
0.0000

> <Gold.PLP.part.buried>
-3.4231

> <Gold.PLP.part.nonpolar>
-33.8253

> <Gold.PLP.part.repulsive>
0.2350

> <Gold.PLP.ligand.clash>
0.0000

> <Gold.PLP.ligand.torsion>
0.8772

> <Gold.PLP.Chemscore.Hbond>
1.8500

> <Gold.PLP.Chemscore.CHOScore>
0.0000

> <Gold.PLP.Chemscore.Metal>
0.0000

> <Gold.Chemscore.Hbonds>
donor molecule, donor type, donor heavy atom, donor atom, acceptor molecule, acceptor atom, score
      P1  H  7989  7998       L1    13  1.00
      P1  H  7997  8010       L1     1  1.00

> <Gold.PLP.Chemscore.Internal.Correction>
0.0011

> <Gold.Rescore>
     Score         DG    S(hbond)    S(metal)    S(lipo)     H(rot)  DE(clash)    DE(int)     intcor
     14.29     -17.89       1.16        0.00     104.07       1.42       1.28       2.32       ----

> <Gold.Chemscore.Fitness>
14.2882

> <Gold.Chemscore.DG>
-17.8892

> <Gold.Chemscore.ZeroCoef>
-5.4800

> <Gold.Chemscore.Hbond>
1.1554

> <Gold.Chemscore.Metal>
0.0000

> <Gold.Chemscore.Lipo>
104.0684

> <Gold.Chemscore.Internal_Hbond>
0.0000

> <Gold.Chemscore.DEClash>
1.2791

> <Gold.Chemscore.DEInternal>
2.3219

> <Gold.Chemscore.Rot>
1.4164

> <Gold.Chemscore.Internal.Correction>
   9.000000E+99

> <Gold.Chemscore.Hbonds>
donor molecule, donor type, donor heavy atom, donor atom, acceptor molecule, acceptor atom, score
      P1  H  7989  7998       L1    13  0.30
      P1  H  7997  8010       L1     1  0.75

> <Gold.Chemscore.Hbond.Weighted>
-3.8591

> <Gold.Chemscore.Metal.Weighted>
-0.0000

> <Gold.Chemscore.Lipo.Weighted>
-12.1760

> <Gold.Chemscore.Internal_Hbond.Weighted>
0.0000

> <Gold.Chemscore.DEClash.Weighted>
1.2791

> <Gold.Chemscore.DEInternal.Weighted>
2.3219

> <Gold.Chemscore.Rot.Weighted>
3.6259

> <Gold.Chemscore.Internal.Correction.Weighted>
   9.000000E+99

> <Gold.Protein.RotatedTorsions>
[ 6907 6896 6895 6894 ] final  -99.08 input  -60.11 | X-H torsion
[ 7974 7965 7964 7962 ] final -106.75 input  175.53 | X-H torsion
[ 8008 7997 7996 7995 ] final   30.64 input   59.86 | X-H torsion
[ 10167 10162 10161 10158 ] final  108.71 input  -65.29 | X-H torsion
[ 10718 10713 10712 10709 ] final -134.72 input   66.30 | X-H torsion
[ 10763 10752 10751 10750 ] final  -17.33 input  -60.55 | X-H torsion
[ 11005 11000 10999 10996 ] final   60.30 input  -57.11 | X-H torsion

> <Gold.Protein.ActiveResidues>
 VAL166  LYS551  ARG553  GLY616  TRP617  ASP618  TYR619  PRO620  LYS621  CYS622 
 ASP623  PHE694  ASN695  SER759  ASP760  ASP761  ALA762  ILE779  LEU786  VAL792 
 PHE793  MET794  SER795  GLU796  ALA797  LYS798  CYS799  TRP800  GLU811  SER814 

> <Gold.Protein.RotatedAtoms>
  150.7068  134.1096  159.3995 H   0  0  0  0  0  0  0  0  0  0  0  0  # atno 6907 bound_to 6896
  151.9083  135.0347  160.0521 H   0  0  0  0  0  0  0  0  0  0  0  0  # atno 6908 bound_to 6896
  152.2357  133.5059  159.5278 H   0  0  0  0  0  0  0  0  0  0  0  0  # atno 6909 bound_to 6896
  145.2139  140.9107  143.3298 H   0  0  0  0  0  0  0  0  0  0  0  0  # atno 7974 bound_to 7965
  155.0936  140.3222  155.4567 H   0  0  0  0  0  0  0  0  0  0  0  0  # atno 8008 bound_to 7997
  156.2736  140.2073  156.6009 H   0  0  0  0  0  0  0  0  0  0  0  0  # atno 8009 bound_to 7997
  154.6884  140.0519  157.0325 H   0  0  0  0  0  0  0  0  0  0  0  0  # atno 8010 bound_to 7997
  139.6825  144.7117  151.1491 H   0  0  0  0  0  0  0  0  0  0  0  0  # atno 10167 bound_to 10162
  156.2585  130.7195  151.1121 H   0  0  0  0  0  0  0  0  0  0  0  0  # atno 10718 bound_to 10713
  153.5722  135.7007  153.5499 H   0  0  0  0  0  0  0  0  0  0  0  0  # atno 10763 bound_to 10752
  153.3334  135.4041  155.1513 H   0  0  0  0  0  0  0  0  0  0  0  0  # atno 10764 bound_to 10752
  154.8631  135.3724  154.5246 H   0  0  0  0  0  0  0  0  0  0  0  0  # atno 10765 bound_to 10752
  140.0241  134.6108  155.9597 H   0  0  0  0  0  0  0  0  0  0  0  0  # atno 11005 bound_to 11000
  144.9830  139.3765  143.6253 LP  0  0  0  0  0  0  0  0  0  0  0  0  # atno 17320 bound_to 7965
  146.3391  139.8979  142.8799 LP  0  0  0  0  0  0  0  0  0  0  0  0  # atno 17321 bound_to 7965
  140.7657  143.5679  150.9028 LP  0  0  0  0  0  0  0  0  0  0  0  0  # atno 17342 bound_to 10162
  139.9351  143.6447  152.3067 LP  0  0  0  0  0  0  0  0  0  0  0  0  # atno 17343 bound_to 10162
  157.7241  131.0661  150.6007 LP  0  0  0  0  0  0  0  0  0  0  0  0  # atno 17370 bound_to 10713
  156.6093  130.4375  149.5865 LP  0  0  0  0  0  0  0  0  0  0  0  0  # atno 17371 bound_to 10713
  141.1792  133.6544  156.4951 LP  0  0  0  0  0  0  0  0  0  0  0  0  # atno 17394 bound_to 11000
  140.4336  134.7079  157.4955 LP  0  0  0  0  0  0  0  0  0  0  0  0  # atno 17395 bound_to 11000

$$$$
