AV-unprocessed.smi:3135|AV-procd|sdf|11945|dock7
  -GOLD-   2272017333D 1   1.00000     0.00000
 Structure written by MMmdl.
 38 39  0  0  0  0  0  0  0  0  2 V2000
  143.7808  131.7909  150.5129 C   0  0  0  0  0  0  0  0  0  0  0  0
  144.1786  133.1518  151.0074 C   0  0  0  0  0  0  0  0  0  0  0  0
  143.7160  133.8271  152.1726 C   0  0  0  0  0  0  0  0  0  0  0  0
  144.2650  135.0209  152.3270 N   0  0  0  0  0  0  0  0  0  0  0  0
  145.0956  135.1504  151.2701 N   0  0  0  0  0  0  0  0  0  0  0  0
  145.8845  136.3604  151.1114 C   0  0  0  0  0  0  0  0  0  0  0  0
  145.8991  137.2095  152.3860 C   0  0  0  0  0  0  0  0  0  0  0  0
  144.8393  137.5033  152.9385 O   0  0  0  0  0  0  0  0  0  0  0  0
  147.0981  137.6139  152.8376 N   0  0  0  0  0  0  0  0  0  0  0  0
  147.3079  138.4125  154.0392 C   0  0  0  0  0  0  0  0  0  0  0  0
  148.7880  138.8081  154.2026 C   0  0  0  0  0  0  0  0  0  0  0  0
  149.7044  137.6398  154.2203 N   0  3  1  0  0  0  0  0  0  0  0  0
  151.1209  138.0694  154.1771 C   0  0  0  0  0  0  0  0  0  0  0  0
  149.4478  136.7250  155.3593 C   0  0  0  0  0  0  0  0  0  0  0  0
  149.9842  135.3236  155.1589 C   0  0  0  0  0  0  0  0  0  0  0  0
  148.5024  135.5873  155.0416 C   0  0  0  0  0  0  0  0  0  0  0  0
  145.0598  134.0380  150.4557 C   0  0  0  0  0  0  0  0  0  0  0  0
  143.6479  131.0864  151.3339 H   0  0  0  0  0  0  0  0  0  0  0  0
  144.5313  131.3667  149.8453 H   0  0  0  0  0  0  0  0  0  0  0  0
  142.8413  131.8238  149.9611 H   0  0  0  0  0  0  0  0  0  0  0  0
  143.0010  133.4864  152.9070 H   0  0  0  0  0  0  0  0  0  0  0  0
  146.9062  136.0864  150.8459 H   0  0  0  0  0  0  0  0  0  0  0  0
  145.4811  136.9393  150.2786 H   0  0  0  0  0  0  0  0  0  0  0  0
  147.9202  137.3272  152.3256 H   0  0  0  0  0  0  0  0  0  0  0  0
  146.6648  139.2919  153.9945 H   0  0  0  0  0  0  0  0  0  0  0  0
  146.9794  137.8280  154.8990 H   0  0  0  0  0  0  0  0  0  0  0  0
  149.0592  139.4599  153.3705 H   0  0  0  0  0  0  0  0  0  0  0  0
  148.9350  139.3921  155.1124 H   0  0  0  0  0  0  0  0  0  0  0  0
  151.3744  138.6628  155.0567 H   0  0  0  0  0  0  0  0  0  0  0  0
  151.3153  138.6729  153.2898 H   0  0  0  0  0  0  0  0  0  0  0  0
  151.7933  137.2123  154.1407 H   0  0  0  0  0  0  0  0  0  0  0  0
  149.4708  137.1733  156.3511 H   0  0  0  0  0  0  0  0  0  0  0  0
  150.5220  135.0954  154.2404 H   0  0  0  0  0  0  0  0  0  0  0  0
  150.3253  134.7865  156.0416 H   0  0  0  0  0  0  0  0  0  0  0  0
  147.8654  135.2263  155.8464 H   0  0  0  0  0  0  0  0  0  0  0  0
  148.0650  135.5394  154.0460 H   0  0  0  0  0  0  0  0  0  0  0  0
  145.6598  133.9687  149.5603 H   0  0  0  0  0  0  0  0  0  0  0  0
  149.5367  137.1170  153.3726 H   0  0  0  0  0  0  0  0  0  0  0  0
  1  2  1  0  0  0  0
  1 18  1  0  0  0  0
  1 19  1  0  0  0  0
  1 20  1  0  0  0  0
  2 17  2  0  0  0  0
  2  3  1  0  0  0  0
  3  4  2  0  0  0  0
  3 21  1  0  0  0  0
  4  5  1  0  0  0  0
  5  6  1  0  0  0  0
  5 17  1  0  0  0  0
  6  7  1  0  0  0  0
  6 22  1  0  0  0  0
  6 23  1  0  0  0  0
  7  8  2  0  0  0  0
  7  9  1  0  0  0  0
  9 10  1  0  0  0  0
  9 24  1  0  0  0  0
 10 11  1  0  0  0  0
 10 25  1  0  0  0  0
 10 26  1  0  0  0  0
 11 12  1  0  0  0  0
 11 27  1  0  0  0  0
 11 28  1  0  0  0  0
 12 13  1  0  0  0  0
 12 14  1  0  0  0  0
 12 38  1  0  0  0  0
 13 29  1  0  0  0  0
 13 30  1  0  0  0  0
 13 31  1  0  0  0  0
 14 16  1  0  0  0  0
 14 15  1  0  0  0  0
 14 32  1  0  0  0  0
 15 16  1  0  0  0  0
 15 33  1  0  0  0  0
 15 34  1  0  0  0  0
 16 35  1  0  0  0  0
 16 36  1  0  0  0  0
 17 37  1  0  0  0  0
M  CHG  1  12   1
M  END
> <s_m_source_file>
AV-unprocessed.smi

> <i_m_source_file_index>
3135

> <i_lp_mmshare_version>
43012

> <i_f3d_flags>
0

> <s_epik_input>
W0NIM11jMVtjSF1ubihbY0hdMSlbQ0gyXUMoPU8pW05IXVtDSDJdW0NIMl1OKFtDSDNdKVtDSF0yW0NIMl1bQ0gyXTI=

> <s_epik_cmdline>
J2VwaWtfcHl0aG9uJywgJy1waCcsICc3LjAnLCAnLXRuJywgJzgnLCAnLW1hJywgJzIwMCcsICctbWV0YWxfYmluZGluZycsICctaW1hZScsICc8aW5maWxlLm1hZT4nLCAnLW9tYWUnLCAnPG91dGZpbGUubWFlPic=

> <r_lp_tautomer_probability>
1

> <r_epik_Ionization_Penalty>
0.174318

> <r_epik_Ionization_Penalty_Charging>
0.174302

> <r_epik_Ionization_Penalty_Neutral>
1.62778e-05

> <r_epik_State_Penalty>
0.163722

> <r_epik_Charging_Adjusted_Penalty>
0.338024

> <i_epik_Tot_Q>
1

> <i_epik_Tot_abs_Q>
1

> <r_epik_Metal_State_Penalty>
0.163727

> <b_epik_Metal_Only>
0

> <s_lp_Force_Field>
OPLS_2005

> <r_lp_Energy>
17.6271

> <b_lp_Chiralities_Consistent>
1

> <s_lp_Variant>
AV-unprocessed.smi:3135-1

> <Gold.Version>
5.8.1

> <Gold.Id.Protein>
6NUR|6NUR_protein|mol2

> <Gold.PLP.Fitness>
42.6695

> <Gold.PLP.PLP>
-28.2053

> <Gold.PLP.part.hbond>
-1.9185

> <Gold.PLP.part.metal>
0.0000

> <Gold.PLP.part.buried>
-2.2547

> <Gold.PLP.part.nonpolar>
-23.5293

> <Gold.PLP.part.repulsive>
0.3703

> <Gold.PLP.ligand.clash>
0.0000

> <Gold.PLP.ligand.torsion>
0.9263

> <Gold.PLP.Chemscore.Hbond>
3.0000

> <Gold.PLP.Chemscore.CHOScore>
2.0000

> <Gold.PLP.Chemscore.Metal>
0.0000

> <Gold.Chemscore.Hbonds>
donor molecule, donor type, donor heavy atom, donor atom, acceptor molecule, acceptor atom, score
      L1  H     9    24       P1  7948  1.00
      L1  H    12    38       P1  7948  2.00
      L1  C     3    21       P1 10957  0.93
      L1  C    17    37       P1  7921  1.00

> <Gold.PLP.Chemscore.Internal.Correction>
1.3169

> <Gold.Rescore>
     Score         DG    S(hbond)    S(metal)    S(lipo)     H(rot)  DE(clash)    DE(int)     intcor
     12.08     -14.31       1.91        0.00      63.71       1.96       0.03       2.20       ----

> <Gold.Chemscore.Fitness>
12.0771

> <Gold.Chemscore.DG>
-14.3111

> <Gold.Chemscore.ZeroCoef>
-5.4800

> <Gold.Chemscore.Hbond>
1.9112

> <Gold.Chemscore.Metal>
0.0000

> <Gold.Chemscore.Lipo>
63.7065

> <Gold.Chemscore.Internal_Hbond>
0.0000

> <Gold.Chemscore.DEClash>
0.0348

> <Gold.Chemscore.DEInternal>
2.1992

> <Gold.Chemscore.Rot>
1.9555

> <Gold.Chemscore.Internal.Correction>
   9.000000E+99

> <Gold.Chemscore.Hbonds>
donor molecule, donor type, donor heavy atom, donor atom, acceptor molecule, acceptor atom, score
      L1  H     9    24       P1  7948  0.93
      L1  H    12    38       P1  7948  0.82

> <Gold.Chemscore.Hbond.Weighted>
-6.3834

> <Gold.Chemscore.Metal.Weighted>
-0.0000

> <Gold.Chemscore.Lipo.Weighted>
-7.4537

> <Gold.Chemscore.Internal_Hbond.Weighted>
0.0000

> <Gold.Chemscore.DEClash.Weighted>
0.0348

> <Gold.Chemscore.DEInternal.Weighted>
2.1992

> <Gold.Chemscore.Rot.Weighted>
5.0060

> <Gold.Chemscore.Internal.Correction.Weighted>
   9.000000E+99

> <Gold.Protein.RotatedTorsions>
[ 6907 6896 6895 6894 ] final -101.71 input  -60.11 | X-H torsion
[ 7974 7965 7964 7962 ] final  -48.79 input  175.53 | X-H torsion
[ 8008 7997 7996 7995 ] final   -0.01 input   59.86 | X-H torsion
[ 10167 10162 10161 10158 ] final -177.52 input  -65.29 | X-H torsion
[ 10718 10713 10712 10709 ] final  142.14 input   66.30 | X-H torsion
[ 10763 10752 10751 10750 ] final  -78.34 input  -60.55 | X-H torsion
[ 11005 11000 10999 10996 ] final   53.13 input  -57.11 | X-H torsion

> <Gold.Protein.ActiveResidues>
 VAL166  LYS551  ARG553  GLY616  TRP617  ASP618  TYR619  PRO620  LYS621  CYS622 
 ASP623  PHE694  ASN695  SER759  ASP760  ASP761  ALA762  ILE779  LEU786  VAL792 
 PHE793  MET794  SER795  GLU796  ALA797  LYS798  CYS799  TRP800  GLU811  SER814 

> <Gold.Protein.RotatedAtoms>
  150.7166  134.0693  159.3858 H   0  0  0  0  0  0  0  0  0  0  0  0  # atno 6907 bound_to 6896
  151.8674  135.0499  160.0485 H   0  0  0  0  0  0  0  0  0  0  0  0  # atno 6908 bound_to 6896
  152.2669  133.5312  159.5452 H   0  0  0  0  0  0  0  0  0  0  0  0  # atno 6909 bound_to 6896
  145.9474  140.7604  142.9521 H   0  0  0  0  0  0  0  0  0  0  0  0  # atno 7974 bound_to 7965
  154.6629  140.2594  155.7089 H   0  0  0  0  0  0  0  0  0  0  0  0  # atno 8008 bound_to 7997
  156.2626  140.2845  156.1030 H   0  0  0  0  0  0  0  0  0  0  0  0  # atno 8009 bound_to 7997
  155.1281  140.0378  157.2758 H   0  0  0  0  0  0  0  0  0  0  0  0  # atno 8010 bound_to 7997
  139.5476  144.2194  152.1017 H   0  0  0  0  0  0  0  0  0  0  0  0  # atno 10167 bound_to 10162
  157.3840  131.0996  151.0712 H   0  0  0  0  0  0  0  0  0  0  0  0  # atno 10718 bound_to 10713
  154.5246  135.5733  153.6708 H   0  0  0  0  0  0  0  0  0  0  0  0  # atno 10763 bound_to 10752
  152.9925  135.6190  154.2710 H   0  0  0  0  0  0  0  0  0  0  0  0  # atno 10764 bound_to 10752
  154.2633  135.2855  155.2749 H   0  0  0  0  0  0  0  0  0  0  0  0  # atno 10765 bound_to 10752
  140.0792  134.5362  155.8964 H   0  0  0  0  0  0  0  0  0  0  0  0  # atno 11005 bound_to 11000
  144.6789  140.2380  143.7347 LP  0  0  0  0  0  0  0  0  0  0  0  0  # atno 17320 bound_to 7965
  145.8217  139.2046  143.1934 LP  0  0  0  0  0  0  0  0  0  0  0  0  # atno 17321 bound_to 7965
  140.1683  144.4960  150.6593 LP  0  0  0  0  0  0  0  0  0  0  0  0  # atno 17342 bound_to 10162
  140.6729  143.2293  151.5580 LP  0  0  0  0  0  0  0  0  0  0  0  0  # atno 17343 bound_to 10162
  157.1770  130.6292  149.5659 LP  0  0  0  0  0  0  0  0  0  0  0  0  # atno 17370 bound_to 10713
  155.9782  130.4766  150.6642 LP  0  0  0  0  0  0  0  0  0  0  0  0  # atno 17371 bound_to 10713
  141.2040  133.6636  156.6098 LP  0  0  0  0  0  0  0  0  0  0  0  0  # atno 17394 bound_to 11000
  140.3513  134.7766  157.4469 LP  0  0  0  0  0  0  0  0  0  0  0  0  # atno 17395 bound_to 11000

$$$$
