AV-unprocessed.smi:3219|AV-procd|sdf|12295|dock7
  -GOLD-   2272018133D 1   1.00000     0.00000
 Structure written by MMmdl.
 41 42  0  0  0  0  0  0  0  0  2 V2000
  149.7651  136.8961  154.9683 C   0  0  0  0  0  0  0  0  0  0  0  0
  149.6034  138.3343  154.5936 C   0  0  0  0  0  0  0  0  0  0  0  0
  148.5246  139.0166  154.0964 C   0  0  0  0  0  0  0  0  0  0  0  0
  147.1429  138.5118  153.7700 C   0  0  0  0  0  0  0  0  0  0  0  0
  146.7903  138.7046  152.2876 C   0  0  0  0  0  0  0  0  0  0  0  0
  146.6224  137.4103  151.5971 N   0  3  0  0  0  0  0  0  0  0  0  0
  145.4397  136.6419  152.0319 C   0  0  0  0  0  0  0  0  0  0  0  0
  145.2541  135.3670  151.1892 C   0  0  2  0  0  0  0  0  0  0  0  0
  143.9054  134.6688  151.4856 C   0  0  0  0  0  0  0  0  0  0  0  0
  143.8243  133.2731  150.8930 C   0  0  0  0  0  0  0  0  0  0  0  0
  144.8944  132.5962  150.4445 C   0  0  0  0  0  0  0  0  0  0  0  0
  146.3065  133.1487  150.4859 C   0  0  0  0  0  0  0  0  0  0  0  0
  146.4221  134.3836  151.3988 C   0  0  0  0  0  0  0  0  0  0  0  0
  149.0064  140.3482  153.9514 C   0  0  0  0  0  0  0  0  0  0  0  0
  150.2649  140.4828  154.3284 N   0  0  0  0  0  0  0  0  0  0  0  0
  150.6346  139.2463  154.7196 N   0  0  0  0  0  0  0  0  0  0  0  0
  151.9859  139.0264  155.1976 C   0  0  0  0  0  0  0  0  0  0  0  0
  148.8192  136.3592  154.9031 H   0  0  0  0  0  0  0  0  0  0  0  0
  150.1316  136.7992  155.9905 H   0  0  0  0  0  0  0  0  0  0  0  0
  150.4763  136.4023  154.3059 H   0  0  0  0  0  0  0  0  0  0  0  0
  147.0650  137.4511  154.0108 H   0  0  0  0  0  0  0  0  0  0  0  0
  146.3899  139.0018  154.3878 H   0  0  0  0  0  0  0  0  0  0  0  0
  145.8732  139.2880  152.1950 H   0  0  0  0  0  0  0  0  0  0  0  0
  147.5812  139.2705  151.7935 H   0  0  0  0  0  0  0  0  0  0  0  0
  146.5454  137.5831  150.6051 H   0  0  0  0  0  0  0  0  0  0  0  0
  145.5697  136.3762  153.0820 H   0  0  0  0  0  0  0  0  0  0  0  0
  144.5502  137.2704  151.9697 H   0  0  0  0  0  0  0  0  0  0  0  0
  145.2637  135.6558  150.1366 H   0  0  0  0  0  0  0  0  0  0  0  0
  143.7467  134.5810  152.5611 H   0  0  0  0  0  0  0  0  0  0  0  0
  143.0807  135.2630  151.0906 H   0  0  0  0  0  0  0  0  0  0  0  0
  142.8457  132.8173  150.8519 H   0  0  0  0  0  0  0  0  0  0  0  0
  144.7686  131.6105  150.0206 H   0  0  0  0  0  0  0  0  0  0  0  0
  146.9877  132.3694  150.8285 H   0  0  0  0  0  0  0  0  0  0  0  0
  146.6009  133.4022  149.4670 H   0  0  0  0  0  0  0  0  0  0  0  0
  147.3775  134.8781  151.2188 H   0  0  0  0  0  0  0  0  0  0  0  0
  146.4365  134.0613  152.4409 H   0  0  0  0  0  0  0  0  0  0  0  0
  148.4785  141.2174  153.5875 H   0  0  0  0  0  0  0  0  0  0  0  0
  152.4659  138.2537  154.5966 H   0  0  0  0  0  0  0  0  0  0  0  0
  151.9589  138.7040  156.2386 H   0  0  0  0  0  0  0  0  0  0  0  0
  152.5746  139.9422  155.1273 H   0  0  0  0  0  0  0  0  0  0  0  0
  147.4471  136.8517  151.7641 H   0  0  0  0  0  0  0  0  0  0  0  0
  1  2  1  0  0  0  0
  1 18  1  0  0  0  0
  1 19  1  0  0  0  0
  1 20  1  0  0  0  0
  2 16  1  0  0  0  0
  2  3  2  0  0  0  0
  3  4  1  0  0  0  0
  3 14  1  0  0  0  0
  4  5  1  0  0  0  0
  4 21  1  0  0  0  0
  4 22  1  0  0  0  0
  5  6  1  0  0  0  0
  5 23  1  0  0  0  0
  5 24  1  0  0  0  0
  6  7  1  0  0  0  0
  6 25  1  0  0  0  0
  6 41  1  0  0  0  0
  7  8  1  0  0  0  0
  7 26  1  0  0  0  0
  7 27  1  0  0  0  0
  8 13  1  0  0  0  0
  8  9  1  0  0  0  0
  8 28  1  0  0  0  0
  9 10  1  0  0  0  0
  9 29  1  0  0  0  0
  9 30  1  0  0  0  0
 10 11  2  0  0  0  0
 10 31  1  0  0  0  0
 11 12  1  0  0  0  0
 11 32  1  0  0  0  0
 12 13  1  0  0  0  0
 12 33  1  0  0  0  0
 12 34  1  0  0  0  0
 13 35  1  0  0  0  0
 13 36  1  0  0  0  0
 14 15  2  0  0  0  0
 14 37  1  0  0  0  0
 15 16  1  0  0  0  0
 16 17  1  0  0  0  0
 17 38  1  0  0  0  0
 17 39  1  0  0  0  0
 17 40  1  0  0  0  0
M  CHG  1   6   1
M  END
> <s_m_source_file>
AV-unprocessed.smi

> <i_m_source_file_index>
3219

> <i_lp_mmshare_version>
43012

> <i_f3d_flags>
0

> <s_epik_input>
W0NIM11uMW5bY0hdYyhjMVtDSDNdKVtDSDJdW0NIMl1bTkhdW0NIMl1bQ0BASF0yW0NIMl1bQ0hdPVtDSF1bQ0gyXVtDSDJdMg==

> <s_epik_cmdline>
J2VwaWtfcHl0aG9uJywgJy1waCcsICc3LjAnLCAnLXRuJywgJzgnLCAnLW1hJywgJzIwMCcsICctbWV0YWxfYmluZGluZycsICctaW1hZScsICc8aW5maWxlLm1hZT4nLCAnLW9tYWUnLCAnPG91dGZpbGUubWFlPic=

> <r_lp_tautomer_probability>
1

> <r_epik_Ionization_Penalty>
0.000661401

> <r_epik_Ionization_Penalty_Charging>
0.00057791

> <r_epik_Ionization_Penalty_Neutral>
8.34914e-05

> <r_epik_State_Penalty>
-0

> <r_epik_Charging_Adjusted_Penalty>
0.00057791

> <i_epik_Tot_Q>
1

> <i_epik_Tot_abs_Q>
1

> <r_epik_Metal_State_Penalty>
-0

> <b_epik_Metal_Only>
0

> <s_lp_Force_Field>
OPLS_2005

> <r_lp_Energy>
9.86252

> <b_lp_Chiralities_Consistent>
1

> <s_lp_Variant>
AV-unprocessed.smi:3219-1

> <Gold.Version>
5.8.1

> <Gold.Id.Protein>
6NUR|6NUR_protein|mol2

> <Gold.PLP.Fitness>
44.0972

> <Gold.PLP.PLP>
-36.1273

> <Gold.PLP.part.hbond>
-2.0000

> <Gold.PLP.part.metal>
0.0000

> <Gold.PLP.part.buried>
-1.8904

> <Gold.PLP.part.nonpolar>
-32.2702

> <Gold.PLP.part.repulsive>
0.2119

> <Gold.PLP.ligand.clash>
0.0000

> <Gold.PLP.ligand.torsion>
0.4167

> <Gold.PLP.Chemscore.Hbond>
2.9280

> <Gold.PLP.Chemscore.CHOScore>
0.0000

> <Gold.PLP.Chemscore.Metal>
0.0000

> <Gold.Chemscore.Hbonds>
donor molecule, donor type, donor heavy atom, donor atom, acceptor molecule, acceptor atom, score
      L1  H     6    41       P1  7948  2.00
      P1  H  7989  7998       L1    15  0.87

> <Gold.PLP.Chemscore.Internal.Correction>
0.0194

> <Gold.Rescore>
     Score         DG    S(hbond)    S(metal)    S(lipo)     H(rot)  DE(clash)    DE(int)     intcor
     17.67     -18.43       1.89        0.00      88.63       1.46       0.36       0.41       ----

> <Gold.Chemscore.Fitness>
17.6721

> <Gold.Chemscore.DG>
-18.4346

> <Gold.Chemscore.ZeroCoef>
-5.4800

> <Gold.Chemscore.Hbond>
1.8929

> <Gold.Chemscore.Metal>
0.0000

> <Gold.Chemscore.Lipo>
88.6255

> <Gold.Chemscore.Internal_Hbond>
0.0000

> <Gold.Chemscore.DEClash>
0.3574

> <Gold.Chemscore.DEInternal>
0.4051

> <Gold.Chemscore.Rot>
1.4597

> <Gold.Chemscore.Internal.Correction>
   9.000000E+99

> <Gold.Chemscore.Hbonds>
donor molecule, donor type, donor heavy atom, donor atom, acceptor molecule, acceptor atom, score
      L1  H     6    41       P1  7948  0.99
      P1  H  7989  7998       L1    15  0.19

> <Gold.Chemscore.Hbond.Weighted>
-6.3222

> <Gold.Chemscore.Metal.Weighted>
-0.0000

> <Gold.Chemscore.Lipo.Weighted>
-10.3692

> <Gold.Chemscore.Internal_Hbond.Weighted>
0.0000

> <Gold.Chemscore.DEClash.Weighted>
0.3574

> <Gold.Chemscore.DEInternal.Weighted>
0.4051

> <Gold.Chemscore.Rot.Weighted>
3.7368

> <Gold.Chemscore.Internal.Correction.Weighted>
   9.000000E+99

> <Gold.Protein.RotatedTorsions>
[ 6907 6896 6895 6894 ] final   82.78 input  -60.11 | X-H torsion
[ 7974 7965 7964 7962 ] final    7.54 input  175.53 | X-H torsion
[ 8008 7997 7996 7995 ] final    9.01 input   59.86 | X-H torsion
[ 10167 10162 10161 10158 ] final   71.91 input  -65.29 | X-H torsion
[ 10718 10713 10712 10709 ] final   50.35 input   66.30 | X-H torsion
[ 10763 10752 10751 10750 ] final   -2.37 input  -60.55 | X-H torsion
[ 11005 11000 10999 10996 ] final  153.49 input  -57.11 | X-H torsion

> <Gold.Protein.ActiveResidues>
 VAL166  LYS551  ARG553  GLY616  TRP617  ASP618  TYR619  PRO620  LYS621  CYS622 
 ASP623  PHE694  ASN695  SER759  ASP760  ASP761  ALA762  ILE779  LEU786  VAL792 
 PHE793  MET794  SER795  GLU796  ALA797  LYS798  CYS799  TRP800  GLU811  SER814 

> <Gold.Protein.RotatedAtoms>
  152.5309  134.2997  159.9073 H   0  0  0  0  0  0  0  0  0  0  0  0  # atno 6907 bound_to 6896
  151.2947  133.4143  159.2643 H   0  0  0  0  0  0  0  0  0  0  0  0  # atno 6908 bound_to 6896
  151.0170  134.9456  159.8095 H   0  0  0  0  0  0  0  0  0  0  0  0  # atno 6909 bound_to 6896
  146.2425  140.0068  142.8410 H   0  0  0  0  0  0  0  0  0  0  0  0  # atno 7974 bound_to 7965
  154.7744  140.2807  155.6112 H   0  0  0  0  0  0  0  0  0  0  0  0  # atno 8008 bound_to 7997
  156.2939  140.2635  156.2482 H   0  0  0  0  0  0  0  0  0  0  0  0  # atno 8009 bound_to 7997
  154.9860  140.0374  157.2288 H   0  0  0  0  0  0  0  0  0  0  0  0  # atno 8010 bound_to 7997
  140.0409  144.5390  150.7435 H   0  0  0  0  0  0  0  0  0  0  0  0  # atno 10167 bound_to 10162
  157.4876  130.8355  149.8165 H   0  0  0  0  0  0  0  0  0  0  0  0  # atno 10718 bound_to 10713
  153.3571  135.6988  153.6742 H   0  0  0  0  0  0  0  0  0  0  0  0  # atno 10763 bound_to 10752
  153.5445  135.3566  155.2733 H   0  0  0  0  0  0  0  0  0  0  0  0  # atno 10764 bound_to 10752
  154.8662  135.4211  154.2820 H   0  0  0  0  0  0  0  0  0  0  0  0  # atno 10765 bound_to 10752
  140.1403  134.8743  157.2321 H   0  0  0  0  0  0  0  0  0  0  0  0  # atno 11005 bound_to 11000
  145.1364  140.9547  143.4514 LP  0  0  0  0  0  0  0  0  0  0  0  0  # atno 17320 bound_to 7965
  145.0337  139.3318  143.6011 LP  0  0  0  0  0  0  0  0  0  0  0  0  # atno 17321 bound_to 7965
  140.7260  143.2637  151.4118 LP  0  0  0  0  0  0  0  0  0  0  0  0  # atno 17342 bound_to 10162
  139.6014  144.1287  152.2202 LP  0  0  0  0  0  0  0  0  0  0  0  0  # atno 17343 bound_to 10162
  156.0155  130.3815  150.2124 LP  0  0  0  0  0  0  0  0  0  0  0  0  # atno 17370 bound_to 10713
  157.0312  131.0008  151.3311 LP  0  0  0  0  0  0  0  0  0  0  0  0  # atno 17371 bound_to 10713
  140.2731  134.3437  155.7367 LP  0  0  0  0  0  0  0  0  0  0  0  0  # atno 17394 bound_to 11000
  141.2185  133.7435  156.9252 LP  0  0  0  0  0  0  0  0  0  0  0  0  # atno 17395 bound_to 11000

$$$$
