AV-unprocessed.smi:2482|AV-procd|sdf|9782|dock8
  -GOLD-   2272013423D 1   1.00000     0.00000
 Structure written by MMmdl.
 34 35  0  0  0  0  0  0  0  0  3 V2000
  152.4886  143.3430  161.4543 C   0  0  0  0  0  0  0  0  0  0  0  0
  151.9832  142.8935  160.0961 C   0  0  0  0  0  0  0  0  0  0  0  0
  150.9948  143.6449  159.5647 N   0  0  0  0  0  0  0  0  0  0  0  0
  150.5148  143.2878  158.3571 C   0  0  0  0  0  0  0  0  0  0  0  0
  150.9902  142.1776  157.6341 C   0  0  0  0  0  0  0  0  0  0  0  0
  152.0182  141.3777  158.1808 C   0  0  0  0  0  0  0  0  0  0  0  0
  152.4859  140.3189  157.4990 N   0  5  0  0  0  0  0  0  0  0  0  0
  151.6732  139.2645  157.2460 C   0  0  0  0  0  0  0  0  0  0  0  0
  150.8847  138.7041  158.0103 O   0  0  0  0  0  0  0  0  0  0  0  0
  151.8254  138.7697  155.7900 C   0  0  1  0  0  0  0  0  0  0  0  0
  151.1846  137.3890  155.5127 C   0  0  0  0  0  0  0  0  0  0  0  0
  149.7049  137.4712  155.5438 N   0  3  2  0  0  0  0  0  0  0  0  0
  149.0553  136.1576  155.3513 C   0  0  0  0  0  0  0  0  0  0  0  0
  149.2145  138.4985  154.5976 C   0  0  0  0  0  0  0  0  0  0  0  0
  149.8709  139.8561  154.8966 C   0  0  0  0  0  0  0  0  0  0  0  0
  151.2908  139.7200  154.8600 O   0  0  0  0  0  0  0  0  0  0  0  0
  152.5287  141.7587  159.4490 C   0  0  0  0  0  0  0  0  0  0  0  0
  153.8013  140.8541  160.2030 Cl  0  0  0  0  0  0  0  0  0  0  0  0
  152.3376  142.5566  162.1942 H   0  0  0  0  0  0  0  0  0  0  0  0
  151.9679  144.2365  161.8010 H   0  0  0  0  0  0  0  0  0  0  0  0
  153.5535  143.5717  161.4057 H   0  0  0  0  0  0  0  0  0  0  0  0
  149.7272  143.9064  157.9528 H   0  0  0  0  0  0  0  0  0  0  0  0
  150.5658  141.9429  156.6687 H   0  0  0  0  0  0  0  0  0  0  0  0
  152.8954  138.6887  155.5923 H   0  0  0  0  0  0  0  0  0  0  0  0
  151.5049  137.0272  154.5345 H   0  0  0  0  0  0  0  0  0  0  0  0
  151.5308  136.6554  156.2427 H   0  0  0  0  0  0  0  0  0  0  0  0
  149.2842  135.7475  154.3669 H   0  0  0  0  0  0  0  0  0  0  0  0
  147.9726  136.2477  155.4425 H   0  0  0  0  0  0  0  0  0  0  0  0
  149.3952  135.4475  156.1060 H   0  0  0  0  0  0  0  0  0  0  0  0
  149.4399  138.1920  153.5750 H   0  0  0  0  0  0  0  0  0  0  0  0
  148.1301  138.5864  154.6756 H   0  0  0  0  0  0  0  0  0  0  0  0
  149.5726  140.5872  154.1452 H   0  0  0  0  0  0  0  0  0  0  0  0
  149.5363  140.2478  155.8580 H   0  0  0  0  0  0  0  0  0  0  0  0
  149.4563  137.7871  156.4711 H   0  0  0  0  0  0  0  0  0  0  0  0
  1  2  1  0  0  0  0
  1 19  1  0  0  0  0
  1 20  1  0  0  0  0
  1 21  1  0  0  0  0
  2 17  1  0  0  0  0
  2  3  2  0  0  0  0
  3  4  1  0  0  0  0
  4  5  2  0  0  0  0
  4 22  1  0  0  0  0
  5  6  1  0  0  0  0
  5 23  1  0  0  0  0
  6  7  1  0  0  0  0
  6 17  2  0  0  0  0
  7  8  1  0  0  0  0
  8  9  2  0  0  0  0
  8 10  1  0  0  0  0
 10 16  1  0  0  0  0
 10 11  1  0  0  0  0
 10 24  1  0  0  0  0
 11 12  1  0  0  0  0
 11 25  1  0  0  0  0
 11 26  1  0  0  0  0
 12 13  1  0  0  0  0
 12 14  1  0  0  0  0
 12 34  1  0  0  0  0
 13 27  1  0  0  0  0
 13 28  1  0  0  0  0
 13 29  1  0  0  0  0
 14 15  1  0  0  0  0
 14 30  1  0  0  0  0
 14 31  1  0  0  0  0
 15 16  1  0  0  0  0
 15 32  1  0  0  0  0
 15 33  1  0  0  0  0
 17 18  1  0  0  0  0
M  CHG  1   7  -1
M  CHG  1  12   1
M  END
> <s_m_source_file>
AV-unprocessed.smi

> <i_m_source_file_index>
2482

> <i_lp_mmshare_version>
43012

> <i_f3d_flags>
0

> <s_epik_input>
W0NIM11jMW5bY0hdW2NIXWMoYzFDbClbTkhdQyg9TylbQ0BASF0yW0NIMl1OKFtDSDNdKVtDSDJdW0NIMl1PMg==

> <s_epik_cmdline>
J2VwaWtfcHl0aG9uJywgJy1waCcsICc3LjAnLCAnLXRuJywgJzgnLCAnLW1hJywgJzIwMCcsICctbWV0YWxfYmluZGluZycsICctaW1hZScsICc8aW5maWxlLm1hZT4nLCAnLW9tYWUnLCAnPG91dGZpbGUubWFlPic=

> <r_epik_Ionization_Penalty>
6.9249

> <r_epik_Ionization_Penalty_Charging>
6.74596

> <r_epik_Ionization_Penalty_Neutral>
0.178941

> <r_epik_State_Penalty>
6.78185

> <r_epik_Charging_Adjusted_Penalty>
13.5278

> <i_epik_Tot_Q>
0

> <i_epik_Tot_abs_Q>
2

> <r_epik_Metal_State_Penalty>
2.70608

> <b_epik_Metal_Only>
1

> <s_lp_Force_Field>
OPLS_2005

> <r_lp_Energy>
12.3896

> <b_lp_Chiralities_Consistent>
1

> <s_lp_Variant>
AV-unprocessed.smi:2482-8

> <Gold.Version>
5.8.1

> <Gold.Id.Protein>
6NUR|6NUR_protein|mol2

> <Gold.PLP.Fitness>
41.7580

> <Gold.PLP.PLP>
-31.6536

> <Gold.PLP.part.hbond>
-2.0000

> <Gold.PLP.part.metal>
0.0000

> <Gold.PLP.part.buried>
-3.7161

> <Gold.PLP.part.nonpolar>
-26.4895

> <Gold.PLP.part.repulsive>
0.1357

> <Gold.PLP.ligand.clash>
0.0000

> <Gold.PLP.ligand.torsion>
1.2049

> <Gold.PLP.Chemscore.Hbond>
2.8880

> <Gold.PLP.Chemscore.CHOScore>
1.1226

> <Gold.PLP.Chemscore.Metal>
0.0000

> <Gold.Chemscore.Hbonds>
donor molecule, donor type, donor heavy atom, donor atom, acceptor molecule, acceptor atom, score
      P1  H  7989  7998       L1    16  0.95
      P1  H  7997  8008       L1     7  1.68
      L1  C     4    22       P1  8028  0.96
      L1  C     4    22       P1  8029  0.11

> <Gold.PLP.Chemscore.Internal.Correction>
0.4823

> <Gold.Rescore>
     Score         DG    S(hbond)    S(metal)    S(lipo)     H(rot)  DE(clash)    DE(int)     intcor
     18.33     -19.87       1.88        0.00      91.19       1.00       0.04       1.50       ----

> <Gold.Chemscore.Fitness>
18.3300

> <Gold.Chemscore.DG>
-19.8716

> <Gold.Chemscore.ZeroCoef>
-5.4800

> <Gold.Chemscore.Hbond>
1.8810

> <Gold.Chemscore.Metal>
0.0000

> <Gold.Chemscore.Lipo>
91.1876

> <Gold.Chemscore.Internal_Hbond>
0.0000

> <Gold.Chemscore.DEClash>
0.0427

> <Gold.Chemscore.DEInternal>
1.4988

> <Gold.Chemscore.Rot>
1.0000

> <Gold.Chemscore.Internal.Correction>
   9.000000E+99

> <Gold.Chemscore.Hbonds>
donor molecule, donor type, donor heavy atom, donor atom, acceptor molecule, acceptor atom, score
      P1  H  7989  7998       L1    16  0.22
      P1  H  7997  8008       L1     7  0.67

> <Gold.Chemscore.Hbond.Weighted>
-6.2826

> <Gold.Chemscore.Metal.Weighted>
-0.0000

> <Gold.Chemscore.Lipo.Weighted>
-10.6690

> <Gold.Chemscore.Internal_Hbond.Weighted>
0.0000

> <Gold.Chemscore.DEClash.Weighted>
0.0427

> <Gold.Chemscore.DEInternal.Weighted>
1.4988

> <Gold.Chemscore.Rot.Weighted>
2.5600

> <Gold.Chemscore.Internal.Correction.Weighted>
   9.000000E+99

> <Gold.Protein.RotatedTorsions>
[ 6907 6896 6895 6894 ] final -122.91 input  -60.11 | X-H torsion
[ 7974 7965 7964 7962 ] final -105.25 input  175.53 | X-H torsion
[ 8008 7997 7996 7995 ] final  -61.03 input   59.86 | X-H torsion
[ 10167 10162 10161 10158 ] final    3.84 input  -65.29 | X-H torsion
[ 10718 10713 10712 10709 ] final -139.85 input   66.30 | X-H torsion
[ 10763 10752 10751 10750 ] final   85.16 input  -60.55 | X-H torsion
[ 11005 11000 10999 10996 ] final -104.19 input  -57.11 | X-H torsion

> <Gold.Protein.ActiveResidues>
 VAL166  LYS551  ARG553  GLY616  TRP617  ASP618  TYR619  PRO620  LYS621  CYS622 
 ASP623  PHE694  ASN695  SER759  ASP760  ASP761  ALA762  ILE779  LEU786  VAL792 
 PHE793  MET794  SER795  GLU796  ALA797  LYS798  CYS799  TRP800  GLU811  SER814 

> <Gold.Protein.RotatedAtoms>
  150.8620  133.7629  159.2988 H   0  0  0  0  0  0  0  0  0  0  0  0  # atno 6907 bound_to 6896
  151.5268  135.1066  159.9902 H   0  0  0  0  0  0  0  0  0  0  0  0  # atno 6908 bound_to 6896
  152.4633  133.7825  159.6914 H   0  0  0  0  0  0  0  0  0  0  0  0  # atno 6909 bound_to 6896
  145.2329  140.9177  143.3194 H   0  0  0  0  0  0  0  0  0  0  0  0  # atno 7974 bound_to 7965
  154.4427  140.1026  156.6366 H   0  0  0  0  0  0  0  0  0  0  0  0  # atno 8008 bound_to 7997
  155.5547  140.3486  155.4458 H   0  0  0  0  0  0  0  0  0  0  0  0  # atno 8009 bound_to 7997
  156.0504  140.1302  157.0046 H   0  0  0  0  0  0  0  0  0  0  0  0  # atno 8010 bound_to 7997
  140.6565  143.7413  150.7663 H   0  0  0  0  0  0  0  0  0  0  0  0  # atno 10167 bound_to 10162
  156.3155  130.7505  151.1591 H   0  0  0  0  0  0  0  0  0  0  0  0  # atno 10718 bound_to 10713
  153.1449  135.4627  154.9551 H   0  0  0  0  0  0  0  0  0  0  0  0  # atno 10763 bound_to 10752
  154.7778  135.3178  154.8057 H   0  0  0  0  0  0  0  0  0  0  0  0  # atno 10764 bound_to 10752
  153.8573  135.6916  153.4840 H   0  0  0  0  0  0  0  0  0  0  0  0  # atno 10765 bound_to 10752
  141.1111  133.8703  157.1580 H   0  0  0  0  0  0  0  0  0  0  0  0  # atno 11005 bound_to 11000
  144.9660  139.3929  143.6332 LP  0  0  0  0  0  0  0  0  0  0  0  0  # atno 17320 bound_to 7965
  146.3348  139.8736  142.8836 LP  0  0  0  0  0  0  0  0  0  0  0  0  # atno 17321 bound_to 7965
  140.1074  143.4731  152.2390 LP  0  0  0  0  0  0  0  0  0  0  0  0  # atno 17342 bound_to 10162
  139.5789  144.7501  151.3692 LP  0  0  0  0  0  0  0  0  0  0  0  0  # atno 17343 bound_to 10162
  157.7400  131.0522  150.5192 LP  0  0  0  0  0  0  0  0  0  0  0  0  # atno 17370 bound_to 10713
  156.5337  130.4191  149.6188 LP  0  0  0  0  0  0  0  0  0  0  0  0  # atno 17371 bound_to 10713
  140.0006  135.0029  157.0182 LP  0  0  0  0  0  0  0  0  0  0  0  0  # atno 17394 bound_to 11000
  140.4771  134.1327  155.7211 LP  0  0  0  0  0  0  0  0  0  0  0  0  # atno 17395 bound_to 11000

$$$$
