AV-unprocessed.smi:1080|AV-procd|sdf|4708|dock8
  -GOLD-   22720 3233D 1   1.00000     0.00000
 Structure written by MMmdl.
 49 51  0  0  0  0  0  0  0  0  2 V2000
  150.8310  140.7877  156.5807 O   0  0  0  0  0  0  0  0  0  0  0  0
  150.2504  141.8625  156.4312 C   0  0  0  0  0  0  0  0  0  0  0  0
  150.4070  142.9458  157.2121 N   0  0  0  0  0  0  0  0  0  0  0  0
  151.2180  143.0980  158.3701 C   0  0  0  0  0  0  0  0  0  0  0  0
  151.3494  144.3983  158.9068 C   0  0  0  0  0  0  0  0  0  0  0  0
  152.1303  144.5991  160.0631 C   0  0  0  0  0  0  0  0  0  0  0  0
  152.7391  143.5487  160.6539 N   0  3  0  0  0  0  0  0  0  0  0  0
  152.6325  142.2864  160.1869 C   0  0  0  0  0  0  0  0  0  0  0  0
  151.8644  142.0239  159.0341 C   0  0  0  0  0  0  0  0  0  0  0  0
  149.3830  142.1023  155.4370 N   0  0  0  0  0  0  0  0  0  0  0  0
  148.9862  141.1392  154.4138 C   0  0  2  0  0  0  0  0  0  0  0  0
  147.7698  141.6550  153.6182 C   0  0  0  0  0  0  0  0  0  0  0  0
  147.2891  140.6179  152.5901 C   0  0  0  0  0  0  0  0  0  0  0  0
  146.9595  139.2681  153.2608 C   0  0  1  0  0  0  0  0  0  0  0  0
  146.4727  138.2441  152.2118 C   0  0  0  0  0  0  0  0  0  0  0  0
  146.6728  138.4906  151.0211 O   0  0  0  0  0  0  0  0  0  0  0  0
  145.8721  137.0945  152.6119 N   0  0  0  0  0  0  0  0  0  0  0  0
  145.4580  136.8703  154.0027 C   0  0  0  0  0  0  0  0  0  0  0  0
  143.9433  137.1159  154.1162 C   0  0  0  0  0  0  0  0  0  0  0  0
  143.0067  135.9491  153.0773 S   0  0  0  0  0  0  0  0  0  0  0  0
  143.9122  136.1333  151.5082 C   0  0  0  0  0  0  0  0  0  0  0  0
  145.4271  136.0044  151.7352 C   0  0  0  0  0  0  0  0  0  0  0  0
  148.1937  138.7550  154.0372 C   0  0  0  0  0  0  0  0  0  0  0  0
  148.6689  139.7852  155.0743 C   0  0  0  0  0  0  0  0  0  0  0  0
  149.9221  143.7787  156.9115 H   0  0  0  0  0  0  0  0  0  0  0  0
  150.8608  145.2391  158.4356 H   0  0  0  0  0  0  0  0  0  0  0  0
  152.2838  145.5607  160.5305 H   0  0  0  0  0  0  0  0  0  0  0  0
  153.1563  141.5269  160.7489 H   0  0  0  0  0  0  0  0  0  0  0  0
  151.7785  141.0041  158.6920 H   0  0  0  0  0  0  0  0  0  0  0  0
  148.9572  143.0162  155.3857 H   0  0  0  0  0  0  0  0  0  0  0  0
  149.8202  140.9907  153.7249 H   0  0  0  0  0  0  0  0  0  0  0  0
  146.9530  141.8912  154.3017 H   0  0  0  0  0  0  0  0  0  0  0  0
  148.0210  142.5840  153.1052 H   0  0  0  0  0  0  0  0  0  0  0  0
  146.4138  141.0064  152.0683 H   0  0  0  0  0  0  0  0  0  0  0  0
  148.0606  140.4786  151.8311 H   0  0  0  0  0  0  0  0  0  0  0  0
  146.1846  139.4196  154.0108 H   0  0  0  0  0  0  0  0  0  0  0  0
  145.6998  135.8520  154.3107 H   0  0  0  0  0  0  0  0  0  0  0  0
  145.9890  137.5162  154.7031 H   0  0  0  0  0  0  0  0  0  0  0  0
  143.6159  137.0045  155.1500 H   0  0  0  0  0  0  0  0  0  0  0  0
  143.7009  138.1350  153.8127 H   0  0  0  0  0  0  0  0  0  0  0  0
  143.5642  135.3700  150.8123 H   0  0  0  0  0  0  0  0  0  0  0  0
  143.6718  137.1020  151.0685 H   0  0  0  0  0  0  0  0  0  0  0  0
  145.9615  135.9777  150.7869 H   0  0  0  0  0  0  0  0  0  0  0  0
  145.6488  135.0418  152.1984 H   0  0  0  0  0  0  0  0  0  0  0  0
  147.9572  137.8157  154.5391 H   0  0  0  0  0  0  0  0  0  0  0  0
  149.0158  138.5414  153.3520 H   0  0  0  0  0  0  0  0  0  0  0  0
  149.5516  139.4047  155.5895 H   0  0  0  0  0  0  0  0  0  0  0  0
  147.8980  139.9138  155.8356 H   0  0  0  0  0  0  0  0  0  0  0  0
  153.2990  143.7149  161.4907 H   0  0  0  0  0  0  0  0  0  0  0  0
  1  2  2  0  0  0  0
  2  3  1  0  0  0  0
  2 10  1  0  0  0  0
  3  4  1  0  0  0  0
  3 25  1  0  0  0  0
  4  9  1  0  0  0  0
  4  5  2  0  0  0  0
  5  6  1  0  0  0  0
  5 26  1  0  0  0  0
  6  7  2  0  0  0  0
  6 27  1  0  0  0  0
  7  8  1  0  0  0  0
  7 49  1  0  0  0  0
  8  9  2  0  0  0  0
  8 28  1  0  0  0  0
  9 29  1  0  0  0  0
 10 11  1  0  0  0  0
 10 30  1  0  0  0  0
 11 24  1  0  0  0  0
 11 12  1  0  0  0  0
 11 31  1  0  0  0  0
 12 13  1  0  0  0  0
 12 32  1  0  0  0  0
 12 33  1  0  0  0  0
 13 14  1  0  0  0  0
 13 34  1  0  0  0  0
 13 35  1  0  0  0  0
 14 15  1  0  0  0  0
 14 23  1  0  0  0  0
 14 36  1  0  0  0  0
 15 16  2  0  0  0  0
 15 17  1  0  0  0  0
 17 22  1  0  0  0  0
 17 18  1  0  0  0  0
 18 19  1  0  0  0  0
 18 37  1  0  0  0  0
 18 38  1  0  0  0  0
 19 20  1  0  0  0  0
 19 39  1  0  0  0  0
 19 40  1  0  0  0  0
 20 21  1  0  0  0  0
 21 22  1  0  0  0  0
 21 41  1  0  0  0  0
 21 42  1  0  0  0  0
 22 43  1  0  0  0  0
 22 44  1  0  0  0  0
 23 24  1  0  0  0  0
 23 45  1  0  0  0  0
 23 46  1  0  0  0  0
 24 47  1  0  0  0  0
 24 48  1  0  0  0  0
M  CHG  1   7   1
M  END
> <s_m_source_file>
AV-unprocessed.smi

> <i_m_source_file_index>
1080

> <i_lp_mmshare_version>
43012

> <i_f3d_flags>
0

> <s_epik_input>
W2NIXTFbY0hdbltjSF1bY0hdYzFbTkhdQyg9TylbTkhdW0NAQEhdMltDSDJdW0NIMl1bQ0BIXShbQ0gyXVtDSDJdMilDKD1PKU4zW0NIMl1bQ0gyXVNbQ0gyXVtDSDJdMw==

> <s_epik_cmdline>
J2VwaWtfcHl0aG9uJywgJy1waCcsICc3LjAnLCAnLXRuJywgJzgnLCAnLW1hJywgJzIwMCcsICctbWV0YWxfYmluZGluZycsICctaW1hZScsICc8aW5maWxlLm1hZT4nLCAnLW9tYWUnLCAnPG91dGZpbGUubWFlPic=

> <r_epik_Ionization_Penalty>
1.01281

> <r_epik_Ionization_Penalty_Charging>
1.01278

> <r_epik_Ionization_Penalty_Neutral>
2.07681e-05

> <r_epik_State_Penalty>
1.06237

> <r_epik_Charging_Adjusted_Penalty>
2.07515

> <i_epik_Tot_Q>
1

> <i_epik_Tot_abs_Q>
1

> <r_epik_Metal_State_Penalty>
1.16243

> <b_epik_Metal_Only>
0

> <s_lp_Force_Field>
OPLS_2005

> <r_lp_Energy>
38.1228

> <b_lp_Chiralities_Consistent>
1

> <s_lp_Variant>
AV-unprocessed.smi:1080-3

> <Gold.Version>
5.8.1

> <Gold.Id.Protein>
6NUR|6NUR_protein|mol2

> <Gold.PLP.Fitness>
50.9681

> <Gold.PLP.PLP>
-42.8831

> <Gold.PLP.part.hbond>
-3.0000

> <Gold.PLP.part.metal>
0.0000

> <Gold.PLP.part.buried>
-3.8985

> <Gold.PLP.part.nonpolar>
-37.6968

> <Gold.PLP.part.repulsive>
1.3129

> <Gold.PLP.ligand.clash>
0.0000

> <Gold.PLP.ligand.torsion>
0.4876

> <Gold.PLP.Chemscore.Hbond>
3.0000

> <Gold.PLP.Chemscore.CHOScore>
0.0000

> <Gold.PLP.Chemscore.Metal>
0.0000

> <Gold.Chemscore.Hbonds>
donor molecule, donor type, donor heavy atom, donor atom, acceptor molecule, acceptor atom, score
      L1  H     3    25       P1  8028  1.00
      L1  H    10    30       P1  8028  1.00
      P1  H  7954  7966       L1    16  1.00

> <Gold.PLP.Chemscore.Internal.Correction>
0.0601

> <Gold.Rescore>
     Score         DG    S(hbond)    S(metal)    S(lipo)     H(rot)  DE(clash)    DE(int)     intcor
     19.47     -25.33       2.92        0.00     113.71       1.25       2.82       3.04       ----

> <Gold.Chemscore.Fitness>
19.4709

> <Gold.Chemscore.DG>
-25.3292

> <Gold.Chemscore.ZeroCoef>
-5.4800

> <Gold.Chemscore.Hbond>
2.9167

> <Gold.Chemscore.Metal>
0.0000

> <Gold.Chemscore.Lipo>
113.7065

> <Gold.Chemscore.Internal_Hbond>
0.0000

> <Gold.Chemscore.DEClash>
2.8193

> <Gold.Chemscore.DEInternal>
3.0390

> <Gold.Chemscore.Rot>
1.2486

> <Gold.Chemscore.Internal.Correction>
   9.000000E+99

> <Gold.Chemscore.Hbonds>
donor molecule, donor type, donor heavy atom, donor atom, acceptor molecule, acceptor atom, score
      L1  H     3    25       P1  8028  0.95
      L1  H    10    30       P1  8028  0.98
      P1  H  7954  7966       L1    16  0.95

> <Gold.Chemscore.Hbond.Weighted>
-9.7418

> <Gold.Chemscore.Metal.Weighted>
-0.0000

> <Gold.Chemscore.Lipo.Weighted>
-13.3037

> <Gold.Chemscore.Internal_Hbond.Weighted>
0.0000

> <Gold.Chemscore.DEClash.Weighted>
2.8193

> <Gold.Chemscore.DEInternal.Weighted>
3.0390

> <Gold.Chemscore.Rot.Weighted>
3.1963

> <Gold.Chemscore.Internal.Correction.Weighted>
   9.000000E+99

> <Gold.Protein.RotatedTorsions>
[ 6907 6896 6895 6894 ] final   71.91 input  -60.11 | X-H torsion
[ 7974 7965 7964 7962 ] final   94.40 input  175.53 | X-H torsion
[ 8008 7997 7996 7995 ] final   63.99 input   59.86 | X-H torsion
[ 10167 10162 10161 10158 ] final -141.78 input  -65.29 | X-H torsion
[ 10718 10713 10712 10709 ] final  102.13 input   66.30 | X-H torsion
[ 10763 10752 10751 10750 ] final  -48.63 input  -60.55 | X-H torsion
[ 11005 11000 10999 10996 ] final  145.11 input  -57.11 | X-H torsion

> <Gold.Protein.ActiveResidues>
 VAL166  LYS551  ARG553  GLY616  TRP617  ASP618  TYR619  PRO620  LYS621  CYS622 
 ASP623  PHE694  ASN695  SER759  ASP760  ASP761  ALA762  ILE779  LEU786  VAL792 
 PHE793  MET794  SER795  GLU796  ALA797  LYS798  CYS799  TRP800  GLU811  SER814 

> <Gold.Protein.RotatedAtoms>
  152.4838  134.4649  159.9616 H   0  0  0  0  0  0  0  0  0  0  0  0  # atno 6907 bound_to 6896
  151.4650  133.3577  159.2822 H   0  0  0  0  0  0  0  0  0  0  0  0  # atno 6908 bound_to 6896
  150.8931  134.8362  159.7368 H   0  0  0  0  0  0  0  0  0  0  0  0  # atno 6909 bound_to 6896
  145.4660  139.2284  143.2961 H   0  0  0  0  0  0  0  0  0  0  0  0  # atno 7974 bound_to 7965
  155.6389  140.3496  155.4708 H   0  0  0  0  0  0  0  0  0  0  0  0  # atno 8008 bound_to 7997
  155.9942  140.1200  157.0633 H   0  0  0  0  0  0  0  0  0  0  0  0  # atno 8009 bound_to 7997
  154.4228  140.1113  156.5593 H   0  0  0  0  0  0  0  0  0  0  0  0  # atno 8010 bound_to 7997
  139.8152  143.7648  152.2665 H   0  0  0  0  0  0  0  0  0  0  0  0  # atno 10167 bound_to 10162
  157.6810  131.0745  150.5358 H   0  0  0  0  0  0  0  0  0  0  0  0  # atno 10718 bound_to 10713
  154.0809  135.6591  153.4837 H   0  0  0  0  0  0  0  0  0  0  0  0  # atno 10763 bound_to 10752
  153.0356  135.5179  154.7475 H   0  0  0  0  0  0  0  0  0  0  0  0  # atno 10764 bound_to 10752
  154.6570  135.3009  154.9883 H   0  0  0  0  0  0  0  0  0  0  0  0  # atno 10765 bound_to 10752
  140.0686  134.9164  157.1306 H   0  0  0  0  0  0  0  0  0  0  0  0  # atno 11005 bound_to 11000
  146.2424  140.5434  142.8928 LP  0  0  0  0  0  0  0  0  0  0  0  0  # atno 17320 bound_to 7965
  144.7974  140.6148  143.6501 LP  0  0  0  0  0  0  0  0  0  0  0  0  # atno 17321 bound_to 7965
  139.7810  144.7444  151.0089 LP  0  0  0  0  0  0  0  0  0  0  0  0  # atno 17342 bound_to 10162
  140.7816  143.4543  151.0368 LP  0  0  0  0  0  0  0  0  0  0  0  0  # atno 17343 bound_to 10162
  156.5666  130.4269  149.6038 LP  0  0  0  0  0  0  0  0  0  0  0  0  # atno 17370 bound_to 10713
  156.2776  130.7052  151.1867 LP  0  0  0  0  0  0  0  0  0  0  0  0  # atno 17371 bound_to 10713
  140.3661  134.2441  155.7182 LP  0  0  0  0  0  0  0  0  0  0  0  0  # atno 17394 bound_to 11000
  141.2003  133.7991  157.0497 LP  0  0  0  0  0  0  0  0  0  0  0  0  # atno 17395 bound_to 11000

$$$$
