AV-unprocessed.smi:3349|AV-procd|sdf|12932|dock4
  -GOLD-   2272019363D 1   1.00000     0.00000
 Structure written by MMmdl.
 40 41  0  0  0  0  0  0  0  0  1 V2000
  151.1436  145.3464  159.3803 C   0  0  0  0  0  0  0  0  0  0  0  0
  151.4745  143.8404  159.2212 C   0  0  1  0  0  0  0  0  0  0  0  0
  151.7597  143.5481  157.7193 C   0  0  0  0  0  0  0  0  0  0  0  0
  150.6668  142.8473  157.0504 N   0  0  0  0  0  0  0  0  0  0  0  0
  150.6558  141.5358  156.7618 C   0  0  0  0  0  0  0  0  0  0  0  0
  151.5898  140.7818  157.0383 O   0  0  0  0  0  0  0  0  0  0  0  0
  149.3946  141.0025  156.0623 C   0  0  2  0  0  0  0  0  0  0  0  0
  149.2194  141.5598  154.6347 C   0  0  0  0  0  0  0  0  0  0  0  0
  148.2167  141.2379  156.8884 N   0  0  0  0  0  0  0  0  0  0  0  0
  147.7185  142.3797  157.3677 C   0  0  0  0  0  0  0  0  0  0  0  0
  146.5953  142.2310  158.0558 N   0  0  0  0  0  0  0  0  0  0  0  0
  146.4389  140.8782  157.9468 C   0  0  0  0  0  0  0  0  0  0  0  0
  147.3770  140.2361  157.2512 N   0  0  0  0  0  0  0  0  0  0  0  0
  152.5603  143.3941  160.1252 N   0  0  0  0  0  0  0  0  0  0  0  0
  152.1940  143.5165  161.5413 C   0  0  0  0  0  0  0  0  0  0  0  0
  153.2990  143.0243  162.4916 C   0  0  0  0  0  0  0  0  0  0  0  0
  153.6230  141.6746  162.1889 O   0  0  0  0  0  0  0  0  0  0  0  0
  154.0625  141.5218  160.8468 C   0  0  0  0  0  0  0  0  0  0  0  0
  152.9648  142.0040  159.8823 C   0  0  0  0  0  0  0  0  0  0  0  0
  150.3841  145.6831  158.6756 H   0  0  0  0  0  0  0  0  0  0  0  0
  152.0298  145.9628  159.2256 H   0  0  0  0  0  0  0  0  0  0  0  0
  150.7386  145.5785  160.3643 H   0  0  0  0  0  0  0  0  0  0  0  0
  150.5730  143.2879  159.4900 H   0  0  0  0  0  0  0  0  0  0  0  0
  151.9405  144.4825  157.1871 H   0  0  0  0  0  0  0  0  0  0  0  0
  152.6516  142.9390  157.5803 H   0  0  0  0  0  0  0  0  0  0  0  0
  149.8623  143.3995  156.7917 H   0  0  0  0  0  0  0  0  0  0  0  0
  149.5122  139.9212  155.9731 H   0  0  0  0  0  0  0  0  0  0  0  0
  150.0840  141.3268  154.0124 H   0  0  0  0  0  0  0  0  0  0  0  0
  149.0916  142.6430  154.6305 H   0  0  0  0  0  0  0  0  0  0  0  0
  148.3442  141.1233  154.1527 H   0  0  0  0  0  0  0  0  0  0  0  0
  148.1855  143.3404  157.2074 H   0  0  0  0  0  0  0  0  0  0  0  0
  145.6062  140.3513  158.3891 H   0  0  0  0  0  0  0  0  0  0  0  0
  151.9946  144.5553  161.7976 H   0  0  0  0  0  0  0  0  0  0  0  0
  151.2763  142.9592  161.7352 H   0  0  0  0  0  0  0  0  0  0  0  0
  154.1892  143.6496  162.4071 H   0  0  0  0  0  0  0  0  0  0  0  0
  152.9623  143.0853  163.5265 H   0  0  0  0  0  0  0  0  0  0  0  0
  154.9862  142.0816  160.6918 H   0  0  0  0  0  0  0  0  0  0  0  0
  154.2911  140.4715  160.6652 H   0  0  0  0  0  0  0  0  0  0  0  0
  152.0976  141.3467  159.9623 H   0  0  0  0  0  0  0  0  0  0  0  0
  153.3603  141.8873  158.8758 H   0  0  0  0  0  0  0  0  0  0  0  0
  1  2  1  0  0  0  0
  1 20  1  0  0  0  0
  1 21  1  0  0  0  0
  1 22  1  0  0  0  0
  2  3  1  0  0  0  0
  2 14  1  0  0  0  0
  2 23  1  0  0  0  0
  3  4  1  0  0  0  0
  3 24  1  0  0  0  0
  3 25  1  0  0  0  0
  4  5  1  0  0  0  0
  4 26  1  0  0  0  0
  5  6  2  0  0  0  0
  5  7  1  0  0  0  0
  7  8  1  0  0  0  0
  7  9  1  0  0  0  0
  7 27  1  0  0  0  0
  8 28  1  0  0  0  0
  8 29  1  0  0  0  0
  8 30  1  0  0  0  0
  9 13  1  0  0  0  0
  9 10  1  0  0  0  0
 10 11  2  0  0  0  0
 10 31  1  0  0  0  0
 11 12  1  0  0  0  0
 12 13  2  0  0  0  0
 12 32  1  0  0  0  0
 14 19  1  0  0  0  0
 14 15  1  0  0  0  0
 15 16  1  0  0  0  0
 15 33  1  0  0  0  0
 15 34  1  0  0  0  0
 16 17  1  0  0  0  0
 16 35  1  0  0  0  0
 16 36  1  0  0  0  0
 17 18  1  0  0  0  0
 18 19  1  0  0  0  0
 18 37  1  0  0  0  0
 18 38  1  0  0  0  0
 19 39  1  0  0  0  0
 19 40  1  0  0  0  0
M  END
> <s_m_source_file>
AV-unprocessed.smi

> <i_m_source_file_index>
3349

> <i_lp_mmshare_version>
43012

> <i_f3d_flags>
0

> <s_epik_input>
W0NIMl0xW0NIMl1PW0NIMl1bQ0gyXU4xW0NASF0oW0NIM10pW0NIMl1bTkhdQyg9TylbQ0BIXShbQ0gzXSluMltjSF1uW2NIXW4y

> <s_epik_cmdline>
J2VwaWtfcHl0aG9uJywgJy1waCcsICc3LjAnLCAnLXRuJywgJzgnLCAnLW1hJywgJzIwMCcsICctbWV0YWxfYmluZGluZycsICctaW1hZScsICc8aW5maWxlLm1hZT4nLCAnLW9tYWUnLCAnPG91dGZpbGUubWFlPic=

> <r_lp_tautomer_probability>
1

> <r_epik_Ionization_Penalty>
0.211373

> <r_epik_Ionization_Penalty_Charging>
0

> <r_epik_Ionization_Penalty_Neutral>
0.211373

> <r_epik_State_Penalty>
0.201459

> <r_epik_Charging_Adjusted_Penalty>
0.201459

> <i_epik_Tot_Q>
0

> <i_epik_Tot_abs_Q>
0

> <r_epik_Metal_State_Penalty>
0.201458

> <b_epik_Metal_Only>
0

> <s_lp_Force_Field>
OPLS_2005

> <r_lp_Energy>
34.2526

> <b_lp_Chiralities_Consistent>
1

> <s_lp_Variant>
AV-unprocessed.smi:3349-2

> <Gold.Version>
5.8.1

> <Gold.Id.Protein>
6NUR|6NUR_protein|mol2

> <Gold.PLP.Fitness>
40.1321

> <Gold.PLP.PLP>
-37.1126

> <Gold.PLP.part.hbond>
-1.0000

> <Gold.PLP.part.metal>
0.0000

> <Gold.PLP.part.buried>
-5.5979

> <Gold.PLP.part.nonpolar>
-30.3327

> <Gold.PLP.part.repulsive>
0.1296

> <Gold.PLP.ligand.clash>
0.0000

> <Gold.PLP.ligand.torsion>
0.9993

> <Gold.PLP.Chemscore.Hbond>
1.0000

> <Gold.PLP.Chemscore.CHOScore>
0.6244

> <Gold.PLP.Chemscore.Metal>
0.0000

> <Gold.Chemscore.Hbonds>
donor molecule, donor type, donor heavy atom, donor atom, acceptor molecule, acceptor atom, score
      L1  H     4    26       P1  8028  1.00
      L1  C    10    31       P1  8028  0.62

> <Gold.PLP.Chemscore.Internal.Correction>
0.1450

> <Gold.Rescore>
     Score         DG    S(hbond)    S(metal)    S(lipo)     H(rot)  DE(clash)    DE(int)     intcor
     11.99     -12.93       0.99        0.00      91.39       2.56       0.03       0.91       ----

> <Gold.Chemscore.Fitness>
11.9897

> <Gold.Chemscore.DG>
-12.9308

> <Gold.Chemscore.ZeroCoef>
-5.4800

> <Gold.Chemscore.Hbond>
0.9891

> <Gold.Chemscore.Metal>
0.0000

> <Gold.Chemscore.Lipo>
91.3944

> <Gold.Chemscore.Internal_Hbond>
0.0000

> <Gold.Chemscore.DEClash>
0.0328

> <Gold.Chemscore.DEInternal>
0.9082

> <Gold.Chemscore.Rot>
2.5570

> <Gold.Chemscore.Internal.Correction>
   9.000000E+99

> <Gold.Chemscore.Hbonds>
donor molecule, donor type, donor heavy atom, donor atom, acceptor molecule, acceptor atom, score
      L1  H     4    26       P1  8028  0.95

> <Gold.Chemscore.Hbond.Weighted>
-3.3035

> <Gold.Chemscore.Metal.Weighted>
-0.0000

> <Gold.Chemscore.Lipo.Weighted>
-10.6931

> <Gold.Chemscore.Internal_Hbond.Weighted>
0.0000

> <Gold.Chemscore.DEClash.Weighted>
0.0328

> <Gold.Chemscore.DEInternal.Weighted>
0.9082

> <Gold.Chemscore.Rot.Weighted>
6.5459

> <Gold.Chemscore.Internal.Correction.Weighted>
   9.000000E+99

> <Gold.Protein.RotatedTorsions>
[ 6907 6896 6895 6894 ] final   -6.53 input  -60.11 | X-H torsion
[ 7974 7965 7964 7962 ] final  -83.00 input  175.53 | X-H torsion
[ 8008 7997 7996 7995 ] final -160.24 input   59.86 | X-H torsion
[ 10167 10162 10161 10158 ] final  109.51 input  -65.29 | X-H torsion
[ 10718 10713 10712 10709 ] final -153.16 input   66.30 | X-H torsion
[ 10763 10752 10751 10750 ] final -127.96 input  -60.55 | X-H torsion
[ 11005 11000 10999 10996 ] final   60.90 input  -57.11 | X-H torsion

> <Gold.Protein.ActiveResidues>
 VAL166  LYS551  ARG553  GLY616  TRP617  ASP618  TYR619  PRO620  LYS621  CYS622 
 ASP623  PHE694  ASN695  SER759  ASP760  ASP761  ALA762  ILE779  LEU786  VAL792 
 PHE793  MET794  SER795  GLU796  ALA797  LYS798  CYS799  TRP800  GLU811  SER814 

> <Gold.Protein.RotatedAtoms>
  151.4641  135.1041  159.9732 H   0  0  0  0  0  0  0  0  0  0  0  0  # atno 6907 bound_to 6896
  152.4841  133.8325  159.7121 H   0  0  0  0  0  0  0  0  0  0  0  0  # atno 6908 bound_to 6896
  150.8937  133.7149  159.2924 H   0  0  0  0  0  0  0  0  0  0  0  0  # atno 6909 bound_to 6896
  145.5258  140.9526  143.1630 H   0  0  0  0  0  0  0  0  0  0  0  0  # atno 7974 bound_to 7965
  155.7745  140.0856  157.2091 H   0  0  0  0  0  0  0  0  0  0  0  0  # atno 8008 bound_to 7997
  154.3994  140.1519  156.3037 H   0  0  0  0  0  0  0  0  0  0  0  0  # atno 8009 bound_to 7997
  155.8715  140.3425  155.5827 H   0  0  0  0  0  0  0  0  0  0  0  0  # atno 8010 bound_to 7997
  139.6761  144.7122  151.1599 H   0  0  0  0  0  0  0  0  0  0  0  0  # atno 10167 bound_to 10162
  156.4821  130.8308  151.2534 H   0  0  0  0  0  0  0  0  0  0  0  0  # atno 10718 bound_to 10713
  154.8754  135.3944  154.3679 H   0  0  0  0  0  0  0  0  0  0  0  0  # atno 10763 bound_to 10752
  153.4443  135.7027  153.6154 H   0  0  0  0  0  0  0  0  0  0  0  0  # atno 10764 bound_to 10752
  153.4722  135.3788  155.2366 H   0  0  0  0  0  0  0  0  0  0  0  0  # atno 10765 bound_to 10752
  140.0199  134.6169  155.9655 H   0  0  0  0  0  0  0  0  0  0  0  0  # atno 11005 bound_to 11000
  144.7652  139.6863  143.7218 LP  0  0  0  0  0  0  0  0  0  0  0  0  # atno 17320 bound_to 7965
  146.2076  139.5411  142.9702 LP  0  0  0  0  0  0  0  0  0  0  0  0  # atno 17321 bound_to 7965
  140.7636  143.5770  150.8935 LP  0  0  0  0  0  0  0  0  0  0  0  0  # atno 17342 bound_to 10162
  139.9439  143.6350  152.3047 LP  0  0  0  0  0  0  0  0  0  0  0  0  # atno 17343 bound_to 10162
  157.7482  131.0041  150.3065 LP  0  0  0  0  0  0  0  0  0  0  0  0  # atno 17370 bound_to 10713
  156.3511  130.3831  149.7328 LP  0  0  0  0  0  0  0  0  0  0  0  0  # atno 17371 bound_to 10713
  141.1767  133.6541  156.4856 LP  0  0  0  0  0  0  0  0  0  0  0  0  # atno 17394 bound_to 11000
  140.4406  134.7019  157.4989 LP  0  0  0  0  0  0  0  0  0  0  0  0  # atno 17395 bound_to 11000

$$$$
