AV-unprocessed.smi:1324|AV-procd|sdf|5470|dock10
  -GOLD-   22720 5 43D 1   1.00000     0.00000
 Structure written by MMmdl.
 43 44  0  0  0  0  0  0  0  0  1 V2000
  146.3178  138.0948  152.4731 C   0  0  0  0  0  0  0  0  0  0  0  0
  147.1774  139.1536  153.1292 C   0  0  0  0  0  0  0  0  0  0  0  0
  146.5465  140.3796  153.2610 N   0  0  0  0  0  0  0  0  0  0  0  0
  147.2512  141.4091  153.8592 C   0  0  0  0  0  0  0  0  0  0  0  0
  146.4863  142.7164  153.9697 C   0  0  0  0  0  0  0  0  0  0  0  0
  148.5235  141.2287  154.2961 C   0  0  0  0  0  0  0  0  0  0  0  0
  149.3378  142.3390  154.9606 C   0  0  0  0  0  0  0  0  0  0  0  0
  149.8019  142.0770  156.3960 C   0  0  0  0  0  0  0  0  0  0  0  0
  149.5562  141.0059  156.9516 O   0  0  0  0  0  0  0  0  0  0  0  0
  150.4757  143.0768  156.9856 N   0  0  0  0  0  0  0  0  0  0  0  0
  151.0132  143.0555  158.3446 C   0  0  0  0  0  0  0  0  0  0  0  0
  151.3021  144.5061  158.7963 C   0  0  0  0  0  0  0  0  0  0  0  0
  152.2242  144.6937  160.0145 C   0  0  0  0  0  0  0  0  0  0  0  0
  152.0846  143.6434  161.1270 C   0  0  0  0  0  0  0  0  0  0  0  0
  152.9541  142.4002  160.8769 C   0  0  0  0  0  0  0  0  0  0  0  0
  152.4322  141.4617  159.7797 C   0  0  0  0  0  0  0  0  0  0  0  0
  152.2318  142.1112  158.3981 C   0  0  0  0  0  0  0  0  0  0  0  0
  149.1512  139.8990  154.1122 C   0  0  0  0  0  0  0  0  0  0  0  0
  150.3088  139.6791  154.4663 O   0  0  0  0  0  0  0  0  0  0  0  0
  148.3886  138.8839  153.5116 N   0  0  0  0  0  0  0  0  0  0  0  0
  145.6027  140.5574  152.9488 H   0  0  0  0  0  0  0  0  0  0  0  0
  146.7813  137.1108  152.5547 H   0  0  0  0  0  0  0  0  0  0  0  0
  146.1809  138.3215  151.4153 H   0  0  0  0  0  0  0  0  0  0  0  0
  145.3376  138.0483  152.9488 H   0  0  0  0  0  0  0  0  0  0  0  0
  146.3525  142.9920  155.0159 H   0  0  0  0  0  0  0  0  0  0  0  0
  145.4979  142.6441  153.5140 H   0  0  0  0  0  0  0  0  0  0  0  0
  147.0281  143.5178  153.4668 H   0  0  0  0  0  0  0  0  0  0  0  0
  148.7837  143.2781  154.9382 H   0  0  0  0  0  0  0  0  0  0  0  0
  150.2255  142.5272  154.3566 H   0  0  0  0  0  0  0  0  0  0  0  0
  150.6280  143.9206  156.4524 H   0  0  0  0  0  0  0  0  0  0  0  0
  150.2440  142.6365  158.9960 H   0  0  0  0  0  0  0  0  0  0  0  0
  151.7314  145.0713  157.9677 H   0  0  0  0  0  0  0  0  0  0  0  0
  150.3472  144.9880  159.0098 H   0  0  0  0  0  0  0  0  0  0  0  0
  153.2620  144.7299  159.6811 H   0  0  0  0  0  0  0  0  0  0  0  0
  152.0261  145.6811  160.4330 H   0  0  0  0  0  0  0  0  0  0  0  0
  152.4203  144.0969  162.0601 H   0  0  0  0  0  0  0  0  0  0  0  0
  151.0401  143.3726  161.2860 H   0  0  0  0  0  0  0  0  0  0  0  0
  153.9757  142.7041  160.6457 H   0  0  0  0  0  0  0  0  0  0  0  0
  153.0210  141.8313  161.8048 H   0  0  0  0  0  0  0  0  0  0  0  0
  153.1399  140.6386  159.6757 H   0  0  0  0  0  0  0  0  0  0  0  0
  151.4986  141.0024  160.1065 H   0  0  0  0  0  0  0  0  0  0  0  0
  152.0797  141.2975  157.6873 H   0  0  0  0  0  0  0  0  0  0  0  0
  153.1373  142.6236  158.0712 H   0  0  0  0  0  0  0  0  0  0  0  0
  1 22  1  0  0  0  0
  1 23  1  0  0  0  0
  1 24  1  0  0  0  0
  1  2  1  0  0  0  0
  2  3  1  0  0  0  0
  2 20  2  0  0  0  0
  3  4  1  0  0  0  0
  3 21  1  0  0  0  0
  4  6  2  0  0  0  0
  4  5  1  0  0  0  0
  5 25  1  0  0  0  0
  5 26  1  0  0  0  0
  5 27  1  0  0  0  0
  6 18  1  0  0  0  0
  6  7  1  0  0  0  0
  7  8  1  0  0  0  0
  7 28  1  0  0  0  0
  7 29  1  0  0  0  0
  8  9  2  0  0  0  0
  8 10  1  0  0  0  0
 10 11  1  0  0  0  0
 10 30  1  0  0  0  0
 11 17  1  0  0  0  0
 11 12  1  0  0  0  0
 11 31  1  0  0  0  0
 12 13  1  0  0  0  0
 12 32  1  0  0  0  0
 12 33  1  0  0  0  0
 13 14  1  0  0  0  0
 13 34  1  0  0  0  0
 13 35  1  0  0  0  0
 14 15  1  0  0  0  0
 14 36  1  0  0  0  0
 14 37  1  0  0  0  0
 15 16  1  0  0  0  0
 15 38  1  0  0  0  0
 15 39  1  0  0  0  0
 16 17  1  0  0  0  0
 16 40  1  0  0  0  0
 16 41  1  0  0  0  0
 17 42  1  0  0  0  0
 17 43  1  0  0  0  0
 18 19  2  0  0  0  0
 18 20  1  0  0  0  0
M  END
> <s_m_source_file>
AV-unprocessed.smi

> <i_m_source_file_index>
1324

> <i_lp_mmshare_version>
43012

> <i_f3d_flags>
0

> <s_epik_input>
W0NIM11jMW5jKFtDSDNdKWMoYyg9TylbbkhdMSlbQ0gyXUMoPU8pW05IXVtDSF0yW0NIMl1bQ0gyXVtDSDJdW0NIMl1bQ0gyXVtDSDJdMg==

> <s_epik_cmdline>
J2VwaWtfcHl0aG9uJywgJy1waCcsICc3LjAnLCAnLXRuJywgJzgnLCAnLW1hJywgJzIwMCcsICctbWV0YWxfYmluZGluZycsICctaW1hZScsICc8aW5maWxlLm1hZT4nLCAnLW9tYWUnLCAnPG91dGZpbGUubWFlPic=

> <r_lp_tautomer_probability>
0.156392

> <r_epik_Ionization_Penalty>
0.0140222

> <r_epik_Ionization_Penalty_Charging>
0.0138986

> <r_epik_Ionization_Penalty_Neutral>
0.000123575

> <r_epik_State_Penalty>
1.53084

> <r_epik_Charging_Adjusted_Penalty>
1.54474

> <i_epik_Tot_Q>
0

> <i_epik_Tot_abs_Q>
0

> <r_epik_Metal_State_Penalty>
1.70646

> <b_epik_Metal_Only>
0

> <s_lp_Force_Field>
OPLS_2005

> <r_lp_Energy>
20.3035

> <b_lp_Chiralities_Consistent>
1

> <s_lp_Variant>
AV-unprocessed.smi:1324-2

> <Gold.Version>
5.8.1

> <Gold.Id.Protein>
6NUR|6NUR_protein|mol2

> <Gold.PLP.Fitness>
47.0042

> <Gold.PLP.PLP>
-40.4088

> <Gold.PLP.part.hbond>
-3.0000

> <Gold.PLP.part.metal>
0.0000

> <Gold.PLP.part.buried>
1.7222

> <Gold.PLP.part.nonpolar>
-40.2567

> <Gold.PLP.part.repulsive>
1.7782

> <Gold.PLP.ligand.clash>
0.0000

> <Gold.PLP.ligand.torsion>
0.1918

> <Gold.PLP.Chemscore.Hbond>
2.3200

> <Gold.PLP.Chemscore.CHOScore>
0.0000

> <Gold.PLP.Chemscore.Metal>
0.0000

> <Gold.Chemscore.Hbonds>
donor molecule, donor type, donor heavy atom, donor atom, acceptor molecule, acceptor atom, score
      L1  H     3    21       P1 10175  1.00
      L1  H    10    30       P1  8028  0.27
      P1  H  7989  7998       L1    19  1.00

> <Gold.PLP.Chemscore.Internal.Correction>
0.0191

> <Gold.Rescore>
     Score         DG    S(hbond)    S(metal)    S(lipo)     H(rot)  DE(clash)    DE(int)     intcor
     18.36     -22.26       2.28        0.00     110.82       1.48       2.78       1.11       ----

> <Gold.Chemscore.Fitness>
18.3630

> <Gold.Chemscore.DG>
-22.2582

> <Gold.Chemscore.ZeroCoef>
-5.4800

> <Gold.Chemscore.Hbond>
2.2758

> <Gold.Chemscore.Metal>
0.0000

> <Gold.Chemscore.Lipo>
110.8218

> <Gold.Chemscore.Internal_Hbond>
0.0000

> <Gold.Chemscore.DEClash>
2.7804

> <Gold.Chemscore.DEInternal>
1.1148

> <Gold.Chemscore.Rot>
1.4801

> <Gold.Chemscore.Internal.Correction>
   9.000000E+99

> <Gold.Chemscore.Hbonds>
donor molecule, donor type, donor heavy atom, donor atom, acceptor molecule, acceptor atom, score
      L1  H     3    21       P1 10175  0.77
      L1  H    10    30       P1  8028  0.27
      P1  H  7989  7998       L1    19  0.74

> <Gold.Chemscore.Hbond.Weighted>
-7.6012

> <Gold.Chemscore.Metal.Weighted>
-0.0000

> <Gold.Chemscore.Lipo.Weighted>
-12.9661

> <Gold.Chemscore.Internal_Hbond.Weighted>
0.0000

> <Gold.Chemscore.DEClash.Weighted>
2.7804

> <Gold.Chemscore.DEInternal.Weighted>
1.1148

> <Gold.Chemscore.Rot.Weighted>
3.7891

> <Gold.Chemscore.Internal.Correction.Weighted>
   9.000000E+99

> <Gold.Protein.RotatedTorsions>
[ 6907 6896 6895 6894 ] final  -14.38 input  -60.11 | X-H torsion
[ 7974 7965 7964 7962 ] final  100.50 input  175.53 | X-H torsion
[ 8008 7997 7996 7995 ] final  109.39 input   59.86 | X-H torsion
[ 10167 10162 10161 10158 ] final -156.84 input  -65.29 | X-H torsion
[ 10718 10713 10712 10709 ] final  -26.49 input   66.30 | X-H torsion
[ 10763 10752 10751 10750 ] final  -51.97 input  -60.55 | X-H torsion
[ 11005 11000 10999 10996 ] final    9.67 input  -57.11 | X-H torsion

> <Gold.Protein.ActiveResidues>
 VAL166  LYS551  ARG553  GLY616  TRP617  ASP618  TYR619  PRO620  LYS621  CYS622 
 ASP623  PHE694  ASN695  SER759  ASP760  ASP761  ALA762  ILE779  LEU786  VAL792 
 PHE793  MET794  SER795  GLU796  ALA797  LYS798  CYS799  TRP800  GLU811  SER814 

> <Gold.Protein.RotatedAtoms>
  151.3403  135.0862  159.9368 H   0  0  0  0  0  0  0  0  0  0  0  0  # atno 6907 bound_to 6896
  152.5213  133.9454  159.7657 H   0  0  0  0  0  0  0  0  0  0  0  0  # atno 6908 bound_to 6896
  150.9810  133.6192  159.2752 H   0  0  0  0  0  0  0  0  0  0  0  0  # atno 6909 bound_to 6896
  145.3848  139.2373  143.3384 H   0  0  0  0  0  0  0  0  0  0  0  0  # atno 7974 bound_to 7965
  156.1976  140.3058  155.9459 H   0  0  0  0  0  0  0  0  0  0  0  0  # atno 8008 bound_to 7997
  155.3030  140.0447  157.3047 H   0  0  0  0  0  0  0  0  0  0  0  0  # atno 8009 bound_to 7997
  154.5529  140.2297  155.8465 H   0  0  0  0  0  0  0  0  0  0  0  0  # atno 8010 bound_to 7997
  139.6818  143.9568  152.2340 H   0  0  0  0  0  0  0  0  0  0  0  0  # atno 10167 bound_to 10162
  156.4505  130.4483  149.6993 H   0  0  0  0  0  0  0  0  0  0  0  0  # atno 10718 bound_to 10713
  154.1351  135.6514  153.4930 H   0  0  0  0  0  0  0  0  0  0  0  0  # atno 10763 bound_to 10752
  153.0183  135.5302  154.6961 H   0  0  0  0  0  0  0  0  0  0  0  0  # atno 10764 bound_to 10752
  154.6207  135.2964  155.0300 H   0  0  0  0  0  0  0  0  0  0  0  0  # atno 10765 bound_to 10752
  140.5231  134.0539  155.7850 H   0  0  0  0  0  0  0  0  0  0  0  0  # atno 11005 bound_to 11000
  146.2825  140.4521  142.8770 LP  0  0  0  0  0  0  0  0  0  0  0  0  # atno 17320 bound_to 7965
  144.8482  140.6961  143.6185 LP  0  0  0  0  0  0  0  0  0  0  0  0  # atno 17321 bound_to 7965
  139.9360  144.6711  150.8314 LP  0  0  0  0  0  0  0  0  0  0  0  0  # atno 17342 bound_to 10162
  140.7655  143.3276  151.2481 LP  0  0  0  0  0  0  0  0  0  0  0  0  # atno 17343 bound_to 10162
  156.3821  130.7584  151.2578 LP  0  0  0  0  0  0  0  0  0  0  0  0  # atno 17370 bound_to 10713
  157.7503  131.0292  150.4084 LP  0  0  0  0  0  0  0  0  0  0  0  0  # atno 17371 bound_to 10713
  141.1323  133.9281  157.2509 LP  0  0  0  0  0  0  0  0  0  0  0  0  # atno 17394 bound_to 11000
  139.9595  135.0157  156.9221 LP  0  0  0  0  0  0  0  0  0  0  0  0  # atno 17395 bound_to 11000

$$$$
