AV-unprocessed.smi:1465|AV-procd|sdf|5951|dock8
  -GOLD-   22720 6 33D 1   1.00000     0.00000
 Structure written by MMmdl.
 54 55  0  0  0  0  0  0  0  0  2 V2000
  146.6394  129.3623  152.0433 C   0  0  0  0  0  0  0  0  0  0  0  0
  146.1452  130.6832  152.1741 O   0  0  0  0  0  0  0  0  0  0  0  0
  146.6815  131.3572  153.3009 C   0  0  0  0  0  0  0  0  0  0  0  0
  147.8021  132.3053  152.8441 C   0  0  0  0  0  0  0  0  0  0  0  0
  148.8152  132.4993  153.8914 N   0  0  0  0  0  0  0  0  0  0  0  0
  149.1010  133.8268  154.2647 C   0  0  0  0  0  0  0  0  0  0  0  0
  150.0121  134.1312  155.2099 C   0  0  0  0  0  0  0  0  0  0  0  0
  150.2717  135.5343  155.5402 C   0  0  0  0  0  0  0  0  0  0  0  0
  150.3210  135.9848  156.6859 O   0  0  0  0  0  0  0  0  0  0  0  0
  150.4536  136.3189  154.4636 N   0  0  0  0  0  0  0  0  0  0  0  0
  150.7162  137.7545  154.4958 C   0  0  2  0  0  0  0  0  0  0  0  0
  152.0293  138.0527  155.2416 C   0  0  0  0  0  0  0  0  0  0  0  0
  152.2634  139.5667  155.3745 C   0  0  0  0  0  0  0  0  0  0  0  0
  151.1162  140.2311  156.0485 N   0  3  1  0  0  0  0  0  0  0  0  0
  151.3476  141.6744  156.3155 C   0  0  0  0  0  0  0  0  0  0  0  0
  151.2009  142.0424  157.8079 C   0  0  0  0  0  0  0  0  0  0  0  0
  151.3120  143.5591  158.0371 C   0  0  0  0  0  0  0  0  0  0  0  0
  152.2440  141.2964  158.6532 C   0  0  0  0  0  0  0  0  0  0  0  0
  149.8433  139.9879  155.3219 C   0  0  0  0  0  0  0  0  0  0  0  0
  149.5558  138.4827  155.1920 C   0  0  0  0  0  0  0  0  0  0  0  0
  150.7049  133.0219  155.8490 C   0  0  0  0  0  0  0  0  0  0  0  0
  150.4412  131.7504  155.4889 C   0  0  0  0  0  0  0  0  0  0  0  0
  149.4558  131.4299  154.4521 C   0  0  0  0  0  0  0  0  0  0  0  0
  149.2227  130.2704  154.1096 O   0  0  0  0  0  0  0  0  0  0  0  0
  146.1962  128.8913  151.1659 H   0  0  0  0  0  0  0  0  0  0  0  0
  146.3855  128.7571  152.9146 H   0  0  0  0  0  0  0  0  0  0  0  0
  147.7228  129.3575  151.9170 H   0  0  0  0  0  0  0  0  0  0  0  0
  145.8934  131.9345  153.7865 H   0  0  0  0  0  0  0  0  0  0  0  0
  147.0563  130.6409  154.0338 H   0  0  0  0  0  0  0  0  0  0  0  0
  148.2603  131.9204  151.9319 H   0  0  0  0  0  0  0  0  0  0  0  0
  147.3710  133.2656  152.5562 H   0  0  0  0  0  0  0  0  0  0  0  0
  148.5353  134.5713  153.7215 H   0  0  0  0  0  0  0  0  0  0  0  0
  150.4019  135.8844  153.5537 H   0  0  0  0  0  0  0  0  0  0  0  0
  150.7912  138.1304  153.4733 H   0  0  0  0  0  0  0  0  0  0  0  0
  152.0025  137.6026  156.2352 H   0  0  0  0  0  0  0  0  0  0  0  0
  152.8715  137.5976  154.7191 H   0  0  0  0  0  0  0  0  0  0  0  0
  153.1821  139.7321  155.9359 H   0  0  0  0  0  0  0  0  0  0  0  0
  152.4138  140.0087  154.3883 H   0  0  0  0  0  0  0  0  0  0  0  0
  152.3348  141.9537  155.9437 H   0  0  0  0  0  0  0  0  0  0  0  0
  150.6325  142.2723  155.7483 H   0  0  0  0  0  0  0  0  0  0  0  0
  150.2221  141.7210  158.1627 H   0  0  0  0  0  0  0  0  0  0  0  0
  152.2772  143.9413  157.7028 H   0  0  0  0  0  0  0  0  0  0  0  0
  151.2077  143.8039  159.0946 H   0  0  0  0  0  0  0  0  0  0  0  0
  150.5339  144.1034  157.5013 H   0  0  0  0  0  0  0  0  0  0  0  0
  153.2594  141.5701  158.3646 H   0  0  0  0  0  0  0  0  0  0  0  0
  152.1452  140.2166  158.5385 H   0  0  0  0  0  0  0  0  0  0  0  0
  152.1280  141.5246  159.7131 H   0  0  0  0  0  0  0  0  0  0  0  0
  149.0180  140.4621  155.8548 H   0  0  0  0  0  0  0  0  0  0  0  0
  149.8915  140.4501  154.3344 H   0  0  0  0  0  0  0  0  0  0  0  0
  148.6307  138.3312  154.6343 H   0  0  0  0  0  0  0  0  0  0  0  0
  149.3919  138.0592  156.1843 H   0  0  0  0  0  0  0  0  0  0  0  0
  151.4425  133.1882  156.6203 H   0  0  0  0  0  0  0  0  0  0  0  0
  150.9687  130.9435  155.9767 H   0  0  0  0  0  0  0  0  0  0  0  0
  151.0093  139.7917  156.9516 H   0  0  0  0  0  0  0  0  0  0  0  0
  1  2  1  0  0  0  0
  1 25  1  0  0  0  0
  1 26  1  0  0  0  0
  1 27  1  0  0  0  0
  2  3  1  0  0  0  0
  3  4  1  0  0  0  0
  3 28  1  0  0  0  0
  3 29  1  0  0  0  0
  4  5  1  0  0  0  0
  4 30  1  0  0  0  0
  4 31  1  0  0  0  0
  5 23  1  0  0  0  0
  5  6  1  0  0  0  0
  6  7  2  0  0  0  0
  6 32  1  0  0  0  0
  7  8  1  0  0  0  0
  7 21  1  0  0  0  0
  8  9  2  0  0  0  0
  8 10  1  0  0  0  0
 10 11  1  0  0  0  0
 10 33  1  0  0  0  0
 11 20  1  0  0  0  0
 11 12  1  0  0  0  0
 11 34  1  0  0  0  0
 12 13  1  0  0  0  0
 12 35  1  0  0  0  0
 12 36  1  0  0  0  0
 13 14  1  0  0  0  0
 13 37  1  0  0  0  0
 13 38  1  0  0  0  0
 14 15  1  0  0  0  0
 14 19  1  0  0  0  0
 14 54  1  0  0  0  0
 15 16  1  0  0  0  0
 15 39  1  0  0  0  0
 15 40  1  0  0  0  0
 16 17  1  0  0  0  0
 16 18  1  0  0  0  0
 16 41  1  0  0  0  0
 17 42  1  0  0  0  0
 17 43  1  0  0  0  0
 17 44  1  0  0  0  0
 18 45  1  0  0  0  0
 18 46  1  0  0  0  0
 18 47  1  0  0  0  0
 19 20  1  0  0  0  0
 19 48  1  0  0  0  0
 19 49  1  0  0  0  0
 20 50  1  0  0  0  0
 20 51  1  0  0  0  0
 21 22  2  0  0  0  0
 21 52  1  0  0  0  0
 22 23  1  0  0  0  0
 22 53  1  0  0  0  0
 23 24  2  0  0  0  0
M  CHG  1  14   1
M  END
> <s_m_source_file>
AV-unprocessed.smi

> <i_m_source_file_index>
1465

> <i_lp_mmshare_version>
43012

> <i_f3d_flags>
0

> <s_epik_input>
W0NIM11PW0NIMl1bQ0gyXW4xW2NIXWMoW2NIXVtjSF1jMT1PKUMoPU8pW05IXVtDSF0yW0NIMl1bQ0gyXU4oW0NIMl1bQ0gyXTIpW0NIMl1bQ0hdKFtDSDNdKVtDSDNd

> <s_epik_cmdline>
J2VwaWtfcHl0aG9uJywgJy1waCcsICc3LjAnLCAnLXRuJywgJzgnLCAnLW1hJywgJzIwMCcsICctbWV0YWxfYmluZGluZycsICctaW1hZScsICc8aW5maWxlLm1hZT4nLCAnLW9tYWUnLCAnPG91dGZpbGUubWFlPic=

> <r_lp_tautomer_probability>
1

> <r_epik_Ionization_Penalty>
0.00386091

> <r_epik_Ionization_Penalty_Charging>
0.0038603

> <r_epik_Ionization_Penalty_Neutral>
6.13806e-07

> <r_epik_State_Penalty>
0.00275716

> <r_epik_Charging_Adjusted_Penalty>
0.00661746

> <i_epik_Tot_Q>
1

> <i_epik_Tot_abs_Q>
1

> <r_epik_Metal_State_Penalty>
-0

> <b_epik_Metal_Only>
0

> <s_lp_Force_Field>
OPLS_2005

> <r_lp_Energy>
35.0866

> <b_lp_Chiralities_Consistent>
1

> <s_lp_Variant>
AV-unprocessed.smi:1465-1

> <Gold.Version>
5.8.1

> <Gold.Id.Protein>
6NUR|6NUR_protein|mol2

> <Gold.PLP.Fitness>
42.9334

> <Gold.PLP.PLP>
-43.3445

> <Gold.PLP.part.hbond>
-2.0000

> <Gold.PLP.part.metal>
0.0000

> <Gold.PLP.part.buried>
-3.8749

> <Gold.PLP.part.nonpolar>
-37.9929

> <Gold.PLP.part.repulsive>
0.4423

> <Gold.PLP.ligand.clash>
0.0000

> <Gold.PLP.ligand.torsion>
2.0474

> <Gold.PLP.Chemscore.Hbond>
0.1800

> <Gold.PLP.Chemscore.CHOScore>
1.0000

> <Gold.PLP.Chemscore.Metal>
0.0000

> <Gold.Chemscore.Hbonds>
donor molecule, donor type, donor heavy atom, donor atom, acceptor molecule, acceptor atom, score
      L1  H    10    33       P1  7949  0.08
      L1  C     6    32       P1  7948  1.00

> <Gold.PLP.Chemscore.Internal.Correction>
0.1438

> <Gold.Rescore>
     Score         DG    S(hbond)    S(metal)    S(lipo)     H(rot)  DE(clash)    DE(int)     intcor
      8.66     -13.45       0.01        0.00     106.85       1.78       0.08       4.72       ----

> <Gold.Chemscore.Fitness>
8.6576

> <Gold.Chemscore.DG>
-13.4506

> <Gold.Chemscore.ZeroCoef>
-5.4800

> <Gold.Chemscore.Hbond>
0.0056

> <Gold.Chemscore.Metal>
0.0000

> <Gold.Chemscore.Lipo>
106.8453

> <Gold.Chemscore.Internal_Hbond>
0.0000

> <Gold.Chemscore.DEClash>
0.0752

> <Gold.Chemscore.DEInternal>
4.7178

> <Gold.Chemscore.Rot>
1.7769

> <Gold.Chemscore.Internal.Correction>
   9.000000E+99

> <Gold.Chemscore.Hbond.Weighted>
-0.0186

> <Gold.Chemscore.Metal.Weighted>
-0.0000

> <Gold.Chemscore.Lipo.Weighted>
-12.5009

> <Gold.Chemscore.Internal_Hbond.Weighted>
0.0000

> <Gold.Chemscore.DEClash.Weighted>
0.0752

> <Gold.Chemscore.DEInternal.Weighted>
4.7178

> <Gold.Chemscore.Rot.Weighted>
4.5490

> <Gold.Chemscore.Internal.Correction.Weighted>
   9.000000E+99

> <Gold.Protein.RotatedTorsions>
[ 6907 6896 6895 6894 ] final  -24.34 input  -60.11 | X-H torsion
[ 7974 7965 7964 7962 ] final -101.20 input  175.53 | X-H torsion
[ 8008 7997 7996 7995 ] final  -81.47 input   59.86 | X-H torsion
[ 10167 10162 10161 10158 ] final  176.45 input  -65.29 | X-H torsion
[ 10718 10713 10712 10709 ] final   70.27 input   66.30 | X-H torsion
[ 10763 10752 10751 10750 ] final  -11.65 input  -60.55 | X-H torsion
[ 11005 11000 10999 10996 ] final   80.05 input  -57.11 | X-H torsion

> <Gold.Protein.ActiveResidues>
 VAL166  LYS551  ARG553  GLY616  TRP617  ASP618  TYR619  PRO620  LYS621  CYS622 
 ASP623  PHE694  ASN695  SER759  ASP760  ASP761  ALA762  ILE779  LEU786  VAL792 
 PHE793  MET794  SER795  GLU796  ALA797  LYS798  CYS799  TRP800  GLU811  SER814 

> <Gold.Protein.RotatedAtoms>
  151.1910  135.0402  159.8832 H   0  0  0  0  0  0  0  0  0  0  0  0  # atno 6907 bound_to 6896
  152.5439  134.0956  159.8306 H   0  0  0  0  0  0  0  0  0  0  0  0  # atno 6908 bound_to 6896
  151.1085  133.5143  159.2639 H   0  0  0  0  0  0  0  0  0  0  0  0  # atno 6909 bound_to 6896
  145.2846  140.9336  143.2912 H   0  0  0  0  0  0  0  0  0  0  0  0  # atno 7974 bound_to 7965
  154.5987  140.0647  156.9339 H   0  0  0  0  0  0  0  0  0  0  0  0  # atno 8008 bound_to 7997
  155.2169  140.3327  155.4302 H   0  0  0  0  0  0  0  0  0  0  0  0  # atno 8009 bound_to 7997
  156.2304  140.1838  156.7241 H   0  0  0  0  0  0  0  0  0  0  0  0  # atno 8010 bound_to 7997
  139.5215  144.2914  152.0460 H   0  0  0  0  0  0  0  0  0  0  0  0  # atno 10167 bound_to 10162
  157.6391  130.9468  150.0627 H   0  0  0  0  0  0  0  0  0  0  0  0  # atno 10718 bound_to 10713
  153.4869  135.7017  153.5906 H   0  0  0  0  0  0  0  0  0  0  0  0  # atno 10763 bound_to 10752
  153.4095  135.3852  155.2041 H   0  0  0  0  0  0  0  0  0  0  0  0  # atno 10764 bound_to 10752
  154.8719  135.3901  154.4325 H   0  0  0  0  0  0  0  0  0  0  0  0  # atno 10765 bound_to 10752
  139.9149  134.7890  156.1858 H   0  0  0  0  0  0  0  0  0  0  0  0  # atno 11005 bound_to 11000
  144.9224  139.4396  143.6535 LP  0  0  0  0  0  0  0  0  0  0  0  0  # atno 17320 bound_to 7965
  146.3205  139.8091  142.8949 LP  0  0  0  0  0  0  0  0  0  0  0  0  # atno 17321 bound_to 7965
  140.2365  144.4314  150.6278 LP  0  0  0  0  0  0  0  0  0  0  0  0  # atno 17342 bound_to 10162
  140.6320  143.2189  151.6475 LP  0  0  0  0  0  0  0  0  0  0  0  0  # atno 17343 bound_to 10162
  156.1655  130.3645  149.9238 LP  0  0  0  0  0  0  0  0  0  0  0  0  # atno 17370 bound_to 10713
  156.7226  130.9013  151.3619 LP  0  0  0  0  0  0  0  0  0  0  0  0  # atno 17371 bound_to 10713
  141.0614  133.6840  156.1960 LP  0  0  0  0  0  0  0  0  0  0  0  0  # atno 17394 bound_to 11000
  140.6655  134.4923  157.5585 LP  0  0  0  0  0  0  0  0  0  0  0  0  # atno 17395 bound_to 11000

$$$$
