AV-unprocessed.smi:1856|AV-procd|sdf|7540|dock2
  -GOLD-   22720 9253D 1   1.00000     0.00000
 Structure written by MMmdl.
 45 46  0  0  0  0  0  0  0  0  2 V2000
  144.6562  133.0681  150.6738 C   0  0  0  0  0  0  0  0  0  0  0  0
  144.4413  134.5546  150.9797 C   0  0  0  0  0  0  0  0  0  0  0  0
  145.7346  135.2530  151.4371 C   0  0  0  0  0  0  0  0  0  0  0  0
  145.4768  136.5306  152.2420 C   0  0  0  0  0  0  0  0  0  0  0  0
  144.3285  136.8807  152.5152 O   0  0  0  0  0  0  0  0  0  0  0  0
  146.5635  137.2235  152.6176 N   0  0  0  0  0  0  0  0  0  0  0  0
  146.5457  138.4586  153.3970 C   0  0  1  0  0  0  0  0  0  0  0  0
  145.5294  138.3356  154.5395 C   0  0  0  0  0  0  0  0  0  0  0  0
  147.9017  138.8104  153.9356 C   0  0  0  0  0  0  0  0  0  0  0  0
  149.0355  138.0649  153.7964 N   0  3  0  0  0  0  0  0  0  0  0  0
  150.1050  138.7069  154.4196 C   0  0  0  0  0  0  0  0  0  0  0  0
  151.4425  138.3413  154.5355 C   0  0  0  0  0  0  0  0  0  0  0  0
  152.2823  139.2300  155.2380 C   0  0  0  0  0  0  0  0  0  0  0  0
  151.7847  140.4281  155.7899 C   0  0  0  0  0  0  0  0  0  0  0  0
  150.4266  140.7874  155.6657 C   0  0  0  0  0  0  0  0  0  0  0  0
  149.6006  139.9015  154.9732 C   0  0  0  0  0  0  0  0  0  0  0  0
  148.2356  139.9192  154.6579 N   0  0  0  0  0  0  0  0  0  0  0  0
  147.3992  141.0428  155.1129 C   0  0  0  0  0  0  0  0  0  0  0  0
  147.1861  142.1155  154.0273 C   0  0  1  0  0  0  0  0  0  0  0  0
  145.9847  143.0168  154.3360 C   0  0  0  0  0  0  0  0  0  0  0  0
  148.3366  142.9263  153.9023 O   0  0  0  0  0  0  0  0  0  0  0  0
  143.7248  132.5984  150.3569 H   0  0  0  0  0  0  0  0  0  0  0  0
  145.0164  132.5332  151.5531 H   0  0  0  0  0  0  0  0  0  0  0  0
  145.3858  132.9317  149.8752 H   0  0  0  0  0  0  0  0  0  0  0  0
  144.0488  135.0486  150.0897 H   0  0  0  0  0  0  0  0  0  0  0  0
  143.6742  134.6489  151.7497 H   0  0  0  0  0  0  0  0  0  0  0  0
  146.3273  134.5745  152.0515 H   0  0  0  0  0  0  0  0  0  0  0  0
  146.3428  135.4971  150.5645 H   0  0  0  0  0  0  0  0  0  0  0  0
  147.4692  136.8629  152.3544 H   0  0  0  0  0  0  0  0  0  0  0  0
  146.2121  139.2600  152.7365 H   0  0  0  0  0  0  0  0  0  0  0  0
  145.4589  139.2678  155.1009 H   0  0  0  0  0  0  0  0  0  0  0  0
  145.8075  137.5462  155.2391 H   0  0  0  0  0  0  0  0  0  0  0  0
  144.5343  138.1060  154.1571 H   0  0  0  0  0  0  0  0  0  0  0  0
  151.8258  137.4254  154.1103 H   0  0  0  0  0  0  0  0  0  0  0  0
  153.3292  138.9892  155.3540 H   0  0  0  0  0  0  0  0  0  0  0  0
  152.4583  141.0868  156.3186 H   0  0  0  0  0  0  0  0  0  0  0  0
  150.0611  141.7120  156.0873 H   0  0  0  0  0  0  0  0  0  0  0  0
  146.4385  140.6284  155.4205 H   0  0  0  0  0  0  0  0  0  0  0  0
  147.8353  141.4766  156.0126 H   0  0  0  0  0  0  0  0  0  0  0  0
  147.0192  141.6299  153.0659 H   0  0  0  0  0  0  0  0  0  0  0  0
  145.0679  142.4318  154.4143 H   0  0  0  0  0  0  0  0  0  0  0  0
  145.8364  143.7572  153.5493 H   0  0  0  0  0  0  0  0  0  0  0  0
  146.1200  143.5519  155.2766 H   0  0  0  0  0  0  0  0  0  0  0  0
  149.0733  142.4552  154.2605 H   0  0  0  0  0  0  0  0  0  0  0  0
  149.0716  137.1828  153.3022 H   0  0  0  0  0  0  0  0  0  0  0  0
  1  2  1  0  0  0  0
  1 22  1  0  0  0  0
  1 23  1  0  0  0  0
  1 24  1  0  0  0  0
  2  3  1  0  0  0  0
  2 25  1  0  0  0  0
  2 26  1  0  0  0  0
  3  4  1  0  0  0  0
  3 27  1  0  0  0  0
  3 28  1  0  0  0  0
  4  5  2  0  0  0  0
  4  6  1  0  0  0  0
  6  7  1  0  0  0  0
  6 29  1  0  0  0  0
  7  8  1  0  0  0  0
  7  9  1  0  0  0  0
  7 30  1  0  0  0  0
  8 31  1  0  0  0  0
  8 32  1  0  0  0  0
  8 33  1  0  0  0  0
  9 17  1  0  0  0  0
  9 10  2  0  0  0  0
 10 11  1  0  0  0  0
 10 45  1  0  0  0  0
 11 16  2  0  0  0  0
 11 12  1  0  0  0  0
 12 13  2  0  0  0  0
 12 34  1  0  0  0  0
 13 14  1  0  0  0  0
 13 35  1  0  0  0  0
 14 15  2  0  0  0  0
 14 36  1  0  0  0  0
 15 16  1  0  0  0  0
 15 37  1  0  0  0  0
 16 17  1  0  0  0  0
 17 18  1  0  0  0  0
 18 19  1  0  0  0  0
 18 38  1  0  0  0  0
 18 39  1  0  0  0  0
 19 20  1  0  0  0  0
 19 21  1  0  0  0  0
 19 40  1  0  0  0  0
 20 41  1  0  0  0  0
 20 42  1  0  0  0  0
 20 43  1  0  0  0  0
 21 44  1  0  0  0  0
M  CHG  1  10   1
M  END
> <s_m_source_file>
AV-unprocessed.smi

> <i_m_source_file_index>
1856

> <i_lp_mmshare_version>
43012

> <i_f3d_flags>
0

> <s_epik_input>
W0NIM11bQ0gyXVtDSDJdQyg9TylbTkhdW0NASF0oW0NIM10pYyhuMSluKFtDSDJdW0NASF0oW0NIM10pW09IXSljKGMxMilbY0hdW2NIXVtjSF1bY0hdMg==

> <s_epik_cmdline>
J2VwaWtfcHl0aG9uJywgJy1waCcsICc3LjAnLCAnLXRuJywgJzgnLCAnLW1hJywgJzIwMCcsICctbWV0YWxfYmluZGluZycsICctaW1hZScsICc8aW5maWxlLm1hZT4nLCAnLW9tYWUnLCAnPG91dGZpbGUubWFlPic=

> <r_epik_Ionization_Penalty>
0.945588

> <r_epik_Ionization_Penalty_Charging>
0.945588

> <r_epik_Ionization_Penalty_Neutral>
8.64698e-08

> <r_epik_State_Penalty>
0.989378

> <r_epik_Charging_Adjusted_Penalty>
1.93497

> <i_epik_Tot_Q>
1

> <i_epik_Tot_abs_Q>
1

> <r_epik_Metal_State_Penalty>
1.10045

> <b_epik_Metal_Only>
0

> <s_lp_Force_Field>
OPLS_2005

> <r_lp_Energy>
6.75026

> <b_lp_Chiralities_Consistent>
1

> <s_lp_Variant>
AV-unprocessed.smi:1856-8

> <Gold.Version>
5.8.1

> <Gold.Id.Protein>
6NUR|6NUR_protein|mol2

> <Gold.PLP.Fitness>
53.5858

> <Gold.PLP.PLP>
-43.1308

> <Gold.PLP.part.hbond>
-5.0706

> <Gold.PLP.part.metal>
0.0000

> <Gold.PLP.part.buried>
-4.7940

> <Gold.PLP.part.nonpolar>
-33.8469

> <Gold.PLP.part.repulsive>
1.0218

> <Gold.PLP.ligand.clash>
0.0000

> <Gold.PLP.ligand.torsion>
0.7967

> <Gold.PLP.Chemscore.Hbond>
4.0000

> <Gold.PLP.Chemscore.CHOScore>
0.0000

> <Gold.PLP.Chemscore.Metal>
0.0000

> <Gold.Chemscore.Hbonds>
donor molecule, donor type, donor heavy atom, donor atom, acceptor molecule, acceptor atom, score
      L1  H     6    29       P1  7948  1.00
      L1  H    10    45       P1  7948  2.00
      P1  H  8022  8030       L1    21  0.94

> <Gold.PLP.Chemscore.Internal.Correction>
0.0484

> <Gold.Rescore>
     Score         DG    S(hbond)    S(metal)    S(lipo)     H(rot)  DE(clash)    DE(int)     intcor
     15.83     -19.26       2.96        0.00      88.24       2.52       1.38       2.06       ----

> <Gold.Chemscore.Fitness>
15.8256

> <Gold.Chemscore.DG>
-19.2646

> <Gold.Chemscore.ZeroCoef>
-5.4800

> <Gold.Chemscore.Hbond>
2.9647

> <Gold.Chemscore.Metal>
0.0000

> <Gold.Chemscore.Lipo>
88.2363

> <Gold.Chemscore.Internal_Hbond>
0.0000

> <Gold.Chemscore.DEClash>
1.3762

> <Gold.Chemscore.DEInternal>
2.0628

> <Gold.Chemscore.Rot>
2.5161

> <Gold.Chemscore.Internal.Correction>
   9.000000E+99

> <Gold.Chemscore.Hbonds>
donor molecule, donor type, donor heavy atom, donor atom, acceptor molecule, acceptor atom, score
      L1  H     6    29       P1  7948  1.00
      L1  H    10    45       P1  7948  0.96
      P1  H  8022  8030       L1    21  0.86

> <Gold.Chemscore.Hbond.Weighted>
-9.9021

> <Gold.Chemscore.Metal.Weighted>
-0.0000

> <Gold.Chemscore.Lipo.Weighted>
-10.3237

> <Gold.Chemscore.Internal_Hbond.Weighted>
0.0000

> <Gold.Chemscore.DEClash.Weighted>
1.3762

> <Gold.Chemscore.DEInternal.Weighted>
2.0628

> <Gold.Chemscore.Rot.Weighted>
6.4412

> <Gold.Chemscore.Internal.Correction.Weighted>
   9.000000E+99

> <Gold.Protein.RotatedTorsions>
[ 6907 6896 6895 6894 ] final   89.70 input  -60.11 | X-H torsion
[ 7974 7965 7964 7962 ] final -172.80 input  175.53 | X-H torsion
[ 8008 7997 7996 7995 ] final   16.27 input   59.86 | X-H torsion
[ 10167 10162 10161 10158 ] final  139.88 input  -65.29 | X-H torsion
[ 10718 10713 10712 10709 ] final  -94.83 input   66.30 | X-H torsion
[ 10763 10752 10751 10750 ] final  -21.44 input  -60.55 | X-H torsion
[ 11005 11000 10999 10996 ] final    7.62 input  -57.11 | X-H torsion

> <Gold.Protein.ActiveResidues>
 VAL166  LYS551  ARG553  GLY616  TRP617  ASP618  TYR619  PRO620  LYS621  CYS622 
 ASP623  PHE694  ASN695  SER759  ASP760  ASP761  ALA762  ILE779  LEU786  VAL792 
 PHE793  MET794  SER795  GLU796  ALA797  LYS798  CYS799  TRP800  GLU811  SER814 

> <Gold.Protein.RotatedAtoms>
  152.5438  134.1925  159.8679 H   0  0  0  0  0  0  0  0  0  0  0  0  # atno 6907 bound_to 6896
  151.1920  133.4655  159.2602 H   0  0  0  0  0  0  0  0  0  0  0  0  # atno 6908 bound_to 6896
  151.1074  135.0019  159.8533 H   0  0  0  0  0  0  0  0  0  0  0  0  # atno 6909 bound_to 6896
  144.7143  140.1717  143.6367 H   0  0  0  0  0  0  0  0  0  0  0  0  # atno 7974 bound_to 7965
  154.8745  140.2964  155.5461 H   0  0  0  0  0  0  0  0  0  0  0  0  # atno 8008 bound_to 7997
  156.3022  140.2454  156.3672 H   0  0  0  0  0  0  0  0  0  0  0  0  # atno 8009 bound_to 7997
  154.8782  140.0399  157.1755 H   0  0  0  0  0  0  0  0  0  0  0  0  # atno 8010 bound_to 7997
  139.5065  144.6268  151.5918 H   0  0  0  0  0  0  0  0  0  0  0  0  # atno 10167 bound_to 10162
  156.0033  130.5084  150.5985 H   0  0  0  0  0  0  0  0  0  0  0  0  # atno 10718 bound_to 10713
  153.6361  135.6987  153.5258 H   0  0  0  0  0  0  0  0  0  0  0  0  # atno 10763 bound_to 10752
  153.2820  135.4183  155.1087 H   0  0  0  0  0  0  0  0  0  0  0  0  # atno 10764 bound_to 10752
  154.8510  135.3604  154.5905 H   0  0  0  0  0  0  0  0  0  0  0  0  # atno 10765 bound_to 10752
  140.5462  134.0327  155.7921 H   0  0  0  0  0  0  0  0  0  0  0  0  # atno 11005 bound_to 11000
  145.8937  139.2390  143.1534 LP  0  0  0  0  0  0  0  0  0  0  0  0  # atno 17320 bound_to 7965
  145.9878  140.8628  143.0082 LP  0  0  0  0  0  0  0  0  0  0  0  0  # atno 17321 bound_to 7965
  140.5987  143.9649  150.6372 LP  0  0  0  0  0  0  0  0  0  0  0  0  # atno 17342 bound_to 10162
  140.2853  143.3361  152.1113 LP  0  0  0  0  0  0  0  0  0  0  0  0  # atno 17343 bound_to 10162
  157.3838  131.0785  151.1454 LP  0  0  0  0  0  0  0  0  0  0  0  0  # atno 17370 bound_to 10713
  157.2168  130.6463  149.5795 LP  0  0  0  0  0  0  0  0  0  0  0  0  # atno 17371 bound_to 10713
  141.1198  133.9479  157.2751 LP  0  0  0  0  0  0  0  0  0  0  0  0  # atno 17394 bound_to 11000
  139.9478  135.0181  156.8905 LP  0  0  0  0  0  0  0  0  0  0  0  0  # atno 17395 bound_to 11000

$$$$
