AV-unprocessed.smi:2451|AV-procd|sdf|9682|dock10
  -GOLD-   2272013323D 1   1.00000     0.00000
 Structure written by MMmdl.
 37 38  0  0  0  0  0  0  0  0  2 V2000
  153.1208  143.1277  160.7311 C   0  0  0  0  0  0  0  0  0  0  0  0
  152.5032  141.9309  159.9824 C   0  0  1  0  0  0  0  0  0  0  0  0
  151.7574  142.4589  158.7318 C   0  0  0  0  0  0  0  0  0  0  0  0
  151.1304  141.2911  157.9510 C   0  0  0  0  0  0  0  0  0  0  0  0
  152.1795  140.2270  157.5656 C   0  0  0  0  0  0  0  0  0  0  0  0
  152.9450  139.6557  158.7822 C   0  0  1  0  0  0  0  0  0  0  0  0
  153.9933  138.7633  158.3050 N   0  5  0  0  0  0  0  0  0  0  0  0
  153.5936  137.4606  157.4273 S   0  0  0  0  0  0  0  0  0  0  0  0
  154.6811  136.4708  157.3565 O   0  0  0  0  0  0  0  0  0  0  0  0
  152.2496  136.9531  157.7496 O   0  0  0  0  0  0  0  0  0  0  0  0
  153.4717  138.2097  155.7467 C   0  0  0  0  0  0  0  0  0  0  0  0
  152.0537  138.1490  155.2502 C   0  0  0  0  0  0  0  0  0  0  0  0
  151.2659  137.0021  154.9522 C   0  0  0  0  0  0  0  0  0  0  0  0
  150.0718  137.5290  154.5534 C   0  0  0  0  0  0  0  0  0  0  0  0
  150.1080  138.8841  154.6083 O   0  0  0  0  0  0  0  0  0  0  0  0
  151.3762  139.2706  155.0569 N   0  0  0  0  0  0  0  0  0  0  0  0
  153.5550  140.8157  159.6394 C   0  0  2  0  0  0  0  0  0  0  0  0
  154.2373  140.2766  160.9253 C   0  0  0  0  0  0  0  0  0  0  0  0
  153.9581  143.5530  160.1767 H   0  0  0  0  0  0  0  0  0  0  0  0
  153.4765  142.8507  161.7226 H   0  0  0  0  0  0  0  0  0  0  0  0
  152.3858  143.9198  160.8764 H   0  0  0  0  0  0  0  0  0  0  0  0
  151.7512  141.5009  160.6478 H   0  0  0  0  0  0  0  0  0  0  0  0
  150.9805  143.1679  159.0200 H   0  0  0  0  0  0  0  0  0  0  0  0
  152.4510  142.9995  158.0862 H   0  0  0  0  0  0  0  0  0  0  0  0
  150.3297  140.8406  158.5412 H   0  0  0  0  0  0  0  0  0  0  0  0
  150.6552  141.6742  157.0474 H   0  0  0  0  0  0  0  0  0  0  0  0
  151.6879  139.4164  157.0262 H   0  0  0  0  0  0  0  0  0  0  0  0
  152.8866  140.6734  156.8642 H   0  0  0  0  0  0  0  0  0  0  0  0
  152.2227  139.1310  159.4096 H   0  0  0  0  0  0  0  0  0  0  0  0
  153.8224  139.2396  155.8051 H   0  0  0  0  0  0  0  0  0  0  0  0
  154.1475  137.6662  155.0858 H   0  0  0  0  0  0  0  0  0  0  0  0
  151.5395  135.9592  155.0145 H   0  0  0  0  0  0  0  0  0  0  0  0
  149.1424  137.0921  154.2190 H   0  0  0  0  0  0  0  0  0  0  0  0
  154.3321  141.2885  159.0364 H   0  0  0  0  0  0  0  0  0  0  0  0
  153.5140  139.8497  161.6226 H   0  0  0  0  0  0  0  0  0  0  0  0
  154.7710  141.0646  161.4541 H   0  0  0  0  0  0  0  0  0  0  0  0
  154.9880  139.5109  160.7203 H   0  0  0  0  0  0  0  0  0  0  0  0
  1  2  1  0  0  0  0
  1 19  1  0  0  0  0
  1 20  1  0  0  0  0
  1 21  1  0  0  0  0
  2 17  1  0  0  0  0
  2  3  1  0  0  0  0
  2 22  1  0  0  0  0
  3  4  1  0  0  0  0
  3 23  1  0  0  0  0
  3 24  1  0  0  0  0
  4  5  1  0  0  0  0
  4 25  1  0  0  0  0
  4 26  1  0  0  0  0
  5  6  1  0  0  0  0
  5 27  1  0  0  0  0
  5 28  1  0  0  0  0
  6  7  1  0  0  0  0
  6 17  1  0  0  0  0
  6 29  1  0  0  0  0
  7  8  1  0  0  0  0
  8  9  2  0  0  0  0
  8 10  2  0  0  0  0
  8 11  1  0  0  0  0
 11 12  1  0  0  0  0
 11 30  1  0  0  0  0
 11 31  1  0  0  0  0
 12 16  2  0  0  0  0
 12 13  1  0  0  0  0
 13 14  2  0  0  0  0
 13 32  1  0  0  0  0
 14 15  1  0  0  0  0
 14 33  1  0  0  0  0
 15 16  1  0  0  0  0
 17 18  1  0  0  0  0
 17 34  1  0  0  0  0
 18 35  1  0  0  0  0
 18 36  1  0  0  0  0
 18 37  1  0  0  0  0
M  CHG  1   7  -1
M  END
> <s_m_source_file>
AV-unprocessed.smi

> <i_m_source_file_index>
2451

> <i_lp_mmshare_version>
43012

> <i_f3d_flags>
0

> <s_epik_input>
W0NIM11bQ0BASF0xW0NIMl1bQ0gyXVtDSDJdW0NASF0oW0NASF0xW0NIM10pW05IXVMoPU8pKD1PKVtDSDJdYzJbY0hdW2NIXW9uMg==

> <s_epik_cmdline>
J2VwaWtfcHl0aG9uJywgJy1waCcsICc3LjAnLCAnLXRuJywgJzgnLCAnLW1hJywgJzIwMCcsICctbWV0YWxfYmluZGluZycsICctaW1hZScsICc8aW5maWxlLm1hZT4nLCAnLW9tYWUnLCAnPG91dGZpbGUubWFlPic=

> <r_lp_tautomer_probability>
1

> <r_epik_Ionization_Penalty>
5.22693

> <r_epik_Ionization_Penalty_Charging>
5.22693

> <r_epik_Ionization_Penalty_Neutral>
2.67702e-10

> <r_epik_State_Penalty>
5.22685

> <r_epik_Charging_Adjusted_Penalty>
10.4538

> <i_epik_Tot_Q>
-1

> <i_epik_Tot_abs_Q>
1

> <r_epik_Metal_State_Penalty>
1.28716

> <b_epik_Metal_Only>
1

> <s_lp_Force_Field>
OPLS_2005

> <r_lp_Energy>
12.2025

> <b_lp_Chiralities_Consistent>
1

> <s_lp_Variant>
AV-unprocessed.smi:2451-14

> <Gold.Version>
5.8.1

> <Gold.Id.Protein>
6NUR|6NUR_protein|mol2

> <Gold.PLP.Fitness>
46.2025

> <Gold.PLP.PLP>
-34.5620

> <Gold.PLP.part.hbond>
-3.5673

> <Gold.PLP.part.metal>
0.0000

> <Gold.PLP.part.buried>
-3.5954

> <Gold.PLP.part.nonpolar>
-27.2891

> <Gold.PLP.part.repulsive>
0.2102

> <Gold.PLP.ligand.clash>
0.0000

> <Gold.PLP.ligand.torsion>
0.5668

> <Gold.PLP.Chemscore.Hbond>
3.8640

> <Gold.PLP.Chemscore.CHOScore>
0.0635

> <Gold.PLP.Chemscore.Metal>
0.0000

> <Gold.Chemscore.Hbonds>
donor molecule, donor type, donor heavy atom, donor atom, acceptor molecule, acceptor atom, score
      P1  H  7989  7998       L1    16  0.35
      P1  H  7997  8008       L1     7  1.60
      L1  C    14    33       P1  7948  0.77

> <Gold.PLP.Chemscore.Internal.Correction>
0.9918

> <Gold.Rescore>
     Score         DG    S(hbond)    S(metal)    S(lipo)     H(rot)  DE(clash)    DE(int)     intcor
     18.79     -20.86       2.37        0.00      94.56       1.40       0.24       1.84       ----

> <Gold.Chemscore.Fitness>
18.7890

> <Gold.Chemscore.DG>
-20.8633

> <Gold.Chemscore.ZeroCoef>
-5.4800

> <Gold.Chemscore.Hbond>
2.3653

> <Gold.Chemscore.Metal>
0.0000

> <Gold.Chemscore.Lipo>
94.5606

> <Gold.Chemscore.Internal_Hbond>
0.0000

> <Gold.Chemscore.DEClash>
0.2362

> <Gold.Chemscore.DEInternal>
1.8382

> <Gold.Chemscore.Rot>
1.3986

> <Gold.Chemscore.Internal.Correction>
   9.000000E+99

> <Gold.Chemscore.Hbonds>
donor molecule, donor type, donor heavy atom, donor atom, acceptor molecule, acceptor atom, score
      P1  H  7989  7998       L1    16  0.04
      P1  H  7997  8008       L1     7  0.08

> <Gold.Chemscore.Hbond.Weighted>
-7.9001

> <Gold.Chemscore.Metal.Weighted>
-0.0000

> <Gold.Chemscore.Lipo.Weighted>
-11.0636

> <Gold.Chemscore.Internal_Hbond.Weighted>
0.0000

> <Gold.Chemscore.DEClash.Weighted>
0.2362

> <Gold.Chemscore.DEInternal.Weighted>
1.8382

> <Gold.Chemscore.Rot.Weighted>
3.5804

> <Gold.Chemscore.Internal.Correction.Weighted>
   9.000000E+99

> <Gold.Protein.RotatedTorsions>
[ 6907 6896 6895 6894 ] final -100.17 input  -60.11 | X-H torsion
[ 7974 7965 7964 7962 ] final -133.99 input  175.53 | X-H torsion
[ 8008 7997 7996 7995 ] final -102.07 input   59.86 | X-H torsion
[ 10167 10162 10161 10158 ] final  -42.76 input  -65.29 | X-H torsion
[ 10718 10713 10712 10709 ] final   19.77 input   66.30 | X-H torsion
[ 10763 10752 10751 10750 ] final -110.08 input  -60.55 | X-H torsion
[ 11005 11000 10999 10996 ] final   21.76 input  -57.11 | X-H torsion

> <Gold.Protein.ActiveResidues>
 VAL166  LYS551  ARG553  GLY616  TRP617  ASP618  TYR619  PRO620  LYS621  CYS622 
 ASP623  PHE694  ASN695  SER759  ASP760  ASP761  ALA762  ILE779  LEU786  VAL792 
 PHE793  MET794  SER795  GLU796  ALA797  LYS798  CYS799  TRP800  GLU811  SER814 

> <Gold.Protein.RotatedAtoms>
  150.7106  134.0928  159.3937 H   0  0  0  0  0  0  0  0  0  0  0  0  # atno 6907 bound_to 6896
  151.8913  135.0413  160.0507 H   0  0  0  0  0  0  0  0  0  0  0  0  # atno 6908 bound_to 6896
  152.2489  133.5162  159.5350 H   0  0  0  0  0  0  0  0  0  0  0  0  # atno 6909 bound_to 6896
  144.9143  140.6935  143.5005 H   0  0  0  0  0  0  0  0  0  0  0  0  # atno 7974 bound_to 7965
  154.8515  140.0430  157.1607 H   0  0  0  0  0  0  0  0  0  0  0  0  # atno 8008 bound_to 7997
  154.8938  140.2990  155.5335 H   0  0  0  0  0  0  0  0  0  0  0  0  # atno 8009 bound_to 7997
  156.2996  140.2388  156.3957 H   0  0  0  0  0  0  0  0  0  0  0  0  # atno 8010 bound_to 7997
  140.6958  143.3020  151.3255 H   0  0  0  0  0  0  0  0  0  0  0  0  # atno 10167 bound_to 10162
  157.1151  130.6525  149.5908 H   0  0  0  0  0  0  0  0  0  0  0  0  # atno 10718 bound_to 10713
  154.8228  135.4577  154.0830 H   0  0  0  0  0  0  0  0  0  0  0  0  # atno 10763 bound_to 10752
  153.2169  135.6889  153.8052 H   0  0  0  0  0  0  0  0  0  0  0  0  # atno 10764 bound_to 10752
  153.7483  135.3302  155.3293 H   0  0  0  0  0  0  0  0  0  0  0  0  # atno 10765 bound_to 10752
  140.3881  134.1849  155.7663 H   0  0  0  0  0  0  0  0  0  0  0  0  # atno 11005 bound_to 11000
  145.3401  139.1734  143.4490 LP  0  0  0  0  0  0  0  0  0  0  0  0  # atno 17320 bound_to 7965
  146.3174  140.3442  142.8650 LP  0  0  0  0  0  0  0  0  0  0  0  0  # atno 17321 bound_to 7965
  139.6411  144.0537  152.2555 LP  0  0  0  0  0  0  0  0  0  0  0  0  # atno 17342 bound_to 10162
  140.0043  144.6270  150.7702 LP  0  0  0  0  0  0  0  0  0  0  0  0  # atno 17343 bound_to 10162
  155.9841  130.4864  150.6967 LP  0  0  0  0  0  0  0  0  0  0  0  0  # atno 17370 bound_to 10713
  157.4525  131.0874  151.0831 LP  0  0  0  0  0  0  0  0  0  0  0  0  # atno 17371 bound_to 10713
  141.1900  133.8225  157.0933 LP  0  0  0  0  0  0  0  0  0  0  0  0  # atno 17394 bound_to 11000
  140.0428  134.9846  157.0993 LP  0  0  0  0  0  0  0  0  0  0  0  0  # atno 17395 bound_to 11000

$$$$
