AV-unprocessed.smi:1762|AV-procd|sdf|7114|dock6
  -GOLD-   22720 8343D 1   1.00000     0.00000
 Structure written by MMmdl.
 53 54  0  0  0  0  0  0  0  0  2 V2000
  147.0799  141.1760  154.1478 C   0  0  0  0  0  0  0  0  0  0  0  0
  148.0378  140.1172  154.7044 C   0  0  1  0  0  0  0  0  0  0  0  0
  148.1808  138.9104  153.7511 C   0  0  0  0  0  0  0  0  0  0  0  0
  149.1838  137.9281  154.2558 N   0  3  2  0  0  0  0  0  0  0  0  0
  148.7029  137.0562  155.3864 C   0  0  1  0  0  0  0  0  0  0  0  0
  147.5000  136.1931  154.9490 C   0  0  0  0  0  0  0  0  0  0  0  0
  146.4641  136.1928  155.6149 O   0  0  0  0  0  0  0  0  0  0  0  0
  147.6550  135.4602  153.8346 N   0  0  0  0  0  0  0  0  0  0  0  0
  146.6455  134.5695  153.2740 C   0  0  0  0  0  0  0  0  0  0  0  0
  147.2711  133.5345  152.3235 C   0  0  0  0  0  0  0  0  0  0  0  0
  146.2785  133.0223  151.2967 C   0  0  0  0  0  0  0  0  0  0  0  0
  146.7161  132.2905  150.1720 C   0  0  0  0  0  0  0  0  0  0  0  0
  145.7530  131.8429  149.2468 C   0  0  0  0  0  0  0  0  0  0  0  0
  144.3971  132.1437  149.4796 C   0  0  0  0  0  0  0  0  0  0  0  0
  144.0629  132.8816  150.6326 C   0  0  0  0  0  0  0  0  0  0  0  0
  144.9784  133.3151  151.5263 N   0  0  0  0  0  0  0  0  0  0  0  0
  149.8218  136.1638  156.0219 C   0  0  0  0  0  0  0  0  0  0  0  0
  150.4771  135.1765  155.0336 C   0  0  0  0  0  0  0  0  0  0  0  0
  149.3607  135.4165  157.2890 C   0  0  0  0  0  0  0  0  0  0  0  0
  150.4674  138.6506  154.4734 C   0  0  0  0  0  0  0  0  0  0  0  0
  150.2832  139.8415  155.4355 C   0  0  1  0  0  0  0  0  0  0  0  0
  151.5830  140.6290  155.6318 C   0  0  0  0  0  0  0  0  0  0  0  0
  149.3121  140.7262  154.8857 O   0  0  0  0  0  0  0  0  0  0  0  0
  146.0802  140.7646  154.0068 H   0  0  0  0  0  0  0  0  0  0  0  0
  147.4244  141.5553  153.1853 H   0  0  0  0  0  0  0  0  0  0  0  0
  146.9964  142.0232  154.8290 H   0  0  0  0  0  0  0  0  0  0  0  0
  147.6550  139.7929  155.6729 H   0  0  0  0  0  0  0  0  0  0  0  0
  147.2090  138.4539  153.5671 H   0  0  0  0  0  0  0  0  0  0  0  0
  148.5199  139.2631  152.7759 H   0  0  0  0  0  0  0  0  0  0  0  0
  148.3511  137.7185  156.1778 H   0  0  0  0  0  0  0  0  0  0  0  0
  148.5338  135.5201  153.3407 H   0  0  0  0  0  0  0  0  0  0  0  0
  146.0979  134.0727  154.0770 H   0  0  0  0  0  0  0  0  0  0  0  0
  145.9195  135.1775  152.7333 H   0  0  0  0  0  0  0  0  0  0  0  0
  148.1273  133.9722  151.8083 H   0  0  0  0  0  0  0  0  0  0  0  0
  147.6568  132.6852  152.8894 H   0  0  0  0  0  0  0  0  0  0  0  0
  147.7638  132.0768  150.0189 H   0  0  0  0  0  0  0  0  0  0  0  0
  146.0492  131.2798  148.3740 H   0  0  0  0  0  0  0  0  0  0  0  0
  143.6314  131.8174  148.7914 H   0  0  0  0  0  0  0  0  0  0  0  0
  143.0333  133.1309  150.8424 H   0  0  0  0  0  0  0  0  0  0  0  0
  150.6052  136.8270  156.3857 H   0  0  0  0  0  0  0  0  0  0  0  0
  149.7778  134.4069  154.7067 H   0  0  0  0  0  0  0  0  0  0  0  0
  151.3218  134.6675  155.4985 H   0  0  0  0  0  0  0  0  0  0  0  0
  150.8554  135.6777  154.1432 H   0  0  0  0  0  0  0  0  0  0  0  0
  148.6407  134.6293  157.0632 H   0  0  0  0  0  0  0  0  0  0  0  0
  148.8994  136.0990  158.0033 H   0  0  0  0  0  0  0  0  0  0  0  0
  150.2059  134.9440  157.7904 H   0  0  0  0  0  0  0  0  0  0  0  0
  151.2695  137.9946  154.8034 H   0  0  0  0  0  0  0  0  0  0  0  0
  150.8042  139.0278  153.5064 H   0  0  0  0  0  0  0  0  0  0  0  0
  149.9443  139.4909  156.4114 H   0  0  0  0  0  0  0  0  0  0  0  0
  152.3621  139.9995  156.0624 H   0  0  0  0  0  0  0  0  0  0  0  0
  151.4289  141.4729  156.3047 H   0  0  0  0  0  0  0  0  0  0  0  0
  151.9548  141.0216  154.6850 H   0  0  0  0  0  0  0  0  0  0  0  0
  149.3535  137.2850  153.4951 H   0  0  0  0  0  0  0  0  0  0  0  0
  1  2  1  0  0  0  0
  1 24  1  0  0  0  0
  1 25  1  0  0  0  0
  1 26  1  0  0  0  0
  2 23  1  0  0  0  0
  2  3  1  0  0  0  0
  2 27  1  0  0  0  0
  3  4  1  0  0  0  0
  3 28  1  0  0  0  0
  3 29  1  0  0  0  0
  4  5  1  0  0  0  0
  4 20  1  0  0  0  0
  4 53  1  0  0  0  0
  5  6  1  0  0  0  0
  5 17  1  0  0  0  0
  5 30  1  0  0  0  0
  6  7  2  0  0  0  0
  6  8  1  0  0  0  0
  8  9  1  0  0  0  0
  8 31  1  0  0  0  0
  9 10  1  0  0  0  0
  9 32  1  0  0  0  0
  9 33  1  0  0  0  0
 10 11  1  0  0  0  0
 10 34  1  0  0  0  0
 10 35  1  0  0  0  0
 11 16  1  0  0  0  0
 11 12  2  0  0  0  0
 12 13  1  0  0  0  0
 12 36  1  0  0  0  0
 13 14  2  0  0  0  0
 13 37  1  0  0  0  0
 14 15  1  0  0  0  0
 14 38  1  0  0  0  0
 15 16  2  0  0  0  0
 15 39  1  0  0  0  0
 17 18  1  0  0  0  0
 17 19  1  0  0  0  0
 17 40  1  0  0  0  0
 18 41  1  0  0  0  0
 18 42  1  0  0  0  0
 18 43  1  0  0  0  0
 19 44  1  0  0  0  0
 19 45  1  0  0  0  0
 19 46  1  0  0  0  0
 20 21  1  0  0  0  0
 20 47  1  0  0  0  0
 20 48  1  0  0  0  0
 21 22  1  0  0  0  0
 21 23  1  0  0  0  0
 21 49  1  0  0  0  0
 22 50  1  0  0  0  0
 22 51  1  0  0  0  0
 22 52  1  0  0  0  0
M  CHG  1   4   1
M  END
> <s_m_source_file>
AV-unprocessed.smi

> <i_m_source_file_index>
1762

> <i_lp_mmshare_version>
43012

> <i_f3d_flags>
0

> <s_epik_input>
W0NIM11bQ0BASF0xW0NIMl1OKFtDSDJdW0NASF0oTzEpW0NIM10pW0NAQEhdKFtDSF0oW0NIM10pW0NIM10pQyg9TylbTkhdW0NIMl1bQ0gyXWMyW2NIXVtjSF1bY0hdW2NIXW4y

> <s_epik_cmdline>
J2VwaWtfcHl0aG9uJywgJy1waCcsICc3LjAnLCAnLXRuJywgJzgnLCAnLW1hJywgJzIwMCcsICctbWV0YWxfYmluZGluZycsICctaW1hZScsICc8aW5maWxlLm1hZT4nLCAnLW9tYWUnLCAnPG91dGZpbGUubWFlPic=

> <r_epik_Ionization_Penalty>
2.27005

> <r_epik_Ionization_Penalty_Charging>
2.24983

> <r_epik_Ionization_Penalty_Neutral>
0.0202209

> <r_epik_State_Penalty>
2.40228

> <r_epik_Charging_Adjusted_Penalty>
4.65211

> <i_epik_Tot_Q>
1

> <i_epik_Tot_abs_Q>
1

> <r_epik_Metal_State_Penalty>
2.40762

> <b_epik_Metal_Only>
0

> <s_lp_Force_Field>
OPLS_2005

> <r_lp_Energy>
25.1603

> <b_lp_Chiralities_Consistent>
1

> <s_lp_Variant>
AV-unprocessed.smi:1762-16

> <Gold.Version>
5.8.1

> <Gold.Id.Protein>
6NUR|6NUR_protein|mol2

> <Gold.PLP.Fitness>
45.1845

> <Gold.PLP.PLP>
-35.1609

> <Gold.PLP.part.hbond>
-1.9998

> <Gold.PLP.part.metal>
0.0000

> <Gold.PLP.part.buried>
-0.9486

> <Gold.PLP.part.nonpolar>
-31.0906

> <Gold.PLP.part.repulsive>
0.2411

> <Gold.PLP.ligand.clash>
0.0000

> <Gold.PLP.ligand.torsion>
0.7970

> <Gold.PLP.Chemscore.Hbond>
2.7840

> <Gold.PLP.Chemscore.CHOScore>
0.9903

> <Gold.PLP.Chemscore.Metal>
0.0000

> <Gold.Chemscore.Hbonds>
donor molecule, donor type, donor heavy atom, donor atom, acceptor molecule, acceptor atom, score
      L1  H     4    53       P1  7948  2.00
      L1  H     8    31       P1  7948  0.66
      L1  C    15    39       P1 10186  0.52

> <Gold.PLP.Chemscore.Internal.Correction>
0.2948

> <Gold.Rescore>
     Score         DG    S(hbond)    S(metal)    S(lipo)     H(rot)  DE(clash)    DE(int)     intcor
     19.45     -20.21       1.95        0.00     106.61       1.66       0.09       0.67       ----

> <Gold.Chemscore.Fitness>
19.4510

> <Gold.Chemscore.DG>
-20.2121

> <Gold.Chemscore.ZeroCoef>
-5.4800

> <Gold.Chemscore.Hbond>
1.9513

> <Gold.Chemscore.Metal>
0.0000

> <Gold.Chemscore.Lipo>
106.6096

> <Gold.Chemscore.Internal_Hbond>
0.0000

> <Gold.Chemscore.DEClash>
0.0873

> <Gold.Chemscore.DEInternal>
0.6738

> <Gold.Chemscore.Rot>
1.6635

> <Gold.Chemscore.Internal.Correction>
   9.000000E+99

> <Gold.Chemscore.Hbonds>
donor molecule, donor type, donor heavy atom, donor atom, acceptor molecule, acceptor atom, score
      L1  H     4    53       P1  7948  0.95
      L1  H     8    31       P1  7948  0.65

> <Gold.Chemscore.Hbond.Weighted>
-6.5174

> <Gold.Chemscore.Metal.Weighted>
-0.0000

> <Gold.Chemscore.Lipo.Weighted>
-12.4733

> <Gold.Chemscore.Internal_Hbond.Weighted>
0.0000

> <Gold.Chemscore.DEClash.Weighted>
0.0873

> <Gold.Chemscore.DEInternal.Weighted>
0.6738

> <Gold.Chemscore.Rot.Weighted>
4.2586

> <Gold.Chemscore.Internal.Correction.Weighted>
   9.000000E+99

> <Gold.Protein.RotatedTorsions>
[ 6907 6896 6895 6894 ] final  -13.14 input  -60.11 | X-H torsion
[ 7974 7965 7964 7962 ] final    3.54 input  175.53 | X-H torsion
[ 8008 7997 7996 7995 ] final -119.13 input   59.86 | X-H torsion
[ 10167 10162 10161 10158 ] final -121.74 input  -65.29 | X-H torsion
[ 10718 10713 10712 10709 ] final   73.35 input   66.30 | X-H torsion
[ 10763 10752 10751 10750 ] final -133.31 input  -60.55 | X-H torsion
[ 11005 11000 10999 10996 ] final  133.55 input  -57.11 | X-H torsion

> <Gold.Protein.ActiveResidues>
 VAL166  LYS551  ARG553  GLY616  TRP617  ASP618  TYR619  PRO620  LYS621  CYS622 
 ASP623  PHE694  ASN695  SER759  ASP760  ASP761  ALA762  ILE779  LEU786  VAL792 
 PHE793  MET794  SER795  GLU796  ALA797  LYS798  CYS799  TRP800  GLU811  SER814 

> <Gold.Protein.RotatedAtoms>
  151.3596  135.0901  159.9429 H   0  0  0  0  0  0  0  0  0  0  0  0  # atno 6907 bound_to 6896
  152.5165  133.9271  159.7573 H   0  0  0  0  0  0  0  0  0  0  0  0  # atno 6908 bound_to 6896
  150.9663  133.6337  159.2775 H   0  0  0  0  0  0  0  0  0  0  0  0  # atno 6909 bound_to 6896
  146.2445  140.0670  142.8365 H   0  0  0  0  0  0  0  0  0  0  0  0  # atno 7974 bound_to 7965
  155.1107  140.0397  157.2723 H   0  0  0  0  0  0  0  0  0  0  0  0  # atno 8008 bound_to 7997
  154.6687  140.2607  155.7004 H   0  0  0  0  0  0  0  0  0  0  0  0  # atno 8009 bound_to 7997
  156.2649  140.2802  156.1188 H   0  0  0  0  0  0  0  0  0  0  0  0  # atno 8010 bound_to 7997
  140.0218  143.5337  152.2217 H   0  0  0  0  0  0  0  0  0  0  0  0  # atno 10167 bound_to 10162
  157.6543  130.9624  150.1056 H   0  0  0  0  0  0  0  0  0  0  0  0  # atno 10718 bound_to 10713
  154.8734  135.3770  154.4552 H   0  0  0  0  0  0  0  0  0  0  0  0  # atno 10763 bound_to 10752
  153.5225  135.7028  153.5729 H   0  0  0  0  0  0  0  0  0  0  0  0  # atno 10764 bound_to 10752
  153.3970  135.3958  155.1927 H   0  0  0  0  0  0  0  0  0  0  0  0  # atno 10765 bound_to 10752
  139.9859  134.9532  156.9741 H   0  0  0  0  0  0  0  0  0  0  0  0  # atno 11005 bound_to 11000
  145.0849  140.9246  143.4803 LP  0  0  0  0  0  0  0  0  0  0  0  0  # atno 17320 bound_to 7965
  145.0831  139.2945  143.5773 LP  0  0  0  0  0  0  0  0  0  0  0  0  # atno 17321 bound_to 7965
  139.6135  144.7614  151.2899 LP  0  0  0  0  0  0  0  0  0  0  0  0  # atno 17342 bound_to 10162
  140.7339  143.6780  150.8025 LP  0  0  0  0  0  0  0  0  0  0  0  0  # atno 17343 bound_to 10162
  156.1967  130.3658  149.8840 LP  0  0  0  0  0  0  0  0  0  0  0  0  # atno 17370 bound_to 10713
  156.6755  130.8837  151.3568 LP  0  0  0  0  0  0  0  0  0  0  0  0  # atno 17371 bound_to 10713
  140.5004  134.1103  155.7249 LP  0  0  0  0  0  0  0  0  0  0  0  0  # atno 17394 bound_to 11000
  141.1524  133.8945  157.2065 LP  0  0  0  0  0  0  0  0  0  0  0  0  # atno 17395 bound_to 11000

$$$$
