AV-unprocessed.smi:3283|AV-procd|sdf|12569|dock2
  -GOLD-   2272018483D 1   1.00000     0.00000
 Structure written by MMmdl.
 44 45  0  0  0  0  0  0  0  0  2 V2000
  151.8531  145.5852  159.9905 C   0  0  0  0  0  0  0  0  0  0  0  0
  152.2893  144.2331  160.5299 C   0  0  0  0  0  0  0  0  0  0  0  0
  152.2860  144.0120  161.8584 C   0  0  0  0  0  0  0  0  0  0  0  0
  152.7696  142.7381  162.5114 C   0  0  0  0  0  0  0  0  0  0  0  0
  153.7046  141.9647  161.5787 C   0  0  0  0  0  0  0  0  0  0  0  0
  153.0901  141.7978  160.1793 C   0  0  2  0  0  0  0  0  0  0  0  0
  154.0262  140.9367  159.3087 C   0  0  0  0  0  0  0  0  0  0  0  0
  152.7487  143.1669  159.5137 C   0  0  1  0  0  0  0  0  0  0  0  0
  151.7309  142.9585  158.3608 C   0  0  0  0  0  0  0  0  0  0  0  0
  150.8587  141.7858  158.5721 N   0  3  0  0  0  0  0  0  0  0  0  0
  150.5881  141.0017  157.3511 C   0  0  0  0  0  0  0  0  0  0  0  0
  151.8850  140.4936  156.7033 C   0  0  0  0  0  0  0  0  0  0  0  0
  151.6685  139.3974  155.7048 C   0  0  0  0  0  0  0  0  0  0  0  0
  150.7504  139.3114  154.6959 C   0  0  0  0  0  0  0  0  0  0  0  0
  151.0070  138.0474  154.0977 C   0  0  0  0  0  0  0  0  0  0  0  0
  151.9981  137.4017  154.6864 N   0  0  0  0  0  0  0  0  0  0  0  0
  152.4123  138.2288  155.6694 N   0  0  0  0  0  0  0  0  0  0  0  0
  153.5133  137.8102  156.5173 C   0  0  0  0  0  0  0  0  0  0  0  0
  152.6080  145.9874  159.3154 H   0  0  0  0  0  0  0  0  0  0  0  0
  151.7159  146.3070  160.7965 H   0  0  0  0  0  0  0  0  0  0  0  0
  150.9044  145.5079  159.4601 H   0  0  0  0  0  0  0  0  0  0  0  0
  151.9350  144.7801  162.5325 H   0  0  0  0  0  0  0  0  0  0  0  0
  153.2933  142.9860  163.4351 H   0  0  0  0  0  0  0  0  0  0  0  0
  151.9040  142.1341  162.7847 H   0  0  0  0  0  0  0  0  0  0  0  0
  154.6565  142.4924  161.4986 H   0  0  0  0  0  0  0  0  0  0  0  0
  153.9279  140.9914  162.0173 H   0  0  0  0  0  0  0  0  0  0  0  0
  152.1583  141.2449  160.3101 H   0  0  0  0  0  0  0  0  0  0  0  0
  154.9765  141.4420  159.1323 H   0  0  0  0  0  0  0  0  0  0  0  0
  153.5938  140.6996  158.3380 H   0  0  0  0  0  0  0  0  0  0  0  0
  154.2468  139.9864  159.7961 H   0  0  0  0  0  0  0  0  0  0  0  0
  153.6742  143.5555  159.0859 H   0  0  0  0  0  0  0  0  0  0  0  0
  151.0776  143.8227  158.2518 H   0  0  0  0  0  0  0  0  0  0  0  0
  152.2623  142.8562  157.4134 H   0  0  0  0  0  0  0  0  0  0  0  0
  151.2994  141.1803  159.2500 H   0  0  0  0  0  0  0  0  0  0  0  0
  149.9392  140.1597  157.5961 H   0  0  0  0  0  0  0  0  0  0  0  0
  150.0459  141.6279  156.6413 H   0  0  0  0  0  0  0  0  0  0  0  0
  152.3756  141.3291  156.2029 H   0  0  0  0  0  0  0  0  0  0  0  0
  152.5811  140.1731  157.4783 H   0  0  0  0  0  0  0  0  0  0  0  0
  150.0032  140.0430  154.4257 H   0  0  0  0  0  0  0  0  0  0  0  0
  150.5050  137.5828  153.2617 H   0  0  0  0  0  0  0  0  0  0  0  0
  154.2272  138.6256  156.6351 H   0  0  0  0  0  0  0  0  0  0  0  0
  154.0338  136.9587  156.0761 H   0  0  0  0  0  0  0  0  0  0  0  0
  153.1329  137.5186  157.4955 H   0  0  0  0  0  0  0  0  0  0  0  0
  149.9782  142.1058  158.9500 H   0  0  0  0  0  0  0  0  0  0  0  0
  1  2  1  0  0  0  0
  1 19  1  0  0  0  0
  1 20  1  0  0  0  0
  1 21  1  0  0  0  0
  2  8  1  0  0  0  0
  2  3  2  0  0  0  0
  3  4  1  0  0  0  0
  3 22  1  0  0  0  0
  4  5  1  0  0  0  0
  4 23  1  0  0  0  0
  4 24  1  0  0  0  0
  5  6  1  0  0  0  0
  5 25  1  0  0  0  0
  5 26  1  0  0  0  0
  6  7  1  0  0  0  0
  6  8  1  0  0  0  0
  6 27  1  0  0  0  0
  7 28  1  0  0  0  0
  7 29  1  0  0  0  0
  7 30  1  0  0  0  0
  8  9  1  0  0  0  0
  8 31  1  0  0  0  0
  9 10  1  0  0  0  0
  9 32  1  0  0  0  0
  9 33  1  0  0  0  0
 10 11  1  0  0  0  0
 10 34  1  0  0  0  0
 10 44  1  0  0  0  0
 11 12  1  0  0  0  0
 11 35  1  0  0  0  0
 11 36  1  0  0  0  0
 12 13  1  0  0  0  0
 12 37  1  0  0  0  0
 12 38  1  0  0  0  0
 13 17  1  0  0  0  0
 13 14  2  0  0  0  0
 14 15  1  0  0  0  0
 14 39  1  0  0  0  0
 15 16  2  0  0  0  0
 15 40  1  0  0  0  0
 16 17  1  0  0  0  0
 17 18  1  0  0  0  0
 18 41  1  0  0  0  0
 18 42  1  0  0  0  0
 18 43  1  0  0  0  0
M  CHG  1  10   1
M  END
> <s_m_source_file>
AV-unprocessed.smi

> <i_m_source_file_index>
3283

> <i_lp_mmshare_version>
43012

> <i_f3d_flags>
0

> <s_epik_input>
W0NIM11DMT1bQ0hdW0NIMl1bQ0gyXVtDQEBIXShbQ0gzXSlbQ0BIXTFbQ0gyXVtOSF1bQ0gyXVtDSDJdYzJbY0hdW2NIXW5uMltDSDNd

> <s_epik_cmdline>
J2VwaWtfcHl0aG9uJywgJy1waCcsICc3LjAnLCAnLXRuJywgJzgnLCAnLW1hJywgJzIwMCcsICctbWV0YWxfYmluZGluZycsICctaW1hZScsICc8aW5maWxlLm1hZT4nLCAnLW9tYWUnLCAnPG91dGZpbGUubWFlPic=

> <r_lp_tautomer_probability>
1

> <r_epik_Ionization_Penalty>
0.000866911

> <r_epik_Ionization_Penalty_Charging>
0.000836385

> <r_epik_Ionization_Penalty_Neutral>
3.05258e-05

> <r_epik_State_Penalty>
-0

> <r_epik_Charging_Adjusted_Penalty>
0.000836385

> <i_epik_Tot_Q>
1

> <i_epik_Tot_abs_Q>
1

> <r_epik_Metal_State_Penalty>
-0

> <b_epik_Metal_Only>
0

> <s_lp_Force_Field>
OPLS_2005

> <r_lp_Energy>
14.6109

> <b_lp_Chiralities_Consistent>
1

> <s_lp_Variant>
AV-unprocessed.smi:3283-2

> <Gold.Version>
5.8.1

> <Gold.Id.Protein>
6NUR|6NUR_protein|mol2

> <Gold.PLP.Fitness>
51.5530

> <Gold.PLP.PLP>
-47.3463

> <Gold.PLP.part.hbond>
-1.0000

> <Gold.PLP.part.metal>
0.0000

> <Gold.PLP.part.buried>
-3.4348

> <Gold.PLP.part.nonpolar>
-42.1742

> <Gold.PLP.part.repulsive>
0.2397

> <Gold.PLP.ligand.clash>
0.0000

> <Gold.PLP.ligand.torsion>
0.9713

> <Gold.PLP.Chemscore.Hbond>
0.8960

> <Gold.PLP.Chemscore.CHOScore>
1.1050

> <Gold.PLP.Chemscore.Metal>
0.0000

> <Gold.Chemscore.Hbonds>
donor molecule, donor type, donor heavy atom, donor atom, acceptor molecule, acceptor atom, score
      P1  H 10752 10765       L1    16  0.88
      L1  C    15    40       P1  7948  0.60
      L1  C    15    40       P1  7949  0.51

> <Gold.PLP.Chemscore.Internal.Correction>
0.1464

> <Gold.Rescore>
     Score         DG    S(hbond)    S(metal)    S(lipo)     H(rot)  DE(clash)    DE(int)     intcor
     20.29     -21.43       0.93        0.00     142.31       1.48       0.13       1.01       ----

> <Gold.Chemscore.Fitness>
20.2889

> <Gold.Chemscore.DG>
-21.4311

> <Gold.Chemscore.ZeroCoef>
-5.4800

> <Gold.Chemscore.Hbond>
0.9288

> <Gold.Chemscore.Metal>
0.0000

> <Gold.Chemscore.Lipo>
142.3059

> <Gold.Chemscore.Internal_Hbond>
0.0000

> <Gold.Chemscore.DEClash>
0.1310

> <Gold.Chemscore.DEInternal>
1.0112

> <Gold.Chemscore.Rot>
1.4847

> <Gold.Chemscore.Internal.Correction>
   9.000000E+99

> <Gold.Chemscore.Hbonds>
donor molecule, donor type, donor heavy atom, donor atom, acceptor molecule, acceptor atom, score
      P1  H 10752 10765       L1    16  0.82

> <Gold.Chemscore.Hbond.Weighted>
-3.1021

> <Gold.Chemscore.Metal.Weighted>
-0.0000

> <Gold.Chemscore.Lipo.Weighted>
-16.6498

> <Gold.Chemscore.Internal_Hbond.Weighted>
0.0000

> <Gold.Chemscore.DEClash.Weighted>
0.1310

> <Gold.Chemscore.DEInternal.Weighted>
1.0112

> <Gold.Chemscore.Rot.Weighted>
3.8008

> <Gold.Chemscore.Internal.Correction.Weighted>
   9.000000E+99

> <Gold.Protein.RotatedTorsions>
[ 6907 6896 6895 6894 ] final -146.25 input  -60.11 | X-H torsion
[ 7974 7965 7964 7962 ] final   64.68 input  175.53 | X-H torsion
[ 8008 7997 7996 7995 ] final  -11.37 input   59.86 | X-H torsion
[ 10167 10162 10161 10158 ] final -109.34 input  -65.29 | X-H torsion
[ 10718 10713 10712 10709 ] final  -28.78 input   66.30 | X-H torsion
[ 10763 10752 10751 10750 ] final  164.11 input  -60.55 | X-H torsion
[ 11005 11000 10999 10996 ] final  -30.29 input  -57.11 | X-H torsion

> <Gold.Protein.ActiveResidues>
 VAL166  LYS551  ARG553  GLY616  TRP617  ASP618  TYR619  PRO620  LYS621  CYS622 
 ASP623  PHE694  ASN695  SER759  ASP760  ASP761  ALA762  ILE779  LEU786  VAL792 
 PHE793  MET794  SER795  GLU796  ALA797  LYS798  CYS799  TRP800  GLU811  SER814 

> <Gold.Protein.RotatedAtoms>
  151.1390  133.4984  159.2597 H   0  0  0  0  0  0  0  0  0  0  0  0  # atno 6907 bound_to 6896
  151.1675  135.0302  159.8747 H   0  0  0  0  0  0  0  0  0  0  0  0  # atno 6908 bound_to 6896
  152.5462  134.1257  159.8471 H   0  0  0  0  0  0  0  0  0  0  0  0  # atno 6909 bound_to 6896
  145.8473  139.3232  143.0896 H   0  0  0  0  0  0  0  0  0  0  0  0  # atno 7974 bound_to 7965
  154.5470  140.2304  155.8546 H   0  0  0  0  0  0  0  0  0  0  0  0  # atno 8008 bound_to 7997
  156.1912  140.3076  155.9298 H   0  0  0  0  0  0  0  0  0  0  0  0  # atno 8009 bound_to 7997
  155.3144  140.0437  157.3027 H   0  0  0  0  0  0  0  0  0  0  0  0  # atno 8010 bound_to 7997
  140.1563  143.4157  152.1458 H   0  0  0  0  0  0  0  0  0  0  0  0  # atno 10167 bound_to 10162
  156.4208  130.4426  149.7185 H   0  0  0  0  0  0  0  0  0  0  0  0  # atno 10718 bound_to 10713
  154.3040  135.2758  155.2598 H   0  0  0  0  0  0  0  0  0  0  0  0  # atno 10763 bound_to 10752
  154.5022  135.5805  153.6543 H   0  0  0  0  0  0  0  0  0  0  0  0  # atno 10764 bound_to 10752
  152.9897  135.6160  154.3212 H   0  0  0  0  0  0  0  0  0  0  0  0  # atno 10765 bound_to 10752
  140.9370  133.7303  156.1019 H   0  0  0  0  0  0  0  0  0  0  0  0  # atno 11005 bound_to 11000
  145.9397  140.8988  143.0314 LP  0  0  0  0  0  0  0  0  0  0  0  0  # atno 17320 bound_to 7965
  144.6730  140.1532  143.7428 LP  0  0  0  0  0  0  0  0  0  0  0  0  # atno 17321 bound_to 7965
  139.5402  144.7249  151.4760 LP  0  0  0  0  0  0  0  0  0  0  0  0  # atno 17342 bound_to 10162
  140.6671  143.8375  150.6954 LP  0  0  0  0  0  0  0  0  0  0  0  0  # atno 17343 bound_to 10162
  156.4126  130.7729  151.2743 LP  0  0  0  0  0  0  0  0  0  0  0  0  # atno 17370 bound_to 10713
  157.7508  131.0207  150.3718 LP  0  0  0  0  0  0  0  0  0  0  0  0  # atno 17371 bound_to 10713
  140.7786  134.3751  157.5492 LP  0  0  0  0  0  0  0  0  0  0  0  0  # atno 17394 bound_to 11000
  139.8810  134.9067  156.2929 LP  0  0  0  0  0  0  0  0  0  0  0  0  # atno 17395 bound_to 11000

$$$$
