AV-unprocessed.smi:1605|AV-procd|sdf|6459|dock4
  -GOLD-   22720 7113D 1   1.00000     0.00000
 Structure written by MMmdl.
 50 52  0  0  0  0  0  0  0  0  1 V2000
  152.4885  131.8545  163.9790 C   0  0  0  0  0  0  0  0  0  0  0  0
  153.7799  132.1433  164.4921 O   0  0  0  0  0  0  0  0  0  0  0  0
  154.3160  133.3881  164.0617 C   0  0  0  0  0  0  0  0  0  0  0  0
  153.5164  134.5787  164.6261 C   0  0  0  0  0  0  0  0  0  0  0  0
  153.9826  135.8982  163.9862 C   0  0  0  0  0  0  0  0  0  0  0  0
  153.8729  135.8890  162.5260 N   0  0  0  0  0  0  0  0  0  0  0  0
  154.2444  137.1927  161.9639 C   0  0  0  0  0  0  0  0  0  0  0  0
  153.2700  137.7947  160.9264 C   0  0  2  0  0  0  0  0  0  0  0  0
  152.7493  136.7498  160.1287 O   0  0  0  0  0  0  0  0  0  0  0  0
  153.8241  138.9261  160.0391 C   0  0  0  0  0  0  0  0  0  0  0  0
  153.7275  140.2244  160.6817 N   0  0  0  0  0  0  0  0  0  0  0  0
  154.1854  140.5639  161.9022 C   0  0  0  0  0  0  0  0  0  0  0  0
  153.9887  141.8180  162.2991 N   0  0  0  0  0  0  0  0  0  0  0  0
  153.3272  142.3549  161.2080 C   0  0  0  0  0  0  0  0  0  0  0  0
  152.8334  143.6591  160.9861 C   0  0  0  0  0  0  0  0  0  0  0  0
  152.1804  143.9910  159.7776 C   0  0  0  0  0  0  0  0  0  0  0  0
  151.6650  145.4058  159.5816 C   0  0  0  0  0  0  0  0  0  0  0  0
  152.0137  143.0099  158.7672 C   0  0  0  0  0  0  0  0  0  0  0  0
  151.3176  143.3444  157.4598 C   0  0  0  0  0  0  0  0  0  0  0  0
  152.4999  141.7017  158.9730 C   0  0  0  0  0  0  0  0  0  0  0  0
  153.1479  141.3841  160.1798 C   0  0  0  0  0  0  0  0  0  0  0  0
  154.6992  134.7974  161.9979 C   0  0  0  0  0  0  0  0  0  0  0  0
  154.2600  133.4219  162.5259 C   0  0  0  0  0  0  0  0  0  0  0  0
  152.1358  130.9122  164.3979 H   0  0  0  0  0  0  0  0  0  0  0  0
  152.4966  131.7500  162.8942 H   0  0  0  0  0  0  0  0  0  0  0  0
  151.7713  132.6294  164.2524 H   0  0  0  0  0  0  0  0  0  0  0  0
  155.3609  133.4675  164.3681 H   0  0  0  0  0  0  0  0  0  0  0  0
  152.4529  134.4352  164.4300 H   0  0  0  0  0  0  0  0  0  0  0  0
  153.6285  134.6427  165.7081 H   0  0  0  0  0  0  0  0  0  0  0  0
  153.3777  136.7092  164.3938 H   0  0  0  0  0  0  0  0  0  0  0  0
  155.0130  136.1042  164.2803 H   0  0  0  0  0  0  0  0  0  0  0  0
  154.3217  137.9240  162.7702 H   0  0  0  0  0  0  0  0  0  0  0  0
  155.2480  137.1381  161.5394 H   0  0  0  0  0  0  0  0  0  0  0  0
  152.4258  138.1979  161.4873 H   0  0  0  0  0  0  0  0  0  0  0  0
  152.6696  137.0657  159.2414 H   0  0  0  0  0  0  0  0  0  0  0  0
  154.8726  138.7430  159.8014 H   0  0  0  0  0  0  0  0  0  0  0  0
  153.2812  138.9766  159.0950 H   0  0  0  0  0  0  0  0  0  0  0  0
  154.6938  139.8504  162.5340 H   0  0  0  0  0  0  0  0  0  0  0  0
  152.9618  144.4061  161.7556 H   0  0  0  0  0  0  0  0  0  0  0  0
  150.5876  145.4003  159.4144 H   0  0  0  0  0  0  0  0  0  0  0  0
  152.1475  145.8725  158.7223 H   0  0  0  0  0  0  0  0  0  0  0  0
  151.8642  146.0270  160.4554 H   0  0  0  0  0  0  0  0  0  0  0  0
  151.2729  142.4779  156.7995 H   0  0  0  0  0  0  0  0  0  0  0  0
  151.8506  144.1377  156.9352 H   0  0  0  0  0  0  0  0  0  0  0  0
  150.2956  143.6762  157.6449 H   0  0  0  0  0  0  0  0  0  0  0  0
  152.3801  140.9445  158.2124 H   0  0  0  0  0  0  0  0  0  0  0  0
  154.6656  134.7721  160.9123 H   0  0  0  0  0  0  0  0  0  0  0  0
  155.7449  134.9661  162.2601 H   0  0  0  0  0  0  0  0  0  0  0  0
  154.8980  132.6409  162.1111 H   0  0  0  0  0  0  0  0  0  0  0  0
  153.2456  133.2092  162.1853 H   0  0  0  0  0  0  0  0  0  0  0  0
  1  2  1  0  0  0  0
  1 24  1  0  0  0  0
  1 25  1  0  0  0  0
  1 26  1  0  0  0  0
  2  3  1  0  0  0  0
  3 23  1  0  0  0  0
  3  4  1  0  0  0  0
  3 27  1  0  0  0  0
  4  5  1  0  0  0  0
  4 28  1  0  0  0  0
  4 29  1  0  0  0  0
  5  6  1  0  0  0  0
  5 30  1  0  0  0  0
  5 31  1  0  0  0  0
  6  7  1  0  0  0  0
  6 22  1  0  0  0  0
  7  8  1  0  0  0  0
  7 32  1  0  0  0  0
  7 33  1  0  0  0  0
  8  9  1  0  0  0  0
  8 10  1  0  0  0  0
  8 34  1  0  0  0  0
  9 35  1  0  0  0  0
 10 11  1  0  0  0  0
 10 36  1  0  0  0  0
 10 37  1  0  0  0  0
 11 21  1  0  0  0  0
 11 12  1  0  0  0  0
 12 13  2  0  0  0  0
 12 38  1  0  0  0  0
 13 14  1  0  0  0  0
 14 21  2  0  0  0  0
 14 15  1  0  0  0  0
 15 16  2  0  0  0  0
 15 39  1  0  0  0  0
 16 17  1  0  0  0  0
 16 18  1  0  0  0  0
 17 40  1  0  0  0  0
 17 41  1  0  0  0  0
 17 42  1  0  0  0  0
 18 19  1  0  0  0  0
 18 20  2  0  0  0  0
 19 43  1  0  0  0  0
 19 44  1  0  0  0  0
 19 45  1  0  0  0  0
 20 21  1  0  0  0  0
 20 46  1  0  0  0  0
 22 23  1  0  0  0  0
 22 47  1  0  0  0  0
 22 48  1  0  0  0  0
 23 49  1  0  0  0  0
 23 50  1  0  0  0  0
M  END
> <s_m_source_file>
AV-unprocessed.smi

> <i_m_source_file_index>
1605

> <i_lp_mmshare_version>
43012

> <i_f3d_flags>
0

> <s_epik_input>
W0NIM11PW0NIXTFbQ0gyXVtDSDJdTihbQ0gyXVtDSDJdMSlbQ0gyXVtDQEhdKFtPSF0pW0NIMl1uKFtjSF1uMiljKGMyMylbY0hdYyhbQ0gzXSljKFtjSF0zKVtDSDNd

> <s_epik_cmdline>
J2VwaWtfcHl0aG9uJywgJy1waCcsICc3LjAnLCAnLXRuJywgJzgnLCAnLW1hJywgJzIwMCcsICctbWV0YWxfYmluZGluZycsICctaW1hZScsICc8aW5maWxlLm1hZT4nLCAnLW9tYWUnLCAnPG91dGZpbGUubWFlPic=

> <r_epik_Ionization_Penalty>
2.02119

> <r_epik_Ionization_Penalty_Charging>
0

> <r_epik_Ionization_Penalty_Neutral>
2.02119

> <r_epik_State_Penalty>
2.11303

> <r_epik_Charging_Adjusted_Penalty>
2.11303

> <i_epik_Tot_Q>
0

> <i_epik_Tot_abs_Q>
0

> <r_epik_Metal_State_Penalty>
2.04251

> <b_epik_Metal_Only>
0

> <s_lp_Force_Field>
OPLS_2005

> <r_lp_Energy>
37.9414

> <b_lp_Chiralities_Consistent>
1

> <s_lp_Variant>
AV-unprocessed.smi:1605-9

> <Gold.Version>
5.8.1

> <Gold.Id.Protein>
6NUR|6NUR_protein|mol2

> <Gold.PLP.Fitness>
51.9246

> <Gold.PLP.PLP>
-51.3779

> <Gold.PLP.part.hbond>
-2.0000

> <Gold.PLP.part.metal>
0.0000

> <Gold.PLP.part.buried>
-6.4745

> <Gold.PLP.part.nonpolar>
-42.9306

> <Gold.PLP.part.repulsive>
0.0175

> <Gold.PLP.ligand.clash>
0.0000

> <Gold.PLP.ligand.torsion>
1.2538

> <Gold.PLP.Chemscore.Hbond>
1.0000

> <Gold.PLP.Chemscore.CHOScore>
0.0000

> <Gold.PLP.Chemscore.Metal>
0.0000

> <Gold.Chemscore.Hbonds>
donor molecule, donor type, donor heavy atom, donor atom, acceptor molecule, acceptor atom, score
      P1  H  6896  6909       L1     9  1.00

> <Gold.PLP.Chemscore.Internal.Correction>
0.0543

> <Gold.Rescore>
     Score         DG    S(hbond)    S(metal)    S(lipo)     H(rot)  DE(clash)    DE(int)     intcor
     18.69     -19.78       0.94        0.00     142.24       2.14       0.04       1.05       ----

> <Gold.Chemscore.Fitness>
18.6938

> <Gold.Chemscore.DG>
-19.7839

> <Gold.Chemscore.ZeroCoef>
-5.4800

> <Gold.Chemscore.Hbond>
0.9429

> <Gold.Chemscore.Metal>
0.0000

> <Gold.Chemscore.Lipo>
142.2448

> <Gold.Chemscore.Internal_Hbond>
0.0000

> <Gold.Chemscore.DEClash>
0.0431

> <Gold.Chemscore.DEInternal>
1.0471

> <Gold.Chemscore.Rot>
2.1438

> <Gold.Chemscore.Internal.Correction>
   9.000000E+99

> <Gold.Chemscore.Hbonds>
donor molecule, donor type, donor heavy atom, donor atom, acceptor molecule, acceptor atom, score
      P1  H  6896  6909       L1     9  0.45

> <Gold.Chemscore.Hbond.Weighted>
-3.1494

> <Gold.Chemscore.Metal.Weighted>
-0.0000

> <Gold.Chemscore.Lipo.Weighted>
-16.6426

> <Gold.Chemscore.Internal_Hbond.Weighted>
0.0000

> <Gold.Chemscore.DEClash.Weighted>
0.0431

> <Gold.Chemscore.DEInternal.Weighted>
1.0471

> <Gold.Chemscore.Rot.Weighted>
5.4881

> <Gold.Chemscore.Internal.Correction.Weighted>
   9.000000E+99

> <Gold.Protein.RotatedTorsions>
[ 6907 6896 6895 6894 ] final  146.41 input  -60.11 | X-H torsion
[ 7974 7965 7964 7962 ] final  -30.86 input  175.53 | X-H torsion
[ 8008 7997 7996 7995 ] final   65.22 input   59.86 | X-H torsion
[ 10167 10162 10161 10158 ] final  -94.17 input  -65.29 | X-H torsion
[ 10718 10713 10712 10709 ] final  172.45 input   66.30 | X-H torsion
[ 10763 10752 10751 10750 ] final  -65.81 input  -60.55 | X-H torsion
[ 11005 11000 10999 10996 ] final   13.57 input  -57.11 | X-H torsion

> <Gold.Protein.ActiveResidues>
 VAL166  LYS551  ARG553  GLY616  TRP617  ASP618  TYR619  PRO620  LYS621  CYS622 
 ASP623  PHE694  ASN695  SER759  ASP760  ASP761  ALA762  ILE779  LEU786  VAL792 
 PHE793  MET794  SER795  GLU796  ALA797  LYS798  CYS799  TRP800  GLU811  SER814 

> <Gold.Protein.RotatedAtoms>
  152.1683  133.4627  159.4895 H   0  0  0  0  0  0  0  0  0  0  0  0  # atno 6907 bound_to 6896
  150.6916  134.1985  159.4322 H   0  0  0  0  0  0  0  0  0  0  0  0  # atno 6908 bound_to 6896
  151.9890  134.9988  160.0611 H   0  0  0  0  0  0  0  0  0  0  0  0  # atno 6909 bound_to 6896
  146.1111  140.5594  142.8777 H   0  0  0  0  0  0  0  0  0  0  0  0  # atno 7974 bound_to 7965
  155.6583  140.3497  155.4773 H   0  0  0  0  0  0  0  0  0  0  0  0  # atno 8008 bound_to 7997
  155.9790  140.1170  157.0767 H   0  0  0  0  0  0  0  0  0  0  0  0  # atno 8009 bound_to 7997
  154.4186  140.1142  156.5395 H   0  0  0  0  0  0  0  0  0  0  0  0  # atno 8010 bound_to 7997
  140.3172  143.3070  152.0085 H   0  0  0  0  0  0  0  0  0  0  0  0  # atno 10167 bound_to 10162
  156.9788  131.0112  151.2887 H   0  0  0  0  0  0  0  0  0  0  0  0  # atno 10718 bound_to 10713
  154.3505  135.6137  153.5640 H   0  0  0  0  0  0  0  0  0  0  0  0  # atno 10763 bound_to 10752
  152.9798  135.5791  154.4749 H   0  0  0  0  0  0  0  0  0  0  0  0  # atno 10764 bound_to 10752
  154.4469  135.2851  155.1786 H   0  0  0  0  0  0  0  0  0  0  0  0  # atno 10765 bound_to 10752
  140.4792  134.0952  155.7747 H   0  0  0  0  0  0  0  0  0  0  0  0  # atno 11005 bound_to 11000
  144.7512  140.5196  143.6800 LP  0  0  0  0  0  0  0  0  0  0  0  0  # atno 17320 bound_to 7965
  145.5661  139.1481  143.3314 LP  0  0  0  0  0  0  0  0  0  0  0  0  # atno 17321 bound_to 7965
  139.4881  144.6339  151.7015 LP  0  0  0  0  0  0  0  0  0  0  0  0  # atno 17342 bound_to 10162
  140.5516  144.0416  150.6129 LP  0  0  0  0  0  0  0  0  0  0  0  0  # atno 17343 bound_to 10162
  157.5541  130.8201  149.8181 LP  0  0  0  0  0  0  0  0  0  0  0  0  # atno 17370 bound_to 10713
  156.0253  130.3782  150.1842 LP  0  0  0  0  0  0  0  0  0  0  0  0  # atno 17371 bound_to 10713
  141.1539  133.8918  157.2027 LP  0  0  0  0  0  0  0  0  0  0  0  0  # atno 17394 bound_to 11000
  139.9837  135.0089  156.9811 LP  0  0  0  0  0  0  0  0  0  0  0  0  # atno 17395 bound_to 11000

$$$$
