AV-unprocessed.smi:876|AV-procd|sdf|4023|dock5
  -GOLD-   22720 1513D 1   1.00000     0.00000
 Structure written by MMmdl.
 40 41  0  0  0  0  0  0  0  0  1 V2000
  149.0931  128.6096  154.1929 C   0  0  0  0  0  0  0  0  0  0  0  0
  148.2955  129.7147  153.6757 N   0  0  0  0  0  0  0  0  0  0  0  0
  147.0679  129.4418  152.9352 C   0  0  0  0  0  0  0  0  0  0  0  0
  148.7238  131.0491  153.8615 C   0  0  0  0  0  0  0  0  0  0  0  0
  149.7326  131.3786  154.8005 C   0  0  0  0  0  0  0  0  0  0  0  0
  150.1258  132.7225  154.9500 C   0  0  0  0  0  0  0  0  0  0  0  0
  149.5071  133.7121  154.1518 C   0  0  0  0  0  0  0  0  0  0  0  0
  149.7984  135.1020  154.2191 N   0  0  0  0  0  0  0  0  0  0  0  0
  150.6466  135.7463  155.0390 C   0  0  0  0  0  0  0  0  0  0  0  0
  151.3709  135.2141  155.8797 O   0  0  0  0  0  0  0  0  0  0  0  0
  150.6244  137.0679  154.8160 N   0  0  0  0  0  0  0  0  0  0  0  0
  151.4311  138.0474  155.5356 C   0  0  2  0  0  0  0  0  0  0  0  0
  150.8686  138.2896  156.9094 C   0  0  0  0  0  0  0  0  0  0  0  0
  150.6311  139.5775  157.1472 C   0  0  0  0  0  0  0  0  0  0  0  0
  150.9797  140.4621  155.9774 C   0  0  2  0  0  0  0  0  0  0  0  0
  149.8193  141.3767  155.5484 C   0  0  0  0  0  0  0  0  0  0  0  0
  149.5203  142.3107  156.5650 O   0  0  0  0  0  0  0  0  0  0  0  0
  151.4016  139.4529  154.8791 C   0  0  0  0  0  0  0  0  0  0  0  0
  148.5064  133.2910  153.2548 C   0  0  0  0  0  0  0  0  0  0  0  0
  148.1268  132.0048  153.1080 N   0  0  0  0  0  0  0  0  0  0  0  0
  152.4561  137.6887  155.6447 H   0  0  0  0  0  0  0  0  0  0  0  0
  151.8402  141.0691  156.2626 H   0  0  0  0  0  0  0  0  0  0  0  0
  149.1712  128.6697  155.2790 H   0  0  0  0  0  0  0  0  0  0  0  0
  150.0972  128.6289  153.7680 H   0  0  0  0  0  0  0  0  0  0  0  0
  148.6466  127.6465  153.9449 H   0  0  0  0  0  0  0  0  0  0  0  0
  147.1492  129.8074  151.9110 H   0  0  0  0  0  0  0  0  0  0  0  0
  146.2165  129.9299  153.4111 H   0  0  0  0  0  0  0  0  0  0  0  0
  146.8576  128.3730  152.8930 H   0  0  0  0  0  0  0  0  0  0  0  0
  150.2095  130.6296  155.4143 H   0  0  0  0  0  0  0  0  0  0  0  0
  150.8805  132.9620  155.6824 H   0  0  0  0  0  0  0  0  0  0  0  0
  149.3308  135.6729  153.5303 H   0  0  0  0  0  0  0  0  0  0  0  0
  150.0058  137.4228  154.1015 H   0  0  0  0  0  0  0  0  0  0  0  0
  150.7023  137.4876  157.6137 H   0  0  0  0  0  0  0  0  0  0  0  0
  150.2423  139.9757  158.0730 H   0  0  0  0  0  0  0  0  0  0  0  0
  150.0849  141.9247  154.6440 H   0  0  0  0  0  0  0  0  0  0  0  0
  148.9264  140.7927  155.3226 H   0  0  0  0  0  0  0  0  0  0  0  0
  149.3388  143.1460  156.1619 H   0  0  0  0  0  0  0  0  0  0  0  0
  152.3762  139.7099  154.4623 H   0  0  0  0  0  0  0  0  0  0  0  0
  150.6933  139.4771  154.0492 H   0  0  0  0  0  0  0  0  0  0  0  0
  147.9929  134.0073  152.6301 H   0  0  0  0  0  0  0  0  0  0  0  0
  1  2  1  0  0  0  0
  1 23  1  0  0  0  0
  1 24  1  0  0  0  0
  1 25  1  0  0  0  0
  2  3  1  0  0  0  0
  2  4  1  0  0  0  0
  3 26  1  0  0  0  0
  3 27  1  0  0  0  0
  3 28  1  0  0  0  0
  4 20  1  0  0  0  0
  4  5  2  0  0  0  0
  5  6  1  0  0  0  0
  5 29  1  0  0  0  0
  6  7  2  0  0  0  0
  6 30  1  0  0  0  0
  7  8  1  0  0  0  0
  7 19  1  0  0  0  0
  8  9  1  0  0  0  0
  8 31  1  0  0  0  0
  9 10  2  0  0  0  0
  9 11  1  0  0  0  0
 11 12  1  0  0  0  0
 11 32  1  0  0  0  0
 12 21  1  0  0  0  0
 12 18  1  0  0  0  0
 12 13  1  0  0  0  0
 13 14  2  0  0  0  0
 13 33  1  0  0  0  0
 14 15  1  0  0  0  0
 14 34  1  0  0  0  0
 15 22  1  0  0  0  0
 15 16  1  0  0  0  0
 15 18  1  0  0  0  0
 16 17  1  0  0  0  0
 16 35  1  0  0  0  0
 16 36  1  0  0  0  0
 17 37  1  0  0  0  0
 18 38  1  0  0  0  0
 18 39  1  0  0  0  0
 19 20  2  0  0  0  0
 19 40  1  0  0  0  0
M  END
> <s_m_source_file>
AV-unprocessed.smi

> <i_m_source_file_index>
876

> <i_lp_mmshare_version>
43012

> <i_f3d_flags>
0

> <s_epik_input>
W0NIM11OKFtDSDNdKWMxW2NIXVtjSF1jKFtjSF1uMSlbTkhdQyg9TylbTkhdW0NAQEhdMltDSF09W0NIXVtDQEBIXShbQ0gyXTIpW0NIMl1bT0hd

> <s_epik_cmdline>
J2VwaWtfcHl0aG9uJywgJy1waCcsICc3LjAnLCAnLXRuJywgJzgnLCAnLW1hJywgJzIwMCcsICctbWV0YWxfYmluZGluZycsICctaW1hZScsICc8aW5maWxlLm1hZT4nLCAnLW9tYWUnLCAnPG91dGZpbGUubWFlPic=

> <r_lp_tautomer_probability>
1

> <r_epik_Ionization_Penalty>
0.617998

> <r_epik_Ionization_Penalty_Charging>
0

> <r_epik_Ionization_Penalty_Neutral>
0.617998

> <r_epik_State_Penalty>
0.632637

> <r_epik_Charging_Adjusted_Penalty>
0.632637

> <i_epik_Tot_Q>
0

> <i_epik_Tot_abs_Q>
0

> <r_epik_Metal_State_Penalty>
0.305596

> <b_epik_Metal_Only>
0

> <s_lp_Force_Field>
OPLS_2005

> <r_lp_Energy>
21.6673

> <b_lp_Chiralities_Consistent>
1

> <s_lp_Variant>
AV-unprocessed.smi:876-5

> <Gold.Version>
5.8.1

> <Gold.Id.Protein>
6NUR|6NUR_protein|mol2

> <Gold.PLP.Fitness>
42.7570

> <Gold.PLP.PLP>
-32.5790

> <Gold.PLP.part.hbond>
-3.6188

> <Gold.PLP.part.metal>
0.0000

> <Gold.PLP.part.buried>
-0.9906

> <Gold.PLP.part.nonpolar>
-28.0470

> <Gold.PLP.part.repulsive>
0.2800

> <Gold.PLP.ligand.clash>
0.0000

> <Gold.PLP.ligand.torsion>
0.2658

> <Gold.PLP.Chemscore.Hbond>
2.6944

> <Gold.PLP.Chemscore.CHOScore>
0.8703

> <Gold.PLP.Chemscore.Metal>
0.0000

> <Gold.Chemscore.Hbonds>
donor molecule, donor type, donor heavy atom, donor atom, acceptor molecule, acceptor atom, score
      L1  H     8    31       P1  7948  1.00
      L1  H    17    37       P1  8028  1.00
      P1  H 10752 10765       L1    10  0.59
      L1  C    19    40       P1  7948  0.85

> <Gold.PLP.Chemscore.Internal.Correction>
0.0154

> <Gold.Rescore>
     Score         DG    S(hbond)    S(metal)    S(lipo)     H(rot)  DE(clash)    DE(int)     intcor
     14.20     -17.39       2.48        0.00      70.36       1.80       1.86       1.33       ----

> <Gold.Chemscore.Fitness>
14.1990

> <Gold.Chemscore.DG>
-17.3924

> <Gold.Chemscore.ZeroCoef>
-5.4800

> <Gold.Chemscore.Hbond>
2.4800

> <Gold.Chemscore.Metal>
0.0000

> <Gold.Chemscore.Lipo>
70.3607

> <Gold.Chemscore.Internal_Hbond>
0.0000

> <Gold.Chemscore.DEClash>
1.8615

> <Gold.Chemscore.DEInternal>
1.3319

> <Gold.Chemscore.Rot>
1.7980

> <Gold.Chemscore.Internal.Correction>
   9.000000E+99

> <Gold.Chemscore.Hbonds>
donor molecule, donor type, donor heavy atom, donor atom, acceptor molecule, acceptor atom, score
      L1  H     8    31       P1  7948  0.43
      L1  H    17    37       P1  8028  1.00
      P1  H 10752 10765       L1    10  0.04

> <Gold.Chemscore.Hbond.Weighted>
-8.2831

> <Gold.Chemscore.Metal.Weighted>
-0.0000

> <Gold.Chemscore.Lipo.Weighted>
-8.2322

> <Gold.Chemscore.Internal_Hbond.Weighted>
0.0000

> <Gold.Chemscore.DEClash.Weighted>
1.8615

> <Gold.Chemscore.DEInternal.Weighted>
1.3319

> <Gold.Chemscore.Rot.Weighted>
4.6029

> <Gold.Chemscore.Internal.Correction.Weighted>
   9.000000E+99

> <Gold.Protein.RotatedTorsions>
[ 6907 6896 6895 6894 ] final   -3.38 input  -60.11 | X-H torsion
[ 7974 7965 7964 7962 ] final -165.73 input  175.53 | X-H torsion
[ 8008 7997 7996 7995 ] final  172.74 input   59.86 | X-H torsion
[ 10167 10162 10161 10158 ] final    9.35 input  -65.29 | X-H torsion
[ 10718 10713 10712 10709 ] final  -86.84 input   66.30 | X-H torsion
[ 10763 10752 10751 10750 ] final -169.85 input  -60.55 | X-H torsion
[ 11005 11000 10999 10996 ] final  -70.63 input  -57.11 | X-H torsion

> <Gold.Protein.ActiveResidues>
 VAL166  LYS551  ARG553  GLY616  TRP617  ASP618  TYR619  PRO620  LYS621  CYS622 
 ASP623  PHE694  ASN695  SER759  ASP760  ASP761  ALA762  ILE779  LEU786  VAL792 
 PHE793  MET794  SER795  GLU796  ALA797  LYS798  CYS799  TRP800  GLU811  SER814 

> <Gold.Protein.RotatedAtoms>
  151.5146  135.1066  159.9862 H   0  0  0  0  0  0  0  0  0  0  0  0  # atno 6907 bound_to 6896
  152.4647  133.7892  159.6903 H   0  0  0  0  0  0  0  0  0  0  0  0  # atno 6908 bound_to 6896
  150.8624  133.7559  159.3013 H   0  0  0  0  0  0  0  0  0  0  0  0  # atno 6909 bound_to 6896
  144.7262  140.2771  143.6241 H   0  0  0  0  0  0  0  0  0  0  0  0  # atno 7974 bound_to 7965
  156.1144  140.1478  156.9293 H   0  0  0  0  0  0  0  0  0  0  0  0  # atno 8008 bound_to 7997
  154.4790  140.0885  156.7374 H   0  0  0  0  0  0  0  0  0  0  0  0  # atno 8009 bound_to 7997
  155.4539  140.3436  155.4306 H   0  0  0  0  0  0  0  0  0  0  0  0  # atno 8010 bound_to 7997
  140.6260  143.8100  150.7234 H   0  0  0  0  0  0  0  0  0  0  0  0  # atno 10167 bound_to 10162
  155.9988  130.4779  150.4775 H   0  0  0  0  0  0  0  0  0  0  0  0  # atno 10718 bound_to 10713
  154.6479  135.2907  155.0023 H   0  0  0  0  0  0  0  0  0  0  0  0  # atno 10763 bound_to 10752
  154.1127  135.6560  153.4892 H   0  0  0  0  0  0  0  0  0  0  0  0  # atno 10764 bound_to 10752
  153.0361  135.5269  154.7374 H   0  0  0  0  0  0  0  0  0  0  0  0  # atno 10765 bound_to 10752
  141.1577  133.6795  156.6781 H   0  0  0  0  0  0  0  0  0  0  0  0  # atno 11005 bound_to 11000
  145.7986  139.1955  143.2061 LP  0  0  0  0  0  0  0  0  0  0  0  0  # atno 17320 bound_to 7965
  146.0696  140.7884  142.9695 LP  0  0  0  0  0  0  0  0  0  0  0  0  # atno 17321 bound_to 7965
  140.1701  143.4202  152.2007 LP  0  0  0  0  0  0  0  0  0  0  0  0  # atno 17342 bound_to 10162
  139.5480  144.7315  151.4522 LP  0  0  0  0  0  0  0  0  0  0  0  0  # atno 17343 bound_to 10162
  157.2784  131.0602  151.2214 LP  0  0  0  0  0  0  0  0  0  0  0  0  # atno 17370 bound_to 10713
  157.3269  130.6965  149.6301 LP  0  0  0  0  0  0  0  0  0  0  0  0  # atno 17371 bound_to 10713
  140.3123  134.8076  157.4186 LP  0  0  0  0  0  0  0  0  0  0  0  0  # atno 17394 bound_to 11000
  140.1168  134.5273  155.8218 LP  0  0  0  0  0  0  0  0  0  0  0  0  # atno 17395 bound_to 11000

$$$$
