AV-unprocessed.smi:2647|AV-procd|sdf|10284|dock8
  -GOLD-   2272014293D 1   1.00000     0.00000
 Structure written by MMmdl.
 31 32  0  0  0  0  0  0  0  0  2 V2000
  148.5578  138.2156  158.9211 O   0  0  0  0  0  0  0  0  0  0  0  0
  149.2378  137.1889  158.8543 C   0  0  0  0  0  0  0  0  0  0  0  0
  150.1189  137.0336  157.8556 N   0  0  0  0  0  0  0  0  0  0  0  0
  150.3719  137.9867  156.7803 C   0  0  0  0  0  0  0  0  0  0  0  0
  151.2472  139.1568  157.2564 C   0  0  0  0  0  0  0  0  0  0  0  0
  150.5218  140.0572  158.2706 C   0  0  0  0  0  0  0  0  0  0  0  0
  151.4302  141.0519  158.8503 N   0  0  0  0  0  0  0  0  0  0  0  0
  151.2276  142.3759  158.7942 C   0  0  0  0  0  0  0  0  0  0  0  0
  150.2839  142.9472  158.2485 O   0  0  0  0  0  0  0  0  0  0  0  0
  152.3366  143.1297  159.5156 C   0  0  0  0  0  0  0  0  0  0  0  0
  153.2499  142.0064  160.0162 C   0  0  0  0  0  0  0  0  0  0  0  0
  152.5458  140.7472  159.5285 C   0  0  0  0  0  0  0  0  0  0  0  0
  152.9783  139.6174  159.7531 O   0  0  0  0  0  0  0  0  0  0  0  0
  149.1960  136.1431  159.7110 N   0  5  0  0  0  0  0  0  0  0  0  0
  148.1921  136.0405  160.5975 C   0  0  0  0  0  0  0  0  0  0  0  0
  147.6505  137.1129  161.1973 N   0  0  0  0  0  0  0  0  0  0  0  0
  146.6305  136.7875  162.0812 N   0  0  0  0  0  0  0  0  0  0  0  0
  146.4340  135.4702  162.1325 C   0  0  0  0  0  0  0  0  0  0  0  0
  147.4779  134.5081  161.1078 S   0  0  0  0  0  0  0  0  0  0  0  0
  150.6548  136.1783  157.8416 H   0  0  0  0  0  0  0  0  0  0  0  0
  150.8341  137.4816  155.9304 H   0  0  0  0  0  0  0  0  0  0  0  0
  149.4092  138.3616  156.4322 H   0  0  0  0  0  0  0  0  0  0  0  0
  152.1616  138.7648  157.7041 H   0  0  0  0  0  0  0  0  0  0  0  0
  151.5561  139.7551  156.3983 H   0  0  0  0  0  0  0  0  0  0  0  0
  149.6796  140.5549  157.7866 H   0  0  0  0  0  0  0  0  0  0  0  0
  150.0856  139.4473  159.0636 H   0  0  0  0  0  0  0  0  0  0  0  0
  152.8542  143.8002  158.8288 H   0  0  0  0  0  0  0  0  0  0  0  0
  151.9258  143.7157  160.3384 H   0  0  0  0  0  0  0  0  0  0  0  0
  154.2504  142.0743  159.5878 H   0  0  0  0  0  0  0  0  0  0  0  0
  153.3314  142.0023  161.1037 H   0  0  0  0  0  0  0  0  0  0  0  0
  145.6716  135.0623  162.7791 H   0  0  0  0  0  0  0  0  0  0  0  0
  1  2  2  0  0  0  0
  2  3  1  0  0  0  0
  2 14  1  0  0  0  0
  3  4  1  0  0  0  0
  3 20  1  0  0  0  0
  4  5  1  0  0  0  0
  4 21  1  0  0  0  0
  4 22  1  0  0  0  0
  5  6  1  0  0  0  0
  5 23  1  0  0  0  0
  5 24  1  0  0  0  0
  6  7  1  0  0  0  0
  6 25  1  0  0  0  0
  6 26  1  0  0  0  0
  7 12  1  0  0  0  0
  7  8  1  0  0  0  0
  8  9  2  0  0  0  0
  8 10  1  0  0  0  0
 10 11  1  0  0  0  0
 10 27  1  0  0  0  0
 10 28  1  0  0  0  0
 11 12  1  0  0  0  0
 11 29  1  0  0  0  0
 11 30  1  0  0  0  0
 12 13  2  0  0  0  0
 14 15  1  0  0  0  0
 15 19  1  0  0  0  0
 15 16  2  0  0  0  0
 16 17  1  0  0  0  0
 17 18  2  0  0  0  0
 18 19  1  0  0  0  0
 18 31  1  0  0  0  0
M  CHG  1  14  -1
M  END
> <s_m_source_file>
AV-unprocessed.smi

> <i_m_source_file_index>
2647

> <i_lp_mmshare_version>
43012

> <i_f3d_flags>
0

> <s_epik_input>
czFbY0hdbm5jMVtOSF1DKD1PKVtOSF1bQ0gyXVtDSDJdW0NIMl1OMkMoPU8pW0NIMl1bQ0gyXUMyPU8=

> <s_epik_cmdline>
J2VwaWtfcHl0aG9uJywgJy1waCcsICc3LjAnLCAnLXRuJywgJzgnLCAnLW1hJywgJzIwMCcsICctbWV0YWxfYmluZGluZycsICctaW1hZScsICc8aW5maWxlLm1hZT4nLCAnLW9tYWUnLCAnPG91dGZpbGUubWFlPic=

> <r_lp_tautomer_probability>
1

> <r_epik_Ionization_Penalty>
3.50019

> <r_epik_Ionization_Penalty_Charging>
3.45871

> <r_epik_Ionization_Penalty_Neutral>
0.0414811

> <r_epik_State_Penalty>
3.45698

> <r_epik_Charging_Adjusted_Penalty>
6.91569

> <i_epik_Tot_Q>
-1

> <i_epik_Tot_abs_Q>
1

> <r_epik_Metal_State_Penalty>
0.503209

> <b_epik_Metal_Only>
1

> <s_lp_Force_Field>
OPLS_2005

> <r_lp_Energy>
9.35786

> <b_lp_Chiralities_Consistent>
1

> <s_lp_Variant>
AV-unprocessed.smi:2647-2

> <Gold.Version>
5.8.1

> <Gold.Id.Protein>
6NUR|6NUR_protein|mol2

> <Gold.PLP.Fitness>
40.8944

> <Gold.PLP.PLP>
-30.4861

> <Gold.PLP.part.hbond>
-4.3164

> <Gold.PLP.part.metal>
0.0000

> <Gold.PLP.part.buried>
-5.0325

> <Gold.PLP.part.nonpolar>
-22.2811

> <Gold.PLP.part.repulsive>
0.2223

> <Gold.PLP.ligand.clash>
0.0000

> <Gold.PLP.ligand.torsion>
0.4477

> <Gold.PLP.Chemscore.Hbond>
3.7344

> <Gold.PLP.Chemscore.CHOScore>
0.0000

> <Gold.PLP.Chemscore.Metal>
0.0000

> <Gold.Chemscore.Hbonds>
donor molecule, donor type, donor heavy atom, donor atom, acceptor molecule, acceptor atom, score
      P1  H  6896  6908       L1    14  1.72
      P1  H  6931  6943       L1    16  0.98
      P1  H  6934  6947       L1    16  0.79

> <Gold.PLP.Chemscore.Internal.Correction>
0.1005

> <Gold.Rescore>
     Score         DG    S(hbond)    S(metal)    S(lipo)     H(rot)  DE(clash)    DE(int)     intcor
      8.53     -11.89       1.93        0.00      50.48       2.32       0.00       3.36       ----

> <Gold.Chemscore.Fitness>
8.5312

> <Gold.Chemscore.DG>
-11.8919

> <Gold.Chemscore.ZeroCoef>
-5.4800

> <Gold.Chemscore.Hbond>
1.9310

> <Gold.Chemscore.Metal>
0.0000

> <Gold.Chemscore.Lipo>
50.4821

> <Gold.Chemscore.Internal_Hbond>
0.0000

> <Gold.Chemscore.DEClash>
0.0000

> <Gold.Chemscore.DEInternal>
3.3608

> <Gold.Chemscore.Rot>
2.3219

> <Gold.Chemscore.Internal.Correction>
   9.000000E+99

> <Gold.Chemscore.Hbonds>
donor molecule, donor type, donor heavy atom, donor atom, acceptor molecule, acceptor atom, score
      P1  H  6896  6908       L1    14  0.77
      P1  H  6931  6943       L1    16  0.68
      P1  H  6934  6947       L1    16  0.15

> <Gold.Chemscore.Hbond.Weighted>
-6.4496

> <Gold.Chemscore.Metal.Weighted>
-0.0000

> <Gold.Chemscore.Lipo.Weighted>
-5.9064

> <Gold.Chemscore.Internal_Hbond.Weighted>
0.0000

> <Gold.Chemscore.DEClash.Weighted>
0.0000

> <Gold.Chemscore.DEInternal.Weighted>
3.3608

> <Gold.Chemscore.Rot.Weighted>
5.9441

> <Gold.Chemscore.Internal.Correction.Weighted>
   9.000000E+99

> <Gold.Protein.RotatedTorsions>
[ 6907 6896 6895 6894 ] final -162.58 input  -60.11 | X-H torsion
[ 7974 7965 7964 7962 ] final  -21.45 input  175.53 | X-H torsion
[ 8008 7997 7996 7995 ] final  -91.41 input   59.86 | X-H torsion
[ 10167 10162 10161 10158 ] final -154.32 input  -65.29 | X-H torsion
[ 10718 10713 10712 10709 ] final  -38.87 input   66.30 | X-H torsion
[ 10763 10752 10751 10750 ] final   54.58 input  -60.55 | X-H torsion
[ 11005 11000 10999 10996 ] final   -3.64 input  -57.11 | X-H torsion

> <Gold.Protein.ActiveResidues>
 VAL166  LYS551  ARG553  GLY616  TRP617  ASP618  TYR619  PRO620  LYS621  CYS622 
 ASP623  PHE694  ASN695  SER759  ASP760  ASP761  ALA762  ILE779  LEU786  VAL792 
 PHE793  MET794  SER795  GLU796  ALA797  LYS798  CYS799  TRP800  GLU811  SER814 

> <Gold.Protein.RotatedAtoms>
  151.3826  133.3816  159.2711 H   0  0  0  0  0  0  0  0  0  0  0  0  # atno 6907 bound_to 6896
  150.9566  134.8960  159.7715 H   0  0  0  0  0  0  0  0  0  0  0  0  # atno 6908 bound_to 6896
  152.5133  134.3783  159.9394 H   0  0  0  0  0  0  0  0  0  0  0  0  # atno 6909 bound_to 6896
  146.1732  140.4342  142.8524 H   0  0  0  0  0  0  0  0  0  0  0  0  # atno 7974 bound_to 7965
  154.7105  140.0520  157.0545 H   0  0  0  0  0  0  0  0  0  0  0  0  # atno 8008 bound_to 7997
  155.0562  140.3184  155.4656 H   0  0  0  0  0  0  0  0  0  0  0  0  # atno 8009 bound_to 7997
  156.2788  140.2107  156.5688 H   0  0  0  0  0  0  0  0  0  0  0  0  # atno 8010 bound_to 7997
  139.7023  143.9243  152.2434 H   0  0  0  0  0  0  0  0  0  0  0  0  # atno 10167 bound_to 10162
  156.2989  130.4237  149.8163 H   0  0  0  0  0  0  0  0  0  0  0  0  # atno 10718 bound_to 10713
  152.9806  135.5740  154.4927 H   0  0  0  0  0  0  0  0  0  0  0  0  # atno 10763 bound_to 10752
  154.4458  135.2777  155.1817 H   0  0  0  0  0  0  0  0  0  0  0  0  # atno 10764 bound_to 10752
  154.3466  135.6218  153.5676 H   0  0  0  0  0  0  0  0  0  0  0  0  # atno 10765 bound_to 10752
  140.6715  133.9232  155.8498 H   0  0  0  0  0  0  0  0  0  0  0  0  # atno 11005 bound_to 11000
  144.8195  140.6526  143.6362 LP  0  0  0  0  0  0  0  0  0  0  0  0  # atno 17320 bound_to 7965
  145.4283  139.1553  143.4036 LP  0  0  0  0  0  0  0  0  0  0  0  0  # atno 17321 bound_to 7965
  139.9089  144.6868  150.8584 LP  0  0  0  0  0  0  0  0  0  0  0  0  # atno 17342 bound_to 10162
  140.7713  143.3458  151.2114 LP  0  0  0  0  0  0  0  0  0  0  0  0  # atno 17343 bound_to 10162
  156.5549  130.8358  151.3311 LP  0  0  0  0  0  0  0  0  0  0  0  0  # atno 17370 bound_to 10713
  157.7362  130.9776  150.2126 LP  0  0  0  0  0  0  0  0  0  0  0  0  # atno 17371 bound_to 10713
  141.0388  134.0651  157.3927 LP  0  0  0  0  0  0  0  0  0  0  0  0  # atno 17394 bound_to 11000
  139.8980  135.0153  156.7127 LP  0  0  0  0  0  0  0  0  0  0  0  0  # atno 17395 bound_to 11000

$$$$
