AV-unprocessed.smi:479|AV-procd|sdf|2675|dock10
  -GOLD-   2262023 93D 1   1.00000     0.00000
 Structure written by MMmdl.
 46 48  0  0  0  0  0  0  0  0  2 V2000
  144.5608  142.2043  158.6727 C   0  0  0  0  0  0  0  0  0  0  0  0
  145.2915  142.0143  157.4697 O   0  0  0  0  0  0  0  0  0  0  0  0
  145.0146  142.8343  156.3945 C   0  0  0  0  0  0  0  0  0  0  0  0
  144.0118  143.8375  156.4079 C   0  0  0  0  0  0  0  0  0  0  0  0
  143.7746  144.6456  155.2717 C   0  0  0  0  0  0  0  0  0  0  0  0
  142.7274  145.7075  155.2635 C   0  0  0  0  0  0  0  0  0  0  0  0
  142.5529  146.5318  153.9888 C   0  0  0  0  0  0  0  0  0  0  0  0
  141.9998  145.9497  156.2260 O   0  0  0  0  0  0  0  0  0  0  0  0
  144.5529  144.4354  154.1139 C   0  0  0  0  0  0  0  0  0  0  0  0
  145.5504  143.4450  154.0915 C   0  0  0  0  0  0  0  0  0  0  0  0
  145.7922  142.6406  155.2312 C   0  0  0  0  0  0  0  0  0  0  0  0
  146.7577  141.6569  155.2826 O   0  0  0  0  0  0  0  0  0  0  0  0
  147.6076  141.4778  154.1577 C   0  0  0  0  0  0  0  0  0  0  0  0
  149.0115  141.1081  154.6581 C   0  0  1  0  0  0  0  0  0  0  0  0
  149.8600  140.9492  153.5384 O   0  0  0  0  0  0  0  0  0  0  0  0
  149.5878  142.1722  155.6135 C   0  0  0  0  0  0  0  0  0  0  0  0
  150.3735  141.5904  156.7106 N   0  0  0  0  0  0  0  0  0  0  0  0
  150.5572  140.2850  157.0460 C   0  0  0  0  0  0  0  0  0  0  0  0
  151.3603  140.2511  158.1453 N   0  3  0  0  0  0  0  0  0  0  0  0
  151.6963  141.5544  158.5174 C   0  0  0  0  0  0  0  0  0  0  0  0
  152.4833  142.0286  159.5627 C   0  0  0  0  0  0  0  0  0  0  0  0
  152.6277  143.4282  159.6620 C   0  0  0  0  0  0  0  0  0  0  0  0
  152.0044  144.2979  158.7436 C   0  0  0  0  0  0  0  0  0  0  0  0
  151.2082  143.8061  157.6882 C   0  0  0  0  0  0  0  0  0  0  0  0
  151.0676  142.4212  157.5983 C   0  0  0  0  0  0  0  0  0  0  0  0
  144.8868  141.4712  159.4103 H   0  0  0  0  0  0  0  0  0  0  0  0
  143.4906  142.0605  158.5179 H   0  0  0  0  0  0  0  0  0  0  0  0
  144.7375  143.1953  159.0927 H   0  0  0  0  0  0  0  0  0  0  0  0
  143.4189  143.9907  157.2954 H   0  0  0  0  0  0  0  0  0  0  0  0
  142.3000  145.8866  153.1475 H   0  0  0  0  0  0  0  0  0  0  0  0
  143.4697  147.0732  153.7549 H   0  0  0  0  0  0  0  0  0  0  0  0
  141.7505  147.2596  154.1123 H   0  0  0  0  0  0  0  0  0  0  0  0
  144.3949  145.0330  153.2276 H   0  0  0  0  0  0  0  0  0  0  0  0
  146.1179  143.3226  153.1817 H   0  0  0  0  0  0  0  0  0  0  0  0
  147.2119  140.6758  153.5321 H   0  0  0  0  0  0  0  0  0  0  0  0
  147.6567  142.3868  153.5556 H   0  0  0  0  0  0  0  0  0  0  0  0
  148.9647  140.1467  155.1712 H   0  0  0  0  0  0  0  0  0  0  0  0
  149.4392  140.3684  152.9229 H   0  0  0  0  0  0  0  0  0  0  0  0
  150.1974  142.8995  155.0771 H   0  0  0  0  0  0  0  0  0  0  0  0
  148.7759  142.7378  156.0722 H   0  0  0  0  0  0  0  0  0  0  0  0
  150.1386  139.4305  156.5339 H   0  0  0  0  0  0  0  0  0  0  0  0
  152.9633  141.3644  160.2663 H   0  0  0  0  0  0  0  0  0  0  0  0
  153.2300  143.8430  160.4574 H   0  0  0  0  0  0  0  0  0  0  0  0
  152.1400  145.3646  158.8496 H   0  0  0  0  0  0  0  0  0  0  0  0
  150.7404  144.4816  156.9877 H   0  0  0  0  0  0  0  0  0  0  0  0
  151.6548  139.3997  158.6061 H   0  0  0  0  0  0  0  0  0  0  0  0
  1  2  1  0  0  0  0
  1 26  1  0  0  0  0
  1 27  1  0  0  0  0
  1 28  1  0  0  0  0
  2  3  1  0  0  0  0
  3 11  1  0  0  0  0
  3  4  2  0  0  0  0
  4  5  1  0  0  0  0
  4 29  1  0  0  0  0
  5  6  1  0  0  0  0
  5  9  2  0  0  0  0
  6  7  1  0  0  0  0
  6  8  2  0  0  0  0
  7 30  1  0  0  0  0
  7 31  1  0  0  0  0
  7 32  1  0  0  0  0
  9 10  1  0  0  0  0
  9 33  1  0  0  0  0
 10 11  2  0  0  0  0
 10 34  1  0  0  0  0
 11 12  1  0  0  0  0
 12 13  1  0  0  0  0
 13 14  1  0  0  0  0
 13 35  1  0  0  0  0
 13 36  1  0  0  0  0
 14 15  1  0  0  0  0
 14 16  1  0  0  0  0
 14 37  1  0  0  0  0
 15 38  1  0  0  0  0
 16 17  1  0  0  0  0
 16 39  1  0  0  0  0
 16 40  1  0  0  0  0
 17 25  1  0  0  0  0
 17 18  1  0  0  0  0
 18 19  2  0  0  0  0
 18 41  1  0  0  0  0
 19 20  1  0  0  0  0
 19 46  1  0  0  0  0
 20 25  2  0  0  0  0
 20 21  1  0  0  0  0
 21 22  2  0  0  0  0
 21 42  1  0  0  0  0
 22 23  1  0  0  0  0
 22 43  1  0  0  0  0
 23 24  2  0  0  0  0
 23 44  1  0  0  0  0
 24 25  1  0  0  0  0
 24 45  1  0  0  0  0
M  CHG  1  19   1
M  END
> <s_m_source_file>
AV-unprocessed.smi

> <i_m_source_file_index>
479

> <i_lp_mmshare_version>
43012

> <i_f3d_flags>
0

> <s_epik_input>
W0NIM11PYzFbY0hdYyhDKD1PKVtDSDNdKVtjSF1bY0hdYzFPW0NIMl1bQ0BIXShbT0hdKVtDSDJdbihbY0hdbjIpYyhjMjMpW2NIXVtjSF1bY0hdW2NIXTM=

> <s_epik_cmdline>
J2VwaWtfcHl0aG9uJywgJy1waCcsICc3LjAnLCAnLXRuJywgJzgnLCAnLW1hJywgJzIwMCcsICctbWV0YWxfYmluZGluZycsICctaW1hZScsICc8aW5maWxlLm1hZT4nLCAnLW9tYWUnLCAnPG91dGZpbGUubWFlPic=

> <r_lp_tautomer_probability>
0.99995

> <r_epik_Ionization_Penalty>
1.37698

> <r_epik_Ionization_Penalty_Charging>
1.37698

> <r_epik_Ionization_Penalty_Neutral>
2.3993e-06

> <r_epik_State_Penalty>
1.45717

> <r_epik_Charging_Adjusted_Penalty>
2.83415

> <i_epik_Tot_Q>
1

> <i_epik_Tot_abs_Q>
1

> <r_epik_Metal_State_Penalty>
5.49703

> <b_epik_Metal_Only>
0

> <s_lp_Force_Field>
OPLS_2005

> <r_lp_Energy>
29.5876

> <b_lp_Chiralities_Consistent>
1

> <s_lp_Variant>
AV-unprocessed.smi:479-4

> <Gold.Version>
5.8.1

> <Gold.Id.Protein>
6NUR|6NUR_protein|mol2

> <Gold.PLP.Fitness>
52.7672

> <Gold.PLP.PLP>
-48.7311

> <Gold.PLP.part.hbond>
-2.4207

> <Gold.PLP.part.metal>
0.0000

> <Gold.PLP.part.buried>
-2.6673

> <Gold.PLP.part.nonpolar>
-43.6996

> <Gold.PLP.part.repulsive>
0.2407

> <Gold.PLP.ligand.clash>
0.0000

> <Gold.PLP.ligand.torsion>
0.8028

> <Gold.PLP.Chemscore.Hbond>
1.8320

> <Gold.PLP.Chemscore.CHOScore>
0.0000

> <Gold.PLP.Chemscore.Metal>
0.0000

> <Gold.Chemscore.Hbonds>
donor molecule, donor type, donor heavy atom, donor atom, acceptor molecule, acceptor atom, score
      L1  H    15    38       P1  7957  0.69
      P1  H  7989  7998       L1    15  0.30
      P1  H  8011  8017       L1    15  0.65

> <Gold.PLP.Chemscore.Internal.Correction>
0.1458

> <Gold.Rescore>
     Score         DG    S(hbond)    S(metal)    S(lipo)     H(rot)  DE(clash)    DE(int)     intcor
     15.24     -17.40       1.33        0.00     124.09       2.75       1.29       0.87       ----

> <Gold.Chemscore.Fitness>
15.2420

> <Gold.Chemscore.DG>
-17.4007

> <Gold.Chemscore.ZeroCoef>
-5.4800

> <Gold.Chemscore.Hbond>
1.3289

> <Gold.Chemscore.Metal>
0.0000

> <Gold.Chemscore.Lipo>
124.0929

> <Gold.Chemscore.Internal_Hbond>
0.0000

> <Gold.Chemscore.DEClash>
1.2910

> <Gold.Chemscore.DEInternal>
0.8676

> <Gold.Chemscore.Rot>
2.7487

> <Gold.Chemscore.Internal.Correction>
   9.000000E+99

> <Gold.Chemscore.Hbonds>
donor molecule, donor type, donor heavy atom, donor atom, acceptor molecule, acceptor atom, score
      L1  H    15    38       P1  7957  0.70
      P1  H  7989  7998       L1    15  0.26
      P1  H  8011  8017       L1    15  0.05

> <Gold.Chemscore.Hbond.Weighted>
-4.4386

> <Gold.Chemscore.Metal.Weighted>
-0.0000

> <Gold.Chemscore.Lipo.Weighted>
-14.5189

> <Gold.Chemscore.Internal_Hbond.Weighted>
0.0000

> <Gold.Chemscore.DEClash.Weighted>
1.2910

> <Gold.Chemscore.DEInternal.Weighted>
0.8676

> <Gold.Chemscore.Rot.Weighted>
7.0368

> <Gold.Chemscore.Internal.Correction.Weighted>
   9.000000E+99

> <Gold.Protein.RotatedTorsions>
[ 6907 6896 6895 6894 ] final   -7.44 input  -60.11 | X-H torsion
[ 7974 7965 7964 7962 ] final  133.67 input  175.53 | X-H torsion
[ 8008 7997 7996 7995 ] final  -75.56 input   59.86 | X-H torsion
[ 10167 10162 10161 10158 ] final -125.24 input  -65.29 | X-H torsion
[ 10718 10713 10712 10709 ] final   31.79 input   66.30 | X-H torsion
[ 10763 10752 10751 10750 ] final   58.72 input  -60.55 | X-H torsion
[ 11005 11000 10999 10996 ] final  168.60 input  -57.11 | X-H torsion

> <Gold.Protein.ActiveResidues>
 VAL166  LYS551  ARG553  GLY616  TRP617  ASP618  TYR619  PRO620  LYS621  CYS622 
 ASP623  PHE694  ASN695  SER759  ASP760  ASP761  ALA762  ILE779  LEU786  VAL792 
 PHE793  MET794  SER795  GLU796  ALA797  LYS798  CYS799  TRP800  GLU811  SER814 

> <Gold.Protein.RotatedAtoms>
  151.4495  135.1028  159.9693 H   0  0  0  0  0  0  0  0  0  0  0  0  # atno 6907 bound_to 6896
  152.4893  133.8453  159.7184 H   0  0  0  0  0  0  0  0  0  0  0  0  # atno 6908 bound_to 6896
  150.9032  133.7032  159.2901 H   0  0  0  0  0  0  0  0  0  0  0  0  # atno 6909 bound_to 6896
  144.9841  139.4474  143.5371 H   0  0  0  0  0  0  0  0  0  0  0  0  # atno 7974 bound_to 7965
  154.5427  140.0742  156.8537 H   0  0  0  0  0  0  0  0  0  0  0  0  # atno 8008 bound_to 7997
  155.3148  140.3392  155.4224 H   0  0  0  0  0  0  0  0  0  0  0  0  # atno 8009 bound_to 7997
  156.1890  140.1679  156.8116 H   0  0  0  0  0  0  0  0  0  0  0  0  # atno 8010 bound_to 7997
  139.9842  143.5709  152.2367 H   0  0  0  0  0  0  0  0  0  0  0  0  # atno 10167 bound_to 10162
  157.2770  130.7236  149.6535 H   0  0  0  0  0  0  0  0  0  0  0  0  # atno 10718 bound_to 10713
  152.9877  135.5597  154.5598 H   0  0  0  0  0  0  0  0  0  0  0  0  # atno 10763 bound_to 10752
  154.5019  135.2798  155.1416 H   0  0  0  0  0  0  0  0  0  0  0  0  # atno 10764 bound_to 10752
  154.2843  135.6339  153.5412 H   0  0  0  0  0  0  0  0  0  0  0  0  # atno 10765 bound_to 10752
  140.2889  134.7689  157.3822 H   0  0  0  0  0  0  0  0  0  0  0  0  # atno 11005 bound_to 11000
  146.3415  139.9132  142.8777 LP  0  0  0  0  0  0  0  0  0  0  0  0  # atno 17320 bound_to 7965
  145.2379  140.9998  143.3953 LP  0  0  0  0  0  0  0  0  0  0  0  0  # atno 17321 bound_to 7965
  139.6387  144.7652  151.2384 LP  0  0  0  0  0  0  0  0  0  0  0  0  # atno 17342 bound_to 10162
  140.7478  143.6354  150.8384 LP  0  0  0  0  0  0  0  0  0  0  0  0  # atno 17343 bound_to 10162
  155.9664  130.4350  150.5072 LP  0  0  0  0  0  0  0  0  0  0  0  0  # atno 17370 bound_to 10713
  157.3008  131.0645  151.2069 LP  0  0  0  0  0  0  0  0  0  0  0  0  # atno 17371 bound_to 10713
  140.1214  134.5215  155.8181 LP  0  0  0  0  0  0  0  0  0  0  0  0  # atno 17394 bound_to 11000
  141.2150  133.6757  156.6872 LP  0  0  0  0  0  0  0  0  0  0  0  0  # atno 17395 bound_to 11000

$$$$
