AV-unprocessed.smi:3231|AV-procd|sdf|12334|dock2
  -GOLD-   2272018183D 1   1.00000     0.00000
 Structure written by MMmdl.
 41 42  0  0  0  0  0  0  0  0  2 V2000
  148.3266  138.7634  153.1089 O   0  0  0  0  0  0  0  0  0  0  0  0
  149.2796  138.5000  154.1208 C   0  0  1  0  0  0  0  0  0  0  0  0
  149.6645  139.8314  154.7938 C   0  0  0  0  0  0  0  0  0  0  0  0
  151.0864  139.8945  155.1218 N   0  0  0  0  0  0  0  0  0  0  0  0
  151.3578  140.4590  156.4404 C   0  0  0  0  0  0  0  0  0  0  0  0
  150.7106  141.8434  156.6071 C   0  0  0  0  0  0  0  0  0  0  0  0
  151.2965  142.5975  157.7015 N   0  0  0  0  0  0  0  0  0  0  0  0
  151.2970  143.9629  157.8951 C   0  0  0  0  0  0  0  0  0  0  0  0
  151.9605  144.2076  159.0633 C   0  0  0  0  0  0  0  0  0  0  0  0
  152.3335  142.9119  159.5178 C   0  0  0  0  0  0  0  0  0  0  0  0
  151.9343  141.9500  158.7014 N   0  0  0  0  0  0  0  0  0  0  0  0
  148.7511  137.4347  155.1078 C   0  0  0  0  0  0  0  0  0  0  0  0
  148.9222  136.0455  154.6098 N   0  3  0  0  0  0  0  0  0  0  0  0
  150.2569  135.4655  154.9043 C   0  0  0  0  0  0  0  0  0  0  0  0
  150.3651  134.0439  154.3272 C   0  0  0  0  0  0  0  0  0  0  0  0
  149.3219  133.2327  154.8526 O   0  0  0  0  0  0  0  0  0  0  0  0
  148.0360  133.7286  154.5032 C   0  0  0  0  0  0  0  0  0  0  0  0
  147.8509  135.1390  155.0881 C   0  0  0  0  0  0  0  0  0  0  0  0
  148.7203  139.3167  152.4524 H   0  0  0  0  0  0  0  0  0  0  0  0
  150.1751  138.1330  153.6215 H   0  0  0  0  0  0  0  0  0  0  0  0
  149.4110  140.6553  154.1258 H   0  0  0  0  0  0  0  0  0  0  0  0
  149.0639  139.9716  155.6937 H   0  0  0  0  0  0  0  0  0  0  0  0
  151.4907  138.9644  155.0633 H   0  0  0  0  0  0  0  0  0  0  0  0
  150.9771  139.7883  157.2113 H   0  0  0  0  0  0  0  0  0  0  0  0
  152.4335  140.5395  156.6028 H   0  0  0  0  0  0  0  0  0  0  0  0
  150.7888  142.4228  155.6856 H   0  0  0  0  0  0  0  0  0  0  0  0
  149.6457  141.7273  156.8113 H   0  0  0  0  0  0  0  0  0  0  0  0
  150.8297  144.6387  157.1941 H   0  0  0  0  0  0  0  0  0  0  0  0
  152.1506  145.1660  159.5231 H   0  0  0  0  0  0  0  0  0  0  0  0
  152.8784  142.6436  160.4108 H   0  0  0  0  0  0  0  0  0  0  0  0
  149.2488  137.5311  156.0741 H   0  0  0  0  0  0  0  0  0  0  0  0
  147.6920  137.6224  155.2923 H   0  0  0  0  0  0  0  0  0  0  0  0
  151.0480  136.0830  154.4814 H   0  0  0  0  0  0  0  0  0  0  0  0
  150.4153  135.4399  155.9836 H   0  0  0  0  0  0  0  0  0  0  0  0
  150.3168  134.0606  153.2371 H   0  0  0  0  0  0  0  0  0  0  0  0
  151.3246  133.6019  154.5962 H   0  0  0  0  0  0  0  0  0  0  0  0
  147.9175  133.7373  153.4184 H   0  0  0  0  0  0  0  0  0  0  0  0
  147.2773  133.0542  154.9006 H   0  0  0  0  0  0  0  0  0  0  0  0
  147.8662  135.0964  156.1785 H   0  0  0  0  0  0  0  0  0  0  0  0
  146.8754  135.5295  154.7953 H   0  0  0  0  0  0  0  0  0  0  0  0
  148.8283  136.0853  153.6050 H   0  0  0  0  0  0  0  0  0  0  0  0
  1  2  1  0  0  0  0
  1 19  1  0  0  0  0
  2  3  1  0  0  0  0
  2 12  1  0  0  0  0
  2 20  1  0  0  0  0
  3  4  1  0  0  0  0
  3 21  1  0  0  0  0
  3 22  1  0  0  0  0
  4  5  1  0  0  0  0
  4 23  1  0  0  0  0
  5  6  1  0  0  0  0
  5 24  1  0  0  0  0
  5 25  1  0  0  0  0
  6  7  1  0  0  0  0
  6 26  1  0  0  0  0
  6 27  1  0  0  0  0
  7 11  1  0  0  0  0
  7  8  1  0  0  0  0
  8  9  2  0  0  0  0
  8 28  1  0  0  0  0
  9 10  1  0  0  0  0
  9 29  1  0  0  0  0
 10 11  2  0  0  0  0
 10 30  1  0  0  0  0
 12 13  1  0  0  0  0
 12 31  1  0  0  0  0
 12 32  1  0  0  0  0
 13 18  1  0  0  0  0
 13 14  1  0  0  0  0
 13 41  1  0  0  0  0
 14 15  1  0  0  0  0
 14 33  1  0  0  0  0
 14 34  1  0  0  0  0
 15 16  1  0  0  0  0
 15 35  1  0  0  0  0
 15 36  1  0  0  0  0
 16 17  1  0  0  0  0
 17 18  1  0  0  0  0
 17 37  1  0  0  0  0
 17 38  1  0  0  0  0
 18 39  1  0  0  0  0
 18 40  1  0  0  0  0
M  CHG  1  13   1
M  END
> <s_m_source_file>
AV-unprocessed.smi

> <i_m_source_file_index>
3231

> <i_lp_mmshare_version>
43012

> <i_f3d_flags>
0

> <s_epik_input>
W0NIMl0xW0NIMl1PW0NIMl1bQ0gyXU4xW0NIMl1bQ0BIXShbT0hdKVtDSDJdW05IXVtDSDJdW0NIMl1uMltjSF1bY0hdW2NIXW4y

> <s_epik_cmdline>
J2VwaWtfcHl0aG9uJywgJy1waCcsICc3LjAnLCAnLXRuJywgJzgnLCAnLW1hJywgJzIwMCcsICctbWV0YWxfYmluZGluZycsICctaW1hZScsICc8aW5maWxlLm1hZT4nLCAnLW9tYWUnLCAnPG91dGZpbGUubWFlPic=

> <r_epik_Ionization_Penalty>
0.33973

> <r_epik_Ionization_Penalty_Charging>
0.202493

> <r_epik_Ionization_Penalty_Neutral>
0.137237

> <r_epik_State_Penalty>
0.943915

> <r_epik_Charging_Adjusted_Penalty>
1.14641

> <i_epik_Tot_Q>
1

> <i_epik_Tot_abs_Q>
1

> <r_epik_Metal_State_Penalty>
0.94313

> <b_epik_Metal_Only>
0

> <s_lp_Force_Field>
OPLS_2005

> <r_lp_Energy>
28.856

> <b_lp_Chiralities_Consistent>
1

> <s_lp_Variant>
AV-unprocessed.smi:3231-4

> <Gold.Version>
5.8.1

> <Gold.Id.Protein>
6NUR|6NUR_protein|mol2

> <Gold.PLP.Fitness>
47.1847

> <Gold.PLP.PLP>
-35.5563

> <Gold.PLP.part.hbond>
-3.7102

> <Gold.PLP.part.metal>
0.0000

> <Gold.PLP.part.buried>
-5.0070

> <Gold.PLP.part.nonpolar>
-27.6604

> <Gold.PLP.part.repulsive>
0.0410

> <Gold.PLP.ligand.clash>
0.0000

> <Gold.PLP.ligand.torsion>
1.7892

> <Gold.PLP.Chemscore.Hbond>
4.0000

> <Gold.PLP.Chemscore.CHOScore>
0.9982

> <Gold.PLP.Chemscore.Metal>
0.0000

> <Gold.Chemscore.Hbonds>
donor molecule, donor type, donor heavy atom, donor atom, acceptor molecule, acceptor atom, score
      L1  H     1    19       P1  7957  1.00
      L1  H    13    41       P1  7948  2.00
      P1  H  7989  7998       L1     4  0.80
      L1  C     8    28       P1  8028  1.00

> <Gold.PLP.Chemscore.Internal.Correction>
0.2123

> <Gold.Rescore>
     Score         DG    S(hbond)    S(metal)    S(lipo)     H(rot)  DE(clash)    DE(int)     intcor
     13.68     -15.67       2.28        0.00      84.26       2.84       0.10       1.89       ----

> <Gold.Chemscore.Fitness>
13.6819

> <Gold.Chemscore.DG>
-15.6730

> <Gold.Chemscore.ZeroCoef>
-5.4800

> <Gold.Chemscore.Hbond>
2.2765

> <Gold.Chemscore.Metal>
0.0000

> <Gold.Chemscore.Lipo>
84.2642

> <Gold.Chemscore.Internal_Hbond>
0.0000

> <Gold.Chemscore.DEClash>
0.0962

> <Gold.Chemscore.DEInternal>
1.8948

> <Gold.Chemscore.Rot>
2.8397

> <Gold.Chemscore.Internal.Correction>
   9.000000E+99

> <Gold.Chemscore.Hbonds>
donor molecule, donor type, donor heavy atom, donor atom, acceptor molecule, acceptor atom, score
      L1  H     1    19       P1  7957  1.00
      L1  H    13    41       P1  7948  1.00
      P1  H  7989  7998       L1     4  0.07

> <Gold.Chemscore.Hbond.Weighted>
-7.6036

> <Gold.Chemscore.Metal.Weighted>
-0.0000

> <Gold.Chemscore.Lipo.Weighted>
-9.8589

> <Gold.Chemscore.Internal_Hbond.Weighted>
0.0000

> <Gold.Chemscore.DEClash.Weighted>
0.0962

> <Gold.Chemscore.DEInternal.Weighted>
1.8948

> <Gold.Chemscore.Rot.Weighted>
7.2696

> <Gold.Chemscore.Internal.Correction.Weighted>
   9.000000E+99

> <Gold.Protein.RotatedTorsions>
[ 6907 6896 6895 6894 ] final  -10.75 input  -60.11 | X-H torsion
[ 7974 7965 7964 7962 ] final  117.24 input  175.53 | X-H torsion
[ 8008 7997 7996 7995 ] final  155.96 input   59.86 | X-H torsion
[ 10167 10162 10161 10158 ] final -119.50 input  -65.29 | X-H torsion
[ 10718 10713 10712 10709 ] final   65.64 input   66.30 | X-H torsion
[ 10763 10752 10751 10750 ] final   17.34 input  -60.55 | X-H torsion
[ 11005 11000 10999 10996 ] final  -28.19 input  -57.11 | X-H torsion

> <Gold.Protein.ActiveResidues>
 VAL166  LYS551  ARG553  GLY616  TRP617  ASP618  TYR619  PRO620  LYS621  CYS622 
 ASP623  PHE694  ASN695  SER759  ASP760  ASP761  ALA762  ILE779  LEU786  VAL792 
 PHE793  MET794  SER795  GLU796  ALA797  LYS798  CYS799  TRP800  GLU811  SER814 

> <Gold.Protein.RotatedAtoms>
  151.3970  135.0965  159.9543 H   0  0  0  0  0  0  0  0  0  0  0  0  # atno 6907 bound_to 6896
  152.5062  133.8924  159.7411 H   0  0  0  0  0  0  0  0  0  0  0  0  # atno 6908 bound_to 6896
  150.9390  133.6622  159.2823 H   0  0  0  0  0  0  0  0  0  0  0  0  # atno 6909 bound_to 6896
  145.1698  139.3108  143.4474 H   0  0  0  0  0  0  0  0  0  0  0  0  # atno 7974 bound_to 7965
  156.2449  140.1925  156.6882 H   0  0  0  0  0  0  0  0  0  0  0  0  # atno 8008 bound_to 7997
  154.6271  140.0600  156.9713 H   0  0  0  0  0  0  0  0  0  0  0  0  # atno 8009 bound_to 7997
  155.1769  140.3273  155.4385 H   0  0  0  0  0  0  0  0  0  0  0  0  # atno 8010 bound_to 7997
  140.0459  143.5107  152.2106 H   0  0  0  0  0  0  0  0  0  0  0  0  # atno 10167 bound_to 10162
  157.6118  130.9225  150.0004 H   0  0  0  0  0  0  0  0  0  0  0  0  # atno 10718 bound_to 10713
  153.1348  135.6748  153.9120 H   0  0  0  0  0  0  0  0  0  0  0  0  # atno 10763 bound_to 10752
  153.8596  135.3083  155.3438 H   0  0  0  0  0  0  0  0  0  0  0  0  # atno 10764 bound_to 10752
  154.7738  135.4925  153.9785 H   0  0  0  0  0  0  0  0  0  0  0  0  # atno 10765 bound_to 10752
  140.9186  133.7413  156.0770 H   0  0  0  0  0  0  0  0  0  0  0  0  # atno 11005 bound_to 11000
  146.3470  140.1839  142.8589 LP  0  0  0  0  0  0  0  0  0  0  0  0  # atno 17320 bound_to 7965
  145.0245  140.8821  143.5147 LP  0  0  0  0  0  0  0  0  0  0  0  0  # atno 17321 bound_to 7965
  139.5984  144.7574  151.3231 LP  0  0  0  0  0  0  0  0  0  0  0  0  # atno 17342 bound_to 10162
  140.7239  143.7059  150.7808 LP  0  0  0  0  0  0  0  0  0  0  0  0  # atno 17343 bound_to 10162
  156.1224  130.3645  149.9864 LP  0  0  0  0  0  0  0  0  0  0  0  0  # atno 17370 bound_to 10713
  156.7942  130.9267  151.3646 LP  0  0  0  0  0  0  0  0  0  0  0  0  # atno 17371 bound_to 10713
  140.8017  134.3501  157.5437 LP  0  0  0  0  0  0  0  0  0  0  0  0  # atno 17394 bound_to 11000
  139.8771  134.9201  156.3244 LP  0  0  0  0  0  0  0  0  0  0  0  0  # atno 17395 bound_to 11000

$$$$
