AV-unprocessed.smi:158|AV-procd|sdf|1336|dock1
  -GOLD-   2262019 33D 1   1.00000     0.00000
 Structure written by MMmdl.
 31 33  0  0  0  0  0  0  0  0  1 V2000
  154.1416  140.9888  161.6386 N   0  0  0  0  0  0  0  0  0  0  0  0
  153.4886  141.6675  160.6851 C   0  0  0  0  0  0  0  0  0  0  0  0
  153.2599  142.9875  160.8763 N   0  0  0  0  0  0  0  0  0  0  0  0
  152.6122  143.7023  159.9481 C   0  0  0  0  0  0  0  0  0  0  0  0
  152.3755  145.3746  160.2939 Cl  0  0  0  0  0  0  0  0  0  0  0  0
  152.1269  143.2654  158.7815 N   0  0  0  0  0  0  0  0  0  0  0  0
  152.3551  141.9342  158.5848 C   0  0  0  0  0  0  0  0  0  0  0  0
  153.0282  141.0683  159.4873 C   0  0  0  0  0  0  0  0  0  0  0  0
  153.0801  139.7839  158.9630 N   0  0  0  0  0  0  0  0  0  0  0  0
  152.4713  139.8907  157.8121 C   0  0  0  0  0  0  0  0  0  0  0  0
  152.0049  141.1499  157.5038 N   0  0  0  0  0  0  0  0  0  0  0  0
  151.2760  141.5750  156.2681 C   0  0  1  0  0  0  0  0  0  0  0  0
  151.3169  140.5421  155.3289 O   0  0  0  0  0  0  0  0  0  0  0  0
  149.9999  140.2238  154.8838 C   0  0  2  0  0  0  0  0  0  0  0  0
  150.0061  139.8114  153.4017 C   0  0  0  0  0  0  0  0  0  0  0  0
  148.7164  139.9562  152.8458 O   0  0  0  0  0  0  0  0  0  0  0  0
  149.1357  141.4364  155.2654 C   0  0  2  0  0  0  0  0  0  0  0  0
  149.1546  142.4537  154.2814 O   0  0  0  0  0  0  0  0  0  0  0  0
  149.8023  141.9116  156.5411 C   0  0  1  0  0  0  0  0  0  0  0  0
  149.3348  141.2158  157.5804 F   0  0  0  0  0  0  0  0  0  0  0  0
  151.8395  142.4266  155.8854 H   0  0  0  0  0  0  0  0  0  0  0  0
  149.6726  139.3727  155.4832 H   0  0  0  0  0  0  0  0  0  0  0  0
  148.0962  141.1519  155.4322 H   0  0  0  0  0  0  0  0  0  0  0  0
  149.6660  142.9714  156.7590 H   0  0  0  0  0  0  0  0  0  0  0  0
  154.3245  140.0028  161.5176 H   0  0  0  0  0  0  0  0  0  0  0  0
  154.4523  141.4639  162.4736 H   0  0  0  0  0  0  0  0  0  0  0  0
  152.3463  139.0466  157.1496 H   0  0  0  0  0  0  0  0  0  0  0  0
  150.7238  140.3958  152.8257 H   0  0  0  0  0  0  0  0  0  0  0  0
  150.3026  138.7664  153.3106 H   0  0  0  0  0  0  0  0  0  0  0  0
  148.8068  140.1795  151.9318 H   0  0  0  0  0  0  0  0  0  0  0  0
  149.2092  143.2896  154.7198 H   0  0  0  0  0  0  0  0  0  0  0  0
  1  2  1  0  0  0  0
  1 25  1  0  0  0  0
  1 26  1  0  0  0  0
  2  8  1  0  0  0  0
  2  3  2  0  0  0  0
  3  4  1  0  0  0  0
  4  5  1  0  0  0  0
  4  6  2  0  0  0  0
  6  7  1  0  0  0  0
  7 11  1  0  0  0  0
  7  8  2  0  0  0  0
  8  9  1  0  0  0  0
  9 10  2  0  0  0  0
 10 11  1  0  0  0  0
 10 27  1  0  0  0  0
 11 12  1  0  0  0  0
 12 21  1  0  0  0  0
 12 19  1  0  0  0  0
 12 13  1  0  0  0  0
 13 14  1  0  0  0  0
 14 22  1  0  0  0  0
 14 15  1  0  0  0  0
 14 17  1  0  0  0  0
 15 16  1  0  0  0  0
 15 28  1  0  0  0  0
 15 29  1  0  0  0  0
 16 30  1  0  0  0  0
 17 23  1  0  0  0  0
 17 18  1  0  0  0  0
 17 19  1  0  0  0  0
 18 31  1  0  0  0  0
 19 24  1  0  0  0  0
 19 20  1  0  0  0  0
M  END
> <s_m_source_file>
AV-unprocessed.smi

> <i_m_source_file_index>
158

> <i_lp_mmshare_version>
43012

> <i_f3d_flags>
0

> <s_epik_input>
Q2xjKG4xKW5jKFtOSDJdKWMoYzEyKW5bY0hdbjJbQ0BASF0zT1tDQEhdKFtDSDJdW09IXSlbQ0BASF0oW09IXSlbQ0BASF0zRg==

> <s_epik_cmdline>
J2VwaWtfcHl0aG9uJywgJy1waCcsICc3LjAnLCAnLXRuJywgJzgnLCAnLW1hJywgJzIwMCcsICctbWV0YWxfYmluZGluZycsICctaW1hZScsICc8aW5maWxlLm1hZT4nLCAnLW9tYWUnLCAnPG91dGZpbGUubWFlPic=

> <r_lp_tautomer_probability>
1

> <r_epik_Ionization_Penalty>
6.51543e-05

> <r_epik_Ionization_Penalty_Charging>
0

> <r_epik_Ionization_Penalty_Neutral>
6.51543e-05

> <r_epik_State_Penalty>
-0

> <r_epik_Charging_Adjusted_Penalty>
0

> <i_epik_Tot_Q>
0

> <i_epik_Tot_abs_Q>
0

> <r_epik_Metal_State_Penalty>
-0

> <b_epik_Metal_Only>
0

> <s_epik_Chemistry_Notes>
This compound contains an acetal/aminal-like group ( X-CH(R)-Y where X, Y are N, S, or O) that may be acid/base labile, releasing an aldehyde.

> <s_lp_Force_Field>
OPLS_2005

> <r_lp_Energy>
35.164

> <b_lp_Chiralities_Consistent>
1

> <s_lp_Variant>
AV-unprocessed.smi:158-14

> <Gold.Version>
5.8.1

> <Gold.Id.Protein>
6NUR|6NUR_protein|mol2

> <Gold.PLP.Fitness>
42.8711

> <Gold.PLP.PLP>
-35.6429

> <Gold.PLP.part.hbond>
-3.8318

> <Gold.PLP.part.metal>
0.0000

> <Gold.PLP.part.buried>
-1.5471

> <Gold.PLP.part.nonpolar>
-28.5977

> <Gold.PLP.part.repulsive>
0.0950

> <Gold.PLP.ligand.clash>
0.0000

> <Gold.PLP.ligand.torsion>
0.3856

> <Gold.PLP.Chemscore.Hbond>
2.6664

> <Gold.PLP.Chemscore.CHOScore>
0.0000

> <Gold.PLP.Chemscore.Metal>
0.0000

> <Gold.Chemscore.Hbonds>
donor molecule, donor type, donor heavy atom, donor atom, acceptor molecule, acceptor atom, score
      L1  H    18    31       P1  8028  1.00
      P1  H  7989  7998       L1    13  0.22
      P1  H  8011  8017       L1    18  0.14

> <Gold.PLP.Chemscore.Internal.Correction>
0.0003

> <Gold.Rescore>
     Score         DG    S(hbond)    S(metal)    S(lipo)     H(rot)  DE(clash)    DE(int)     intcor
      7.37      -9.84       2.13        0.00      44.71       3.12       1.67       0.80       ----

> <Gold.Chemscore.Fitness>
7.3666

> <Gold.Chemscore.DG>
-9.8407

> <Gold.Chemscore.ZeroCoef>
-5.4800

> <Gold.Chemscore.Hbond>
2.1332

> <Gold.Chemscore.Metal>
0.0000

> <Gold.Chemscore.Lipo>
44.7074

> <Gold.Chemscore.Internal_Hbond>
0.0000

> <Gold.Chemscore.DEClash>
1.6692

> <Gold.Chemscore.DEInternal>
0.8048

> <Gold.Chemscore.Rot>
3.1230

> <Gold.Chemscore.Internal.Correction>
   9.000000E+99

> <Gold.Chemscore.Hbonds>
donor molecule, donor type, donor heavy atom, donor atom, acceptor molecule, acceptor atom, score
      L1  H    16    30       P1  7957  0.03
      L1  H    18    31       P1  8028  1.00
      P1  H  8011  8017       L1    18  0.13

> <Gold.Chemscore.Hbond.Weighted>
-7.1249

> <Gold.Chemscore.Metal.Weighted>
-0.0000

> <Gold.Chemscore.Lipo.Weighted>
-5.2308

> <Gold.Chemscore.Internal_Hbond.Weighted>
0.0000

> <Gold.Chemscore.DEClash.Weighted>
1.6692

> <Gold.Chemscore.DEInternal.Weighted>
0.8048

> <Gold.Chemscore.Rot.Weighted>
7.9950

> <Gold.Chemscore.Internal.Correction.Weighted>
   9.000000E+99

> <Gold.Protein.RotatedTorsions>
[ 6907 6896 6895 6894 ] final  148.37 input  -60.11 | X-H torsion
[ 7974 7965 7964 7962 ] final  -37.95 input  175.53 | X-H torsion
[ 8008 7997 7996 7995 ] final  144.90 input   59.86 | X-H torsion
[ 10167 10162 10161 10158 ] final  -81.27 input  -65.29 | X-H torsion
[ 10718 10713 10712 10709 ] final  -80.45 input   66.30 | X-H torsion
[ 10763 10752 10751 10750 ] final   70.58 input  -60.55 | X-H torsion
[ 11005 11000 10999 10996 ] final   40.20 input  -57.11 | X-H torsion

> <Gold.Protein.ActiveResidues>
 VAL166  LYS551  ARG553  GLY616  TRP617  ASP618  TYR619  PRO620  LYS621  CYS622 
 ASP623  PHE694  ASN695  SER759  ASP760  ASP761  ALA762  ILE779  LEU786  VAL792 
 PHE793  MET794  SER795  GLU796  ALA797  LYS798  CYS799  TRP800  GLU811  SER814 

> <Gold.Protein.RotatedAtoms>
  152.1423  133.4471  159.4772 H   0  0  0  0  0  0  0  0  0  0  0  0  # atno 6907 bound_to 6896
  150.6887  134.2290  159.4436 H   0  0  0  0  0  0  0  0  0  0  0  0  # atno 6908 bound_to 6896
  152.0181  134.9838  160.0620 H   0  0  0  0  0  0  0  0  0  0  0  0  # atno 6909 bound_to 6896
  146.0530  140.6455  142.9033 H   0  0  0  0  0  0  0  0  0  0  0  0  # atno 7974 bound_to 7965
  156.2897  140.2223  156.5128 H   0  0  0  0  0  0  0  0  0  0  0  0  # atno 8008 bound_to 7997
  154.7594  140.0474  157.0982 H   0  0  0  0  0  0  0  0  0  0  0  0  # atno 8009 bound_to 7997
  155.0010  140.3101  155.4871 H   0  0  0  0  0  0  0  0  0  0  0  0  # atno 8010 bound_to 7997
  140.4428  143.2509  151.8602 H   0  0  0  0  0  0  0  0  0  0  0  0  # atno 10167 bound_to 10162
  156.0070  130.4574  150.3802 H   0  0  0  0  0  0  0  0  0  0  0  0  # atno 10718 bound_to 10713
  153.0349  135.5168  154.7462 H   0  0  0  0  0  0  0  0  0  0  0  0  # atno 10763 bound_to 10752
  154.6447  135.2917  155.0063 H   0  0  0  0  0  0  0  0  0  0  0  0  # atno 10764 bound_to 10752
  154.0969  135.6642  153.4914 H   0  0  0  0  0  0  0  0  0  0  0  0  # atno 10765 bound_to 10752
  140.1953  134.3936  155.8124 H   0  0  0  0  0  0  0  0  0  0  0  0  # atno 11005 bound_to 11000
  144.7132  140.4117  143.7064 LP  0  0  0  0  0  0  0  0  0  0  0  0  # atno 17320 bound_to 7965
  145.6692  139.1596  143.2764 LP  0  0  0  0  0  0  0  0  0  0  0  0  # atno 17321 bound_to 7965
  139.4790  144.5210  151.8801 LP  0  0  0  0  0  0  0  0  0  0  0  0  # atno 17342 bound_to 10162
  140.4299  144.2130  150.5888 LP  0  0  0  0  0  0  0  0  0  0  0  0  # atno 17343 bound_to 10162
  157.1882  131.0409  151.2714 LP  0  0  0  0  0  0  0  0  0  0  0  0  # atno 17370 bound_to 10713
  157.4085  130.7372  149.6821 LP  0  0  0  0  0  0  0  0  0  0  0  0  # atno 17371 bound_to 10713
  141.2227  133.7067  156.8166 LP  0  0  0  0  0  0  0  0  0  0  0  0  # atno 17394 bound_to 11000
  140.2114  134.8825  157.3278 LP  0  0  0  0  0  0  0  0  0  0  0  0  # atno 17395 bound_to 11000

$$$$
