AV-unprocessed.smi:48|AV-procd|sdf|451|dock5
  -GOLD-   2262016323D 1   1.00000     0.00000
 Structure written by MMmdl.
 30 32  0  0  0  0  0  0  0  0  1 V2000
  145.6787  142.4448  155.8179 O   0  0  0  0  0  0  0  0  0  0  0  0
  145.6946  142.6318  154.4188 C   0  0  0  0  0  0  0  0  0  0  0  0
  146.8780  141.8739  153.7977 C   0  0  1  0  0  0  0  0  0  0  0  0
  148.0872  142.2765  154.4247 O   0  0  0  0  0  0  0  0  0  0  0  0
  149.0409  141.2697  154.2979 C   0  0  1  0  0  0  0  0  0  0  0  0
  149.7830  141.1915  155.5961 N   0  0  0  0  0  0  0  0  0  0  0  0
  149.4869  141.8190  156.7523 C   0  0  0  0  0  0  0  0  0  0  0  0
  150.2896  141.5990  157.7929 N   0  0  0  0  0  0  0  0  0  0  0  0
  151.2119  140.7195  157.2497 C   0  0  0  0  0  0  0  0  0  0  0  0
  152.3493  140.0683  157.7861 C   0  0  0  0  0  0  0  0  0  0  0  0
  152.8192  140.3099  159.4288 Cl  0  0  0  0  0  0  0  0  0  0  0  0
  153.0634  139.2476  156.9792 N   0  0  0  0  0  0  0  0  0  0  0  0
  152.6762  139.0772  155.7090 C   0  0  0  0  0  0  0  0  0  0  0  0
  151.6349  139.6195  155.0678 N   0  0  0  0  0  0  0  0  0  0  0  0
  150.9163  140.4472  155.8837 C   0  0  0  0  0  0  0  0  0  0  0  0
  148.3017  139.9601  153.9405 C   0  0  1  0  0  0  0  0  0  0  0  0
  148.5924  138.8637  154.7896 O   0  0  0  0  0  0  0  0  0  0  0  0
  146.8379  140.3649  154.0554 C   0  0  2  0  0  0  0  0  0  0  0  0
  146.0623  139.7144  153.0689 O   0  0  0  0  0  0  0  0  0  0  0  0
  146.9552  142.0647  152.7250 H   0  0  0  0  0  0  0  0  0  0  0  0
  149.7952  141.5459  153.5597 H   0  0  0  0  0  0  0  0  0  0  0  0
  148.5588  139.7078  152.9103 H   0  0  0  0  0  0  0  0  0  0  0  0
  146.4488  140.1571  155.0536 H   0  0  0  0  0  0  0  0  0  0  0  0
  145.2475  141.6254  156.0065 H   0  0  0  0  0  0  0  0  0  0  0  0
  144.7473  142.3155  153.9811 H   0  0  0  0  0  0  0  0  0  0  0  0
  145.7962  143.7017  154.2340 H   0  0  0  0  0  0  0  0  0  0  0  0
  148.6349  142.4781  156.8347 H   0  0  0  0  0  0  0  0  0  0  0  0
  153.2884  138.4096  155.1209 H   0  0  0  0  0  0  0  0  0  0  0  0
  147.9209  138.2087  154.6753 H   0  0  0  0  0  0  0  0  0  0  0  0
  145.3142  140.2578  152.8728 H   0  0  0  0  0  0  0  0  0  0  0  0
  1  2  1  0  0  0  0
  1 24  1  0  0  0  0
  2  3  1  0  0  0  0
  2 25  1  0  0  0  0
  2 26  1  0  0  0  0
  3 20  1  0  0  0  0
  3 18  1  0  0  0  0
  3  4  1  0  0  0  0
  4  5  1  0  0  0  0
  5 21  1  0  0  0  0
  5  6  1  0  0  0  0
  5 16  1  0  0  0  0
  6 15  1  0  0  0  0
  6  7  1  0  0  0  0
  7  8  2  0  0  0  0
  7 27  1  0  0  0  0
  8  9  1  0  0  0  0
  9 15  2  0  0  0  0
  9 10  1  0  0  0  0
 10 11  1  0  0  0  0
 10 12  2  0  0  0  0
 12 13  1  0  0  0  0
 13 14  2  0  0  0  0
 13 28  1  0  0  0  0
 14 15  1  0  0  0  0
 16 22  1  0  0  0  0
 16 17  1  0  0  0  0
 16 18  1  0  0  0  0
 17 29  1  0  0  0  0
 18 23  1  0  0  0  0
 18 19  1  0  0  0  0
 19 30  1  0  0  0  0
M  END
> <s_m_source_file>
AV-unprocessed.smi

> <i_m_source_file_index>
48

> <i_lp_mmshare_version>
43012

> <i_f3d_flags>
0

> <s_epik_input>
W09IXVtDSDJdW0NASF0xT1tDQEhdKFtDQEhdKFtPSF0pW0NAQEhdMVtPSF0pbihbY0hdbjIpYyhjMjMpbltjSF1uYzNDbA==

> <s_epik_cmdline>
J2VwaWtfcHl0aG9uJywgJy1waCcsICc3LjAnLCAnLXRuJywgJzgnLCAnLW1hJywgJzIwMCcsICctbWV0YWxfYmluZGluZycsICctaW1hZScsICc8aW5maWxlLm1hZT4nLCAnLW9tYWUnLCAnPG91dGZpbGUubWFlPic=

> <r_lp_tautomer_probability>
1

> <r_epik_Ionization_Penalty>
3.45505e-06

> <r_epik_Ionization_Penalty_Charging>
0

> <r_epik_Ionization_Penalty_Neutral>
3.45505e-06

> <r_epik_State_Penalty>
-0

> <r_epik_Charging_Adjusted_Penalty>
0

> <i_epik_Tot_Q>
0

> <i_epik_Tot_abs_Q>
0

> <r_epik_Metal_State_Penalty>
-0

> <b_epik_Metal_Only>
0

> <s_epik_Chemistry_Notes>
This compound contains an acetal/aminal-like group ( X-CH(R)-Y where X, Y are N, S, or O) that may be acid/base labile, releasing an aldehyde.

> <s_lp_Force_Field>
OPLS_2005

> <r_lp_Energy>
37.1345

> <b_lp_Chiralities_Consistent>
1

> <s_lp_Variant>
AV-unprocessed.smi:48-5

> <Gold.Version>
5.8.1

> <Gold.Id.Protein>
6NUR|6NUR_protein|mol2

> <Gold.PLP.Fitness>
39.3435

> <Gold.PLP.PLP>
-29.1086

> <Gold.PLP.part.hbond>
-3.4424

> <Gold.PLP.part.metal>
0.0000

> <Gold.PLP.part.buried>
-1.7809

> <Gold.PLP.part.nonpolar>
-26.0319

> <Gold.PLP.part.repulsive>
2.1433

> <Gold.PLP.ligand.clash>
0.0000

> <Gold.PLP.ligand.torsion>
0.1635

> <Gold.PLP.Chemscore.Hbond>
2.8000

> <Gold.PLP.Chemscore.CHOScore>
0.7174

> <Gold.PLP.Chemscore.Metal>
0.0000

> <Gold.Chemscore.Hbonds>
donor molecule, donor type, donor heavy atom, donor atom, acceptor molecule, acceptor atom, score
      L1  H    19    30       P1 10175  1.00
      P1  H  7989  7998       L1    14  0.80
      P1  H  7997  8010       L1    12  1.00
      L1  C     7    27       P1  8028  0.71

> <Gold.PLP.Chemscore.Internal.Correction>
0.0097

> <Gold.Rescore>
     Score         DG    S(hbond)    S(metal)    S(lipo)     H(rot)  DE(clash)    DE(int)     intcor
      5.90      -7.73       2.15        0.00      40.87       3.80       0.72       1.11       ----

> <Gold.Chemscore.Fitness>
5.8959

> <Gold.Chemscore.DG>
-7.7255

> <Gold.Chemscore.ZeroCoef>
-5.4800

> <Gold.Chemscore.Hbond>
2.1546

> <Gold.Chemscore.Metal>
0.0000

> <Gold.Chemscore.Lipo>
40.8665

> <Gold.Chemscore.Internal_Hbond>
0.0000

> <Gold.Chemscore.DEClash>
0.7202

> <Gold.Chemscore.DEInternal>
1.1093

> <Gold.Chemscore.Rot>
3.8017

> <Gold.Chemscore.Internal.Correction>
   9.000000E+99

> <Gold.Chemscore.Hbonds>
donor molecule, donor type, donor heavy atom, donor atom, acceptor molecule, acceptor atom, score
      L1  H    19    30       P1 10175  0.94
      P1  H  7989  7998       L1    14  0.11
      P1  H  7997  8010       L1    12  0.14

> <Gold.Chemscore.Hbond.Weighted>
-7.1965

> <Gold.Chemscore.Metal.Weighted>
-0.0000

> <Gold.Chemscore.Lipo.Weighted>
-4.7814

> <Gold.Chemscore.Internal_Hbond.Weighted>
0.0000

> <Gold.Chemscore.DEClash.Weighted>
0.7202

> <Gold.Chemscore.DEInternal.Weighted>
1.1093

> <Gold.Chemscore.Rot.Weighted>
9.7324

> <Gold.Chemscore.Internal.Correction.Weighted>
   9.000000E+99

> <Gold.Protein.RotatedTorsions>
[ 6907 6896 6895 6894 ] final  -58.90 input  -60.11 | X-H torsion
[ 7974 7965 7964 7962 ] final -107.95 input  175.53 | X-H torsion
[ 8008 7997 7996 7995 ] final   49.37 input   59.86 | X-H torsion
[ 10167 10162 10161 10158 ] final -102.65 input  -65.29 | X-H torsion
[ 10718 10713 10712 10709 ] final  166.16 input   66.30 | X-H torsion
[ 10763 10752 10751 10750 ] final  178.42 input  -60.55 | X-H torsion
[ 11005 11000 10999 10996 ] final   90.80 input  -57.11 | X-H torsion

> <Gold.Protein.ActiveResidues>
 VAL166  LYS551  ARG553  GLY616  TRP617  ASP618  TYR619  PRO620  LYS621  CYS622 
 ASP623  PHE694  ASN695  SER759  ASP760  ASP761  ALA762  ILE779  LEU786  VAL792 
 PHE793  MET794  SER795  GLU796  ALA797  LYS798  CYS799  TRP800  GLU811  SER814 

> <Gold.Protein.RotatedAtoms>
  150.7971  134.7038  159.6564 H   0  0  0  0  0  0  0  0  0  0  0  0  # atno 6907 bound_to 6896
  152.4084  134.6163  160.0049 H   0  0  0  0  0  0  0  0  0  0  0  0  # atno 6908 bound_to 6896
  151.6414  133.3289  159.3167 H   0  0  0  0  0  0  0  0  0  0  0  0  # atno 6909 bound_to 6896
  145.1989  140.9047  143.3381 H   0  0  0  0  0  0  0  0  0  0  0  0  # atno 7974 bound_to 7965
  155.4011  140.3438  155.4257 H   0  0  0  0  0  0  0  0  0  0  0  0  # atno 8008 bound_to 7997
  156.1503  140.1569  156.8812 H   0  0  0  0  0  0  0  0  0  0  0  0  # atno 8009 bound_to 7997
  154.5047  140.0805  156.7850 H   0  0  0  0  0  0  0  0  0  0  0  0  # atno 8010 bound_to 7997
  140.2284  143.3624  152.0908 H   0  0  0  0  0  0  0  0  0  0  0  0  # atno 10167 bound_to 10162
  157.0698  131.0363  151.2616 H   0  0  0  0  0  0  0  0  0  0  0  0  # atno 10718 bound_to 10713
  154.5074  135.2786  155.1371 H   0  0  0  0  0  0  0  0  0  0  0  0  # atno 10763 bound_to 10752
  154.2980  135.6253  153.5416 H   0  0  0  0  0  0  0  0  0  0  0  0  # atno 10764 bound_to 10752
  152.9912  135.5690  154.5531 H   0  0  0  0  0  0  0  0  0  0  0  0  # atno 10765 bound_to 10752
  139.8849  134.8636  156.3337 H   0  0  0  0  0  0  0  0  0  0  0  0  # atno 11005 bound_to 11000
  144.9967  139.3637  143.6188 LP  0  0  0  0  0  0  0  0  0  0  0  0  # atno 17320 bound_to 7965
  146.3421  139.9173  142.8771 LP  0  0  0  0  0  0  0  0  0  0  0  0  # atno 17321 bound_to 7965
  139.5119  144.6907  151.5766 LP  0  0  0  0  0  0  0  0  0  0  0  0  # atno 17342 bound_to 10162
  140.6203  143.9270  150.6521 LP  0  0  0  0  0  0  0  0  0  0  0  0  # atno 17343 bound_to 10162
  157.4887  130.7809  149.7486 LP  0  0  0  0  0  0  0  0  0  0  0  0  # atno 17370 bound_to 10713
  155.9953  130.3912  150.2822 LP  0  0  0  0  0  0  0  0  0  0  0  0  # atno 17371 bound_to 10713
  140.9706  133.7330  156.0528 LP  0  0  0  0  0  0  0  0  0  0  0  0  # atno 17394 bound_to 11000
  140.7876  134.3654  157.5472 LP  0  0  0  0  0  0  0  0  0  0  0  0  # atno 17395 bound_to 11000

$$$$
