AV-unprocessed.smi:34|AV-procd|sdf|246|dock9
  -GOLD-   2262016 03D 1   1.00000     0.00000
 Structure written by MMmdl.
 54 58  0  0  0  0  0  0  0  0  2 V2000
  151.2298  141.8718  157.0800 O   0  0  0  0  0  0  0  0  0  0  0  0
  152.0950  141.2285  157.6783 C   0  0  0  0  0  0  0  0  0  0  0  0
  152.7037  140.0821  157.2814 N   0  5  0  0  0  0  0  0  0  0  0  0
  152.1369  139.3174  156.3361 C   0  0  0  0  0  0  0  0  0  0  0  0
  152.9077  138.5614  155.5136 N   0  0  0  0  0  0  0  0  0  0  0  0
  152.3431  137.8009  154.5695 C   0  0  0  0  0  0  0  0  0  0  0  0
  151.0483  137.6514  154.2753 N   0  0  0  0  0  0  0  0  0  0  0  0
  150.2603  138.4145  155.0871 C   0  0  0  0  0  0  0  0  0  0  0  0
  150.7310  139.2676  156.1282 C   0  0  0  0  0  0  0  0  0  0  0  0
  149.6733  139.9042  156.7595 N   0  0  0  0  0  0  0  0  0  0  0  0
  148.6306  139.4199  156.0895 C   0  0  0  0  0  0  0  0  0  0  0  0
  148.8783  138.5373  155.1008 N   0  0  0  0  0  0  0  0  0  0  0  0
  147.8649  137.8790  154.2171 C   0  0  1  0  0  0  0  0  0  0  0  0
  147.4283  136.7077  154.8472 O   0  0  0  0  0  0  0  0  0  0  0  0
  146.0375  136.8029  155.1474 C   0  0  2  0  0  0  0  0  0  0  0  0
  145.3885  135.4133  155.1708 C   0  0  0  0  0  0  0  0  0  0  0  0
  145.5538  134.7923  153.9059 O   0  0  0  0  0  0  0  0  0  0  0  0
  145.9039  133.4932  153.8346 C   0  0  0  0  0  0  0  0  0  0  0  0
  146.3209  132.8457  154.7972 O   0  0  0  0  0  0  0  0  0  0  0  0
  145.7422  132.9214  152.4667 C   0  0  0  0  0  0  0  0  0  0  0  0
  145.2664  133.7487  151.4226 C   0  0  0  0  0  0  0  0  0  0  0  0
  145.0978  133.2367  150.1216 C   0  0  0  0  0  0  0  0  0  0  0  0
  145.4059  131.8915  149.8477 C   0  0  0  0  0  0  0  0  0  0  0  0
  145.8826  131.0588  150.8769 C   0  0  0  0  0  0  0  0  0  0  0  0
  146.0498  131.5686  152.1795 C   0  0  0  0  0  0  0  0  0  0  0  0
  145.5083  137.7543  154.0750 C   0  0  2  0  0  0  0  0  0  0  0  0
  145.3904  137.0879  152.9222 F   0  0  0  0  0  0  0  0  0  0  0  0
  146.6341  138.7735  154.0004 C   0  0  2  0  0  0  0  0  0  0  0  0
  146.6270  139.4365  152.7521 O   0  0  0  0  0  0  0  0  0  0  0  0
  152.5211  141.6856  159.0478 C   0  0  0  0  0  0  0  0  0  0  0  0
  153.2229  140.7976  159.8950 C   0  0  0  0  0  0  0  0  0  0  0  0
  153.6089  141.1968  161.1895 C   0  0  0  0  0  0  0  0  0  0  0  0
  153.2886  142.4859  161.6547 C   0  0  0  0  0  0  0  0  0  0  0  0
  152.5778  143.3739  160.8257 C   0  0  0  0  0  0  0  0  0  0  0  0
  152.1916  142.9756  159.5311 C   0  0  0  0  0  0  0  0  0  0  0  0
  153.0280  137.2284  153.9618 H   0  0  0  0  0  0  0  0  0  0  0  0
  147.6238  139.7249  156.3351 H   0  0  0  0  0  0  0  0  0  0  0  0
  148.3958  137.6266  153.2979 H   0  0  0  0  0  0  0  0  0  0  0  0
  145.9229  137.2640  156.1277 H   0  0  0  0  0  0  0  0  0  0  0  0
  145.8283  134.7993  155.9581 H   0  0  0  0  0  0  0  0  0  0  0  0
  144.3235  135.5057  155.3874 H   0  0  0  0  0  0  0  0  0  0  0  0
  145.0220  134.7846  151.6089 H   0  0  0  0  0  0  0  0  0  0  0  0
  144.7310  133.8777  149.3334 H   0  0  0  0  0  0  0  0  0  0  0  0
  145.2768  131.4993  148.8498 H   0  0  0  0  0  0  0  0  0  0  0  0
  146.1210  130.0265  150.6676 H   0  0  0  0  0  0  0  0  0  0  0  0
  146.4177  130.9026  152.9462 H   0  0  0  0  0  0  0  0  0  0  0  0
  144.5382  138.1897  154.3162 H   0  0  0  0  0  0  0  0  0  0  0  0
  146.5378  139.4968  154.8106 H   0  0  0  0  0  0  0  0  0  0  0  0
  145.7309  139.6255  152.5189 H   0  0  0  0  0  0  0  0  0  0  0  0
  153.4744  139.8036  159.5541 H   0  0  0  0  0  0  0  0  0  0  0  0
  154.1494  140.5119  161.8259 H   0  0  0  0  0  0  0  0  0  0  0  0
  153.5840  142.7920  162.6472 H   0  0  0  0  0  0  0  0  0  0  0  0
  152.3256  144.3614  161.1830 H   0  0  0  0  0  0  0  0  0  0  0  0
  151.6375  143.6695  158.9152 H   0  0  0  0  0  0  0  0  0  0  0  0
  1  2  2  0  0  0  0
  2  3  1  0  0  0  0
  2 30  1  0  0  0  0
  3  4  1  0  0  0  0
  4  9  1  0  0  0  0
  4  5  2  0  0  0  0
  5  6  1  0  0  0  0
  6  7  2  0  0  0  0
  6 36  1  0  0  0  0
  7  8  1  0  0  0  0
  8 12  1  0  0  0  0
  8  9  2  0  0  0  0
  9 10  1  0  0  0  0
 10 11  2  0  0  0  0
 11 12  1  0  0  0  0
 11 37  1  0  0  0  0
 12 13  1  0  0  0  0
 13 28  1  0  0  0  0
 13 14  1  0  0  0  0
 13 38  1  0  0  0  0
 14 15  1  0  0  0  0
 15 16  1  0  0  0  0
 15 26  1  0  0  0  0
 15 39  1  0  0  0  0
 16 17  1  0  0  0  0
 16 40  1  0  0  0  0
 16 41  1  0  0  0  0
 17 18  1  0  0  0  0
 18 19  2  0  0  0  0
 18 20  1  0  0  0  0
 20 25  1  0  0  0  0
 20 21  2  0  0  0  0
 21 22  1  0  0  0  0
 21 42  1  0  0  0  0
 22 23  2  0  0  0  0
 22 43  1  0  0  0  0
 23 24  1  0  0  0  0
 23 44  1  0  0  0  0
 24 25  2  0  0  0  0
 24 45  1  0  0  0  0
 25 46  1  0  0  0  0
 26 27  1  0  0  0  0
 26 28  1  0  0  0  0
 26 47  1  0  0  0  0
 28 29  1  0  0  0  0
 28 48  1  0  0  0  0
 29 49  1  0  0  0  0
 30 35  1  0  0  0  0
 30 31  2  0  0  0  0
 31 32  1  0  0  0  0
 31 50  1  0  0  0  0
 32 33  2  0  0  0  0
 32 51  1  0  0  0  0
 33 34  1  0  0  0  0
 33 52  1  0  0  0  0
 34 35  2  0  0  0  0
 34 53  1  0  0  0  0
 35 54  1  0  0  0  0
M  CHG  1   3  -1
M  END
> <s_m_source_file>
AV-unprocessed.smi

> <i_m_source_file_index>
34

> <i_lp_mmshare_version>
43012

> <i_f3d_flags>
0

> <s_epik_input>
W2NIXTFbY0hdW2NIXVtjSF1bY0hdYzFDKD1PKVtOSF1jKG5bY0hdbjIpYyhjMjMpbltjSF1uM1tDQEBIXTRPW0NASF0oW0NAQEhdKEYpW0NASF00W09IXSlbQ0gyXU9DKD1PKWM1W2NIXVtjSF1bY0hdW2NIXVtjSF01

> <s_epik_cmdline>
J2VwaWtfcHl0aG9uJywgJy1waCcsICc3LjAnLCAnLXRuJywgJzgnLCAnLW1hJywgJzIwMCcsICctbWV0YWxfYmluZGluZycsICctaW1hZScsICc8aW5maWxlLm1hZT4nLCAnLW9tYWUnLCAnPG91dGZpbGUubWFlPic=

> <r_lp_tautomer_probability>
1

> <r_epik_Ionization_Penalty>
4.33227

> <r_epik_Ionization_Penalty_Charging>
3.41027

> <r_epik_Ionization_Penalty_Neutral>
0.922001

> <r_epik_State_Penalty>
3.41358

> <r_epik_Charging_Adjusted_Penalty>
6.82385

> <i_epik_Tot_Q>
-1

> <i_epik_Tot_abs_Q>
1

> <r_epik_Metal_State_Penalty>
0.496292

> <b_epik_Metal_Only>
1

> <s_epik_Chemistry_Notes>
This compound has an ester and may undergo hydrolysis at high or low pH. This compound contains an acetal/aminal-like group ( X-CH(R)-Y where X, Y are N, S, or O) that may be acid/base labile, releasing an aldehyde.

> <s_lp_Force_Field>
OPLS_2005

> <r_lp_Energy>
46.0199

> <b_lp_Chiralities_Consistent>
1

> <s_lp_Variant>
AV-unprocessed.smi:34-32

> <Gold.Version>
5.8.1

> <Gold.Id.Protein>
6NUR|6NUR_protein|mol2

> <Gold.PLP.Fitness>
55.7191

> <Gold.PLP.PLP>
-49.3541

> <Gold.PLP.part.hbond>
-2.0000

> <Gold.PLP.part.metal>
0.0000

> <Gold.PLP.part.buried>
-9.8158

> <Gold.PLP.part.nonpolar>
-37.7808

> <Gold.PLP.part.repulsive>
0.5559

> <Gold.PLP.ligand.clash>
0.0000

> <Gold.PLP.ligand.torsion>
1.5623

> <Gold.PLP.Chemscore.Hbond>
3.0000

> <Gold.PLP.Chemscore.CHOScore>
0.0000

> <Gold.PLP.Chemscore.Metal>
0.0000

> <Gold.Chemscore.Hbonds>
donor molecule, donor type, donor heavy atom, donor atom, acceptor molecule, acceptor atom, score
      L1  H    29    49       P1 10175  0.55
      P1  H  7997  8008       L1     3  1.80

> <Gold.PLP.Chemscore.Internal.Correction>
0.4897

> <Gold.Rescore>
     Score         DG    S(hbond)    S(metal)    S(lipo)     H(rot)  DE(clash)    DE(int)     intcor
     10.03     -17.89       1.74        0.00     115.27       2.69       0.06       7.80       ----

> <Gold.Chemscore.Fitness>
10.0323

> <Gold.Chemscore.DG>
-17.8863

> <Gold.Chemscore.ZeroCoef>
-5.4800

> <Gold.Chemscore.Hbond>
1.7418

> <Gold.Chemscore.Metal>
0.0000

> <Gold.Chemscore.Lipo>
115.2676

> <Gold.Chemscore.Internal_Hbond>
0.0000

> <Gold.Chemscore.DEClash>
0.0582

> <Gold.Chemscore.DEInternal>
7.7957

> <Gold.Chemscore.Rot>
2.6944

> <Gold.Chemscore.Internal.Correction>
   9.000000E+99

> <Gold.Chemscore.Hbonds>
donor molecule, donor type, donor heavy atom, donor atom, acceptor molecule, acceptor atom, score
      L1  H    29    49       P1 10175  0.54
      P1  H  7997  8008       L1     3  0.17

> <Gold.Chemscore.Hbond.Weighted>
-5.8175

> <Gold.Chemscore.Metal.Weighted>
-0.0000

> <Gold.Chemscore.Lipo.Weighted>
-13.4863

> <Gold.Chemscore.Internal_Hbond.Weighted>
0.0000

> <Gold.Chemscore.DEClash.Weighted>
0.0582

> <Gold.Chemscore.DEInternal.Weighted>
7.7957

> <Gold.Chemscore.Rot.Weighted>
6.8975

> <Gold.Chemscore.Internal.Correction.Weighted>
   9.000000E+99

> <Gold.Protein.RotatedTorsions>
[ 6907 6896 6895 6894 ] final   75.88 input  -60.11 | X-H torsion
[ 7974 7965 7964 7962 ] final  -90.23 input  175.53 | X-H torsion
[ 8008 7997 7996 7995 ] final  -58.25 input   59.86 | X-H torsion
[ 10167 10162 10161 10158 ] final  152.08 input  -65.29 | X-H torsion
[ 10718 10713 10712 10709 ] final -136.19 input   66.30 | X-H torsion
[ 10763 10752 10751 10750 ] final   31.87 input  -60.55 | X-H torsion
[ 11005 11000 10999 10996 ] final  -30.13 input  -57.11 | X-H torsion

> <Gold.Protein.ActiveResidues>
 VAL166  LYS551  ARG553  GLY616  TRP617  ASP618  TYR619  PRO620  LYS621  CYS622 
 ASP623  PHE694  ASN695  SER759  ASP760  ASP761  ALA762  ILE779  LEU786  VAL792 
 PHE793  MET794  SER795  GLU796  ALA797  LYS798  CYS799  TRP800  GLU811  SER814 

> <Gold.Protein.RotatedAtoms>
  152.5047  134.4053  159.9430 H   0  0  0  0  0  0  0  0  0  0  0  0  # atno 6907 bound_to 6896
  151.4019  133.3749  159.2741 H   0  0  0  0  0  0  0  0  0  0  0  0  # atno 6908 bound_to 6896
  150.9355  134.8789  159.7638 H   0  0  0  0  0  0  0  0  0  0  0  0  # atno 6909 bound_to 6896
  145.4292  140.9555  143.2138 H   0  0  0  0  0  0  0  0  0  0  0  0  # atno 7974 bound_to 7965
  154.4301  140.1088  156.5926 H   0  0  0  0  0  0  0  0  0  0  0  0  # atno 8008 bound_to 7997
  155.5995  140.3493  155.4571 H   0  0  0  0  0  0  0  0  0  0  0  0  # atno 8009 bound_to 7997
  156.0184  140.1234  157.0372 H   0  0  0  0  0  0  0  0  0  0  0  0  # atno 8010 bound_to 7997
  139.4835  144.5387  151.7601 H   0  0  0  0  0  0  0  0  0  0  0  0  # atno 10167 bound_to 10162
  156.2743  130.7284  151.1261 H   0  0  0  0  0  0  0  0  0  0  0  0  # atno 10718 bound_to 10713
  153.0292  135.6428  154.1267 H   0  0  0  0  0  0  0  0  0  0  0  0  # atno 10763 bound_to 10752
  154.0991  135.2861  155.3257 H   0  0  0  0  0  0  0  0  0  0  0  0  # atno 10764 bound_to 10752
  154.6411  135.5459  153.7854 H   0  0  0  0  0  0  0  0  0  0  0  0  # atno 10765 bound_to 10752
  140.9356  133.7310  156.1000 H   0  0  0  0  0  0  0  0  0  0  0  0  # atno 11005 bound_to 11000
  144.8194  139.5818  143.6993 LP  0  0  0  0  0  0  0  0  0  0  0  0  # atno 17320 bound_to 7965
  146.2616  139.6424  142.9358 LP  0  0  0  0  0  0  0  0  0  0  0  0  # atno 17321 bound_to 7965
  140.4924  144.1291  150.5953 LP  0  0  0  0  0  0  0  0  0  0  0  0  # atno 17342 bound_to 10162
  140.4156  143.2636  151.9779 LP  0  0  0  0  0  0  0  0  0  0  0  0  # atno 17343 bound_to 10162
  157.7294  131.0624  150.5775 LP  0  0  0  0  0  0  0  0  0  0  0  0  # atno 17370 bound_to 10713
  156.5875  130.4320  149.5951 LP  0  0  0  0  0  0  0  0  0  0  0  0  # atno 17371 bound_to 10713
  140.7803  134.3733  157.5489 LP  0  0  0  0  0  0  0  0  0  0  0  0  # atno 17394 bound_to 11000
  139.8807  134.9077  156.2952 LP  0  0  0  0  0  0  0  0  0  0  0  0  # atno 17395 bound_to 11000

$$$$
