AV-unprocessed.smi:1445|AV-procd|sdf|5887|dock3
  -GOLD-   22720 5563D 1   1.00000     0.00000
 Structure written by MMmdl.
 46 47  0  0  0  0  0  0  0  0  2 V2000
  151.7716  138.3900  153.6729 C   0  0  0  0  0  0  0  0  0  0  0  0
  150.3715  138.3849  153.4142 O   0  0  0  0  0  0  0  0  0  0  0  0
  149.6317  139.4983  153.7654 C   0  0  0  0  0  0  0  0  0  0  0  0
  150.2766  140.5449  154.3392 N   0  0  0  0  0  0  0  0  0  0  0  0
  149.5590  141.6355  154.6769 C   0  0  0  0  0  0  0  0  0  0  0  0
  148.1738  141.7429  154.4583 C   0  0  0  0  0  0  0  0  0  0  0  0
  147.5022  140.6590  153.8636 C   0  0  0  0  0  0  0  0  0  0  0  0
  148.2390  139.5005  153.5138 C   0  0  0  0  0  0  0  0  0  0  0  0
  147.6729  138.3493  152.8959 N   0  0  0  0  0  0  0  0  0  0  0  0
  146.3802  138.0260  152.7195 C   0  0  0  0  0  0  0  0  0  0  0  0
  145.4159  138.6919  153.0952 O   0  0  0  0  0  0  0  0  0  0  0  0
  146.2572  136.8534  152.0812 N   0  0  0  0  0  0  0  0  0  0  0  0
  144.9889  136.2329  151.7160 C   0  0  0  0  0  0  0  0  0  0  0  0
  144.6589  135.0309  152.6230 C   0  0  0  0  0  0  0  0  0  0  0  0
  144.7979  133.7340  151.9143 N   0  3  1  0  0  0  0  0  0  0  0  0
  143.8528  133.6112  150.7747 C   0  0  0  0  0  0  0  0  0  0  0  0
  143.9032  132.2018  150.1640 C   0  0  0  0  0  0  0  0  0  0  0  0
  145.3317  131.8355  149.7365 C   0  0  0  0  0  0  0  0  0  0  0  0
  146.3287  132.0261  150.8946 C   0  0  2  0  0  0  0  0  0  0  0  0
  146.2166  130.9278  151.9668 C   0  0  0  0  0  0  0  0  0  0  0  0
  146.1961  133.4411  151.4951 C   0  0  0  0  0  0  0  0  0  0  0  0
  152.2045  137.4486  153.3355 H   0  0  0  0  0  0  0  0  0  0  0  0
  151.9796  138.4858  154.7395 H   0  0  0  0  0  0  0  0  0  0  0  0
  152.2745  139.1957  153.1362 H   0  0  0  0  0  0  0  0  0  0  0  0
  150.1064  142.4488  155.1297 H   0  0  0  0  0  0  0  0  0  0  0  0
  147.6388  142.6387  154.7367 H   0  0  0  0  0  0  0  0  0  0  0  0
  146.4437  140.7497  153.6800 H   0  0  0  0  0  0  0  0  0  0  0  0
  148.3448  137.6643  152.5818 H   0  0  0  0  0  0  0  0  0  0  0  0
  147.1000  136.3670  151.8110 H   0  0  0  0  0  0  0  0  0  0  0  0
  144.2046  136.9895  151.7489 H   0  0  0  0  0  0  0  0  0  0  0  0
  145.0592  135.9058  150.6782 H   0  0  0  0  0  0  0  0  0  0  0  0
  145.3447  135.0543  153.4713 H   0  0  0  0  0  0  0  0  0  0  0  0
  143.6536  135.1109  153.0394 H   0  0  0  0  0  0  0  0  0  0  0  0
  142.8359  133.8155  151.1121 H   0  0  0  0  0  0  0  0  0  0  0  0
  144.0927  134.3604  150.0182 H   0  0  0  0  0  0  0  0  0  0  0  0
  143.5319  131.4747  150.8867 H   0  0  0  0  0  0  0  0  0  0  0  0
  143.2343  132.1457  149.3046 H   0  0  0  0  0  0  0  0  0  0  0  0
  145.3659  130.8109  149.3643 H   0  0  0  0  0  0  0  0  0  0  0  0
  145.6268  132.4728  148.9016 H   0  0  0  0  0  0  0  0  0  0  0  0
  147.3320  131.9422  150.4745 H   0  0  0  0  0  0  0  0  0  0  0  0
  145.2473  130.9407  152.4650 H   0  0  0  0  0  0  0  0  0  0  0  0
  146.9816  131.0520  152.7339 H   0  0  0  0  0  0  0  0  0  0  0  0
  146.3517  129.9382  151.5293 H   0  0  0  0  0  0  0  0  0  0  0  0
  146.5080  134.1838  150.7590 H   0  0  0  0  0  0  0  0  0  0  0  0
  146.8811  133.5377  152.3365 H   0  0  0  0  0  0  0  0  0  0  0  0
  144.5323  133.0185  152.5758 H   0  0  0  0  0  0  0  0  0  0  0  0
  1  2  1  0  0  0  0
  1 22  1  0  0  0  0
  1 23  1  0  0  0  0
  1 24  1  0  0  0  0
  2  3  1  0  0  0  0
  3  8  1  0  0  0  0
  3  4  2  0  0  0  0
  4  5  1  0  0  0  0
  5  6  2  0  0  0  0
  5 25  1  0  0  0  0
  6  7  1  0  0  0  0
  6 26  1  0  0  0  0
  7  8  2  0  0  0  0
  7 27  1  0  0  0  0
  8  9  1  0  0  0  0
  9 10  1  0  0  0  0
  9 28  1  0  0  0  0
 10 11  2  0  0  0  0
 10 12  1  0  0  0  0
 12 13  1  0  0  0  0
 12 29  1  0  0  0  0
 13 14  1  0  0  0  0
 13 30  1  0  0  0  0
 13 31  1  0  0  0  0
 14 15  1  0  0  0  0
 14 32  1  0  0  0  0
 14 33  1  0  0  0  0
 15 21  1  0  0  0  0
 15 16  1  0  0  0  0
 15 46  1  0  0  0  0
 16 17  1  0  0  0  0
 16 34  1  0  0  0  0
 16 35  1  0  0  0  0
 17 18  1  0  0  0  0
 17 36  1  0  0  0  0
 17 37  1  0  0  0  0
 18 19  1  0  0  0  0
 18 38  1  0  0  0  0
 18 39  1  0  0  0  0
 19 20  1  0  0  0  0
 19 21  1  0  0  0  0
 19 40  1  0  0  0  0
 20 41  1  0  0  0  0
 20 42  1  0  0  0  0
 20 43  1  0  0  0  0
 21 44  1  0  0  0  0
 21 45  1  0  0  0  0
M  CHG  1  15   1
M  END
> <s_m_source_file>
AV-unprocessed.smi

> <i_m_source_file_index>
1445

> <i_lp_mmshare_version>
43012

> <i_f3d_flags>
0

> <s_epik_input>
W0NIM11PYzFuW2NIXVtjSF1bY0hdYzFbTkhdQyg9TylbTkhdW0NIMl1bQ0gyXU4yW0NIMl1bQ0gyXVtDSDJdW0NAQEhdKFtDSDNdKVtDSDJdMg==

> <s_epik_cmdline>
J2VwaWtfcHl0aG9uJywgJy1waCcsICc3LjAnLCAnLXRuJywgJzgnLCAnLW1hJywgJzIwMCcsICctbWV0YWxfYmluZGluZycsICctaW1hZScsICc8aW5maWxlLm1hZT4nLCAnLW9tYWUnLCAnPG91dGZpbGUubWFlPic=

> <r_lp_tautomer_probability>
1

> <r_epik_Ionization_Penalty>
0.00179544

> <r_epik_Ionization_Penalty_Charging>
0.00171832

> <r_epik_Ionization_Penalty_Neutral>
7.71118e-05

> <r_epik_State_Penalty>
0.0011618

> <r_epik_Charging_Adjusted_Penalty>
0.00288012

> <i_epik_Tot_Q>
1

> <i_epik_Tot_abs_Q>
1

> <r_epik_Metal_State_Penalty>
-0

> <b_epik_Metal_Only>
0

> <s_lp_Force_Field>
OPLS_2005

> <r_lp_Energy>
21.8859

> <b_lp_Chiralities_Consistent>
1

> <s_lp_Variant>
AV-unprocessed.smi:1445-3

> <Gold.Version>
5.8.1

> <Gold.Id.Protein>
6NUR|6NUR_protein|mol2

> <Gold.PLP.Fitness>
44.7237

> <Gold.PLP.PLP>
-34.4322

> <Gold.PLP.part.hbond>
-3.7163

> <Gold.PLP.part.metal>
0.0000

> <Gold.PLP.part.buried>
0.4985

> <Gold.PLP.part.nonpolar>
-35.8818

> <Gold.PLP.part.repulsive>
4.4575

> <Gold.PLP.ligand.clash>
0.0000

> <Gold.PLP.ligand.torsion>
0.4594

> <Gold.PLP.Chemscore.Hbond>
2.9040

> <Gold.PLP.Chemscore.CHOScore>
0.8067

> <Gold.PLP.Chemscore.Metal>
0.0000

> <Gold.Chemscore.Hbonds>
donor molecule, donor type, donor heavy atom, donor atom, acceptor molecule, acceptor atom, score
      L1  H     9    28       P1  7948  1.00
      L1  H    12    29       P1  7948  1.00
      P1  H  7989  7998       L1     4  0.88
      L1  C     5    25       P1  8028  0.61

> <Gold.PLP.Chemscore.Internal.Correction>
0.0782

> <Gold.Rescore>
     Score         DG    S(hbond)    S(metal)    S(lipo)     H(rot)  DE(clash)    DE(int)     intcor
     16.37     -18.72       2.03        0.00      92.54       1.71       0.73       1.61       ----

> <Gold.Chemscore.Fitness>
16.3734

> <Gold.Chemscore.DG>
-18.7167

> <Gold.Chemscore.ZeroCoef>
-5.4800

> <Gold.Chemscore.Hbond>
2.0327

> <Gold.Chemscore.Metal>
0.0000

> <Gold.Chemscore.Lipo>
92.5391

> <Gold.Chemscore.Internal_Hbond>
0.0000

> <Gold.Chemscore.DEClash>
0.7290

> <Gold.Chemscore.DEInternal>
1.6143

> <Gold.Chemscore.Rot>
1.7107

> <Gold.Chemscore.Internal.Correction>
   9.000000E+99

> <Gold.Chemscore.Hbonds>
donor molecule, donor type, donor heavy atom, donor atom, acceptor molecule, acceptor atom, score
      L1  H     9    28       P1  7948  1.00
      L1  H    12    29       P1  7948  0.95
      P1  H  7989  7998       L1     4  0.51

> <Gold.Chemscore.Hbond.Weighted>
-6.7891

> <Gold.Chemscore.Metal.Weighted>
-0.0000

> <Gold.Chemscore.Lipo.Weighted>
-10.8271

> <Gold.Chemscore.Internal_Hbond.Weighted>
0.0000

> <Gold.Chemscore.DEClash.Weighted>
0.7290

> <Gold.Chemscore.DEInternal.Weighted>
1.6143

> <Gold.Chemscore.Rot.Weighted>
4.3794

> <Gold.Chemscore.Internal.Correction.Weighted>
   9.000000E+99

> <Gold.Protein.RotatedTorsions>
[ 6907 6896 6895 6894 ] final  -99.27 input  -60.11 | X-H torsion
[ 7974 7965 7964 7962 ] final   21.65 input  175.53 | X-H torsion
[ 8008 7997 7996 7995 ] final   10.91 input   59.86 | X-H torsion
[ 10167 10162 10161 10158 ] final   58.16 input  -65.29 | X-H torsion
[ 10718 10713 10712 10709 ] final -106.78 input   66.30 | X-H torsion
[ 10763 10752 10751 10750 ] final  126.52 input  -60.55 | X-H torsion
[ 11005 11000 10999 10996 ] final -155.14 input  -57.11 | X-H torsion

> <Gold.Protein.ActiveResidues>
 VAL166  LYS551  ARG553  GLY616  TRP617  ASP618  TYR619  PRO620  LYS621  CYS622 
 ASP623  PHE694  ASN695  SER759  ASP760  ASP761  ALA762  ILE779  LEU786  VAL792 
 PHE793  MET794  SER795  GLU796  ALA797  LYS798  CYS799  TRP800  GLU811  SER814 

> <Gold.Protein.RotatedAtoms>
  150.7074  134.1066  159.3984 H   0  0  0  0  0  0  0  0  0  0  0  0  # atno 6907 bound_to 6896
  151.9052  135.0359  160.0519 H   0  0  0  0  0  0  0  0  0  0  0  0  # atno 6908 bound_to 6896
  152.2381  133.5077  159.5291 H   0  0  0  0  0  0  0  0  0  0  0  0  # atno 6909 bound_to 6896
  146.2062  139.7997  142.8724 H   0  0  0  0  0  0  0  0  0  0  0  0  # atno 7974 bound_to 7965
  154.7997  140.2850  155.5930 H   0  0  0  0  0  0  0  0  0  0  0  0  # atno 8008 bound_to 7997
  156.2975  140.2589  156.2792 H   0  0  0  0  0  0  0  0  0  0  0  0  # atno 8009 bound_to 7997
  154.9572  140.0378  157.2162 H   0  0  0  0  0  0  0  0  0  0  0  0  # atno 8010 bound_to 7997
  140.1902  144.4093  150.6575 H   0  0  0  0  0  0  0  0  0  0  0  0  # atno 10167 bound_to 10162
  156.0406  130.5629  150.7728 H   0  0  0  0  0  0  0  0  0  0  0  0  # atno 10718 bound_to 10713
  153.6946  135.3293  155.3210 H   0  0  0  0  0  0  0  0  0  0  0  0  # atno 10763 bound_to 10752
  154.8430  135.4440  154.1473 H   0  0  0  0  0  0  0  0  0  0  0  0  # atno 10764 bound_to 10752
  153.2524  135.6983  153.7743 H   0  0  0  0  0  0  0  0  0  0  0  0  # atno 10765 bound_to 10752
  140.6897  134.4054  157.5220 H   0  0  0  0  0  0  0  0  0  0  0  0  # atno 11005 bound_to 11000
  145.3309  141.0266  143.3447 LP  0  0  0  0  0  0  0  0  0  0  0  0  # atno 17320 bound_to 7965
  144.8799  139.4918  143.6728 LP  0  0  0  0  0  0  0  0  0  0  0  0  # atno 17321 bound_to 7965
  140.6461  143.2214  151.6183 LP  0  0  0  0  0  0  0  0  0  0  0  0  # atno 17342 bound_to 10162
  139.5259  144.3061  152.1033 LP  0  0  0  0  0  0  0  0  0  0  0  0  # atno 17343 bound_to 10162
  157.5217  131.0932  151.0069 LP  0  0  0  0  0  0  0  0  0  0  0  0  # atno 17370 bound_to 10713
  157.0398  130.5744  149.5354 LP  0  0  0  0  0  0  0  0  0  0  0  0  # atno 17371 bound_to 10713
  139.8927  134.8749  156.2259 LP  0  0  0  0  0  0  0  0  0  0  0  0  # atno 17394 bound_to 11000
  141.0251  133.7019  156.1334 LP  0  0  0  0  0  0  0  0  0  0  0  0  # atno 17395 bound_to 11000

$$$$
