AV-unprocessed.smi:633|AV-procd|sdf|3132|dock8
  -GOLD-   22720 0 53D 1   1.00000     0.00000
 Structure written by MMmdl.
 53 56  0  0  0  0  0  0  0  0  1 V2000
  151.8431  144.4410  157.3272 C   0  0  0  0  0  0  0  0  0  0  0  0
  151.1463  143.6340  158.4374 C   0  0  1  0  0  0  0  0  0  0  0  0
  150.2046  142.5379  157.9009 C   0  0  0  0  0  0  0  0  0  0  0  0
  150.9623  141.3961  157.3933 N   0  0  0  0  0  0  0  0  0  0  0  0
  150.2731  140.4297  156.6297 C   0  0  0  0  0  0  0  0  0  0  0  0
  149.3152  139.5901  157.2447 C   0  0  0  0  0  0  0  0  0  0  0  0
  148.6368  138.6319  156.4673 C   0  0  0  0  0  0  0  0  0  0  0  0
  148.9386  138.5297  155.0896 C   0  0  0  0  0  0  0  0  0  0  0  0
  148.3083  137.6225  154.1956 N   0  0  0  0  0  0  0  0  0  0  0  0
  147.2259  136.8543  154.4075 C   0  0  0  0  0  0  0  0  0  0  0  0
  146.6071  136.7779  155.4686 O   0  0  0  0  0  0  0  0  0  0  0  0
  146.9101  136.1536  153.3074 N   0  0  0  0  0  0  0  0  0  0  0  0
  145.8053  135.2072  153.1593 C   0  0  0  0  0  0  0  0  0  0  0  0
  146.2507  133.7816  152.8669 C   0  0  0  0  0  0  0  0  0  0  0  0
  147.6464  133.3124  153.2033 C   0  0  0  0  0  0  0  0  0  0  0  0
  147.2313  133.4819  151.7589 C   0  0  0  0  0  0  0  0  0  0  0  0
  144.7397  135.6570  152.1706 C   0  0  0  0  0  0  0  0  0  0  0  0
  143.8018  134.6636  151.5281 C   0  0  0  0  0  0  0  0  0  0  0  0
  144.8609  135.3520  150.6962 C   0  0  0  0  0  0  0  0  0  0  0  0
  149.9007  139.4150  154.5652 C   0  0  0  0  0  0  0  0  0  0  0  0
  150.5552  140.3324  155.3072 N   0  0  0  0  0  0  0  0  0  0  0  0
  151.9238  140.8709  158.3571 C   0  0  0  0  0  0  0  0  0  0  0  0
  152.8563  141.9920  158.8501 C   0  0  2  0  0  0  0  0  0  0  0  0
  153.7900  141.5084  159.9648 C   0  0  0  0  0  0  0  0  0  0  0  0
  152.0786  143.0728  159.3643 O   0  0  0  0  0  0  0  0  0  0  0  0
  151.1099  144.9666  156.7146 H   0  0  0  0  0  0  0  0  0  0  0  0
  152.4264  143.8082  156.6585 H   0  0  0  0  0  0  0  0  0  0  0  0
  152.5134  145.1885  157.7519 H   0  0  0  0  0  0  0  0  0  0  0  0
  150.5409  144.3404  159.0061 H   0  0  0  0  0  0  0  0  0  0  0  0
  149.5489  142.1943  158.7023 H   0  0  0  0  0  0  0  0  0  0  0  0
  149.5669  142.9529  157.1190 H   0  0  0  0  0  0  0  0  0  0  0  0
  149.1012  139.6624  158.3006 H   0  0  0  0  0  0  0  0  0  0  0  0
  147.8951  138.0080  156.9409 H   0  0  0  0  0  0  0  0  0  0  0  0
  148.7637  137.5112  153.3016 H   0  0  0  0  0  0  0  0  0  0  0  0
  147.4890  136.2874  152.4914 H   0  0  0  0  0  0  0  0  0  0  0  0
  145.3319  135.1906  154.1421 H   0  0  0  0  0  0  0  0  0  0  0  0
  145.4677  133.0401  153.0149 H   0  0  0  0  0  0  0  0  0  0  0  0
  148.3460  134.0396  153.6100 H   0  0  0  0  0  0  0  0  0  0  0  0
  147.7570  132.2978  153.5800 H   0  0  0  0  0  0  0  0  0  0  0  0
  147.0652  132.5802  151.1730 H   0  0  0  0  0  0  0  0  0  0  0  0
  147.6523  134.3230  151.2118 H   0  0  0  0  0  0  0  0  0  0  0  0
  144.3062  136.6270  152.4073 H   0  0  0  0  0  0  0  0  0  0  0  0
  143.9476  133.6091  151.7539 H   0  0  0  0  0  0  0  0  0  0  0  0
  142.7682  134.9712  151.3832 H   0  0  0  0  0  0  0  0  0  0  0  0
  144.5326  136.1184  149.9969 H   0  0  0  0  0  0  0  0  0  0  0  0
  145.7052  134.7502  150.3660 H   0  0  0  0  0  0  0  0  0  0  0  0
  150.1596  139.3852  153.5167 H   0  0  0  0  0  0  0  0  0  0  0  0
  151.3756  140.4424  159.1970 H   0  0  0  0  0  0  0  0  0  0  0  0
  152.5248  140.0686  157.9313 H   0  0  0  0  0  0  0  0  0  0  0  0
  153.4738  142.3440  158.0233 H   0  0  0  0  0  0  0  0  0  0  0  0
  154.4185  140.6863  159.6214 H   0  0  0  0  0  0  0  0  0  0  0  0
  153.2243  141.1589  160.8291 H   0  0  0  0  0  0  0  0  0  0  0  0
  154.4467  142.3120  160.2988 H   0  0  0  0  0  0  0  0  0  0  0  0
  1  2  1  0  0  0  0
  1 26  1  0  0  0  0
  1 27  1  0  0  0  0
  1 28  1  0  0  0  0
  2 25  1  0  0  0  0
  2  3  1  0  0  0  0
  2 29  1  0  0  0  0
  3  4  1  0  0  0  0
  3 30  1  0  0  0  0
  3 31  1  0  0  0  0
  4  5  1  0  0  0  0
  4 22  1  0  0  0  0
  5 21  1  0  0  0  0
  5  6  2  0  0  0  0
  6  7  1  0  0  0  0
  6 32  1  0  0  0  0
  7  8  2  0  0  0  0
  7 33  1  0  0  0  0
  8  9  1  0  0  0  0
  8 20  1  0  0  0  0
  9 10  1  0  0  0  0
  9 34  1  0  0  0  0
 10 11  2  0  0  0  0
 10 12  1  0  0  0  0
 12 13  1  0  0  0  0
 12 35  1  0  0  0  0
 13 14  1  0  0  0  0
 13 17  1  0  0  0  0
 13 36  1  0  0  0  0
 14 16  1  0  0  0  0
 14 15  1  0  0  0  0
 14 37  1  0  0  0  0
 15 16  1  0  0  0  0
 15 38  1  0  0  0  0
 15 39  1  0  0  0  0
 16 40  1  0  0  0  0
 16 41  1  0  0  0  0
 17 19  1  0  0  0  0
 17 18  1  0  0  0  0
 17 42  1  0  0  0  0
 18 19  1  0  0  0  0
 18 43  1  0  0  0  0
 18 44  1  0  0  0  0
 19 45  1  0  0  0  0
 19 46  1  0  0  0  0
 20 21  2  0  0  0  0
 20 47  1  0  0  0  0
 22 23  1  0  0  0  0
 22 48  1  0  0  0  0
 22 49  1  0  0  0  0
 23 24  1  0  0  0  0
 23 25  1  0  0  0  0
 23 50  1  0  0  0  0
 24 51  1  0  0  0  0
 24 52  1  0  0  0  0
 24 53  1  0  0  0  0
M  END
> <s_m_source_file>
AV-unprocessed.smi

> <i_m_source_file_index>
633

> <i_lp_mmshare_version>
43012

> <i_f3d_flags>
0

> <s_epik_input>
W0NIM11bQ0BASF0xW0NIMl1OKFtDSDJdW0NASF0oTzEpW0NIM10pYzJbY0hdW2NIXWMoW2NIXW4yKVtOSF1DKD1PKVtOSF1bQ0hdKFtDSF0zW0NIMl1bQ0gyXTMpW0NIXTRbQ0gyXVtDSDJdNA==

> <s_epik_cmdline>
J2VwaWtfcHl0aG9uJywgJy1waCcsICc3LjAnLCAnLXRuJywgJzgnLCAnLW1hJywgJzIwMCcsICctbWV0YWxfYmluZGluZycsICctaW1hZScsICc8aW5maWxlLm1hZT4nLCAnLW9tYWUnLCAnPG91dGZpbGUubWFlPic=

> <r_lp_tautomer_probability>
1

> <r_epik_Ionization_Penalty>
0.00291159

> <r_epik_Ionization_Penalty_Charging>
0

> <r_epik_Ionization_Penalty_Neutral>
0.00291159

> <r_epik_State_Penalty>
0.00200877

> <r_epik_Charging_Adjusted_Penalty>
0.00200877

> <i_epik_Tot_Q>
0

> <i_epik_Tot_abs_Q>
0

> <r_epik_Metal_State_Penalty>
-0

> <b_epik_Metal_Only>
0

> <s_lp_Force_Field>
OPLS_2005

> <r_lp_Energy>
43.3159

> <b_lp_Chiralities_Consistent>
1

> <s_lp_Variant>
AV-unprocessed.smi:633-3

> <Gold.Version>
5.8.1

> <Gold.Id.Protein>
6NUR|6NUR_protein|mol2

> <Gold.PLP.Fitness>
47.3889

> <Gold.PLP.PLP>
-38.2258

> <Gold.PLP.part.hbond>
-2.5967

> <Gold.PLP.part.metal>
0.0000

> <Gold.PLP.part.buried>
-5.9474

> <Gold.PLP.part.nonpolar>
-29.8264

> <Gold.PLP.part.repulsive>
0.1173

> <Gold.PLP.ligand.clash>
0.0000

> <Gold.PLP.ligand.torsion>
1.3058

> <Gold.PLP.Chemscore.Hbond>
2.1030

> <Gold.PLP.Chemscore.CHOScore>
0.9882

> <Gold.PLP.Chemscore.Metal>
0.0000

> <Gold.Chemscore.Hbonds>
donor molecule, donor type, donor heavy atom, donor atom, acceptor molecule, acceptor atom, score
      L1  H     9    34       P1  7948  0.85
      L1  H    12    35       P1  7948  0.96
      P1  H  7989  7998       L1    21  0.26
      L1  C    20    47       P1  7957  1.00

> <Gold.PLP.Chemscore.Internal.Correction>
2.5010

> <Gold.Rescore>
     Score         DG    S(hbond)    S(metal)    S(lipo)     H(rot)  DE(clash)    DE(int)     intcor
     17.53     -20.14       1.94        0.00     100.70       1.40       0.12       2.50       ----

> <Gold.Chemscore.Fitness>
17.5271

> <Gold.Chemscore.DG>
-20.1442

> <Gold.Chemscore.ZeroCoef>
-5.4800

> <Gold.Chemscore.Hbond>
1.9376

> <Gold.Chemscore.Metal>
0.0000

> <Gold.Chemscore.Lipo>
100.7027

> <Gold.Chemscore.Internal_Hbond>
0.0000

> <Gold.Chemscore.DEClash>
0.1151

> <Gold.Chemscore.DEInternal>
2.5020

> <Gold.Chemscore.Rot>
1.4022

> <Gold.Chemscore.Internal.Correction>
   9.000000E+99

> <Gold.Chemscore.Hbonds>
donor molecule, donor type, donor heavy atom, donor atom, acceptor molecule, acceptor atom, score
      L1  H     9    34       P1  7948  0.83
      L1  H    12    35       P1  7948  0.90
      P1  H  7989  7998       L1    21  0.01

> <Gold.Chemscore.Hbond.Weighted>
-6.4717

> <Gold.Chemscore.Metal.Weighted>
-0.0000

> <Gold.Chemscore.Lipo.Weighted>
-11.7822

> <Gold.Chemscore.Internal_Hbond.Weighted>
0.0000

> <Gold.Chemscore.DEClash.Weighted>
0.1151

> <Gold.Chemscore.DEInternal.Weighted>
2.5020

> <Gold.Chemscore.Rot.Weighted>
3.5897

> <Gold.Chemscore.Internal.Correction.Weighted>
   9.000000E+99

> <Gold.Protein.RotatedTorsions>
[ 6907 6896 6895 6894 ] final  177.88 input  -60.11 | X-H torsion
[ 7974 7965 7964 7962 ] final -174.65 input  175.53 | X-H torsion
[ 8008 7997 7996 7995 ] final  -59.88 input   59.86 | X-H torsion
[ 10167 10162 10161 10158 ] final   27.80 input  -65.29 | X-H torsion
[ 10718 10713 10712 10709 ] final  -98.05 input   66.30 | X-H torsion
[ 10763 10752 10751 10750 ] final  136.18 input  -60.55 | X-H torsion
[ 11005 11000 10999 10996 ] final   13.80 input  -57.11 | X-H torsion

> <Gold.Protein.ActiveResidues>
 VAL166  LYS551  ARG553  GLY616  TRP617  ASP618  TYR619  PRO620  LYS621  CYS622 
 ASP623  PHE694  ASN695  SER759  ASP760  ASP761  ALA762  ILE779  LEU786  VAL792 
 PHE793  MET794  SER795  GLU796  ALA797  LYS798  CYS799  TRP800  GLU811  SER814 

> <Gold.Protein.RotatedAtoms>
  151.6969  133.3311  159.3256 H   0  0  0  0  0  0  0  0  0  0  0  0  # atno 6907 bound_to 6896
  150.7753  134.6650  159.6369 H   0  0  0  0  0  0  0  0  0  0  0  0  # atno 6908 bound_to 6896
  152.3793  134.6618  160.0200 H   0  0  0  0  0  0  0  0  0  0  0  0  # atno 6909 bound_to 6896
  144.7131  140.1440  143.6389 H   0  0  0  0  0  0  0  0  0  0  0  0  # atno 7974 bound_to 7965
  154.4372  140.1052  156.6185 H   0  0  0  0  0  0  0  0  0  0  0  0  # atno 8008 bound_to 7997
  155.5733  140.3489  155.4502 H   0  0  0  0  0  0  0  0  0  0  0  0  # atno 8009 bound_to 7997
  156.0373  140.1274  157.0183 H   0  0  0  0  0  0  0  0  0  0  0  0  # atno 8010 bound_to 7997
  140.4907  144.0470  150.6296 H   0  0  0  0  0  0  0  0  0  0  0  0  # atno 10167 bound_to 10162
  156.0098  130.5221  150.6466 H   0  0  0  0  0  0  0  0  0  0  0  0  # atno 10718 bound_to 10713
  153.8523  135.3077  155.3433 H   0  0  0  0  0  0  0  0  0  0  0  0  # atno 10763 bound_to 10752
  154.7885  135.4796  154.0003 H   0  0  0  0  0  0  0  0  0  0  0  0  # atno 10764 bound_to 10752
  153.1511  135.6843  153.8975 H   0  0  0  0  0  0  0  0  0  0  0  0  # atno 10765 bound_to 10752
  140.4766  134.0977  155.7743 H   0  0  0  0  0  0  0  0  0  0  0  0  # atno 11005 bound_to 11000
  145.9176  139.2526  143.1400 LP  0  0  0  0  0  0  0  0  0  0  0  0  # atno 17320 bound_to 7965
  145.9653  140.8804  143.0190 LP  0  0  0  0  0  0  0  0  0  0  0  0  # atno 17321 bound_to 7965
  140.3739  143.2839  152.0247 LP  0  0  0  0  0  0  0  0  0  0  0  0  # atno 17342 bound_to 10162
  139.4851  144.6208  151.7258 LP  0  0  0  0  0  0  0  0  0  0  0  0  # atno 17343 bound_to 10162
  157.4235  131.0840  151.1108 LP  0  0  0  0  0  0  0  0  0  0  0  0  # atno 17370 bound_to 10713
  157.1702  130.6264  149.5638 LP  0  0  0  0  0  0  0  0  0  0  0  0  # atno 17371 bound_to 10713
  141.1551  133.8897  157.1998 LP  0  0  0  0  0  0  0  0  0  0  0  0  # atno 17394 bound_to 11000
  139.9852  135.0084  156.9845 LP  0  0  0  0  0  0  0  0  0  0  0  0  # atno 17395 bound_to 11000

$$$$
