AV-unprocessed.smi:1828|AV-procd|sdf|7427|dock1
  -GOLD-   22720 9113D 1   1.00000     0.00000
 Structure written by MMmdl.
 40 42  0  0  0  0  0  0  0  0  2 V2000
  149.9587  136.0870  155.0513 O   0  0  0  0  0  0  0  0  0  0  0  0
  150.5819  137.3128  155.3645 C   0  0  0  0  0  0  0  0  0  0  0  0
  149.7163  138.4873  155.0477 C   0  0  0  0  0  0  0  0  0  0  0  0
  148.5885  138.4656  154.2830 N   0  3  0  0  0  0  0  0  0  0  0  0
  148.0381  139.7460  154.2162 C   0  0  0  0  0  0  0  0  0  0  0  0
  146.9017  140.2153  153.5645 C   0  0  0  0  0  0  0  0  0  0  0  0
  146.6184  141.5905  153.6976 C   0  0  0  0  0  0  0  0  0  0  0  0
  147.4503  142.4414  154.4539 C   0  0  0  0  0  0  0  0  0  0  0  0
  148.5997  141.9538  155.1100 C   0  0  0  0  0  0  0  0  0  0  0  0
  148.8720  140.5922  154.9761 C   0  0  0  0  0  0  0  0  0  0  0  0
  149.8935  139.7719  155.4711 N   0  0  0  0  0  0  0  0  0  0  0  0
  150.9448  140.3489  156.3251 C   0  0  0  0  0  0  0  0  0  0  0  0
  150.6675  140.1673  157.8310 C   0  0  1  0  0  0  0  0  0  0  0  0
  150.7220  138.7965  158.1757 O   0  0  0  0  0  0  0  0  0  0  0  0
  151.6157  141.0111  158.6685 C   0  0  0  0  0  0  0  0  0  0  0  0
  152.4326  140.3950  159.6399 C   0  0  0  0  0  0  0  0  0  0  0  0
  153.3045  141.1703  160.4270 C   0  0  0  0  0  0  0  0  0  0  0  0
  153.3637  142.5652  160.2476 C   0  0  0  0  0  0  0  0  0  0  0  0
  152.5511  143.1952  159.2815 C   0  0  0  0  0  0  0  0  0  0  0  0
  152.6300  144.7047  159.1086 C   0  0  0  0  0  0  0  0  0  0  0  0
  153.3242  145.2852  160.0882 F   0  0  0  0  0  0  0  0  0  0  0  0
  153.2197  144.9868  157.9473 F   0  0  0  0  0  0  0  0  0  0  0  0
  151.4001  145.2186  159.1017 F   0  0  0  0  0  0  0  0  0  0  0  0
  151.6762  142.4119  158.4961 C   0  0  0  0  0  0  0  0  0  0  0  0
  149.7678  136.0731  154.1258 H   0  0  0  0  0  0  0  0  0  0  0  0
  150.8372  137.3246  156.4240 H   0  0  0  0  0  0  0  0  0  0  0  0
  151.5163  137.3879  154.8076 H   0  0  0  0  0  0  0  0  0  0  0  0
  146.2636  139.5657  152.9833 H   0  0  0  0  0  0  0  0  0  0  0  0
  145.7469  142.0011  153.2085 H   0  0  0  0  0  0  0  0  0  0  0  0
  147.2033  143.4902  154.5315 H   0  0  0  0  0  0  0  0  0  0  0  0
  149.2325  142.6169  155.6812 H   0  0  0  0  0  0  0  0  0  0  0  0
  151.9097  139.9259  156.0456 H   0  0  0  0  0  0  0  0  0  0  0  0
  151.0041  141.4115  156.0866 H   0  0  0  0  0  0  0  0  0  0  0  0
  149.6486  140.4952  158.0408 H   0  0  0  0  0  0  0  0  0  0  0  0
  151.6236  138.5654  158.3401 H   0  0  0  0  0  0  0  0  0  0  0  0
  152.3921  139.3256  159.7872 H   0  0  0  0  0  0  0  0  0  0  0  0
  153.9277  140.6948  161.1702 H   0  0  0  0  0  0  0  0  0  0  0  0
  154.0343  143.1549  160.8554 H   0  0  0  0  0  0  0  0  0  0  0  0
  151.0436  142.8818  157.7576 H   0  0  0  0  0  0  0  0  0  0  0  0
  148.2218  137.6314  153.8431 H   0  0  0  0  0  0  0  0  0  0  0  0
  1  2  1  0  0  0  0
  1 25  1  0  0  0  0
  2  3  1  0  0  0  0
  2 26  1  0  0  0  0
  2 27  1  0  0  0  0
  3 11  1  0  0  0  0
  3  4  2  0  0  0  0
  4  5  1  0  0  0  0
  4 40  1  0  0  0  0
  5 10  2  0  0  0  0
  5  6  1  0  0  0  0
  6  7  2  0  0  0  0
  6 28  1  0  0  0  0
  7  8  1  0  0  0  0
  7 29  1  0  0  0  0
  8  9  2  0  0  0  0
  8 30  1  0  0  0  0
  9 10  1  0  0  0  0
  9 31  1  0  0  0  0
 10 11  1  0  0  0  0
 11 12  1  0  0  0  0
 12 13  1  0  0  0  0
 12 32  1  0  0  0  0
 12 33  1  0  0  0  0
 13 14  1  0  0  0  0
 13 15  1  0  0  0  0
 13 34  1  0  0  0  0
 14 35  1  0  0  0  0
 15 24  1  0  0  0  0
 15 16  2  0  0  0  0
 16 17  1  0  0  0  0
 16 36  1  0  0  0  0
 17 18  2  0  0  0  0
 17 37  1  0  0  0  0
 18 19  1  0  0  0  0
 18 38  1  0  0  0  0
 19 20  1  0  0  0  0
 19 24  2  0  0  0  0
 20 21  1  0  0  0  0
 20 22  1  0  0  0  0
 20 23  1  0  0  0  0
 24 39  1  0  0  0  0
M  CHG  1   4   1
M  END
> <s_m_source_file>
AV-unprocessed.smi

> <i_m_source_file_index>
1828

> <i_lp_mmshare_version>
43012

> <i_f3d_flags>
0

> <s_epik_input>
W2NIXTFbY0hdW2NIXVtjSF1jKGMxMiluKGMobjIpW0NIMl1bT0hdKVtDSDJdW0NASF0oW09IXSljM1tjSF1bY0hdW2NIXWMoQyhGKShGKUYpW2NIXTM=

> <s_epik_cmdline>
J2VwaWtfcHl0aG9uJywgJy1waCcsICc3LjAnLCAnLXRuJywgJzgnLCAnLW1hJywgJzIwMCcsICctbWV0YWxfYmluZGluZycsICctaW1hZScsICc8aW5maWxlLm1hZT4nLCAnLW9tYWUnLCAnPG91dGZpbGUubWFlPic=

> <r_epik_Ionization_Penalty>
1.35643

> <r_epik_Ionization_Penalty_Charging>
1.35557

> <r_epik_Ionization_Penalty_Neutral>
0.000856502

> <r_epik_State_Penalty>
1.43401

> <r_epik_Charging_Adjusted_Penalty>
2.78958

> <i_epik_Tot_Q>
1

> <i_epik_Tot_abs_Q>
1

> <r_epik_Metal_State_Penalty>
5.47166

> <b_epik_Metal_Only>
0

> <s_lp_Force_Field>
OPLS_2005

> <r_lp_Energy>
16.2288

> <b_lp_Chiralities_Consistent>
1

> <s_lp_Variant>
AV-unprocessed.smi:1828-4

> <Gold.Version>
5.8.1

> <Gold.Id.Protein>
6NUR|6NUR_protein|mol2

> <Gold.PLP.Fitness>
68.6500

> <Gold.PLP.PLP>
-59.1938

> <Gold.PLP.part.hbond>
-4.0639

> <Gold.PLP.part.metal>
0.0000

> <Gold.PLP.part.buried>
-0.7438

> <Gold.PLP.part.nonpolar>
-54.7707

> <Gold.PLP.part.repulsive>
0.0762

> <Gold.PLP.ligand.clash>
0.9078

> <Gold.PLP.ligand.torsion>
0.8951

> <Gold.PLP.Chemscore.Hbond>
4.0000

> <Gold.PLP.Chemscore.CHOScore>
0.0000

> <Gold.PLP.Chemscore.Metal>
0.0000

> <Gold.Chemscore.Hbonds>
donor molecule, donor type, donor heavy atom, donor atom, acceptor molecule, acceptor atom, score
      L1  H     1    25       P1  7948  0.13

> <Gold.PLP.Chemscore.Internal.Correction>
0.1541

> <Gold.Rescore>
     Score         DG    S(hbond)    S(metal)    S(lipo)     H(rot)  DE(clash)    DE(int)     intcor
     16.63     -18.53       1.80        0.00     125.30       2.98       1.15       0.75       ----

> <Gold.Chemscore.Fitness>
16.6284

> <Gold.Chemscore.DG>
-18.5251

> <Gold.Chemscore.ZeroCoef>
-5.4800

> <Gold.Chemscore.Hbond>
1.8022

> <Gold.Chemscore.Metal>
0.0000

> <Gold.Chemscore.Lipo>
125.2995

> <Gold.Chemscore.Internal_Hbond>
0.0000

> <Gold.Chemscore.DEClash>
1.1472

> <Gold.Chemscore.DEInternal>
0.7495

> <Gold.Chemscore.Rot>
2.9822

> <Gold.Chemscore.Internal.Correction>
   9.000000E+99

> <Gold.Chemscore.Hbonds>
donor molecule, donor type, donor heavy atom, donor atom, acceptor molecule, acceptor atom, score
      L1  H     1    25       P1  7948  0.06

> <Gold.Chemscore.Hbond.Weighted>
-6.0194

> <Gold.Chemscore.Metal.Weighted>
-0.0000

> <Gold.Chemscore.Lipo.Weighted>
-14.6600

> <Gold.Chemscore.Internal_Hbond.Weighted>
0.0000

> <Gold.Chemscore.DEClash.Weighted>
1.1472

> <Gold.Chemscore.DEInternal.Weighted>
0.7495

> <Gold.Chemscore.Rot.Weighted>
7.6343

> <Gold.Chemscore.Internal.Correction.Weighted>
   9.000000E+99

> <Gold.Protein.RotatedTorsions>
[ 6907 6896 6895 6894 ] final  -28.04 input  -60.11 | X-H torsion
[ 7974 7965 7964 7962 ] final  -56.41 input  175.53 | X-H torsion
[ 8008 7997 7996 7995 ] final   68.86 input   59.86 | X-H torsion
[ 10167 10162 10161 10158 ] final  169.49 input  -65.29 | X-H torsion
[ 10718 10713 10712 10709 ] final -159.16 input   66.30 | X-H torsion
[ 10763 10752 10751 10750 ] final  156.53 input  -60.55 | X-H torsion
[ 11005 11000 10999 10996 ] final  -91.95 input  -57.11 | X-H torsion

> <Gold.Protein.ActiveResidues>
 VAL166  LYS551  ARG553  GLY616  TRP617  ASP618  TYR619  PRO620  LYS621  CYS622 
 ASP623  PHE694  ASN695  SER759  ASP760  ASP761  ALA762  ILE779  LEU786  VAL792 
 PHE793  MET794  SER795  GLU796  ALA797  LYS798  CYS799  TRP800  GLU811  SER814 

> <Gold.Protein.RotatedAtoms>
  151.1384  135.0167  159.8614 H   0  0  0  0  0  0  0  0  0  0  0  0  # atno 6907 bound_to 6896
  152.5452  134.1527  159.8535 H   0  0  0  0  0  0  0  0  0  0  0  0  # atno 6908 bound_to 6896
  151.1601  133.4805  159.2627 H   0  0  0  0  0  0  0  0  0  0  0  0  # atno 6909 bound_to 6896
  145.8630  140.8271  142.9927 H   0  0  0  0  0  0  0  0  0  0  0  0  # atno 7974 bound_to 7965
  155.7149  140.3494  155.4990 H   0  0  0  0  0  0  0  0  0  0  0  0  # atno 8008 bound_to 7997
  155.9323  140.1086  157.1144 H   0  0  0  0  0  0  0  0  0  0  0  0  # atno 8009 bound_to 7997
  154.4087  140.1229  156.4805 H   0  0  0  0  0  0  0  0  0  0  0  0  # atno 8010 bound_to 7997
  139.4994  144.3700  151.9735 H   0  0  0  0  0  0  0  0  0  0  0  0  # atno 10167 bound_to 10162
  156.5642  130.8660  151.2818 H   0  0  0  0  0  0  0  0  0  0  0  0  # atno 10718 bound_to 10713
  154.1859  135.2797  155.3037 H   0  0  0  0  0  0  0  0  0  0  0  0  # atno 10763 bound_to 10752
  154.5967  135.5542  153.7336 H   0  0  0  0  0  0  0  0  0  0  0  0  # atno 10764 bound_to 10752
  153.0125  135.6381  154.1997 H   0  0  0  0  0  0  0  0  0  0  0  0  # atno 10765 bound_to 10752
  141.1533  133.7789  156.9951 H   0  0  0  0  0  0  0  0  0  0  0  0  # atno 11005 bound_to 11000
  144.6726  140.1124  143.7454 LP  0  0  0  0  0  0  0  0  0  0  0  0  # atno 17320 bound_to 7965
  145.9226  139.2555  143.1372 LP  0  0  0  0  0  0  0  0  0  0  0  0  # atno 17321 bound_to 7965
  140.3136  144.3509  150.6027 LP  0  0  0  0  0  0  0  0  0  0  0  0  # atno 17342 bound_to 10162
  140.5779  143.2175  151.7482 LP  0  0  0  0  0  0  0  0  0  0  0  0  # atno 17343 bound_to 10162
  157.7362  130.9775  150.2124 LP  0  0  0  0  0  0  0  0  0  0  0  0  # atno 17370 bound_to 10713
  156.2772  130.3729  149.7971 LP  0  0  0  0  0  0  0  0  0  0  0  0  # atno 17371 bound_to 10713
  140.0977  134.9554  157.1875 LP  0  0  0  0  0  0  0  0  0  0  0  0  # atno 17394 bound_to 11000
  140.3360  134.2757  155.7220 LP  0  0  0  0  0  0  0  0  0  0  0  0  # atno 17395 bound_to 11000

$$$$
