AV-unprocessed.smi:220|AV-procd|sdf|1682|dock1
  -GOLD-   2262020113D 1   1.00000     0.00000
 Structure written by MMmdl.
 51 55  0  0  0  0  0  0  0  0  1 V2000
  150.6252  137.5776  154.4562 N   0  0  0  0  0  0  0  0  0  0  0  0
  150.6355  138.7892  155.0168 C   0  0  0  0  0  0  0  0  0  0  0  0
  151.6578  139.4697  155.0840 O   0  0  0  0  0  0  0  0  0  0  0  0
  149.2963  139.3080  155.5642 C   0  0  2  0  0  0  0  0  0  0  0  0
  148.8522  140.6135  154.8717 C   0  0  1  0  0  0  0  0  0  0  0  0
  147.8593  140.4547  153.7081 C   0  0  0  0  0  0  0  0  0  0  0  0
  146.8436  141.5807  153.9102 C   0  0  0  0  0  0  0  0  0  0  0  0
  146.7120  141.6948  155.4293 C   0  0  0  0  0  0  0  0  0  0  0  0
  148.1306  141.4289  155.9520 C   0  0  1  0  0  0  0  0  0  0  0  0
  148.2377  140.5849  157.2256 C   0  0  0  0  0  0  0  0  0  0  0  0
  149.3486  139.6801  156.9780 N   0  0  0  0  0  0  0  0  0  0  0  0
  149.4814  138.6937  157.8937 C   0  0  0  0  0  0  0  0  0  0  0  0
  150.6832  138.5993  158.5125 N   0  0  0  0  0  0  0  0  0  0  0  0
  150.8916  137.6490  159.4281 C   0  0  0  0  0  0  0  0  0  0  0  0
  150.0467  136.7144  159.8680 N   0  0  0  0  0  0  0  0  0  0  0  0
  148.8315  136.8150  159.2565 C   0  0  0  0  0  0  0  0  0  0  0  0
  148.4639  137.7688  158.2658 C   0  0  0  0  0  0  0  0  0  0  0  0
  147.1427  137.5663  157.8843 N   0  0  0  0  0  0  0  0  0  0  0  0
  146.7564  136.5450  158.5986 C   0  0  0  0  0  0  0  0  0  0  0  0
  147.7044  136.0366  159.4574 N   0  0  0  0  0  0  0  0  0  0  0  0
  147.5464  134.9095  160.3640 C   0  0  0  0  0  0  0  0  0  0  0  0
  147.1554  135.3145  161.7996 C   0  0  0  0  0  0  0  0  0  0  0  0
  146.9805  134.0667  162.6829 C   0  0  0  0  0  0  0  0  0  0  0  0
  145.9317  133.2452  162.2121 O   0  0  0  0  0  0  0  0  0  0  0  0
  147.9987  136.4280  162.4372 C   0  0  0  0  0  0  0  0  0  0  0  0
  146.8272  137.1934  162.7887 O   0  0  0  0  0  0  0  0  0  0  0  0
  146.0349  136.3562  161.9201 C   0  0  0  0  0  0  0  0  0  0  0  0
  151.4795  137.1936  154.0790 H   0  0  0  0  0  0  0  0  0  0  0  0
  149.7654  137.0509  154.4082 H   0  0  0  0  0  0  0  0  0  0  0  0
  148.5348  138.5416  155.4227 H   0  0  0  0  0  0  0  0  0  0  0  0
  149.7161  141.1911  154.5360 H   0  0  0  0  0  0  0  0  0  0  0  0
  148.3481  140.5043  152.7346 H   0  0  0  0  0  0  0  0  0  0  0  0
  147.3423  139.4963  153.7666 H   0  0  0  0  0  0  0  0  0  0  0  0
  147.2393  142.5124  153.5035 H   0  0  0  0  0  0  0  0  0  0  0  0
  145.8908  141.3797  153.4198 H   0  0  0  0  0  0  0  0  0  0  0  0
  146.3260  142.6643  155.7449 H   0  0  0  0  0  0  0  0  0  0  0  0
  146.0188  140.9316  155.7845 H   0  0  0  0  0  0  0  0  0  0  0  0
  148.6612  142.3732  156.0846 H   0  0  0  0  0  0  0  0  0  0  0  0
  148.4265  141.2081  158.1007 H   0  0  0  0  0  0  0  0  0  0  0  0
  147.3227  140.0192  157.4085 H   0  0  0  0  0  0  0  0  0  0  0  0
  151.8764  137.6356  159.8713 H   0  0  0  0  0  0  0  0  0  0  0  0
  145.7608  136.1348  158.5173 H   0  0  0  0  0  0  0  0  0  0  0  0
  146.7920  134.2481  159.9360 H   0  0  0  0  0  0  0  0  0  0  0  0
  148.4708  134.3308  160.3646 H   0  0  0  0  0  0  0  0  0  0  0  0
  147.8969  133.4788  162.7381 H   0  0  0  0  0  0  0  0  0  0  0  0
  146.7437  134.3528  163.7083 H   0  0  0  0  0  0  0  0  0  0  0  0
  146.2774  132.6662  161.5501 H   0  0  0  0  0  0  0  0  0  0  0  0
  148.5713  136.1100  163.3094 H   0  0  0  0  0  0  0  0  0  0  0  0
  148.6312  136.9698  161.7326 H   0  0  0  0  0  0  0  0  0  0  0  0
  145.7947  136.8590  160.9820 H   0  0  0  0  0  0  0  0  0  0  0  0
  145.1305  135.9862  162.4045 H   0  0  0  0  0  0  0  0  0  0  0  0
  1  2  1  0  0  0  0
  1 28  1  0  0  0  0
  1 29  1  0  0  0  0
  2  3  2  0  0  0  0
  2  4  1  0  0  0  0
  4 11  1  0  0  0  0
  4  5  1  0  0  0  0
  4 30  1  0  0  0  0
  5  9  1  0  0  0  0
  5  6  1  0  0  0  0
  5 31  1  0  0  0  0
  6  7  1  0  0  0  0
  6 32  1  0  0  0  0
  6 33  1  0  0  0  0
  7  8  1  0  0  0  0
  7 34  1  0  0  0  0
  7 35  1  0  0  0  0
  8  9  1  0  0  0  0
  8 36  1  0  0  0  0
  8 37  1  0  0  0  0
  9 10  1  0  0  0  0
  9 38  1  0  0  0  0
 10 11  1  0  0  0  0
 10 39  1  0  0  0  0
 10 40  1  0  0  0  0
 11 12  1  0  0  0  0
 12 17  1  0  0  0  0
 12 13  2  0  0  0  0
 13 14  1  0  0  0  0
 14 15  2  0  0  0  0
 14 41  1  0  0  0  0
 15 16  1  0  0  0  0
 16 20  1  0  0  0  0
 16 17  2  0  0  0  0
 17 18  1  0  0  0  0
 18 19  2  0  0  0  0
 19 20  1  0  0  0  0
 19 42  1  0  0  0  0
 20 21  1  0  0  0  0
 21 22  1  0  0  0  0
 21 43  1  0  0  0  0
 21 44  1  0  0  0  0
 22 27  1  0  0  0  0
 22 23  1  0  0  0  0
 22 25  1  0  0  0  0
 23 24  1  0  0  0  0
 23 45  1  0  0  0  0
 23 46  1  0  0  0  0
 24 47  1  0  0  0  0
 25 26  1  0  0  0  0
 25 48  1  0  0  0  0
 25 49  1  0  0  0  0
 26 27  1  0  0  0  0
 27 50  1  0  0  0  0
 27 51  1  0  0  0  0
M  END
> <s_m_source_file>
AV-unprocessed.smi

> <i_m_source_file_index>
220

> <i_lp_mmshare_version>
43012

> <i_f3d_flags>
0

> <s_epik_input>
W0NIMl0xW0NIMl1bQ0gyXVtDQEhdKFtDQEhdMTIpW0NIMl1OKFtDQEBIXTJDKD1PKVtOSDJdKWMobltjSF1uMyljKGMzNCluW2NIXW40W0NIMl1DNShbQ0gyXVtPSF0pW0NIMl1PW0NIMl01

> <s_epik_cmdline>
J2VwaWtfcHl0aG9uJywgJy1waCcsICc3LjAnLCAnLXRuJywgJzgnLCAnLW1hJywgJzIwMCcsICctbWV0YWxfYmluZGluZycsICctaW1hZScsICc8aW5maWxlLm1hZT4nLCAnLW9tYWUnLCAnPG91dGZpbGUubWFlPic=

> <r_lp_tautomer_probability>
1

> <r_epik_Ionization_Penalty>
0.00118987

> <r_epik_Ionization_Penalty_Charging>
0

> <r_epik_Ionization_Penalty_Neutral>
0.00118987

> <r_epik_State_Penalty>
0.000654261

> <r_epik_Charging_Adjusted_Penalty>
0.000654261

> <i_epik_Tot_Q>
0

> <i_epik_Tot_abs_Q>
0

> <r_epik_Metal_State_Penalty>
-0

> <b_epik_Metal_Only>
0

> <s_lp_Force_Field>
OPLS_2005

> <r_lp_Energy>
61.293

> <b_lp_Chiralities_Consistent>
1

> <s_lp_Variant>
AV-unprocessed.smi:220-1

> <Gold.Version>
5.8.1

> <Gold.Id.Protein>
6NUR|6NUR_protein|mol2

> <Gold.PLP.Fitness>
46.4995

> <Gold.PLP.PLP>
-41.2163

> <Gold.PLP.part.hbond>
-5.5805

> <Gold.PLP.part.metal>
0.0000

> <Gold.PLP.part.buried>
-4.0893

> <Gold.PLP.part.nonpolar>
-32.1078

> <Gold.PLP.part.repulsive>
0.1401

> <Gold.PLP.ligand.clash>
0.0000

> <Gold.PLP.ligand.torsion>
0.6925

> <Gold.PLP.Chemscore.Hbond>
2.0633

> <Gold.PLP.Chemscore.CHOScore>
0.0000

> <Gold.PLP.Chemscore.Metal>
0.0000

> <Gold.Chemscore.Hbonds>
donor molecule, donor type, donor heavy atom, donor atom, acceptor molecule, acceptor atom, score
      P1  H  6896  6907       L1    15  1.00
      P1  H  7989  7998       L1     3  0.81

> <Gold.PLP.Chemscore.Internal.Correction>
0.4781

> <Gold.Rescore>
     Score         DG    S(hbond)    S(metal)    S(lipo)     H(rot)  DE(clash)    DE(int)     intcor
     10.62     -11.74       1.88        0.00      71.27       3.27       0.00       1.12       ----

> <Gold.Chemscore.Fitness>
10.6178

> <Gold.Chemscore.DG>
-11.7403

> <Gold.Chemscore.ZeroCoef>
-5.4800

> <Gold.Chemscore.Hbond>
1.8843

> <Gold.Chemscore.Metal>
0.0000

> <Gold.Chemscore.Lipo>
71.2732

> <Gold.Chemscore.Internal_Hbond>
0.0000

> <Gold.Chemscore.DEClash>
0.0044

> <Gold.Chemscore.DEInternal>
1.1182

> <Gold.Chemscore.Rot>
3.2703

> <Gold.Chemscore.Internal.Correction>
   9.000000E+99

> <Gold.Chemscore.Hbonds>
donor molecule, donor type, donor heavy atom, donor atom, acceptor molecule, acceptor atom, score
      P1  H  6896  6907       L1    15  0.62
      P1  H  7989  7998       L1     3  0.55

> <Gold.Chemscore.Hbond.Weighted>
-6.2934

> <Gold.Chemscore.Metal.Weighted>
-0.0000

> <Gold.Chemscore.Lipo.Weighted>
-8.3390

> <Gold.Chemscore.Internal_Hbond.Weighted>
0.0000

> <Gold.Chemscore.DEClash.Weighted>
0.0044

> <Gold.Chemscore.DEInternal.Weighted>
1.1182

> <Gold.Chemscore.Rot.Weighted>
8.3721

> <Gold.Chemscore.Internal.Correction.Weighted>
   9.000000E+99

> <Gold.Protein.RotatedTorsions>
[ 6907 6896 6895 6894 ] final  -50.24 input  -60.11 | X-H torsion
[ 7974 7965 7964 7962 ] final  145.93 input  175.53 | X-H torsion
[ 8008 7997 7996 7995 ] final -151.33 input   59.86 | X-H torsion
[ 10167 10162 10161 10158 ] final  131.03 input  -65.29 | X-H torsion
[ 10718 10713 10712 10709 ] final    0.35 input   66.30 | X-H torsion
[ 10763 10752 10751 10750 ] final   96.03 input  -60.55 | X-H torsion
[ 11005 11000 10999 10996 ] final  -49.71 input  -57.11 | X-H torsion

> <Gold.Protein.ActiveResidues>
 VAL166  LYS551  ARG553  GLY616  TRP617  ASP618  TYR619  PRO620  LYS621  CYS622 
 ASP623  PHE694  ASN695  SER759  ASP760  ASP761  ALA762  ILE779  LEU786  VAL792 
 PHE793  MET794  SER795  GLU796  ALA797  LYS798  CYS799  TRP800  GLU811  SER814 

> <Gold.Protein.RotatedAtoms>
  150.8726  134.8103  159.7166 H   0  0  0  0  0  0  0  0  0  0  0  0  # atno 6907 bound_to 6896
  152.4725  134.4922  159.9708 H   0  0  0  0  0  0  0  0  0  0  0  0  # atno 6908 bound_to 6896
  151.5008  133.3466  159.2904 H   0  0  0  0  0  0  0  0  0  0  0  0  # atno 6909 bound_to 6896
  144.8712  139.5843  143.5886 H   0  0  0  0  0  0  0  0  0  0  0  0  # atno 7974 bound_to 7965
  155.6377  140.0698  157.2628 H   0  0  0  0  0  0  0  0  0  0  0  0  # atno 8008 bound_to 7997
  154.4191  140.1756  156.1589 H   0  0  0  0  0  0  0  0  0  0  0  0  # atno 8009 bound_to 7997
  155.9881  140.3347  155.6730 H   0  0  0  0  0  0  0  0  0  0  0  0  # atno 8010 bound_to 7997
  139.5403  144.6723  151.4648 H   0  0  0  0  0  0  0  0  0  0  0  0  # atno 10167 bound_to 10162
  156.8321  130.5492  149.5686 H   0  0  0  0  0  0  0  0  0  0  0  0  # atno 10718 bound_to 10713
  153.2601  135.4233  155.0885 H   0  0  0  0  0  0  0  0  0  0  0  0  # atno 10763 bound_to 10752
  154.8416  135.3447  154.6390 H   0  0  0  0  0  0  0  0  0  0  0  0  # atno 10764 bound_to 10752
  153.6810  135.7039  153.5175 H   0  0  0  0  0  0  0  0  0  0  0  0  # atno 10765 bound_to 10752
  141.0775  133.6662  156.3626 H   0  0  0  0  0  0  0  0  0  0  0  0  # atno 11005 bound_to 11000
  146.2931  139.7199  142.9146 LP  0  0  0  0  0  0  0  0  0  0  0  0  # atno 17320 bound_to 7965
  145.4127  141.0398  143.3008 LP  0  0  0  0  0  0  0  0  0  0  0  0  # atno 17321 bound_to 7965
  140.6629  143.8460  150.6908 LP  0  0  0  0  0  0  0  0  0  0  0  0  # atno 17342 bound_to 10162
  140.1860  143.4075  152.1898 LP  0  0  0  0  0  0  0  0  0  0  0  0  # atno 17343 bound_to 10162
  156.0928  130.5909  150.9762 LP  0  0  0  0  0  0  0  0  0  0  0  0  # atno 17370 bound_to 10713
  157.6401  131.0911  150.8269 LP  0  0  0  0  0  0  0  0  0  0  0  0  # atno 17371 bound_to 10713
  140.5542  134.5998  157.5416 LP  0  0  0  0  0  0  0  0  0  0  0  0  # atno 17394 bound_to 11000
  139.9587  134.7489  156.0283 LP  0  0  0  0  0  0  0  0  0  0  0  0  # atno 17395 bound_to 11000

$$$$
