AV-unprocessed.smi:443|AV-procd|sdf|2585|dock9
  -GOLD-   2262022573D 1   1.00000     0.00000
 Structure written by MMmdl.
 48 49  0  0  0  0  0  0  0  0  1 V2000
  147.0336  137.5564  154.6083 C   0  0  0  0  0  0  0  0  0  0  0  0
  148.2961  136.9088  155.1096 C   0  0  0  0  0  0  0  0  0  0  0  0
  149.4066  137.5021  154.8199 N   0  0  0  0  0  0  0  0  0  0  0  0
  150.6251  136.9841  155.2118 N   0  0  0  0  0  0  0  0  0  0  0  0
  151.7840  137.7603  154.7507 C   0  0  0  0  0  0  0  0  0  0  0  0
  151.7537  139.2194  155.2584 C   0  0  2  0  0  0  0  0  0  0  0  0
  152.9088  139.9104  154.8303 O   0  0  0  0  0  0  0  0  0  0  0  0
  151.6067  139.3708  156.7836 C   0  0  0  0  0  0  0  0  0  0  0  0
  151.9377  140.6992  157.1713 O   0  0  0  0  0  0  0  0  0  0  0  0
  152.5496  140.9072  158.3902 C   0  0  0  0  0  0  0  0  0  0  0  0
  153.2228  139.8781  159.0985 C   0  0  0  0  0  0  0  0  0  0  0  0
  153.8442  140.1395  160.3329 C   0  0  0  0  0  0  0  0  0  0  0  0
  153.8025  141.4318  160.8805 C   0  0  0  0  0  0  0  0  0  0  0  0
  153.1348  142.4601  160.1927 C   0  0  0  0  0  0  0  0  0  0  0  0
  152.5046  142.2116  158.9525 C   0  0  0  0  0  0  0  0  0  0  0  0
  151.7845  143.3728  158.2629 C   0  0  0  0  0  0  0  0  0  0  0  0
  152.6818  144.6101  158.0823 C   0  0  0  0  0  0  0  0  0  0  0  0
  150.4459  143.7156  158.9347 C   0  0  0  0  0  0  0  0  0  0  0  0
  150.7844  135.8407  155.9367 C   0  0  0  0  0  0  0  0  0  0  0  0
  151.8924  135.4119  156.2626 O   0  0  0  0  0  0  0  0  0  0  0  0
  149.5218  135.1794  156.2744 C   0  0  0  0  0  0  0  0  0  0  0  0
  149.6436  133.9767  157.0335 C   0  0  0  0  0  0  0  0  0  0  0  0
  149.7594  133.0090  157.6581 N   0  0  0  0  0  0  0  0  0  0  0  0
  148.3193  135.6739  155.8866 C   0  0  0  0  0  0  0  0  0  0  0  0
  146.9806  135.0217  156.2042 C   0  0  0  0  0  0  0  0  0  0  0  0
  146.4018  137.8688  155.4398 H   0  0  0  0  0  0  0  0  0  0  0  0
  146.4624  136.8646  153.9892 H   0  0  0  0  0  0  0  0  0  0  0  0
  147.2425  138.4392  154.0026 H   0  0  0  0  0  0  0  0  0  0  0  0
  152.7086  137.2769  155.0703 H   0  0  0  0  0  0  0  0  0  0  0  0
  151.8248  137.7482  153.6599 H   0  0  0  0  0  0  0  0  0  0  0  0
  150.9137  139.7353  154.7920 H   0  0  0  0  0  0  0  0  0  0  0  0
  153.2453  139.4830  154.0576 H   0  0  0  0  0  0  0  0  0  0  0  0
  150.5944  139.1135  157.0995 H   0  0  0  0  0  0  0  0  0  0  0  0
  152.2907  138.6709  157.2653 H   0  0  0  0  0  0  0  0  0  0  0  0
  153.2817  138.8709  158.7161 H   0  0  0  0  0  0  0  0  0  0  0  0
  154.3545  139.3465  160.8596 H   0  0  0  0  0  0  0  0  0  0  0  0
  154.2800  141.6348  161.8278 H   0  0  0  0  0  0  0  0  0  0  0  0
  153.1087  143.4477  160.6293 H   0  0  0  0  0  0  0  0  0  0  0  0
  151.5356  143.0396  157.2546 H   0  0  0  0  0  0  0  0  0  0  0  0
  153.5995  144.3515  157.5534 H   0  0  0  0  0  0  0  0  0  0  0  0
  152.9615  145.0664  159.0309 H   0  0  0  0  0  0  0  0  0  0  0  0
  152.1720  145.3754  157.4966 H   0  0  0  0  0  0  0  0  0  0  0  0
  149.7935  142.8432  158.9733 H   0  0  0  0  0  0  0  0  0  0  0  0
  149.9198  144.4932  158.3803 H   0  0  0  0  0  0  0  0  0  0  0  0
  150.5800  144.0772  159.9519 H   0  0  0  0  0  0  0  0  0  0  0  0
  147.0908  134.1351  156.8279 H   0  0  0  0  0  0  0  0  0  0  0  0
  146.4770  134.7173  155.2862 H   0  0  0  0  0  0  0  0  0  0  0  0
  146.3319  135.7165  156.7384 H   0  0  0  0  0  0  0  0  0  0  0  0
  1  2  1  0  0  0  0
  1 26  1  0  0  0  0
  1 27  1  0  0  0  0
  1 28  1  0  0  0  0
  2 24  1  0  0  0  0
  2  3  2  0  0  0  0
  3  4  1  0  0  0  0
  4  5  1  0  0  0  0
  4 19  1  0  0  0  0
  5  6  1  0  0  0  0
  5 29  1  0  0  0  0
  5 30  1  0  0  0  0
  6  7  1  0  0  0  0
  6  8  1  0  0  0  0
  6 31  1  0  0  0  0
  7 32  1  0  0  0  0
  8  9  1  0  0  0  0
  8 33  1  0  0  0  0
  8 34  1  0  0  0  0
  9 10  1  0  0  0  0
 10 15  1  0  0  0  0
 10 11  2  0  0  0  0
 11 12  1  0  0  0  0
 11 35  1  0  0  0  0
 12 13  2  0  0  0  0
 12 36  1  0  0  0  0
 13 14  1  0  0  0  0
 13 37  1  0  0  0  0
 14 15  2  0  0  0  0
 14 38  1  0  0  0  0
 15 16  1  0  0  0  0
 16 17  1  0  0  0  0
 16 18  1  0  0  0  0
 16 39  1  0  0  0  0
 17 40  1  0  0  0  0
 17 41  1  0  0  0  0
 17 42  1  0  0  0  0
 18 43  1  0  0  0  0
 18 44  1  0  0  0  0
 18 45  1  0  0  0  0
 19 20  2  0  0  0  0
 19 21  1  0  0  0  0
 21 22  1  0  0  0  0
 21 24  2  0  0  0  0
 22 23  3  0  0  0  0
 24 25  1  0  0  0  0
 25 46  1  0  0  0  0
 25 47  1  0  0  0  0
 25 48  1  0  0  0  0
M  END
> <s_m_source_file>
AV-unprocessed.smi

> <i_m_source_file_index>
443

> <i_lp_mmshare_version>
43012

> <i_f3d_flags>
0

> <s_epik_input>
TiNDYyhjMVtDSDNdKWMoPU8pbihuYzFbQ0gzXSlbQ0gyXVtDQEhdKFtPSF0pW0NIMl1PYzJbY0hdW2NIXVtjSF1bY0hdYzJbQ0hdKFtDSDNdKVtDSDNd

> <s_epik_cmdline>
J2VwaWtfcHl0aG9uJywgJy1waCcsICc3LjAnLCAnLXRuJywgJzgnLCAnLW1hJywgJzIwMCcsICctbWV0YWxfYmluZGluZycsICctaW1hZScsICc8aW5maWxlLm1hZT4nLCAnLW9tYWUnLCAnPG91dGZpbGUubWFlPic=

> <r_lp_tautomer_probability>
1

> <r_epik_Ionization_Penalty>
1.17331e-07

> <r_epik_Ionization_Penalty_Charging>
1.57223e-10

> <r_epik_Ionization_Penalty_Neutral>
1.17174e-07

> <r_epik_State_Penalty>
-0

> <r_epik_Charging_Adjusted_Penalty>
1.57223e-10

> <i_epik_Tot_Q>
0

> <i_epik_Tot_abs_Q>
0

> <r_epik_Metal_State_Penalty>
-0

> <b_epik_Metal_Only>
0

> <s_lp_Force_Field>
OPLS_2005

> <r_lp_Energy>
30.066

> <b_lp_Chiralities_Consistent>
1

> <s_lp_Variant>
AV-unprocessed.smi:443-1

> <Gold.Version>
5.8.1

> <Gold.Id.Protein>
6NUR|6NUR_protein|mol2

> <Gold.PLP.Fitness>
49.6959

> <Gold.PLP.PLP>
-42.2510

> <Gold.PLP.part.hbond>
-4.0000

> <Gold.PLP.part.metal>
0.0000

> <Gold.PLP.part.buried>
-3.1229

> <Gold.PLP.part.nonpolar>
-35.1322

> <Gold.PLP.part.repulsive>
0.1770

> <Gold.PLP.ligand.clash>
0.0000

> <Gold.PLP.ligand.torsion>
0.8816

> <Gold.PLP.Chemscore.Hbond>
3.0251

> <Gold.PLP.Chemscore.CHOScore>
0.0000

> <Gold.PLP.Chemscore.Metal>
0.0000

> <Gold.Chemscore.Hbonds>
donor molecule, donor type, donor heavy atom, donor atom, acceptor molecule, acceptor atom, score
      P1  H  6896  6909       L1    23  0.93
      P1  H  7989  7998       L1     7  0.03
      P1  H  7997  8010       L1     7  1.00
      P1  H 10752 10765       L1    20  1.00

> <Gold.PLP.Chemscore.Internal.Correction>
0.1327

> <Gold.Rescore>
     Score         DG    S(hbond)    S(metal)    S(lipo)     H(rot)  DE(clash)    DE(int)     intcor
     20.86     -21.75       2.54        0.00     119.34       2.41       0.09       0.81       ----

> <Gold.Chemscore.Fitness>
20.8550

> <Gold.Chemscore.DG>
-21.7533

> <Gold.Chemscore.ZeroCoef>
-5.4800

> <Gold.Chemscore.Hbond>
2.5378

> <Gold.Chemscore.Metal>
0.0000

> <Gold.Chemscore.Lipo>
119.3364

> <Gold.Chemscore.Internal_Hbond>
0.0000

> <Gold.Chemscore.DEClash>
0.0907

> <Gold.Chemscore.DEInternal>
0.8076

> <Gold.Chemscore.Rot>
2.4084

> <Gold.Chemscore.Internal.Correction>
   9.000000E+99

> <Gold.Chemscore.Hbonds>
donor molecule, donor type, donor heavy atom, donor atom, acceptor molecule, acceptor atom, score
      P1  H  6896  6909       L1    23  0.40
      P1  H  7997  8010       L1     7  0.35
      P1  H 10752 10765       L1    20  0.84

> <Gold.Chemscore.Hbond.Weighted>
-8.4764

> <Gold.Chemscore.Metal.Weighted>
-0.0000

> <Gold.Chemscore.Lipo.Weighted>
-13.9624

> <Gold.Chemscore.Internal_Hbond.Weighted>
0.0000

> <Gold.Chemscore.DEClash.Weighted>
0.0907

> <Gold.Chemscore.DEInternal.Weighted>
0.8076

> <Gold.Chemscore.Rot.Weighted>
6.1655

> <Gold.Chemscore.Internal.Correction.Weighted>
   9.000000E+99

> <Gold.Protein.RotatedTorsions>
[ 6907 6896 6895 6894 ] final  -18.31 input  -60.11 | X-H torsion
[ 7974 7965 7964 7962 ] final  -34.48 input  175.53 | X-H torsion
[ 8008 7997 7996 7995 ] final  107.70 input   59.86 | X-H torsion
[ 10167 10162 10161 10158 ] final   87.92 input  -65.29 | X-H torsion
[ 10718 10713 10712 10709 ] final   73.22 input   66.30 | X-H torsion
[ 10763 10752 10751 10750 ] final -157.76 input  -60.55 | X-H torsion
[ 11005 11000 10999 10996 ] final  126.35 input  -57.11 | X-H torsion

> <Gold.Protein.ActiveResidues>
 VAL166  LYS551  ARG553  GLY616  TRP617  ASP618  TYR619  PRO620  LYS621  CYS622 
 ASP623  PHE694  ASN695  SER759  ASP760  ASP761  ALA762  ILE779  LEU786  VAL792 
 PHE793  MET794  SER795  GLU796  ALA797  LYS798  CYS799  TRP800  GLU811  SER814 

> <Gold.Protein.RotatedAtoms>
  151.2801  135.0711  159.9165 H   0  0  0  0  0  0  0  0  0  0  0  0  # atno 6907 bound_to 6896
  152.5335  134.0040  159.7918 H   0  0  0  0  0  0  0  0  0  0  0  0  # atno 6908 bound_to 6896
  151.0293  133.5755  159.2693 H   0  0  0  0  0  0  0  0  0  0  0  0  # atno 6909 bound_to 6896
  146.0826  140.6043  142.8901 H   0  0  0  0  0  0  0  0  0  0  0  0  # atno 7974 bound_to 7965
  156.1845  140.3090  155.9212 H   0  0  0  0  0  0  0  0  0  0  0  0  # atno 8008 bound_to 7997
  155.3311  140.0461  157.3059 H   0  0  0  0  0  0  0  0  0  0  0  0  # atno 8009 bound_to 7997
  154.5380  140.2252  155.8699 H   0  0  0  0  0  0  0  0  0  0  0  0  # atno 8010 bound_to 7997
  139.8725  144.6485  150.8933 H   0  0  0  0  0  0  0  0  0  0  0  0  # atno 10167 bound_to 10162
  157.6538  130.9618  150.1039 H   0  0  0  0  0  0  0  0  0  0  0  0  # atno 10718 bound_to 10713
  154.7611  135.3118  154.8377 H   0  0  0  0  0  0  0  0  0  0  0  0  # atno 10763 bound_to 10752
  153.9137  135.6803  153.4754 H   0  0  0  0  0  0  0  0  0  0  0  0  # atno 10764 bound_to 10752
  153.1212  135.4822  154.9129 H   0  0  0  0  0  0  0  0  0  0  0  0  # atno 10765 bound_to 10752
  139.9452  134.9630  156.8694 H   0  0  0  0  0  0  0  0  0  0  0  0  # atno 11005 bound_to 11000
  144.7303  140.4652  143.6942 LP  0  0  0  0  0  0  0  0  0  0  0  0  # atno 17320 bound_to 7965
  145.6190  139.1522  143.3033 LP  0  0  0  0  0  0  0  0  0  0  0  0  # atno 17321 bound_to 7965
  140.7758  143.3652  151.1753 LP  0  0  0  0  0  0  0  0  0  0  0  0  # atno 17342 bound_to 10162
  139.7270  143.9132  152.3006 LP  0  0  0  0  0  0  0  0  0  0  0  0  # atno 17343 bound_to 10162
  156.1954  130.3657  149.8856 LP  0  0  0  0  0  0  0  0  0  0  0  0  # atno 17370 bound_to 10713
  156.6774  130.8844  151.3571 LP  0  0  0  0  0  0  0  0  0  0  0  0  # atno 17371 bound_to 10713
  140.5853  134.0314  155.7479 LP  0  0  0  0  0  0  0  0  0  0  0  0  # atno 17394 bound_to 11000
  141.1100  133.9632  157.2928 LP  0  0  0  0  0  0  0  0  0  0  0  0  # atno 17395 bound_to 11000

$$$$
