AV-unprocessed.smi:516|AV-procd|sdf|2785|dock10
  -GOLD-   2262023263D 1   1.00000     0.00000
 Structure written by MMmdl.
 45 47  0  0  0  0  0  0  0  0  2 V2000
  152.8062  142.6938  161.1853 C   0  0  0  0  0  0  0  0  0  0  0  0
  152.7077  143.5279  160.0451 O   0  0  0  0  0  0  0  0  0  0  0  0
  152.7179  142.7967  158.8302 C   0  0  0  0  0  0  0  0  0  0  0  0
  151.3858  142.0518  158.6594 C   0  0  0  0  0  0  0  0  0  0  0  0
  151.4035  141.1523  157.5102 N   0  0  0  0  0  0  0  0  0  0  0  0
  150.9727  141.4108  156.2465 C   0  0  0  0  0  0  0  0  0  0  0  0
  150.3845  142.7260  155.8192 C   0  0  0  0  0  0  0  0  0  0  0  0
  148.9939  142.4041  155.4094 N   0  3  0  0  0  0  0  0  0  0  0  0
  148.9443  141.6584  154.1299 C   0  0  0  0  0  0  0  0  0  0  0  0
  147.4866  141.4020  153.7113 C   0  0  0  0  0  0  0  0  0  0  0  0
  146.8107  140.6980  154.7453 O   0  0  0  0  0  0  0  0  0  0  0  0
  146.7718  141.4416  155.9567 C   0  0  0  0  0  0  0  0  0  0  0  0
  148.2049  141.6991  156.4517 C   0  0  0  0  0  0  0  0  0  0  0  0
  151.1076  140.3833  155.4006 N   0  0  0  0  0  0  0  0  0  0  0  0
  151.6655  139.3915  156.1925 C   0  0  0  0  0  0  0  0  0  0  0  0
  151.8527  139.8321  157.4610 C   0  0  0  0  0  0  0  0  0  0  0  0
  152.4232  138.9794  158.5129 C   0  0  0  0  0  0  0  0  0  0  0  0
  152.5962  139.3525  159.6709 O   0  0  0  0  0  0  0  0  0  0  0  0
  152.7402  137.7370  158.0742 N   0  0  0  0  0  0  0  0  0  0  0  0
  152.5790  137.2322  156.8126 C   0  0  0  0  0  0  0  0  0  0  0  0
  152.9201  136.0750  156.5711 O   0  0  0  0  0  0  0  0  0  0  0  0
  152.0339  138.0588  155.8611 N   0  0  0  0  0  0  0  0  0  0  0  0
  151.8068  137.6130  154.4849 C   0  0  0  0  0  0  0  0  0  0  0  0
  153.1400  137.1102  158.7573 H   0  0  0  0  0  0  0  0  0  0  0  0
  152.7874  143.3041  162.0881 H   0  0  0  0  0  0  0  0  0  0  0  0
  153.7389  142.1282  161.1806 H   0  0  0  0  0  0  0  0  0  0  0  0
  151.9714  141.9934  161.2349 H   0  0  0  0  0  0  0  0  0  0  0  0
  152.8766  143.4763  157.9916 H   0  0  0  0  0  0  0  0  0  0  0  0
  153.5422  142.0822  158.8307 H   0  0  0  0  0  0  0  0  0  0  0  0
  151.1532  141.4833  159.5592 H   0  0  0  0  0  0  0  0  0  0  0  0
  150.5666  142.7607  158.5539 H   0  0  0  0  0  0  0  0  0  0  0  0
  150.3902  143.3984  156.6779 H   0  0  0  0  0  0  0  0  0  0  0  0
  150.9462  143.2072  155.0194 H   0  0  0  0  0  0  0  0  0  0  0  0
  149.4543  142.2262  153.3508 H   0  0  0  0  0  0  0  0  0  0  0  0
  149.4752  140.7110  154.2375 H   0  0  0  0  0  0  0  0  0  0  0  0
  146.9718  142.3394  153.4952 H   0  0  0  0  0  0  0  0  0  0  0  0
  147.4569  140.8053  152.7996 H   0  0  0  0  0  0  0  0  0  0  0  0
  146.2373  142.3809  155.8058 H   0  0  0  0  0  0  0  0  0  0  0  0
  146.2137  140.8737  156.7013 H   0  0  0  0  0  0  0  0  0  0  0  0
  148.6888  140.7534  156.7002 H   0  0  0  0  0  0  0  0  0  0  0  0
  148.1655  142.2886  157.3676 H   0  0  0  0  0  0  0  0  0  0  0  0
  152.0835  136.5743  154.3020 H   0  0  0  0  0  0  0  0  0  0  0  0
  152.3810  138.2311  153.7941 H   0  0  0  0  0  0  0  0  0  0  0  0
  150.7516  137.7167  154.2301 H   0  0  0  0  0  0  0  0  0  0  0  0
  148.5366  143.2892  155.2400 H   0  0  0  0  0  0  0  0  0  0  0  0
  1  2  1  0  0  0  0
  1 25  1  0  0  0  0
  1 26  1  0  0  0  0
  1 27  1  0  0  0  0
  2  3  1  0  0  0  0
  3  4  1  0  0  0  0
  3 28  1  0  0  0  0
  3 29  1  0  0  0  0
  4  5  1  0  0  0  0
  4 30  1  0  0  0  0
  4 31  1  0  0  0  0
  5 16  1  0  0  0  0
  5  6  1  0  0  0  0
  6  7  1  0  0  0  0
  6 14  2  0  0  0  0
  7  8  1  0  0  0  0
  7 32  1  0  0  0  0
  7 33  1  0  0  0  0
  8 13  1  0  0  0  0
  8  9  1  0  0  0  0
  8 45  1  0  0  0  0
  9 10  1  0  0  0  0
  9 34  1  0  0  0  0
  9 35  1  0  0  0  0
 10 11  1  0  0  0  0
 10 36  1  0  0  0  0
 10 37  1  0  0  0  0
 11 12  1  0  0  0  0
 12 13  1  0  0  0  0
 12 38  1  0  0  0  0
 12 39  1  0  0  0  0
 13 40  1  0  0  0  0
 13 41  1  0  0  0  0
 14 15  1  0  0  0  0
 15 22  1  0  0  0  0
 15 16  2  0  0  0  0
 16 17  1  0  0  0  0
 17 18  2  0  0  0  0
 17 19  1  0  0  0  0
 19 24  1  0  0  0  0
 19 20  1  0  0  0  0
 20 21  2  0  0  0  0
 20 22  1  0  0  0  0
 22 23  1  0  0  0  0
 23 42  1  0  0  0  0
 23 43  1  0  0  0  0
 23 44  1  0  0  0  0
M  CHG  1   8   1
M  END
> <s_m_source_file>
AV-unprocessed.smi

> <i_m_source_file_index>
516

> <i_lp_mmshare_version>
43012

> <i_f3d_flags>
0

> <s_epik_input>
W0NIM11uMWMoPU8pW25IXWMoPU8pYyhjMTIpbihbQ0gyXVtDSDJdT1tDSDNdKWMobjIpW0NIMl1OM1tDSDJdW0NIMl1PW0NIMl1bQ0gyXTM=

> <s_epik_cmdline>
J2VwaWtfcHl0aG9uJywgJy1waCcsICc3LjAnLCAnLXRuJywgJzgnLCAnLW1hJywgJzIwMCcsICctbWV0YWxfYmluZGluZycsICctaW1hZScsICc8aW5maWxlLm1hZT4nLCAnLW9tYWUnLCAnPG91dGZpbGUubWFlPic=

> <r_epik_Ionization_Penalty>
1.12077

> <r_epik_Ionization_Penalty_Charging>
1.12077

> <r_epik_Ionization_Penalty_Neutral>
4.43299e-09

> <r_epik_State_Penalty>
1.17893

> <r_epik_Charging_Adjusted_Penalty>
2.29969

> <i_epik_Tot_Q>
1

> <i_epik_Tot_abs_Q>
1

> <r_epik_Metal_State_Penalty>
1.32838

> <b_epik_Metal_Only>
0

> <s_lp_Force_Field>
OPLS_2005

> <r_lp_Energy>
36.1073

> <b_lp_Chiralities_Consistent>
1

> <s_lp_Variant>
AV-unprocessed.smi:516-2

> <Gold.Version>
5.8.1

> <Gold.Id.Protein>
6NUR|6NUR_protein|mol2

> <Gold.PLP.Fitness>
41.6286

> <Gold.PLP.PLP>
-33.2315

> <Gold.PLP.part.hbond>
-2.0368

> <Gold.PLP.part.metal>
0.0000

> <Gold.PLP.part.buried>
-0.1072

> <Gold.PLP.part.nonpolar>
-31.8127

> <Gold.PLP.part.repulsive>
0.3687

> <Gold.PLP.ligand.clash>
0.0000

> <Gold.PLP.ligand.torsion>
0.4574

> <Gold.PLP.Chemscore.Hbond>
3.0928

> <Gold.PLP.Chemscore.CHOScore>
0.0000

> <Gold.PLP.Chemscore.Metal>
0.0000

> <Gold.Chemscore.Hbonds>
donor molecule, donor type, donor heavy atom, donor atom, acceptor molecule, acceptor atom, score
      L1  H     8    45       P1  8028  1.29
      P1  H  7989  7998       L1    14  0.99
      P1  H 10752 10765       L1    21  0.91

> <Gold.PLP.Chemscore.Internal.Correction>
0.0336

> <Gold.Rescore>
     Score         DG    S(hbond)    S(metal)    S(lipo)     H(rot)  DE(clash)    DE(int)     intcor
     12.63     -16.01       2.17        0.00      74.21       2.11       1.59       1.79       ----

> <Gold.Chemscore.Fitness>
12.6309

> <Gold.Chemscore.DG>
-16.0085

> <Gold.Chemscore.ZeroCoef>
-5.4800

> <Gold.Chemscore.Hbond>
2.1677

> <Gold.Chemscore.Metal>
0.0000

> <Gold.Chemscore.Lipo>
74.2058

> <Gold.Chemscore.Internal_Hbond>
0.0000

> <Gold.Chemscore.DEClash>
1.5922

> <Gold.Chemscore.DEInternal>
1.7854

> <Gold.Chemscore.Rot>
2.1069

> <Gold.Chemscore.Internal.Correction>
   9.000000E+99

> <Gold.Chemscore.Hbonds>
donor molecule, donor type, donor heavy atom, donor atom, acceptor molecule, acceptor atom, score
      L1  H     8    45       P1  8028  0.61
      P1  H  7989  7998       L1    14  0.79
      P1  H 10752 10765       L1    21  0.89

> <Gold.Chemscore.Hbond.Weighted>
-7.2400

> <Gold.Chemscore.Metal.Weighted>
-0.0000

> <Gold.Chemscore.Lipo.Weighted>
-8.6821

> <Gold.Chemscore.Internal_Hbond.Weighted>
0.0000

> <Gold.Chemscore.DEClash.Weighted>
1.5922

> <Gold.Chemscore.DEInternal.Weighted>
1.7854

> <Gold.Chemscore.Rot.Weighted>
5.3936

> <Gold.Chemscore.Internal.Correction.Weighted>
   9.000000E+99

> <Gold.Protein.RotatedTorsions>
[ 6907 6896 6895 6894 ] final  -52.64 input  -60.11 | X-H torsion
[ 7974 7965 7964 7962 ] final  107.33 input  175.53 | X-H torsion
[ 8008 7997 7996 7995 ] final  -64.25 input   59.86 | X-H torsion
[ 10167 10162 10161 10158 ] final  -94.19 input  -65.29 | X-H torsion
[ 10718 10713 10712 10709 ] final -113.50 input   66.30 | X-H torsion
[ 10763 10752 10751 10750 ] final -106.19 input  -60.55 | X-H torsion
[ 11005 11000 10999 10996 ] final   73.14 input  -57.11 | X-H torsion

> <Gold.Protein.ActiveResidues>
 VAL166  LYS551  ARG553  GLY616  TRP617  ASP618  TYR619  PRO620  LYS621  CYS622 
 ASP623  PHE694  ASN695  SER759  ASP760  ASP761  ALA762  ILE779  LEU786  VAL792 
 PHE793  MET794  SER795  GLU796  ALA797  LYS798  CYS799  TRP800  GLU811  SER814 

> <Gold.Protein.RotatedAtoms>
  150.8499  134.7821  159.7000 H   0  0  0  0  0  0  0  0  0  0  0  0  # atno 6907 bound_to 6896
  152.4567  134.5273  159.9810 H   0  0  0  0  0  0  0  0  0  0  0  0  # atno 6908 bound_to 6896
  151.5396  133.3397  159.2968 H   0  0  0  0  0  0  0  0  0  0  0  0  # atno 6909 bound_to 6896
  145.2950  139.2588  143.3844 H   0  0  0  0  0  0  0  0  0  0  0  0  # atno 7974 bound_to 7965
  154.4601  140.0957  156.6868 H   0  0  0  0  0  0  0  0  0  0  0  0  # atno 8008 bound_to 7997
  155.5020  140.3474  155.4354 H   0  0  0  0  0  0  0  0  0  0  0  0  # atno 8009 bound_to 7997
  156.0853  140.1383  156.9649 H   0  0  0  0  0  0  0  0  0  0  0  0  # atno 8010 bound_to 7997
  140.3170  143.3071  152.0087 H   0  0  0  0  0  0  0  0  0  0  0  0  # atno 10167 bound_to 10162
  156.0770  130.5976  150.8650 H   0  0  0  0  0  0  0  0  0  0  0  0  # atno 10718 bound_to 10713
  154.7996  135.4721  154.0243 H   0  0  0  0  0  0  0  0  0  0  0  0  # atno 10763 bound_to 10752
  153.1759  135.6833  153.8550 H   0  0  0  0  0  0  0  0  0  0  0  0  # atno 10764 bound_to 10752
  153.8117  135.3216  155.3379 H   0  0  0  0  0  0  0  0  0  0  0  0  # atno 10765 bound_to 10752
  139.9455  134.7321  156.0991 H   0  0  0  0  0  0  0  0  0  0  0  0  # atno 11005 bound_to 11000
  146.3172  140.3450  142.8651 LP  0  0  0  0  0  0  0  0  0  0  0  0  # atno 17320 bound_to 7965
  144.9141  140.7792  143.5789 LP  0  0  0  0  0  0  0  0  0  0  0  0  # atno 17321 bound_to 7965
  139.4882  144.6341  151.7012 LP  0  0  0  0  0  0  0  0  0  0  0  0  # atno 17342 bound_to 10162
  140.5518  144.0413  150.6130 LP  0  0  0  0  0  0  0  0  0  0  0  0  # atno 17343 bound_to 10162
  157.5871  131.0945  150.9179 LP  0  0  0  0  0  0  0  0  0  0  0  0  # atno 17370 bound_to 10713
  156.9363  130.5368  149.5279 LP  0  0  0  0  0  0  0  0  0  0  0  0  # atno 17371 bound_to 10713
  141.1104  133.6645  156.2964 LP  0  0  0  0  0  0  0  0  0  0  0  0  # atno 17394 bound_to 11000
  140.5846  134.5712  157.5487 LP  0  0  0  0  0  0  0  0  0  0  0  0  # atno 17395 bound_to 11000

$$$$
