AV-unprocessed.smi:1592|AV-procd|sdf|6406|dock5
  -GOLD-   22720 7 43D 1   1.00000     0.00000
 Structure written by MMmdl.
 26 27  0  0  0  0  0  0  0  0  2 V2000
  150.4957  140.8702  156.8353 O   0  0  0  0  0  0  0  0  0  0  0  0
  151.5836  140.3046  156.6908 C   0  0  0  0  0  0  0  0  0  0  0  0
  152.6469  140.1950  157.5838 N   0  0  0  0  0  0  0  0  0  0  0  0
  152.7792  140.9428  158.6455 C   0  0  0  0  0  0  0  0  0  0  0  0
  151.8553  141.9378  159.0099 N   0  0  0  0  0  0  0  0  0  0  0  0
  151.9954  142.7178  160.1382 C   0  0  0  0  0  0  0  0  0  0  0  0
  153.0356  142.5744  160.9607 C   0  0  0  0  0  0  0  0  0  0  0  0
  154.0368  141.5735  160.6543 C   0  0  0  0  0  0  0  0  0  0  0  0
  153.9465  140.7510  159.5252 C   0  0  0  0  0  0  0  0  0  0  0  0
  154.8350  139.8967  159.3008 O   0  5  0  0  0  0  0  0  0  0  0  0
  151.8954  139.6051  155.3564 C   0  0  1  0  0  0  0  0  0  0  0  0
  151.9332  138.0679  155.4753 C   0  0  0  0  0  0  0  0  0  0  0  0
  150.8824  137.5874  154.4896 C   0  0  0  0  0  0  0  0  0  0  0  0
  149.9611  138.7916  154.3672 C   0  0  0  0  0  0  0  0  0  0  0  0
  150.8675  139.8834  154.4035 O   0  0  0  0  0  0  0  0  0  0  0  0
  151.2055  143.4376  160.2933 H   0  0  0  0  0  0  0  0  0  0  0  0
  153.1296  143.1929  161.8411 H   0  0  0  0  0  0  0  0  0  0  0  0
  154.8754  141.4670  161.3272 H   0  0  0  0  0  0  0  0  0  0  0  0
  151.0384  142.1140  158.4439 H   0  0  0  0  0  0  0  0  0  0  0  0
  152.8380  139.9890  154.9637 H   0  0  0  0  0  0  0  0  0  0  0  0
  152.9179  137.6642  155.2384 H   0  0  0  0  0  0  0  0  0  0  0  0
  151.6772  137.7316  156.4815 H   0  0  0  0  0  0  0  0  0  0  0  0
  151.3465  137.3779  153.5253 H   0  0  0  0  0  0  0  0  0  0  0  0
  150.3645  136.6874  154.8214 H   0  0  0  0  0  0  0  0  0  0  0  0
  149.3750  138.7841  153.4481 H   0  0  0  0  0  0  0  0  0  0  0  0
  149.2758  138.8487  155.2145 H   0  0  0  0  0  0  0  0  0  0  0  0
  1  2  2  0  0  0  0
  2  3  1  0  0  0  0
  2 11  1  0  0  0  0
  3  4  2  0  0  0  0
  4  9  1  0  0  0  0
  4  5  1  0  0  0  0
  5 19  1  0  0  0  0
  5  6  1  0  0  0  0
  6 16  1  0  0  0  0
  6  7  2  0  0  0  0
  7 17  1  0  0  0  0
  7  8  1  0  0  0  0
  8  9  2  0  0  0  0
  8 18  1  0  0  0  0
  9 10  1  0  0  0  0
 11 15  1  0  0  0  0
 11 12  1  0  0  0  0
 11 20  1  0  0  0  0
 12 13  1  0  0  0  0
 12 21  1  0  0  0  0
 12 22  1  0  0  0  0
 13 14  1  0  0  0  0
 13 23  1  0  0  0  0
 13 24  1  0  0  0  0
 14 15  1  0  0  0  0
 14 25  1  0  0  0  0
 14 26  1  0  0  0  0
M  CHG  1  10  -1
M  END
> <s_m_source_file>
AV-unprocessed.smi

> <i_m_source_file_index>
1592

> <i_lp_mmshare_version>
43012

> <i_f3d_flags>
0

> <s_epik_input>
TzFbQ0gyXVtDSDJdW0NIMl1bQ0BIXTFDKD1PKVtOSF1jMm5bY0hdW2NIXVtjSF1jMltPSF0=

> <s_epik_cmdline>
J2VwaWtfcHl0aG9uJywgJy1waCcsICc3LjAnLCAnLXRuJywgJzgnLCAnLW1hJywgJzIwMCcsICctbWV0YWxfYmluZGluZycsICctaW1hZScsICc8aW5maWxlLm1hZT4nLCAnLW9tYWUnLCAnPG91dGZpbGUubWFlPic=

> <r_epik_Ionization_Penalty>
0.780127

> <r_epik_Ionization_Penalty_Charging>
0.780127

> <r_epik_Ionization_Penalty_Neutral>
6.55423e-13

> <r_epik_State_Penalty>
1.4426

> <r_epik_Charging_Adjusted_Penalty>
2.22273

> <i_epik_Tot_Q>
-1

> <i_epik_Tot_abs_Q>
1

> <r_epik_Metal_State_Penalty>
1.40439

> <b_epik_Metal_Only>
0

> <s_lp_Force_Field>
OPLS_2005

> <r_lp_Energy>
49.5573

> <b_lp_Chiralities_Consistent>
1

> <s_lp_Variant>
AV-unprocessed.smi:1592-6

> <Gold.Version>
5.8.1

> <Gold.Id.Protein>
6NUR|6NUR_protein|mol2

> <Gold.PLP.Fitness>
39.3666

> <Gold.PLP.PLP>
-30.7670

> <Gold.PLP.part.hbond>
-3.0000

> <Gold.PLP.part.metal>
0.0000

> <Gold.PLP.part.buried>
-2.6336

> <Gold.PLP.part.nonpolar>
-24.8100

> <Gold.PLP.part.repulsive>
0.2435

> <Gold.PLP.ligand.clash>
0.0000

> <Gold.PLP.ligand.torsion>
0.2038

> <Gold.PLP.Chemscore.Hbond>
3.0000

> <Gold.PLP.Chemscore.CHOScore>
0.0000

> <Gold.PLP.Chemscore.Metal>
0.0000

> <Gold.Chemscore.Hbonds>
donor molecule, donor type, donor heavy atom, donor atom, acceptor molecule, acceptor atom, score
      P1  H  7989  7998       L1    15  0.95
      P1  H  7997  8010       L1    10  2.00

> <Gold.PLP.Chemscore.Internal.Correction>
0.0073

> <Gold.Rescore>
     Score         DG    S(hbond)    S(metal)    S(lipo)     H(rot)  DE(clash)    DE(int)     intcor
     15.07     -15.58       1.31        0.00      70.72       1.00       0.17       0.34       ----

> <Gold.Chemscore.Fitness>
15.0677

> <Gold.Chemscore.DG>
-15.5767

> <Gold.Chemscore.ZeroCoef>
-5.4800

> <Gold.Chemscore.Hbond>
1.3120

> <Gold.Chemscore.Metal>
0.0000

> <Gold.Chemscore.Lipo>
70.7243

> <Gold.Chemscore.Internal_Hbond>
0.0000

> <Gold.Chemscore.DEClash>
0.1739

> <Gold.Chemscore.DEInternal>
0.3351

> <Gold.Chemscore.Rot>
1.0000

> <Gold.Chemscore.Internal.Correction>
   9.000000E+99

> <Gold.Chemscore.Hbonds>
donor molecule, donor type, donor heavy atom, donor atom, acceptor molecule, acceptor atom, score
      P1  H  7989  7998       L1    15  0.20
      P1  H  7997  8010       L1    10  0.56

> <Gold.Chemscore.Hbond.Weighted>
-4.3819

> <Gold.Chemscore.Metal.Weighted>
-0.0000

> <Gold.Chemscore.Lipo.Weighted>
-8.2747

> <Gold.Chemscore.Internal_Hbond.Weighted>
0.0000

> <Gold.Chemscore.DEClash.Weighted>
0.1739

> <Gold.Chemscore.DEInternal.Weighted>
0.3351

> <Gold.Chemscore.Rot.Weighted>
2.5600

> <Gold.Chemscore.Internal.Correction.Weighted>
   9.000000E+99

> <Gold.Protein.RotatedTorsions>
[ 6907 6896 6895 6894 ] final   -5.58 input  -60.11 | X-H torsion
[ 7974 7965 7964 7962 ] final  -87.87 input  175.53 | X-H torsion
[ 8008 7997 7996 7995 ] final  -12.79 input   59.86 | X-H torsion
[ 10167 10162 10161 10158 ] final   42.15 input  -65.29 | X-H torsion
[ 10718 10713 10712 10709 ] final  -23.26 input   66.30 | X-H torsion
[ 10763 10752 10751 10750 ] final -131.64 input  -60.55 | X-H torsion
[ 11005 11000 10999 10996 ] final   77.02 input  -57.11 | X-H torsion

> <Gold.Protein.ActiveResidues>
 VAL166  LYS551  ARG553  GLY616  TRP617  ASP618  TYR619  PRO620  LYS621  CYS622 
 ASP623  PHE694  ASN695  SER759  ASP760  ASP761  ALA762  ILE779  LEU786  VAL792 
 PHE793  MET794  SER795  GLU796  ALA797  LYS798  CYS799  TRP800  GLU811  SER814 

> <Gold.Protein.RotatedAtoms>
  151.4792  135.1051  159.9772 H   0  0  0  0  0  0  0  0  0  0  0  0  # atno 6907 bound_to 6896
  152.4786  133.8194  159.7056 H   0  0  0  0  0  0  0  0  0  0  0  0  # atno 6908 bound_to 6896
  150.8841  133.7271  159.2950 H   0  0  0  0  0  0  0  0  0  0  0  0  # atno 6909 bound_to 6896
  145.4607  140.9561  143.1971 H   0  0  0  0  0  0  0  0  0  0  0  0  # atno 7974 bound_to 7965
  154.5347  140.2267  155.8743 H   0  0  0  0  0  0  0  0  0  0  0  0  # atno 8008 bound_to 7997
  156.1799  140.3102  155.9092 H   0  0  0  0  0  0  0  0  0  0  0  0  # atno 8009 bound_to 7997
  155.3379  140.0449  157.3035 H   0  0  0  0  0  0  0  0  0  0  0  0  # atno 8010 bound_to 7997
  140.3573  144.2274  150.6141 H   0  0  0  0  0  0  0  0  0  0  0  0  # atno 10167 bound_to 10162
  156.4935  130.4571  149.6742 H   0  0  0  0  0  0  0  0  0  0  0  0  # atno 10718 bound_to 10713
  154.8749  135.3823  154.4280 H   0  0  0  0  0  0  0  0  0  0  0  0  # atno 10763 bound_to 10752
  153.4977  135.7030  153.5854 H   0  0  0  0  0  0  0  0  0  0  0  0  # atno 10764 bound_to 10752
  153.4200  135.3904  155.2071 H   0  0  0  0  0  0  0  0  0  0  0  0  # atno 10765 bound_to 10752
  139.9273  134.7648  156.1468 H   0  0  0  0  0  0  0  0  0  0  0  0  # atno 11005 bound_to 11000
  144.8004  139.6151  143.7074 LP  0  0  0  0  0  0  0  0  0  0  0  0  # atno 17320 bound_to 7965
  146.2452  139.6084  142.9464 LP  0  0  0  0  0  0  0  0  0  0  0  0  # atno 17321 bound_to 7965
  140.5162  143.2277  151.8460 LP  0  0  0  0  0  0  0  0  0  0  0  0  # atno 17342 bound_to 10162
  139.4818  144.4892  151.9207 LP  0  0  0  0  0  0  0  0  0  0  0  0  # atno 17343 bound_to 10162
  156.3403  130.7378  151.2323 LP  0  0  0  0  0  0  0  0  0  0  0  0  # atno 17370 bound_to 10713
  157.7471  131.0405  150.4602 LP  0  0  0  0  0  0  0  0  0  0  0  0  # atno 17371 bound_to 10713
  141.0839  133.6742  156.2394 LP  0  0  0  0  0  0  0  0  0  0  0  0  # atno 17394 bound_to 11000
  140.6301  134.5273  157.5558 LP  0  0  0  0  0  0  0  0  0  0  0  0  # atno 17395 bound_to 11000

$$$$
