AV-unprocessed.smi:206|AV-procd|sdf|1601|dock3
  -GOLD-   2262019513D 1   1.00000     0.00000
 Structure written by MMmdl.
 47 50  0  0  0  0  0  0  0  0  1 V2000
  154.3276  141.9344  163.0767 O   0  0  0  0  0  0  0  0  0  0  0  0
  154.0264  141.5595  161.9447 C   0  0  0  0  0  0  0  0  0  0  0  0
  152.9338  142.2131  161.1186 C   0  0  0  0  0  0  0  0  0  0  0  0
  153.0057  141.4412  159.8839 N   0  0  0  0  0  0  0  0  0  0  0  0
  152.1406  141.6113  158.8509 C   0  0  0  0  0  0  0  0  0  0  0  0
  151.8209  142.8807  158.4859 N   0  0  0  0  0  0  0  0  0  0  0  0
  150.9755  143.1057  157.4768 C   0  0  0  0  0  0  0  0  0  0  0  0
  150.3426  142.2199  156.7072 N   0  0  0  0  0  0  0  0  0  0  0  0
  150.6562  140.9414  157.0627 C   0  0  0  0  0  0  0  0  0  0  0  0
  151.5408  140.5493  158.1098 C   0  0  0  0  0  0  0  0  0  0  0  0
  151.6161  139.1615  158.1562 N   0  0  0  0  0  0  0  0  0  0  0  0
  150.8292  138.7599  157.1966 C   0  0  0  0  0  0  0  0  0  0  0  0
  150.1966  139.7632  156.4978 N   0  0  0  0  0  0  0  0  0  0  0  0
  149.3009  139.6142  155.3846 C   0  0  0  0  0  0  0  0  0  0  0  0
  149.3754  140.5239  154.1535 C   0  0  0  0  0  0  0  0  0  0  0  0
  147.8328  140.5265  154.0502 C   0  0  0  0  0  0  0  0  0  0  0  0
  147.1925  141.9100  153.8572 C   0  0  0  0  0  0  0  0  0  0  0  0
  148.1028  142.9482  154.1582 O   0  0  0  0  0  0  0  0  0  0  0  0
  147.1940  139.5809  153.0085 C   0  0  0  0  0  0  0  0  0  0  0  0
  148.0047  138.4660  152.6964 O   0  0  0  0  0  0  0  0  0  0  0  0
  147.8339  140.0267  155.5130 C   0  0  0  0  0  0  0  0  0  0  0  0
  154.0172  140.3947  159.9378 C   0  0  0  0  0  0  0  0  0  0  0  0
  154.5891  140.5544  161.2647 N   0  0  0  0  0  0  0  0  0  0  0  0
  155.6801  139.6946  161.7180 C   0  0  0  0  0  0  0  0  0  0  0  0
  155.3078  138.2019  161.6724 C   0  0  0  0  0  0  0  0  0  0  0  0
  156.1602  137.5192  162.4355 F   0  0  0  0  0  0  0  0  0  0  0  0
  154.0735  137.9982  162.1319 F   0  0  0  0  0  0  0  0  0  0  0  0
  155.3925  137.7408  160.4244 F   0  0  0  0  0  0  0  0  0  0  0  0
  151.9649  142.1072  161.6080 H   0  0  0  0  0  0  0  0  0  0  0  0
  153.1509  143.2678  160.9462 H   0  0  0  0  0  0  0  0  0  0  0  0
  150.7759  144.1441  157.2562 H   0  0  0  0  0  0  0  0  0  0  0  0
  150.6942  137.7118  156.9744 H   0  0  0  0  0  0  0  0  0  0  0  0
  149.3737  138.5724  155.0699 H   0  0  0  0  0  0  0  0  0  0  0  0
  149.7818  141.5122  154.3703 H   0  0  0  0  0  0  0  0  0  0  0  0
  149.8861  140.0773  153.2998 H   0  0  0  0  0  0  0  0  0  0  0  0
  146.8329  142.0396  152.8358 H   0  0  0  0  0  0  0  0  0  0  0  0
  146.3244  142.0318  154.5059 H   0  0  0  0  0  0  0  0  0  0  0  0
  148.2034  142.9978  155.0967 H   0  0  0  0  0  0  0  0  0  0  0  0
  146.2363  139.2029  153.3678 H   0  0  0  0  0  0  0  0  0  0  0  0
  146.9911  140.1057  152.0747 H   0  0  0  0  0  0  0  0  0  0  0  0
  148.6329  138.7256  152.0397 H   0  0  0  0  0  0  0  0  0  0  0  0
  147.1540  139.1987  155.7165 H   0  0  0  0  0  0  0  0  0  0  0  0
  147.6935  140.8290  156.2392 H   0  0  0  0  0  0  0  0  0  0  0  0
  153.5711  139.4051  159.8301 H   0  0  0  0  0  0  0  0  0  0  0  0
  154.7778  140.5407  159.1696 H   0  0  0  0  0  0  0  0  0  0  0  0
  156.5552  139.8732  161.0916 H   0  0  0  0  0  0  0  0  0  0  0  0
  155.9696  139.9766  162.7316 H   0  0  0  0  0  0  0  0  0  0  0  0
  1  2  2  0  0  0  0
  2 23  1  0  0  0  0
  2  3  1  0  0  0  0
  3  4  1  0  0  0  0
  3 29  1  0  0  0  0
  3 30  1  0  0  0  0
  4  5  1  0  0  0  0
  4 22  1  0  0  0  0
  5 10  1  0  0  0  0
  5  6  2  0  0  0  0
  6  7  1  0  0  0  0
  7  8  2  0  0  0  0
  7 31  1  0  0  0  0
  8  9  1  0  0  0  0
  9 13  1  0  0  0  0
  9 10  2  0  0  0  0
 10 11  1  0  0  0  0
 11 12  2  0  0  0  0
 12 13  1  0  0  0  0
 12 32  1  0  0  0  0
 13 14  1  0  0  0  0
 14 21  1  0  0  0  0
 14 15  1  0  0  0  0
 14 33  1  0  0  0  0
 15 16  1  0  0  0  0
 15 34  1  0  0  0  0
 15 35  1  0  0  0  0
 16 17  1  0  0  0  0
 16 19  1  0  0  0  0
 16 21  1  0  0  0  0
 17 18  1  0  0  0  0
 17 36  1  0  0  0  0
 17 37  1  0  0  0  0
 18 38  1  0  0  0  0
 19 20  1  0  0  0  0
 19 39  1  0  0  0  0
 19 40  1  0  0  0  0
 20 41  1  0  0  0  0
 21 42  1  0  0  0  0
 21 43  1  0  0  0  0
 22 23  1  0  0  0  0
 22 44  1  0  0  0  0
 22 45  1  0  0  0  0
 23 24  1  0  0  0  0
 24 25  1  0  0  0  0
 24 46  1  0  0  0  0
 24 47  1  0  0  0  0
 25 26  1  0  0  0  0
 25 27  1  0  0  0  0
 25 28  1  0  0  0  0
M  END
> <s_m_source_file>
AV-unprocessed.smi

> <i_m_source_file_index>
206

> <i_lp_mmshare_version>
43012

> <i_f3d_flags>
0

> <s_epik_input>
RkMoRikoRilbQ0gyXU4xW0NIMl1OKFtDSDJdQzE9TyljKG5bY0hdbjIpYyhjMjMpbltjSF1uM1tDSF0oW0NIMl00KVtDSDJdQzQoW0NIMl1bT0hdKVtDSDJdW09IXQ==

> <s_epik_cmdline>
J2VwaWtfcHl0aG9uJywgJy1waCcsICc3LjAnLCAnLXRuJywgJzgnLCAnLW1hJywgJzIwMCcsICctbWV0YWxfYmluZGluZycsICctaW1hZScsICc8aW5maWxlLm1hZT4nLCAnLW9tYWUnLCAnPG91dGZpbGUubWFlPic=

> <r_lp_tautomer_probability>
1

> <r_epik_Ionization_Penalty>
0.000251167

> <r_epik_Ionization_Penalty_Charging>
0

> <r_epik_Ionization_Penalty_Neutral>
0.000251167

> <r_epik_State_Penalty>
-0

> <r_epik_Charging_Adjusted_Penalty>
0

> <i_epik_Tot_Q>
0

> <i_epik_Tot_abs_Q>
0

> <r_epik_Metal_State_Penalty>
-0

> <b_epik_Metal_Only>
0

> <s_epik_Chemistry_Notes>
This compound contains an acetal/aminal-like group ( X-CH(R)-Y where X, Y are N, S, or O) that may be acid/base labile, releasing an aldehyde.

> <s_lp_Force_Field>
OPLS_2005

> <r_lp_Energy>
40.1188

> <b_lp_Chiralities_Consistent>
1

> <s_lp_Variant>
AV-unprocessed.smi:206-1

> <Gold.Version>
5.8.1

> <Gold.Id.Protein>
6NUR|6NUR_protein|mol2

> <Gold.PLP.Fitness>
50.6579

> <Gold.PLP.PLP>
-45.9117

> <Gold.PLP.part.hbond>
-5.7458

> <Gold.PLP.part.metal>
0.0000

> <Gold.PLP.part.buried>
-2.0976

> <Gold.PLP.part.nonpolar>
-36.9939

> <Gold.PLP.part.repulsive>
0.3670

> <Gold.PLP.ligand.clash>
0.4361

> <Gold.PLP.ligand.torsion>
2.2210

> <Gold.PLP.Chemscore.Hbond>
2.2320

> <Gold.PLP.Chemscore.CHOScore>
0.8111

> <Gold.PLP.Chemscore.Metal>
0.0000

> <Gold.Chemscore.Hbonds>
donor molecule, donor type, donor heavy atom, donor atom, acceptor molecule, acceptor atom, score
      L1  H    18    38       P1  8028  0.22
      L1  H    20    41       P1  7957  1.00
      P1  H  8022  8030       L1    18  0.98
      L1  C     7    31       P1  8028  0.80

> <Gold.PLP.Chemscore.Internal.Correction>
0.4953

> <Gold.Rescore>
     Score         DG    S(hbond)    S(metal)    S(lipo)     H(rot)  DE(clash)    DE(int)     intcor
      5.91      -9.23       1.91        0.00      60.59       3.79       0.64       2.69       ----

> <Gold.Chemscore.Fitness>
5.9059

> <Gold.Chemscore.DG>
-9.2291

> <Gold.Chemscore.ZeroCoef>
-5.4800

> <Gold.Chemscore.Hbond>
1.9074

> <Gold.Chemscore.Metal>
0.0000

> <Gold.Chemscore.Lipo>
60.5905

> <Gold.Chemscore.Internal_Hbond>
0.0000

> <Gold.Chemscore.DEClash>
0.6362

> <Gold.Chemscore.DEInternal>
2.6870

> <Gold.Chemscore.Rot>
3.7932

> <Gold.Chemscore.Internal.Correction>
   9.000000E+99

> <Gold.Chemscore.Hbonds>
donor molecule, donor type, donor heavy atom, donor atom, acceptor molecule, acceptor atom, score
      L1  H    18    38       P1  8028  0.22
      L1  H    20    41       P1  7957  0.79
      P1  H  8022  8030       L1    18  0.32

> <Gold.Chemscore.Hbond.Weighted>
-6.3707

> <Gold.Chemscore.Metal.Weighted>
-0.0000

> <Gold.Chemscore.Lipo.Weighted>
-7.0891

> <Gold.Chemscore.Internal_Hbond.Weighted>
0.0000

> <Gold.Chemscore.DEClash.Weighted>
0.6362

> <Gold.Chemscore.DEInternal.Weighted>
2.6870

> <Gold.Chemscore.Rot.Weighted>
9.7107

> <Gold.Chemscore.Internal.Correction.Weighted>
   9.000000E+99

> <Gold.Protein.RotatedTorsions>
[ 6907 6896 6895 6894 ] final   96.93 input  -60.11 | X-H torsion
[ 7974 7965 7964 7962 ] final  -99.22 input  175.53 | X-H torsion
[ 8008 7997 7996 7995 ] final   33.79 input   59.86 | X-H torsion
[ 10167 10162 10161 10158 ] final  -63.19 input  -65.29 | X-H torsion
[ 10718 10713 10712 10709 ] final  -35.78 input   66.30 | X-H torsion
[ 10763 10752 10751 10750 ] final  167.18 input  -60.55 | X-H torsion
[ 11005 11000 10999 10996 ] final   79.04 input  -57.11 | X-H torsion

> <Gold.Protein.ActiveResidues>
 VAL166  LYS551  ARG553  GLY616  TRP617  ASP618  TYR619  PRO620  LYS621  CYS622 
 ASP623  PHE694  ASN695  SER759  ASP760  ASP761  ALA762  ILE779  LEU786  VAL792 
 PHE793  MET794  SER795  GLU796  ALA797  LYS798  CYS799  TRP800  GLU811  SER814 

> <Gold.Protein.RotatedAtoms>
  152.5429  134.0811  159.8235 H   0  0  0  0  0  0  0  0  0  0  0  0  # atno 6907 bound_to 6896
  151.0912  133.5307  159.2622 H   0  0  0  0  0  0  0  0  0  0  0  0  # atno 6908 bound_to 6896
  151.2097  135.0485  159.8960 H   0  0  0  0  0  0  0  0  0  0  0  0  # atno 6909 bound_to 6896
  145.3105  140.9399  143.2772 H   0  0  0  0  0  0  0  0  0  0  0  0  # atno 7974 bound_to 7965
  155.1443  140.3269  155.4445 H   0  0  0  0  0  0  0  0  0  0  0  0  # atno 8008 bound_to 7997
  156.2595  140.1988  156.6507 H   0  0  0  0  0  0  0  0  0  0  0  0  # atno 8009 bound_to 7997
  154.6519  140.0557  156.9952 H   0  0  0  0  0  0  0  0  0  0  0  0  # atno 8010 bound_to 7997
  140.5887  143.2338  151.6186 H   0  0  0  0  0  0  0  0  0  0  0  0  # atno 10167 bound_to 10162
  156.3346  130.4284  149.7842 H   0  0  0  0  0  0  0  0  0  0  0  0  # atno 10718 bound_to 10713
  154.3501  135.2753  155.2377 H   0  0  0  0  0  0  0  0  0  0  0  0  # atno 10763 bound_to 10752
  154.4610  135.5907  153.6259 H   0  0  0  0  0  0  0  0  0  0  0  0  # atno 10764 bound_to 10752
  152.9850  135.6065  154.3710 H   0  0  0  0  0  0  0  0  0  0  0  0  # atno 10765 bound_to 10752
  139.9188  134.7811  156.1727 H   0  0  0  0  0  0  0  0  0  0  0  0  # atno 11005 bound_to 11000
  144.9020  139.4637  143.6628 LP  0  0  0  0  0  0  0  0  0  0  0  0  # atno 17320 bound_to 7965
  146.3120  139.7779  142.9013 LP  0  0  0  0  0  0  0  0  0  0  0  0  # atno 17321 bound_to 7965
  139.5214  144.3194  152.0924 LP  0  0  0  0  0  0  0  0  0  0  0  0  # atno 17342 bound_to 10162
  140.2355  144.4324  150.6282 LP  0  0  0  0  0  0  0  0  0  0  0  0  # atno 17343 bound_to 10162
  156.5101  130.8168  151.3165 LP  0  0  0  0  0  0  0  0  0  0  0  0  # atno 17370 bound_to 10713
  157.7436  130.9916  150.2608 LP  0  0  0  0  0  0  0  0  0  0  0  0  # atno 17371 bound_to 10713
  141.0690  133.6805  156.2103 LP  0  0  0  0  0  0  0  0  0  0  0  0  # atno 17394 bound_to 11000
  140.6537  134.5040  157.5579 LP  0  0  0  0  0  0  0  0  0  0  0  0  # atno 17395 bound_to 11000

$$$$
