AV-unprocessed.smi:2094|AV-procd|sdf|8553|dock7
  -GOLD-   2272011273D 1   1.00000     0.00000
 Structure written by MMmdl.
 35 36  0  0  0  0  0  0  0  0  3 V2000
  150.6008  135.0462  156.2210 O   0  0  0  0  0  0  0  0  0  0  0  0
  150.4596  135.5208  155.0915 C   0  0  0  0  0  0  0  0  0  0  0  0
  149.3789  135.2035  154.3667 N   0  0  0  0  0  0  0  0  0  0  0  0
  148.3144  134.3107  154.8022 C   0  0  0  0  0  0  0  0  0  0  0  0
  147.8977  133.3748  153.6572 C   0  0  0  0  0  0  0  0  0  0  0  0
  147.1919  134.0974  152.5694 N   0  3  0  0  0  0  0  0  0  0  0  0
  146.2410  135.1128  153.0930 C   0  0  0  0  0  0  0  0  0  0  0  0
  145.6286  135.9440  151.9526 C   0  0  0  0  0  0  0  0  0  0  0  0
  144.9445  135.0402  150.9186 C   0  0  0  0  0  0  0  0  0  0  0  0
  145.9323  133.9791  150.4171 C   0  0  0  0  0  0  0  0  0  0  0  0
  146.5363  133.1888  151.5903 C   0  0  0  0  0  0  0  0  0  0  0  0
  151.3062  136.3664  154.4627 N   0  5  0  0  0  0  0  0  0  0  0  0
  151.3821  137.6504  154.8495 C   0  0  0  0  0  0  0  0  0  0  0  0
  150.4118  138.2633  155.5372 N   0  0  0  0  0  0  0  0  0  0  0  0
  150.7011  139.5955  155.8381 C   0  0  0  0  0  0  0  0  0  0  0  0
  151.9242  140.0038  155.3766 C   0  0  0  0  0  0  0  0  0  0  0  0
  152.7540  138.7195  154.5448 S   0  0  0  0  0  0  0  0  0  0  0  0
  149.2981  135.6110  153.4467 H   0  0  0  0  0  0  0  0  0  0  0  0
  148.6603  133.7259  155.6562 H   0  0  0  0  0  0  0  0  0  0  0  0
  147.4740  134.9156  155.1422 H   0  0  0  0  0  0  0  0  0  0  0  0
  148.7617  132.8452  153.2523 H   0  0  0  0  0  0  0  0  0  0  0  0
  147.2355  132.6127  154.0715 H   0  0  0  0  0  0  0  0  0  0  0  0
  145.4542  134.6162  153.6631 H   0  0  0  0  0  0  0  0  0  0  0  0
  146.7578  135.7823  153.7819 H   0  0  0  0  0  0  0  0  0  0  0  0
  144.9101  136.6586  152.3556 H   0  0  0  0  0  0  0  0  0  0  0  0
  146.4096  136.5307  151.4670 H   0  0  0  0  0  0  0  0  0  0  0  0
  144.0774  134.5543  151.3682 H   0  0  0  0  0  0  0  0  0  0  0  0
  144.5724  135.6351  150.0839 H   0  0  0  0  0  0  0  0  0  0  0  0
  145.4300  133.2990  149.7285 H   0  0  0  0  0  0  0  0  0  0  0  0
  146.7306  134.4594  149.8496 H   0  0  0  0  0  0  0  0  0  0  0  0
  147.2549  132.4714  151.1961 H   0  0  0  0  0  0  0  0  0  0  0  0
  145.7584  132.6115  152.0929 H   0  0  0  0  0  0  0  0  0  0  0  0
  149.9776  140.1800  156.3865 H   0  0  0  0  0  0  0  0  0  0  0  0
  152.3856  140.9745  155.4742 H   0  0  0  0  0  0  0  0  0  0  0  0
  147.9011  134.6109  152.0659 H   0  0  0  0  0  0  0  0  0  0  0  0
  1  2  2  0  0  0  0
  2  3  1  0  0  0  0
  2 12  1  0  0  0  0
  3  4  1  0  0  0  0
  3 18  1  0  0  0  0
  4  5  1  0  0  0  0
  4 19  1  0  0  0  0
  4 20  1  0  0  0  0
  5  6  1  0  0  0  0
  5 21  1  0  0  0  0
  5 22  1  0  0  0  0
  6 11  1  0  0  0  0
  6  7  1  0  0  0  0
  6 35  1  0  0  0  0
  7  8  1  0  0  0  0
  7 23  1  0  0  0  0
  7 24  1  0  0  0  0
  8  9  1  0  0  0  0
  8 25  1  0  0  0  0
  8 26  1  0  0  0  0
  9 10  1  0  0  0  0
  9 27  1  0  0  0  0
  9 28  1  0  0  0  0
 10 11  1  0  0  0  0
 10 29  1  0  0  0  0
 10 30  1  0  0  0  0
 11 31  1  0  0  0  0
 11 32  1  0  0  0  0
 12 13  1  0  0  0  0
 13 17  1  0  0  0  0
 13 14  2  0  0  0  0
 14 15  1  0  0  0  0
 15 16  2  0  0  0  0
 15 33  1  0  0  0  0
 16 17  1  0  0  0  0
 16 34  1  0  0  0  0
M  CHG  1   6   1
M  CHG  1  12  -1
M  END
> <s_m_source_file>
AV-unprocessed.smi

> <i_m_source_file_index>
2094

> <i_lp_mmshare_version>
43012

> <i_f3d_flags>
0

> <s_epik_input>
czFbY0hdW2NIXW5jMVtOSF1DKD1PKVtOSF1bQ0gyXVtDSDJdTjJbQ0gyXVtDSDJdW0NIMl1bQ0gyXVtDSDJdMg==

> <s_epik_cmdline>
J2VwaWtfcHl0aG9uJywgJy1waCcsICc3LjAnLCAnLXRuJywgJzgnLCAnLW1hJywgJzIwMCcsICctbWV0YWxfYmluZGluZycsICctaW1hZScsICc8aW5maWxlLm1hZT4nLCAnLW9tYWUnLCAnPG91dGZpbGUubWFlPic=

> <r_lp_tautomer_probability>
0.999

> <r_epik_Ionization_Penalty>
6.21931

> <r_epik_Ionization_Penalty_Charging>
5.38824

> <r_epik_Ionization_Penalty_Neutral>
0.831074

> <r_epik_State_Penalty>
5.38819

> <r_epik_Charging_Adjusted_Penalty>
10.7764

> <i_epik_Tot_Q>
0

> <i_epik_Tot_abs_Q>
2

> <r_epik_Metal_State_Penalty>
1.41404

> <b_epik_Metal_Only>
1

> <s_lp_Force_Field>
OPLS_2005

> <r_lp_Energy>
7.37815

> <b_lp_Chiralities_Consistent>
1

> <s_lp_Variant>
AV-unprocessed.smi:2094-2

> <Gold.Version>
5.8.1

> <Gold.Id.Protein>
6NUR|6NUR_protein|mol2

> <Gold.PLP.Fitness>
40.6669

> <Gold.PLP.PLP>
-27.7155

> <Gold.PLP.part.hbond>
-3.0000

> <Gold.PLP.part.metal>
0.0000

> <Gold.PLP.part.buried>
-1.8073

> <Gold.PLP.part.nonpolar>
-23.2783

> <Gold.PLP.part.repulsive>
0.7135

> <Gold.PLP.ligand.clash>
0.0000

> <Gold.PLP.ligand.torsion>
1.0503

> <Gold.PLP.Chemscore.Hbond>
5.0000

> <Gold.PLP.Chemscore.CHOScore>
0.0000

> <Gold.PLP.Chemscore.Metal>
0.0000

> <Gold.Chemscore.Hbonds>
donor molecule, donor type, donor heavy atom, donor atom, acceptor molecule, acceptor atom, score
      L1  H     3    18       P1  7948  1.00
      L1  H     6    35       P1  7948  2.00
      P1  H 10752 10765       L1    12  2.00

> <Gold.PLP.Chemscore.Internal.Correction>
0.0521

> <Gold.Rescore>
     Score         DG    S(hbond)    S(metal)    S(lipo)     H(rot)  DE(clash)    DE(int)     intcor
     14.79     -15.75       2.53        0.00      50.05       1.58       0.00       0.96       ----

> <Gold.Chemscore.Fitness>
14.7866

> <Gold.Chemscore.DG>
-15.7540

> <Gold.Chemscore.ZeroCoef>
-5.4800

> <Gold.Chemscore.Hbond>
2.5346

> <Gold.Chemscore.Metal>
0.0000

> <Gold.Chemscore.Lipo>
50.0531

> <Gold.Chemscore.Internal_Hbond>
0.0000

> <Gold.Chemscore.DEClash>
0.0048

> <Gold.Chemscore.DEInternal>
0.9626

> <Gold.Chemscore.Rot>
1.5812

> <Gold.Chemscore.Internal.Correction>
   9.000000E+99

> <Gold.Chemscore.Hbonds>
donor molecule, donor type, donor heavy atom, donor atom, acceptor molecule, acceptor atom, score
      L1  H     3    18       P1  7948  0.40
      L1  H     6    35       P1  7948  0.33
      P1  H 10752 10765       L1    12  0.45

> <Gold.Chemscore.Hbond.Weighted>
-8.4656

> <Gold.Chemscore.Metal.Weighted>
-0.0000

> <Gold.Chemscore.Lipo.Weighted>
-5.8562

> <Gold.Chemscore.Internal_Hbond.Weighted>
0.0000

> <Gold.Chemscore.DEClash.Weighted>
0.0048

> <Gold.Chemscore.DEInternal.Weighted>
0.9626

> <Gold.Chemscore.Rot.Weighted>
4.0478

> <Gold.Chemscore.Internal.Correction.Weighted>
   9.000000E+99

> <Gold.Protein.RotatedTorsions>
[ 6907 6896 6895 6894 ] final  -30.95 input  -60.11 | X-H torsion
[ 7974 7965 7964 7962 ] final  -88.73 input  175.53 | X-H torsion
[ 8008 7997 7996 7995 ] final  -67.66 input   59.86 | X-H torsion
[ 10167 10162 10161 10158 ] final  -61.22 input  -65.29 | X-H torsion
[ 10718 10713 10712 10709 ] final   34.01 input   66.30 | X-H torsion
[ 10763 10752 10751 10750 ] final  176.75 input  -60.55 | X-H torsion
[ 11005 11000 10999 10996 ] final  -99.51 input  -57.11 | X-H torsion

> <Gold.Protein.ActiveResidues>
 VAL166  LYS551  ARG553  GLY616  TRP617  ASP618  TYR619  PRO620  LYS621  CYS622 
 ASP623  PHE694  ASN695  SER759  ASP760  ASP761  ALA762  ILE779  LEU786  VAL792 
 PHE793  MET794  SER795  GLU796  ALA797  LYS798  CYS799  TRP800  GLU811  SER814 

> <Gold.Protein.RotatedAtoms>
  151.0986  134.9959  159.8437 H   0  0  0  0  0  0  0  0  0  0  0  0  # atno 6907 bound_to 6896
  152.5435  134.1978  159.8710 H   0  0  0  0  0  0  0  0  0  0  0  0  # atno 6908 bound_to 6896
  151.2019  133.4562  159.2630 H   0  0  0  0  0  0  0  0  0  0  0  0  # atno 6909 bound_to 6896
  145.4492  140.9560  143.2031 H   0  0  0  0  0  0  0  0  0  0  0  0  # atno 7974 bound_to 7965
  154.4815  140.0888  156.7388 H   0  0  0  0  0  0  0  0  0  0  0  0  # atno 8008 bound_to 7997
  155.4458  140.3455  155.4277 H   0  0  0  0  0  0  0  0  0  0  0  0  # atno 8009 bound_to 7997
  156.1198  140.1471  156.9208 H   0  0  0  0  0  0  0  0  0  0  0  0  # atno 8010 bound_to 7997
  140.6020  143.2364  151.5906 H   0  0  0  0  0  0  0  0  0  0  0  0  # atno 10167 bound_to 10162
  157.3050  130.7370  149.6690 H   0  0  0  0  0  0  0  0  0  0  0  0  # atno 10718 bound_to 10713
  154.4853  135.2776  155.1539 H   0  0  0  0  0  0  0  0  0  0  0  0  # atno 10763 bound_to 10752
  154.3233  135.6205  153.5521 H   0  0  0  0  0  0  0  0  0  0  0  0  # atno 10764 bound_to 10752
  152.9880  135.5748  154.5262 H   0  0  0  0  0  0  0  0  0  0  0  0  # atno 10765 bound_to 10752
  141.1306  133.8327  157.0981 H   0  0  0  0  0  0  0  0  0  0  0  0  # atno 11005 bound_to 11000
  144.8072  139.6029  143.7045 LP  0  0  0  0  0  0  0  0  0  0  0  0  # atno 17320 bound_to 7965
  146.2513  139.6207  142.9425 LP  0  0  0  0  0  0  0  0  0  0  0  0  # atno 17321 bound_to 7965
  139.5298  144.2950  152.1121 LP  0  0  0  0  0  0  0  0  0  0  0  0  # atno 17342 bound_to 10162
  140.2133  144.4541  150.6376 LP  0  0  0  0  0  0  0  0  0  0  0  0  # atno 17343 bound_to 10162
  155.9674  130.4268  150.4716 LP  0  0  0  0  0  0  0  0  0  0  0  0  # atno 17370 bound_to 10713
  157.2704  131.0586  151.2263 LP  0  0  0  0  0  0  0  0  0  0  0  0  # atno 17371 bound_to 10713
  140.0350  134.9882  157.0854 LP  0  0  0  0  0  0  0  0  0  0  0  0  # atno 17394 bound_to 11000
  140.4225  134.1866  155.7165 LP  0  0  0  0  0  0  0  0  0  0  0  0  # atno 17395 bound_to 11000

$$$$
