AV-unprocessed.smi:828|AV-procd|sdf|3858|dock2
  -GOLD-   22720 1313D 1   1.00000     0.00000
 Structure written by MMmdl.
 35 36  0  0  0  0  0  0  0  0  2 V2000
  153.3170  143.1032  162.9107 C   0  0  0  0  0  0  0  0  0  0  0  0
  152.8920  142.7531  161.5258 C   0  0  0  0  0  0  0  0  0  0  0  0
  153.2626  141.6181  160.9202 N   0  0  0  0  0  0  0  0  0  0  0  0
  152.7485  141.5151  159.6352 N   0  0  0  0  0  0  0  0  0  0  0  0
  152.0032  142.5798  159.3084 C   0  0  0  0  0  0  0  0  0  0  0  0
  151.3610  142.7368  158.0514 N   0  0  0  0  0  0  0  0  0  0  0  0
  150.9305  141.7787  157.2121 C   0  0  0  0  0  0  0  0  0  0  0  0
  151.0042  140.5663  157.4145 O   0  0  0  0  0  0  0  0  0  0  0  0
  150.3992  142.3060  156.0996 N   0  0  0  0  0  0  0  0  0  0  0  0
  149.8433  141.5286  154.9966 C   0  0  0  0  0  0  0  0  0  0  0  0
  148.3799  141.1096  155.2498 C   0  0  2  0  0  0  0  0  0  0  0  0
  147.6089  140.7493  153.9633 C   0  0  0  0  0  0  0  0  0  0  0  0
  146.6231  141.8948  153.7573 C   0  0  0  0  0  0  0  0  0  0  0  0
  146.3401  142.3607  155.1796 C   0  0  0  0  0  0  0  0  0  0  0  0
  147.6285  142.2206  155.8849 N   0  3  1  0  0  0  0  0  0  0  0  0
  147.5032  142.1179  157.3546 C   0  0  0  0  0  0  0  0  0  0  0  0
  151.8694  143.8069  160.5564 S   0  0  0  0  0  0  0  0  0  0  0  0
  153.4889  142.1999  163.4968 H   0  0  0  0  0  0  0  0  0  0  0  0
  152.5454  143.6952  163.4032 H   0  0  0  0  0  0  0  0  0  0  0  0
  154.2394  143.6832  162.8811 H   0  0  0  0  0  0  0  0  0  0  0  0
  151.2201  143.6912  157.7553 H   0  0  0  0  0  0  0  0  0  0  0  0
  150.3734  143.3115  156.0115 H   0  0  0  0  0  0  0  0  0  0  0  0
  149.9193  142.1066  154.0741 H   0  0  0  0  0  0  0  0  0  0  0  0
  150.4661  140.6443  154.8566 H   0  0  0  0  0  0  0  0  0  0  0  0
  148.3609  140.2413  155.9107 H   0  0  0  0  0  0  0  0  0  0  0  0
  148.2498  140.6008  153.0937 H   0  0  0  0  0  0  0  0  0  0  0  0
  147.0576  139.8212  154.1199 H   0  0  0  0  0  0  0  0  0  0  0  0
  147.0990  142.6967  153.1913 H   0  0  0  0  0  0  0  0  0  0  0  0
  145.7228  141.5911  153.2223 H   0  0  0  0  0  0  0  0  0  0  0  0
  145.9673  143.3844  155.2214 H   0  0  0  0  0  0  0  0  0  0  0  0
  145.5939  141.7085  155.6364 H   0  0  0  0  0  0  0  0  0  0  0  0
  146.9430  141.2268  157.6414 H   0  0  0  0  0  0  0  0  0  0  0  0
  146.9871  142.9910  157.7548 H   0  0  0  0  0  0  0  0  0  0  0  0
  148.4886  142.0666  157.8185 H   0  0  0  0  0  0  0  0  0  0  0  0
  148.1510  143.0614  155.6840 H   0  0  0  0  0  0  0  0  0  0  0  0
  1  2  1  0  0  0  0
  1 18  1  0  0  0  0
  1 19  1  0  0  0  0
  1 20  1  0  0  0  0
  2 17  1  0  0  0  0
  2  3  2  0  0  0  0
  3  4  1  0  0  0  0
  4  5  2  0  0  0  0
  5  6  1  0  0  0  0
  5 17  1  0  0  0  0
  6  7  1  0  0  0  0
  6 21  1  0  0  0  0
  7  8  2  0  0  0  0
  7  9  1  0  0  0  0
  9 10  1  0  0  0  0
  9 22  1  0  0  0  0
 10 11  1  0  0  0  0
 10 23  1  0  0  0  0
 10 24  1  0  0  0  0
 11 15  1  0  0  0  0
 11 12  1  0  0  0  0
 11 25  1  0  0  0  0
 12 13  1  0  0  0  0
 12 26  1  0  0  0  0
 12 27  1  0  0  0  0
 13 14  1  0  0  0  0
 13 28  1  0  0  0  0
 13 29  1  0  0  0  0
 14 15  1  0  0  0  0
 14 30  1  0  0  0  0
 14 31  1  0  0  0  0
 15 16  1  0  0  0  0
 15 35  1  0  0  0  0
 16 32  1  0  0  0  0
 16 33  1  0  0  0  0
 16 34  1  0  0  0  0
M  CHG  1  15   1
M  END
> <s_m_source_file>
AV-unprocessed.smi

> <i_m_source_file_index>
828

> <i_lp_mmshare_version>
43012

> <i_f3d_flags>
0

> <s_epik_input>
W0NIM11jMW5uYyhzMSlbTkhdQyg9TylbTkhdW0NIMl1bQ0BASF0yW0NIMl1bQ0gyXVtDSDJdTjJbQ0gzXQ==

> <s_epik_cmdline>
J2VwaWtfcHl0aG9uJywgJy1waCcsICc3LjAnLCAnLXRuJywgJzgnLCAnLW1hJywgJzIwMCcsICctbWV0YWxfYmluZGluZycsICctaW1hZScsICc8aW5maWxlLm1hZT4nLCAnLW9tYWUnLCAnPG91dGZpbGUubWFlPic=

> <r_lp_tautomer_probability>
1

> <r_epik_Ionization_Penalty>
0.00466477

> <r_epik_Ionization_Penalty_Charging>
0.00372199

> <r_epik_Ionization_Penalty_Neutral>
0.000942783

> <r_epik_State_Penalty>
-0

> <r_epik_Charging_Adjusted_Penalty>
0.00372199

> <i_epik_Tot_Q>
1

> <i_epik_Tot_abs_Q>
1

> <r_epik_Metal_State_Penalty>
0.28212

> <b_epik_Metal_Only>
0

> <s_lp_Force_Field>
OPLS_2005

> <r_lp_Energy>
24.623

> <b_lp_Chiralities_Consistent>
1

> <s_lp_Variant>
AV-unprocessed.smi:828-1

> <Gold.Version>
5.8.1

> <Gold.Id.Protein>
6NUR|6NUR_protein|mol2

> <Gold.PLP.Fitness>
41.7439

> <Gold.PLP.PLP>
-34.7689

> <Gold.PLP.part.hbond>
-2.0000

> <Gold.PLP.part.metal>
0.0000

> <Gold.PLP.part.buried>
-5.9527

> <Gold.PLP.part.nonpolar>
-26.3755

> <Gold.PLP.part.repulsive>
0.1719

> <Gold.PLP.ligand.clash>
0.0000

> <Gold.PLP.ligand.torsion>
0.5213

> <Gold.PLP.Chemscore.Hbond>
2.6720

> <Gold.PLP.Chemscore.CHOScore>
0.0000

> <Gold.PLP.Chemscore.Metal>
0.0000

> <Gold.Chemscore.Hbonds>
donor molecule, donor type, donor heavy atom, donor atom, acceptor molecule, acceptor atom, score
      L1  H     9    22       P1  8028  0.64
      L1  H    15    35       P1  8028  2.00

> <Gold.PLP.Chemscore.Internal.Correction>
0.0016

> <Gold.Rescore>
     Score         DG    S(hbond)    S(metal)    S(lipo)     H(rot)  DE(clash)    DE(int)     intcor
     14.41     -16.01       1.68        0.00      71.15       1.33       0.29       1.31       ----

> <Gold.Chemscore.Fitness>
14.4055

> <Gold.Chemscore.DG>
-16.0092

> <Gold.Chemscore.ZeroCoef>
-5.4800

> <Gold.Chemscore.Hbond>
1.6789

> <Gold.Chemscore.Metal>
0.0000

> <Gold.Chemscore.Lipo>
71.1543

> <Gold.Chemscore.Internal_Hbond>
0.0000

> <Gold.Chemscore.DEClash>
0.2893

> <Gold.Chemscore.DEInternal>
1.3144

> <Gold.Chemscore.Rot>
1.3294

> <Gold.Chemscore.Internal.Correction>
   9.000000E+99

> <Gold.Chemscore.Hbonds>
donor molecule, donor type, donor heavy atom, donor atom, acceptor molecule, acceptor atom, score
      L1  H     9    22       P1  8028  0.63
      L1  H    15    35       P1  8028  0.85

> <Gold.Chemscore.Hbond.Weighted>
-5.6074

> <Gold.Chemscore.Metal.Weighted>
-0.0000

> <Gold.Chemscore.Lipo.Weighted>
-8.3251

> <Gold.Chemscore.Internal_Hbond.Weighted>
0.0000

> <Gold.Chemscore.DEClash.Weighted>
0.2893

> <Gold.Chemscore.DEInternal.Weighted>
1.3144

> <Gold.Chemscore.Rot.Weighted>
3.4033

> <Gold.Chemscore.Internal.Correction.Weighted>
   9.000000E+99

> <Gold.Protein.RotatedTorsions>
[ 6907 6896 6895 6894 ] final   95.41 input  -60.11 | X-H torsion
[ 7974 7965 7964 7962 ] final  -92.20 input  175.53 | X-H torsion
[ 8008 7997 7996 7995 ] final  -28.63 input   59.86 | X-H torsion
[ 10167 10162 10161 10158 ] final -124.98 input  -65.29 | X-H torsion
[ 10718 10713 10712 10709 ] final -105.22 input   66.30 | X-H torsion
[ 10763 10752 10751 10750 ] final   35.90 input  -60.55 | X-H torsion
[ 11005 11000 10999 10996 ] final -127.96 input  -57.11 | X-H torsion

> <Gold.Protein.ActiveResidues>
 VAL166  LYS551  ARG553  GLY616  TRP617  ASP618  TYR619  PRO620  LYS621  CYS622 
 ASP623  PHE694  ASN695  SER759  ASP760  ASP761  ALA762  ILE779  LEU786  VAL792 
 PHE793  MET794  SER795  GLU796  ALA797  LYS798  CYS799  TRP800  GLU811  SER814 

> <Gold.Protein.RotatedAtoms>
  152.5444  134.1044  159.8331 H   0  0  0  0  0  0  0  0  0  0  0  0  # atno 6907 bound_to 6896
  151.1118  133.5160  159.2613 H   0  0  0  0  0  0  0  0  0  0  0  0  # atno 6908 bound_to 6896
  151.1875  135.0397  159.8873 H   0  0  0  0  0  0  0  0  0  0  0  0  # atno 6909 bound_to 6896
  145.4029  140.9539  143.2277 H   0  0  0  0  0  0  0  0  0  0  0  0  # atno 7974 bound_to 7965
  154.4324  140.1840  156.1120 H   0  0  0  0  0  0  0  0  0  0  0  0  # atno 8008 bound_to 7997
  156.0210  140.3341  155.7014 H   0  0  0  0  0  0  0  0  0  0  0  0  # atno 8009 bound_to 7997
  155.5975  140.0637  157.2732 H   0  0  0  0  0  0  0  0  0  0  0  0  # atno 8010 bound_to 7997
  139.9870  143.5682  152.2357 H   0  0  0  0  0  0  0  0  0  0  0  0  # atno 10167 bound_to 10162
  156.0337  130.5553  150.7509 H   0  0  0  0  0  0  0  0  0  0  0  0  # atno 10718 bound_to 10713
  153.0099  135.6320  154.1900 H   0  0  0  0  0  0  0  0  0  0  0  0  # atno 10763 bound_to 10752
  154.1642  135.2822  155.3101 H   0  0  0  0  0  0  0  0  0  0  0  0  # atno 10764 bound_to 10752
  154.5958  135.5603  153.7385 H   0  0  0  0  0  0  0  0  0  0  0  0  # atno 10765 bound_to 10752
  140.9556  134.1006  157.4020 H   0  0  0  0  0  0  0  0  0  0  0  0  # atno 11005 bound_to 11000
  144.8361  139.5548  143.6921 LP  0  0  0  0  0  0  0  0  0  0  0  0  # atno 17320 bound_to 7965
  146.2743  139.6712  142.9274 LP  0  0  0  0  0  0  0  0  0  0  0  0  # atno 17321 bound_to 7965
  139.6368  144.7651  151.2421 LP  0  0  0  0  0  0  0  0  0  0  0  0  # atno 17342 bound_to 10162
  140.7469  143.6385  150.8357 LP  0  0  0  0  0  0  0  0  0  0  0  0  # atno 17343 bound_to 10162
  157.5053  131.0921  151.0264 LP  0  0  0  0  0  0  0  0  0  0  0  0  # atno 17370 bound_to 10713
  157.0634  130.5835  149.5390 LP  0  0  0  0  0  0  0  0  0  0  0  0  # atno 17371 bound_to 10713
  139.8861  135.0078  156.6477 LP  0  0  0  0  0  0  0  0  0  0  0  0  # atno 17394 bound_to 11000
  140.7541  133.8872  155.8369 LP  0  0  0  0  0  0  0  0  0  0  0  0  # atno 17395 bound_to 11000

$$$$
