AV-unprocessed.smi:1616|AV-procd|sdf|6482|dock1
  -GOLD-   22720 7143D 1   1.00000     0.00000
 Structure written by MMmdl.
 38 39  0  0  0  0  0  0  0  0  1 V2000
  150.7942  145.1687  160.1203 C   0  0  0  0  0  0  0  0  0  0  0  0
  151.3697  143.8842  159.5878 C   0  0  0  0  0  0  0  0  0  0  0  0
  151.0438  143.5589  158.3803 N   0  0  0  0  0  0  0  0  0  0  0  0
  151.5112  142.3971  157.7969 N   0  0  0  0  0  0  0  0  0  0  0  0
  151.0204  142.1763  156.4285 C   0  0  0  0  0  0  0  0  0  0  0  0
  149.6859  141.4176  156.3680 C   0  0  0  0  0  0  0  0  0  0  0  0
  149.5623  140.3075  156.8883 O   0  0  0  0  0  0  0  0  0  0  0  0
  148.6859  142.0471  155.7319 N   0  0  0  0  0  0  0  0  0  0  0  0
  147.3311  141.5323  155.5591 C   0  0  2  0  0  0  0  0  0  0  0  0
  147.2662  140.6572  154.2975 C   0  0  0  0  0  0  0  0  0  0  0  0
  146.2942  142.6383  155.5048 C   0  0  0  0  0  0  0  0  0  0  0  0
  144.8890  142.3668  155.0236 C   0  0  0  0  0  0  0  0  0  0  0  0
  145.8280  143.2049  154.1850 C   0  0  0  0  0  0  0  0  0  0  0  0
  152.3418  141.5021  158.4057 C   0  0  0  0  0  0  0  0  0  0  0  0
  152.7338  140.4764  157.8469 O   0  0  0  0  0  0  0  0  0  0  0  0
  152.7102  141.8791  159.7723 C   0  0  0  0  0  0  0  0  0  0  0  0
  153.5779  140.9690  160.4476 C   0  0  0  0  0  0  0  0  0  0  0  0
  154.2913  140.2476  161.0054 N   0  0  0  0  0  0  0  0  0  0  0  0
  152.2552  143.0158  160.3568 C   0  0  0  0  0  0  0  0  0  0  0  0
  152.6049  143.4513  161.7734 C   0  0  0  0  0  0  0  0  0  0  0  0
  151.5872  145.8762  160.3639 H   0  0  0  0  0  0  0  0  0  0  0  0
  150.2127  144.9865  161.0243 H   0  0  0  0  0  0  0  0  0  0  0  0
  150.1342  145.6500  159.3966 H   0  0  0  0  0  0  0  0  0  0  0  0
  150.8879  143.1330  155.9197 H   0  0  0  0  0  0  0  0  0  0  0  0
  151.7677  141.6371  155.8432 H   0  0  0  0  0  0  0  0  0  0  0  0
  148.8771  142.9568  155.3376 H   0  0  0  0  0  0  0  0  0  0  0  0
  147.0846  140.9029  156.4164 H   0  0  0  0  0  0  0  0  0  0  0  0
  146.2699  140.2338  154.1654 H   0  0  0  0  0  0  0  0  0  0  0  0
  147.9691  139.8254  154.3546 H   0  0  0  0  0  0  0  0  0  0  0  0
  147.5039  141.2330  153.4023 H   0  0  0  0  0  0  0  0  0  0  0  0
  146.3849  143.3585  156.3161 H   0  0  0  0  0  0  0  0  0  0  0  0
  144.6588  141.3640  154.6691 H   0  0  0  0  0  0  0  0  0  0  0  0
  144.0758  142.8793  155.5332 H   0  0  0  0  0  0  0  0  0  0  0  0
  145.6401  144.2755  154.1366 H   0  0  0  0  0  0  0  0  0  0  0  0
  146.2198  142.7580  153.2735 H   0  0  0  0  0  0  0  0  0  0  0  0
  153.3017  142.7666  162.2558 H   0  0  0  0  0  0  0  0  0  0  0  0
  151.7075  143.4955  162.3912 H   0  0  0  0  0  0  0  0  0  0  0  0
  153.0690  144.4381  161.7689 H   0  0  0  0  0  0  0  0  0  0  0  0
  1  2  1  0  0  0  0
  1 21  1  0  0  0  0
  1 22  1  0  0  0  0
  1 23  1  0  0  0  0
  2 19  1  0  0  0  0
  2  3  2  0  0  0  0
  3  4  1  0  0  0  0
  4  5  1  0  0  0  0
  4 14  1  0  0  0  0
  5  6  1  0  0  0  0
  5 24  1  0  0  0  0
  5 25  1  0  0  0  0
  6  7  2  0  0  0  0
  6  8  1  0  0  0  0
  8  9  1  0  0  0  0
  8 26  1  0  0  0  0
  9 10  1  0  0  0  0
  9 11  1  0  0  0  0
  9 27  1  0  0  0  0
 10 28  1  0  0  0  0
 10 29  1  0  0  0  0
 10 30  1  0  0  0  0
 11 13  1  0  0  0  0
 11 12  1  0  0  0  0
 11 31  1  0  0  0  0
 12 13  1  0  0  0  0
 12 32  1  0  0  0  0
 12 33  1  0  0  0  0
 13 34  1  0  0  0  0
 13 35  1  0  0  0  0
 14 15  2  0  0  0  0
 14 16  1  0  0  0  0
 16 17  1  0  0  0  0
 16 19  2  0  0  0  0
 17 18  3  0  0  0  0
 19 20  1  0  0  0  0
 20 36  1  0  0  0  0
 20 37  1  0  0  0  0
 20 38  1  0  0  0  0
M  END
> <s_m_source_file>
AV-unprocessed.smi

> <i_m_source_file_index>
1616

> <i_lp_mmshare_version>
43012

> <i_f3d_flags>
0

> <s_epik_input>
TiNDYyhjMVtDSDNdKWMoPU8pbihuYzFbQ0gzXSlbQ0gyXUMoPU8pW05IXVtDQEhdKFtDSDNdKVtDSF0yW0NIMl1bQ0gyXTI=

> <s_epik_cmdline>
J2VwaWtfcHl0aG9uJywgJy1waCcsICc3LjAnLCAnLXRuJywgJzgnLCAnLW1hJywgJzIwMCcsICctbWV0YWxfYmluZGluZycsICctaW1hZScsICc8aW5maWxlLm1hZT4nLCAnLW9tYWUnLCAnPG91dGZpbGUubWFlPic=

> <r_lp_tautomer_probability>
1

> <r_epik_Ionization_Penalty>
1.93246e-08

> <r_epik_Ionization_Penalty_Charging>
2.27031e-11

> <r_epik_Ionization_Penalty_Neutral>
1.93019e-08

> <r_epik_State_Penalty>
-0

> <r_epik_Charging_Adjusted_Penalty>
2.27031e-11

> <i_epik_Tot_Q>
0

> <i_epik_Tot_abs_Q>
0

> <r_epik_Metal_State_Penalty>
-0

> <b_epik_Metal_Only>
0

> <s_lp_Force_Field>
OPLS_2005

> <r_lp_Energy>
28.018

> <b_lp_Chiralities_Consistent>
1

> <s_lp_Variant>
AV-unprocessed.smi:1616-1

> <Gold.Version>
5.8.1

> <Gold.Id.Protein>
6NUR|6NUR_protein|mol2

> <Gold.PLP.Fitness>
44.5200

> <Gold.PLP.PLP>
-40.8445

> <Gold.PLP.part.hbond>
-2.0000

> <Gold.PLP.part.metal>
0.0000

> <Gold.PLP.part.buried>
-6.3946

> <Gold.PLP.part.nonpolar>
-32.3883

> <Gold.PLP.part.repulsive>
0.2357

> <Gold.PLP.ligand.clash>
0.0000

> <Gold.PLP.ligand.torsion>
1.3001

> <Gold.PLP.Chemscore.Hbond>
1.7244

> <Gold.PLP.Chemscore.CHOScore>
0.0000

> <Gold.PLP.Chemscore.Metal>
0.0000

> <Gold.Chemscore.Hbonds>
donor molecule, donor type, donor heavy atom, donor atom, acceptor molecule, acceptor atom, score
      L1  H     8    26       P1  8028  0.91
      P1  H  7997  8008       L1    15  0.84

> <Gold.PLP.Chemscore.Internal.Correction>
1.1026

> <Gold.Rescore>
     Score         DG    S(hbond)    S(metal)    S(lipo)     H(rot)  DE(clash)    DE(int)     intcor
     15.79     -17.08       1.77        0.00      85.40       1.68       0.00       1.30       ----

> <Gold.Chemscore.Fitness>
15.7855

> <Gold.Chemscore.DG>
-17.0845

> <Gold.Chemscore.ZeroCoef>
-5.4800

> <Gold.Chemscore.Hbond>
1.7710

> <Gold.Chemscore.Metal>
0.0000

> <Gold.Chemscore.Lipo>
85.4049

> <Gold.Chemscore.Internal_Hbond>
0.0000

> <Gold.Chemscore.DEClash>
0.0019

> <Gold.Chemscore.DEInternal>
1.2971

> <Gold.Chemscore.Rot>
1.6809

> <Gold.Chemscore.Internal.Correction>
   9.000000E+99

> <Gold.Chemscore.Hbonds>
donor molecule, donor type, donor heavy atom, donor atom, acceptor molecule, acceptor atom, score
      L1  H     8    26       P1  8028  0.88
      P1  H  7997  8008       L1    15  0.77

> <Gold.Chemscore.Hbond.Weighted>
-5.9151

> <Gold.Chemscore.Metal.Weighted>
-0.0000

> <Gold.Chemscore.Lipo.Weighted>
-9.9924

> <Gold.Chemscore.Internal_Hbond.Weighted>
0.0000

> <Gold.Chemscore.DEClash.Weighted>
0.0019

> <Gold.Chemscore.DEInternal.Weighted>
1.2971

> <Gold.Chemscore.Rot.Weighted>
4.3030

> <Gold.Chemscore.Internal.Correction.Weighted>
   9.000000E+99

> <Gold.Protein.RotatedTorsions>
[ 6907 6896 6895 6894 ] final -117.17 input  -60.11 | X-H torsion
[ 7974 7965 7964 7962 ] final  -41.16 input  175.53 | X-H torsion
[ 8008 7997 7996 7995 ] final  -69.63 input   59.86 | X-H torsion
[ 10167 10162 10161 10158 ] final  134.35 input  -65.29 | X-H torsion
[ 10718 10713 10712 10709 ] final   54.79 input   66.30 | X-H torsion
[ 10763 10752 10751 10750 ] final  148.08 input  -60.55 | X-H torsion
[ 11005 11000 10999 10996 ] final  -11.85 input  -57.11 | X-H torsion

> <Gold.Protein.ActiveResidues>
 VAL166  LYS551  ARG553  GLY616  TRP617  ASP618  TYR619  PRO620  LYS621  CYS622 
 ASP623  PHE694  ASN695  SER759  ASP760  ASP761  ALA762  ILE779  LEU786  VAL792 
 PHE793  MET794  SER795  GLU796  ALA797  LYS798  CYS799  TRP800  GLU811  SER814 

> <Gold.Protein.RotatedAtoms>
  150.8115  133.8414  159.3180 H   0  0  0  0  0  0  0  0  0  0  0  0  # atno 6907 bound_to 6896
  151.6198  135.1031  160.0108 H   0  0  0  0  0  0  0  0  0  0  0  0  # atno 6908 bound_to 6896
  152.4207  133.7071  159.6514 H   0  0  0  0  0  0  0  0  0  0  0  0  # atno 6909 bound_to 6896
  146.0237  140.6818  142.9166 H   0  0  0  0  0  0  0  0  0  0  0  0  # atno 7974 bound_to 7965
  154.4952  140.0850  156.7682 H   0  0  0  0  0  0  0  0  0  0  0  0  # atno 8008 bound_to 7997
  155.4133  140.3442  155.4247 H   0  0  0  0  0  0  0  0  0  0  0  0  # atno 8009 bound_to 7997
  156.1384  140.1522  156.8946 H   0  0  0  0  0  0  0  0  0  0  0  0  # atno 8010 bound_to 7997
  139.5260  144.6571  151.5127 H   0  0  0  0  0  0  0  0  0  0  0  0  # atno 10167 bound_to 10162
  157.5288  130.8616  149.8659 H   0  0  0  0  0  0  0  0  0  0  0  0  # atno 10718 bound_to 10713
  154.0489  135.2883  155.3343 H   0  0  0  0  0  0  0  0  0  0  0  0  # atno 10763 bound_to 10752
  154.6881  135.5237  153.8358 H   0  0  0  0  0  0  0  0  0  0  0  0  # atno 10764 bound_to 10752
  153.0569  135.6598  154.0687 H   0  0  0  0  0  0  0  0  0  0  0  0  # atno 10765 bound_to 10752
  140.7596  133.8526  155.9113 H   0  0  0  0  0  0  0  0  0  0  0  0  # atno 11005 bound_to 11000
  144.7000  140.3611  143.7163 LP  0  0  0  0  0  0  0  0  0  0  0  0  # atno 17320 bound_to 7965
  145.7152  139.1695  143.2516 LP  0  0  0  0  0  0  0  0  0  0  0  0  # atno 17321 bound_to 7965
  140.6402  143.8903  150.6685 LP  0  0  0  0  0  0  0  0  0  0  0  0  # atno 17342 bound_to 10162
  140.2236  143.3790  152.1623 LP  0  0  0  0  0  0  0  0  0  0  0  0  # atno 17343 bound_to 10162
  156.0407  130.3740  150.1443 LP  0  0  0  0  0  0  0  0  0  0  0  0  # atno 17370 bound_to 10713
  156.9629  130.9810  151.3475 LP  0  0  0  0  0  0  0  0  0  0  0  0  # atno 17371 bound_to 10713
  140.9676  134.1574  157.4603 LP  0  0  0  0  0  0  0  0  0  0  0  0  # atno 17394 bound_to 11000
  139.8773  134.9967  156.5808 LP  0  0  0  0  0  0  0  0  0  0  0  0  # atno 17395 bound_to 11000

$$$$
