AV-unprocessed.smi:512|AV-procd|sdf|2770|dock2
  -GOLD-   2262023233D 1   1.00000     0.00000
 Structure written by MMmdl.
 48 50  0  0  0  0  0  0  0  0  3 V2000
  151.4293  141.9919  158.1979 C   0  0  0  0  0  0  0  0  0  0  0  0
  150.1334  141.6697  157.4503 C   0  0  0  0  0  0  0  0  0  0  0  0
  150.3481  141.8472  156.0605 O   0  0  0  0  0  0  0  0  0  0  0  0
  149.1969  141.5533  155.2876 C   0  0  0  0  0  0  0  0  0  0  0  0
  149.6166  140.7129  154.0752 C   0  0  0  0  0  0  0  0  0  0  0  0
  149.5075  139.2821  154.3519 N   0  0  0  0  0  0  0  0  0  0  0  0
  148.4240  138.4730  154.2058 C   0  0  0  0  0  0  0  0  0  0  0  0
  147.2192  138.9348  153.6757 N   0  0  0  0  0  0  0  0  0  0  0  0
  146.8582  138.8799  152.2605 C   0  0  0  0  0  0  0  0  0  0  0  0
  145.8913  137.7159  151.9737 C   0  0  0  0  0  0  0  0  0  0  0  0
  144.6789  137.8086  152.8221 N   0  3  0  0  0  0  0  0  0  0  0  0
  143.7205  136.7119  152.5693 C   0  0  0  0  0  0  0  0  0  0  0  0
  145.0209  137.9490  154.2573 C   0  0  0  0  0  0  0  0  0  0  0  0
  146.0058  139.1122  154.4674 C   0  0  0  0  0  0  0  0  0  0  0  0
  148.6023  137.2186  154.6238 N   0  0  0  0  0  0  0  0  0  0  0  0
  149.9243  137.2174  155.0426 C   0  0  0  0  0  0  0  0  0  0  0  0
  150.4901  138.4445  154.8889 C   0  0  0  0  0  0  0  0  0  0  0  0
  151.8853  138.7603  155.2659 C   0  0  0  0  0  0  0  0  0  0  0  0
  152.3444  139.8897  155.1089 O   0  0  0  0  0  0  0  0  0  0  0  0
  152.5393  137.6726  155.7835 N   0  5  0  0  0  0  0  0  0  0  0  0
  152.0067  136.4130  155.9562 C   0  0  0  0  0  0  0  0  0  0  0  0
  152.6651  135.4886  156.4345 O   0  0  0  0  0  0  0  0  0  0  0  0
  150.7089  136.1668  155.5912 N   0  0  0  0  0  0  0  0  0  0  0  0
  150.1151  134.8381  155.7646 C   0  0  0  0  0  0  0  0  0  0  0  0
  151.3007  141.8644  159.2727 H   0  0  0  0  0  0  0  0  0  0  0  0
  151.7394  143.0212  158.0173 H   0  0  0  0  0  0  0  0  0  0  0  0
  152.2388  141.3361  157.8774 H   0  0  0  0  0  0  0  0  0  0  0  0
  149.8319  140.6416  157.6563 H   0  0  0  0  0  0  0  0  0  0  0  0
  149.3321  142.3250  157.7947 H   0  0  0  0  0  0  0  0  0  0  0  0
  148.4671  141.0133  155.8920 H   0  0  0  0  0  0  0  0  0  0  0  0
  148.7269  142.4802  154.9550 H   0  0  0  0  0  0  0  0  0  0  0  0
  148.9952  140.9846  153.2264 H   0  0  0  0  0  0  0  0  0  0  0  0
  150.6379  140.9441  153.7750 H   0  0  0  0  0  0  0  0  0  0  0  0
  146.4143  139.8307  151.9628 H   0  0  0  0  0  0  0  0  0  0  0  0
  147.7525  138.7447  151.6526 H   0  0  0  0  0  0  0  0  0  0  0  0
  145.6045  137.7234  150.9216 H   0  0  0  0  0  0  0  0  0  0  0  0
  146.3930  136.7649  152.1611 H   0  0  0  0  0  0  0  0  0  0  0  0
  144.1519  135.7454  152.8334 H   0  0  0  0  0  0  0  0  0  0  0  0
  143.4370  136.6843  151.5167 H   0  0  0  0  0  0  0  0  0  0  0  0
  142.8119  136.8530  153.1557 H   0  0  0  0  0  0  0  0  0  0  0  0
  144.1130  138.1231  154.8358 H   0  0  0  0  0  0  0  0  0  0  0  0
  145.4602  137.0190  154.6224 H   0  0  0  0  0  0  0  0  0  0  0  0
  146.2690  139.1902  155.5229 H   0  0  0  0  0  0  0  0  0  0  0  0
  145.5369  140.0591  154.1964 H   0  0  0  0  0  0  0  0  0  0  0  0
  150.0835  134.5709  156.8215 H   0  0  0  0  0  0  0  0  0  0  0  0
  150.7023  134.0838  155.2397 H   0  0  0  0  0  0  0  0  0  0  0  0
  149.0973  134.7788  155.3814 H   0  0  0  0  0  0  0  0  0  0  0  0
  144.2141  138.6654  152.5577 H   0  0  0  0  0  0  0  0  0  0  0  0
  1  2  1  0  0  0  0
  1 25  1  0  0  0  0
  1 26  1  0  0  0  0
  1 27  1  0  0  0  0
  2  3  1  0  0  0  0
  2 28  1  0  0  0  0
  2 29  1  0  0  0  0
  3  4  1  0  0  0  0
  4  5  1  0  0  0  0
  4 30  1  0  0  0  0
  4 31  1  0  0  0  0
  5  6  1  0  0  0  0
  5 32  1  0  0  0  0
  5 33  1  0  0  0  0
  6 17  1  0  0  0  0
  6  7  1  0  0  0  0
  7  8  1  0  0  0  0
  7 15  2  0  0  0  0
  8 14  1  0  0  0  0
  8  9  1  0  0  0  0
  9 10  1  0  0  0  0
  9 34  1  0  0  0  0
  9 35  1  0  0  0  0
 10 11  1  0  0  0  0
 10 36  1  0  0  0  0
 10 37  1  0  0  0  0
 11 12  1  0  0  0  0
 11 13  1  0  0  0  0
 11 48  1  0  0  0  0
 12 38  1  0  0  0  0
 12 39  1  0  0  0  0
 12 40  1  0  0  0  0
 13 14  1  0  0  0  0
 13 41  1  0  0  0  0
 13 42  1  0  0  0  0
 14 43  1  0  0  0  0
 14 44  1  0  0  0  0
 15 16  1  0  0  0  0
 16 23  1  0  0  0  0
 16 17  2  0  0  0  0
 17 18  1  0  0  0  0
 18 19  2  0  0  0  0
 18 20  1  0  0  0  0
 20 21  1  0  0  0  0
 21 22  2  0  0  0  0
 21 23  1  0  0  0  0
 23 24  1  0  0  0  0
 24 45  1  0  0  0  0
 24 46  1  0  0  0  0
 24 47  1  0  0  0  0
M  CHG  1  11   1
M  CHG  1  20  -1
M  END
> <s_m_source_file>
AV-unprocessed.smi

> <i_m_source_file_index>
512

> <i_lp_mmshare_version>
43012

> <i_f3d_flags>
0

> <s_epik_input>
W0NIM11uMWMoPU8pW25IXWMoPU8pYyhjMTIpbihbQ0gyXVtDSDJdT1tDSDJdW0NIM10pYyhuMilOM1tDSDJdW0NIMl1OKFtDSDNdKVtDSDJdW0NIMl0z

> <s_epik_cmdline>
J2VwaWtfcHl0aG9uJywgJy1waCcsICc3LjAnLCAnLXRuJywgJzgnLCAnLW1hJywgJzIwMCcsICctbWV0YWxfYmluZGluZycsICctaW1hZScsICc8aW5maWxlLm1hZT4nLCAnLW9tYWUnLCAnPG91dGZpbGUubWFlPic=

> <r_epik_Ionization_Penalty>
5.9926

> <r_epik_Ionization_Penalty_Charging>
0.122107

> <r_epik_Ionization_Penalty_Neutral>
5.87049

> <r_epik_State_Penalty>
5.92685

> <r_epik_Charging_Adjusted_Penalty>
6.04896

> <i_epik_Tot_Q>
0

> <i_epik_Tot_abs_Q>
2

> <r_epik_Metal_State_Penalty>
1.88919

> <b_epik_Metal_Only>
1

> <s_lp_Force_Field>
OPLS_2005

> <r_lp_Energy>
50.2729

> <b_lp_Chiralities_Consistent>
1

> <s_lp_Variant>
AV-unprocessed.smi:512-3

> <Gold.Version>
5.8.1

> <Gold.Id.Protein>
6NUR|6NUR_protein|mol2

> <Gold.PLP.Fitness>
38.9552

> <Gold.PLP.PLP>
-30.6965

> <Gold.PLP.part.hbond>
-3.5845

> <Gold.PLP.part.metal>
0.0000

> <Gold.PLP.part.buried>
2.1368

> <Gold.PLP.part.nonpolar>
-30.4621

> <Gold.PLP.part.repulsive>
0.8999

> <Gold.PLP.ligand.clash>
0.0000

> <Gold.PLP.ligand.torsion>
2.3130

> <Gold.PLP.Chemscore.Hbond>
4.0940

> <Gold.PLP.Chemscore.CHOScore>
0.0000

> <Gold.PLP.Chemscore.Metal>
0.0000

> <Gold.Chemscore.Hbonds>
donor molecule, donor type, donor heavy atom, donor atom, acceptor molecule, acceptor atom, score
      L1  H    11    48       P1 10175  2.00
      P1  H  7989  7998       L1    19  0.69
      P1  H  7997  8008       L1    19  0.44
      P1  H 10752 10764       L1    22  0.78

> <Gold.PLP.Chemscore.Internal.Correction>
0.6027

> <Gold.Rescore>
     Score         DG    S(hbond)    S(metal)    S(lipo)     H(rot)  DE(clash)    DE(int)     intcor
     11.61     -15.02       2.06        0.00      58.39       1.63       1.05       2.37       ----

> <Gold.Chemscore.Fitness>
11.6065

> <Gold.Chemscore.DG>
-15.0197

> <Gold.Chemscore.ZeroCoef>
-5.4800

> <Gold.Chemscore.Hbond>
2.0624

> <Gold.Chemscore.Metal>
0.0000

> <Gold.Chemscore.Lipo>
58.3877

> <Gold.Chemscore.Internal_Hbond>
0.0000

> <Gold.Chemscore.DEClash>
1.0457

> <Gold.Chemscore.DEInternal>
2.3675

> <Gold.Chemscore.Rot>
1.6328

> <Gold.Chemscore.Internal.Correction>
   9.000000E+99

> <Gold.Chemscore.Hbonds>
donor molecule, donor type, donor heavy atom, donor atom, acceptor molecule, acceptor atom, score
      L1  H    11    48       P1 10175  1.00
      P1  H  7989  7998       L1    19  0.61
      P1  H  7997  8008       L1    19  0.38
      P1  H 10752 10764       L1    22  0.19

> <Gold.Chemscore.Hbond.Weighted>
-6.8884

> <Gold.Chemscore.Metal.Weighted>
-0.0000

> <Gold.Chemscore.Lipo.Weighted>
-6.8314

> <Gold.Chemscore.Internal_Hbond.Weighted>
0.0000

> <Gold.Chemscore.DEClash.Weighted>
1.0457

> <Gold.Chemscore.DEInternal.Weighted>
2.3675

> <Gold.Chemscore.Rot.Weighted>
4.1800

> <Gold.Chemscore.Internal.Correction.Weighted>
   9.000000E+99

> <Gold.Protein.RotatedTorsions>
[ 6907 6896 6895 6894 ] final   -9.87 input  -60.11 | X-H torsion
[ 7974 7965 7964 7962 ] final -158.79 input  175.53 | X-H torsion
[ 8008 7997 7996 7995 ] final  -23.12 input   59.86 | X-H torsion
[ 10167 10162 10161 10158 ] final  128.75 input  -65.29 | X-H torsion
[ 10718 10713 10712 10709 ] final  136.37 input   66.30 | X-H torsion
[ 10763 10752 10751 10750 ] final    8.97 input  -60.55 | X-H torsion
[ 11005 11000 10999 10996 ] final -146.67 input  -57.11 | X-H torsion

> <Gold.Protein.ActiveResidues>
 VAL166  LYS551  ARG553  GLY616  TRP617  ASP618  TYR619  PRO620  LYS621  CYS622 
 ASP623  PHE694  ASN695  SER759  ASP760  ASP761  ALA762  ILE779  LEU786  VAL792 
 PHE793  MET794  SER795  GLU796  ALA797  LYS798  CYS799  TRP800  GLU811  SER814 

> <Gold.Protein.RotatedAtoms>
  151.4109  135.0985  159.9584 H   0  0  0  0  0  0  0  0  0  0  0  0  # atno 6907 bound_to 6896
  152.5020  133.8798  159.7351 H   0  0  0  0  0  0  0  0  0  0  0  0  # atno 6908 bound_to 6896
  150.9293  133.6729  159.2842 H   0  0  0  0  0  0  0  0  0  0  0  0  # atno 6909 bound_to 6896
  144.7491  140.3777  143.6062 H   0  0  0  0  0  0  0  0  0  0  0  0  # atno 7974 bound_to 7965
  154.4604  140.1989  156.0262 H   0  0  0  0  0  0  0  0  0  0  0  0  # atno 8008 bound_to 7997
  156.0828  140.3269  155.7687 H   0  0  0  0  0  0  0  0  0  0  0  0  # atno 8009 bound_to 7997
  155.5084  140.0559  157.2918 H   0  0  0  0  0  0  0  0  0  0  0  0  # atno 8010 bound_to 7997
  139.5512  144.6814  151.4319 H   0  0  0  0  0  0  0  0  0  0  0  0  # atno 10167 bound_to 10162
  157.4473  131.1063  151.0074 H   0  0  0  0  0  0  0  0  0  0  0  0  # atno 10718 bound_to 10713
  153.2191  135.6879  153.8021 H   0  0  0  0  0  0  0  0  0  0  0  0  # atno 10763 bound_to 10752
  153.7226  135.3265  155.3271 H   0  0  0  0  0  0  0  0  0  0  0  0  # atno 10764 bound_to 10752
  154.8261  135.4617  154.1031 H   0  0  0  0  0  0  0  0  0  0  0  0  # atno 10765 bound_to 10752
  140.7795  134.3095  157.5050 H   0  0  0  0  0  0  0  0  0  0  0  0  # atno 11005 bound_to 11000
  145.7011  139.1661  143.2592 LP  0  0  0  0  0  0  0  0  0  0  0  0  # atno 17320 bound_to 7965
  146.1415  140.7051  142.9365 LP  0  0  0  0  0  0  0  0  0  0  0  0  # atno 17321 bound_to 7965
  140.6774  143.8158  150.7077 LP  0  0  0  0  0  0  0  0  0  0  0  0  # atno 17342 bound_to 10162
  140.1601  143.4283  152.2073 LP  0  0  0  0  0  0  0  0  0  0  0  0  # atno 17343 bound_to 10162
  157.0916  130.5944  149.5441 LP  0  0  0  0  0  0  0  0  0  0  0  0  # atno 17370 bound_to 10713
  155.9973  130.5044  150.7528 LP  0  0  0  0  0  0  0  0  0  0  0  0  # atno 17371 bound_to 10713
  139.8744  134.9310  156.3517 LP  0  0  0  0  0  0  0  0  0  0  0  0  # atno 17394 bound_to 11000
  140.9496  133.7460  156.0254 LP  0  0  0  0  0  0  0  0  0  0  0  0  # atno 17395 bound_to 11000

$$$$
