AV-unprocessed.smi:876|AV-procd|sdf|4022|dock2
  -GOLD-   22720 1513D 1   1.00000     0.00000
 Structure written by MMmdl.
 41 42  0  0  0  0  0  0  0  0  2 V2000
  151.6091  144.4168  157.6153 C   0  0  0  0  0  0  0  0  0  0  0  0
  151.8438  142.9979  157.8502 N   0  0  0  0  0  0  0  0  0  0  0  0
  152.6476  142.5627  158.9871 C   0  0  0  0  0  0  0  0  0  0  0  0
  151.2510  142.0380  157.0015 C   0  0  0  0  0  0  0  0  0  0  0  0
  151.6573  140.6816  156.9609 C   0  0  0  0  0  0  0  0  0  0  0  0
  151.0176  139.7798  156.0854 C   0  0  0  0  0  0  0  0  0  0  0  0
  149.9638  140.2376  155.2569 C   0  0  0  0  0  0  0  0  0  0  0  0
  149.2610  139.4227  154.3280 N   0  0  0  0  0  0  0  0  0  0  0  0
  147.9923  139.5369  153.8983 C   0  0  0  0  0  0  0  0  0  0  0  0
  147.2007  140.4158  154.2381 O   0  0  0  0  0  0  0  0  0  0  0  0
  147.6875  138.5672  153.0246 N   0  0  0  0  0  0  0  0  0  0  0  0
  146.3913  138.4097  152.3743 C   0  0  1  0  0  0  0  0  0  0  0  0
  146.5568  138.3164  150.8823 C   0  0  0  0  0  0  0  0  0  0  0  0
  146.0010  137.2202  150.3712 C   0  0  0  0  0  0  0  0  0  0  0  0
  145.3550  136.3492  151.4185 C   0  0  1  0  0  0  0  0  0  0  0  0
  145.8538  134.8942  151.3805 C   0  0  0  0  0  0  0  0  0  0  0  0
  145.3317  134.2182  150.2558 O   0  0  0  0  0  0  0  0  0  0  0  0
  145.6910  137.0756  152.7459 C   0  0  0  0  0  0  0  0  0  0  0  0
  149.6063  141.5988  155.3277 C   0  0  0  0  0  0  0  0  0  0  0  0
  150.2460  142.4281  156.1799 N   0  3  0  0  0  0  0  0  0  0  0  0
  145.7482  139.2634  152.5950 H   0  0  0  0  0  0  0  0  0  0  0  0
  144.2766  136.3730  151.2549 H   0  0  0  0  0  0  0  0  0  0  0  0
  150.5464  144.6478  157.6955 H   0  0  0  0  0  0  0  0  0  0  0  0
  151.9554  144.7036  156.6219 H   0  0  0  0  0  0  0  0  0  0  0  0
  152.1397  145.0323  158.3420 H   0  0  0  0  0  0  0  0  0  0  0  0
  153.4993  141.9706  158.6504 H   0  0  0  0  0  0  0  0  0  0  0  0
  152.0501  141.9559  159.6685 H   0  0  0  0  0  0  0  0  0  0  0  0
  153.0342  143.4130  159.5494 H   0  0  0  0  0  0  0  0  0  0  0  0
  152.4571  140.3139  157.5860 H   0  0  0  0  0  0  0  0  0  0  0  0
  151.3614  138.7576  156.0617 H   0  0  0  0  0  0  0  0  0  0  0  0
  149.8053  138.6873  153.9014 H   0  0  0  0  0  0  0  0  0  0  0  0
  148.3970  137.8869  152.7948 H   0  0  0  0  0  0  0  0  0  0  0  0
  147.0612  139.0808  150.3094 H   0  0  0  0  0  0  0  0  0  0  0  0
  145.9891  136.9626  149.3223 H   0  0  0  0  0  0  0  0  0  0  0  0
  146.9433  134.8565  151.3483 H   0  0  0  0  0  0  0  0  0  0  0  0
  145.5379  134.3633  152.2789 H   0  0  0  0  0  0  0  0  0  0  0  0
  145.5927  134.6853  149.4767 H   0  0  0  0  0  0  0  0  0  0  0  0
  146.3409  136.4548  153.3651 H   0  0  0  0  0  0  0  0  0  0  0  0
  144.7889  137.2595  153.3303 H   0  0  0  0  0  0  0  0  0  0  0  0
  148.8258  142.0512  154.7330 H   0  0  0  0  0  0  0  0  0  0  0  0
  149.9557  143.4056  156.2058 H   0  0  0  0  0  0  0  0  0  0  0  0
  1  2  1  0  0  0  0
  1 23  1  0  0  0  0
  1 24  1  0  0  0  0
  1 25  1  0  0  0  0
  2  3  1  0  0  0  0
  2  4  1  0  0  0  0
  3 26  1  0  0  0  0
  3 27  1  0  0  0  0
  3 28  1  0  0  0  0
  4 20  1  0  0  0  0
  4  5  2  0  0  0  0
  5  6  1  0  0  0  0
  5 29  1  0  0  0  0
  6  7  2  0  0  0  0
  6 30  1  0  0  0  0
  7  8  1  0  0  0  0
  7 19  1  0  0  0  0
  8  9  1  0  0  0  0
  8 31  1  0  0  0  0
  9 10  2  0  0  0  0
  9 11  1  0  0  0  0
 11 12  1  0  0  0  0
 11 32  1  0  0  0  0
 12 21  1  0  0  0  0
 12 18  1  0  0  0  0
 12 13  1  0  0  0  0
 13 14  2  0  0  0  0
 13 33  1  0  0  0  0
 14 15  1  0  0  0  0
 14 34  1  0  0  0  0
 15 22  1  0  0  0  0
 15 16  1  0  0  0  0
 15 18  1  0  0  0  0
 16 17  1  0  0  0  0
 16 35  1  0  0  0  0
 16 36  1  0  0  0  0
 17 37  1  0  0  0  0
 18 38  1  0  0  0  0
 18 39  1  0  0  0  0
 19 20  2  0  0  0  0
 19 40  1  0  0  0  0
 20 41  1  0  0  0  0
M  CHG  1  20   1
M  END
> <s_m_source_file>
AV-unprocessed.smi

> <i_m_source_file_index>
876

> <i_lp_mmshare_version>
43012

> <i_f3d_flags>
0

> <s_epik_input>
W0NIM11OKFtDSDNdKWMxW2NIXVtjSF1jKFtjSF1uMSlbTkhdQyg9TylbTkhdW0NAQEhdMltDSF09W0NIXVtDQEBIXShbQ0gyXTIpW0NIMl1bT0hd

> <s_epik_cmdline>
J2VwaWtfcHl0aG9uJywgJy1waCcsICc3LjAnLCAnLXRuJywgJzgnLCAnLW1hJywgJzIwMCcsICctbWV0YWxfYmluZGluZycsICctaW1hZScsICc8aW5maWxlLm1hZT4nLCAnLW9tYWUnLCAnPG91dGZpbGUubWFlPic=

> <r_lp_tautomer_probability>
0.999994

> <r_epik_Ionization_Penalty>
0.257994

> <r_epik_Ionization_Penalty_Charging>
0.257974

> <r_epik_Ionization_Penalty_Neutral>
1.95938e-05

> <r_epik_State_Penalty>
0.249586

> <r_epik_Charging_Adjusted_Penalty>
0.50756

> <i_epik_Tot_Q>
1

> <i_epik_Tot_abs_Q>
1

> <r_epik_Metal_State_Penalty>
0.538508

> <b_epik_Metal_Only>
0

> <s_lp_Force_Field>
OPLS_2005

> <r_lp_Energy>
25.8864

> <b_lp_Chiralities_Consistent>
1

> <s_lp_Variant>
AV-unprocessed.smi:876-4

> <Gold.Version>
5.8.1

> <Gold.Id.Protein>
6NUR|6NUR_protein|mol2

> <Gold.PLP.Fitness>
47.4427

> <Gold.PLP.PLP>
-36.1929

> <Gold.PLP.part.hbond>
-4.3941

> <Gold.PLP.part.metal>
0.0000

> <Gold.PLP.part.buried>
5.1530

> <Gold.PLP.part.nonpolar>
-37.4562

> <Gold.PLP.part.repulsive>
0.3462

> <Gold.PLP.ligand.clash>
0.0000

> <Gold.PLP.ligand.torsion>
0.3913

> <Gold.PLP.Chemscore.Hbond>
4.0000

> <Gold.PLP.Chemscore.CHOScore>
0.0000

> <Gold.PLP.Chemscore.Metal>
0.0000

> <Gold.Chemscore.Hbonds>
donor molecule, donor type, donor heavy atom, donor atom, acceptor molecule, acceptor atom, score
      L1  H    11    32       P1  7948  1.00
      L1  H    17    37       P1  7921  1.00
      L1  H    20    41       P1  8028  2.00

> <Gold.PLP.Chemscore.Internal.Correction>
0.0323

> <Gold.Rescore>
     Score         DG    S(hbond)    S(metal)    S(lipo)     H(rot)  DE(clash)    DE(int)     intcor
     16.20     -21.14       2.88        0.00      91.33       1.82       3.16       1.77       ----

> <Gold.Chemscore.Fitness>
16.2039

> <Gold.Chemscore.DG>
-21.1424

> <Gold.Chemscore.ZeroCoef>
-5.4800

> <Gold.Chemscore.Hbond>
2.8849

> <Gold.Chemscore.Metal>
0.0000

> <Gold.Chemscore.Lipo>
91.3268

> <Gold.Chemscore.Internal_Hbond>
0.0000

> <Gold.Chemscore.DEClash>
3.1649

> <Gold.Chemscore.DEInternal>
1.7736

> <Gold.Chemscore.Rot>
1.8197

> <Gold.Chemscore.Internal.Correction>
   9.000000E+99

> <Gold.Chemscore.Hbonds>
donor molecule, donor type, donor heavy atom, donor atom, acceptor molecule, acceptor atom, score
      L1  H    11    32       P1  7948  0.94
      L1  H    17    37       P1  7921  0.93
      L1  H    20    41       P1  8028  0.95

> <Gold.Chemscore.Hbond.Weighted>
-9.6357

> <Gold.Chemscore.Metal.Weighted>
-0.0000

> <Gold.Chemscore.Lipo.Weighted>
-10.6852

> <Gold.Chemscore.Internal_Hbond.Weighted>
0.0000

> <Gold.Chemscore.DEClash.Weighted>
3.1649

> <Gold.Chemscore.DEInternal.Weighted>
1.7736

> <Gold.Chemscore.Rot.Weighted>
4.6585

> <Gold.Chemscore.Internal.Correction.Weighted>
   9.000000E+99

> <Gold.Protein.RotatedTorsions>
[ 6907 6896 6895 6894 ] final   27.22 input  -60.11 | X-H torsion
[ 7974 7965 7964 7962 ] final   88.27 input  175.53 | X-H torsion
[ 8008 7997 7996 7995 ] final -161.21 input   59.86 | X-H torsion
[ 10167 10162 10161 10158 ] final   81.73 input  -65.29 | X-H torsion
[ 10718 10713 10712 10709 ] final   60.89 input   66.30 | X-H torsion
[ 10763 10752 10751 10750 ] final   80.37 input  -60.55 | X-H torsion
[ 11005 11000 10999 10996 ] final  -87.01 input  -57.11 | X-H torsion

> <Gold.Protein.ActiveResidues>
 VAL166  LYS551  ARG553  GLY616  TRP617  ASP618  TYR619  PRO620  LYS621  CYS622 
 ASP623  PHE694  ASN695  SER759  ASP760  ASP761  ALA762  ILE779  LEU786  VAL792 
 PHE793  MET794  SER795  GLU796  ALA797  LYS798  CYS799  TRP800  GLU811  SER814 

> <Gold.Protein.RotatedAtoms>
  151.9991  134.9938  160.0564 H   0  0  0  0  0  0  0  0  0  0  0  0  # atno 6907 bound_to 6896
  152.1536  133.4533  159.4834 H   0  0  0  0  0  0  0  0  0  0  0  0  # atno 6908 bound_to 6896
  150.6878  134.2076  159.4390 H   0  0  0  0  0  0  0  0  0  0  0  0  # atno 6909 bound_to 6896
  145.5479  139.2293  143.2529 H   0  0  0  0  0  0  0  0  0  0  0  0  # atno 7974 bound_to 7965
  155.7888  140.0875  157.2020 H   0  0  0  0  0  0  0  0  0  0  0  0  # atno 8008 bound_to 7997
  154.3986  140.1494  156.3197 H   0  0  0  0  0  0  0  0  0  0  0  0  # atno 8009 bound_to 7997
  155.8579  140.3431  155.5739 H   0  0  0  0  0  0  0  0  0  0  0  0  # atno 8010 bound_to 7997
  139.9361  144.6120  150.8297 H   0  0  0  0  0  0  0  0  0  0  0  0  # atno 10167 bound_to 10162
  157.5787  130.8964  149.9392 H   0  0  0  0  0  0  0  0  0  0  0  0  # atno 10718 bound_to 10713
  153.1028  135.4805  154.8898 H   0  0  0  0  0  0  0  0  0  0  0  0  # atno 10763 bound_to 10752
  154.7398  135.3079  154.8751 H   0  0  0  0  0  0  0  0  0  0  0  0  # atno 10764 bound_to 10752
  153.9362  135.6839  153.4798 H   0  0  0  0  0  0  0  0  0  0  0  0  # atno 10765 bound_to 10752
  141.1622  133.7487  156.9245 H   0  0  0  0  0  0  0  0  0  0  0  0  # atno 11005 bound_to 11000
  146.1937  140.6301  142.9134 LP  0  0  0  0  0  0  0  0  0  0  0  0  # atno 17320 bound_to 7965
  144.7544  140.5271  143.6779 LP  0  0  0  0  0  0  0  0  0  0  0  0  # atno 17321 bound_to 7965
  140.7624  143.3197  151.2651 LP  0  0  0  0  0  0  0  0  0  0  0  0  # atno 17342 bound_to 10162
  139.6742  143.9967  152.2771 LP  0  0  0  0  0  0  0  0  0  0  0  0  # atno 17343 bound_to 10162
  156.0832  130.3671  150.0539 LP  0  0  0  0  0  0  0  0  0  0  0  0  # atno 17370 bound_to 10713
  156.8682  130.9515  151.3612 LP  0  0  0  0  0  0  0  0  0  0  0  0  # atno 17371 bound_to 10713
  140.1429  134.9282  157.2490 LP  0  0  0  0  0  0  0  0  0  0  0  0  # atno 17394 bound_to 11000
  140.2815  134.3344  155.7341 LP  0  0  0  0  0  0  0  0  0  0  0  0  # atno 17395 bound_to 11000

$$$$
