AV-unprocessed.smi:2843|AV-procd|sdf|10938|dock1
  -GOLD-   2272015383D 1   1.00000     0.00000
 Structure written by MMmdl.
 28 28  0  0  0  0  0  0  0  0  2 V2000
  153.6806  141.7427  160.3711 C   0  0  0  0  0  0  0  0  0  0  0  0
  153.2265  140.7746  159.3330 C   0  0  0  0  0  0  0  0  0  0  0  0
  152.0139  140.5358  158.7525 C   0  0  0  0  0  0  0  0  0  0  0  0
  152.2821  139.4865  157.8301 C   0  0  0  0  0  0  0  0  0  0  0  0
  151.3281  138.7969  156.8933 C   0  0  0  0  0  0  0  0  0  0  0  0
  151.9850  138.8073  155.1664 S   0  0  0  0  0  0  0  0  0  0  0  0
  153.3249  139.4107  155.2522 O   0  0  0  0  0  0  0  0  0  0  0  0
  151.9048  137.4202  154.6785 O   0  0  0  0  0  0  0  0  0  0  0  0
  150.9185  139.7900  154.4421 N   0  5  0  0  0  0  0  0  0  0  0  0
  150.0167  140.5893  155.2530 C   0  0  0  0  0  0  0  0  0  0  0  0
  149.0264  141.3531  154.3502 C   0  0  0  0  0  0  0  0  0  0  0  0
  147.7196  140.5951  154.0316 C   0  0  0  0  0  0  0  0  0  0  0  0
  147.9155  139.7622  152.9075 O   0  0  0  0  0  0  0  0  0  0  0  0
  153.5518  139.1140  157.8700 N   0  0  0  0  0  0  0  0  0  0  0  0
  154.1644  139.9357  158.8225 O   0  0  0  0  0  0  0  0  0  0  0  0
  152.9031  141.9016  161.1184 H   0  0  0  0  0  0  0  0  0  0  0  0
  153.9185  142.7060  159.9202 H   0  0  0  0  0  0  0  0  0  0  0  0
  154.5716  141.3790  160.8835 H   0  0  0  0  0  0  0  0  0  0  0  0
  151.0796  141.0410  158.9471 H   0  0  0  0  0  0  0  0  0  0  0  0
  151.1352  137.7652  157.1882 H   0  0  0  0  0  0  0  0  0  0  0  0
  150.3714  139.3177  156.8836 H   0  0  0  0  0  0  0  0  0  0  0  0
  149.4503  139.9642  155.9439 H   0  0  0  0  0  0  0  0  0  0  0  0
  150.5515  141.3081  155.8748 H   0  0  0  0  0  0  0  0  0  0  0  0
  148.7914  142.3187  154.8010 H   0  0  0  0  0  0  0  0  0  0  0  0
  149.5316  141.5796  153.4105 H   0  0  0  0  0  0  0  0  0  0  0  0
  147.4021  139.9702  154.8683 H   0  0  0  0  0  0  0  0  0  0  0  0
  146.9006  141.2811  153.8068 H   0  0  0  0  0  0  0  0  0  0  0  0
  148.6730  140.0720  152.4353 H   0  0  0  0  0  0  0  0  0  0  0  0
  1  2  1  0  0  0  0
  1 16  1  0  0  0  0
  1 17  1  0  0  0  0
  1 18  1  0  0  0  0
  2 15  1  0  0  0  0
  2  3  2  0  0  0  0
  3  4  1  0  0  0  0
  3 19  1  0  0  0  0
  4  5  1  0  0  0  0
  4 14  2  0  0  0  0
  5  6  1  0  0  0  0
  5 20  1  0  0  0  0
  5 21  1  0  0  0  0
  6  7  2  0  0  0  0
  6  8  2  0  0  0  0
  6  9  1  0  0  0  0
  9 10  1  0  0  0  0
 10 11  1  0  0  0  0
 10 22  1  0  0  0  0
 10 23  1  0  0  0  0
 11 12  1  0  0  0  0
 11 24  1  0  0  0  0
 11 25  1  0  0  0  0
 12 13  1  0  0  0  0
 12 26  1  0  0  0  0
 12 27  1  0  0  0  0
 13 28  1  0  0  0  0
 14 15  1  0  0  0  0
M  CHG  1   9  -1
M  END
> <s_m_source_file>
AV-unprocessed.smi

> <i_m_source_file_index>
2843

> <i_lp_mmshare_version>
43012

> <i_f3d_flags>
0

> <s_epik_input>
W0NIM11jMVtjSF1jKG5vMSlbQ0gyXVMoPU8pKD1PKVtOSF1bQ0gyXVtDSDJdW0NIMl1bT0hd

> <s_epik_cmdline>
J2VwaWtfcHl0aG9uJywgJy1waCcsICc3LjAnLCAnLXRuJywgJzgnLCAnLW1hJywgJzIwMCcsICctbWV0YWxfYmluZGluZycsICctaW1hZScsICc8aW5maWxlLm1hZT4nLCAnLW9tYWUnLCAnPG91dGZpbGUubWFlPic=

> <r_lp_tautomer_probability>
1

> <r_epik_Ionization_Penalty>
4.89444

> <r_epik_Ionization_Penalty_Charging>
4.89444

> <r_epik_Ionization_Penalty_Neutral>
8.7324e-07

> <r_epik_State_Penalty>
4.89429

> <r_epik_Charging_Adjusted_Penalty>
9.78873

> <i_epik_Tot_Q>
-1

> <i_epik_Tot_abs_Q>
1

> <r_epik_Metal_State_Penalty>
1.04833

> <b_epik_Metal_Only>
1

> <s_lp_Force_Field>
OPLS_2005

> <r_lp_Energy>
1.63452

> <b_lp_Chiralities_Consistent>
1

> <s_lp_Variant>
AV-unprocessed.smi:2843-2

> <Gold.Version>
5.8.1

> <Gold.Id.Protein>
6NUR|6NUR_protein|mol2

> <Gold.PLP.Fitness>
39.8834

> <Gold.PLP.PLP>
-29.3632

> <Gold.PLP.part.hbond>
-5.5199

> <Gold.PLP.part.metal>
0.0000

> <Gold.PLP.part.buried>
-4.4180

> <Gold.PLP.part.nonpolar>
-19.0326

> <Gold.PLP.part.repulsive>
0.2100

> <Gold.PLP.ligand.clash>
0.0000

> <Gold.PLP.ligand.torsion>
1.1100

> <Gold.PLP.Chemscore.Hbond>
3.9040

> <Gold.PLP.Chemscore.CHOScore>
0.0000

> <Gold.PLP.Chemscore.Metal>
0.0000

> <Gold.Chemscore.Hbonds>
donor molecule, donor type, donor heavy atom, donor atom, acceptor molecule, acceptor atom, score
      L1  H    13    28       P1  7957  0.99
      P1  H  7989  7998       L1     9  1.00
      P1  H  7997  8009       L1     7  0.98
      P1  H 10752 10764       L1     8  0.72

> <Gold.PLP.Chemscore.Internal.Correction>
1.0282

> <Gold.Rescore>
     Score         DG    S(hbond)    S(metal)    S(lipo)     H(rot)  DE(clash)    DE(int)     intcor
     15.71     -16.99       3.55        0.00      55.88       2.69       0.01       1.28       ----

> <Gold.Chemscore.Fitness>
15.7064

> <Gold.Chemscore.DG>
-16.9897

> <Gold.Chemscore.ZeroCoef>
-5.4800

> <Gold.Chemscore.Hbond>
3.5529

> <Gold.Chemscore.Metal>
0.0000

> <Gold.Chemscore.Lipo>
55.8765

> <Gold.Chemscore.Internal_Hbond>
0.0000

> <Gold.Chemscore.DEClash>
0.0082

> <Gold.Chemscore.DEInternal>
1.2750

> <Gold.Chemscore.Rot>
2.6932

> <Gold.Chemscore.Internal.Correction>
   9.000000E+99

> <Gold.Chemscore.Hbonds>
donor molecule, donor type, donor heavy atom, donor atom, acceptor molecule, acceptor atom, score
      L1  H    13    28       P1  7957  0.92
      P1  H  7989  7998       L1     9  0.36
      P1  H  7997  8009       L1     7  0.91
      P1  H 10752 10764       L1     8  0.68

> <Gold.Chemscore.Hbond.Weighted>
-11.8666

> <Gold.Chemscore.Metal.Weighted>
-0.0000

> <Gold.Chemscore.Lipo.Weighted>
-6.5376

> <Gold.Chemscore.Internal_Hbond.Weighted>
0.0000

> <Gold.Chemscore.DEClash.Weighted>
0.0082

> <Gold.Chemscore.DEInternal.Weighted>
1.2750

> <Gold.Chemscore.Rot.Weighted>
6.8945

> <Gold.Chemscore.Internal.Correction.Weighted>
   9.000000E+99

> <Gold.Protein.RotatedTorsions>
[ 6907 6896 6895 6894 ] final  -22.89 input  -60.11 | X-H torsion
[ 7974 7965 7964 7962 ] final   79.68 input  175.53 | X-H torsion
[ 8008 7997 7996 7995 ] final -131.09 input   59.86 | X-H torsion
[ 10167 10162 10161 10158 ] final   98.81 input  -65.29 | X-H torsion
[ 10718 10713 10712 10709 ] final -111.46 input   66.30 | X-H torsion
[ 10763 10752 10751 10750 ] final  -58.59 input  -60.55 | X-H torsion
[ 11005 11000 10999 10996 ] final    6.52 input  -57.11 | X-H torsion

> <Gold.Protein.ActiveResidues>
 VAL166  LYS551  ARG553  GLY616  TRP617  ASP618  TYR619  PRO620  LYS621  CYS622 
 ASP623  PHE694  ASN695  SER759  ASP760  ASP761  ALA762  ILE779  LEU786  VAL792 
 PHE793  MET794  SER795  GLU796  ALA797  LYS798  CYS799  TRP800  GLU811  SER814 

> <Gold.Protein.RotatedAtoms>
  151.2120  135.0485  159.8914 H   0  0  0  0  0  0  0  0  0  0  0  0  # atno 6907 bound_to 6896
  152.5424  134.0735  159.8214 H   0  0  0  0  0  0  0  0  0  0  0  0  # atno 6908 bound_to 6896
  151.0889  133.5283  159.2648 H   0  0  0  0  0  0  0  0  0  0  0  0  # atno 6909 bound_to 6896
  145.6611  139.2472  143.1922 H   0  0  0  0  0  0  0  0  0  0  0  0  # atno 7974 bound_to 7965
  155.3066  140.0455  157.3032 H   0  0  0  0  0  0  0  0  0  0  0  0  # atno 8008 bound_to 7997
  154.5456  140.2301  155.8535 H   0  0  0  0  0  0  0  0  0  0  0  0  # atno 8009 bound_to 7997
  156.1921  140.3048  155.9360 H   0  0  0  0  0  0  0  0  0  0  0  0  # atno 8010 bound_to 7997
  139.7674  144.6934  151.0205 H   0  0  0  0  0  0  0  0  0  0  0  0  # atno 10167 bound_to 10162
  156.0648  130.5869  150.8377 H   0  0  0  0  0  0  0  0  0  0  0  0  # atno 10718 bound_to 10713
  154.2405  135.6344  153.5205 H   0  0  0  0  0  0  0  0  0  0  0  0  # atno 10763 bound_to 10752
  152.9931  135.5541  154.5915 H   0  0  0  0  0  0  0  0  0  0  0  0  # atno 10764 bound_to 10752
  154.5420  135.2895  155.1062 H   0  0  0  0  0  0  0  0  0  0  0  0  # atno 10765 bound_to 10752
  140.5586  134.0214  155.7963 H   0  0  0  0  0  0  0  0  0  0  0  0  # atno 11005 bound_to 11000
  146.1124  140.7411  142.9497 LP  0  0  0  0  0  0  0  0  0  0  0  0  # atno 17320 bound_to 7965
  144.7089  140.3960  143.7096 LP  0  0  0  0  0  0  0  0  0  0  0  0  # atno 17321 bound_to 7965
  140.7812  143.4627  151.0255 LP  0  0  0  0  0  0  0  0  0  0  0  0  # atno 17342 bound_to 10162
  139.8312  143.7689  152.3180 LP  0  0  0  0  0  0  0  0  0  0  0  0  # atno 17343 bound_to 10162
  157.5683  131.0946  150.9456 LP  0  0  0  0  0  0  0  0  0  0  0  0  # atno 17370 bound_to 10713
  156.9678  130.5479  149.5289 LP  0  0  0  0  0  0  0  0  0  0  0  0  # atno 17371 bound_to 10713
  141.1128  133.9588  157.2878 LP  0  0  0  0  0  0  0  0  0  0  0  0  # atno 17394 bound_to 11000
  139.9419  135.0190  156.8735 LP  0  0  0  0  0  0  0  0  0  0  0  0  # atno 17395 bound_to 11000

$$$$
