AV-unprocessed.smi:3091|AV-procd|sdf|11780|dock2
  -GOLD-   2272017163D 1   1.00000     0.00000
 Structure written by MMmdl.
 28 29  0  0  0  0  0  0  0  0  1 V2000
  148.8911  140.0553  153.5752 N   0  0  0  0  0  0  0  0  0  0  0  0
  149.0241  141.1615  154.5011 C   0  0  0  0  0  0  0  0  0  0  0  0
  150.1197  140.9263  155.5192 C   0  0  0  0  0  0  0  0  0  0  0  0
  151.0483  139.8811  155.3444 C   0  0  0  0  0  0  0  0  0  0  0  0
  152.0422  139.6980  156.3249 C   0  0  0  0  0  0  0  0  0  0  0  0
  152.1487  140.4727  157.4253 N   0  0  0  0  0  0  0  0  0  0  0  0
  151.2510  141.4756  157.5956 C   0  0  0  0  0  0  0  0  0  0  0  0
  151.3432  142.2772  158.7162 O   0  0  0  0  0  0  0  0  0  0  0  0
  152.4752  143.1341  158.8806 C   0  0  2  0  0  0  0  0  0  0  0  0
  152.5318  143.7016  160.2931 C   0  0  0  0  0  0  0  0  0  0  0  0
  151.6639  144.9459  160.1800 C   0  0  0  0  0  0  0  0  0  0  0  0
  152.0246  145.4692  158.9132 O   0  0  0  0  0  0  0  0  0  0  0  0
  152.2512  144.3849  158.0174 C   0  0  0  0  0  0  0  0  0  0  0  0
  150.2214  141.7364  156.6683 C   0  0  0  0  0  0  0  0  0  0  0  0
  149.3599  140.2824  152.7098 H   0  0  0  0  0  0  0  0  0  0  0  0
  149.3520  139.2388  153.9503 H   0  0  0  0  0  0  0  0  0  0  0  0
  149.2286  142.0751  153.9421 H   0  0  0  0  0  0  0  0  0  0  0  0
  148.0744  141.3091  155.0161 H   0  0  0  0  0  0  0  0  0  0  0  0
  151.0006  139.2340  154.4809 H   0  0  0  0  0  0  0  0  0  0  0  0
  152.7708  138.9074  156.2233 H   0  0  0  0  0  0  0  0  0  0  0  0
  153.4025  142.6361  158.5925 H   0  0  0  0  0  0  0  0  0  0  0  0
  152.1863  143.0119  161.0631 H   0  0  0  0  0  0  0  0  0  0  0  0
  153.5553  143.9904  160.5346 H   0  0  0  0  0  0  0  0  0  0  0  0
  150.6048  144.6835  160.1808 H   0  0  0  0  0  0  0  0  0  0  0  0
  151.8447  145.6640  160.9798 H   0  0  0  0  0  0  0  0  0  0  0  0
  153.1224  144.6070  157.4009 H   0  0  0  0  0  0  0  0  0  0  0  0
  151.3956  144.2659  157.3515 H   0  0  0  0  0  0  0  0  0  0  0  0
  149.5235  142.5429  156.8394 H   0  0  0  0  0  0  0  0  0  0  0  0
  1  2  1  0  0  0  0
  1 15  1  0  0  0  0
  1 16  1  0  0  0  0
  2  3  1  0  0  0  0
  2 17  1  0  0  0  0
  2 18  1  0  0  0  0
  3 14  1  0  0  0  0
  3  4  2  0  0  0  0
  4  5  1  0  0  0  0
  4 19  1  0  0  0  0
  5  6  2  0  0  0  0
  5 20  1  0  0  0  0
  6  7  1  0  0  0  0
  7  8  1  0  0  0  0
  7 14  2  0  0  0  0
  8  9  1  0  0  0  0
  9 13  1  0  0  0  0
  9 10  1  0  0  0  0
  9 21  1  0  0  0  0
 10 11  1  0  0  0  0
 10 22  1  0  0  0  0
 10 23  1  0  0  0  0
 11 12  1  0  0  0  0
 11 24  1  0  0  0  0
 11 25  1  0  0  0  0
 12 13  1  0  0  0  0
 13 26  1  0  0  0  0
 13 27  1  0  0  0  0
 14 28  1  0  0  0  0
M  END
> <s_m_source_file>
AV-unprocessed.smi

> <i_m_source_file_index>
3091

> <i_lp_mmshare_version>
43012

> <i_f3d_flags>
0

> <s_epik_input>
W05IMl1bQ0gyXWMxW2NIXVtjSF1uYyhbY0hdMSlPW0NAQEhdMltDSDJdW0NIMl1PW0NIMl0y

> <s_epik_cmdline>
J2VwaWtfcHl0aG9uJywgJy1waCcsICc3LjAnLCAnLXRuJywgJzgnLCAnLW1hJywgJzIwMCcsICctbWV0YWxfYmluZGluZycsICctaW1hZScsICc8aW5maWxlLm1hZT4nLCAnLW9tYWUnLCAnPG91dGZpbGUubWFlPic=

> <r_lp_tautomer_probability>
1

> <r_epik_Ionization_Penalty>
1.24495

> <r_epik_Ionization_Penalty_Charging>
0

> <r_epik_Ionization_Penalty_Neutral>
1.24495

> <r_epik_State_Penalty>
1.3141

> <r_epik_Charging_Adjusted_Penalty>
1.3141

> <i_epik_Tot_Q>
0

> <i_epik_Tot_abs_Q>
0

> <r_epik_Metal_State_Penalty>
1.31398

> <b_epik_Metal_Only>
0

> <s_lp_Force_Field>
OPLS_2005

> <r_lp_Energy>
14.7712

> <b_lp_Chiralities_Consistent>
1

> <s_lp_Variant>
AV-unprocessed.smi:3091-3

> <Gold.Version>
5.8.1

> <Gold.Id.Protein>
6NUR|6NUR_protein|mol2

> <Gold.PLP.Fitness>
37.7777

> <Gold.PLP.PLP>
-35.3919

> <Gold.PLP.part.hbond>
-1.6855

> <Gold.PLP.part.metal>
0.0000

> <Gold.PLP.part.buried>
-3.4361

> <Gold.PLP.part.nonpolar>
-30.7833

> <Gold.PLP.part.repulsive>
0.1078

> <Gold.PLP.ligand.clash>
0.0000

> <Gold.PLP.ligand.torsion>
0.3190

> <Gold.PLP.Chemscore.Hbond>
1.0000

> <Gold.PLP.Chemscore.CHOScore>
0.0000

> <Gold.PLP.Chemscore.Metal>
0.0000

> <Gold.Chemscore.Hbonds>
donor molecule, donor type, donor heavy atom, donor atom, acceptor molecule, acceptor atom, score
      L1  H     1    15       P1  7957  1.00

> <Gold.PLP.Chemscore.Internal.Correction>
0.0237

> <Gold.Rescore>
     Score         DG    S(hbond)    S(metal)    S(lipo)     H(rot)  DE(clash)    DE(int)     intcor
     14.59     -15.00       0.99        0.00      86.78       1.54       0.05       0.36       ----

> <Gold.Chemscore.Fitness>
14.5941

> <Gold.Chemscore.DG>
-15.0039

> <Gold.Chemscore.ZeroCoef>
-5.4800

> <Gold.Chemscore.Hbond>
0.9938

> <Gold.Chemscore.Metal>
0.0000

> <Gold.Chemscore.Lipo>
86.7804

> <Gold.Chemscore.Internal_Hbond>
0.0000

> <Gold.Chemscore.DEClash>
0.0482

> <Gold.Chemscore.DEInternal>
0.3617

> <Gold.Chemscore.Rot>
1.5424

> <Gold.Chemscore.Internal.Correction>
   9.000000E+99

> <Gold.Chemscore.Hbonds>
donor molecule, donor type, donor heavy atom, donor atom, acceptor molecule, acceptor atom, score
      L1  H     1    15       P1  7957  0.93

> <Gold.Chemscore.Hbond.Weighted>
-3.3192

> <Gold.Chemscore.Metal.Weighted>
-0.0000

> <Gold.Chemscore.Lipo.Weighted>
-10.1533

> <Gold.Chemscore.Internal_Hbond.Weighted>
0.0000

> <Gold.Chemscore.DEClash.Weighted>
0.0482

> <Gold.Chemscore.DEInternal.Weighted>
0.3617

> <Gold.Chemscore.Rot.Weighted>
3.9487

> <Gold.Chemscore.Internal.Correction.Weighted>
   9.000000E+99

> <Gold.Protein.RotatedTorsions>
[ 6907 6896 6895 6894 ] final  -53.56 input  -60.11 | X-H torsion
[ 7974 7965 7964 7962 ] final -130.62 input  175.53 | X-H torsion
[ 8008 7997 7996 7995 ] final  152.81 input   59.86 | X-H torsion
[ 10167 10162 10161 10158 ] final -130.22 input  -65.29 | X-H torsion
[ 10718 10713 10712 10709 ] final   -8.43 input   66.30 | X-H torsion
[ 10763 10752 10751 10750 ] final  -27.74 input  -60.55 | X-H torsion
[ 11005 11000 10999 10996 ] final   65.81 input  -57.11 | X-H torsion

> <Gold.Protein.ActiveResidues>
 VAL166  LYS551  ARG553  GLY616  TRP617  ASP618  TYR619  PRO620  LYS621  CYS622 
 ASP623  PHE694  ASN695  SER759  ASP760  ASP761  ALA762  ILE779  LEU786  VAL792 
 PHE793  MET794  SER795  GLU796  ALA797  LYS798  CYS799  TRP800  GLU811  SER814 

> <Gold.Protein.RotatedAtoms>
  150.8416  134.7710  159.6936 H   0  0  0  0  0  0  0  0  0  0  0  0  # atno 6907 bound_to 6896
  152.4502  134.5406  159.9848 H   0  0  0  0  0  0  0  0  0  0  0  0  # atno 6908 bound_to 6896
  151.5545  133.3374  159.2995 H   0  0  0  0  0  0  0  0  0  0  0  0  # atno 6909 bound_to 6896
  144.9457  140.7288  143.4819 H   0  0  0  0  0  0  0  0  0  0  0  0  # atno 7974 bound_to 7965
  156.2611  140.2010  156.6392 H   0  0  0  0  0  0  0  0  0  0  0  0  # atno 8008 bound_to 7997
  154.6622  140.0559  157.0100 H   0  0  0  0  0  0  0  0  0  0  0  0  # atno 8009 bound_to 7997
  155.1259  140.3229  155.4489 H   0  0  0  0  0  0  0  0  0  0  0  0  # atno 8010 bound_to 7997
  139.9316  143.6266  152.2528 H   0  0  0  0  0  0  0  0  0  0  0  0  # atno 10167 bound_to 10162
  156.7026  130.5098  149.5913 H   0  0  0  0  0  0  0  0  0  0  0  0  # atno 10718 bound_to 10713
  153.7371  135.6935  153.4975 H   0  0  0  0  0  0  0  0  0  0  0  0  # atno 10763 bound_to 10752
  153.2095  135.4408  155.0362 H   0  0  0  0  0  0  0  0  0  0  0  0  # atno 10764 bound_to 10752
  154.8233  135.3433  154.6898 H   0  0  0  0  0  0  0  0  0  0  0  0  # atno 10765 bound_to 10752
  139.9871  134.6651  156.0157 H   0  0  0  0  0  0  0  0  0  0  0  0  # atno 11005 bound_to 11000
  145.2922  139.1879  143.4734 LP  0  0  0  0  0  0  0  0  0  0  0  0  # atno 17320 bound_to 7965
  146.3302  140.2900  142.8615 LP  0  0  0  0  0  0  0  0  0  0  0  0  # atno 17321 bound_to 7965
  139.6778  144.7657  151.1664 LP  0  0  0  0  0  0  0  0  0  0  0  0  # atno 17342 bound_to 10162
  140.7636  143.5770  150.8935 LP  0  0  0  0  0  0  0  0  0  0  0  0  # atno 17343 bound_to 10162
  156.1717  130.6441  151.0846 LP  0  0  0  0  0  0  0  0  0  0  0  0  # atno 17370 bound_to 10713
  157.6967  131.0791  150.6947 LP  0  0  0  0  0  0  0  0  0  0  0  0  # atno 17371 bound_to 10713
  141.1534  133.6545  156.4084 LP  0  0  0  0  0  0  0  0  0  0  0  0  # atno 17394 bound_to 11000
  140.4981  134.6511  157.5238 LP  0  0  0  0  0  0  0  0  0  0  0  0  # atno 17395 bound_to 11000

$$$$
