AV-unprocessed.smi:153|AV-procd|sdf|1260|dock1
  -GOLD-   2262018503D 1   1.00000     0.00000
 Structure written by MMmdl.
 59 62  0  0  0  0  0  0  0  0  1 V2000
  145.8387  131.2727  150.1154 C   0  0  0  0  0  0  0  0  0  0  0  0
  145.6554  132.7925  150.2949 C   0  0  2  0  0  0  0  0  0  0  0  0
  146.0979  133.1252  151.6064 O   0  0  0  0  0  0  0  0  0  0  0  0
  145.0030  133.1151  152.5186 C   0  0  0  0  0  0  0  0  0  0  0  0
  143.7301  133.0252  151.6728 C   0  0  0  0  0  0  0  0  0  0  0  0
  144.1985  133.2995  150.2465 C   0  0  2  0  0  0  0  0  0  0  0  0
  143.4114  132.5508  149.3387 O   0  0  0  0  0  0  0  0  0  0  0  0
  144.0657  134.7851  149.8104 C   0  0  0  0  0  0  0  0  0  0  0  0
  144.6212  135.7514  150.7458 N   0  0  0  0  0  0  0  0  0  0  0  0
  145.7978  136.4480  150.6070 C   0  0  0  0  0  0  0  0  0  0  0  0
  146.0847  137.2481  151.5945 N   0  0  0  0  0  0  0  0  0  0  0  0
  145.0228  137.1128  152.4840 C   0  0  0  0  0  0  0  0  0  0  0  0
  144.6906  137.6799  153.7560 C   0  0  0  0  0  0  0  0  0  0  0  0
  145.4652  138.5633  154.4566 N   0  0  0  0  0  0  0  0  0  0  0  0
  144.8291  139.4001  155.4728 C   0  0  0  0  0  0  0  0  0  0  0  0
  146.9036  138.3388  154.5949 C   0  0  0  0  0  0  0  0  0  0  0  0
  147.7531  139.3859  153.8374 C   0  0  2  0  0  0  0  0  0  0  0  0
  147.2603  139.5597  152.5246 O   0  0  0  0  0  0  0  0  0  0  0  0
  149.2599  139.0490  153.7767 C   0  0  0  0  0  0  0  0  0  0  0  0
  150.0085  139.1292  155.0339 N   0  0  0  0  0  0  0  0  0  0  0  0
  150.1398  140.5151  155.4713 C   0  0  0  0  0  0  0  0  0  0  0  0
  150.9141  140.6318  156.7953 C   0  0  0  0  0  0  0  0  0  0  0  0
  152.1943  140.0257  156.6522 O   0  0  0  0  0  0  0  0  0  0  0  0
  152.1127  138.6568  156.2702 C   0  0  0  0  0  0  0  0  0  0  0  0
  151.3397  138.5332  154.9456 C   0  0  0  0  0  0  0  0  0  0  0  0
  143.5047  137.2914  154.3009 N   0  0  0  0  0  0  0  0  0  0  0  0
  142.7127  136.4149  153.6801 C   0  0  0  0  0  0  0  0  0  0  0  0
  142.9051  135.8015  152.5138 N   0  0  0  0  0  0  0  0  0  0  0  0
  144.0828  136.1838  151.9457 C   0  0  0  0  0  0  0  0  0  0  0  0
  145.5555  130.9540  149.1121 H   0  0  0  0  0  0  0  0  0  0  0  0
  145.2420  130.7033  150.8282 H   0  0  0  0  0  0  0  0  0  0  0  0
  146.8818  130.9922  150.2617 H   0  0  0  0  0  0  0  0  0  0  0  0
  146.2748  133.2999  149.5553 H   0  0  0  0  0  0  0  0  0  0  0  0
  145.0842  132.2671  153.1989 H   0  0  0  0  0  0  0  0  0  0  0  0
  145.0256  134.0267  153.1160 H   0  0  0  0  0  0  0  0  0  0  0  0
  143.3314  132.0126  151.7533 H   0  0  0  0  0  0  0  0  0  0  0  0
  142.9452  133.7022  152.0090 H   0  0  0  0  0  0  0  0  0  0  0  0
  142.6089  133.0233  149.1771 H   0  0  0  0  0  0  0  0  0  0  0  0
  144.5567  134.9338  148.8475 H   0  0  0  0  0  0  0  0  0  0  0  0
  143.0157  135.0348  149.6525 H   0  0  0  0  0  0  0  0  0  0  0  0
  146.4475  136.3368  149.7513 H   0  0  0  0  0  0  0  0  0  0  0  0
  144.0371  140.0087  155.0349 H   0  0  0  0  0  0  0  0  0  0  0  0
  145.5481  140.0796  155.9303 H   0  0  0  0  0  0  0  0  0  0  0  0
  144.4009  138.7853  156.2654 H   0  0  0  0  0  0  0  0  0  0  0  0
  147.1614  138.3103  155.6508 H   0  0  0  0  0  0  0  0  0  0  0  0
  147.1515  137.3377  154.2402 H   0  0  0  0  0  0  0  0  0  0  0  0
  147.6700  140.3570  154.3269 H   0  0  0  0  0  0  0  0  0  0  0  0
  147.9251  139.9928  152.0119 H   0  0  0  0  0  0  0  0  0  0  0  0
  149.4078  138.0738  153.3099 H   0  0  0  0  0  0  0  0  0  0  0  0
  149.7023  139.7663  153.0837 H   0  0  0  0  0  0  0  0  0  0  0  0
  150.6507  141.0983  154.7034 H   0  0  0  0  0  0  0  0  0  0  0  0
  149.1515  140.9598  155.5940 H   0  0  0  0  0  0  0  0  0  0  0  0
  151.0440  141.6793  157.0676 H   0  0  0  0  0  0  0  0  0  0  0  0
  150.3651  140.1540  157.6080 H   0  0  0  0  0  0  0  0  0  0  0  0
  153.1205  138.2561  156.1601 H   0  0  0  0  0  0  0  0  0  0  0  0
  151.6230  138.0815  157.0577 H   0  0  0  0  0  0  0  0  0  0  0  0
  151.2655  137.4774  154.6886 H   0  0  0  0  0  0  0  0  0  0  0  0
  151.9087  139.0125  154.1474 H   0  0  0  0  0  0  0  0  0  0  0  0
  141.7960  136.1672  154.1944 H   0  0  0  0  0  0  0  0  0  0  0  0
  1  2  1  0  0  0  0
  1 30  1  0  0  0  0
  1 31  1  0  0  0  0
  1 32  1  0  0  0  0
  2  6  1  0  0  0  0
  2  3  1  0  0  0  0
  2 33  1  0  0  0  0
  3  4  1  0  0  0  0
  4  5  1  0  0  0  0
  4 34  1  0  0  0  0
  4 35  1  0  0  0  0
  5  6  1  0  0  0  0
  5 36  1  0  0  0  0
  5 37  1  0  0  0  0
  6  7  1  0  0  0  0
  6  8  1  0  0  0  0
  7 38  1  0  0  0  0
  8  9  1  0  0  0  0
  8 39  1  0  0  0  0
  8 40  1  0  0  0  0
  9 29  1  0  0  0  0
  9 10  1  0  0  0  0
 10 11  2  0  0  0  0
 10 41  1  0  0  0  0
 11 12  1  0  0  0  0
 12 29  2  0  0  0  0
 12 13  1  0  0  0  0
 13 14  1  0  0  0  0
 13 26  2  0  0  0  0
 14 15  1  0  0  0  0
 14 16  1  0  0  0  0
 15 42  1  0  0  0  0
 15 43  1  0  0  0  0
 15 44  1  0  0  0  0
 16 17  1  0  0  0  0
 16 45  1  0  0  0  0
 16 46  1  0  0  0  0
 17 18  1  0  0  0  0
 17 19  1  0  0  0  0
 17 47  1  0  0  0  0
 18 48  1  0  0  0  0
 19 20  1  0  0  0  0
 19 49  1  0  0  0  0
 19 50  1  0  0  0  0
 20 25  1  0  0  0  0
 20 21  1  0  0  0  0
 21 22  1  0  0  0  0
 21 51  1  0  0  0  0
 21 52  1  0  0  0  0
 22 23  1  0  0  0  0
 22 53  1  0  0  0  0
 22 54  1  0  0  0  0
 23 24  1  0  0  0  0
 24 25  1  0  0  0  0
 24 55  1  0  0  0  0
 24 56  1  0  0  0  0
 25 57  1  0  0  0  0
 25 58  1  0  0  0  0
 26 27  1  0  0  0  0
 27 28  2  0  0  0  0
 27 59  1  0  0  0  0
 28 29  1  0  0  0  0
M  END
> <s_m_source_file>
AV-unprocessed.smi

> <i_m_source_file_index>
153

> <i_lp_mmshare_version>
43012

> <i_f3d_flags>
0

> <s_epik_input>
W0NIMl0xW0NIMl1PW0NAQEhdKFtDSDNdKVtDQEBdMShbT0hdKVtDSDJdbihbY0hdbjIpYyhjMjMpbltjSF1uYzNOKFtDSDNdKVtDSDJdW0NASF0oW09IXSlbQ0gyXU40W0NIMl1bQ0gyXU9bQ0gyXVtDSDJdNA==

> <s_epik_cmdline>
J2VwaWtfcHl0aG9uJywgJy1waCcsICc3LjAnLCAnLXRuJywgJzgnLCAnLW1hJywgJzIwMCcsICctbWV0YWxfYmluZGluZycsICctaW1hZScsICc8aW5maWxlLm1hZT4nLCAnLW9tYWUnLCAnPG91dGZpbGUubWFlPic=

> <r_lp_tautomer_probability>
1

> <r_epik_Ionization_Penalty>
0.424123

> <r_epik_Ionization_Penalty_Charging>
0

> <r_epik_Ionization_Penalty_Neutral>
0.424123

> <r_epik_State_Penalty>
0.421495

> <r_epik_Charging_Adjusted_Penalty>
0.421495

> <i_epik_Tot_Q>
0

> <i_epik_Tot_abs_Q>
0

> <r_epik_Metal_State_Penalty>
0.421223

> <b_epik_Metal_Only>
0

> <s_lp_Force_Field>
OPLS_2005

> <r_lp_Energy>
59.2369

> <b_lp_Chiralities_Consistent>
1

> <s_lp_Variant>
AV-unprocessed.smi:153-11

> <Gold.Version>
5.8.1

> <Gold.Id.Protein>
6NUR|6NUR_protein|mol2

> <Gold.PLP.Fitness>
47.3778

> <Gold.PLP.PLP>
-37.3156

> <Gold.PLP.part.hbond>
-3.0000

> <Gold.PLP.part.metal>
0.0000

> <Gold.PLP.part.buried>
2.5412

> <Gold.PLP.part.nonpolar>
-37.8123

> <Gold.PLP.part.repulsive>
1.8790

> <Gold.PLP.ligand.clash>
0.0000

> <Gold.PLP.ligand.torsion>
1.1370

> <Gold.PLP.Chemscore.Hbond>
2.9100

> <Gold.PLP.Chemscore.CHOScore>
0.8796

> <Gold.PLP.Chemscore.Metal>
0.0000

> <Gold.Chemscore.Hbonds>
donor molecule, donor type, donor heavy atom, donor atom, acceptor molecule, acceptor atom, score
      L1  H     7    38       P1 10186  0.70
      L1  H    18    48       P1  7957  1.00
      P1  H  7997  8009       L1    23  0.44
      L1  C    10    41       P1  7921  0.84

> <Gold.PLP.Chemscore.Internal.Correction>
0.9673

> <Gold.Rescore>
     Score         DG    S(hbond)    S(metal)    S(lipo)     H(rot)  DE(clash)    DE(int)     intcor
     12.66     -16.51       2.87        0.00      89.29       3.52       2.39       1.46       ----

> <Gold.Chemscore.Fitness>
12.6622

> <Gold.Chemscore.DG>
-16.5144

> <Gold.Chemscore.ZeroCoef>
-5.4800

> <Gold.Chemscore.Hbond>
2.8716

> <Gold.Chemscore.Metal>
0.0000

> <Gold.Chemscore.Lipo>
89.2888

> <Gold.Chemscore.Internal_Hbond>
0.0000

> <Gold.Chemscore.DEClash>
2.3949

> <Gold.Chemscore.DEInternal>
1.4573

> <Gold.Chemscore.Rot>
3.5170

> <Gold.Chemscore.Internal.Correction>
   9.000000E+99

> <Gold.Chemscore.Hbonds>
donor molecule, donor type, donor heavy atom, donor atom, acceptor molecule, acceptor atom, score
      L1  H     7    38       P1 10186  0.68
      L1  H    18    48       P1  7957  0.97
      P1  H  7997  8009       L1    23  0.05
      P1  H 10785 10796       L1     7  0.02

> <Gold.Chemscore.Hbond.Weighted>
-9.5912

> <Gold.Chemscore.Metal.Weighted>
-0.0000

> <Gold.Chemscore.Lipo.Weighted>
-10.4468

> <Gold.Chemscore.Internal_Hbond.Weighted>
0.0000

> <Gold.Chemscore.DEClash.Weighted>
2.3949

> <Gold.Chemscore.DEInternal.Weighted>
1.4573

> <Gold.Chemscore.Rot.Weighted>
9.0036

> <Gold.Chemscore.Internal.Correction.Weighted>
   9.000000E+99

> <Gold.Protein.RotatedTorsions>
[ 6907 6896 6895 6894 ] final  -27.49 input  -60.11 | X-H torsion
[ 7974 7965 7964 7962 ] final -132.46 input  175.53 | X-H torsion
[ 8008 7997 7996 7995 ] final -158.09 input   59.86 | X-H torsion
[ 10167 10162 10161 10158 ] final   88.74 input  -65.29 | X-H torsion
[ 10718 10713 10712 10709 ] final  156.76 input   66.30 | X-H torsion
[ 10763 10752 10751 10750 ] final   35.46 input  -60.55 | X-H torsion
[ 11005 11000 10999 10996 ] final -109.22 input  -57.11 | X-H torsion

> <Gold.Protein.ActiveResidues>
 VAL166  LYS551  ARG553  GLY616  TRP617  ASP618  TYR619  PRO620  LYS621  CYS622 
 ASP623  PHE694  ASN695  SER759  ASP760  ASP761  ALA762  ILE779  LEU786  VAL792 
 PHE793  MET794  SER795  GLU796  ALA797  LYS798  CYS799  TRP800  GLU811  SER814 

> <Gold.Protein.RotatedAtoms>
  151.1462  135.0204  159.8647 H   0  0  0  0  0  0  0  0  0  0  0  0  # atno 6907 bound_to 6896
  152.5453  134.1441  159.8501 H   0  0  0  0  0  0  0  0  0  0  0  0  # atno 6908 bound_to 6896
  151.1522  133.4854  159.2628 H   0  0  0  0  0  0  0  0  0  0  0  0  # atno 6909 bound_to 6896
  144.9284  140.7099  143.4921 H   0  0  0  0  0  0  0  0  0  0  0  0  # atno 7974 bound_to 7965
  155.7423  140.0816  157.2240 H   0  0  0  0  0  0  0  0  0  0  0  0  # atno 8008 bound_to 7997
  154.4020  140.1575  156.2685 H   0  0  0  0  0  0  0  0  0  0  0  0  # atno 8009 bound_to 7997
  155.9009  140.3410  155.6028 H   0  0  0  0  0  0  0  0  0  0  0  0  # atno 8010 bound_to 7997
  139.8642  144.6527  150.9023 H   0  0  0  0  0  0  0  0  0  0  0  0  # atno 10167 bound_to 10162
  157.2007  131.0675  151.2027 H   0  0  0  0  0  0  0  0  0  0  0  0  # atno 10718 bound_to 10713
  153.0118  135.6332  154.1830 H   0  0  0  0  0  0  0  0  0  0  0  0  # atno 10763 bound_to 10752
  154.1572  135.2825  155.3120 H   0  0  0  0  0  0  0  0  0  0  0  0  # atno 10764 bound_to 10752
  154.6009  135.5587  153.7434 H   0  0  0  0  0  0  0  0  0  0  0  0  # atno 10765 bound_to 10752
  141.0859  133.9139  157.2185 H   0  0  0  0  0  0  0  0  0  0  0  0  # atno 11005 bound_to 11000
  145.3182  139.1797  143.4602 LP  0  0  0  0  0  0  0  0  0  0  0  0  # atno 17320 bound_to 7965
  146.3236  140.3196  142.8632 LP  0  0  0  0  0  0  0  0  0  0  0  0  # atno 17321 bound_to 7965
  140.7770  143.3718  151.1635 LP  0  0  0  0  0  0  0  0  0  0  0  0  # atno 17342 bound_to 10162
  139.7345  143.9021  152.3030 LP  0  0  0  0  0  0  0  0  0  0  0  0  # atno 17343 bound_to 10162
  157.3770  130.7211  149.6604 LP  0  0  0  0  0  0  0  0  0  0  0  0  # atno 17370 bound_to 10713
  155.9701  130.4183  150.4320 LP  0  0  0  0  0  0  0  0  0  0  0  0  # atno 17371 bound_to 10713
  139.9678  135.0137  156.9432 LP  0  0  0  0  0  0  0  0  0  0  0  0  # atno 17394 bound_to 11000
  140.5363  134.0764  155.7329 LP  0  0  0  0  0  0  0  0  0  0  0  0  # atno 17395 bound_to 11000

$$$$
