AV-unprocessed.smi:510|AV-procd|sdf|2763|dock3
  -GOLD-   2262023223D 1   1.00000     0.00000
 Structure written by MMmdl.
 29 30  0  0  0  0  0  0  0  0  2 V2000
  147.0112  140.2674  153.3344 C   0  0  0  0  0  0  0  0  0  0  0  0
  147.8873  141.2720  153.8139 O   0  0  0  0  0  0  0  0  0  0  0  0
  148.8722  140.7567  154.6934 C   0  0  0  0  0  0  0  0  0  0  0  0
  149.7889  141.9031  155.1365 C   0  0  0  0  0  0  0  0  0  0  0  0
  150.5847  141.5357  156.3028 N   0  0  0  0  0  0  0  0  0  0  0  0
  150.6997  142.2158  157.4706 C   0  0  0  0  0  0  0  0  0  0  0  0
  150.0271  143.4138  157.6642 N   0  0  0  0  0  0  0  0  0  0  0  0
  151.4939  141.6507  158.3799 N   0  0  0  0  0  0  0  0  0  0  0  0
  151.9325  140.5080  157.7247 C   0  0  0  0  0  0  0  0  0  0  0  0
  151.4082  140.4205  156.4729 C   0  0  0  0  0  0  0  0  0  0  0  0
  151.7074  139.3234  155.5294 C   0  0  0  0  0  0  0  0  0  0  0  0
  151.2172  139.3056  154.4022 O   0  0  0  0  0  0  0  0  0  0  0  0
  152.5624  138.3984  156.0705 N   0  5  0  0  0  0  0  0  0  0  0  0
  153.1126  138.4423  157.3346 C   0  0  0  0  0  0  0  0  0  0  0  0
  153.8744  137.5621  157.7360 O   0  0  0  0  0  0  0  0  0  0  0  0
  152.8112  139.4865  158.1725 N   0  0  0  0  0  0  0  0  0  0  0  0
  153.3530  139.6073  159.5293 C   0  0  0  0  0  0  0  0  0  0  0  0
  146.2753  140.7119  152.6645 H   0  0  0  0  0  0  0  0  0  0  0  0
  146.4747  139.7887  154.1546 H   0  0  0  0  0  0  0  0  0  0  0  0
  147.5549  139.5029  152.7780 H   0  0  0  0  0  0  0  0  0  0  0  0
  148.3969  140.2953  155.5606 H   0  0  0  0  0  0  0  0  0  0  0  0
  149.4551  139.9853  154.1874 H   0  0  0  0  0  0  0  0  0  0  0  0
  150.4541  142.1855  154.3201 H   0  0  0  0  0  0  0  0  0  0  0  0
  149.2091  142.7974  155.3625 H   0  0  0  0  0  0  0  0  0  0  0  0
  149.4382  143.8074  156.9447 H   0  0  0  0  0  0  0  0  0  0  0  0
  150.1049  143.9285  158.5292 H   0  0  0  0  0  0  0  0  0  0  0  0
  154.0045  138.7868  159.8308 H   0  0  0  0  0  0  0  0  0  0  0  0
  152.5362  139.6536  160.2501 H   0  0  0  0  0  0  0  0  0  0  0  0
  153.9290  140.5290  159.6161 H   0  0  0  0  0  0  0  0  0  0  0  0
  1  2  1  0  0  0  0
  1 18  1  0  0  0  0
  1 19  1  0  0  0  0
  1 20  1  0  0  0  0
  2  3  1  0  0  0  0
  3  4  1  0  0  0  0
  3 21  1  0  0  0  0
  3 22  1  0  0  0  0
  4  5  1  0  0  0  0
  4 23  1  0  0  0  0
  4 24  1  0  0  0  0
  5 10  1  0  0  0  0
  5  6  1  0  0  0  0
  6  7  1  0  0  0  0
  6  8  2  0  0  0  0
  7 25  1  0  0  0  0
  7 26  1  0  0  0  0
  8  9  1  0  0  0  0
  9 16  1  0  0  0  0
  9 10  2  0  0  0  0
 10 11  1  0  0  0  0
 11 12  2  0  0  0  0
 11 13  1  0  0  0  0
 13 14  1  0  0  0  0
 14 15  2  0  0  0  0
 14 16  1  0  0  0  0
 16 17  1  0  0  0  0
 17 27  1  0  0  0  0
 17 28  1  0  0  0  0
 17 29  1  0  0  0  0
M  CHG  1  13  -1
M  END
> <s_m_source_file>
AV-unprocessed.smi

> <i_m_source_file_index>
510

> <i_lp_mmshare_version>
43012

> <i_f3d_flags>
0

> <s_epik_input>
W0NIM11PW0NIMl1bQ0gyXW4oYyhuMSlbTkgyXSljKGMxMiljKD1PKVtuSF1jKD1PKW4yW0NIM10=

> <s_epik_cmdline>
J2VwaWtfcHl0aG9uJywgJy1waCcsICc3LjAnLCAnLXRuJywgJzgnLCAnLW1hJywgJzIwMCcsICctbWV0YWxfYmluZGluZycsICctaW1hZScsICc8aW5maWxlLm1hZT4nLCAnLW9tYWUnLCAnPG91dGZpbGUubWFlPic=

> <r_lp_tautomer_probability>
1

> <r_epik_Ionization_Penalty>
5.7178

> <r_epik_Ionization_Penalty_Charging>
1.59161e-08

> <r_epik_Ionization_Penalty_Neutral>
5.7178

> <r_epik_State_Penalty>
5.71748

> <r_epik_Charging_Adjusted_Penalty>
5.71748

> <i_epik_Tot_Q>
-1

> <i_epik_Tot_abs_Q>
1

> <r_epik_Metal_State_Penalty>
1.69653

> <b_epik_Metal_Only>
1

> <s_lp_Force_Field>
OPLS_2005

> <r_lp_Energy>
28.6626

> <b_lp_Chiralities_Consistent>
1

> <s_lp_Variant>
AV-unprocessed.smi:510-2

> <Gold.Version>
5.8.1

> <Gold.Id.Protein>
6NUR|6NUR_protein|mol2

> <Gold.PLP.Fitness>
31.2060

> <Gold.PLP.PLP>
-25.4230

> <Gold.PLP.part.hbond>
-2.0874

> <Gold.PLP.part.metal>
0.0000

> <Gold.PLP.part.buried>
-0.8891

> <Gold.PLP.part.nonpolar>
-21.4381

> <Gold.PLP.part.repulsive>
0.3222

> <Gold.PLP.ligand.clash>
0.0000

> <Gold.PLP.ligand.torsion>
0.1099

> <Gold.PLP.Chemscore.Hbond>
2.0000

> <Gold.PLP.Chemscore.CHOScore>
0.0000

> <Gold.PLP.Chemscore.Metal>
0.0000

> <Gold.Chemscore.Hbonds>
donor molecule, donor type, donor heavy atom, donor atom, acceptor molecule, acceptor atom, score
      L1  H     7    25       P1  8028  1.00
      P1  H  7989  7998       L1    12  1.00

> <Gold.PLP.Chemscore.Internal.Correction>
0.0029

> <Gold.Rescore>
     Score         DG    S(hbond)    S(metal)    S(lipo)     H(rot)  DE(clash)    DE(int)     intcor
      9.27     -10.96       1.77        0.00      34.96       1.77       0.20       1.48       ----

> <Gold.Chemscore.Fitness>
9.2732

> <Gold.Chemscore.DG>
-10.9594

> <Gold.Chemscore.ZeroCoef>
-5.4800

> <Gold.Chemscore.Hbond>
1.7697

> <Gold.Chemscore.Metal>
0.0000

> <Gold.Chemscore.Lipo>
34.9590

> <Gold.Chemscore.Internal_Hbond>
0.0000

> <Gold.Chemscore.DEClash>
0.2038

> <Gold.Chemscore.DEInternal>
1.4824

> <Gold.Chemscore.Rot>
1.7663

> <Gold.Chemscore.Internal.Correction>
   9.000000E+99

> <Gold.Chemscore.Hbonds>
donor molecule, donor type, donor heavy atom, donor atom, acceptor molecule, acceptor atom, score
      L1  H     7    25       P1  8028  0.82
      P1  H  7989  7998       L1    12  0.78

> <Gold.Chemscore.Hbond.Weighted>
-5.9109

> <Gold.Chemscore.Metal.Weighted>
-0.0000

> <Gold.Chemscore.Lipo.Weighted>
-4.0902

> <Gold.Chemscore.Internal_Hbond.Weighted>
0.0000

> <Gold.Chemscore.DEClash.Weighted>
0.2038

> <Gold.Chemscore.DEInternal.Weighted>
1.4824

> <Gold.Chemscore.Rot.Weighted>
4.5217

> <Gold.Chemscore.Internal.Correction.Weighted>
   9.000000E+99

> <Gold.Protein.RotatedTorsions>
[ 6907 6896 6895 6894 ] final  -34.68 input  -60.11 | X-H torsion
[ 7974 7965 7964 7962 ] final  -77.29 input  175.53 | X-H torsion
[ 8008 7997 7996 7995 ] final   89.80 input   59.86 | X-H torsion
[ 10167 10162 10161 10158 ] final  115.65 input  -65.29 | X-H torsion
[ 10718 10713 10712 10709 ] final  -90.68 input   66.30 | X-H torsion
[ 10763 10752 10751 10750 ] final   42.13 input  -60.55 | X-H torsion
[ 11005 11000 10999 10996 ] final  -48.25 input  -57.11 | X-H torsion

> <Gold.Protein.ActiveResidues>
 VAL166  LYS551  ARG553  GLY616  TRP617  ASP618  TYR619  PRO620  LYS621  CYS622 
 ASP623  PHE694  ASN695  SER759  ASP760  ASP761  ALA762  ILE779  LEU786  VAL792 
 PHE793  MET794  SER795  GLU796  ALA797  LYS798  CYS799  TRP800  GLU811  SER814 

> <Gold.Protein.RotatedAtoms>
  151.0495  134.9663  159.8203 H   0  0  0  0  0  0  0  0  0  0  0  0  # atno 6907 bound_to 6896
  152.5378  134.2556  159.8925 H   0  0  0  0  0  0  0  0  0  0  0  0  # atno 6908 bound_to 6896
  151.2571  133.4278  159.2648 H   0  0  0  0  0  0  0  0  0  0  0  0  # atno 6909 bound_to 6896
  145.6016  140.9407  143.1237 H   0  0  0  0  0  0  0  0  0  0  0  0  # atno 7974 bound_to 7965
  156.0043  140.3356  155.6877 H   0  0  0  0  0  0  0  0  0  0  0  0  # atno 8008 bound_to 7997
  155.6246  140.0678  157.2685 H   0  0  0  0  0  0  0  0  0  0  0  0  # atno 8009 bound_to 7997
  154.4260  140.1770  156.1396 H   0  0  0  0  0  0  0  0  0  0  0  0  # atno 8010 bound_to 7997
  139.6302  144.7114  151.2448 H   0  0  0  0  0  0  0  0  0  0  0  0  # atno 10167 bound_to 10162
  155.9989  130.4919  150.5359 H   0  0  0  0  0  0  0  0  0  0  0  0  # atno 10718 bound_to 10713
  152.9890  135.6141  154.2899 H   0  0  0  0  0  0  0  0  0  0  0  0  # atno 10763 bound_to 10752
  154.2625  135.2782  155.2774 H   0  0  0  0  0  0  0  0  0  0  0  0  # atno 10764 bound_to 10752
  154.5193  135.5819  153.6725 H   0  0  0  0  0  0  0  0  0  0  0  0  # atno 10765 bound_to 10752
  141.0690  133.6685  156.3414 H   0  0  0  0  0  0  0  0  0  0  0  0  # atno 11005 bound_to 11000
  144.7307  139.7734  143.7348 LP  0  0  0  0  0  0  0  0  0  0  0  0  # atno 17320 bound_to 7965
  146.1572  139.4673  143.0011 LP  0  0  0  0  0  0  0  0  0  0  0  0  # atno 17321 bound_to 7965
  140.7435  143.6494  150.8262 LP  0  0  0  0  0  0  0  0  0  0  0  0  # atno 17342 bound_to 10162
  140.0117  143.5635  152.2836 LP  0  0  0  0  0  0  0  0  0  0  0  0  # atno 17343 bound_to 10162
  157.3302  131.0698  151.1866 LP  0  0  0  0  0  0  0  0  0  0  0  0  # atno 17370 bound_to 10713
  157.2750  130.6722  149.6038 LP  0  0  0  0  0  0  0  0  0  0  0  0  # atno 17371 bound_to 10713
  140.5714  134.5836  157.5458 LP  0  0  0  0  0  0  0  0  0  0  0  0  # atno 17394 bound_to 11000
  139.9504  134.7627  156.0462 LP  0  0  0  0  0  0  0  0  0  0  0  0  # atno 17395 bound_to 11000

$$$$
