AV-unprocessed.smi:3303|AV-procd|sdf|12669|dock2
  -GOLD-   2272019 03D 1   1.00000     0.00000
 Structure written by MMmdl.
 45 46  0  0  0  0  0  0  0  0  3 V2000
  149.2251  140.8486  154.5891 C   0  0  0  0  0  0  0  0  0  0  0  0
  149.4406  139.3360  154.4121 C   0  0  2  0  0  0  0  0  0  0  0  0
  148.1513  138.5297  154.6694 C   0  0  0  0  0  0  0  0  0  0  0  0
  148.3581  137.0865  154.3868 N   0  3  2  0  0  0  0  0  0  0  0  0
  147.0965  136.3111  154.3985 C   0  0  0  0  0  0  0  0  0  0  0  0
  149.4600  136.4757  155.1845 C   0  0  2  0  0  0  0  0  0  0  0  0
  149.0965  136.2435  156.6678 C   0  0  0  0  0  0  0  0  0  0  0  0
  150.7715  137.2734  154.9947 C   0  0  0  0  0  0  0  0  0  0  0  0
  150.6273  138.7938  155.2411 C   0  0  2  0  0  0  0  0  0  0  0  0
  150.4922  139.1333  156.6791 N   0  3  0  0  0  0  0  0  0  0  0  0
  150.9040  140.5024  157.0520 C   0  0  0  0  0  0  0  0  0  0  0  0
  151.0493  140.6341  158.5737 C   0  0  0  0  0  0  0  0  0  0  0  0
  150.9349  142.0744  159.0348 C   0  0  0  0  0  0  0  0  0  0  0  0
  151.9777  142.6849  159.7636 C   0  0  0  0  0  0  0  0  0  0  0  0
  151.8148  144.0229  160.1729 C   0  0  0  0  0  0  0  0  0  0  0  0
  150.6220  144.6934  159.8398 C   0  0  0  0  0  0  0  0  0  0  0  0
  149.6403  143.9940  159.1098 C   0  0  0  0  0  0  0  0  0  0  0  0
  149.7861  142.7107  158.7134 N   0  0  0  0  0  0  0  0  0  0  0  0
  148.9031  141.0981  155.6005 H   0  0  0  0  0  0  0  0  0  0  0  0
  148.4608  141.2157  153.9035 H   0  0  0  0  0  0  0  0  0  0  0  0
  150.1415  141.4028  154.3833 H   0  0  0  0  0  0  0  0  0  0  0  0
  149.6979  139.1883  153.3618 H   0  0  0  0  0  0  0  0  0  0  0  0
  147.8011  138.6692  155.6927 H   0  0  0  0  0  0  0  0  0  0  0  0
  147.3593  138.9045  154.0192 H   0  0  0  0  0  0  0  0  0  0  0  0
  146.6045  136.3603  155.3704 H   0  0  0  0  0  0  0  0  0  0  0  0
  147.2825  135.2641  154.1571 H   0  0  0  0  0  0  0  0  0  0  0  0
  146.4040  136.7035  153.6532 H   0  0  0  0  0  0  0  0  0  0  0  0
  149.6391  135.4878  154.7575 H   0  0  0  0  0  0  0  0  0  0  0  0
  149.9554  135.8630  157.2215 H   0  0  0  0  0  0  0  0  0  0  0  0
  148.3038  135.5026  156.7726 H   0  0  0  0  0  0  0  0  0  0  0  0
  148.7609  137.1506  157.1677 H   0  0  0  0  0  0  0  0  0  0  0  0
  151.5700  136.8430  155.5981 H   0  0  0  0  0  0  0  0  0  0  0  0
  151.0971  137.1359  153.9625 H   0  0  0  0  0  0  0  0  0  0  0  0
  151.5326  139.2867  154.8833 H   0  0  0  0  0  0  0  0  0  0  0  0
  149.5163  139.0407  156.9237 H   0  0  0  0  0  0  0  0  0  0  0  0
  151.8522  140.7474  156.5740 H   0  0  0  0  0  0  0  0  0  0  0  0
  150.1633  141.2157  156.6877 H   0  0  0  0  0  0  0  0  0  0  0  0
  150.2893  140.0339  159.0762 H   0  0  0  0  0  0  0  0  0  0  0  0
  152.0147  140.2384  158.8937 H   0  0  0  0  0  0  0  0  0  0  0  0
  152.8817  142.1452  160.0054 H   0  0  0  0  0  0  0  0  0  0  0  0
  152.5905  144.5250  160.7320 H   0  0  0  0  0  0  0  0  0  0  0  0
  150.4628  145.7196  160.1367 H   0  0  0  0  0  0  0  0  0  0  0  0
  148.7136  144.4769  158.8379 H   0  0  0  0  0  0  0  0  0  0  0  0
  151.0223  138.4704  157.2264 H   0  0  0  0  0  0  0  0  0  0  0  0
  148.6769  137.0483  153.4287 H   0  0  0  0  0  0  0  0  0  0  0  0
  1  2  1  0  0  0  0
  1 19  1  0  0  0  0
  1 20  1  0  0  0  0
  1 21  1  0  0  0  0
  2  9  1  0  0  0  0
  2  3  1  0  0  0  0
  2 22  1  0  0  0  0
  3  4  1  0  0  0  0
  3 23  1  0  0  0  0
  3 24  1  0  0  0  0
  4  5  1  0  0  0  0
  4  6  1  0  0  0  0
  4 45  1  0  0  0  0
  5 25  1  0  0  0  0
  5 26  1  0  0  0  0
  5 27  1  0  0  0  0
  6  7  1  0  0  0  0
  6  8  1  0  0  0  0
  6 28  1  0  0  0  0
  7 29  1  0  0  0  0
  7 30  1  0  0  0  0
  7 31  1  0  0  0  0
  8  9  1  0  0  0  0
  8 32  1  0  0  0  0
  8 33  1  0  0  0  0
  9 10  1  0  0  0  0
  9 34  1  0  0  0  0
 10 11  1  0  0  0  0
 10 35  1  0  0  0  0
 10 44  1  0  0  0  0
 11 12  1  0  0  0  0
 11 36  1  0  0  0  0
 11 37  1  0  0  0  0
 12 13  1  0  0  0  0
 12 38  1  0  0  0  0
 12 39  1  0  0  0  0
 13 18  1  0  0  0  0
 13 14  2  0  0  0  0
 14 15  1  0  0  0  0
 14 40  1  0  0  0  0
 15 16  2  0  0  0  0
 15 41  1  0  0  0  0
 16 17  1  0  0  0  0
 16 42  1  0  0  0  0
 17 18  2  0  0  0  0
 17 43  1  0  0  0  0
M  CHG  1   4   1
M  CHG  1  10   1
M  END
> <s_m_source_file>
AV-unprocessed.smi

> <i_m_source_file_index>
3303

> <i_lp_mmshare_version>
43012

> <i_f3d_flags>
0

> <s_epik_input>
W0NIM11bQ0BASF0xW0NIMl1OKFtDSDNdKVtDQEBIXShbQ0gzXSlbQ0gyXVtDQEhdMVtOSF1bQ0gyXVtDSDJdYzJbY0hdW2NIXVtjSF1bY0hdbjI=

> <s_epik_cmdline>
J2VwaWtfcHl0aG9uJywgJy1waCcsICc3LjAnLCAnLXRuJywgJzgnLCAnLW1hJywgJzIwMCcsICctbWV0YWxfYmluZGluZycsICctaW1hZScsICc8aW5maWxlLm1hZT4nLCAnLW9tYWUnLCAnPG91dGZpbGUubWFlPic=

> <r_epik_Ionization_Penalty>
0.0769462

> <r_epik_Ionization_Penalty_Charging>
0.0759813

> <r_epik_Ionization_Penalty_Neutral>
0.000964829

> <r_epik_State_Penalty>
0.0654373

> <r_epik_Charging_Adjusted_Penalty>
0.141419

> <i_epik_Tot_Q>
2

> <i_epik_Tot_abs_Q>
2

> <r_epik_Metal_State_Penalty>
0.0656439

> <b_epik_Metal_Only>
0

> <s_lp_Force_Field>
OPLS_2005

> <r_lp_Energy>
33.2062

> <b_lp_Chiralities_Consistent>
1

> <s_lp_Variant>
AV-unprocessed.smi:3303-13

> <Gold.Version>
5.8.1

> <Gold.Id.Protein>
6NUR|6NUR_protein|mol2

> <Gold.PLP.Fitness>
43.8157

> <Gold.PLP.PLP>
-35.5783

> <Gold.PLP.part.hbond>
-1.0000

> <Gold.PLP.part.metal>
0.0000

> <Gold.PLP.part.buried>
-4.3359

> <Gold.PLP.part.nonpolar>
-31.3933

> <Gold.PLP.part.repulsive>
0.2041

> <Gold.PLP.ligand.clash>
0.0000

> <Gold.PLP.ligand.torsion>
0.3977

> <Gold.PLP.Chemscore.Hbond>
2.0000

> <Gold.PLP.Chemscore.CHOScore>
0.9981

> <Gold.PLP.Chemscore.Metal>
0.0000

> <Gold.Chemscore.Hbonds>
donor molecule, donor type, donor heavy atom, donor atom, acceptor molecule, acceptor atom, score
      L1  H     4    45       P1  7948  2.00
      L1  C    17    43       P1  8029  1.00

> <Gold.PLP.Chemscore.Internal.Correction>
0.0387

> <Gold.Rescore>
     Score         DG    S(hbond)    S(metal)    S(lipo)     H(rot)  DE(clash)    DE(int)     intcor
     18.01     -18.89       1.00        0.00     116.16       1.37       0.12       0.76       ----

> <Gold.Chemscore.Fitness>
18.0099

> <Gold.Chemscore.DG>
-18.8879

> <Gold.Chemscore.ZeroCoef>
-5.4800

> <Gold.Chemscore.Hbond>
0.9985

> <Gold.Chemscore.Metal>
0.0000

> <Gold.Chemscore.Lipo>
116.1647

> <Gold.Chemscore.Internal_Hbond>
0.0000

> <Gold.Chemscore.DEClash>
0.1220

> <Gold.Chemscore.DEInternal>
0.7560

> <Gold.Chemscore.Rot>
1.3744

> <Gold.Chemscore.Internal.Correction>
   9.000000E+99

> <Gold.Chemscore.Hbonds>
donor molecule, donor type, donor heavy atom, donor atom, acceptor molecule, acceptor atom, score
      L1  H     4    45       P1  7948  0.98

> <Gold.Chemscore.Hbond.Weighted>
-3.3351

> <Gold.Chemscore.Metal.Weighted>
-0.0000

> <Gold.Chemscore.Lipo.Weighted>
-13.5913

> <Gold.Chemscore.Internal_Hbond.Weighted>
0.0000

> <Gold.Chemscore.DEClash.Weighted>
0.1220

> <Gold.Chemscore.DEInternal.Weighted>
0.7560

> <Gold.Chemscore.Rot.Weighted>
3.5185

> <Gold.Chemscore.Internal.Correction.Weighted>
   9.000000E+99

> <Gold.Protein.RotatedTorsions>
[ 6907 6896 6895 6894 ] final  161.94 input  -60.11 | X-H torsion
[ 7974 7965 7964 7962 ] final  137.52 input  175.53 | X-H torsion
[ 8008 7997 7996 7995 ] final -161.62 input   59.86 | X-H torsion
[ 10167 10162 10161 10158 ] final  -27.97 input  -65.29 | X-H torsion
[ 10718 10713 10712 10709 ] final  -83.41 input   66.30 | X-H torsion
[ 10763 10752 10751 10750 ] final   78.92 input  -60.55 | X-H torsion
[ 11005 11000 10999 10996 ] final  -45.99 input  -57.11 | X-H torsion

> <Gold.Protein.ActiveResidues>
 VAL166  LYS551  ARG553  GLY616  TRP617  ASP618  TYR619  PRO620  LYS621  CYS622 
 ASP623  PHE694  ASN695  SER759  ASP760  ASP761  ALA762  ILE779  LEU786  VAL792 
 PHE793  MET794  SER795  GLU796  ALA797  LYS798  CYS799  TRP800  GLU811  SER814 

> <Gold.Protein.RotatedAtoms>
  151.9479  133.3657  159.3988 H   0  0  0  0  0  0  0  0  0  0  0  0  # atno 6907 bound_to 6896
  150.6986  134.4371  159.5284 H   0  0  0  0  0  0  0  0  0  0  0  0  # atno 6908 bound_to 6896
  152.2039  134.8563  160.0555 H   0  0  0  0  0  0  0  0  0  0  0  0  # atno 6909 bound_to 6896
  144.9459  139.4875  143.5549 H   0  0  0  0  0  0  0  0  0  0  0  0  # atno 7974 bound_to 7965
  155.7949  140.0883  157.1989 H   0  0  0  0  0  0  0  0  0  0  0  0  # atno 8008 bound_to 7997
  154.3984  140.1483  156.3264 H   0  0  0  0  0  0  0  0  0  0  0  0  # atno 8009 bound_to 7997
  155.8522  140.3434  155.5703 H   0  0  0  0  0  0  0  0  0  0  0  0  # atno 8010 bound_to 7997
  140.7273  143.4048  151.1203 H   0  0  0  0  0  0  0  0  0  0  0  0  # atno 10167 bound_to 10162
  156.0019  130.4665  150.4253 H   0  0  0  0  0  0  0  0  0  0  0  0  # atno 10718 bound_to 10713
  153.0912  135.4859  154.8692 H   0  0  0  0  0  0  0  0  0  0  0  0  # atno 10763 bound_to 10752
  154.7271  135.3052  154.8955 H   0  0  0  0  0  0  0  0  0  0  0  0  # atno 10764 bound_to 10752
  153.9602  135.6813  153.4798 H   0  0  0  0  0  0  0  0  0  0  0  0  # atno 10765 bound_to 10752
  141.0551  133.6729  156.3091 H   0  0  0  0  0  0  0  0  0  0  0  0  # atno 11005 bound_to 11000
  146.3303  139.8512  142.8873 LP  0  0  0  0  0  0  0  0  0  0  0  0  # atno 17320 bound_to 7965
  145.2918  141.0169  143.3659 LP  0  0  0  0  0  0  0  0  0  0  0  0  # atno 17321 bound_to 7965
  139.7673  143.8546  152.3113 LP  0  0  0  0  0  0  0  0  0  0  0  0  # atno 17342 bound_to 10162
  139.8452  144.7191  150.9281 LP  0  0  0  0  0  0  0  0  0  0  0  0  # atno 17343 bound_to 10162
  157.2306  131.0503  151.2494 LP  0  0  0  0  0  0  0  0  0  0  0  0  # atno 17370 bound_to 10713
  157.3714  130.7183  149.6568 LP  0  0  0  0  0  0  0  0  0  0  0  0  # atno 17371 bound_to 10713
  140.5980  134.5583  157.5512 LP  0  0  0  0  0  0  0  0  0  0  0  0  # atno 17394 bound_to 11000
  139.9383  134.7834  156.0745 LP  0  0  0  0  0  0  0  0  0  0  0  0  # atno 17395 bound_to 11000

$$$$
