AV-unprocessed.smi:702|AV-procd|sdf|3422|dock6
  -GOLD-   22720 0403D 1   1.00000     0.00000
 Structure written by MMmdl.
 50 52  0  0  0  0  0  0  0  0  2 V2000
  149.6960  135.6316  156.2561 C   0  0  0  0  0  0  0  0  0  0  0  0
  149.0327  136.9185  155.7141 C   0  0  2  0  0  0  0  0  0  0  0  0
  148.3252  136.5893  154.4710 N   0  0  0  0  0  0  0  0  0  0  0  0
  147.0593  136.1568  154.3758 C   0  0  0  0  0  0  0  0  0  0  0  0
  146.3226  135.9846  155.3466 O   0  0  0  0  0  0  0  0  0  0  0  0
  146.7208  135.9193  153.0967 N   0  0  0  0  0  0  0  0  0  0  0  0
  145.4785  135.4497  152.5907 C   0  0  0  0  0  0  0  0  0  0  0  0
  145.3574  135.2828  151.1933 C   0  0  0  0  0  0  0  0  0  0  0  0
  144.1367  134.8323  150.6501 C   0  0  0  0  0  0  0  0  0  0  0  0
  143.0914  134.5760  151.4657 N   0  3  0  0  0  0  0  0  0  0  0  0
  143.1541  134.7366  152.8050 C   0  0  0  0  0  0  0  0  0  0  0  0
  144.3488  135.1834  153.4056 C   0  0  0  0  0  0  0  0  0  0  0  0
  150.0265  138.1272  155.5280 C   0  0  0  0  0  0  0  0  0  0  0  0
  149.2958  139.4087  155.2738 N   0  0  0  0  0  0  0  0  0  0  0  0
  150.0757  140.6344  155.5110 C   0  0  0  0  0  0  0  0  0  0  0  0
  149.2172  141.9023  155.3748 C   0  0  0  0  0  0  0  0  0  0  0  0
  148.6405  141.9453  154.0759 O   0  0  0  0  0  0  0  0  0  0  0  0
  147.8356  140.8053  153.8037 C   0  0  0  0  0  0  0  0  0  0  0  0
  148.6755  139.5236  153.9447 C   0  0  0  0  0  0  0  0  0  0  0  0
  150.9306  138.2119  156.8053 C   0  0  0  0  0  0  0  0  0  0  0  0
  152.3569  137.8321  156.3975 C   0  0  0  0  0  0  0  0  0  0  0  0
  152.4358  138.1345  154.9095 C   0  0  0  0  0  0  0  0  0  0  0  0
  151.0398  137.8001  154.3842 C   0  0  0  0  0  0  0  0  0  0  0  0
  150.1898  135.7944  157.2135 H   0  0  0  0  0  0  0  0  0  0  0  0
  150.4422  135.2346  155.5687 H   0  0  0  0  0  0  0  0  0  0  0  0
  148.9535  134.8490  156.4149 H   0  0  0  0  0  0  0  0  0  0  0  0
  148.2689  137.2240  156.4297 H   0  0  0  0  0  0  0  0  0  0  0  0
  148.8530  136.6982  153.6173 H   0  0  0  0  0  0  0  0  0  0  0  0
  147.4599  136.0175  152.4158 H   0  0  0  0  0  0  0  0  0  0  0  0
  146.1932  135.4893  150.5403 H   0  0  0  0  0  0  0  0  0  0  0  0
  143.9660  134.6719  149.5955 H   0  0  0  0  0  0  0  0  0  0  0  0
  142.2508  134.5101  153.3524 H   0  0  0  0  0  0  0  0  0  0  0  0
  144.3733  135.3246  154.4755 H   0  0  0  0  0  0  0  0  0  0  0  0
  150.5298  140.6444  156.4984 H   0  0  0  0  0  0  0  0  0  0  0  0
  150.8976  140.7005  154.7980 H   0  0  0  0  0  0  0  0  0  0  0  0
  148.4332  141.9234  156.1334 H   0  0  0  0  0  0  0  0  0  0  0  0
  149.8298  142.7918  155.5212 H   0  0  0  0  0  0  0  0  0  0  0  0
  146.9829  140.7822  154.4840 H   0  0  0  0  0  0  0  0  0  0  0  0
  147.4357  140.8864  152.7930 H   0  0  0  0  0  0  0  0  0  0  0  0
  149.4373  139.5110  153.1657 H   0  0  0  0  0  0  0  0  0  0  0  0
  148.0108  138.6868  153.7432 H   0  0  0  0  0  0  0  0  0  0  0  0
  150.9292  139.2025  157.2543 H   0  0  0  0  0  0  0  0  0  0  0  0
  150.6020  137.5646  157.6176 H   0  0  0  0  0  0  0  0  0  0  0  0
  153.1131  138.3662  156.9732 H   0  0  0  0  0  0  0  0  0  0  0  0
  152.5116  136.7646  156.5590 H   0  0  0  0  0  0  0  0  0  0  0  0
  152.6514  139.1924  154.7591 H   0  0  0  0  0  0  0  0  0  0  0  0
  153.2182  137.5645  154.4078 H   0  0  0  0  0  0  0  0  0  0  0  0
  151.0232  136.7416  154.1253 H   0  0  0  0  0  0  0  0  0  0  0  0
  150.8386  138.3220  153.4498 H   0  0  0  0  0  0  0  0  0  0  0  0
  142.2164  134.2520  151.0525 H   0  0  0  0  0  0  0  0  0  0  0  0
  1  2  1  0  0  0  0
  1 24  1  0  0  0  0
  1 25  1  0  0  0  0
  1 26  1  0  0  0  0
  2  3  1  0  0  0  0
  2 13  1  0  0  0  0
  2 27  1  0  0  0  0
  3  4  1  0  0  0  0
  3 28  1  0  0  0  0
  4  5  2  0  0  0  0
  4  6  1  0  0  0  0
  6  7  1  0  0  0  0
  6 29  1  0  0  0  0
  7 12  1  0  0  0  0
  7  8  2  0  0  0  0
  8  9  1  0  0  0  0
  8 30  1  0  0  0  0
  9 10  2  0  0  0  0
  9 31  1  0  0  0  0
 10 11  1  0  0  0  0
 10 50  1  0  0  0  0
 11 12  2  0  0  0  0
 11 32  1  0  0  0  0
 12 33  1  0  0  0  0
 13 23  1  0  0  0  0
 13 14  1  0  0  0  0
 13 20  1  0  0  0  0
 14 19  1  0  0  0  0
 14 15  1  0  0  0  0
 15 16  1  0  0  0  0
 15 34  1  0  0  0  0
 15 35  1  0  0  0  0
 16 17  1  0  0  0  0
 16 36  1  0  0  0  0
 16 37  1  0  0  0  0
 17 18  1  0  0  0  0
 18 19  1  0  0  0  0
 18 38  1  0  0  0  0
 18 39  1  0  0  0  0
 19 40  1  0  0  0  0
 19 41  1  0  0  0  0
 20 21  1  0  0  0  0
 20 42  1  0  0  0  0
 20 43  1  0  0  0  0
 21 22  1  0  0  0  0
 21 44  1  0  0  0  0
 21 45  1  0  0  0  0
 22 23  1  0  0  0  0
 22 46  1  0  0  0  0
 22 47  1  0  0  0  0
 23 48  1  0  0  0  0
 23 49  1  0  0  0  0
M  CHG  1  10   1
M  END
> <s_m_source_file>
AV-unprocessed.smi

> <i_m_source_file_index>
702

> <i_lp_mmshare_version>
43012

> <i_f3d_flags>
0

> <s_epik_input>
W0NIMl0xW0NIMl1PW0NIMl1bQ0gyXU4xQzIoW0NIMl1bQ0gyXVtDSDJdW0NIMl0yKVtDQEhdKFtDSDNdKVtOSF1DKD1PKVtOSF1jM1tjSF1bY0hdbltjSF1bY0hdMw==

> <s_epik_cmdline>
J2VwaWtfcHl0aG9uJywgJy1waCcsICc3LjAnLCAnLXRuJywgJzgnLCAnLW1hJywgJzIwMCcsICctbWV0YWxfYmluZGluZycsICctaW1hZScsICc8aW5maWxlLm1hZT4nLCAnLW9tYWUnLCAnPG91dGZpbGUubWFlPic=

> <r_epik_Ionization_Penalty>
1.54019

> <r_epik_Ionization_Penalty_Charging>
1.02845

> <r_epik_Ionization_Penalty_Neutral>
0.511739

> <r_epik_State_Penalty>
1.62583

> <r_epik_Charging_Adjusted_Penalty>
2.65428

> <i_epik_Tot_Q>
1

> <i_epik_Tot_abs_Q>
1

> <r_epik_Metal_State_Penalty>
1.71803

> <b_epik_Metal_Only>
0

> <s_lp_Force_Field>
OPLS_2005

> <r_lp_Energy>
73.3397

> <b_lp_Chiralities_Consistent>
1

> <s_lp_Variant>
AV-unprocessed.smi:702-7

> <Gold.Version>
5.8.1

> <Gold.Id.Protein>
6NUR|6NUR_protein|mol2

> <Gold.PLP.Fitness>
39.0309

> <Gold.PLP.PLP>
-27.9143

> <Gold.PLP.part.hbond>
-3.8469

> <Gold.PLP.part.metal>
0.0000

> <Gold.PLP.part.buried>
1.2693

> <Gold.PLP.part.nonpolar>
-26.6406

> <Gold.PLP.part.repulsive>
0.2957

> <Gold.PLP.ligand.clash>
0.0000

> <Gold.PLP.ligand.torsion>
0.8553

> <Gold.PLP.Chemscore.Hbond>
4.2228

> <Gold.PLP.Chemscore.CHOScore>
0.0000

> <Gold.PLP.Chemscore.Metal>
0.0000

> <Gold.Chemscore.Hbonds>
donor molecule, donor type, donor heavy atom, donor atom, acceptor molecule, acceptor atom, score
      L1  H     3    28       P1  7948  0.91
      L1  H     6    29       P1  7948  1.00
      L1  H    10    50       P1 10186  1.37
      P1  H  8011  8017       L1    17  0.32

> <Gold.PLP.Chemscore.Internal.Correction>
0.1590

> <Gold.Rescore>
     Score         DG    S(hbond)    S(metal)    S(lipo)     H(rot)  DE(clash)    DE(int)     intcor
     16.43     -20.74       2.80        0.00      82.13       1.44       1.14       3.17       ----

> <Gold.Chemscore.Fitness>
16.4310

> <Gold.Chemscore.DG>
-20.7396

> <Gold.Chemscore.ZeroCoef>
-5.4800

> <Gold.Chemscore.Hbond>
2.7950

> <Gold.Chemscore.Metal>
0.0000

> <Gold.Chemscore.Lipo>
82.1293

> <Gold.Chemscore.Internal_Hbond>
0.0000

> <Gold.Chemscore.DEClash>
1.1427

> <Gold.Chemscore.DEInternal>
3.1659

> <Gold.Chemscore.Rot>
1.4394

> <Gold.Chemscore.Internal.Correction>
   9.000000E+99

> <Gold.Chemscore.Hbonds>
donor molecule, donor type, donor heavy atom, donor atom, acceptor molecule, acceptor atom, score
      L1  H     3    28       P1  7948  0.90
      L1  H     6    29       P1  7948  0.98
      L1  H    10    50       P1 10186  0.08
      P1  H  8011  8017       L1    17  0.24

> <Gold.Chemscore.Hbond.Weighted>
-9.3354

> <Gold.Chemscore.Metal.Weighted>
-0.0000

> <Gold.Chemscore.Lipo.Weighted>
-9.6091

> <Gold.Chemscore.Internal_Hbond.Weighted>
0.0000

> <Gold.Chemscore.DEClash.Weighted>
1.1427

> <Gold.Chemscore.DEInternal.Weighted>
3.1659

> <Gold.Chemscore.Rot.Weighted>
3.6848

> <Gold.Chemscore.Internal.Correction.Weighted>
   9.000000E+99

> <Gold.Protein.RotatedTorsions>
[ 6907 6896 6895 6894 ] final   77.70 input  -60.11 | X-H torsion
[ 7974 7965 7964 7962 ] final  -51.01 input  175.53 | X-H torsion
[ 8008 7997 7996 7995 ] final   68.07 input   59.86 | X-H torsion
[ 10167 10162 10161 10158 ] final  172.54 input  -65.29 | X-H torsion
[ 10718 10713 10712 10709 ] final -101.98 input   66.30 | X-H torsion
[ 10763 10752 10751 10750 ] final   12.92 input  -60.55 | X-H torsion
[ 11005 11000 10999 10996 ] final  115.99 input  -57.11 | X-H torsion

> <Gold.Protein.ActiveResidues>
 VAL166  LYS551  ARG553  GLY616  TRP617  ASP618  TYR619  PRO620  LYS621  CYS622 
 ASP623  PHE694  ASN695  SER759  ASP760  ASP761  ALA762  ILE779  LEU786  VAL792 
 PHE793  MET794  SER795  GLU796  ALA797  LYS798  CYS799  TRP800  GLU811  SER814 

> <Gold.Protein.RotatedAtoms>
  152.5129  134.3777  159.9339 H   0  0  0  0  0  0  0  0  0  0  0  0  # atno 6907 bound_to 6896
  151.3733  133.3841  159.2710 H   0  0  0  0  0  0  0  0  0  0  0  0  # atno 6908 bound_to 6896
  150.9561  134.8975  159.7760 H   0  0  0  0  0  0  0  0  0  0  0  0  # atno 6909 bound_to 6896
  145.9237  140.7811  142.9634 H   0  0  0  0  0  0  0  0  0  0  0  0  # atno 7974 bound_to 7965
  155.7026  140.3495  155.4940 H   0  0  0  0  0  0  0  0  0  0  0  0  # atno 8008 bound_to 7997
  155.9426  140.1104  157.1065 H   0  0  0  0  0  0  0  0  0  0  0  0  # atno 8009 bound_to 7997
  154.4106  140.1209  156.4934 H   0  0  0  0  0  0  0  0  0  0  0  0  # atno 8010 bound_to 7997
  139.5079  144.3363  152.0062 H   0  0  0  0  0  0  0  0  0  0  0  0  # atno 10167 bound_to 10162
  156.0213  130.5398  150.7041 H   0  0  0  0  0  0  0  0  0  0  0  0  # atno 10718 bound_to 10713
  153.1773  135.6822  153.8525 H   0  0  0  0  0  0  0  0  0  0  0  0  # atno 10763 bound_to 10752
  153.7869  135.3174  155.3374 H   0  0  0  0  0  0  0  0  0  0  0  0  # atno 10764 bound_to 10752
  154.8037  135.4762  154.0433 H   0  0  0  0  0  0  0  0  0  0  0  0  # atno 10765 bound_to 10752
  139.9027  134.9592  156.7130 H   0  0  0  0  0  0  0  0  0  0  0  0  # atno 11005 bound_to 11000
  144.6756  140.2016  143.7386 LP  0  0  0  0  0  0  0  0  0  0  0  0  # atno 17320 bound_to 7965
  145.8517  139.2179  143.1768 LP  0  0  0  0  0  0  0  0  0  0  0  0  # atno 17321 bound_to 7965
  140.2801  144.3869  150.6122 LP  0  0  0  0  0  0  0  0  0  0  0  0  # atno 17342 bound_to 10162
  140.6024  143.2167  151.7046 LP  0  0  0  0  0  0  0  0  0  0  0  0  # atno 17343 bound_to 10162
  157.4695  131.0891  151.0658 LP  0  0  0  0  0  0  0  0  0  0  0  0  # atno 17370 bound_to 10713
  157.1123  130.6027  149.5485 LP  0  0  0  0  0  0  0  0  0  0  0  0  # atno 17371 bound_to 10713
  140.7061  133.9264  155.8054 LP  0  0  0  0  0  0  0  0  0  0  0  0  # atno 17394 bound_to 11000
  141.0336  134.0722  157.3986 LP  0  0  0  0  0  0  0  0  0  0  0  0  # atno 17395 bound_to 11000

$$$$
