AV-unprocessed.smi:1914|AV-procd|sdf|7756|dock1
  -GOLD-   22720 9493D 1   1.00000     0.00000
 Structure written by MMmdl.
 44 45  0  0  0  0  0  0  0  0  2 V2000
  143.9573  135.0990  152.1468 C   0  0  0  0  0  0  0  0  0  0  0  0
  145.4174  134.6257  152.1750 C   0  0  2  0  0  0  0  0  0  0  0  0
  145.5439  133.1672  151.7043 C   0  0  0  0  0  0  0  0  0  0  0  0
  147.0076  132.7135  151.7684 C   0  0  0  0  0  0  0  0  0  0  0  0
  147.5872  132.9245  153.1761 C   0  0  0  0  0  0  0  0  0  0  0  0
  147.4565  134.3420  153.6024 N   0  3  2  0  0  0  0  0  0  0  0  0
  148.1311  134.5995  154.8998 C   0  0  0  0  0  0  0  0  0  0  0  0
  149.6409  134.2930  154.8514 C   0  0  0  0  0  0  0  0  0  0  0  0
  150.4000  135.4324  154.3498 N   0  0  0  0  0  0  0  0  0  0  0  0
  150.3629  136.6685  154.8701 C   0  0  0  0  0  0  0  0  0  0  0  0
  149.6853  136.9625  155.8559 O   0  0  0  0  0  0  0  0  0  0  0  0
  151.2357  137.7224  154.1743 C   0  0  0  0  0  0  0  0  0  0  0  0
  150.8568  139.1041  154.5145 N   0  0  0  0  0  0  0  0  0  0  0  0
  149.7626  139.6604  153.8224 C   0  0  0  0  0  0  0  0  0  0  0  0
  149.3355  140.9112  154.0576 C   0  0  0  0  0  0  0  0  0  0  0  0
  150.0295  141.6939  155.0525 C   0  0  0  0  0  0  0  0  0  0  0  0
  151.0799  141.1730  155.7176 C   0  0  0  0  0  0  0  0  0  0  0  0
  151.5522  139.8075  155.4614 C   0  0  0  0  0  0  0  0  0  0  0  0
  152.5145  139.3250  156.0598 O   0  0  0  0  0  0  0  0  0  0  0  0
  146.0378  134.7905  153.5773 C   0  0  0  0  0  0  0  0  0  0  0  0
  143.3366  134.5114  152.8242 H   0  0  0  0  0  0  0  0  0  0  0  0
  143.5348  135.0086  151.1456 H   0  0  0  0  0  0  0  0  0  0  0  0
  143.8767  136.1450  152.4440 H   0  0  0  0  0  0  0  0  0  0  0  0
  145.9789  135.2544  151.4821 H   0  0  0  0  0  0  0  0  0  0  0  0
  144.9309  132.5176  152.3310 H   0  0  0  0  0  0  0  0  0  0  0  0
  145.1675  133.0634  150.6858 H   0  0  0  0  0  0  0  0  0  0  0  0
  147.0842  131.6627  151.4877 H   0  0  0  0  0  0  0  0  0  0  0  0
  147.5977  133.2719  151.0405 H   0  0  0  0  0  0  0  0  0  0  0  0
  147.0793  132.2786  153.8946 H   0  0  0  0  0  0  0  0  0  0  0  0
  148.6384  132.6330  153.1745 H   0  0  0  0  0  0  0  0  0  0  0  0
  147.9530  135.6293  155.2130 H   0  0  0  0  0  0  0  0  0  0  0  0
  147.6782  133.9654  155.6632 H   0  0  0  0  0  0  0  0  0  0  0  0
  150.0061  134.0078  155.8395 H   0  0  0  0  0  0  0  0  0  0  0  0
  149.8475  133.4532  154.1897 H   0  0  0  0  0  0  0  0  0  0  0  0
  150.9900  135.2733  153.5456 H   0  0  0  0  0  0  0  0  0  0  0  0
  152.2756  137.5305  154.4413 H   0  0  0  0  0  0  0  0  0  0  0  0
  151.1878  137.5822  153.0925 H   0  0  0  0  0  0  0  0  0  0  0  0
  149.3019  139.0131  153.0903 H   0  0  0  0  0  0  0  0  0  0  0  0
  148.4969  141.3221  153.5148 H   0  0  0  0  0  0  0  0  0  0  0  0
  149.7058  142.7022  155.2639 H   0  0  0  0  0  0  0  0  0  0  0  0
  151.5874  141.7740  156.4578 H   0  0  0  0  0  0  0  0  0  0  0  0
  145.9709  135.8376  153.8700 H   0  0  0  0  0  0  0  0  0  0  0  0
  145.4647  134.2223  154.3122 H   0  0  0  0  0  0  0  0  0  0  0  0
  147.9517  134.8879  152.9116 H   0  0  0  0  0  0  0  0  0  0  0  0
  1  2  1  0  0  0  0
  1 21  1  0  0  0  0
  1 22  1  0  0  0  0
  1 23  1  0  0  0  0
  2 20  1  0  0  0  0
  2  3  1  0  0  0  0
  2 24  1  0  0  0  0
  3  4  1  0  0  0  0
  3 25  1  0  0  0  0
  3 26  1  0  0  0  0
  4  5  1  0  0  0  0
  4 27  1  0  0  0  0
  4 28  1  0  0  0  0
  5  6  1  0  0  0  0
  5 29  1  0  0  0  0
  5 30  1  0  0  0  0
  6  7  1  0  0  0  0
  6 20  1  0  0  0  0
  6 44  1  0  0  0  0
  7  8  1  0  0  0  0
  7 31  1  0  0  0  0
  7 32  1  0  0  0  0
  8  9  1  0  0  0  0
  8 33  1  0  0  0  0
  8 34  1  0  0  0  0
  9 10  1  0  0  0  0
  9 35  1  0  0  0  0
 10 11  2  0  0  0  0
 10 12  1  0  0  0  0
 12 13  1  0  0  0  0
 12 36  1  0  0  0  0
 12 37  1  0  0  0  0
 13 18  1  0  0  0  0
 13 14  1  0  0  0  0
 14 15  2  0  0  0  0
 14 38  1  0  0  0  0
 15 16  1  0  0  0  0
 15 39  1  0  0  0  0
 16 17  2  0  0  0  0
 16 40  1  0  0  0  0
 17 18  1  0  0  0  0
 17 41  1  0  0  0  0
 18 19  2  0  0  0  0
 20 42  1  0  0  0  0
 20 43  1  0  0  0  0
M  CHG  1   6   1
M  END
> <s_m_source_file>
AV-unprocessed.smi

> <i_m_source_file_index>
1914

> <i_lp_mmshare_version>
43012

> <i_f3d_flags>
0

> <s_epik_input>
W0NIM11bQ0BASF0xW0NIMl1bQ0gyXVtDSDJdTihbQ0gyXTEpW0NIMl1bQ0gyXVtOSF1DKD1PKVtDSDJdbjJbY0hdW2NIXVtjSF1bY0hdYzI9Tw==

> <s_epik_cmdline>
J2VwaWtfcHl0aG9uJywgJy1waCcsICc3LjAnLCAnLXRuJywgJzgnLCAnLW1hJywgJzIwMCcsICctbWV0YWxfYmluZGluZycsICctaW1hZScsICc8aW5maWxlLm1hZT4nLCAnLW9tYWUnLCAnPG91dGZpbGUubWFlPic=

> <r_lp_tautomer_probability>
1

> <r_epik_Ionization_Penalty>
0.00192477

> <r_epik_Ionization_Penalty_Charging>
0.00192469

> <r_epik_Ionization_Penalty_Neutral>
8.16761e-08

> <r_epik_State_Penalty>
0.00131115

> <r_epik_Charging_Adjusted_Penalty>
0.00323584

> <i_epik_Tot_Q>
1

> <i_epik_Tot_abs_Q>
1

> <r_epik_Metal_State_Penalty>
-0

> <b_epik_Metal_Only>
0

> <s_lp_Force_Field>
OPLS_2005

> <r_lp_Energy>
24.8324

> <b_lp_Chiralities_Consistent>
1

> <s_lp_Variant>
AV-unprocessed.smi:1914-1

> <Gold.Version>
5.8.1

> <Gold.Id.Protein>
6NUR|6NUR_protein|mol2

> <Gold.PLP.Fitness>
51.5930

> <Gold.PLP.PLP>
-38.5776

> <Gold.PLP.part.hbond>
-4.0000

> <Gold.PLP.part.metal>
0.0000

> <Gold.PLP.part.buried>
-0.7363

> <Gold.PLP.part.nonpolar>
-32.9404

> <Gold.PLP.part.repulsive>
0.1372

> <Gold.PLP.ligand.clash>
0.0000

> <Gold.PLP.ligand.torsion>
0.7031

> <Gold.PLP.Chemscore.Hbond>
3.9280

> <Gold.PLP.Chemscore.CHOScore>
0.8547

> <Gold.PLP.Chemscore.Metal>
0.0000

> <Gold.Chemscore.Hbonds>
donor molecule, donor type, donor heavy atom, donor atom, acceptor molecule, acceptor atom, score
      L1  H     6    44       P1  7948  2.00
      L1  H     9    35       P1  7949  0.40
      P1  H  7997  8008       L1    19  1.00
      L1  C    14    38       P1  7957  0.51

> <Gold.PLP.Chemscore.Internal.Correction>
0.0735

> <Gold.Rescore>
     Score         DG    S(hbond)    S(metal)    S(lipo)     H(rot)  DE(clash)    DE(int)     intcor
     15.16     -17.06       2.34        0.00      72.82       1.86       0.03       1.87       ----

> <Gold.Chemscore.Fitness>
15.1598

> <Gold.Chemscore.DG>
-17.0584

> <Gold.Chemscore.ZeroCoef>
-5.4800

> <Gold.Chemscore.Hbond>
2.3402

> <Gold.Chemscore.Metal>
0.0000

> <Gold.Chemscore.Lipo>
72.8221

> <Gold.Chemscore.Internal_Hbond>
0.0000

> <Gold.Chemscore.DEClash>
0.0281

> <Gold.Chemscore.DEInternal>
1.8705

> <Gold.Chemscore.Rot>
1.8586

> <Gold.Chemscore.Internal.Correction>
   9.000000E+99

> <Gold.Chemscore.Hbonds>
donor molecule, donor type, donor heavy atom, donor atom, acceptor molecule, acceptor atom, score
      L1  H     6    44       P1  7948  0.92
      L1  H     9    35       P1  7949  0.05
      P1  H  7997  8008       L1    19  0.96

> <Gold.Chemscore.Hbond.Weighted>
-7.8164

> <Gold.Chemscore.Metal.Weighted>
-0.0000

> <Gold.Chemscore.Lipo.Weighted>
-8.5202

> <Gold.Chemscore.Internal_Hbond.Weighted>
0.0000

> <Gold.Chemscore.DEClash.Weighted>
0.0281

> <Gold.Chemscore.DEInternal.Weighted>
1.8705

> <Gold.Chemscore.Rot.Weighted>
4.7581

> <Gold.Chemscore.Internal.Correction.Weighted>
   9.000000E+99

> <Gold.Protein.RotatedTorsions>
[ 6907 6896 6895 6894 ] final  -58.82 input  -60.11 | X-H torsion
[ 7974 7965 7964 7962 ] final  153.74 input  175.53 | X-H torsion
[ 8008 7997 7996 7995 ] final  -42.23 input   59.86 | X-H torsion
[ 10167 10162 10161 10158 ] final  167.21 input  -65.29 | X-H torsion
[ 10718 10713 10712 10709 ] final  -54.96 input   66.30 | X-H torsion
[ 10763 10752 10751 10750 ] final -129.18 input  -60.55 | X-H torsion
[ 11005 11000 10999 10996 ] final  176.36 input  -57.11 | X-H torsion

> <Gold.Protein.ActiveResidues>
 VAL166  LYS551  ARG553  GLY616  TRP617  ASP618  TYR619  PRO620  LYS621  CYS622 
 ASP623  PHE694  ASN695  SER759  ASP760  ASP761  ALA762  ILE779  LEU786  VAL792 
 PHE793  MET794  SER795  GLU796  ALA797  LYS798  CYS799  TRP800  GLU811  SER814 

> <Gold.Protein.RotatedAtoms>
  150.7978  134.7049  159.6570 H   0  0  0  0  0  0  0  0  0  0  0  0  # atno 6907 bound_to 6896
  152.4092  134.6151  160.0046 H   0  0  0  0  0  0  0  0  0  0  0  0  # atno 6908 bound_to 6896
  151.6399  133.3289  159.3164 H   0  0  0  0  0  0  0  0  0  0  0  0  # atno 6909 bound_to 6896
  144.8135  139.6840  143.6131 H   0  0  0  0  0  0  0  0  0  0  0  0  # atno 7974 bound_to 7965
  154.4000  140.1479  156.3321 H   0  0  0  0  0  0  0  0  0  0  0  0  # atno 8008 bound_to 7997
  155.8433  140.3461  155.5625 H   0  0  0  0  0  0  0  0  0  0  0  0  # atno 8009 bound_to 7997
  155.8063  140.0877  157.1919 H   0  0  0  0  0  0  0  0  0  0  0  0  # atno 8010 bound_to 7997
  139.4940  144.3946  151.9479 H   0  0  0  0  0  0  0  0  0  0  0  0  # atno 10167 bound_to 10162
  156.1407  130.4154  150.0107 H   0  0  0  0  0  0  0  0  0  0  0  0  # atno 10718 bound_to 10713
  154.8757  135.3904  154.3878 H   0  0  0  0  0  0  0  0  0  0  0  0  # atno 10763 bound_to 10752
  153.4617  135.7029  153.6051 H   0  0  0  0  0  0  0  0  0  0  0  0  # atno 10764 bound_to 10752
  153.4547  135.3826  155.2272 H   0  0  0  0  0  0  0  0  0  0  0  0  # atno 10765 bound_to 10752
  140.3722  134.7020  157.4399 H   0  0  0  0  0  0  0  0  0  0  0  0  # atno 11005 bound_to 11000
  146.2436  139.6051  142.9475 LP  0  0  0  0  0  0  0  0  0  0  0  0  # atno 17320 bound_to 7965
  145.5269  141.0429  143.2404 LP  0  0  0  0  0  0  0  0  0  0  0  0  # atno 17321 bound_to 7965
  140.3384  144.3233  150.5972 LP  0  0  0  0  0  0  0  0  0  0  0  0  # atno 17342 bound_to 10162
  140.5587  143.2195  151.7803 LP  0  0  0  0  0  0  0  0  0  0  0  0  # atno 17343 bound_to 10162
  156.7993  130.9285  151.3646 LP  0  0  0  0  0  0  0  0  0  0  0  0  # atno 17370 bound_to 10713
  157.6573  130.8936  149.9756 LP  0  0  0  0  0  0  0  0  0  0  0  0  # atno 17371 bound_to 10713
  140.0543  134.6086  155.8824 LP  0  0  0  0  0  0  0  0  0  0  0  0  # atno 17394 bound_to 11000
  141.1951  133.6585  156.5625 LP  0  0  0  0  0  0  0  0  0  0  0  0  # atno 17395 bound_to 11000

$$$$
