AV-unprocessed.smi:3|AV-procd|sdf|30|dock2
  -GOLD-   2262015143D 1   1.00000     0.00000
 Structure written by MMmdl.
 34 36  0  0  0  0  0  0  0  0  2 V2000
  148.8652  141.8879  157.3523 C   0  0  0  0  0  0  0  0  0  0  0  0
  150.0342  141.3036  156.7100 N   0  0  0  0  0  0  0  0  0  0  0  0
  151.3321  141.4873  157.3637 C   0  0  0  0  0  0  0  0  0  0  0  0
  151.3392  142.6806  158.3189 C   0  0  1  0  0  0  0  0  0  0  0  0
  152.5683  142.9662  159.1957 C   0  0  0  0  0  0  0  0  0  0  0  0
  152.3639  144.4653  158.9577 C   0  0  2  0  0  0  0  0  0  0  0  0
  151.7383  145.1996  159.9876 O   0  0  0  0  0  0  0  0  0  0  0  0
  151.5029  144.0954  157.7460 C   0  0  0  0  0  0  0  0  0  0  0  0
  149.8692  140.3575  155.6675 C   0  0  0  0  0  0  0  0  0  0  0  0
  148.6195  140.2123  155.1441 N   0  0  0  0  0  0  0  0  0  0  0  0
  148.3323  139.3550  154.1563 C   0  0  0  0  0  0  0  0  0  0  0  0
  149.2520  138.5630  153.6016 N   0  3  0  0  0  0  0  0  0  0  0  0
  150.5133  138.6608  154.0894 C   0  0  0  0  0  0  0  0  0  0  0  0
  151.6327  137.9586  153.6960 N   0  0  0  0  0  0  0  0  0  0  0  0
  152.7244  138.3518  154.4470 C   0  0  0  0  0  0  0  0  0  0  0  0
  152.3277  139.3158  155.3390 C   0  0  0  0  0  0  0  0  0  0  0  0
  150.9145  139.5390  155.1330 C   0  0  0  0  0  0  0  0  0  0  0  0
  150.4501  142.6815  158.9527 H   0  0  0  0  0  0  0  0  0  0  0  0
  153.2861  144.9701  158.6674 H   0  0  0  0  0  0  0  0  0  0  0  0
  151.6822  137.2552  152.9724 H   0  0  0  0  0  0  0  0  0  0  0  0
  148.3287  142.5323  156.6562 H   0  0  0  0  0  0  0  0  0  0  0  0
  149.1545  142.5004  158.2071 H   0  0  0  0  0  0  0  0  0  0  0  0
  148.1941  141.1106  157.7185 H   0  0  0  0  0  0  0  0  0  0  0  0
  151.6592  140.5804  157.8721 H   0  0  0  0  0  0  0  0  0  0  0  0
  152.0752  141.6464  156.5817 H   0  0  0  0  0  0  0  0  0  0  0  0
  152.4606  142.6442  160.2321 H   0  0  0  0  0  0  0  0  0  0  0  0
  153.5013  142.6050  158.7611 H   0  0  0  0  0  0  0  0  0  0  0  0
  150.9384  145.5533  159.6294 H   0  0  0  0  0  0  0  0  0  0  0  0
  152.0664  144.1151  156.8117 H   0  0  0  0  0  0  0  0  0  0  0  0
  150.5695  144.6530  157.6589 H   0  0  0  0  0  0  0  0  0  0  0  0
  147.3252  139.2788  153.7729 H   0  0  0  0  0  0  0  0  0  0  0  0
  153.6987  137.9124  154.2866 H   0  0  0  0  0  0  0  0  0  0  0  0
  152.9651  139.8091  156.0564 H   0  0  0  0  0  0  0  0  0  0  0  0
  149.0247  137.9122  152.8500 H   0  0  0  0  0  0  0  0  0  0  0  0
  1  2  1  0  0  0  0
  1 21  1  0  0  0  0
  1 22  1  0  0  0  0
  1 23  1  0  0  0  0
  2  3  1  0  0  0  0
  2  9  1  0  0  0  0
  3  4  1  0  0  0  0
  3 24  1  0  0  0  0
  3 25  1  0  0  0  0
  4 18  1  0  0  0  0
  4  8  1  0  0  0  0
  4  5  1  0  0  0  0
  5  6  1  0  0  0  0
  5 26  1  0  0  0  0
  5 27  1  0  0  0  0
  6 19  1  0  0  0  0
  6  7  1  0  0  0  0
  6  8  1  0  0  0  0
  7 28  1  0  0  0  0
  8 29  1  0  0  0  0
  8 30  1  0  0  0  0
  9 17  1  0  0  0  0
  9 10  2  0  0  0  0
 10 11  1  0  0  0  0
 11 12  2  0  0  0  0
 11 31  1  0  0  0  0
 12 13  1  0  0  0  0
 12 34  1  0  0  0  0
 13 17  2  0  0  0  0
 13 14  1  0  0  0  0
 14 20  1  0  0  0  0
 14 15  1  0  0  0  0
 15 16  2  0  0  0  0
 15 32  1  0  0  0  0
 16 17  1  0  0  0  0
 16 33  1  0  0  0  0
M  CHG  1  12   1
M  END
> <s_m_source_file>
AV-unprocessed.smi

> <i_m_source_file_index>
3

> <i_lp_mmshare_version>
43012

> <i_f3d_flags>
0

> <s_epik_input>
W25IXTFbY0hdW2NIXWMoYzEyKWMobltjSF1uMilOKFtDSDNdKVtDSDJdW0NASF0zW0NIMl1bQ0BASF0oW09IXSlbQ0gyXTM=

> <s_epik_cmdline>
J2VwaWtfcHl0aG9uJywgJy1waCcsICc3LjAnLCAnLXRuJywgJzgnLCAnLW1hJywgJzIwMCcsICctbWV0YWxfYmluZGluZycsICctaW1hZScsICc8aW5maWxlLm1hZT4nLCAnLW9tYWUnLCAnPG91dGZpbGUubWFlPic=

> <r_lp_tautomer_probability>
1.75997e-05

> <r_epik_Ionization_Penalty>
2.28439

> <r_epik_Ionization_Penalty_Charging>
2.28438

> <r_epik_Ionization_Penalty_Neutral>
1.03791e-05

> <r_epik_State_Penalty>
2.43392

> <r_epik_Charging_Adjusted_Penalty>
4.7183

> <i_epik_Tot_Q>
1

> <i_epik_Tot_abs_Q>
1

> <r_epik_Metal_State_Penalty>
2.4464

> <b_epik_Metal_Only>
0

> <s_lp_Force_Field>
OPLS_2005

> <r_lp_Energy>
18.3307

> <b_lp_Chiralities_Consistent>
1

> <s_lp_Variant>
AV-unprocessed.smi:3-4

> <Gold.Version>
5.8.1

> <Gold.Id.Protein>
6NUR|6NUR_protein|mol2

> <Gold.PLP.Fitness>
49.2676

> <Gold.PLP.PLP>
-37.7088

> <Gold.PLP.part.hbond>
-3.0000

> <Gold.PLP.part.metal>
0.0000

> <Gold.PLP.part.buried>
-2.5307

> <Gold.PLP.part.nonpolar>
-33.1868

> <Gold.PLP.part.repulsive>
0.2804

> <Gold.PLP.ligand.clash>
0.0000

> <Gold.PLP.ligand.torsion>
0.3171

> <Gold.PLP.Chemscore.Hbond>
4.0000

> <Gold.PLP.Chemscore.CHOScore>
0.0000

> <Gold.PLP.Chemscore.Metal>
0.0000

> <Gold.Chemscore.Hbonds>
donor molecule, donor type, donor heavy atom, donor atom, acceptor molecule, acceptor atom, score
      L1  H    12    34       P1  7948  2.00
      L1  H    14    20       P1  7949  2.00

> <Gold.PLP.Chemscore.Internal.Correction>
0.1928

> <Gold.Rescore>
     Score         DG    S(hbond)    S(metal)    S(lipo)     H(rot)  DE(clash)    DE(int)     intcor
     16.53     -16.84       1.97        0.00      81.56       1.86       0.12       0.19       ----

> <Gold.Chemscore.Fitness>
16.5312

> <Gold.Chemscore.DG>
-16.8414

> <Gold.Chemscore.ZeroCoef>
-5.4800

> <Gold.Chemscore.Hbond>
1.9736

> <Gold.Chemscore.Metal>
0.0000

> <Gold.Chemscore.Lipo>
81.5615

> <Gold.Chemscore.Internal_Hbond>
0.0000

> <Gold.Chemscore.DEClash>
0.1248

> <Gold.Chemscore.DEInternal>
0.1853

> <Gold.Chemscore.Rot>
1.8645

> <Gold.Chemscore.Internal.Correction>
   9.000000E+99

> <Gold.Chemscore.Hbonds>
donor molecule, donor type, donor heavy atom, donor atom, acceptor molecule, acceptor atom, score
      L1  H    12    34       P1  7948  0.99
      L1  H    14    20       P1  7949  0.93

> <Gold.Chemscore.Hbond.Weighted>
-6.5917

> <Gold.Chemscore.Metal.Weighted>
-0.0000

> <Gold.Chemscore.Lipo.Weighted>
-9.5427

> <Gold.Chemscore.Internal_Hbond.Weighted>
0.0000

> <Gold.Chemscore.DEClash.Weighted>
0.1248

> <Gold.Chemscore.DEInternal.Weighted>
0.1853

> <Gold.Chemscore.Rot.Weighted>
4.7730

> <Gold.Chemscore.Internal.Correction.Weighted>
   9.000000E+99

> <Gold.Protein.RotatedTorsions>
[ 6907 6896 6895 6894 ] final   10.25 input  -60.11 | X-H torsion
[ 7974 7965 7964 7962 ] final  -35.30 input  175.53 | X-H torsion
[ 8008 7997 7996 7995 ] final  -50.29 input   59.86 | X-H torsion
[ 10167 10162 10161 10158 ] final   -1.38 input  -65.29 | X-H torsion
[ 10718 10713 10712 10709 ] final -101.54 input   66.30 | X-H torsion
[ 10763 10752 10751 10750 ] final   19.00 input  -60.55 | X-H torsion
[ 11005 11000 10999 10996 ] final   22.63 input  -57.11 | X-H torsion

> <Gold.Protein.ActiveResidues>
 VAL166  LYS551  ARG553  GLY616  TRP617  ASP618  TYR619  PRO620  LYS621  CYS622 
 ASP623  PHE694  ASN695  SER759  ASP760  ASP761  ALA762  ILE779  LEU786  VAL792 
 PHE793  MET794  SER795  GLU796  ALA797  LYS798  CYS799  TRP800  GLU811  SER814 

> <Gold.Protein.RotatedAtoms>
  151.7352  135.0866  160.0306 H   0  0  0  0  0  0  0  0  0  0  0  0  # atno 6907 bound_to 6896
  152.3515  133.6181  159.5957 H   0  0  0  0  0  0  0  0  0  0  0  0  # atno 6908 bound_to 6896
  150.7543  133.9483  159.3519 H   0  0  0  0  0  0  0  0  0  0  0  0  # atno 6909 bound_to 6896
  146.0758  140.6143  142.8931 H   0  0  0  0  0  0  0  0  0  0  0  0  # atno 7974 bound_to 7965
  154.4059  140.1276  156.4641 H   0  0  0  0  0  0  0  0  0  0  0  0  # atno 8008 bound_to 7997
  155.7244  140.3492  155.5011 H   0  0  0  0  0  0  0  0  0  0  0  0  # atno 8009 bound_to 7997
  155.9185  140.1048  157.1215 H   0  0  0  0  0  0  0  0  0  0  0  0  # atno 8010 bound_to 7997
  140.6808  143.6782  150.8128 H   0  0  0  0  0  0  0  0  0  0  0  0  # atno 10167 bound_to 10162
  156.0198  130.5378  150.6978 H   0  0  0  0  0  0  0  0  0  0  0  0  # atno 10718 bound_to 10713
  153.1199  135.6717  153.9353 H   0  0  0  0  0  0  0  0  0  0  0  0  # atno 10763 bound_to 10752
  153.8871  135.3051  155.3448 H   0  0  0  0  0  0  0  0  0  0  0  0  # atno 10764 bound_to 10752
  154.7612  135.4987  153.9547 H   0  0  0  0  0  0  0  0  0  0  0  0  # atno 10765 bound_to 10752
  140.3785  134.1946  155.7664 H   0  0  0  0  0  0  0  0  0  0  0  0  # atno 11005 bound_to 11000
  144.7260  140.4527  143.6972 LP  0  0  0  0  0  0  0  0  0  0  0  0  # atno 17320 bound_to 7965
  145.6309  139.1536  143.2969 LP  0  0  0  0  0  0  0  0  0  0  0  0  # atno 17321 bound_to 7965
  140.0482  143.5277  152.2686 LP  0  0  0  0  0  0  0  0  0  0  0  0  # atno 17342 bound_to 10162
  139.6129  144.7613  151.2912 LP  0  0  0  0  0  0  0  0  0  0  0  0  # atno 17343 bound_to 10162
  157.4645  131.0887  151.0710 LP  0  0  0  0  0  0  0  0  0  0  0  0  # atno 17370 bound_to 10713
  157.1188  130.6053  149.5500 LP  0  0  0  0  0  0  0  0  0  0  0  0  # atno 17371 bound_to 10713
  141.1931  133.8157  157.0811 LP  0  0  0  0  0  0  0  0  0  0  0  0  # atno 17394 bound_to 11000
  140.0497  134.9812  157.1113 LP  0  0  0  0  0  0  0  0  0  0  0  0  # atno 17395 bound_to 11000

$$$$
