AV-unprocessed.smi:2356|AV-procd|sdf|9399|dock4
  -GOLD-   2272013 33D 1   1.00000     0.00000
 Structure written by MMmdl.
 54 57  0  0  0  0  0  0  0  0  2 V2000
  146.5467  142.3723  153.7363 C   0  0  0  0  0  0  0  0  0  0  0  0
  147.4787  141.3569  154.3725 C   0  0  0  0  0  0  0  0  0  0  0  0
  148.4762  141.8299  155.1525 N   0  3  0  0  0  0  0  0  0  0  0  0
  149.3800  141.0440  155.7843 C   0  0  0  0  0  0  0  0  0  0  0  0
  150.3764  141.6546  156.5694 N   0  0  0  0  0  0  0  0  0  0  0  0
  150.0456  142.6576  157.5694 C   0  0  0  0  0  0  0  0  0  0  0  0
  151.3591  142.9148  158.3059 C   0  0  0  0  0  0  0  0  0  0  0  0
  152.0542  141.5538  158.2592 C   0  0  0  0  0  0  0  0  0  0  0  0
  151.5926  140.9404  156.9318 C   0  0  0  0  0  0  0  0  0  0  0  0
  149.2921  139.6436  155.6122 C   0  0  0  0  0  0  0  0  0  0  0  0
  148.2697  139.1003  154.8090 C   0  0  0  0  0  0  0  0  0  0  0  0
  147.3338  139.9620  154.1858 C   0  0  0  0  0  0  0  0  0  0  0  0
  146.2862  139.4946  153.3459 N   0  0  0  0  0  0  0  0  0  0  0  0
  145.9310  138.2243  153.0718 C   0  0  0  0  0  0  0  0  0  0  0  0
  146.4819  137.2297  153.5384 O   0  0  0  0  0  0  0  0  0  0  0  0
  144.8754  138.1135  152.2451 N   0  0  0  0  0  0  0  0  0  0  0  0
  144.2343  136.8944  151.7469 C   0  0  2  0  0  0  0  0  0  0  0  0
  143.3923  136.2236  152.8459 C   0  0  0  0  0  0  0  0  0  0  0  0
  142.8585  134.8660  152.3642 C   0  0  0  0  0  0  0  0  0  0  0  0
  143.9398  134.0359  151.9557 O   0  0  0  0  0  0  0  0  0  0  0  0
  144.6754  134.5639  150.8529 C   0  0  2  0  0  0  0  0  0  0  0  0
  145.7292  133.5700  150.3911 C   0  0  0  0  0  0  0  0  0  0  0  0
  145.3505  132.1772  149.9340 C   0  0  0  0  0  0  0  0  0  0  0  0
  146.0943  132.3645  151.2312 C   0  0  0  0  0  0  0  0  0  0  0  0
  145.3070  135.9084  151.2613 C   0  0  0  0  0  0  0  0  0  0  0  0
  146.5662  142.2792  152.6501 H   0  0  0  0  0  0  0  0  0  0  0  0
  146.8335  143.3924  153.9939 H   0  0  0  0  0  0  0  0  0  0  0  0
  145.5236  142.2128  154.0774 H   0  0  0  0  0  0  0  0  0  0  0  0
  149.6540  143.5679  157.1141 H   0  0  0  0  0  0  0  0  0  0  0  0
  149.2935  142.2592  158.2519 H   0  0  0  0  0  0  0  0  0  0  0  0
  151.9522  143.6502  157.7603 H   0  0  0  0  0  0  0  0  0  0  0  0
  151.2123  143.2852  159.3211 H   0  0  0  0  0  0  0  0  0  0  0  0
  153.1392  141.6274  158.3364 H   0  0  0  0  0  0  0  0  0  0  0  0
  151.7015  140.9387  159.0882 H   0  0  0  0  0  0  0  0  0  0  0  0
  151.4271  139.8675  157.0375 H   0  0  0  0  0  0  0  0  0  0  0  0
  152.3388  141.0972  156.1524 H   0  0  0  0  0  0  0  0  0  0  0  0
  150.0037  138.9777  156.0775 H   0  0  0  0  0  0  0  0  0  0  0  0
  148.2335  138.0304  154.6735 H   0  0  0  0  0  0  0  0  0  0  0  0
  145.6851  140.2100  152.9638 H   0  0  0  0  0  0  0  0  0  0  0  0
  144.4555  138.9802  151.9404 H   0  0  0  0  0  0  0  0  0  0  0  0
  143.5934  137.1336  150.8962 H   0  0  0  0  0  0  0  0  0  0  0  0
  144.0003  136.0724  153.7389 H   0  0  0  0  0  0  0  0  0  0  0  0
  142.5607  136.8637  153.1403 H   0  0  0  0  0  0  0  0  0  0  0  0
  142.3188  134.3687  153.1701 H   0  0  0  0  0  0  0  0  0  0  0  0
  142.1532  134.9948  151.5417 H   0  0  0  0  0  0  0  0  0  0  0  0
  143.9906  134.7211  150.0178 H   0  0  0  0  0  0  0  0  0  0  0  0
  146.5512  134.0332  149.8487 H   0  0  0  0  0  0  0  0  0  0  0  0
  144.3044  131.8836  149.9929 H   0  0  0  0  0  0  0  0  0  0  0  0
  145.9025  131.7586  149.0950 H   0  0  0  0  0  0  0  0  0  0  0  0
  147.1417  132.0714  151.2568 H   0  0  0  0  0  0  0  0  0  0  0  0
  145.5434  132.1986  152.1548 H   0  0  0  0  0  0  0  0  0  0  0  0
  145.8534  136.3361  150.4197 H   0  0  0  0  0  0  0  0  0  0  0  0
  146.0382  135.7371  152.0531 H   0  0  0  0  0  0  0  0  0  0  0  0
  148.5512  142.8399  155.2730 H   0  0  0  0  0  0  0  0  0  0  0  0
  1  2  1  0  0  0  0
  1 26  1  0  0  0  0
  1 27  1  0  0  0  0
  1 28  1  0  0  0  0
  2 12  1  0  0  0  0
  2  3  2  0  0  0  0
  3  4  1  0  0  0  0
  3 54  1  0  0  0  0
  4  5  1  0  0  0  0
  4 10  2  0  0  0  0
  5  9  1  0  0  0  0
  5  6  1  0  0  0  0
  6  7  1  0  0  0  0
  6 29  1  0  0  0  0
  6 30  1  0  0  0  0
  7  8  1  0  0  0  0
  7 31  1  0  0  0  0
  7 32  1  0  0  0  0
  8  9  1  0  0  0  0
  8 33  1  0  0  0  0
  8 34  1  0  0  0  0
  9 35  1  0  0  0  0
  9 36  1  0  0  0  0
 10 11  1  0  0  0  0
 10 37  1  0  0  0  0
 11 12  2  0  0  0  0
 11 38  1  0  0  0  0
 12 13  1  0  0  0  0
 13 14  1  0  0  0  0
 13 39  1  0  0  0  0
 14 15  2  0  0  0  0
 14 16  1  0  0  0  0
 16 17  1  0  0  0  0
 16 40  1  0  0  0  0
 17 25  1  0  0  0  0
 17 18  1  0  0  0  0
 17 41  1  0  0  0  0
 18 19  1  0  0  0  0
 18 42  1  0  0  0  0
 18 43  1  0  0  0  0
 19 20  1  0  0  0  0
 19 44  1  0  0  0  0
 19 45  1  0  0  0  0
 20 21  1  0  0  0  0
 21 22  1  0  0  0  0
 21 25  1  0  0  0  0
 21 46  1  0  0  0  0
 22 24  1  0  0  0  0
 22 23  1  0  0  0  0
 22 47  1  0  0  0  0
 23 24  1  0  0  0  0
 23 48  1  0  0  0  0
 23 49  1  0  0  0  0
 24 50  1  0  0  0  0
 24 51  1  0  0  0  0
 25 52  1  0  0  0  0
 25 53  1  0  0  0  0
M  CHG  1   3   1
M  END
> <s_m_source_file>
AV-unprocessed.smi

> <i_m_source_file_index>
2356

> <i_lp_mmshare_version>
43012

> <i_f3d_flags>
0

> <s_epik_input>
W0NIMl0xW0NIMl1bQ0gyXVtDSDJdTjFjKG5jMltDSDNdKVtjSF1bY0hdYzJbTkhdQyg9TylbTkhdW0NAQEhdM1tDSDJdW0NIMl1PW0NASF0oW0NIMl0zKVtDSF00W0NIMl1bQ0gyXTQ=

> <s_epik_cmdline>
J2VwaWtfcHl0aG9uJywgJy1waCcsICc3LjAnLCAnLXRuJywgJzgnLCAnLW1hJywgJzIwMCcsICctbWV0YWxfYmluZGluZycsICctaW1hZScsICc8aW5maWxlLm1hZT4nLCAnLW9tYWUnLCAnPG91dGZpbGUubWFlPic=

> <r_lp_tautomer_probability>
0.999994

> <r_epik_Ionization_Penalty>
0.534681

> <r_epik_Ionization_Penalty_Charging>
0.534661

> <r_epik_Ionization_Penalty_Neutral>
1.99132e-05

> <r_epik_State_Penalty>
0.543738

> <r_epik_Charging_Adjusted_Penalty>
1.0784

> <i_epik_Tot_Q>
1

> <i_epik_Tot_abs_Q>
1

> <r_epik_Metal_State_Penalty>
0.74699

> <b_epik_Metal_Only>
0

> <s_lp_Force_Field>
OPLS_2005

> <r_lp_Energy>
57.2966

> <b_lp_Chiralities_Consistent>
1

> <s_lp_Variant>
AV-unprocessed.smi:2356-7

> <Gold.Version>
5.8.1

> <Gold.Id.Protein>
6NUR|6NUR_protein|mol2

> <Gold.PLP.Fitness>
50.3872

> <Gold.PLP.PLP>
-40.0546

> <Gold.PLP.part.hbond>
-4.0000

> <Gold.PLP.part.metal>
0.0000

> <Gold.PLP.part.buried>
-4.5135

> <Gold.PLP.part.nonpolar>
-32.3617

> <Gold.PLP.part.repulsive>
0.3691

> <Gold.PLP.ligand.clash>
0.0000

> <Gold.PLP.ligand.torsion>
1.3574

> <Gold.PLP.Chemscore.Hbond>
3.9199

> <Gold.PLP.Chemscore.CHOScore>
0.0000

> <Gold.PLP.Chemscore.Metal>
0.0000

> <Gold.Chemscore.Hbonds>
donor molecule, donor type, donor heavy atom, donor atom, acceptor molecule, acceptor atom, score
      L1  H     3    54       P1  8028  2.00
      L1  H    13    39       P1 10175  0.70
      L1  H    16    40       P1 10175  0.93

> <Gold.PLP.Chemscore.Internal.Correction>
1.2877

> <Gold.Rescore>
     Score         DG    S(hbond)    S(metal)    S(lipo)     H(rot)  DE(clash)    DE(int)     intcor
     19.41     -23.75       2.84        0.00     100.34       1.15       0.57       3.77       ----

> <Gold.Chemscore.Fitness>
19.4119

> <Gold.Chemscore.DG>
-23.7491

> <Gold.Chemscore.ZeroCoef>
-5.4800

> <Gold.Chemscore.Hbond>
2.8357

> <Gold.Chemscore.Metal>
0.0000

> <Gold.Chemscore.Lipo>
100.3419

> <Gold.Chemscore.Internal_Hbond>
0.0000

> <Gold.Chemscore.DEClash>
0.5691

> <Gold.Chemscore.DEInternal>
3.7681

> <Gold.Chemscore.Rot>
1.1493

> <Gold.Chemscore.Internal.Correction>
   9.000000E+99

> <Gold.Chemscore.Hbonds>
donor molecule, donor type, donor heavy atom, donor atom, acceptor molecule, acceptor atom, score
      L1  H     3    54       P1  8028  0.99
      L1  H    13    39       P1 10175  0.64
      L1  H    16    40       P1 10175  0.89

> <Gold.Chemscore.Hbond.Weighted>
-9.4712

> <Gold.Chemscore.Metal.Weighted>
-0.0000

> <Gold.Chemscore.Lipo.Weighted>
-11.7400

> <Gold.Chemscore.Internal_Hbond.Weighted>
0.0000

> <Gold.Chemscore.DEClash.Weighted>
0.5691

> <Gold.Chemscore.DEInternal.Weighted>
3.7681

> <Gold.Chemscore.Rot.Weighted>
2.9421

> <Gold.Chemscore.Internal.Correction.Weighted>
   9.000000E+99

> <Gold.Protein.RotatedTorsions>
[ 6907 6896 6895 6894 ] final  154.11 input  -60.11 | X-H torsion
[ 7974 7965 7964 7962 ] final -155.12 input  175.53 | X-H torsion
[ 8008 7997 7996 7995 ] final  124.75 input   59.86 | X-H torsion
[ 10167 10162 10161 10158 ] final  -94.03 input  -65.29 | X-H torsion
[ 10718 10713 10712 10709 ] final  -26.21 input   66.30 | X-H torsion
[ 10763 10752 10751 10750 ] final  -61.96 input  -60.55 | X-H torsion
[ 11005 11000 10999 10996 ] final  -99.10 input  -57.11 | X-H torsion

> <Gold.Protein.ActiveResidues>
 VAL166  LYS551  ARG553  GLY616  TRP617  ASP618  TYR619  PRO620  LYS621  CYS622 
 ASP623  PHE694  ASN695  SER759  ASP760  ASP761  ALA762  ILE779  LEU786  VAL792 
 PHE793  MET794  SER795  GLU796  ALA797  LYS798  CYS799  TRP800  GLU811  SER814 

> <Gold.Protein.RotatedAtoms>
  152.0631  133.4071  159.4426 H   0  0  0  0  0  0  0  0  0  0  0  0  # atno 6907 bound_to 6896
  150.6865  134.3177  159.4782 H   0  0  0  0  0  0  0  0  0  0  0  0  # atno 6908 bound_to 6896
  152.1000  134.9347  160.0620 H   0  0  0  0  0  0  0  0  0  0  0  0  # atno 6909 bound_to 6896
  144.7655  140.4293  143.5945 H   0  0  0  0  0  0  0  0  0  0  0  0  # atno 7974 bound_to 7965
  156.2812  140.2732  156.1838 H   0  0  0  0  0  0  0  0  0  0  0  0  # atno 8008 bound_to 7997
  155.0528  140.0386  157.2568 H   0  0  0  0  0  0  0  0  0  0  0  0  # atno 8009 bound_to 7997
  154.7181  140.2682  155.6572 H   0  0  0  0  0  0  0  0  0  0  0  0  # atno 8010 bound_to 7997
  140.3186  143.3062  152.0071 H   0  0  0  0  0  0  0  0  0  0  0  0  # atno 10167 bound_to 10162
  156.4542  130.4490  149.6970 H   0  0  0  0  0  0  0  0  0  0  0  0  # atno 10718 bound_to 10713
  154.2925  135.6250  153.5391 H   0  0  0  0  0  0  0  0  0  0  0  0  # atno 10763 bound_to 10752
  152.9850  135.5659  154.5374 H   0  0  0  0  0  0  0  0  0  0  0  0  # atno 10764 bound_to 10752
  154.4988  135.2871  155.1414 H   0  0  0  0  0  0  0  0  0  0  0  0  # atno 10765 bound_to 10752
  141.1321  133.8296  157.0927 H   0  0  0  0  0  0  0  0  0  0  0  0  # atno 11005 bound_to 11000
  145.6483  139.1561  143.2876 LP  0  0  0  0  0  0  0  0  0  0  0  0  # atno 17320 bound_to 7965
  146.1759  140.6574  142.9211 LP  0  0  0  0  0  0  0  0  0  0  0  0  # atno 17321 bound_to 7965
  139.4879  144.6329  151.7035 LP  0  0  0  0  0  0  0  0  0  0  0  0  # atno 17342 bound_to 10162
  140.5504  144.0435  150.6124 LP  0  0  0  0  0  0  0  0  0  0  0  0  # atno 17343 bound_to 10162
  156.3784  130.7566  151.2557 LP  0  0  0  0  0  0  0  0  0  0  0  0  # atno 17370 bound_to 10713
  157.7501  131.0303  150.4129 LP  0  0  0  0  0  0  0  0  0  0  0  0  # atno 17371 bound_to 10713
  140.0382  134.9867  157.0911 LP  0  0  0  0  0  0  0  0  0  0  0  0  # atno 17394 bound_to 11000
  140.4177  134.1914  155.7164 LP  0  0  0  0  0  0  0  0  0  0  0  0  # atno 17395 bound_to 11000

$$$$
