AV-unprocessed.smi:269|AV-procd|sdf|2043|dock8
  -GOLD-   2262021263D 1   1.00000     0.00000
 Structure written by MMmdl.
 61 64  0  0  0  0  0  0  0  0  1 V2000
  151.9793  144.4796  159.7897 C   0  0  0  0  0  0  0  0  0  0  0  0
  150.6662  144.2402  159.0326 C   0  0  0  0  0  0  0  0  0  0  0  0
  150.8862  143.4648  157.8180 N   0  0  0  0  0  0  0  0  0  0  0  0
  151.1317  142.1460  157.7787 C   0  0  0  0  0  0  0  0  0  0  0  0
  151.2209  141.4420  158.7843 O   0  0  0  0  0  0  0  0  0  0  0  0
  151.2834  141.5171  156.3890 C   0  0  0  0  0  0  0  0  0  0  0  0
  150.2038  140.5703  156.0289 N   0  0  0  0  0  0  0  0  0  0  0  0
  150.7900  139.3736  155.4142 C   0  0  0  0  0  0  0  0  0  0  0  0
  149.6912  138.3355  155.1218 C   0  0  0  0  0  0  0  0  0  0  0  0
  148.6776  138.9110  154.2479 N   0  0  0  0  0  0  0  0  0  0  0  0
  147.7623  138.0201  153.8131 C   0  0  0  0  0  0  0  0  0  0  0  0
  146.8830  138.4498  152.8757 N   0  0  0  0  0  0  0  0  0  0  0  0
  145.9519  137.6160  152.4024 C   0  0  0  0  0  0  0  0  0  0  0  0
  145.7305  136.3402  152.7269 N   0  0  0  0  0  0  0  0  0  0  0  0
  146.6135  135.9067  153.6723 C   0  0  0  0  0  0  0  0  0  0  0  0
  147.6576  136.6732  154.2621 C   0  0  0  0  0  0  0  0  0  0  0  0
  148.3605  135.8943  155.1728 N   0  0  0  0  0  0  0  0  0  0  0  0
  147.7650  134.7342  155.1253 C   0  0  0  0  0  0  0  0  0  0  0  0
  146.6938  134.6568  154.2628 N   0  0  0  0  0  0  0  0  0  0  0  0
  145.8546  133.4927  154.0144 C   0  0  0  0  0  0  0  0  0  0  0  0
  145.9953  132.8758  152.5906 C   0  0  0  0  0  0  0  0  0  0  0  0
  147.4613  132.9865  152.0813 C   0  0  0  0  0  0  0  0  0  0  0  0
  148.3498  132.1794  152.8282 O   0  0  0  0  0  0  0  0  0  0  0  0
  145.5698  131.3858  152.6198 C   0  0  0  0  0  0  0  0  0  0  0  0
  145.3721  130.7874  151.2148 C   0  0  0  0  0  0  0  0  0  0  0  0
  144.4282  131.5590  150.4840 O   0  0  0  0  0  0  0  0  0  0  0  0
  144.8492  132.9019  150.2840 C   0  0  0  0  0  0  0  0  0  0  0  0
  145.0123  133.6075  151.6422 C   0  0  0  0  0  0  0  0  0  0  0  0
  148.1060  140.1306  154.8049 C   0  0  0  0  0  0  0  0  0  0  0  0
  149.2173  141.1532  155.1056 C   0  0  0  0  0  0  0  0  0  0  0  0
  151.7990  145.0284  160.7143 H   0  0  0  0  0  0  0  0  0  0  0  0
  152.6818  145.0614  159.1921 H   0  0  0  0  0  0  0  0  0  0  0  0
  152.4619  143.5371  160.0505 H   0  0  0  0  0  0  0  0  0  0  0  0
  149.9710  143.6897  159.6670 H   0  0  0  0  0  0  0  0  0  0  0  0
  150.1848  145.1902  158.7954 H   0  0  0  0  0  0  0  0  0  0  0  0
  150.8278  143.9623  156.9411 H   0  0  0  0  0  0  0  0  0  0  0  0
  151.3513  142.3041  155.6351 H   0  0  0  0  0  0  0  0  0  0  0  0
  152.2408  140.9942  156.3748 H   0  0  0  0  0  0  0  0  0  0  0  0
  151.3174  139.6344  154.4945 H   0  0  0  0  0  0  0  0  0  0  0  0
  151.5251  138.9326  156.0887 H   0  0  0  0  0  0  0  0  0  0  0  0
  150.1292  137.4566  154.6469 H   0  0  0  0  0  0  0  0  0  0  0  0
  149.2357  138.0021  156.0554 H   0  0  0  0  0  0  0  0  0  0  0  0
  145.2883  138.0307  151.6578 H   0  0  0  0  0  0  0  0  0  0  0  0
  148.0892  133.8987  155.7286 H   0  0  0  0  0  0  0  0  0  0  0  0
  146.0914  132.7447  154.7723 H   0  0  0  0  0  0  0  0  0  0  0  0
  144.8195  133.7794  154.2039 H   0  0  0  0  0  0  0  0  0  0  0  0
  147.5319  132.6966  151.0330 H   0  0  0  0  0  0  0  0  0  0  0  0
  147.8300  134.0096  152.1295 H   0  0  0  0  0  0  0  0  0  0  0  0
  148.7787  131.5790  152.2377 H   0  0  0  0  0  0  0  0  0  0  0  0
  146.2975  130.7877  153.1695 H   0  0  0  0  0  0  0  0  0  0  0  0
  144.6274  131.2890  153.1603 H   0  0  0  0  0  0  0  0  0  0  0  0
  146.3130  130.7242  150.6675 H   0  0  0  0  0  0  0  0  0  0  0  0
  144.9954  129.7677  151.2980 H   0  0  0  0  0  0  0  0  0  0  0  0
  145.7715  132.9280  149.7032 H   0  0  0  0  0  0  0  0  0  0  0  0
  144.0938  133.4157  149.6892 H   0  0  0  0  0  0  0  0  0  0  0  0
  144.0288  133.6587  152.1119 H   0  0  0  0  0  0  0  0  0  0  0  0
  145.3193  134.6422  151.4882 H   0  0  0  0  0  0  0  0  0  0  0  0
  147.3923  140.5563  154.0984 H   0  0  0  0  0  0  0  0  0  0  0  0
  147.5558  139.9052  155.7193 H   0  0  0  0  0  0  0  0  0  0  0  0
  148.7529  142.0393  155.5381 H   0  0  0  0  0  0  0  0  0  0  0  0
  149.7041  141.4686  154.1809 H   0  0  0  0  0  0  0  0  0  0  0  0
  1  2  1  0  0  0  0
  1 31  1  0  0  0  0
  1 32  1  0  0  0  0
  1 33  1  0  0  0  0
  2  3  1  0  0  0  0
  2 34  1  0  0  0  0
  2 35  1  0  0  0  0
  3  4  1  0  0  0  0
  3 36  1  0  0  0  0
  4  5  2  0  0  0  0
  4  6  1  0  0  0  0
  6  7  1  0  0  0  0
  6 37  1  0  0  0  0
  6 38  1  0  0  0  0
  7 30  1  0  0  0  0
  7  8  1  0  0  0  0
  8  9  1  0  0  0  0
  8 39  1  0  0  0  0
  8 40  1  0  0  0  0
  9 10  1  0  0  0  0
  9 41  1  0  0  0  0
  9 42  1  0  0  0  0
 10 11  1  0  0  0  0
 10 29  1  0  0  0  0
 11 16  1  0  0  0  0
 11 12  2  0  0  0  0
 12 13  1  0  0  0  0
 13 14  2  0  0  0  0
 13 43  1  0  0  0  0
 14 15  1  0  0  0  0
 15 19  1  0  0  0  0
 15 16  2  0  0  0  0
 16 17  1  0  0  0  0
 17 18  2  0  0  0  0
 18 19  1  0  0  0  0
 18 44  1  0  0  0  0
 19 20  1  0  0  0  0
 20 21  1  0  0  0  0
 20 45  1  0  0  0  0
 20 46  1  0  0  0  0
 21 28  1  0  0  0  0
 21 22  1  0  0  0  0
 21 24  1  0  0  0  0
 22 23  1  0  0  0  0
 22 47  1  0  0  0  0
 22 48  1  0  0  0  0
 23 49  1  0  0  0  0
 24 25  1  0  0  0  0
 24 50  1  0  0  0  0
 24 51  1  0  0  0  0
 25 26  1  0  0  0  0
 25 52  1  0  0  0  0
 25 53  1  0  0  0  0
 26 27  1  0  0  0  0
 27 28  1  0  0  0  0
 27 54  1  0  0  0  0
 27 55  1  0  0  0  0
 28 56  1  0  0  0  0
 28 57  1  0  0  0  0
 29 30  1  0  0  0  0
 29 58  1  0  0  0  0
 29 59  1  0  0  0  0
 30 60  1  0  0  0  0
 30 61  1  0  0  0  0
M  END
> <s_m_source_file>
AV-unprocessed.smi

> <i_m_source_file_index>
269

> <i_lp_mmshare_version>
43012

> <i_f3d_flags>
0

> <s_epik_input>
W0NIM11bQ0gyXVtOSF1DKD1PKVtDSDJdTjFbQ0gyXVtDSDJdTihbQ0gyXVtDSDJdMSljKG5bY0hdbjIpYyhjMjMpbltjSF1uM1tDSDJdQzQoW0NIMl1bT0hdKVtDSDJdW0NIMl1PW0NIMl1bQ0gyXTQ=

> <s_epik_cmdline>
J2VwaWtfcHl0aG9uJywgJy1waCcsICc3LjAnLCAnLXRuJywgJzgnLCAnLW1hJywgJzIwMCcsICctbWV0YWxfYmluZGluZycsICctaW1hZScsICc8aW5maWxlLm1hZT4nLCAnLW9tYWUnLCAnPG91dGZpbGUubWFlPic=

> <r_lp_tautomer_probability>
1

> <r_epik_Ionization_Penalty>
0.90547

> <r_epik_Ionization_Penalty_Charging>
0

> <r_epik_Ionization_Penalty_Neutral>
0.90547

> <r_epik_State_Penalty>
0.940417

> <r_epik_Charging_Adjusted_Penalty>
0.940417

> <i_epik_Tot_Q>
0

> <i_epik_Tot_abs_Q>
0

> <r_epik_Metal_State_Penalty>
0.947257

> <b_epik_Metal_Only>
0

> <s_lp_Force_Field>
OPLS_2005

> <r_lp_Energy>
47.1209

> <b_lp_Chiralities_Consistent>
1

> <s_lp_Variant>
AV-unprocessed.smi:269-2

> <Gold.Version>
5.8.1

> <Gold.Id.Protein>
6NUR|6NUR_protein|mol2

> <Gold.PLP.Fitness>
46.4705

> <Gold.PLP.PLP>
-37.3984

> <Gold.PLP.part.hbond>
-2.0000

> <Gold.PLP.part.metal>
0.0000

> <Gold.PLP.part.buried>
-6.0093

> <Gold.PLP.part.nonpolar>
-30.8688

> <Gold.PLP.part.repulsive>
0.9915

> <Gold.PLP.ligand.clash>
0.0000

> <Gold.PLP.ligand.torsion>
1.3331

> <Gold.PLP.Chemscore.Hbond>
1.9920

> <Gold.PLP.Chemscore.CHOScore>
1.8497

> <Gold.PLP.Chemscore.Metal>
0.0000

> <Gold.Chemscore.Hbonds>
donor molecule, donor type, donor heavy atom, donor atom, acceptor molecule, acceptor atom, score
      L1  H     3    36       P1  8028  0.01
      L1  H    23    49       P1 10747  0.86
      L1  C    13    43       P1 10171  1.00

> <Gold.PLP.Chemscore.Internal.Correction>
0.2133

> <Gold.Rescore>
     Score         DG    S(hbond)    S(metal)    S(lipo)     H(rot)  DE(clash)    DE(int)     intcor
     10.80     -14.08       1.84        0.00      93.53       3.32       0.51       2.77       ----

> <Gold.Chemscore.Fitness>
10.7966

> <Gold.Chemscore.DG>
-14.0827

> <Gold.Chemscore.ZeroCoef>
-5.4800

> <Gold.Chemscore.Hbond>
1.8449

> <Gold.Chemscore.Metal>
0.0000

> <Gold.Chemscore.Lipo>
93.5325

> <Gold.Chemscore.Internal_Hbond>
0.0000

> <Gold.Chemscore.DEClash>
0.5112

> <Gold.Chemscore.DEInternal>
2.7750

> <Gold.Chemscore.Rot>
3.3213

> <Gold.Chemscore.Internal.Correction>
   9.000000E+99

> <Gold.Chemscore.Hbonds>
donor molecule, donor type, donor heavy atom, donor atom, acceptor molecule, acceptor atom, score
      L1  H     3    36       P1  8028  0.05
      L1  H    23    49       P1 10747  0.72

> <Gold.Chemscore.Hbond.Weighted>
-6.1619

> <Gold.Chemscore.Metal.Weighted>
-0.0000

> <Gold.Chemscore.Lipo.Weighted>
-10.9433

> <Gold.Chemscore.Internal_Hbond.Weighted>
0.0000

> <Gold.Chemscore.DEClash.Weighted>
0.5112

> <Gold.Chemscore.DEInternal.Weighted>
2.7750

> <Gold.Chemscore.Rot.Weighted>
8.5024

> <Gold.Chemscore.Internal.Correction.Weighted>
   9.000000E+99

> <Gold.Protein.RotatedTorsions>
[ 6907 6896 6895 6894 ] final  -17.22 input  -60.11 | X-H torsion
[ 7974 7965 7964 7962 ] final   61.12 input  175.53 | X-H torsion
[ 8008 7997 7996 7995 ] final  -48.25 input   59.86 | X-H torsion
[ 10167 10162 10161 10158 ] final   45.11 input  -65.29 | X-H torsion
[ 10718 10713 10712 10709 ] final  148.95 input   66.30 | X-H torsion
[ 10763 10752 10751 10750 ] final   96.69 input  -60.55 | X-H torsion
[ 11005 11000 10999 10996 ] final   49.05 input  -57.11 | X-H torsion

> <Gold.Protein.ActiveResidues>
 VAL166  LYS551  ARG553  GLY616  TRP617  ASP618  TYR619  PRO620  LYS621  CYS622 
 ASP623  PHE694  ASN695  SER759  ASP760  ASP761  ALA762  ILE779  LEU786  VAL792 
 PHE793  MET794  SER795  GLU796  ALA797  LYS798  CYS799  TRP800  GLU811  SER814 

> <Gold.Protein.RotatedAtoms>
  151.2966  135.0757  159.9223 H   0  0  0  0  0  0  0  0  0  0  0  0  # atno 6907 bound_to 6896
  152.5306  133.9876  159.7846 H   0  0  0  0  0  0  0  0  0  0  0  0  # atno 6908 bound_to 6896
  151.0155  133.5873  159.2708 H   0  0  0  0  0  0  0  0  0  0  0  0  # atno 6909 bound_to 6896
  145.8883  139.3492  143.0665 H   0  0  0  0  0  0  0  0  0  0  0  0  # atno 7974 bound_to 7965
  154.4026  140.1326  156.4307 H   0  0  0  0  0  0  0  0  0  0  0  0  # atno 8008 bound_to 7997
  155.7553  140.3487  155.5151 H   0  0  0  0  0  0  0  0  0  0  0  0  # atno 8009 bound_to 7997
  155.8910  140.1003  157.1408 H   0  0  0  0  0  0  0  0  0  0  0  0  # atno 8010 bound_to 7997
  140.3275  144.2630  150.6173 H   0  0  0  0  0  0  0  0  0  0  0  0  # atno 10167 bound_to 10162
  157.3022  131.0873  151.1381 H   0  0  0  0  0  0  0  0  0  0  0  0  # atno 10718 bound_to 10713
  153.2679  135.4210  155.0959 H   0  0  0  0  0  0  0  0  0  0  0  0  # atno 10763 bound_to 10752
  154.8445  135.3465  154.6285 H   0  0  0  0  0  0  0  0  0  0  0  0  # atno 10764 bound_to 10752
  153.6705  135.7044  153.5206 H   0  0  0  0  0  0  0  0  0  0  0  0  # atno 10765 bound_to 10752
  140.1137  134.4920  155.8655 H   0  0  0  0  0  0  0  0  0  0  0  0  # atno 11005 bound_to 11000
  145.8940  140.9286  143.0537 LP  0  0  0  0  0  0  0  0  0  0  0  0  # atno 17320 bound_to 7965
  144.6729  140.0943  143.7463 LP  0  0  0  0  0  0  0  0  0  0  0  0  # atno 17321 bound_to 7965
  140.5428  143.2220  151.8057 LP  0  0  0  0  0  0  0  0  0  0  0  0  # atno 17342 bound_to 10162
  139.4862  144.4578  151.9577 LP  0  0  0  0  0  0  0  0  0  0  0  0  # atno 17343 bound_to 10162
  157.2736  130.6716  149.6031 LP  0  0  0  0  0  0  0  0  0  0  0  0  # atno 17370 bound_to 10713
  155.9672  130.4471  150.5569 LP  0  0  0  0  0  0  0  0  0  0  0  0  # atno 17371 bound_to 10713
  141.2136  133.6736  156.6755 LP  0  0  0  0  0  0  0  0  0  0  0  0  # atno 17394 bound_to 11000
  140.3056  134.8128  157.4134 LP  0  0  0  0  0  0  0  0  0  0  0  0  # atno 17395 bound_to 11000

$$$$
