AV-unprocessed.smi:688|AV-procd|sdf|3357|dock2
  -GOLD-   22720 0333D 1   1.00000     0.00000
 Structure written by MMmdl.
 35 36  0  0  0  0  0  0  0  0  2 V2000
  151.0029  133.1897  157.3267 O   0  0  0  0  0  0  0  0  0  0  0  0
  150.5380  134.2683  156.9617 C   0  0  0  0  0  0  0  0  0  0  0  0
  150.4662  135.3552  157.7842 N   0  5  0  0  0  0  0  0  0  0  0  0
  149.9460  136.5612  157.3994 C   0  0  0  0  0  0  0  0  0  0  0  0
  149.8929  137.5265  158.1615 O   0  0  0  0  0  0  0  0  0  0  0  0
  149.4678  136.6973  156.1264 N   0  0  0  0  0  0  0  0  0  0  0  0
  148.8778  137.9556  155.6367 C   0  0  0  0  0  0  0  0  0  0  0  0
  149.7577  138.6513  154.5728 C   0  0  1  0  0  0  0  0  0  0  0  0
  149.1667  138.4479  153.3058 O   0  0  0  0  0  0  0  0  0  0  0  0
  149.9294  140.1655  154.8030 C   0  0  0  0  0  0  0  0  0  0  0  0
  150.7652  140.3688  155.9346 O   0  0  0  0  0  0  0  0  0  0  0  0
  150.8242  141.7207  156.3669 C   0  0  0  0  0  0  0  0  0  0  0  0
  151.5334  141.8759  157.7026 C   0  0  0  0  0  0  0  0  0  0  0  0
  151.7598  143.1625  158.2358 C   0  0  0  0  0  0  0  0  0  0  0  0
  152.4283  143.3118  159.4660 C   0  0  0  0  0  0  0  0  0  0  0  0
  152.8757  142.1754  160.1671 C   0  0  0  0  0  0  0  0  0  0  0  0
  153.7091  142.3583  161.6664 Cl  0  0  0  0  0  0  0  0  0  0  0  0
  152.6460  140.8891  159.6411 C   0  0  0  0  0  0  0  0  0  0  0  0
  151.9725  140.7390  158.4130 C   0  0  0  0  0  0  0  0  0  0  0  0
  149.5263  135.6093  155.2374 C   0  0  0  0  0  0  0  0  0  0  0  0
  150.0303  134.4139  155.5994 C   0  0  0  0  0  0  0  0  0  0  0  0
  150.0646  133.0885  154.4916 Cl  0  0  0  0  0  0  0  0  0  0  0  0
  147.8920  137.7422  155.2190 H   0  0  0  0  0  0  0  0  0  0  0  0
  148.6903  138.6409  156.4646 H   0  0  0  0  0  0  0  0  0  0  0  0
  150.7371  138.1719  154.5555 H   0  0  0  0  0  0  0  0  0  0  0  0
  149.6006  139.0108  152.6831 H   0  0  0  0  0  0  0  0  0  0  0  0
  150.3403  140.6710  153.9277 H   0  0  0  0  0  0  0  0  0  0  0  0
  148.9579  140.6220  154.9813 H   0  0  0  0  0  0  0  0  0  0  0  0
  151.3806  142.2910  155.6230 H   0  0  0  0  0  0  0  0  0  0  0  0
  149.8211  142.1488  156.4043 H   0  0  0  0  0  0  0  0  0  0  0  0
  151.4308  144.0395  157.6974 H   0  0  0  0  0  0  0  0  0  0  0  0
  152.6083  144.2997  159.8639 H   0  0  0  0  0  0  0  0  0  0  0  0
  152.9892  140.0165  160.1771 H   0  0  0  0  0  0  0  0  0  0  0  0
  151.8036  139.7491  158.0149 H   0  0  0  0  0  0  0  0  0  0  0  0
  149.1257  135.8003  154.2526 H   0  0  0  0  0  0  0  0  0  0  0  0
  1  2  2  0  0  0  0
  2 21  1  0  0  0  0
  2  3  1  0  0  0  0
  3  4  1  0  0  0  0
  4  5  2  0  0  0  0
  4  6  1  0  0  0  0
  6  7  1  0  0  0  0
  6 20  1  0  0  0  0
  7  8  1  0  0  0  0
  7 23  1  0  0  0  0
  7 24  1  0  0  0  0
  8  9  1  0  0  0  0
  8 10  1  0  0  0  0
  8 25  1  0  0  0  0
  9 26  1  0  0  0  0
 10 11  1  0  0  0  0
 10 27  1  0  0  0  0
 10 28  1  0  0  0  0
 11 12  1  0  0  0  0
 12 13  1  0  0  0  0
 12 29  1  0  0  0  0
 12 30  1  0  0  0  0
 13 19  1  0  0  0  0
 13 14  2  0  0  0  0
 14 15  1  0  0  0  0
 14 31  1  0  0  0  0
 15 16  2  0  0  0  0
 15 32  1  0  0  0  0
 16 17  1  0  0  0  0
 16 18  1  0  0  0  0
 18 19  2  0  0  0  0
 18 33  1  0  0  0  0
 19 34  1  0  0  0  0
 20 21  2  0  0  0  0
 20 35  1  0  0  0  0
 21 22  1  0  0  0  0
M  CHG  1   3  -1
M  END
> <s_m_source_file>
AV-unprocessed.smi

> <i_m_source_file_index>
688

> <i_lp_mmshare_version>
43012

> <i_f3d_flags>
0

> <s_epik_input>
Tz1jMVtuSF1jKD1PKW4oW2NIXWMxQ2wpW0NIMl1bQ0BIXShbT0hdKVtDSDJdT1tDSDJdYzJbY0hdW2NIXWMoQ2wpW2NIXVtjSF0y

> <s_epik_cmdline>
J2VwaWtfcHl0aG9uJywgJy1waCcsICc3LjAnLCAnLXRuJywgJzgnLCAnLW1hJywgJzIwMCcsICctbWV0YWxfYmluZGluZycsICctaW1hZScsICc8aW5maWxlLm1hZT4nLCAnLW9tYWUnLCAnPG91dGZpbGUubWFlPic=

> <r_epik_Ionization_Penalty>
1.82111

> <r_epik_Ionization_Penalty_Charging>
5.03334e-08

> <r_epik_Ionization_Penalty_Neutral>
1.82111

> <r_epik_State_Penalty>
1.93633

> <r_epik_Charging_Adjusted_Penalty>
1.93633

> <i_epik_Tot_Q>
-1

> <i_epik_Tot_abs_Q>
1

> <r_epik_Metal_State_Penalty>
0.0147818

> <b_epik_Metal_Only>
0

> <s_lp_Force_Field>
OPLS_2005

> <r_lp_Energy>
20.5354

> <b_lp_Chiralities_Consistent>
1

> <s_lp_Variant>
AV-unprocessed.smi:688-4

> <Gold.Version>
5.8.1

> <Gold.Id.Protein>
6NUR|6NUR_protein|mol2

> <Gold.PLP.Fitness>
49.4825

> <Gold.PLP.PLP>
-39.8816

> <Gold.PLP.part.hbond>
-4.0000

> <Gold.PLP.part.metal>
0.0000

> <Gold.PLP.part.buried>
-5.2100

> <Gold.PLP.part.nonpolar>
-31.5149

> <Gold.PLP.part.repulsive>
0.0138

> <Gold.PLP.ligand.clash>
0.0000

> <Gold.PLP.ligand.torsion>
0.8484

> <Gold.PLP.Chemscore.Hbond>
2.6786

> <Gold.PLP.Chemscore.CHOScore>
1.0000

> <Gold.PLP.Chemscore.Metal>
0.0000

> <Gold.Chemscore.Hbonds>
donor molecule, donor type, donor heavy atom, donor atom, acceptor molecule, acceptor atom, score
      L1  H     9    26       P1  7957  1.00
      P1  H  6896  6907       L1     1  0.61
      P1  H  6896  6908       L1     3  1.06
      L1  C    20    35       P1  7948  1.00

> <Gold.PLP.Chemscore.Internal.Correction>
0.2619

> <Gold.Rescore>
     Score         DG    S(hbond)    S(metal)    S(lipo)     H(rot)  DE(clash)    DE(int)     intcor
     15.18     -16.07       1.88        0.00      99.18       2.85       0.02       0.87       ----

> <Gold.Chemscore.Fitness>
15.1824

> <Gold.Chemscore.DG>
-16.0722

> <Gold.Chemscore.ZeroCoef>
-5.4800

> <Gold.Chemscore.Hbond>
1.8847

> <Gold.Chemscore.Metal>
0.0000

> <Gold.Chemscore.Lipo>
99.1805

> <Gold.Chemscore.Internal_Hbond>
0.0000

> <Gold.Chemscore.DEClash>
0.0158

> <Gold.Chemscore.DEInternal>
0.8741

> <Gold.Chemscore.Rot>
2.8542

> <Gold.Chemscore.Internal.Correction>
   9.000000E+99

> <Gold.Chemscore.Hbonds>
donor molecule, donor type, donor heavy atom, donor atom, acceptor molecule, acceptor atom, score
      L1  H     9    26       P1  7957  0.89
      P1  H  6896  6907       L1     1  0.42
      P1  H  6896  6908       L1     3  0.34

> <Gold.Chemscore.Hbond.Weighted>
-6.2948

> <Gold.Chemscore.Metal.Weighted>
-0.0000

> <Gold.Chemscore.Lipo.Weighted>
-11.6041

> <Gold.Chemscore.Internal_Hbond.Weighted>
0.0000

> <Gold.Chemscore.DEClash.Weighted>
0.0158

> <Gold.Chemscore.DEInternal.Weighted>
0.8741

> <Gold.Chemscore.Rot.Weighted>
7.3067

> <Gold.Chemscore.Internal.Correction.Weighted>
   9.000000E+99

> <Gold.Protein.RotatedTorsions>
[ 6907 6896 6895 6894 ] final -177.87 input  -60.11 | X-H torsion
[ 7974 7965 7964 7962 ] final -129.75 input  175.53 | X-H torsion
[ 8008 7997 7996 7995 ] final    6.26 input   59.86 | X-H torsion
[ 10167 10162 10161 10158 ] final  -53.70 input  -65.29 | X-H torsion
[ 10718 10713 10712 10709 ] final   62.61 input   66.30 | X-H torsion
[ 10763 10752 10751 10750 ] final   25.02 input  -60.55 | X-H torsion
[ 11005 11000 10999 10996 ] final -107.19 input  -57.11 | X-H torsion

> <Gold.Protein.ActiveResidues>
 VAL166  LYS551  ARG553  GLY616  TRP617  ASP618  TYR619  PRO620  LYS621  CYS622 
 ASP623  PHE694  ASN695  SER759  ASP760  ASP761  ALA762  ILE779  LEU786  VAL792 
 PHE793  MET794  SER795  GLU796  ALA797  LYS798  CYS799  TRP800  GLU811  SER814 

> <Gold.Protein.RotatedAtoms>
  151.6280  133.3334  159.3102 H   0  0  0  0  0  0  0  0  0  0  0  0  # atno 6907 bound_to 6896
  150.8071  134.7207  159.6666 H   0  0  0  0  0  0  0  0  0  0  0  0  # atno 6908 bound_to 6896
  152.4167  134.6034  160.0057 H   0  0  0  0  0  0  0  0  0  0  0  0  # atno 6909 bound_to 6896
  144.9542  140.7377  143.4769 H   0  0  0  0  0  0  0  0  0  0  0  0  # atno 7974 bound_to 7965
  154.7387  140.2745  155.6392 H   0  0  0  0  0  0  0  0  0  0  0  0  # atno 8008 bound_to 7997
  156.2868  140.2701  156.2034 H   0  0  0  0  0  0  0  0  0  0  0  0  # atno 8009 bound_to 7997
  155.0286  140.0371  157.2455 H   0  0  0  0  0  0  0  0  0  0  0  0  # atno 8010 bound_to 7997
  140.6471  143.2542  151.4829 H   0  0  0  0  0  0  0  0  0  0  0  0  # atno 10167 bound_to 10162
  157.5913  130.9059  149.9609 H   0  0  0  0  0  0  0  0  0  0  0  0  # atno 10718 bound_to 10713
  153.0722  135.6592  154.0223 H   0  0  0  0  0  0  0  0  0  0  0  0  # atno 10763 bound_to 10752
  153.9866  135.2950  155.3417 H   0  0  0  0  0  0  0  0  0  0  0  0  # atno 10764 bound_to 10752
  154.7100  135.5209  153.8721 H   0  0  0  0  0  0  0  0  0  0  0  0  # atno 10765 bound_to 10752
  141.0966  133.8959  157.1947 H   0  0  0  0  0  0  0  0  0  0  0  0  # atno 11005 bound_to 11000
  145.2798  139.1922  143.4797 LP  0  0  0  0  0  0  0  0  0  0  0  0  # atno 17320 bound_to 7965
  146.3331  140.2758  142.8608 LP  0  0  0  0  0  0  0  0  0  0  0  0  # atno 17321 bound_to 7965
  139.5682  144.1991  152.1797 LP  0  0  0  0  0  0  0  0  0  0  0  0  # atno 17342 bound_to 10162
  140.1279  144.5315  150.6821 LP  0  0  0  0  0  0  0  0  0  0  0  0  # atno 17343 bound_to 10162
  156.0968  130.3659  150.0292 LP  0  0  0  0  0  0  0  0  0  0  0  0  # atno 17370 bound_to 10713
  156.8414  130.9427  151.3631 LP  0  0  0  0  0  0  0  0  0  0  0  0  # atno 17371 bound_to 10713
  139.9805  135.0100  156.9737 LP  0  0  0  0  0  0  0  0  0  0  0  0  # atno 17394 bound_to 11000
  140.5124  134.0988  155.7273 LP  0  0  0  0  0  0  0  0  0  0  0  0  # atno 17395 bound_to 11000

$$$$
