AV-unprocessed.smi:2270|AV-procd|sdf|9159|dock7
  -GOLD-   2272012363D 1   1.00000     0.00000
 Structure written by MMmdl.
 52 53  0  0  0  0  0  0  0  0  1 V2000
  145.6703  131.7966  149.6533 C   0  0  0  0  0  0  0  0  0  0  0  0
  145.0708  132.8946  150.5060 C   0  0  0  0  0  0  0  0  0  0  0  0
  143.7253  132.8383  150.9191 C   0  0  0  0  0  0  0  0  0  0  0  0
  143.2321  133.8869  151.7160 C   0  0  0  0  0  0  0  0  0  0  0  0
  144.0989  134.9402  152.0661 C   0  0  0  0  0  0  0  0  0  0  0  0
  145.4359  134.9213  151.6084 C   0  0  0  0  0  0  0  0  0  0  0  0
  146.2308  136.0228  152.0220 N   0  0  0  0  0  0  0  0  0  0  0  0
  145.8251  137.2621  152.3508 C   0  0  0  0  0  0  0  0  0  0  0  0
  144.6528  137.6331  152.4142 O   0  0  0  0  0  0  0  0  0  0  0  0
  146.8718  138.0602  152.6078 N   0  0  0  0  0  0  0  0  0  0  0  0
  146.8024  139.4716  152.9773 C   0  0  0  0  0  0  0  0  0  0  0  0
  147.1257  139.7059  154.4795 C   0  0  1  0  0  0  0  0  0  0  0  0
  148.6513  139.7423  154.8047 C   0  0  0  0  0  0  0  0  0  0  0  0
  149.2704  141.1131  154.4829 C   0  0  0  0  0  0  0  0  0  0  0  0
  149.5062  138.6064  154.2133 C   0  0  0  0  0  0  0  0  0  0  0  0
  146.3433  140.7822  155.1174 N   0  0  0  0  0  0  0  0  0  0  0  0
  146.6573  141.0376  156.5290 C   0  0  0  0  0  0  0  0  0  0  0  0
  145.7033  142.0855  157.1315 C   0  0  0  0  0  0  0  0  0  0  0  0
  145.7679  143.3499  156.4007 N   0  0  0  0  0  0  0  0  0  0  0  0
  144.8708  144.3432  156.9708 C   0  0  0  0  0  0  0  0  0  0  0  0
  145.4678  143.1008  154.9923 C   0  0  0  0  0  0  0  0  0  0  0  0
  146.4218  142.0525  154.3905 C   0  0  0  0  0  0  0  0  0  0  0  0
  145.9018  133.9051  150.8402 N   0  0  0  0  0  0  0  0  0  0  0  0
  144.8954  131.1504  149.2402 H   0  0  0  0  0  0  0  0  0  0  0  0
  146.3448  131.1832  150.2509 H   0  0  0  0  0  0  0  0  0  0  0  0
  146.2358  132.2214  148.8232 H   0  0  0  0  0  0  0  0  0  0  0  0
  143.0870  132.0144  150.6353 H   0  0  0  0  0  0  0  0  0  0  0  0
  142.2067  133.8838  152.0548 H   0  0  0  0  0  0  0  0  0  0  0  0
  143.7366  135.7525  152.6794 H   0  0  0  0  0  0  0  0  0  0  0  0
  147.2253  135.8538  152.0489 H   0  0  0  0  0  0  0  0  0  0  0  0
  147.7965  137.6627  152.5316 H   0  0  0  0  0  0  0  0  0  0  0  0
  147.4460  140.0750  152.3365 H   0  0  0  0  0  0  0  0  0  0  0  0
  145.7854  139.7932  152.7559 H   0  0  0  0  0  0  0  0  0  0  0  0
  146.8004  138.7848  154.9659 H   0  0  0  0  0  0  0  0  0  0  0  0
  148.7373  139.6401  155.8863 H   0  0  0  0  0  0  0  0  0  0  0  0
  149.2787  141.3061  153.4098 H   0  0  0  0  0  0  0  0  0  0  0  0
  150.3005  141.1702  154.8356 H   0  0  0  0  0  0  0  0  0  0  0  0
  148.7150  141.9198  154.9620 H   0  0  0  0  0  0  0  0  0  0  0  0
  149.7195  138.7660  153.1574 H   0  0  0  0  0  0  0  0  0  0  0  0
  149.0358  137.6308  154.3244 H   0  0  0  0  0  0  0  0  0  0  0  0
  150.4704  138.5556  154.7197 H   0  0  0  0  0  0  0  0  0  0  0  0
  146.5893  140.1286  157.1180 H   0  0  0  0  0  0  0  0  0  0  0  0
  147.6833  141.3935  156.6294 H   0  0  0  0  0  0  0  0  0  0  0  0
  144.6829  141.6987  157.1221 H   0  0  0  0  0  0  0  0  0  0  0  0
  145.9642  142.2515  158.1773 H   0  0  0  0  0  0  0  0  0  0  0  0
  144.9433  145.2858  156.4273 H   0  0  0  0  0  0  0  0  0  0  0  0
  145.1254  144.5405  158.0125 H   0  0  0  0  0  0  0  0  0  0  0  0
  143.8338  144.0071  156.9316 H   0  0  0  0  0  0  0  0  0  0  0  0
  144.4369  142.7601  154.8837 H   0  0  0  0  0  0  0  0  0  0  0  0
  145.5501  144.0302  154.4282 H   0  0  0  0  0  0  0  0  0  0  0  0
  147.4408  142.4397  154.4046 H   0  0  0  0  0  0  0  0  0  0  0  0
  146.1602  141.8981  153.3433 H   0  0  0  0  0  0  0  0  0  0  0  0
  1  2  1  0  0  0  0
  1 24  1  0  0  0  0
  1 25  1  0  0  0  0
  1 26  1  0  0  0  0
  2 23  1  0  0  0  0
  2  3  2  0  0  0  0
  3  4  1  0  0  0  0
  3 27  1  0  0  0  0
  4  5  2  0  0  0  0
  4 28  1  0  0  0  0
  5  6  1  0  0  0  0
  5 29  1  0  0  0  0
  6  7  1  0  0  0  0
  6 23  2  0  0  0  0
  7  8  1  0  0  0  0
  7 30  1  0  0  0  0
  8  9  2  0  0  0  0
  8 10  1  0  0  0  0
 10 11  1  0  0  0  0
 10 31  1  0  0  0  0
 11 12  1  0  0  0  0
 11 32  1  0  0  0  0
 11 33  1  0  0  0  0
 12 13  1  0  0  0  0
 12 16  1  0  0  0  0
 12 34  1  0  0  0  0
 13 14  1  0  0  0  0
 13 15  1  0  0  0  0
 13 35  1  0  0  0  0
 14 36  1  0  0  0  0
 14 37  1  0  0  0  0
 14 38  1  0  0  0  0
 15 39  1  0  0  0  0
 15 40  1  0  0  0  0
 15 41  1  0  0  0  0
 16 22  1  0  0  0  0
 16 17  1  0  0  0  0
 17 18  1  0  0  0  0
 17 42  1  0  0  0  0
 17 43  1  0  0  0  0
 18 19  1  0  0  0  0
 18 44  1  0  0  0  0
 18 45  1  0  0  0  0
 19 20  1  0  0  0  0
 19 21  1  0  0  0  0
 20 46  1  0  0  0  0
 20 47  1  0  0  0  0
 20 48  1  0  0  0  0
 21 22  1  0  0  0  0
 21 49  1  0  0  0  0
 21 50  1  0  0  0  0
 22 51  1  0  0  0  0
 22 52  1  0  0  0  0
M  END
> <s_m_source_file>
AV-unprocessed.smi

> <i_m_source_file_index>
2270

> <i_lp_mmshare_version>
43012

> <i_f3d_flags>
0

> <s_epik_input>
W0NIM11jMVtjSF1bY0hdW2NIXWMobjEpW05IXUMoPU8pW05IXVtDSDJdW0NASF0oW0NIXShbQ0gzXSlbQ0gzXSlOMltDSDJdW0NIMl1OKFtDSDNdKVtDSDJdW0NIMl0y

> <s_epik_cmdline>
J2VwaWtfcHl0aG9uJywgJy1waCcsICc3LjAnLCAnLXRuJywgJzgnLCAnLW1hJywgJzIwMCcsICctbWV0YWxfYmluZGluZycsICctaW1hZScsICc8aW5maWxlLm1hZT4nLCAnLW9tYWUnLCAnPG91dGZpbGUubWFlPic=

> <r_epik_Ionization_Penalty>
2.57754

> <r_epik_Ionization_Penalty_Charging>
0

> <r_epik_Ionization_Penalty_Neutral>
2.57754

> <r_epik_State_Penalty>
2.00874

> <r_epik_Charging_Adjusted_Penalty>
2.00874

> <i_epik_Tot_Q>
0

> <i_epik_Tot_abs_Q>
0

> <r_epik_Metal_State_Penalty>
2.00874

> <b_epik_Metal_Only>
0

> <s_lp_Force_Field>
OPLS_2005

> <r_lp_Energy>
49.2336

> <b_lp_Chiralities_Consistent>
1

> <s_lp_Variant>
AV-unprocessed.smi:2270-6

> <Gold.Version>
5.8.1

> <Gold.Id.Protein>
6NUR|6NUR_protein|mol2

> <Gold.PLP.Fitness>
41.1187

> <Gold.PLP.PLP>
-36.7035

> <Gold.PLP.part.hbond>
-2.0000

> <Gold.PLP.part.metal>
0.0000

> <Gold.PLP.part.buried>
-6.7431

> <Gold.PLP.part.nonpolar>
-30.2946

> <Gold.PLP.part.repulsive>
1.4532

> <Gold.PLP.ligand.clash>
0.0000

> <Gold.PLP.ligand.torsion>
0.8945

> <Gold.PLP.Chemscore.Hbond>
1.9280

> <Gold.PLP.Chemscore.CHOScore>
0.0000

> <Gold.PLP.Chemscore.Metal>
0.0000

> <Gold.Chemscore.Hbonds>
donor molecule, donor type, donor heavy atom, donor atom, acceptor molecule, acceptor atom, score
      L1  H     7    30       P1  7948  1.00
      L1  H    10    31       P1  7948  0.98

> <Gold.PLP.Chemscore.Internal.Correction>
0.4202

> <Gold.Rescore>
     Score         DG    S(hbond)    S(metal)    S(lipo)     H(rot)  DE(clash)    DE(int)     intcor
     15.28     -17.86       1.93        0.00      84.88       1.56       0.05       2.52       ----

> <Gold.Chemscore.Fitness>
15.2837

> <Gold.Chemscore.DG>
-17.8574

> <Gold.Chemscore.ZeroCoef>
-5.4800

> <Gold.Chemscore.Hbond>
1.9292

> <Gold.Chemscore.Metal>
0.0000

> <Gold.Chemscore.Lipo>
84.8753

> <Gold.Chemscore.Internal_Hbond>
0.0000

> <Gold.Chemscore.DEClash>
0.0535

> <Gold.Chemscore.DEInternal>
2.5201

> <Gold.Chemscore.Rot>
1.5612

> <Gold.Chemscore.Internal.Correction>
   9.000000E+99

> <Gold.Chemscore.Hbonds>
donor molecule, donor type, donor heavy atom, donor atom, acceptor molecule, acceptor atom, score
      L1  H     7    30       P1  7948  0.99
      L1  H    10    31       P1  7948  0.93

> <Gold.Chemscore.Hbond.Weighted>
-6.4436

> <Gold.Chemscore.Metal.Weighted>
-0.0000

> <Gold.Chemscore.Lipo.Weighted>
-9.9304

> <Gold.Chemscore.Internal_Hbond.Weighted>
0.0000

> <Gold.Chemscore.DEClash.Weighted>
0.0535

> <Gold.Chemscore.DEInternal.Weighted>
2.5201

> <Gold.Chemscore.Rot.Weighted>
3.9966

> <Gold.Chemscore.Internal.Correction.Weighted>
   9.000000E+99

> <Gold.Protein.RotatedTorsions>
[ 6907 6896 6895 6894 ] final   44.27 input  -60.11 | X-H torsion
[ 7974 7965 7964 7962 ] final -164.43 input  175.53 | X-H torsion
[ 8008 7997 7996 7995 ] final  -34.13 input   59.86 | X-H torsion
[ 10167 10162 10161 10158 ] final  -31.45 input  -65.29 | X-H torsion
[ 10718 10713 10712 10709 ] final -104.29 input   66.30 | X-H torsion
[ 10763 10752 10751 10750 ] final   25.94 input  -60.55 | X-H torsion
[ 11005 11000 10999 10996 ] final -175.73 input  -57.11 | X-H torsion

> <Gold.Protein.ActiveResidues>
 VAL166  LYS551  ARG553  GLY616  TRP617  ASP618  TYR619  PRO620  LYS621  CYS622 
 ASP623  PHE694  ASN695  SER759  ASP760  ASP761  ALA762  ILE779  LEU786  VAL792 
 PHE793  MET794  SER795  GLU796  ALA797  LYS798  CYS799  TRP800  GLU811  SER814 

> <Gold.Protein.RotatedAtoms>
  152.2305  134.8326  160.0473 H   0  0  0  0  0  0  0  0  0  0  0  0  # atno 6907 bound_to 6896
  151.9077  133.3548  159.3861 H   0  0  0  0  0  0  0  0  0  0  0  0  # atno 6908 bound_to 6896
  150.7024  134.4689  159.5460 H   0  0  0  0  0  0  0  0  0  0  0  0  # atno 6909 bound_to 6896
  144.7297  140.2962  143.6212 H   0  0  0  0  0  0  0  0  0  0  0  0  # atno 7974 bound_to 7965
  154.4129  140.1692  156.2000 H   0  0  0  0  0  0  0  0  0  0  0  0  # atno 8008 bound_to 7997
  155.9532  140.3399  155.6402 H   0  0  0  0  0  0  0  0  0  0  0  0  # atno 8009 bound_to 7997
  155.6843  140.0726  157.2463 H   0  0  0  0  0  0  0  0  0  0  0  0  # atno 8010 bound_to 7997
  140.7236  143.3769  151.1672 H   0  0  0  0  0  0  0  0  0  0  0  0  # atno 10167 bound_to 10162
  156.0298  130.5508  150.7375 H   0  0  0  0  0  0  0  0  0  0  0  0  # atno 10718 bound_to 10713
  153.0657  135.6571  154.0360 H   0  0  0  0  0  0  0  0  0  0  0  0  # atno 10763 bound_to 10752
  154.0018  135.2936  155.3403 H   0  0  0  0  0  0  0  0  0  0  0  0  # atno 10764 bound_to 10752
  154.7013  135.5243  153.8600 H   0  0  0  0  0  0  0  0  0  0  0  0  # atno 10765 bound_to 10752
  140.4600  134.6263  157.4839 H   0  0  0  0  0  0  0  0  0  0  0  0  # atno 11005 bound_to 11000
  145.7806  139.1890  143.2160 LP  0  0  0  0  0  0  0  0  0  0  0  0  # atno 17320 bound_to 7965
  146.0837  140.7735  142.9629 LP  0  0  0  0  0  0  0  0  0  0  0  0  # atno 17321 bound_to 7965
  139.7351  143.9011  152.3032 LP  0  0  0  0  0  0  0  0  0  0  0  0  # atno 17342 bound_to 10162
  139.8813  144.7016  150.8874 LP  0  0  0  0  0  0  0  0  0  0  0  0  # atno 17343 bound_to 10162
  157.4952  131.0914  151.0380 LP  0  0  0  0  0  0  0  0  0  0  0  0  # atno 17370 bound_to 10713
  157.0776  130.5889  149.5414 LP  0  0  0  0  0  0  0  0  0  0  0  0  # atno 17371 bound_to 10713
  139.9951  134.6924  155.9623 LP  0  0  0  0  0  0  0  0  0  0  0  0  # atno 17394 bound_to 11000
  141.1625  133.6538  156.4368 LP  0  0  0  0  0  0  0  0  0  0  0  0  # atno 17395 bound_to 11000

$$$$
