AV-unprocessed.smi:1492|AV-procd|sdf|6047|dock5
  -GOLD-   22720 6163D 1   1.00000     0.00000
 Structure written by MMmdl.
 52 53  0  0  0  0  0  0  0  0  3 V2000
  143.0175  137.6743  153.0600 C   0  0  0  0  0  0  0  0  0  0  0  0
  143.7982  136.3565  152.9122 C   0  0  0  0  0  0  0  0  0  0  0  0
  143.1383  135.1027  153.5686 C   0  0  2  0  0  0  0  0  0  0  0  0
  141.6330  135.1290  153.1930 C   0  0  0  0  0  0  0  0  0  0  0  0
  143.2870  135.1943  155.1201 C   0  0  0  0  0  0  0  0  0  0  0  0
  144.6289  135.5951  155.5288 N   0  0  0  0  0  0  0  0  0  0  0  0
  145.4931  134.8704  156.2563 C   0  0  0  0  0  0  0  0  0  0  0  0
  145.3149  133.6869  156.5416 O   0  0  0  0  0  0  0  0  0  0  0  0
  146.7316  135.6082  156.7744 C   0  0  0  0  0  0  0  0  0  0  0  0
  146.8537  135.6887  158.2980 C   0  0  0  0  0  0  0  0  0  0  0  0
  147.0449  134.6008  159.0982 C   0  0  0  0  0  0  0  0  0  0  0  0
  147.1118  133.1810  158.5634 C   0  0  0  0  0  0  0  0  0  0  0  0
  147.2125  134.7410  160.4861 N   0  0  0  0  0  0  0  0  0  0  0  0
  147.2031  135.9085  161.0069 C   0  0  0  0  0  0  0  0  0  0  0  0
  147.3910  136.0551  162.5017 C   0  0  0  0  0  0  0  0  0  0  0  0
  147.0296  137.0691  160.2874 N   0  5  0  0  0  0  0  0  0  0  0  0
  146.8407  137.0156  158.9388 C   0  0  0  0  0  0  0  0  0  0  0  0
  146.6785  138.0287  158.2598 O   0  0  0  0  0  0  0  0  0  0  0  0
  143.7718  133.8378  153.0460 N   0  3  0  0  0  0  0  0  0  0  0  0
  143.4438  133.4780  151.6371 C   0  0  0  0  0  0  0  0  0  0  0  0
  143.9780  132.0762  151.3027 C   0  0  0  0  0  0  0  0  0  0  0  0
  145.3830  132.0408  151.5095 O   0  0  0  0  0  0  0  0  0  0  0  0
  145.7209  132.2990  152.8649 C   0  0  0  0  0  0  0  0  0  0  0  0
  145.2410  133.7055  153.2620 C   0  0  0  0  0  0  0  0  0  0  0  0
  143.5513  138.4874  152.5679 H   0  0  0  0  0  0  0  0  0  0  0  0
  142.8963  137.9570  154.1054 H   0  0  0  0  0  0  0  0  0  0  0  0
  142.0275  137.6160  152.6086 H   0  0  0  0  0  0  0  0  0  0  0  0
  143.9957  136.1761  151.8560 H   0  0  0  0  0  0  0  0  0  0  0  0
  144.7863  136.5211  153.3445 H   0  0  0  0  0  0  0  0  0  0  0  0
  141.2003  136.1203  153.3283 H   0  0  0  0  0  0  0  0  0  0  0  0
  141.0431  134.4523  153.8114 H   0  0  0  0  0  0  0  0  0  0  0  0
  141.4699  134.8506  152.1517 H   0  0  0  0  0  0  0  0  0  0  0  0
  142.5497  135.8739  155.5475 H   0  0  0  0  0  0  0  0  0  0  0  0
  143.1070  134.2251  155.5831 H   0  0  0  0  0  0  0  0  0  0  0  0
  144.8834  136.5547  155.3414 H   0  0  0  0  0  0  0  0  0  0  0  0
  147.6254  135.1366  156.3634 H   0  0  0  0  0  0  0  0  0  0  0  0
  146.7227  136.6105  156.3473 H   0  0  0  0  0  0  0  0  0  0  0  0
  146.1518  132.8906  158.1362 H   0  0  0  0  0  0  0  0  0  0  0  0
  147.3547  132.4716  159.3555 H   0  0  0  0  0  0  0  0  0  0  0  0
  147.8766  133.0942  157.7919 H   0  0  0  0  0  0  0  0  0  0  0  0
  146.5037  136.5023  162.9507 H   0  0  0  0  0  0  0  0  0  0  0  0
  148.2477  136.6957  162.7147 H   0  0  0  0  0  0  0  0  0  0  0  0
  147.5624  135.0869  162.9741 H   0  0  0  0  0  0  0  0  0  0  0  0
  142.3701  133.4764  151.4612 H   0  0  0  0  0  0  0  0  0  0  0  0
  143.8813  134.2011  150.9486 H   0  0  0  0  0  0  0  0  0  0  0  0
  143.4860  131.3149  151.9105 H   0  0  0  0  0  0  0  0  0  0  0  0
  143.7701  131.8345  150.2602 H   0  0  0  0  0  0  0  0  0  0  0  0
  145.2825  131.5395  153.5144 H   0  0  0  0  0  0  0  0  0  0  0  0
  146.8028  132.2268  152.9771 H   0  0  0  0  0  0  0  0  0  0  0  0
  145.7779  134.4493  152.6729 H   0  0  0  0  0  0  0  0  0  0  0  0
  145.5113  133.8642  154.3042 H   0  0  0  0  0  0  0  0  0  0  0  0
  143.3594  133.1054  153.6060 H   0  0  0  0  0  0  0  0  0  0  0  0
  1  2  1  0  0  0  0
  1 25  1  0  0  0  0
  1 26  1  0  0  0  0
  1 27  1  0  0  0  0
  2  3  1  0  0  0  0
  2 28  1  0  0  0  0
  2 29  1  0  0  0  0
  3  4  1  0  0  0  0
  3  5  1  0  0  0  0
  3 19  1  0  0  0  0
  4 30  1  0  0  0  0
  4 31  1  0  0  0  0
  4 32  1  0  0  0  0
  5  6  1  0  0  0  0
  5 33  1  0  0  0  0
  5 34  1  0  0  0  0
  6  7  1  0  0  0  0
  6 35  1  0  0  0  0
  7  8  2  0  0  0  0
  7  9  1  0  0  0  0
  9 10  1  0  0  0  0
  9 36  1  0  0  0  0
  9 37  1  0  0  0  0
 10 17  1  0  0  0  0
 10 11  2  0  0  0  0
 11 12  1  0  0  0  0
 11 13  1  0  0  0  0
 12 38  1  0  0  0  0
 12 39  1  0  0  0  0
 12 40  1  0  0  0  0
 13 14  2  0  0  0  0
 14 15  1  0  0  0  0
 14 16  1  0  0  0  0
 15 41  1  0  0  0  0
 15 42  1  0  0  0  0
 15 43  1  0  0  0  0
 16 17  1  0  0  0  0
 17 18  2  0  0  0  0
 19 24  1  0  0  0  0
 19 20  1  0  0  0  0
 19 52  1  0  0  0  0
 20 21  1  0  0  0  0
 20 44  1  0  0  0  0
 20 45  1  0  0  0  0
 21 22  1  0  0  0  0
 21 46  1  0  0  0  0
 21 47  1  0  0  0  0
 22 23  1  0  0  0  0
 23 24  1  0  0  0  0
 23 48  1  0  0  0  0
 23 49  1  0  0  0  0
 24 50  1  0  0  0  0
 24 51  1  0  0  0  0
M  CHG  1  16  -1
M  CHG  1  19   1
M  END
> <s_m_source_file>
AV-unprocessed.smi

> <i_m_source_file_index>
1492

> <i_lp_mmshare_version>
43012

> <i_f3d_flags>
0

> <s_epik_input>
W0NIMl0xW0NIMl1PW0NIMl1bQ0gyXU4xW0NAQF0oW0NIM10pKFtDSDJdW0NIM10pW0NIMl1bTkhdQyg9TylbQ0gyXWMyYyhbQ0gzXSluYyhbQ0gzXSlbbkhdYzI9Tw==

> <s_epik_cmdline>
J2VwaWtfcHl0aG9uJywgJy1waCcsICc3LjAnLCAnLXRuJywgJzgnLCAnLW1hJywgJzIwMCcsICctbWV0YWxfYmluZGluZycsICctaW1hZScsICc8aW5maWxlLm1hZT4nLCAnLW9tYWUnLCAnPG91dGZpbGUubWFlPic=

> <r_lp_tautomer_probability>
0.839158

> <r_epik_Ionization_Penalty>
6.90614

> <r_epik_Ionization_Penalty_Charging>
0.570079

> <r_epik_Ionization_Penalty_Neutral>
6.33607

> <r_epik_State_Penalty>
4.81716

> <r_epik_Charging_Adjusted_Penalty>
5.38724

> <i_epik_Tot_Q>
0

> <i_epik_Tot_abs_Q>
2

> <r_epik_Metal_State_Penalty>
1.25629

> <b_epik_Metal_Only>
1

> <s_lp_Force_Field>
OPLS_2005

> <r_lp_Energy>
27.3859

> <b_lp_Chiralities_Consistent>
1

> <s_lp_Variant>
AV-unprocessed.smi:1492-12

> <Gold.Version>
5.8.1

> <Gold.Id.Protein>
6NUR|6NUR_protein|mol2

> <Gold.PLP.Fitness>
39.7050

> <Gold.PLP.PLP>
-28.4497

> <Gold.PLP.part.hbond>
-2.0000

> <Gold.PLP.part.metal>
0.0000

> <Gold.PLP.part.buried>
-4.6057

> <Gold.PLP.part.nonpolar>
-21.3825

> <Gold.PLP.part.repulsive>
0.1563

> <Gold.PLP.ligand.clash>
0.0000

> <Gold.PLP.ligand.torsion>
0.5203

> <Gold.PLP.Chemscore.Hbond>
4.0000

> <Gold.PLP.Chemscore.CHOScore>
0.0000

> <Gold.PLP.Chemscore.Metal>
0.0000

> <Gold.Chemscore.Hbonds>
donor molecule, donor type, donor heavy atom, donor atom, acceptor molecule, acceptor atom, score
      L1  H    19    52       P1 10957  2.00
      P1  H  6934  6947       L1    16  1.85

> <Gold.PLP.Chemscore.Internal.Correction>
0.2958

> <Gold.Rescore>
     Score         DG    S(hbond)    S(metal)    S(lipo)     H(rot)  DE(clash)    DE(int)     intcor
     12.19     -13.17       1.84        0.00      59.61       2.12       0.13       0.85       ----

> <Gold.Chemscore.Fitness>
12.1929

> <Gold.Chemscore.DG>
-13.1690

> <Gold.Chemscore.ZeroCoef>
-5.4800

> <Gold.Chemscore.Hbond>
1.8417

> <Gold.Chemscore.Metal>
0.0000

> <Gold.Chemscore.Lipo>
59.6063

> <Gold.Chemscore.Internal_Hbond>
0.0000

> <Gold.Chemscore.DEClash>
0.1277

> <Gold.Chemscore.DEInternal>
0.8484

> <Gold.Chemscore.Rot>
2.1235

> <Gold.Chemscore.Internal.Correction>
   9.000000E+99

> <Gold.Chemscore.Hbonds>
donor molecule, donor type, donor heavy atom, donor atom, acceptor molecule, acceptor atom, score
      L1  H    19    52       P1 10957  0.96
      P1  H  6934  6947       L1    16  0.66

> <Gold.Chemscore.Hbond.Weighted>
-6.1512

> <Gold.Chemscore.Metal.Weighted>
-0.0000

> <Gold.Chemscore.Lipo.Weighted>
-6.9739

> <Gold.Chemscore.Internal_Hbond.Weighted>
0.0000

> <Gold.Chemscore.DEClash.Weighted>
0.1277

> <Gold.Chemscore.DEInternal.Weighted>
0.8484

> <Gold.Chemscore.Rot.Weighted>
5.4360

> <Gold.Chemscore.Internal.Correction.Weighted>
   9.000000E+99

> <Gold.Protein.RotatedTorsions>
[ 6907 6896 6895 6894 ] final  141.95 input  -60.11 | X-H torsion
[ 7974 7965 7964 7962 ] final  -98.41 input  175.53 | X-H torsion
[ 8008 7997 7996 7995 ] final -129.81 input   59.86 | X-H torsion
[ 10167 10162 10161 10158 ] final  -94.35 input  -65.29 | X-H torsion
[ 10718 10713 10712 10709 ] final -138.92 input   66.30 | X-H torsion
[ 10763 10752 10751 10750 ] final   40.95 input  -60.55 | X-H torsion
[ 11005 11000 10999 10996 ] final  100.63 input  -57.11 | X-H torsion

> <Gold.Protein.ActiveResidues>
 VAL166  LYS551  ARG553  GLY616  TRP617  ASP618  TYR619  PRO620  LYS621  CYS622 
 ASP623  PHE694  ASN695  SER759  ASP760  ASP761  ALA762  ILE779  LEU786  VAL792 
 PHE793  MET794  SER795  GLU796  ALA797  LYS798  CYS799  TRP800  GLU811  SER814 

> <Gold.Protein.RotatedAtoms>
  152.2247  133.5011  159.5182 H   0  0  0  0  0  0  0  0  0  0  0  0  # atno 6907 bound_to 6896
  150.7022  134.1295  159.4073 H   0  0  0  0  0  0  0  0  0  0  0  0  # atno 6908 bound_to 6896
  151.9216  135.0295  160.0573 H   0  0  0  0  0  0  0  0  0  0  0  0  # atno 6909 bound_to 6896
  145.3210  140.9421  143.2715 H   0  0  0  0  0  0  0  0  0  0  0  0  # atno 7974 bound_to 7965
  155.2854  140.0446  157.3019 H   0  0  0  0  0  0  0  0  0  0  0  0  # atno 8008 bound_to 7997
  154.5572  140.2335  155.8359 H   0  0  0  0  0  0  0  0  0  0  0  0  # atno 8009 bound_to 7997
  156.2017  140.3023  155.9548 H   0  0  0  0  0  0  0  0  0  0  0  0  # atno 8010 bound_to 7997
  140.3153  143.3081  152.0105 H   0  0  0  0  0  0  0  0  0  0  0  0  # atno 10167 bound_to 10162
  156.3049  130.7449  151.1510 H   0  0  0  0  0  0  0  0  0  0  0  0  # atno 10718 bound_to 10713
  152.9921  135.6176  154.2709 H   0  0  0  0  0  0  0  0  0  0  0  0  # atno 10763 bound_to 10752
  154.2442  135.2787  155.2844 H   0  0  0  0  0  0  0  0  0  0  0  0  # atno 10764 bound_to 10752
  154.5344  135.5779  153.6843 H   0  0  0  0  0  0  0  0  0  0  0  0  # atno 10765 bound_to 10752
  139.8771  134.9148  156.4784 H   0  0  0  0  0  0  0  0  0  0  0  0  # atno 11005 bound_to 11000
  144.8939  139.4738  143.6665 LP  0  0  0  0  0  0  0  0  0  0  0  0  # atno 17320 bound_to 7965
  146.3082  139.7653  142.9040 LP  0  0  0  0  0  0  0  0  0  0  0  0  # atno 17321 bound_to 7965
  139.4885  144.6353  151.6988 LP  0  0  0  0  0  0  0  0  0  0  0  0  # atno 17342 bound_to 10162
  140.5532  144.0391  150.6136 LP  0  0  0  0  0  0  0  0  0  0  0  0  # atno 17343 bound_to 10162
  157.7377  131.0549  150.5339 LP  0  0  0  0  0  0  0  0  0  0  0  0  # atno 17370 bound_to 10713
  156.5471  130.4222  149.6125 LP  0  0  0  0  0  0  0  0  0  0  0  0  # atno 17371 bound_to 10713
  140.8745  133.7964  155.9399 LP  0  0  0  0  0  0  0  0  0  0  0  0  # atno 17394 bound_to 11000
  140.8918  134.2485  157.5090 LP  0  0  0  0  0  0  0  0  0  0  0  0  # atno 17395 bound_to 11000

$$$$
