AV-unprocessed.smi:2961|AV-procd|sdf|11314|dock8
  -GOLD-   2272016213D 1   1.00000     0.00000
 Structure written by MMmdl.
 49 51  0  0  0  0  0  0  0  0  2 V2000
  147.9623  133.1655  153.3985 C   0  0  0  0  0  0  0  0  0  0  0  0
  148.5255  133.8362  154.6466 C   0  0  0  0  0  0  0  0  0  0  0  0
  148.5991  133.2122  155.7043 O   0  0  0  0  0  0  0  0  0  0  0  0
  148.9296  135.1073  154.5064 N   0  0  0  0  0  0  0  0  0  0  0  0
  149.4909  135.9340  155.5717 C   0  0  0  0  0  0  0  0  0  0  0  0
  150.4872  136.9966  155.0632 C   0  0  0  0  0  0  0  0  0  0  0  0
  149.8234  138.2670  154.6320 C   0  0  0  0  0  0  0  0  0  0  0  0
  149.0457  138.4213  153.5231 N   0  3  0  0  0  0  0  0  0  0  0  0
  148.5923  139.7381  153.4427 C   0  0  0  0  0  0  0  0  0  0  0  0
  147.7846  140.3670  152.5001 C   0  0  0  0  0  0  0  0  0  0  0  0
  147.5158  141.7355  152.7095 C   0  0  0  0  0  0  0  0  0  0  0  0
  148.0420  142.4253  153.8210 C   0  0  0  0  0  0  0  0  0  0  0  0
  148.8565  141.7756  154.7718 C   0  0  0  0  0  0  0  0  0  0  0  0
  149.1176  140.4221  154.5583 C   0  0  0  0  0  0  0  0  0  0  0  0
  149.8670  139.4740  155.2663 N   0  0  0  0  0  0  0  0  0  0  0  0
  150.5656  139.8741  156.4976 C   0  0  0  0  0  0  0  0  0  0  0  0
  151.8788  140.6142  156.2058 C   0  0  0  0  0  0  0  0  0  0  0  0
  151.7011  142.0046  156.4408 O   0  0  0  0  0  0  0  0  0  0  0  0
  152.1394  142.5288  157.6369 C   0  0  0  0  0  0  0  0  0  0  0  0
  152.7154  141.7618  158.6807 C   0  0  0  0  0  0  0  0  0  0  0  0
  153.1388  142.3849  159.8706 C   0  0  0  0  0  0  0  0  0  0  0  0
  152.9915  143.7748  160.0331 C   0  0  0  0  0  0  0  0  0  0  0  0
  152.4173  144.5467  159.0042 C   0  0  0  0  0  0  0  0  0  0  0  0
  152.2612  146.0432  159.1790 C   0  0  0  0  0  0  0  0  0  0  0  0
  151.9951  143.9203  157.8135 C   0  0  0  0  0  0  0  0  0  0  0  0
  147.2250  133.8080  152.9155 H   0  0  0  0  0  0  0  0  0  0  0  0
  147.4777  132.2218  153.6514 H   0  0  0  0  0  0  0  0  0  0  0  0
  148.7619  132.9600  152.6863 H   0  0  0  0  0  0  0  0  0  0  0  0
  148.8267  135.5397  153.5994 H   0  0  0  0  0  0  0  0  0  0  0  0
  148.6561  136.4261  156.0707 H   0  0  0  0  0  0  0  0  0  0  0  0
  149.9651  135.3017  156.3237 H   0  0  0  0  0  0  0  0  0  0  0  0
  151.2158  137.2225  155.8420 H   0  0  0  0  0  0  0  0  0  0  0  0
  151.0576  136.5997  154.2229 H   0  0  0  0  0  0  0  0  0  0  0  0
  147.3826  139.8410  151.6465 H   0  0  0  0  0  0  0  0  0  0  0  0
  146.8960  142.2676  152.0025 H   0  0  0  0  0  0  0  0  0  0  0  0
  147.8176  143.4746  153.9468 H   0  0  0  0  0  0  0  0  0  0  0  0
  149.2584  142.3158  155.6162 H   0  0  0  0  0  0  0  0  0  0  0  0
  149.8989  140.4834  157.1078 H   0  0  0  0  0  0  0  0  0  0  0  0
  150.7686  138.9726  157.0750 H   0  0  0  0  0  0  0  0  0  0  0  0
  152.6692  140.2223  156.8472 H   0  0  0  0  0  0  0  0  0  0  0  0
  152.1684  140.4404  155.1681 H   0  0  0  0  0  0  0  0  0  0  0  0
  152.8429  140.6936  158.5940 H   0  0  0  0  0  0  0  0  0  0  0  0
  153.5779  141.7941  160.6610 H   0  0  0  0  0  0  0  0  0  0  0  0
  153.3193  144.2459  160.9484 H   0  0  0  0  0  0  0  0  0  0  0  0
  151.5710  146.4575  158.4433 H   0  0  0  0  0  0  0  0  0  0  0  0
  153.2254  146.5380  159.0612 H   0  0  0  0  0  0  0  0  0  0  0  0
  151.8753  146.2741  160.1723 H   0  0  0  0  0  0  0  0  0  0  0  0
  151.5566  144.5106  157.0222 H   0  0  0  0  0  0  0  0  0  0  0  0
  148.8439  137.6763  152.8687 H   0  0  0  0  0  0  0  0  0  0  0  0
  1  2  1  0  0  0  0
  1 26  1  0  0  0  0
  1 27  1  0  0  0  0
  1 28  1  0  0  0  0
  2  3  2  0  0  0  0
  2  4  1  0  0  0  0
  4  5  1  0  0  0  0
  4 29  1  0  0  0  0
  5  6  1  0  0  0  0
  5 30  1  0  0  0  0
  5 31  1  0  0  0  0
  6  7  1  0  0  0  0
  6 32  1  0  0  0  0
  6 33  1  0  0  0  0
  7 15  1  0  0  0  0
  7  8  2  0  0  0  0
  8  9  1  0  0  0  0
  8 49  1  0  0  0  0
  9 14  2  0  0  0  0
  9 10  1  0  0  0  0
 10 11  2  0  0  0  0
 10 34  1  0  0  0  0
 11 12  1  0  0  0  0
 11 35  1  0  0  0  0
 12 13  2  0  0  0  0
 12 36  1  0  0  0  0
 13 14  1  0  0  0  0
 13 37  1  0  0  0  0
 14 15  1  0  0  0  0
 15 16  1  0  0  0  0
 16 17  1  0  0  0  0
 16 38  1  0  0  0  0
 16 39  1  0  0  0  0
 17 18  1  0  0  0  0
 17 40  1  0  0  0  0
 17 41  1  0  0  0  0
 18 19  1  0  0  0  0
 19 25  1  0  0  0  0
 19 20  2  0  0  0  0
 20 21  1  0  0  0  0
 20 42  1  0  0  0  0
 21 22  2  0  0  0  0
 21 43  1  0  0  0  0
 22 23  1  0  0  0  0
 22 44  1  0  0  0  0
 23 24  1  0  0  0  0
 23 25  2  0  0  0  0
 24 45  1  0  0  0  0
 24 46  1  0  0  0  0
 24 47  1  0  0  0  0
 25 48  1  0  0  0  0
M  CHG  1   8   1
M  END
> <s_m_source_file>
AV-unprocessed.smi

> <i_m_source_file_index>
2961

> <i_lp_mmshare_version>
43012

> <i_f3d_flags>
0

> <s_epik_input>
W0NIM11DKD1PKVtOSF1bQ0gyXVtDSDJdYyhuMSluKGMoYzEyKVtjSF1bY0hdW2NIXVtjSF0yKVtDSDJdW0NIMl1PYzNbY0hdW2NIXVtjSF1jKFtDSDNdKVtjSF0z

> <s_epik_cmdline>
J2VwaWtfcHl0aG9uJywgJy1waCcsICc3LjAnLCAnLXRuJywgJzgnLCAnLW1hJywgJzIwMCcsICctbWV0YWxfYmluZGluZycsICctaW1hZScsICc8aW5maWxlLm1hZT4nLCAnLW9tYWUnLCAnPG91dGZpbGUubWFlPic=

> <r_lp_tautomer_probability>
1

> <r_epik_Ionization_Penalty>
1.11168

> <r_epik_Ionization_Penalty_Charging>
1.11168

> <r_epik_Ionization_Penalty_Neutral>
3.05925e-07

> <r_epik_State_Penalty>
1.16973

> <r_epik_Charging_Adjusted_Penalty>
2.28141

> <i_epik_Tot_Q>
1

> <i_epik_Tot_abs_Q>
1

> <r_epik_Metal_State_Penalty>
1.2554

> <b_epik_Metal_Only>
0

> <s_lp_Force_Field>
OPLS_2005

> <r_lp_Energy>
19.5135

> <b_lp_Chiralities_Consistent>
1

> <s_lp_Variant>
AV-unprocessed.smi:2961-2

> <Gold.Version>
5.8.1

> <Gold.Id.Protein>
6NUR|6NUR_protein|mol2

> <Gold.PLP.Fitness>
58.7474

> <Gold.PLP.PLP>
-52.3162

> <Gold.PLP.part.hbond>
-2.5803

> <Gold.PLP.part.metal>
0.0000

> <Gold.PLP.part.buried>
-3.6146

> <Gold.PLP.part.nonpolar>
-46.1194

> <Gold.PLP.part.repulsive>
0.1325

> <Gold.PLP.ligand.clash>
0.0000

> <Gold.PLP.ligand.torsion>
1.3143

> <Gold.PLP.Chemscore.Hbond>
3.0000

> <Gold.PLP.Chemscore.CHOScore>
0.0000

> <Gold.PLP.Chemscore.Metal>
0.0000

> <Gold.Chemscore.Hbonds>
donor molecule, donor type, donor heavy atom, donor atom, acceptor molecule, acceptor atom, score
      L1  H     4    29       P1  7948  1.00
      L1  H     8    49       P1  7948  2.00

> <Gold.PLP.Chemscore.Internal.Correction>
0.0597

> <Gold.Rescore>
     Score         DG    S(hbond)    S(metal)    S(lipo)     H(rot)  DE(clash)    DE(int)     intcor
     20.77     -21.94       1.91        0.00     133.91       2.18       0.08       1.09       ----

> <Gold.Chemscore.Fitness>
20.7746

> <Gold.Chemscore.DG>
-21.9429

> <Gold.Chemscore.ZeroCoef>
-5.4800

> <Gold.Chemscore.Hbond>
1.9086

> <Gold.Chemscore.Metal>
0.0000

> <Gold.Chemscore.Lipo>
133.9081

> <Gold.Chemscore.Internal_Hbond>
0.0000

> <Gold.Chemscore.DEClash>
0.0814

> <Gold.Chemscore.DEInternal>
1.0868

> <Gold.Chemscore.Rot>
2.1793

> <Gold.Chemscore.Internal.Correction>
   9.000000E+99

> <Gold.Chemscore.Hbonds>
donor molecule, donor type, donor heavy atom, donor atom, acceptor molecule, acceptor atom, score
      L1  H     4    29       P1  7948  0.91
      L1  H     8    49       P1  7948  1.00

> <Gold.Chemscore.Hbond.Weighted>
-6.3747

> <Gold.Chemscore.Metal.Weighted>
-0.0000

> <Gold.Chemscore.Lipo.Weighted>
-15.6673

> <Gold.Chemscore.Internal_Hbond.Weighted>
0.0000

> <Gold.Chemscore.DEClash.Weighted>
0.0814

> <Gold.Chemscore.DEInternal.Weighted>
1.0868

> <Gold.Chemscore.Rot.Weighted>
5.5791

> <Gold.Chemscore.Internal.Correction.Weighted>
   9.000000E+99

> <Gold.Protein.RotatedTorsions>
[ 6907 6896 6895 6894 ] final  -39.93 input  -60.11 | X-H torsion
[ 7974 7965 7964 7962 ] final  112.73 input  175.53 | X-H torsion
[ 8008 7997 7996 7995 ] final  -46.11 input   59.86 | X-H torsion
[ 10167 10162 10161 10158 ] final  -45.32 input  -65.29 | X-H torsion
[ 10718 10713 10712 10709 ] final  -32.04 input   66.30 | X-H torsion
[ 10763 10752 10751 10750 ] final   12.91 input  -60.55 | X-H torsion
[ 11005 11000 10999 10996 ] final    4.19 input  -57.11 | X-H torsion

> <Gold.Protein.ActiveResidues>
 VAL166  LYS551  ARG553  GLY616  TRP617  ASP618  TYR619  PRO620  LYS621  CYS622 
 ASP623  PHE694  ASN695  SER759  ASP760  ASP761  ALA762  ILE779  LEU786  VAL792 
 PHE793  MET794  SER795  GLU796  ALA797  LYS798  CYS799  TRP800  GLU811  SER814 

> <Gold.Protein.RotatedAtoms>
  150.9845  134.9193  159.7863 H   0  0  0  0  0  0  0  0  0  0  0  0  # atno 6907 bound_to 6896
  152.5232  134.3365  159.9212 H   0  0  0  0  0  0  0  0  0  0  0  0  # atno 6908 bound_to 6896
  151.3372  133.3936  159.2702 H   0  0  0  0  0  0  0  0  0  0  0  0  # atno 6909 bound_to 6896
  145.2258  139.2841  143.4194 H   0  0  0  0  0  0  0  0  0  0  0  0  # atno 7974 bound_to 7965
  154.4005  140.1380  156.3957 H   0  0  0  0  0  0  0  0  0  0  0  0  # atno 8008 bound_to 7997
  155.7872  140.3480  155.5309 H   0  0  0  0  0  0  0  0  0  0  0  0  # atno 8009 bound_to 7997
  155.8615  140.0957  157.1600 H   0  0  0  0  0  0  0  0  0  0  0  0  # atno 8010 bound_to 7997
  140.6862  143.2885  151.3622 H   0  0  0  0  0  0  0  0  0  0  0  0  # atno 10167 bound_to 10162
  156.3798  130.4354  149.7478 H   0  0  0  0  0  0  0  0  0  0  0  0  # atno 10718 bound_to 10713
  153.1775  135.6822  153.8523 H   0  0  0  0  0  0  0  0  0  0  0  0  # atno 10763 bound_to 10752
  153.7866  135.3175  155.3374 H   0  0  0  0  0  0  0  0  0  0  0  0  # atno 10764 bound_to 10752
  154.8038  135.4761  154.0435 H   0  0  0  0  0  0  0  0  0  0  0  0  # atno 10765 bound_to 10752
  140.5847  133.9980  155.8062 H   0  0  0  0  0  0  0  0  0  0  0  0  # atno 11005 bound_to 11000
  146.3365  140.2578  142.8601 LP  0  0  0  0  0  0  0  0  0  0  0  0  # atno 17320 bound_to 7965
  144.9723  140.8380  143.5448 LP  0  0  0  0  0  0  0  0  0  0  0  0  # atno 17321 bound_to 7965
  139.6223  144.0882  152.2403 LP  0  0  0  0  0  0  0  0  0  0  0  0  # atno 17342 bound_to 10162
  140.0330  144.6066  150.7472 LP  0  0  0  0  0  0  0  0  0  0  0  0  # atno 17343 bound_to 10162
  156.4573  130.7935  151.2956 LP  0  0  0  0  0  0  0  0  0  0  0  0  # atno 17370 bound_to 10713
  157.7491  131.0077  150.3199 LP  0  0  0  0  0  0  0  0  0  0  0  0  # atno 17371 bound_to 10713
  141.0974  133.9822  157.3137 LP  0  0  0  0  0  0  0  0  0  0  0  0  # atno 17394 bound_to 11000
  139.9301  135.0200  156.8371 LP  0  0  0  0  0  0  0  0  0  0  0  0  # atno 17395 bound_to 11000

$$$$
