AV-unprocessed.smi:1945|AV-procd|sdf|7860|dock5
  -GOLD-   2272010 13D 1   1.00000     0.00000
 Structure written by MMmdl.
 47 48  0  0  0  0  0  0  0  0  1 V2000
  150.8504  142.1242  156.3261 C   0  0  0  0  0  0  0  0  0  0  0  0
  150.5255  140.9127  155.5037 C   0  0  0  0  0  0  0  0  0  0  0  0
  149.3689  140.6781  154.7052 C   0  0  0  0  0  0  0  0  0  0  0  0
  149.6026  139.4305  154.1939 C   0  0  0  0  0  0  0  0  0  0  0  0
  148.8242  138.6929  153.3576 N   0  0  0  0  0  0  0  0  0  0  0  0
  147.4951  138.7610  153.1678 C   0  0  0  0  0  0  0  0  0  0  0  0
  146.7355  139.5586  153.7179 O   0  0  0  0  0  0  0  0  0  0  0  0
  147.0840  137.8297  152.2949 N   0  0  0  0  0  0  0  0  0  0  0  0
  145.6945  137.5827  151.9233 C   0  0  0  0  0  0  0  0  0  0  0  0
  145.1328  136.3556  152.6554 C   0  0  0  0  0  0  0  0  0  0  0  0
  145.9642  135.2362  152.3880 O   0  0  0  0  0  0  0  0  0  0  0  0
  145.2727  134.0080  152.2102 C   0  0  1  0  0  0  0  0  0  0  0  0
  144.1234  134.2166  151.2007 C   0  0  0  0  0  0  0  0  0  0  0  0
  143.4302  132.8924  150.8489 C   0  0  0  0  0  0  0  0  0  0  0  0
  144.4411  131.8656  150.3203 C   0  0  0  0  0  0  0  0  0  0  0  0
  145.5812  131.6468  151.3262 C   0  0  0  0  0  0  0  0  0  0  0  0
  146.2890  132.9688  151.6851 C   0  0  2  0  0  0  0  0  0  0  0  0
  147.4237  132.7212  152.6921 C   0  0  0  0  0  0  0  0  0  0  0  0
  150.8177  138.9787  154.6631 N   0  0  0  0  0  0  0  0  0  0  0  0
  151.5097  137.7281  154.4175 C   0  0  0  0  0  0  0  0  0  0  0  0
  151.3822  139.8982  155.4746 N   0  0  0  0  0  0  0  0  0  0  0  0
  150.0672  142.8779  156.2437 H   0  0  0  0  0  0  0  0  0  0  0  0
  151.7853  142.5808  156.0008 H   0  0  0  0  0  0  0  0  0  0  0  0
  150.9529  141.8666  157.3805 H   0  0  0  0  0  0  0  0  0  0  0  0
  148.5223  141.3295  154.5492 H   0  0  0  0  0  0  0  0  0  0  0  0
  149.3113  137.9806  152.8343 H   0  0  0  0  0  0  0  0  0  0  0  0
  147.7777  137.2214  151.8855 H   0  0  0  0  0  0  0  0  0  0  0  0
  145.0743  138.4615  152.1085 H   0  0  0  0  0  0  0  0  0  0  0  0
  145.6670  137.4073  150.8478 H   0  0  0  0  0  0  0  0  0  0  0  0
  145.1169  136.5389  153.7304 H   0  0  0  0  0  0  0  0  0  0  0  0
  144.1039  136.1760  152.3428 H   0  0  0  0  0  0  0  0  0  0  0  0
  144.8724  133.6566  153.1633 H   0  0  0  0  0  0  0  0  0  0  0  0
  143.3842  134.9127  151.5958 H   0  0  0  0  0  0  0  0  0  0  0  0
  144.5170  134.6717  150.2908 H   0  0  0  0  0  0  0  0  0  0  0  0
  142.9301  132.4946  151.7327 H   0  0  0  0  0  0  0  0  0  0  0  0
  142.6530  133.0663  150.1042 H   0  0  0  0  0  0  0  0  0  0  0  0
  143.9384  130.9201  150.1154 H   0  0  0  0  0  0  0  0  0  0  0  0
  144.8516  132.2105  149.3705 H   0  0  0  0  0  0  0  0  0  0  0  0
  145.1821  131.1853  152.2308 H   0  0  0  0  0  0  0  0  0  0  0  0
  146.3003  130.9396  150.9114 H   0  0  0  0  0  0  0  0  0  0  0  0
  146.7375  133.3656  150.7729 H   0  0  0  0  0  0  0  0  0  0  0  0
  147.0393  132.3272  153.6334 H   0  0  0  0  0  0  0  0  0  0  0  0
  147.9670  133.6403  152.9134 H   0  0  0  0  0  0  0  0  0  0  0  0
  148.1450  132.0034  152.3004 H   0  0  0  0  0  0  0  0  0  0  0  0
  151.0252  137.1706  153.6159 H   0  0  0  0  0  0  0  0  0  0  0  0
  151.5033  137.1224  155.3241 H   0  0  0  0  0  0  0  0  0  0  0  0
  152.5424  137.9276  154.1296 H   0  0  0  0  0  0  0  0  0  0  0  0
  1  2  1  0  0  0  0
  1 22  1  0  0  0  0
  1 23  1  0  0  0  0
  1 24  1  0  0  0  0
  2 21  2  0  0  0  0
  2  3  1  0  0  0  0
  3  4  2  0  0  0  0
  3 25  1  0  0  0  0
  4  5  1  0  0  0  0
  4 19  1  0  0  0  0
  5  6  1  0  0  0  0
  5 26  1  0  0  0  0
  6  7  2  0  0  0  0
  6  8  1  0  0  0  0
  8  9  1  0  0  0  0
  8 27  1  0  0  0  0
  9 10  1  0  0  0  0
  9 28  1  0  0  0  0
  9 29  1  0  0  0  0
 10 11  1  0  0  0  0
 10 30  1  0  0  0  0
 10 31  1  0  0  0  0
 11 12  1  0  0  0  0
 12 17  1  0  0  0  0
 12 13  1  0  0  0  0
 12 32  1  0  0  0  0
 13 14  1  0  0  0  0
 13 33  1  0  0  0  0
 13 34  1  0  0  0  0
 14 15  1  0  0  0  0
 14 35  1  0  0  0  0
 14 36  1  0  0  0  0
 15 16  1  0  0  0  0
 15 37  1  0  0  0  0
 15 38  1  0  0  0  0
 16 17  1  0  0  0  0
 16 39  1  0  0  0  0
 16 40  1  0  0  0  0
 17 18  1  0  0  0  0
 17 41  1  0  0  0  0
 18 42  1  0  0  0  0
 18 43  1  0  0  0  0
 18 44  1  0  0  0  0
 19 20  1  0  0  0  0
 19 21  1  0  0  0  0
 20 45  1  0  0  0  0
 20 46  1  0  0  0  0
 20 47  1  0  0  0  0
M  END
> <s_m_source_file>
AV-unprocessed.smi

> <i_m_source_file_index>
1945

> <i_lp_mmshare_version>
43012

> <i_f3d_flags>
0

> <s_epik_input>
W0NIM11jMVtjSF1jKG4objEpW0NIM10pW05IXUMoPU8pW05IXVtDSDJdW0NIMl1PW0NAQEhdMltDSDJdW0NIMl1bQ0gyXVtDSDJdW0NASF0yW0NIM10=

> <s_epik_cmdline>
J2VwaWtfcHl0aG9uJywgJy1waCcsICc3LjAnLCAnLXRuJywgJzgnLCAnLW1hJywgJzIwMCcsICctbWV0YWxfYmluZGluZycsICctaW1hZScsICc8aW5maWxlLm1hZT4nLCAnLW9tYWUnLCAnPG91dGZpbGUubWFlPic=

> <r_lp_tautomer_probability>
1

> <r_epik_Ionization_Penalty>
9.47735e-05

> <r_epik_Ionization_Penalty_Charging>
0

> <r_epik_Ionization_Penalty_Neutral>
9.47735e-05

> <r_epik_State_Penalty>
-0

> <r_epik_Charging_Adjusted_Penalty>
0

> <i_epik_Tot_Q>
0

> <i_epik_Tot_abs_Q>
0

> <r_epik_Metal_State_Penalty>
-0

> <b_epik_Metal_Only>
0

> <s_lp_Force_Field>
OPLS_2005

> <r_lp_Energy>
11.6834

> <b_lp_Chiralities_Consistent>
1

> <s_lp_Variant>
AV-unprocessed.smi:1945-4

> <Gold.Version>
5.8.1

> <Gold.Id.Protein>
6NUR|6NUR_protein|mol2

> <Gold.PLP.Fitness>
46.2518

> <Gold.PLP.PLP>
-42.0075

> <Gold.PLP.part.hbond>
-3.6104

> <Gold.PLP.part.metal>
0.0000

> <Gold.PLP.part.buried>
-5.6448

> <Gold.PLP.part.nonpolar>
-35.1808

> <Gold.PLP.part.repulsive>
0.3882

> <Gold.PLP.ligand.clash>
0.0000

> <Gold.PLP.ligand.torsion>
0.5799

> <Gold.PLP.Chemscore.Hbond>
1.7717

> <Gold.PLP.Chemscore.CHOScore>
0.0000

> <Gold.PLP.Chemscore.Metal>
0.0000

> <Gold.Chemscore.Hbonds>
donor molecule, donor type, donor heavy atom, donor atom, acceptor molecule, acceptor atom, score
      L1  H     5    26       P1  7948  0.83
      L1  H     8    27       P1  7948  0.96

> <Gold.PLP.Chemscore.Internal.Correction>
0.0891

> <Gold.Rescore>
     Score         DG    S(hbond)    S(metal)    S(lipo)     H(rot)  DE(clash)    DE(int)     intcor
     17.06     -17.84       1.83        0.00      89.17       1.63       0.02       0.76       ----

> <Gold.Chemscore.Fitness>
17.0585

> <Gold.Chemscore.DG>
-17.8377

> <Gold.Chemscore.ZeroCoef>
-5.4800

> <Gold.Chemscore.Hbond>
1.8267

> <Gold.Chemscore.Metal>
0.0000

> <Gold.Chemscore.Lipo>
89.1738

> <Gold.Chemscore.Internal_Hbond>
0.0000

> <Gold.Chemscore.DEClash>
0.0191

> <Gold.Chemscore.DEInternal>
0.7601

> <Gold.Chemscore.Rot>
1.6316

> <Gold.Chemscore.Internal.Correction>
   9.000000E+99

> <Gold.Chemscore.Hbonds>
donor molecule, donor type, donor heavy atom, donor atom, acceptor molecule, acceptor atom, score
      L1  H     5    26       P1  7948  0.76
      L1  H     8    27       P1  7948  0.89

> <Gold.Chemscore.Hbond.Weighted>
-6.1011

> <Gold.Chemscore.Metal.Weighted>
-0.0000

> <Gold.Chemscore.Lipo.Weighted>
-10.4333

> <Gold.Chemscore.Internal_Hbond.Weighted>
0.0000

> <Gold.Chemscore.DEClash.Weighted>
0.0191

> <Gold.Chemscore.DEInternal.Weighted>
0.7601

> <Gold.Chemscore.Rot.Weighted>
4.1768

> <Gold.Chemscore.Internal.Correction.Weighted>
   9.000000E+99

> <Gold.Protein.RotatedTorsions>
[ 6907 6896 6895 6894 ] final  163.99 input  -60.11 | X-H torsion
[ 7974 7965 7964 7962 ] final  160.13 input  175.53 | X-H torsion
[ 8008 7997 7996 7995 ] final  178.24 input   59.86 | X-H torsion
[ 10167 10162 10161 10158 ] final -119.72 input  -65.29 | X-H torsion
[ 10718 10713 10712 10709 ] final   17.72 input   66.30 | X-H torsion
[ 10763 10752 10751 10750 ] final   -9.91 input  -60.55 | X-H torsion
[ 11005 11000 10999 10996 ] final -111.14 input  -57.11 | X-H torsion

> <Gold.Protein.ActiveResidues>
 VAL166  LYS551  ARG553  GLY616  TRP617  ASP618  TYR619  PRO620  LYS621  CYS622 
 ASP623  PHE694  ASN695  SER759  ASP760  ASP761  ALA762  ILE779  LEU786  VAL792 
 PHE793  MET794  SER795  GLU796  ALA797  LYS798  CYS799  TRP800  GLU811  SER814 

> <Gold.Protein.RotatedAtoms>
  151.9167  133.3575  159.3882 H   0  0  0  0  0  0  0  0  0  0  0  0  # atno 6907 bound_to 6896
  150.7046  134.4677  159.5420 H   0  0  0  0  0  0  0  0  0  0  0  0  # atno 6908 bound_to 6896
  152.2293  134.8338  160.0526 H   0  0  0  0  0  0  0  0  0  0  0  0  # atno 6909 bound_to 6896
  144.7753  139.7714  143.6281 H   0  0  0  0  0  0  0  0  0  0  0  0  # atno 7974 bound_to 7965
  156.0568  140.1338  156.9987 H   0  0  0  0  0  0  0  0  0  0  0  0  # atno 8008 bound_to 7997
  154.4462  140.0999  156.6529 H   0  0  0  0  0  0  0  0  0  0  0  0  # atno 8009 bound_to 7997
  155.5439  140.3461  155.4455 H   0  0  0  0  0  0  0  0  0  0  0  0  # atno 8010 bound_to 7997
  140.0436  143.5129  152.2117 H   0  0  0  0  0  0  0  0  0  0  0  0  # atno 10167 bound_to 10162
  157.0861  130.6408  149.5838 H   0  0  0  0  0  0  0  0  0  0  0  0  # atno 10718 bound_to 10713
  153.4615  135.7016  153.6047 H   0  0  0  0  0  0  0  0  0  0  0  0  # atno 10763 bound_to 10752
  153.4340  135.3796  155.2188 H   0  0  0  0  0  0  0  0  0  0  0  0  # atno 10764 bound_to 10752
  154.8727  135.3957  154.4041 H   0  0  0  0  0  0  0  0  0  0  0  0  # atno 10765 bound_to 10752
  141.0752  133.9314  157.2405 H   0  0  0  0  0  0  0  0  0  0  0  0  # atno 11005 bound_to 11000
  146.1928  139.5178  142.9794 LP  0  0  0  0  0  0  0  0  0  0  0  0  # atno 17320 bound_to 7965
  145.6204  141.0323  143.1918 LP  0  0  0  0  0  0  0  0  0  0  0  0  # atno 17321 bound_to 7965
  139.5998  144.7579  151.3200 LP  0  0  0  0  0  0  0  0  0  0  0  0  # atno 17342 bound_to 10162
  140.7249  143.7033  150.7828 LP  0  0  0  0  0  0  0  0  0  0  0  0  # atno 17343 bound_to 10162
  155.9910  130.4963  150.7282 LP  0  0  0  0  0  0  0  0  0  0  0  0  # atno 17370 bound_to 10713
  157.4760  131.0898  151.0590 LP  0  0  0  0  0  0  0  0  0  0  0  0  # atno 17371 bound_to 10713
  139.9564  135.0164  156.9140 LP  0  0  0  0  0  0  0  0  0  0  0  0  # atno 17394 bound_to 11000
  140.5589  134.0554  155.7392 LP  0  0  0  0  0  0  0  0  0  0  0  0  # atno 17395 bound_to 11000

$$$$
