AV-unprocessed.smi:2725|AV-procd|sdf|10518|dock2
  -GOLD-   2272014563D 1   1.00000     0.00000
 Structure written by MMmdl.
 45 46  0  0  0  0  0  0  0  0  2 V2000
  151.3157  140.1834  154.8546 O   0  0  0  0  0  0  0  0  0  0  0  0
  150.7488  140.5272  155.8919 C   0  0  0  0  0  0  0  0  0  0  0  0
  151.5538  141.0782  157.0727 C   0  0  0  0  0  0  0  0  0  0  0  0
  151.3013  142.5772  157.3225 C   0  0  0  0  0  0  0  0  0  0  0  0
  152.1072  143.1373  158.5078 C   0  0  0  0  0  0  0  0  0  0  0  0
  152.1922  142.2000  159.7176 C   0  0  0  0  0  0  0  0  0  0  0  0
  152.5063  143.1037  160.9169 C   0  0  0  0  0  0  0  0  0  0  0  0
  152.1477  144.5346  160.4881 C   0  0  0  0  0  0  0  0  0  0  0  0
  151.5089  144.4137  159.1021 C   0  0  0  0  0  0  0  0  0  0  0  0
  149.4191  140.4513  156.0619 N   0  0  0  0  0  0  0  0  0  0  0  0
  148.4625  139.9699  155.0668 C   0  0  1  0  0  0  0  0  0  0  0  0
  148.1221  141.1074  154.0765 C   0  0  0  0  0  0  0  0  0  0  0  0
  149.1966  141.3529  153.1938 O   0  0  0  0  0  0  0  0  0  0  0  0
  149.0424  138.7049  154.3973 C   0  0  0  0  0  0  0  0  0  0  0  0
  149.0802  137.4876  155.3044 C   0  0  0  0  0  0  0  0  0  0  0  0
  148.7953  137.5773  156.6842 C   0  0  0  0  0  0  0  0  0  0  0  0
  148.8323  136.4090  157.4737 C   0  0  0  0  0  0  0  0  0  0  0  0
  149.1522  135.1765  156.8679 C   0  0  0  0  0  0  0  0  0  0  0  0
  149.4268  135.1435  155.4856 C   0  0  0  0  0  0  0  0  0  0  0  0
  149.3816  136.2845  154.7632 N   0  3  0  0  0  0  0  0  0  0  0  0
  151.2928  140.4995  157.9590 H   0  0  0  0  0  0  0  0  0  0  0  0
  152.6173  140.9134  156.8932 H   0  0  0  0  0  0  0  0  0  0  0  0
  151.5643  143.1374  156.4238 H   0  0  0  0  0  0  0  0  0  0  0  0
  150.2382  142.7550  157.4910 H   0  0  0  0  0  0  0  0  0  0  0  0
  153.1212  143.3651  158.1749 H   0  0  0  0  0  0  0  0  0  0  0  0
  151.2298  141.7118  159.8771 H   0  0  0  0  0  0  0  0  0  0  0  0
  152.9386  141.4161  159.5851 H   0  0  0  0  0  0  0  0  0  0  0  0
  151.9410  142.7932  161.7962 H   0  0  0  0  0  0  0  0  0  0  0  0
  153.5647  143.0464  161.1734 H   0  0  0  0  0  0  0  0  0  0  0  0
  151.4820  145.0252  161.1991 H   0  0  0  0  0  0  0  0  0  0  0  0
  153.0562  145.1348  160.4245 H   0  0  0  0  0  0  0  0  0  0  0  0
  151.6932  145.2911  158.4814 H   0  0  0  0  0  0  0  0  0  0  0  0
  150.4283  144.3050  159.2079 H   0  0  0  0  0  0  0  0  0  0  0  0
  149.0410  140.7555  156.9474 H   0  0  0  0  0  0  0  0  0  0  0  0
  147.5546  139.6804  155.6008 H   0  0  0  0  0  0  0  0  0  0  0  0
  147.2670  140.8355  153.4565 H   0  0  0  0  0  0  0  0  0  0  0  0
  147.8514  142.0237  154.6015 H   0  0  0  0  0  0  0  0  0  0  0  0
  149.2773  140.6164  152.6067 H   0  0  0  0  0  0  0  0  0  0  0  0
  148.4746  138.4635  153.4973 H   0  0  0  0  0  0  0  0  0  0  0  0
  150.0625  138.9018  154.0636 H   0  0  0  0  0  0  0  0  0  0  0  0
  148.5468  138.5283  157.1328 H   0  0  0  0  0  0  0  0  0  0  0  0
  148.6163  136.4579  158.5310 H   0  0  0  0  0  0  0  0  0  0  0  0
  149.1845  134.2701  157.4547 H   0  0  0  0  0  0  0  0  0  0  0  0
  149.6773  134.2458  154.9395 H   0  0  0  0  0  0  0  0  0  0  0  0
  149.5786  136.2355  153.7635 H   0  0  0  0  0  0  0  0  0  0  0  0
  1  2  2  0  0  0  0
  2  3  1  0  0  0  0
  2 10  1  0  0  0  0
  3  4  1  0  0  0  0
  3 21  1  0  0  0  0
  3 22  1  0  0  0  0
  4  5  1  0  0  0  0
  4 23  1  0  0  0  0
  4 24  1  0  0  0  0
  5  9  1  0  0  0  0
  5  6  1  0  0  0  0
  5 25  1  0  0  0  0
  6  7  1  0  0  0  0
  6 26  1  0  0  0  0
  6 27  1  0  0  0  0
  7  8  1  0  0  0  0
  7 28  1  0  0  0  0
  7 29  1  0  0  0  0
  8  9  1  0  0  0  0
  8 30  1  0  0  0  0
  8 31  1  0  0  0  0
  9 32  1  0  0  0  0
  9 33  1  0  0  0  0
 10 11  1  0  0  0  0
 10 34  1  0  0  0  0
 11 12  1  0  0  0  0
 11 14  1  0  0  0  0
 11 35  1  0  0  0  0
 12 13  1  0  0  0  0
 12 36  1  0  0  0  0
 12 37  1  0  0  0  0
 13 38  1  0  0  0  0
 14 15  1  0  0  0  0
 14 39  1  0  0  0  0
 14 40  1  0  0  0  0
 15 20  1  0  0  0  0
 15 16  2  0  0  0  0
 16 17  1  0  0  0  0
 16 41  1  0  0  0  0
 17 18  2  0  0  0  0
 17 42  1  0  0  0  0
 18 19  1  0  0  0  0
 18 43  1  0  0  0  0
 19 20  2  0  0  0  0
 19 44  1  0  0  0  0
 20 45  1  0  0  0  0
M  CHG  1  20   1
M  END
> <s_m_source_file>
AV-unprocessed.smi

> <i_m_source_file_index>
2725

> <i_lp_mmshare_version>
43012

> <i_f3d_flags>
0

> <s_epik_input>
W0NIMl0xW0NIMl1bQ0gyXVtDSDJdW0NIXTFbQ0gyXVtDSDJdQyg9TylbTkhdW0NASF0oW0NIMl1bT0hdKVtDSDJdYzJbY0hdW2NIXVtjSF1bY0hdbjI=

> <s_epik_cmdline>
J2VwaWtfcHl0aG9uJywgJy1waCcsICc3LjAnLCAnLXRuJywgJzgnLCAnLW1hJywgJzIwMCcsICctbWV0YWxfYmluZGluZycsICctaW1hZScsICc8aW5maWxlLm1hZT4nLCAnLW9tYWUnLCAnPG91dGZpbGUubWFlPic=

> <r_epik_Ionization_Penalty>
1.87189

> <r_epik_Ionization_Penalty_Charging>
1.87189

> <r_epik_Ionization_Penalty_Neutral>
6.79411e-08

> <r_epik_State_Penalty>
1.99097

> <r_epik_Charging_Adjusted_Penalty>
3.86287

> <i_epik_Tot_Q>
1

> <i_epik_Tot_abs_Q>
1

> <r_epik_Metal_State_Penalty>
2.01578

> <b_epik_Metal_Only>
0

> <s_lp_Force_Field>
OPLS_2005

> <r_lp_Energy>
28.0453

> <b_lp_Chiralities_Consistent>
1

> <s_lp_Variant>
AV-unprocessed.smi:2725-4

> <Gold.Version>
5.8.1

> <Gold.Id.Protein>
6NUR|6NUR_protein|mol2

> <Gold.PLP.Fitness>
51.3528

> <Gold.PLP.PLP>
-38.0403

> <Gold.PLP.part.hbond>
-4.4308

> <Gold.PLP.part.metal>
0.0000

> <Gold.PLP.part.buried>
-5.3533

> <Gold.PLP.part.nonpolar>
-27.7671

> <Gold.PLP.part.repulsive>
0.1190

> <Gold.PLP.ligand.clash>
0.0000

> <Gold.PLP.ligand.torsion>
0.7789

> <Gold.PLP.Chemscore.Hbond>
4.9188

> <Gold.PLP.Chemscore.CHOScore>
0.0000

> <Gold.PLP.Chemscore.Metal>
0.0000

> <Gold.Chemscore.Hbonds>
donor molecule, donor type, donor heavy atom, donor atom, acceptor molecule, acceptor atom, score
      L1  H    13    38       P1  7957  0.98
      L1  H    20    45       P1  7948  2.00
      P1  H  7989  7998       L1     1  1.00
      P1  H  8011  8017       L1    13  0.86

> <Gold.PLP.Chemscore.Internal.Correction>
0.1141

> <Gold.Rescore>
     Score         DG    S(hbond)    S(metal)    S(lipo)     H(rot)  DE(clash)    DE(int)     intcor
     19.03     -21.51       3.42        0.00      95.92       2.58       0.01       2.47       ----

> <Gold.Chemscore.Fitness>
19.0274

> <Gold.Chemscore.DG>
-21.5139

> <Gold.Chemscore.ZeroCoef>
-5.4800

> <Gold.Chemscore.Hbond>
3.4158

> <Gold.Chemscore.Metal>
0.0000

> <Gold.Chemscore.Lipo>
95.9210

> <Gold.Chemscore.Internal_Hbond>
0.0000

> <Gold.Chemscore.DEClash>
0.0130

> <Gold.Chemscore.DEInternal>
2.4734

> <Gold.Chemscore.Rot>
2.5773

> <Gold.Chemscore.Internal.Correction>
   9.000000E+99

> <Gold.Chemscore.Hbonds>
donor molecule, donor type, donor heavy atom, donor atom, acceptor molecule, acceptor atom, score
      L1  H    13    38       P1  7957  0.91
      L1  H    20    45       P1  7948  0.52
      P1  H  7989  7998       L1     1  0.95
      P1  H  8011  8017       L1    13  0.18

> <Gold.Chemscore.Hbond.Weighted>
-11.4089

> <Gold.Chemscore.Metal.Weighted>
-0.0000

> <Gold.Chemscore.Lipo.Weighted>
-11.2228

> <Gold.Chemscore.Internal_Hbond.Weighted>
0.0000

> <Gold.Chemscore.DEClash.Weighted>
0.0130

> <Gold.Chemscore.DEInternal.Weighted>
2.4734

> <Gold.Chemscore.Rot.Weighted>
6.5978

> <Gold.Chemscore.Internal.Correction.Weighted>
   9.000000E+99

> <Gold.Protein.RotatedTorsions>
[ 6907 6896 6895 6894 ] final   91.66 input  -60.11 | X-H torsion
[ 7974 7965 7964 7962 ] final  -67.85 input  175.53 | X-H torsion
[ 8008 7997 7996 7995 ] final   12.05 input   59.86 | X-H torsion
[ 10167 10162 10161 10158 ] final -119.18 input  -65.29 | X-H torsion
[ 10718 10713 10712 10709 ] final -106.29 input   66.30 | X-H torsion
[ 10763 10752 10751 10750 ] final -119.18 input  -60.55 | X-H torsion
[ 11005 11000 10999 10996 ] final  136.78 input  -57.11 | X-H torsion

> <Gold.Protein.ActiveResidues>
 VAL166  LYS551  ARG553  GLY616  TRP617  ASP618  TYR619  PRO620  LYS621  CYS622 
 ASP623  PHE694  ASN695  SER759  ASP760  ASP761  ALA762  ILE779  LEU786  VAL792 
 PHE793  MET794  SER795  GLU796  ALA797  LYS798  CYS799  TRP800  GLU811  SER814 

> <Gold.Protein.RotatedAtoms>
  152.5451  134.1622  159.8562 H   0  0  0  0  0  0  0  0  0  0  0  0  # atno 6907 bound_to 6896
  151.1639  133.4820  159.2601 H   0  0  0  0  0  0  0  0  0  0  0  0  # atno 6908 bound_to 6896
  151.1344  135.0158  159.8652 H   0  0  0  0  0  0  0  0  0  0  0  0  # atno 6909 bound_to 6896
  145.7240  140.9026  143.0615 H   0  0  0  0  0  0  0  0  0  0  0  0  # atno 7974 bound_to 7965
  154.8153  140.2875  155.5824 H   0  0  0  0  0  0  0  0  0  0  0  0  # atno 8008 bound_to 7997
  156.2992  140.2560  156.2979 H   0  0  0  0  0  0  0  0  0  0  0  0  # atno 8009 bound_to 7997
  154.9400  140.0381  157.2081 H   0  0  0  0  0  0  0  0  0  0  0  0  # atno 8010 bound_to 7997
  140.0495  143.5074  152.2089 H   0  0  0  0  0  0  0  0  0  0  0  0  # atno 10167 bound_to 10162
  156.0383  130.5605  150.7660 H   0  0  0  0  0  0  0  0  0  0  0  0  # atno 10718 bound_to 10713
  154.8609  135.4247  154.2257 H   0  0  0  0  0  0  0  0  0  0  0  0  # atno 10763 bound_to 10752
  153.3253  135.6985  153.7001 H   0  0  0  0  0  0  0  0  0  0  0  0  # atno 10764 bound_to 10752
  153.6039  135.3532  155.2928 H   0  0  0  0  0  0  0  0  0  0  0  0  # atno 10765 bound_to 10752
  140.0069  134.9455  157.0195 H   0  0  0  0  0  0  0  0  0  0  0  0  # atno 11005 bound_to 11000
  144.6909  139.9241  143.7469 LP  0  0  0  0  0  0  0  0  0  0  0  0  # atno 17320 bound_to 7965
  146.0599  139.3593  143.0587 LP  0  0  0  0  0  0  0  0  0  0  0  0  # atno 17321 bound_to 7965
  139.5962  144.7568  151.3280 LP  0  0  0  0  0  0  0  0  0  0  0  0  # atno 17342 bound_to 10162
  140.7223  143.7101  150.7776 LP  0  0  0  0  0  0  0  0  0  0  0  0  # atno 17343 bound_to 10162
  157.5167  131.0929  151.0131 LP  0  0  0  0  0  0  0  0  0  0  0  0  # atno 17370 bound_to 10713
  157.0472  130.5772  149.5365 LP  0  0  0  0  0  0  0  0  0  0  0  0  # atno 17371 bound_to 10713
  140.4624  134.1470  155.7193 LP  0  0  0  0  0  0  0  0  0  0  0  0  # atno 17394 bound_to 11000
  141.1683  133.8658  157.1647 LP  0  0  0  0  0  0  0  0  0  0  0  0  # atno 17395 bound_to 11000

$$$$
