AV-unprocessed.smi:2424|AV-procd|sdf|9569|dock5
  -GOLD-   2272013203D 1   1.00000     0.00000
 Structure written by MMmdl.
 49 50  0  0  0  0  0  0  0  0  2 V2000
  149.8766  138.0177  154.7081 C   0  0  0  0  0  0  0  0  0  0  0  0
  149.0716  139.1132  153.9841 C   0  0  0  0  0  0  0  0  0  0  0  0
  147.6477  139.4201  154.5351 C   0  0  0  0  0  0  0  0  0  0  0  0
  147.1334  140.7466  153.9435 C   0  0  0  0  0  0  0  0  0  0  0  0
  147.9954  141.9738  154.2797 C   0  0  0  0  0  0  0  0  0  0  0  0
  146.6102  138.2613  154.5403 C   0  0  1  0  0  0  0  0  0  0  0  0
  146.8275  137.2163  153.5457 N   0  0  0  0  0  0  0  0  0  0  0  0
  145.8807  136.3747  153.1091 C   0  0  0  0  0  0  0  0  0  0  0  0
  144.7182  136.4007  153.5124 O   0  0  0  0  0  0  0  0  0  0  0  0
  146.3776  135.5364  152.1825 N   0  0  0  0  0  0  0  0  0  0  0  0
  145.7193  134.5215  151.4758 C   0  0  0  0  0  0  0  0  0  0  0  0
  144.3547  134.3587  151.6022 C   0  0  0  0  0  0  0  0  0  0  0  0
  143.5510  133.4491  151.0101 N   0  5  0  0  0  0  0  0  0  0  0  0
  144.1193  132.5461  150.1605 C   0  0  0  0  0  0  0  0  0  0  0  0
  143.4507  131.6875  149.5862 O   0  0  0  0  0  0  0  0  0  0  0  0
  145.5765  132.6065  149.9283 C   0  0  0  0  0  0  0  0  0  0  0  0
  146.2055  131.6024  148.9772 C   0  0  0  0  0  0  0  0  0  0  0  0
  146.3182  133.5501  150.5607 C   0  0  0  0  0  0  0  0  0  0  0  0
  147.0899  137.8488  155.9363 C   0  0  2  0  0  0  0  0  0  0  0  0
  146.0835  137.2475  156.9086 C   0  0  0  0  0  0  0  0  0  0  0  0
  147.5118  139.3187  156.0786 C   0  0  1  0  0  0  0  0  0  0  0  0
  148.7415  139.5285  156.7574 O   0  0  0  0  0  0  0  0  0  0  0  0
  148.8093  138.8691  158.0089 C   0  0  0  0  0  0  0  0  0  0  0  0
  150.8861  137.9599  154.3008 H   0  0  0  0  0  0  0  0  0  0  0  0
  149.4288  137.0329  154.5797 H   0  0  0  0  0  0  0  0  0  0  0  0
  149.9711  138.2057  155.7753 H   0  0  0  0  0  0  0  0  0  0  0  0
  149.6763  140.0200  153.9897 H   0  0  0  0  0  0  0  0  0  0  0  0
  149.0112  138.8358  152.9317 H   0  0  0  0  0  0  0  0  0  0  0  0
  147.0055  140.6690  152.8643 H   0  0  0  0  0  0  0  0  0  0  0  0
  146.1289  140.9434  154.3198 H   0  0  0  0  0  0  0  0  0  0  0  0
  147.5333  142.8833  153.8955 H   0  0  0  0  0  0  0  0  0  0  0  0
  148.9899  141.9048  153.8398 H   0  0  0  0  0  0  0  0  0  0  0  0
  148.1120  142.0936  155.3571 H   0  0  0  0  0  0  0  0  0  0  0  0
  145.5803  138.6257  154.5775 H   0  0  0  0  0  0  0  0  0  0  0  0
  147.7574  137.1318  153.1625 H   0  0  0  0  0  0  0  0  0  0  0  0
  147.3535  135.6486  151.9504 H   0  0  0  0  0  0  0  0  0  0  0  0
  143.8303  135.0638  152.2829 H   0  0  0  0  0  0  0  0  0  0  0  0
  147.2827  131.7508  148.8970 H   0  0  0  0  0  0  0  0  0  0  0  0
  145.7763  131.7026  147.9798 H   0  0  0  0  0  0  0  0  0  0  0  0
  146.0308  130.5849  149.3277 H   0  0  0  0  0  0  0  0  0  0  0  0
  147.3773  133.5656  150.3629 H   0  0  0  0  0  0  0  0  0  0  0  0
  147.9769  137.2172  155.8616 H   0  0  0  0  0  0  0  0  0  0  0  0
  145.2312  137.9099  157.0609 H   0  0  0  0  0  0  0  0  0  0  0  0
  146.5331  137.0579  157.8830 H   0  0  0  0  0  0  0  0  0  0  0  0
  145.6988  136.2982  156.5354 H   0  0  0  0  0  0  0  0  0  0  0  0
  146.7058  139.9518  156.4588 H   0  0  0  0  0  0  0  0  0  0  0  0
  149.7574  139.1041  158.4920 H   0  0  0  0  0  0  0  0  0  0  0  0
  148.7532  137.7871  157.8932 H   0  0  0  0  0  0  0  0  0  0  0  0
  148.0059  139.1950  158.6707 H   0  0  0  0  0  0  0  0  0  0  0  0
  1  2  1  0  0  0  0
  1 24  1  0  0  0  0
  1 25  1  0  0  0  0
  1 26  1  0  0  0  0
  2  3  1  0  0  0  0
  2 27  1  0  0  0  0
  2 28  1  0  0  0  0
  3 21  1  0  0  0  0
  3  4  1  0  0  0  0
  3  6  1  0  0  0  0
  4  5  1  0  0  0  0
  4 29  1  0  0  0  0
  4 30  1  0  0  0  0
  5 31  1  0  0  0  0
  5 32  1  0  0  0  0
  5 33  1  0  0  0  0
  6  7  1  0  0  0  0
  6 19  1  0  0  0  0
  6 34  1  0  0  0  0
  7  8  1  0  0  0  0
  7 35  1  0  0  0  0
  8  9  2  0  0  0  0
  8 10  1  0  0  0  0
 10 11  1  0  0  0  0
 10 36  1  0  0  0  0
 11 18  1  0  0  0  0
 11 12  2  0  0  0  0
 12 13  1  0  0  0  0
 12 37  1  0  0  0  0
 13 14  1  0  0  0  0
 14 15  2  0  0  0  0
 14 16  1  0  0  0  0
 16 17  1  0  0  0  0
 16 18  2  0  0  0  0
 17 38  1  0  0  0  0
 17 39  1  0  0  0  0
 17 40  1  0  0  0  0
 18 41  1  0  0  0  0
 19 20  1  0  0  0  0
 19 21  1  0  0  0  0
 19 42  1  0  0  0  0
 20 43  1  0  0  0  0
 20 44  1  0  0  0  0
 20 45  1  0  0  0  0
 21 22  1  0  0  0  0
 21 46  1  0  0  0  0
 22 23  1  0  0  0  0
 23 47  1  0  0  0  0
 23 48  1  0  0  0  0
 23 49  1  0  0  0  0
M  CHG  1  13  -1
M  END
> <s_m_source_file>
AV-unprocessed.smi

> <i_m_source_file_index>
2424

> <i_lp_mmshare_version>
43012

> <i_f3d_flags>
0

> <s_epik_input>
W0NIM11PW0NAQEhdMVtDQEhdKFtDSDNdKVtDQEBIXShDMShbQ0gyXVtDSDNdKVtDSDJdW0NIM10pW05IXUMoPU8pW05IXWMyW2NIXVtuSF1jKD1PKWMoW0NIM10pW2NIXTI=

> <s_epik_cmdline>
J2VwaWtfcHl0aG9uJywgJy1waCcsICc3LjAnLCAnLXRuJywgJzgnLCAnLW1hJywgJzIwMCcsICctbWV0YWxfYmluZGluZycsICctaW1hZScsICc8aW5maWxlLm1hZT4nLCAnLW9tYWUnLCAnPG91dGZpbGUubWFlPic=

> <r_lp_tautomer_probability>
1

> <r_epik_Ionization_Penalty>
7.6122

> <r_epik_Ionization_Penalty_Charging>
1.53843

> <r_epik_Ionization_Penalty_Neutral>
6.07377

> <r_epik_State_Penalty>
6.07371

> <r_epik_Charging_Adjusted_Penalty>
7.61214

> <i_epik_Tot_Q>
-1

> <i_epik_Tot_abs_Q>
1

> <r_epik_Metal_State_Penalty>
2.02136

> <b_epik_Metal_Only>
1

> <s_lp_Force_Field>
OPLS_2005

> <r_lp_Energy>
39.7535

> <b_lp_Chiralities_Consistent>
1

> <s_lp_Variant>
AV-unprocessed.smi:2424-11

> <Gold.Version>
5.8.1

> <Gold.Id.Protein>
6NUR|6NUR_protein|mol2

> <Gold.PLP.Fitness>
35.9038

> <Gold.PLP.PLP>
-27.9404

> <Gold.PLP.part.hbond>
-3.0000

> <Gold.PLP.part.metal>
0.0000

> <Gold.PLP.part.buried>
-1.8861

> <Gold.PLP.part.nonpolar>
-25.0204

> <Gold.PLP.part.repulsive>
1.6659

> <Gold.PLP.ligand.clash>
0.0000

> <Gold.PLP.ligand.torsion>
0.7434

> <Gold.PLP.Chemscore.Hbond>
2.9440

> <Gold.PLP.Chemscore.CHOScore>
0.0000

> <Gold.PLP.Chemscore.Metal>
0.0000

> <Gold.Chemscore.Hbonds>
donor molecule, donor type, donor heavy atom, donor atom, acceptor molecule, acceptor atom, score
      L1  H     7    35       P1  7948  0.96
      L1  H    10    36       P1  7948  1.00
      P1  H 10785 10796       L1    15  1.00

> <Gold.PLP.Chemscore.Internal.Correction>
0.6184

> <Gold.Rescore>
     Score         DG    S(hbond)    S(metal)    S(lipo)     H(rot)  DE(clash)    DE(int)     intcor
     14.38     -20.09       2.80        0.00      78.10       1.52       1.80       3.92       ----

> <Gold.Chemscore.Fitness>
14.3789

> <Gold.Chemscore.DG>
-20.0944

> <Gold.Chemscore.ZeroCoef>
-5.4800

> <Gold.Chemscore.Hbond>
2.8050

> <Gold.Chemscore.Metal>
0.0000

> <Gold.Chemscore.Lipo>
78.1025

> <Gold.Chemscore.Internal_Hbond>
0.0000

> <Gold.Chemscore.DEClash>
1.7964

> <Gold.Chemscore.DEInternal>
3.9190

> <Gold.Chemscore.Rot>
1.5204

> <Gold.Chemscore.Internal.Correction>
   9.000000E+99

> <Gold.Chemscore.Hbonds>
donor molecule, donor type, donor heavy atom, donor atom, acceptor molecule, acceptor atom, score
      L1  H     7    35       P1  7948  0.90
      L1  H    10    36       P1  7948  1.00
      P1  H 10785 10796       L1    15  0.96

> <Gold.Chemscore.Hbond.Weighted>
-9.3686

> <Gold.Chemscore.Metal.Weighted>
-0.0000

> <Gold.Chemscore.Lipo.Weighted>
-9.1380

> <Gold.Chemscore.Internal_Hbond.Weighted>
0.0000

> <Gold.Chemscore.DEClash.Weighted>
1.7964

> <Gold.Chemscore.DEInternal.Weighted>
3.9190

> <Gold.Chemscore.Rot.Weighted>
3.8922

> <Gold.Chemscore.Internal.Correction.Weighted>
   9.000000E+99

> <Gold.Protein.RotatedTorsions>
[ 6907 6896 6895 6894 ] final  154.86 input  -60.11 | X-H torsion
[ 7974 7965 7964 7962 ] final  -39.29 input  175.53 | X-H torsion
[ 8008 7997 7996 7995 ] final   32.67 input   59.86 | X-H torsion
[ 10167 10162 10161 10158 ] final  -57.12 input  -65.29 | X-H torsion
[ 10718 10713 10712 10709 ] final  133.61 input   66.30 | X-H torsion
[ 10763 10752 10751 10750 ] final -136.83 input  -60.55 | X-H torsion
[ 11005 11000 10999 10996 ] final  -53.67 input  -57.11 | X-H torsion

> <Gold.Protein.ActiveResidues>
 VAL166  LYS551  ARG553  GLY616  TRP617  ASP618  TYR619  PRO620  LYS621  CYS622 
 ASP623  PHE694  ASN695  SER759  ASP760  ASP761  ALA762  ILE779  LEU786  VAL792 
 PHE793  MET794  SER795  GLU796  ALA797  LYS798  CYS799  TRP800  GLU811  SER814 

> <Gold.Protein.RotatedAtoms>
  152.0524  133.4025  159.4382 H   0  0  0  0  0  0  0  0  0  0  0  0  # atno 6907 bound_to 6896
  150.6869  134.3292  159.4829 H   0  0  0  0  0  0  0  0  0  0  0  0  # atno 6908 bound_to 6896
  152.1104  134.9278  160.0617 H   0  0  0  0  0  0  0  0  0  0  0  0  # atno 6909 bound_to 6896
  146.0409  140.6609  142.9087 H   0  0  0  0  0  0  0  0  0  0  0  0  # atno 7974 bound_to 7965
  155.1263  140.3253  155.4485 H   0  0  0  0  0  0  0  0  0  0  0  0  # atno 8008 bound_to 7997
  156.2648  140.2018  156.6332 H   0  0  0  0  0  0  0  0  0  0  0  0  # atno 8009 bound_to 7997
  154.6646  140.0543  157.0086 H   0  0  0  0  0  0  0  0  0  0  0  0  # atno 8010 bound_to 7997
  140.6277  143.2445  151.5321 H   0  0  0  0  0  0  0  0  0  0  0  0  # atno 10167 bound_to 10162
  157.4755  131.1083  150.9748 H   0  0  0  0  0  0  0  0  0  0  0  0  # atno 10718 bound_to 10713
  154.8675  135.3660  154.5124 H   0  0  0  0  0  0  0  0  0  0  0  0  # atno 10763 bound_to 10752
  153.5759  135.7019  153.5489 H   0  0  0  0  0  0  0  0  0  0  0  0  # atno 10764 bound_to 10752
  153.3501  135.4074  155.1602 H   0  0  0  0  0  0  0  0  0  0  0  0  # atno 10765 bound_to 10752
  141.0988  133.6621  156.4207 H   0  0  0  0  0  0  0  0  0  0  0  0  # atno 11005 bound_to 11000
  144.7074  140.3907  143.7107 LP  0  0  0  0  0  0  0  0  0  0  0  0  # atno 17320 bound_to 7965
  145.6885  139.1634  143.2660 LP  0  0  0  0  0  0  0  0  0  0  0  0  # atno 17321 bound_to 7965
  139.5495  144.2433  152.1504 LP  0  0  0  0  0  0  0  0  0  0  0  0  # atno 17342 bound_to 10162
  140.1668  144.4973  150.6601 LP  0  0  0  0  0  0  0  0  0  0  0  0  # atno 17343 bound_to 10162
  157.0499  130.5783  149.5368 LP  0  0  0  0  0  0  0  0  0  0  0  0  # atno 17370 bound_to 10713
  156.0095  130.5185  150.7941 LP  0  0  0  0  0  0  0  0  0  0  0  0  # atno 17371 bound_to 10713
  140.5075  134.6427  157.5272 LP  0  0  0  0  0  0  0  0  0  0  0  0  # atno 17394 bound_to 11000
  139.9832  134.7103  155.9821 LP  0  0  0  0  0  0  0  0  0  0  0  0  # atno 17395 bound_to 11000

$$$$
