AV-unprocessed.smi:1126|AV-procd|sdf|4838|dock5
  -GOLD-   22720 3403D 1   1.00000     0.00000
 Structure written by MMmdl.
 48 49  0  0  0  0  0  0  0  0  2 V2000
  152.4992  138.7183  154.8014 C   0  0  0  0  0  0  0  0  0  0  0  0
  151.8209  139.9612  154.7482 O   0  0  0  0  0  0  0  0  0  0  0  0
  150.8918  140.1208  155.8078 C   0  0  0  0  0  0  0  0  0  0  0  0
  150.4985  141.6030  155.9024 C   0  0  0  0  0  0  0  0  0  0  0  0
  149.0881  141.8407  155.5022 N   0  3  2  0  0  0  0  0  0  0  0  0
  148.1324  141.5241  156.5942 C   0  0  0  0  0  0  0  0  0  0  0  0
  146.6934  141.9107  156.2066 C   0  0  0  0  0  0  0  0  0  0  0  0
  146.2429  141.2434  154.8936 C   0  0  2  0  0  0  0  0  0  0  0  0
  145.9459  139.7374  155.0813 C   0  0  0  0  0  0  0  0  0  0  0  0
  145.7924  139.0383  153.8097 N   0  0  0  0  0  0  0  0  0  0  0  0
  146.2334  137.7997  153.5370 C   0  0  0  0  0  0  0  0  0  0  0  0
  146.8641  137.1110  154.3388 O   0  0  0  0  0  0  0  0  0  0  0  0
  145.9240  137.2581  152.1402 C   0  0  0  0  0  0  0  0  0  0  0  0
  145.2683  135.9641  152.2095 N   0  0  0  0  0  0  0  0  0  0  0  0
  144.9954  135.0859  151.1818 C   0  0  0  0  0  0  0  0  0  0  0  0
  144.3782  133.9951  151.7257 C   0  0  0  0  0  0  0  0  0  0  0  0
  143.8814  132.7571  151.0363 C   0  0  0  0  0  0  0  0  0  0  0  0
  144.3171  134.3073  153.1136 C   0  0  0  0  0  0  0  0  0  0  0  0
  144.8497  135.4840  153.4007 N   0  0  0  0  0  0  0  0  0  0  0  0
  147.2868  141.5561  153.8010 C   0  0  0  0  0  0  0  0  0  0  0  0
  148.7120  141.1664  154.2316 C   0  0  0  0  0  0  0  0  0  0  0  0
  153.1980  138.6464  153.9677 H   0  0  0  0  0  0  0  0  0  0  0  0
  151.8003  137.8842  154.7272 H   0  0  0  0  0  0  0  0  0  0  0  0
  153.0679  138.6182  155.7267 H   0  0  0  0  0  0  0  0  0  0  0  0
  150.0205  139.4833  155.6572 H   0  0  0  0  0  0  0  0  0  0  0  0
  151.3550  139.8091  156.7451 H   0  0  0  0  0  0  0  0  0  0  0  0
  150.6620  141.9793  156.9133 H   0  0  0  0  0  0  0  0  0  0  0  0
  151.1675  142.1696  155.2529 H   0  0  0  0  0  0  0  0  0  0  0  0
  148.1941  140.4633  156.8401 H   0  0  0  0  0  0  0  0  0  0  0  0
  148.4131  142.0709  157.4952 H   0  0  0  0  0  0  0  0  0  0  0  0
  146.0069  141.6576  157.0152 H   0  0  0  0  0  0  0  0  0  0  0  0
  146.6374  142.9944  156.0940 H   0  0  0  0  0  0  0  0  0  0  0  0
  145.3041  141.7131  154.5962 H   0  0  0  0  0  0  0  0  0  0  0  0
  146.7054  139.2564  155.6986 H   0  0  0  0  0  0  0  0  0  0  0  0
  145.0068  139.6190  155.6228 H   0  0  0  0  0  0  0  0  0  0  0  0
  145.2843  139.5234  153.0836 H   0  0  0  0  0  0  0  0  0  0  0  0
  145.2890  137.9625  151.6004 H   0  0  0  0  0  0  0  0  0  0  0  0
  146.8457  137.1517  151.5665 H   0  0  0  0  0  0  0  0  0  0  0  0
  145.2636  135.3078  150.1591 H   0  0  0  0  0  0  0  0  0  0  0  0
  143.0726  132.2819  151.5917 H   0  0  0  0  0  0  0  0  0  0  0  0
  144.6728  132.0163  150.9230 H   0  0  0  0  0  0  0  0  0  0  0  0
  143.4997  132.9759  150.0388 H   0  0  0  0  0  0  0  0  0  0  0  0
  143.9044  133.7151  153.9174 H   0  0  0  0  0  0  0  0  0  0  0  0
  147.0309  141.0669  152.8617 H   0  0  0  0  0  0  0  0  0  0  0  0
  147.2662  142.6258  153.5878 H   0  0  0  0  0  0  0  0  0  0  0  0
  149.4031  141.4448  153.4369 H   0  0  0  0  0  0  0  0  0  0  0  0
  148.7944  140.0853  154.3499 H   0  0  0  0  0  0  0  0  0  0  0  0
  149.0065  142.8349  155.3417 H   0  0  0  0  0  0  0  0  0  0  0  0
  1  2  1  0  0  0  0
  1 22  1  0  0  0  0
  1 23  1  0  0  0  0
  1 24  1  0  0  0  0
  2  3  1  0  0  0  0
  3  4  1  0  0  0  0
  3 25  1  0  0  0  0
  3 26  1  0  0  0  0
  4  5  1  0  0  0  0
  4 27  1  0  0  0  0
  4 28  1  0  0  0  0
  5 21  1  0  0  0  0
  5  6  1  0  0  0  0
  5 48  1  0  0  0  0
  6  7  1  0  0  0  0
  6 29  1  0  0  0  0
  6 30  1  0  0  0  0
  7  8  1  0  0  0  0
  7 31  1  0  0  0  0
  7 32  1  0  0  0  0
  8  9  1  0  0  0  0
  8 20  1  0  0  0  0
  8 33  1  0  0  0  0
  9 10  1  0  0  0  0
  9 34  1  0  0  0  0
  9 35  1  0  0  0  0
 10 11  1  0  0  0  0
 10 36  1  0  0  0  0
 11 12  2  0  0  0  0
 11 13  1  0  0  0  0
 13 14  1  0  0  0  0
 13 37  1  0  0  0  0
 13 38  1  0  0  0  0
 14 19  1  0  0  0  0
 14 15  1  0  0  0  0
 15 16  2  0  0  0  0
 15 39  1  0  0  0  0
 16 17  1  0  0  0  0
 16 18  1  0  0  0  0
 17 40  1  0  0  0  0
 17 41  1  0  0  0  0
 17 42  1  0  0  0  0
 18 19  2  0  0  0  0
 18 43  1  0  0  0  0
 20 21  1  0  0  0  0
 20 44  1  0  0  0  0
 20 45  1  0  0  0  0
 21 46  1  0  0  0  0
 21 47  1  0  0  0  0
M  CHG  1   5   1
M  END
> <s_m_source_file>
AV-unprocessed.smi

> <i_m_source_file_index>
1126

> <i_lp_mmshare_version>
43012

> <i_f3d_flags>
0

> <s_epik_input>
W0NIM11PW0NIMl1bQ0gyXU4xW0NIMl1bQ0gyXVtDSF0oW0NIMl1bQ0gyXTEpW0NIMl1bTkhdQyg9TylbQ0gyXW4yW2NIXWMoW0NIM10pW2NIXW4y

> <s_epik_cmdline>
J2VwaWtfcHl0aG9uJywgJy1waCcsICc3LjAnLCAnLXRuJywgJzgnLCAnLW1hJywgJzIwMCcsICctbWV0YWxfYmluZGluZycsICctaW1hZScsICc8aW5maWxlLm1hZT4nLCAnLW9tYWUnLCAnPG91dGZpbGUubWFlPic=

> <r_lp_tautomer_probability>
1

> <r_epik_Ionization_Penalty>
0.00992859

> <r_epik_Ionization_Penalty_Charging>
0.00990284

> <r_epik_Ionization_Penalty_Neutral>
2.57527e-05

> <r_epik_State_Penalty>
0.00754525

> <r_epik_Charging_Adjusted_Penalty>
0.0174481

> <i_epik_Tot_Q>
1

> <i_epik_Tot_abs_Q>
1

> <r_epik_Metal_State_Penalty>
0.00754529

> <b_epik_Metal_Only>
0

> <s_lp_Force_Field>
OPLS_2005

> <r_lp_Energy>
20.6922

> <b_lp_Chiralities_Consistent>
1

> <s_lp_Variant>
AV-unprocessed.smi:1126-2

> <Gold.Version>
5.8.1

> <Gold.Id.Protein>
6NUR|6NUR_protein|mol2

> <Gold.PLP.Fitness>
53.1207

> <Gold.PLP.PLP>
-37.4841

> <Gold.PLP.part.hbond>
-2.8504

> <Gold.PLP.part.metal>
0.0000

> <Gold.PLP.part.buried>
-6.2586

> <Gold.PLP.part.nonpolar>
-30.1108

> <Gold.PLP.part.repulsive>
0.3595

> <Gold.PLP.ligand.clash>
0.0000

> <Gold.PLP.ligand.torsion>
0.9296

> <Gold.PLP.Chemscore.Hbond>
3.9440

> <Gold.PLP.Chemscore.CHOScore>
1.8545

> <Gold.PLP.Chemscore.Metal>
0.0000

> <Gold.Chemscore.Hbonds>
donor molecule, donor type, donor heavy atom, donor atom, acceptor molecule, acceptor atom, score
      L1  H     5    48       P1  8028  2.00
      L1  H    10    36       P1 10175  1.00
      P1  H  7989  7998       L1     2  0.98
      L1  C    15    39       P1  7921  0.55
      L1  C    18    43       P1 10957  1.00

> <Gold.PLP.Chemscore.Internal.Correction>
0.1001

> <Gold.Rescore>
     Score         DG    S(hbond)    S(metal)    S(lipo)     H(rot)  DE(clash)    DE(int)     intcor
     18.08     -18.95       2.93        0.00      77.39       2.10       0.13       0.74       ----

> <Gold.Chemscore.Fitness>
18.0819

> <Gold.Chemscore.DG>
-18.9517

> <Gold.Chemscore.ZeroCoef>
-5.4800

> <Gold.Chemscore.Hbond>
2.9324

> <Gold.Chemscore.Metal>
0.0000

> <Gold.Chemscore.Lipo>
77.3934

> <Gold.Chemscore.Internal_Hbond>
0.0000

> <Gold.Chemscore.DEClash>
0.1282

> <Gold.Chemscore.DEInternal>
0.7416

> <Gold.Chemscore.Rot>
2.1006

> <Gold.Chemscore.Internal.Correction>
   9.000000E+99

> <Gold.Chemscore.Hbonds>
donor molecule, donor type, donor heavy atom, donor atom, acceptor molecule, acceptor atom, score
      L1  H     5    48       P1  8028  1.00
      L1  H    10    36       P1 10175  0.93
      P1  H  7989  7998       L1     2  0.84

> <Gold.Chemscore.Hbond.Weighted>
-9.7942

> <Gold.Chemscore.Metal.Weighted>
-0.0000

> <Gold.Chemscore.Lipo.Weighted>
-9.0550

> <Gold.Chemscore.Internal_Hbond.Weighted>
0.0000

> <Gold.Chemscore.DEClash.Weighted>
0.1282

> <Gold.Chemscore.DEInternal.Weighted>
0.7416

> <Gold.Chemscore.Rot.Weighted>
5.3775

> <Gold.Chemscore.Internal.Correction.Weighted>
   9.000000E+99

> <Gold.Protein.RotatedTorsions>
[ 6907 6896 6895 6894 ] final  110.93 input  -60.11 | X-H torsion
[ 7974 7965 7964 7962 ] final   30.98 input  175.53 | X-H torsion
[ 8008 7997 7996 7995 ] final   32.67 input   59.86 | X-H torsion
[ 10167 10162 10161 10158 ] final  130.23 input  -65.29 | X-H torsion
[ 10718 10713 10712 10709 ] final  -79.92 input   66.30 | X-H torsion
[ 10763 10752 10751 10750 ] final  -66.30 input  -60.55 | X-H torsion
[ 11005 11000 10999 10996 ] final -156.89 input  -57.11 | X-H torsion

> <Gold.Protein.ActiveResidues>
 VAL166  LYS551  ARG553  GLY616  TRP617  ASP618  TYR619  PRO620  LYS621  CYS622 
 ASP623  PHE694  ASN695  SER759  ASP760  ASP761  ALA762  ILE779  LEU786  VAL792 
 PHE793  MET794  SER795  GLU796  ALA797  LYS798  CYS799  TRP800  GLU811  SER814 

> <Gold.Protein.RotatedAtoms>
  152.4995  133.8730  159.7307 H   0  0  0  0  0  0  0  0  0  0  0  0  # atno 6907 bound_to 6896
  150.9212  133.6870  159.2838 H   0  0  0  0  0  0  0  0  0  0  0  0  # atno 6908 bound_to 6896
  151.4246  135.1006  159.9676 H   0  0  0  0  0  0  0  0  0  0  0  0  # atno 6909 bound_to 6896
  146.1579  139.6717  142.9054 H   0  0  0  0  0  0  0  0  0  0  0  0  # atno 7974 bound_to 7965
  155.1262  140.3253  155.4485 H   0  0  0  0  0  0  0  0  0  0  0  0  # atno 8008 bound_to 7997
  156.2648  140.2018  156.6331 H   0  0  0  0  0  0  0  0  0  0  0  0  # atno 8009 bound_to 7997
  154.6647  140.0543  157.0087 H   0  0  0  0  0  0  0  0  0  0  0  0  # atno 8010 bound_to 7997
  139.5439  144.6756  151.4534 H   0  0  0  0  0  0  0  0  0  0  0  0  # atno 10167 bound_to 10162
  156.0081  130.4559  150.3722 H   0  0  0  0  0  0  0  0  0  0  0  0  # atno 10718 bound_to 10713
  154.3578  135.6122  153.5675 H   0  0  0  0  0  0  0  0  0  0  0  0  # atno 10763 bound_to 10752
  152.9795  135.5808  154.4669 H   0  0  0  0  0  0  0  0  0  0  0  0  # atno 10764 bound_to 10752
  154.4401  135.2850  155.1831 H   0  0  0  0  0  0  0  0  0  0  0  0  # atno 10765 bound_to 10752
  140.6706  134.4251  157.5231 H   0  0  0  0  0  0  0  0  0  0  0  0  # atno 11005 bound_to 11000
  145.4663  141.0434  143.2723 LP  0  0  0  0  0  0  0  0  0  0  0  0  # atno 17320 bound_to 7965
  144.7987  139.6183  143.7081 LP  0  0  0  0  0  0  0  0  0  0  0  0  # atno 17321 bound_to 7965
  140.6681  143.8355  150.6965 LP  0  0  0  0  0  0  0  0  0  0  0  0  # atno 17342 bound_to 10162
  140.1770  143.4146  152.1960 LP  0  0  0  0  0  0  0  0  0  0  0  0  # atno 17343 bound_to 10162
  157.1806  131.0391  151.2750 LP  0  0  0  0  0  0  0  0  0  0  0  0  # atno 17370 bound_to 10713
  157.4149  130.7405  149.6868 LP  0  0  0  0  0  0  0  0  0  0  0  0  # atno 17371 bound_to 10713
  139.8983  134.8617  156.2008 LP  0  0  0  0  0  0  0  0  0  0  0  0  # atno 17394 bound_to 11000
  141.0395  133.6945  156.1572 LP  0  0  0  0  0  0  0  0  0  0  0  0  # atno 17395 bound_to 11000

$$$$
