AV-unprocessed.smi:39|AV-procd|sdf|357|dock1
  -GOLD-   2262016193D 1   1.00000     0.00000
 Structure written by MMmdl.
 32 33  0  0  0  0  0  0  0  0  3 V2000
  151.4855  144.2827  160.0363 C   0  0  0  0  0  0  0  0  0  0  0  0
  152.0339  142.9414  159.5780 C   0  0  0  0  0  0  0  0  0  0  0  0
  151.6554  142.3607  158.4105 C   0  0  0  0  0  0  0  0  0  0  0  0
  152.1387  141.1383  157.9647 N   0  0  0  0  0  0  0  0  0  0  0  0
  151.6754  140.5401  156.6553 C   0  0  1  0  0  0  0  0  0  0  0  0
  150.9546  139.2109  156.8867 C   0  0  0  0  0  0  0  0  0  0  0  0
  149.8328  139.2991  155.8694 C   0  0  1  0  0  0  0  0  0  0  0  0
  148.6902  138.4474  156.2075 N   0  0  0  0  0  0  0  0  0  0  0  0
  148.2195  138.5812  157.3448 N   0  3  0  0  0  0  0  0  0  0  0  0
  147.8049  138.8274  158.3755 N   0  5  0  0  0  0  0  0  0  0  0  0
  149.4906  140.7903  155.9274 C   0  0  2  0  0  0  0  0  0  0  0  0
  148.7785  141.3048  154.6668 C   0  0  0  0  0  0  0  0  0  0  0  0
  149.5474  141.0064  153.5216 O   0  0  0  0  0  0  0  0  0  0  0  0
  150.7696  141.4123  156.0448 O   0  0  0  0  0  0  0  0  0  0  0  0
  153.0630  140.4299  158.7609 C   0  0  0  0  0  0  0  0  0  0  0  0
  153.5159  139.3297  158.4472 O   0  0  0  0  0  0  0  0  0  0  0  0
  153.4547  141.0269  159.9576 N   0  0  0  0  0  0  0  0  0  0  0  0
  153.0035  142.2582  160.4388 C   0  0  0  0  0  0  0  0  0  0  0  0
  153.4243  142.6812  161.5144 O   0  0  0  0  0  0  0  0  0  0  0  0
  152.5402  140.4568  155.9955 H   0  0  0  0  0  0  0  0  0  0  0  0
  150.2257  139.0616  154.8779 H   0  0  0  0  0  0  0  0  0  0  0  0
  148.8978  140.9930  156.8212 H   0  0  0  0  0  0  0  0  0  0  0  0
  154.1192  140.5246  160.5280 H   0  0  0  0  0  0  0  0  0  0  0  0
  150.7812  144.6996  159.3157 H   0  0  0  0  0  0  0  0  0  0  0  0
  152.2955  145.0013  160.1654 H   0  0  0  0  0  0  0  0  0  0  0  0
  150.9660  144.1765  160.9893 H   0  0  0  0  0  0  0  0  0  0  0  0
  150.9345  142.8825  157.8002 H   0  0  0  0  0  0  0  0  0  0  0  0
  151.6256  138.3651  156.7336 H   0  0  0  0  0  0  0  0  0  0  0  0
  150.5576  139.1734  157.9029 H   0  0  0  0  0  0  0  0  0  0  0  0
  147.7780  140.8809  154.5749 H   0  0  0  0  0  0  0  0  0  0  0  0
  148.6680  142.3885  154.7127 H   0  0  0  0  0  0  0  0  0  0  0  0
  149.0886  140.3563  153.0119 H   0  0  0  0  0  0  0  0  0  0  0  0
  1  2  1  0  0  0  0
  1 24  1  0  0  0  0
  1 25  1  0  0  0  0
  1 26  1  0  0  0  0
  2 18  1  0  0  0  0
  2  3  2  0  0  0  0
  3  4  1  0  0  0  0
  3 27  1  0  0  0  0
  4  5  1  0  0  0  0
  4 15  1  0  0  0  0
  5 20  1  0  0  0  0
  5 14  1  0  0  0  0
  5  6  1  0  0  0  0
  6  7  1  0  0  0  0
  6 28  1  0  0  0  0
  6 29  1  0  0  0  0
  7 21  1  0  0  0  0
  7  8  1  0  0  0  0
  7 11  1  0  0  0  0
  8  9  2  0  0  0  0
  9 10  2  0  0  0  0
 11 22  1  0  0  0  0
 11 12  1  0  0  0  0
 11 14  1  0  0  0  0
 12 13  1  0  0  0  0
 12 30  1  0  0  0  0
 12 31  1  0  0  0  0
 13 32  1  0  0  0  0
 15 16  2  0  0  0  0
 15 17  1  0  0  0  0
 17 23  1  0  0  0  0
 17 18  1  0  0  0  0
 18 19  2  0  0  0  0
M  CHG  1   9   1
M  CHG  1  10  -1
M  END
> <s_m_source_file>
AV-unprocessed.smi

> <i_m_source_file_index>
39

> <i_lp_mmshare_version>
43012

> <i_f3d_flags>
0

> <s_epik_input>
Tz1jMVtuSF1jKD1PKW4oW2NIXWMxW0NIM10pW0NASF0yW0NIMl1bQ0BIXShOPVtOK109W04tXSlbQ0BIXShPMilbQ0gyXVtPSF0=

> <s_epik_cmdline>
J2VwaWtfcHl0aG9uJywgJy1waCcsICc3LjAnLCAnLXRuJywgJzgnLCAnLW1hJywgJzIwMCcsICctbWV0YWxfYmluZGluZycsICctaW1hZScsICc8aW5maWxlLm1hZT4nLCAnLW9tYWUnLCAnPG91dGZpbGUubWFlPic=

> <r_lp_tautomer_probability>
0.999537

> <r_epik_Ionization_Penalty>
0.00127512

> <r_epik_Ionization_Penalty_Charging>
0.00127507

> <r_epik_Ionization_Penalty_Neutral>
5.43433e-08

> <r_epik_State_Penalty>
0.000844892

> <r_epik_Charging_Adjusted_Penalty>
0.00211996

> <i_epik_Tot_Q>
0

> <i_epik_Tot_abs_Q>
2

> <r_epik_Metal_State_Penalty>
0.680636

> <b_epik_Metal_Only>
0

> <s_epik_Chemistry_Notes>
This compound contains an acetal/aminal-like group ( X-CH(R)-Y where X, Y are N, S, or O) that may be acid/base labile, releasing an aldehyde.

> <s_lp_Force_Field>
OPLS_2005

> <r_lp_Energy>
25.0808

> <b_lp_Chiralities_Consistent>
1

> <s_lp_Variant>
AV-unprocessed.smi:39-7

> <Gold.Version>
5.8.1

> <Gold.Id.Protein>
6NUR|6NUR_protein|mol2

> <Gold.PLP.Fitness>
37.5142

> <Gold.PLP.PLP>
-29.7286

> <Gold.PLP.part.hbond>
-4.9751

> <Gold.PLP.part.metal>
0.0000

> <Gold.PLP.part.buried>
-3.9228

> <Gold.PLP.part.nonpolar>
-19.4843

> <Gold.PLP.part.repulsive>
0.1820

> <Gold.PLP.ligand.clash>
0.0000

> <Gold.PLP.ligand.torsion>
0.0405

> <Gold.PLP.Chemscore.Hbond>
2.6111

> <Gold.PLP.Chemscore.CHOScore>
0.0000

> <Gold.PLP.Chemscore.Metal>
0.0000

> <Gold.Chemscore.Hbonds>
donor molecule, donor type, donor heavy atom, donor atom, acceptor molecule, acceptor atom, score
      L1  H    13    32       P1  7957  0.38
      P1  H  7989  7998       L1    13  0.26
      P1  H  7997  8010       L1    16  0.80
      P1  H  8011  8017       L1    13  1.00

> <Gold.PLP.Chemscore.Internal.Correction>
0.0334

> <Gold.Rescore>
     Score         DG    S(hbond)    S(metal)    S(lipo)     H(rot)  DE(clash)    DE(int)     intcor
     10.65     -11.87       2.31        0.00      48.77       2.75       0.15       1.07       ----

> <Gold.Chemscore.Fitness>
10.6515

> <Gold.Chemscore.DG>
-11.8663

> <Gold.Chemscore.ZeroCoef>
-5.4800

> <Gold.Chemscore.Hbond>
2.3133

> <Gold.Chemscore.Metal>
0.0000

> <Gold.Chemscore.Lipo>
48.7684

> <Gold.Chemscore.Internal_Hbond>
0.0000

> <Gold.Chemscore.DEClash>
0.1494

> <Gold.Chemscore.DEInternal>
1.0654

> <Gold.Chemscore.Rot>
2.7524

> <Gold.Chemscore.Internal.Correction>
   9.000000E+99

> <Gold.Chemscore.Hbonds>
donor molecule, donor type, donor heavy atom, donor atom, acceptor molecule, acceptor atom, score
      L1  H    13    32       P1  7957  0.38
      P1  H  7989  7998       L1    13  0.22
      P1  H  7997  8010       L1    16  0.11
      P1  H  8011  8017       L1    13  0.40

> <Gold.Chemscore.Hbond.Weighted>
-7.7265

> <Gold.Chemscore.Metal.Weighted>
-0.0000

> <Gold.Chemscore.Lipo.Weighted>
-5.7059

> <Gold.Chemscore.Internal_Hbond.Weighted>
0.0000

> <Gold.Chemscore.DEClash.Weighted>
0.1494

> <Gold.Chemscore.DEInternal.Weighted>
1.0654

> <Gold.Chemscore.Rot.Weighted>
7.0461

> <Gold.Chemscore.Internal.Correction.Weighted>
   9.000000E+99

> <Gold.Protein.RotatedTorsions>
[ 6907 6896 6895 6894 ] final   20.94 input  -60.11 | X-H torsion
[ 7974 7965 7964 7962 ] final  -82.11 input  175.53 | X-H torsion
[ 8008 7997 7996 7995 ] final    7.18 input   59.86 | X-H torsion
[ 10167 10162 10161 10158 ] final -142.21 input  -65.29 | X-H torsion
[ 10718 10713 10712 10709 ] final -121.86 input   66.30 | X-H torsion
[ 10763 10752 10751 10750 ] final  131.80 input  -60.55 | X-H torsion
[ 11005 11000 10999 10996 ] final -172.29 input  -57.11 | X-H torsion

> <Gold.Protein.ActiveResidues>
 VAL166  LYS551  ARG553  GLY616  TRP617  ASP618  TYR619  PRO620  LYS621  CYS622 
 ASP623  PHE694  ASN695  SER759  ASP760  ASP761  ALA762  ILE779  LEU786  VAL792 
 PHE793  MET794  SER795  GLU796  ALA797  LYS798  CYS799  TRP800  GLU811  SER814 

> <Gold.Protein.RotatedAtoms>
  151.9042  135.0366  160.0508 H   0  0  0  0  0  0  0  0  0  0  0  0  # atno 6907 bound_to 6896
  152.2333  133.5071  159.5236 H   0  0  0  0  0  0  0  0  0  0  0  0  # atno 6908 bound_to 6896
  150.7032  134.1104  159.4040 H   0  0  0  0  0  0  0  0  0  0  0  0  # atno 6909 bound_to 6896
  145.5377  140.9513  143.1568 H   0  0  0  0  0  0  0  0  0  0  0  0  # atno 7974 bound_to 7965
  154.7505  140.2766  155.6296 H   0  0  0  0  0  0  0  0  0  0  0  0  # atno 8008 bound_to 7997
  156.2894  140.2679  156.2184 H   0  0  0  0  0  0  0  0  0  0  0  0  # atno 8009 bound_to 7997
  155.0143  140.0372  157.2401 H   0  0  0  0  0  0  0  0  0  0  0  0  # atno 8010 bound_to 7997
  139.8110  143.7702  152.2663 H   0  0  0  0  0  0  0  0  0  0  0  0  # atno 10167 bound_to 10162
  156.1371  130.6438  150.9713 H   0  0  0  0  0  0  0  0  0  0  0  0  # atno 10718 bound_to 10713
  153.7803  135.3169  155.3365 H   0  0  0  0  0  0  0  0  0  0  0  0  # atno 10763 bound_to 10752
  154.8164  135.4633  154.0658 H   0  0  0  0  0  0  0  0  0  0  0  0  # atno 10764 bound_to 10752
  153.1945  135.6913  153.8396 H   0  0  0  0  0  0  0  0  0  0  0  0  # atno 10765 bound_to 10752
  140.4986  134.5915  157.4980 H   0  0  0  0  0  0  0  0  0  0  0  0  # atno 11005 bound_to 11000
  144.7593  139.6996  143.7241 LP  0  0  0  0  0  0  0  0  0  0  0  0  # atno 17320 bound_to 7965
  146.2002  139.5292  142.9748 LP  0  0  0  0  0  0  0  0  0  0  0  0  # atno 17321 bound_to 7965
  139.7851  144.7430  151.0033 LP  0  0  0  0  0  0  0  0  0  0  0  0  # atno 17342 bound_to 10162
  140.7818  143.4500  151.0426 LP  0  0  0  0  0  0  0  0  0  0  0  0  # atno 17343 bound_to 10162
  157.6542  131.0892  150.7984 LP  0  0  0  0  0  0  0  0  0  0  0  0  # atno 17370 bound_to 10713
  156.8063  130.4937  149.5362 LP  0  0  0  0  0  0  0  0  0  0  0  0  # atno 17371 bound_to 10713
  139.9726  134.7267  156.0011 LP  0  0  0  0  0  0  0  0  0  0  0  0  # atno 17394 bound_to 11000
  141.1447  133.6558  156.3832 LP  0  0  0  0  0  0  0  0  0  0  0  0  # atno 17395 bound_to 11000

$$$$
