AV-unprocessed.smi:1464|AV-procd|sdf|5950|dock7
  -GOLD-   22720 6 33D 1   1.00000     0.00000
 Structure written by MMmdl.
 41 42  0  0  0  0  0  0  0  0  1 V2000
  150.4038  141.5655  157.9668 C   0  0  0  0  0  0  0  0  0  0  0  0
  150.3588  140.4009  156.9614 C   0  0  1  0  0  0  0  0  0  0  0  0
  149.9298  140.9257  155.5755 C   0  0  0  0  0  0  0  0  0  0  0  0
  149.8540  139.8054  154.5298 C   0  0  0  0  0  0  0  0  0  0  0  0
  151.1927  139.0614  154.4258 C   0  0  0  0  0  0  0  0  0  0  0  0
  151.6502  138.5128  155.7919 C   0  0  2  0  0  0  0  0  0  0  0  0
  150.7922  137.4086  156.2240 N   0  0  0  0  0  0  0  0  0  0  0  0
  151.1915  136.1470  156.4436 C   0  0  0  0  0  0  0  0  0  0  0  0
  152.3501  135.7648  156.2740 O   0  0  0  0  0  0  0  0  0  0  0  0
  150.1020  135.1678  156.9035 C   0  0  0  0  0  0  0  0  0  0  0  0
  149.9519  134.0102  156.0103 N   0  0  0  0  0  0  0  0  0  0  0  0
  149.2276  134.2725  154.8571 N   0  0  0  0  0  0  0  0  0  0  0  0
  149.0395  133.3377  153.9878 C   0  0  0  0  0  0  0  0  0  0  0  0
  148.3201  133.6417  152.8582 O   0  0  0  0  0  0  0  0  0  0  0  0
  149.5682  132.0069  154.1927 C   0  0  0  0  0  0  0  0  0  0  0  0
  150.2679  131.7600  155.3216 C   0  0  0  0  0  0  0  0  0  0  0  0
  150.5006  132.7974  156.3282 C   0  0  0  0  0  0  0  0  0  0  0  0
  151.1319  132.6000  157.3664 O   0  0  0  0  0  0  0  0  0  0  0  0
  151.7061  139.6311  156.8651 C   0  0  2  0  0  0  0  0  0  0  0  0
  152.1854  139.0773  158.2226 C   0  0  0  0  0  0  0  0  0  0  0  0
  148.4178  134.5745  152.7422 H   0  0  0  0  0  0  0  0  0  0  0  0
  151.2025  142.2676  157.7253 H   0  0  0  0  0  0  0  0  0  0  0  0
  150.5605  141.2147  158.9863 H   0  0  0  0  0  0  0  0  0  0  0  0
  149.4646  142.1196  157.9647 H   0  0  0  0  0  0  0  0  0  0  0  0
  149.5908  139.7064  157.3047 H   0  0  0  0  0  0  0  0  0  0  0  0
  148.9588  141.4170  155.6473 H   0  0  0  0  0  0  0  0  0  0  0  0
  150.6338  141.6874  155.2370 H   0  0  0  0  0  0  0  0  0  0  0  0
  149.0591  139.1070  154.7940 H   0  0  0  0  0  0  0  0  0  0  0  0
  149.5863  140.2226  153.5586 H   0  0  0  0  0  0  0  0  0  0  0  0
  151.1170  138.2552  153.6950 H   0  0  0  0  0  0  0  0  0  0  0  0
  151.9516  139.7448  154.0427 H   0  0  0  0  0  0  0  0  0  0  0  0
  152.6637  138.1253  155.6720 H   0  0  0  0  0  0  0  0  0  0  0  0
  149.8195  137.6291  156.3817 H   0  0  0  0  0  0  0  0  0  0  0  0
  150.3162  134.8270  157.9185 H   0  0  0  0  0  0  0  0  0  0  0  0
  149.1620  135.7182  156.9724 H   0  0  0  0  0  0  0  0  0  0  0  0
  149.4024  131.2359  153.4548 H   0  0  0  0  0  0  0  0  0  0  0  0
  150.6686  130.7706  155.4871 H   0  0  0  0  0  0  0  0  0  0  0  0
  152.4632  140.3441  156.5348 H   0  0  0  0  0  0  0  0  0  0  0  0
  151.4273  138.4508  158.6936 H   0  0  0  0  0  0  0  0  0  0  0  0
  152.4337  139.8782  158.9184 H   0  0  0  0  0  0  0  0  0  0  0  0
  153.0856  138.4740  158.1021 H   0  0  0  0  0  0  0  0  0  0  0  0
  1  2  1  0  0  0  0
  1 22  1  0  0  0  0
  1 23  1  0  0  0  0
  1 24  1  0  0  0  0
  2 19  1  0  0  0  0
  2  3  1  0  0  0  0
  2 25  1  0  0  0  0
  3  4  1  0  0  0  0
  3 26  1  0  0  0  0
  3 27  1  0  0  0  0
  4  5  1  0  0  0  0
  4 28  1  0  0  0  0
  4 29  1  0  0  0  0
  5  6  1  0  0  0  0
  5 30  1  0  0  0  0
  5 31  1  0  0  0  0
  6  7  1  0  0  0  0
  6 19  1  0  0  0  0
  6 32  1  0  0  0  0
  7  8  1  0  0  0  0
  7 33  1  0  0  0  0
  8  9  2  0  0  0  0
  8 10  1  0  0  0  0
 10 34  1  0  0  0  0
 10 35  1  0  0  0  0
 10 11  1  0  0  0  0
 11 12  1  0  0  0  0
 11 17  1  0  0  0  0
 12 13  2  0  0  0  0
 13 14  1  0  0  0  0
 13 15  1  0  0  0  0
 14 21  1  0  0  0  0
 15 36  1  0  0  0  0
 15 16  2  0  0  0  0
 16 37  1  0  0  0  0
 16 17  1  0  0  0  0
 17 18  2  0  0  0  0
 19 20  1  0  0  0  0
 19 38  1  0  0  0  0
 20 39  1  0  0  0  0
 20 40  1  0  0  0  0
 20 41  1  0  0  0  0
M  END
> <s_m_source_file>
AV-unprocessed.smi

> <i_m_source_file_index>
1464

> <i_lp_mmshare_version>
43012

> <i_f3d_flags>
0

> <s_epik_input>
W0NIM11bQ0BASF0xW0NIMl1bQ0gyXVtDSDJdW0NASF0oW0NASF0xW0NIM10pW05IXUMoPU8pW0NIMl1uMltuSF1jKD1PKVtjSF1bY0hdYzI9Tw==

> <s_epik_cmdline>
J2VwaWtfcHl0aG9uJywgJy1waCcsICc3LjAnLCAnLXRuJywgJzgnLCAnLW1hJywgJzIwMCcsICctbWV0YWxfYmluZGluZycsICctaW1hZScsICc8aW5maWxlLm1hZT4nLCAnLW9tYWUnLCAnPG91dGZpbGUubWFlPic=

> <r_lp_tautomer_probability>
0.9996

> <r_epik_Ionization_Penalty>
2.10335

> <r_epik_Ionization_Penalty_Charging>
3.98079e-08

> <r_epik_Ionization_Penalty_Neutral>
2.10335

> <r_epik_State_Penalty>
1.67957

> <r_epik_Charging_Adjusted_Penalty>
1.67957

> <i_epik_Tot_Q>
0

> <i_epik_Tot_abs_Q>
0

> <r_epik_Metal_State_Penalty>
1.67957

> <b_epik_Metal_Only>
0

> <s_lp_Force_Field>
OPLS_2005

> <r_lp_Energy>
23.2489

> <b_lp_Chiralities_Consistent>
1

> <s_lp_Variant>
AV-unprocessed.smi:1464-16

> <Gold.Version>
5.8.1

> <Gold.Id.Protein>
6NUR|6NUR_protein|mol2

> <Gold.PLP.Fitness>
38.9194

> <Gold.PLP.PLP>
-30.4650

> <Gold.PLP.part.hbond>
-2.9817

> <Gold.PLP.part.metal>
0.0000

> <Gold.PLP.part.buried>
-1.9384

> <Gold.PLP.part.nonpolar>
-24.8297

> <Gold.PLP.part.repulsive>
0.1566

> <Gold.PLP.ligand.clash>
0.0000

> <Gold.PLP.ligand.torsion>
0.2789

> <Gold.PLP.Chemscore.Hbond>
3.0000

> <Gold.PLP.Chemscore.CHOScore>
0.0000

> <Gold.PLP.Chemscore.Metal>
0.0000

> <Gold.Chemscore.Hbonds>
donor molecule, donor type, donor heavy atom, donor atom, acceptor molecule, acceptor atom, score
      L1  H    14    21       P1  7948  1.00
      P1  H  6896  6909       L1    18  1.00
      P1  H 10752 10763       L1     9  0.98

> <Gold.PLP.Chemscore.Internal.Correction>
0.0122

> <Gold.Rescore>
     Score         DG    S(hbond)    S(metal)    S(lipo)     H(rot)  DE(clash)    DE(int)     intcor
     15.92     -16.70       2.80        0.00      64.75       2.22       0.46       0.32       ----

> <Gold.Chemscore.Fitness>
15.9247

> <Gold.Chemscore.DG>
-16.7033

> <Gold.Chemscore.ZeroCoef>
-5.4800

> <Gold.Chemscore.Hbond>
2.7956

> <Gold.Chemscore.Metal>
0.0000

> <Gold.Chemscore.Lipo>
64.7453

> <Gold.Chemscore.Internal_Hbond>
0.0000

> <Gold.Chemscore.DEClash>
0.4616

> <Gold.Chemscore.DEInternal>
0.3170

> <Gold.Chemscore.Rot>
2.2224

> <Gold.Chemscore.Internal.Correction>
   9.000000E+99

> <Gold.Chemscore.Hbonds>
donor molecule, donor type, donor heavy atom, donor atom, acceptor molecule, acceptor atom, score
      L1  H    14    21       P1  7948  0.25
      P1  H  6896  6909       L1    18  0.90
      P1  H 10752 10763       L1     9  0.89

> <Gold.Chemscore.Hbond.Weighted>
-9.3375

> <Gold.Chemscore.Metal.Weighted>
-0.0000

> <Gold.Chemscore.Lipo.Weighted>
-7.5752

> <Gold.Chemscore.Internal_Hbond.Weighted>
0.0000

> <Gold.Chemscore.DEClash.Weighted>
0.4616

> <Gold.Chemscore.DEInternal.Weighted>
0.3170

> <Gold.Chemscore.Rot.Weighted>
5.6893

> <Gold.Chemscore.Internal.Correction.Weighted>
   9.000000E+99

> <Gold.Protein.RotatedTorsions>
[ 6907 6896 6895 6894 ] final  -50.81 input  -60.11 | X-H torsion
[ 7974 7965 7964 7962 ] final -139.89 input  175.53 | X-H torsion
[ 8008 7997 7996 7995 ] final -146.26 input   59.86 | X-H torsion
[ 10167 10162 10161 10158 ] final  -60.97 input  -65.29 | X-H torsion
[ 10718 10713 10712 10709 ] final  118.76 input   66.30 | X-H torsion
[ 10763 10752 10751 10750 ] final   81.84 input  -60.55 | X-H torsion
[ 11005 11000 10999 10996 ] final  -48.02 input  -57.11 | X-H torsion

> <Gold.Protein.ActiveResidues>
 VAL166  LYS551  ARG553  GLY616  TRP617  ASP618  TYR619  PRO620  LYS621  CYS622 
 ASP623  PHE694  ASN695  SER759  ASP760  ASP761  ALA762  ILE779  LEU786  VAL792 
 PHE793  MET794  SER795  GLU796  ALA797  LYS798  CYS799  TRP800  GLU811  SER814 

> <Gold.Protein.RotatedAtoms>
  150.8671  134.8037  159.7126 H   0  0  0  0  0  0  0  0  0  0  0  0  # atno 6907 bound_to 6896
  152.4689  134.5006  159.9733 H   0  0  0  0  0  0  0  0  0  0  0  0  # atno 6908 bound_to 6896
  151.5100  133.3448  159.2919 H   0  0  0  0  0  0  0  0  0  0  0  0  # atno 6909 bound_to 6896
  144.8640  140.6265  143.5310 H   0  0  0  0  0  0  0  0  0  0  0  0  # atno 7974 bound_to 7965
  155.5564  140.0621  157.2838 H   0  0  0  0  0  0  0  0  0  0  0  0  # atno 8008 bound_to 7997
  154.4404  140.1893  156.0783 H   0  0  0  0  0  0  0  0  0  0  0  0  # atno 8009 bound_to 7997
  156.0478  140.3288  155.7320 H   0  0  0  0  0  0  0  0  0  0  0  0  # atno 8010 bound_to 7997
  140.6036  143.2368  151.5871 H   0  0  0  0  0  0  0  0  0  0  0  0  # atno 10167 bound_to 10162
  157.6008  131.1051  150.7801 H   0  0  0  0  0  0  0  0  0  0  0  0  # atno 10718 bound_to 10713
  153.1151  135.4750  154.9102 H   0  0  0  0  0  0  0  0  0  0  0  0  # atno 10763 bound_to 10752
  154.7520  135.3108  154.8541 H   0  0  0  0  0  0  0  0  0  0  0  0  # atno 10764 bound_to 10752
  153.9120  135.6864  153.4804 H   0  0  0  0  0  0  0  0  0  0  0  0  # atno 10765 bound_to 10752
  141.0676  133.6689  156.3381 H   0  0  0  0  0  0  0  0  0  0  0  0  # atno 11005 bound_to 11000
  145.4257  139.1557  143.4050 LP  0  0  0  0  0  0  0  0  0  0  0  0  # atno 17320 bound_to 7965
  146.2882  140.4370  142.8750 LP  0  0  0  0  0  0  0  0  0  0  0  0  # atno 17321 bound_to 7965
  139.5309  144.2919  152.1145 LP  0  0  0  0  0  0  0  0  0  0  0  0  # atno 17342 bound_to 10162
  140.2105  144.4567  150.6388 LP  0  0  0  0  0  0  0  0  0  0  0  0  # atno 17343 bound_to 10162
  156.8201  130.4981  149.5344 LP  0  0  0  0  0  0  0  0  0  0  0  0  # atno 17370 bound_to 10713
  156.1081  130.6020  151.0003 LP  0  0  0  0  0  0  0  0  0  0  0  0  # atno 17371 bound_to 10713
  140.5741  134.5811  157.5464 LP  0  0  0  0  0  0  0  0  0  0  0  0  # atno 17394 bound_to 11000
  139.9491  134.7648  156.0490 LP  0  0  0  0  0  0  0  0  0  0  0  0  # atno 17395 bound_to 11000

$$$$
