AV-unprocessed.smi:1786|AV-procd|sdf|7202|dock1
  -GOLD-   22720 8443D 1   1.00000     0.00000
 Structure written by MMmdl.
 44 45  0  0  0  0  0  0  0  0  2 V2000
  147.2118  135.4877  154.9599 C   0  0  0  0  0  0  0  0  0  0  0  0
  146.1948  135.6433  153.8116 C   0  0  2  0  0  0  0  0  0  0  0  0
  146.1757  134.3450  152.9750 C   0  0  0  0  0  0  0  0  0  0  0  0
  145.1921  134.4309  151.8040 C   0  0  0  0  0  0  0  0  0  0  0  0
  145.5267  135.6519  150.9451 C   0  0  0  0  0  0  0  0  0  0  0  0
  145.5258  136.9272  151.7998 C   0  0  0  0  0  0  0  0  0  0  0  0
  146.4754  136.8307  152.9421 N   0  3  1  0  0  0  0  0  0  0  0  0
  146.5689  138.1212  153.6783 C   0  0  0  0  0  0  0  0  0  0  0  0
  146.7937  139.3037  152.7179 C   0  0  0  0  0  0  0  0  0  0  0  0
  147.9513  140.0994  153.1077 N   0  0  0  0  0  0  0  0  0  0  0  0
  148.1266  140.6540  154.3166 C   0  0  0  0  0  0  0  0  0  0  0  0
  147.2998  140.5579  155.2247 O   0  0  0  0  0  0  0  0  0  0  0  0
  149.4243  141.4517  154.5104 C   0  0  0  0  0  0  0  0  0  0  0  0
  150.0984  141.1698  155.7888 N   0  0  0  0  0  0  0  0  0  0  0  0
  149.6566  141.8861  156.9191 C   0  0  0  0  0  0  0  0  0  0  0  0
  150.2020  141.7049  158.1323 C   0  0  0  0  0  0  0  0  0  0  0  0
  151.2722  140.7447  158.2631 C   0  0  0  0  0  0  0  0  0  0  0  0
  151.7000  140.0513  157.1892 C   0  0  0  0  0  0  0  0  0  0  0  0
  151.1038  140.2433  155.8619 C   0  0  0  0  0  0  0  0  0  0  0  0
  151.4837  139.6102  154.8763 O   0  0  0  0  0  0  0  0  0  0  0  0
  147.0059  134.5877  155.5397 H   0  0  0  0  0  0  0  0  0  0  0  0
  147.1794  136.3213  155.6606 H   0  0  0  0  0  0  0  0  0  0  0  0
  148.2307  135.4047  154.5801 H   0  0  0  0  0  0  0  0  0  0  0  0
  145.2057  135.7796  154.2526 H   0  0  0  0  0  0  0  0  0  0  0  0
  147.1762  134.1391  152.5910 H   0  0  0  0  0  0  0  0  0  0  0  0
  145.9100  133.4967  153.6067 H   0  0  0  0  0  0  0  0  0  0  0  0
  145.2389  133.5218  151.2034 H   0  0  0  0  0  0  0  0  0  0  0  0
  144.1709  134.5077  152.1797 H   0  0  0  0  0  0  0  0  0  0  0  0
  146.5037  135.5203  150.4781 H   0  0  0  0  0  0  0  0  0  0  0  0
  144.8044  135.7459  150.1335 H   0  0  0  0  0  0  0  0  0  0  0  0
  145.7990  137.7734  151.1677 H   0  0  0  0  0  0  0  0  0  0  0  0
  144.5211  137.1237  152.1781 H   0  0  0  0  0  0  0  0  0  0  0  0
  145.6479  138.3123  154.2313 H   0  0  0  0  0  0  0  0  0  0  0  0
  147.3482  138.0697  154.4395 H   0  0  0  0  0  0  0  0  0  0  0  0
  146.9151  138.9653  151.6888 H   0  0  0  0  0  0  0  0  0  0  0  0
  145.9192  139.9548  152.7242 H   0  0  0  0  0  0  0  0  0  0  0  0
  148.6755  140.2289  152.4153 H   0  0  0  0  0  0  0  0  0  0  0  0
  150.1018  141.2487  153.6786 H   0  0  0  0  0  0  0  0  0  0  0  0
  149.1851  142.5130  154.4302 H   0  0  0  0  0  0  0  0  0  0  0  0
  148.8488  142.5802  156.7385 H   0  0  0  0  0  0  0  0  0  0  0  0
  149.8479  142.2602  158.9885 H   0  0  0  0  0  0  0  0  0  0  0  0
  151.7312  140.5812  159.2270 H   0  0  0  0  0  0  0  0  0  0  0  0
  152.5016  139.3369  157.3062 H   0  0  0  0  0  0  0  0  0  0  0  0
  147.3847  136.6760  152.5305 H   0  0  0  0  0  0  0  0  0  0  0  0
  1  2  1  0  0  0  0
  1 21  1  0  0  0  0
  1 22  1  0  0  0  0
  1 23  1  0  0  0  0
  2  7  1  0  0  0  0
  2  3  1  0  0  0  0
  2 24  1  0  0  0  0
  3  4  1  0  0  0  0
  3 25  1  0  0  0  0
  3 26  1  0  0  0  0
  4  5  1  0  0  0  0
  4 27  1  0  0  0  0
  4 28  1  0  0  0  0
  5  6  1  0  0  0  0
  5 29  1  0  0  0  0
  5 30  1  0  0  0  0
  6  7  1  0  0  0  0
  6 31  1  0  0  0  0
  6 32  1  0  0  0  0
  7  8  1  0  0  0  0
  7 44  1  0  0  0  0
  8  9  1  0  0  0  0
  8 33  1  0  0  0  0
  8 34  1  0  0  0  0
  9 10  1  0  0  0  0
  9 35  1  0  0  0  0
  9 36  1  0  0  0  0
 10 11  1  0  0  0  0
 10 37  1  0  0  0  0
 11 12  2  0  0  0  0
 11 13  1  0  0  0  0
 13 14  1  0  0  0  0
 13 38  1  0  0  0  0
 13 39  1  0  0  0  0
 14 19  1  0  0  0  0
 14 15  1  0  0  0  0
 15 16  2  0  0  0  0
 15 40  1  0  0  0  0
 16 17  1  0  0  0  0
 16 41  1  0  0  0  0
 17 18  2  0  0  0  0
 17 42  1  0  0  0  0
 18 19  1  0  0  0  0
 18 43  1  0  0  0  0
 19 20  2  0  0  0  0
M  CHG  1   7   1
M  END
> <s_m_source_file>
AV-unprocessed.smi

> <i_m_source_file_index>
1786

> <i_lp_mmshare_version>
43012

> <i_f3d_flags>
0

> <s_epik_input>
W0NIM11bQ0BASF0xW0NIMl1bQ0gyXVtDSDJdW0NIMl1OMVtDSDJdW0NIMl1bTkhdQyg9TylbQ0gyXW4yW2NIXVtjSF1bY0hdW2NIXWMyPU8=

> <s_epik_cmdline>
J2VwaWtfcHl0aG9uJywgJy1waCcsICc3LjAnLCAnLXRuJywgJzgnLCAnLW1hJywgJzIwMCcsICctbWV0YWxfYmluZGluZycsICctaW1hZScsICc8aW5maWxlLm1hZT4nLCAnLW9tYWUnLCAnPG91dGZpbGUubWFlPic=

> <r_lp_tautomer_probability>
1

> <r_epik_Ionization_Penalty>
0.00237247

> <r_epik_Ionization_Penalty_Charging>
0.00237238

> <r_epik_Ionization_Penalty_Neutral>
8.2065e-08

> <r_epik_State_Penalty>
0.00163922

> <r_epik_Charging_Adjusted_Penalty>
0.0040116

> <i_epik_Tot_Q>
1

> <i_epik_Tot_abs_Q>
1

> <r_epik_Metal_State_Penalty>
-0

> <b_epik_Metal_Only>
0

> <s_lp_Force_Field>
OPLS_2005

> <r_lp_Energy>
28.1092

> <b_lp_Chiralities_Consistent>
1

> <s_lp_Variant>
AV-unprocessed.smi:1786-1

> <Gold.Version>
5.8.1

> <Gold.Id.Protein>
6NUR|6NUR_protein|mol2

> <Gold.PLP.Fitness>
46.6780

> <Gold.PLP.PLP>
-33.4647

> <Gold.PLP.part.hbond>
-2.9511

> <Gold.PLP.part.metal>
0.0000

> <Gold.PLP.part.buried>
-1.9351

> <Gold.PLP.part.nonpolar>
-28.2881

> <Gold.PLP.part.repulsive>
0.2463

> <Gold.PLP.ligand.clash>
0.0000

> <Gold.PLP.ligand.torsion>
0.9422

> <Gold.PLP.Chemscore.Hbond>
4.0000

> <Gold.PLP.Chemscore.CHOScore>
0.9967

> <Gold.PLP.Chemscore.Metal>
0.0000

> <Gold.Chemscore.Hbonds>
donor molecule, donor type, donor heavy atom, donor atom, acceptor molecule, acceptor atom, score
      L1  H     7    44       P1  7948  2.00
      L1  H    10    37       P1  7957  1.00
      P1  H  7989  7998       L1    20  1.00
      L1  C    15    40       P1  8028  1.00

> <Gold.PLP.Chemscore.Internal.Correction>
0.1076

> <Gold.Rescore>
     Score         DG    S(hbond)    S(metal)    S(lipo)     H(rot)  DE(clash)    DE(int)     intcor
     16.27     -18.02       2.93        0.00      64.19       1.86       0.04       1.71       ----

> <Gold.Chemscore.Fitness>
16.2703

> <Gold.Chemscore.DG>
-18.0211

> <Gold.Chemscore.ZeroCoef>
-5.4800

> <Gold.Chemscore.Hbond>
2.9307

> <Gold.Chemscore.Metal>
0.0000

> <Gold.Chemscore.Lipo>
64.1930

> <Gold.Chemscore.Internal_Hbond>
0.0000

> <Gold.Chemscore.DEClash>
0.0435

> <Gold.Chemscore.DEInternal>
1.7073

> <Gold.Chemscore.Rot>
1.8586

> <Gold.Chemscore.Internal.Correction>
   9.000000E+99

> <Gold.Chemscore.Hbonds>
donor molecule, donor type, donor heavy atom, donor atom, acceptor molecule, acceptor atom, score
      L1  H     7    44       P1  7948  1.00
      L1  H    10    37       P1  7957  0.97
      P1  H  7989  7998       L1    20  0.55

> <Gold.Chemscore.Hbond.Weighted>
-9.7886

> <Gold.Chemscore.Metal.Weighted>
-0.0000

> <Gold.Chemscore.Lipo.Weighted>
-7.5106

> <Gold.Chemscore.Internal_Hbond.Weighted>
0.0000

> <Gold.Chemscore.DEClash.Weighted>
0.0435

> <Gold.Chemscore.DEInternal.Weighted>
1.7073

> <Gold.Chemscore.Rot.Weighted>
4.7581

> <Gold.Chemscore.Internal.Correction.Weighted>
   9.000000E+99

> <Gold.Protein.RotatedTorsions>
[ 6907 6896 6895 6894 ] final  -92.22 input  -60.11 | X-H torsion
[ 7974 7965 7964 7962 ] final  161.67 input  175.53 | X-H torsion
[ 8008 7997 7996 7995 ] final  150.44 input   59.86 | X-H torsion
[ 10167 10162 10161 10158 ] final  115.59 input  -65.29 | X-H torsion
[ 10718 10713 10712 10709 ] final  -95.07 input   66.30 | X-H torsion
[ 10763 10752 10751 10750 ] final  -35.53 input  -60.55 | X-H torsion
[ 11005 11000 10999 10996 ] final -101.51 input  -57.11 | X-H torsion

> <Gold.Protein.ActiveResidues>
 VAL166  LYS551  ARG553  GLY616  TRP617  ASP618  TYR619  PRO620  LYS621  CYS622 
 ASP623  PHE694  ASN695  SER759  ASP760  ASP761  ALA762  ILE779  LEU786  VAL792 
 PHE793  MET794  SER795  GLU796  ALA797  LYS798  CYS799  TRP800  GLU811  SER814 

> <Gold.Protein.RotatedAtoms>
  150.6903  134.2155  159.4375 H   0  0  0  0  0  0  0  0  0  0  0  0  # atno 6907 bound_to 6896
  152.0115  134.9871  160.0577 H   0  0  0  0  0  0  0  0  0  0  0  0  # atno 6908 bound_to 6896
  152.1484  133.4472  159.4838 H   0  0  0  0  0  0  0  0  0  0  0  0  # atno 6909 bound_to 6896
  144.7674  139.7931  143.6310 H   0  0  0  0  0  0  0  0  0  0  0  0  # atno 7974 bound_to 7965
  156.2716  140.2075  156.6017 H   0  0  0  0  0  0  0  0  0  0  0  0  # atno 8008 bound_to 7997
  154.6901  140.0531  157.0378 H   0  0  0  0  0  0  0  0  0  0  0  0  # atno 8009 bound_to 7997
  155.0878  140.3193  155.4585 H   0  0  0  0  0  0  0  0  0  0  0  0  # atno 8010 bound_to 7997
  139.6306  144.7114  151.2440 H   0  0  0  0  0  0  0  0  0  0  0  0  # atno 10167 bound_to 10162
  156.0037  130.5094  150.6022 H   0  0  0  0  0  0  0  0  0  0  0  0  # atno 10718 bound_to 10713
  153.8647  135.6836  153.4779 H   0  0  0  0  0  0  0  0  0  0  0  0  # atno 10763 bound_to 10752
  153.1321  135.4693  154.9363 H   0  0  0  0  0  0  0  0  0  0  0  0  # atno 10764 bound_to 10752
  154.7742  135.3248  154.8076 H   0  0  0  0  0  0  0  0  0  0  0  0  # atno 10765 bound_to 10752
  141.1228  133.8484  157.1241 H   0  0  0  0  0  0  0  0  0  0  0  0  # atno 11005 bound_to 11000
  146.1793  139.4978  142.9877 LP  0  0  0  0  0  0  0  0  0  0  0  0  # atno 17320 bound_to 7965
  145.6428  141.0280  143.1802 LP  0  0  0  0  0  0  0  0  0  0  0  0  # atno 17321 bound_to 7965
  140.7437  143.6487  150.8268 LP  0  0  0  0  0  0  0  0  0  0  0  0  # atno 17342 bound_to 10162
  140.0111  143.5641  152.2838 LP  0  0  0  0  0  0  0  0  0  0  0  0  # atno 17343 bound_to 10162
  157.3869  131.0789  151.1428 LP  0  0  0  0  0  0  0  0  0  0  0  0  # atno 17370 bound_to 10713
  157.2132  130.6447  149.5782 LP  0  0  0  0  0  0  0  0  0  0  0  0  # atno 17371 bound_to 10713
  140.0199  134.9950  157.0570 LP  0  0  0  0  0  0  0  0  0  0  0  0  # atno 17394 bound_to 11000
  140.4457  134.1634  155.7177 LP  0  0  0  0  0  0  0  0  0  0  0  0  # atno 17395 bound_to 11000

$$$$
