AV-unprocessed.smi:2061|AV-procd|sdf|8384|dock10
  -GOLD-   2272011 63D 1   1.00000     0.00000
 Structure written by MMmdl.
 45 46  0  0  0  0  0  0  0  0  3 V2000
  150.9557  141.2190  155.9826 C   0  0  0  0  0  0  0  0  0  0  0  0
  151.3966  139.8778  155.5034 C   0  0  0  0  0  0  0  0  0  0  0  0
  150.7863  138.6559  155.4751 C   0  0  0  0  0  0  0  0  0  0  0  0
  151.7678  137.8161  154.8812 C   0  0  0  0  0  0  0  0  0  0  0  0
  151.6442  136.5003  154.6475 N   0  5  0  0  0  0  0  0  0  0  0  0
  150.6535  135.7924  155.2354 C   0  0  0  0  0  0  0  0  0  0  0  0
  150.7106  135.2151  156.3237 O   0  0  0  0  0  0  0  0  0  0  0  0
  149.5252  135.7443  154.5132 N   0  0  0  0  0  0  0  0  0  0  0  0
  148.3056  135.0348  154.8868 C   0  0  0  0  0  0  0  0  0  0  0  0
  148.0823  133.7389  154.0637 C   0  0  2  0  0  0  0  0  0  0  0  0
  149.4429  133.0956  153.7007 C   0  0  0  0  0  0  0  0  0  0  0  0
  147.2183  134.0322  152.8746 N   0  3  1  0  0  0  0  0  0  0  0  0
  147.0434  132.9176  151.9049 C   0  0  0  0  0  0  0  0  0  0  0  0
  146.2164  133.3695  150.6864 C   0  0  1  0  0  0  0  0  0  0  0  0
  145.9340  132.2098  149.7250 C   0  0  0  0  0  0  0  0  0  0  0  0
  144.9638  133.8924  151.1148 O   0  0  0  0  0  0  0  0  0  0  0  0
  145.0582  134.9804  152.0310 C   0  0  2  0  0  0  0  0  0  0  0  0
  145.5612  136.2733  151.3636 C   0  0  0  0  0  0  0  0  0  0  0  0
  145.8825  134.5605  153.2620 C   0  0  0  0  0  0  0  0  0  0  0  0
  152.8816  138.4672  154.5911 N   0  0  0  0  0  0  0  0  0  0  0  0
  152.6492  139.7917  154.9804 O   0  0  0  0  0  0  0  0  0  0  0  0
  150.5290  141.1501  156.9832 H   0  0  0  0  0  0  0  0  0  0  0  0
  150.1976  141.6344  155.3190 H   0  0  0  0  0  0  0  0  0  0  0  0
  151.7917  141.9179  156.0206 H   0  0  0  0  0  0  0  0  0  0  0  0
  149.7953  138.4029  155.8206 H   0  0  0  0  0  0  0  0  0  0  0  0
  149.5187  136.2356  153.6310 H   0  0  0  0  0  0  0  0  0  0  0  0
  148.3424  134.8406  155.9580 H   0  0  0  0  0  0  0  0  0  0  0  0
  147.4663  135.7142  154.7352 H   0  0  0  0  0  0  0  0  0  0  0  0
  147.5512  133.0132  154.6819 H   0  0  0  0  0  0  0  0  0  0  0  0
  150.0559  132.9223  154.5848 H   0  0  0  0  0  0  0  0  0  0  0  0
  150.0176  133.7315  153.0265 H   0  0  0  0  0  0  0  0  0  0  0  0
  149.3211  132.1186  153.2326 H   0  0  0  0  0  0  0  0  0  0  0  0
  148.0071  132.5741  151.5306 H   0  0  0  0  0  0  0  0  0  0  0  0
  146.5639  132.0729  152.4024 H   0  0  0  0  0  0  0  0  0  0  0  0
  146.7648  134.1347  150.1365 H   0  0  0  0  0  0  0  0  0  0  0  0
  146.8608  131.7789  149.3454 H   0  0  0  0  0  0  0  0  0  0  0  0
  145.3502  132.5475  148.8682 H   0  0  0  0  0  0  0  0  0  0  0  0
  145.3725  131.4155  150.2178 H   0  0  0  0  0  0  0  0  0  0  0  0
  144.0394  135.1769  152.3669 H   0  0  0  0  0  0  0  0  0  0  0  0
  145.4973  137.1137  152.0553 H   0  0  0  0  0  0  0  0  0  0  0  0
  144.9572  136.5204  150.4903 H   0  0  0  0  0  0  0  0  0  0  0  0
  146.6000  136.1990  151.0427 H   0  0  0  0  0  0  0  0  0  0  0  0
  145.3429  133.7864  153.8102 H   0  0  0  0  0  0  0  0  0  0  0  0
  145.9672  135.4098  153.9376 H   0  0  0  0  0  0  0  0  0  0  0  0
  147.6896  134.7663  152.3656 H   0  0  0  0  0  0  0  0  0  0  0  0
  1  2  1  0  0  0  0
  1 22  1  0  0  0  0
  1 23  1  0  0  0  0
  1 24  1  0  0  0  0
  2 21  1  0  0  0  0
  2  3  2  0  0  0  0
  3  4  1  0  0  0  0
  3 25  1  0  0  0  0
  4  5  1  0  0  0  0
  4 20  2  0  0  0  0
  5  6  1  0  0  0  0
  6  7  2  0  0  0  0
  6  8  1  0  0  0  0
  8  9  1  0  0  0  0
  8 26  1  0  0  0  0
  9 10  1  0  0  0  0
  9 27  1  0  0  0  0
  9 28  1  0  0  0  0
 10 11  1  0  0  0  0
 10 12  1  0  0  0  0
 10 29  1  0  0  0  0
 11 30  1  0  0  0  0
 11 31  1  0  0  0  0
 11 32  1  0  0  0  0
 12 19  1  0  0  0  0
 12 13  1  0  0  0  0
 12 45  1  0  0  0  0
 13 14  1  0  0  0  0
 13 33  1  0  0  0  0
 13 34  1  0  0  0  0
 14 15  1  0  0  0  0
 14 16  1  0  0  0  0
 14 35  1  0  0  0  0
 15 36  1  0  0  0  0
 15 37  1  0  0  0  0
 15 38  1  0  0  0  0
 16 17  1  0  0  0  0
 17 18  1  0  0  0  0
 17 19  1  0  0  0  0
 17 39  1  0  0  0  0
 18 40  1  0  0  0  0
 18 41  1  0  0  0  0
 18 42  1  0  0  0  0
 19 43  1  0  0  0  0
 19 44  1  0  0  0  0
 20 21  1  0  0  0  0
M  CHG  1   5  -1
M  CHG  1  12   1
M  END
> <s_m_source_file>
AV-unprocessed.smi

> <i_m_source_file_index>
2061

> <i_lp_mmshare_version>
43012

> <i_f3d_flags>
0

> <s_epik_input>
W0NIM11jMVtjSF1jKG5vMSlbTkhdQyg9TylbTkhdW0NIMl1bQ0BIXShbQ0gzXSlOMltDSDJdW0NAQEhdKFtDSDNdKU9bQ0BASF0oW0NIM10pW0NIMl0y

> <s_epik_cmdline>
J2VwaWtfcHl0aG9uJywgJy1waCcsICc3LjAnLCAnLXRuJywgJzgnLCAnLW1hJywgJzIwMCcsICctbWV0YWxfYmluZGluZycsICctaW1hZScsICc8aW5maWxlLm1hZT4nLCAnLW9tYWUnLCAnPG91dGZpbGUubWFlPic=

> <r_epik_Ionization_Penalty>
6.73511

> <r_epik_Ionization_Penalty_Charging>
6.73502

> <r_epik_Ionization_Penalty_Neutral>
9.50841e-05

> <r_epik_State_Penalty>
6.93549

> <r_epik_Charging_Adjusted_Penalty>
13.6705

> <i_epik_Tot_Q>
0

> <i_epik_Tot_abs_Q>
2

> <r_epik_Metal_State_Penalty>
2.87211

> <b_epik_Metal_Only>
1

> <s_lp_Force_Field>
OPLS_2005

> <r_lp_Energy>
11.3742

> <b_lp_Chiralities_Consistent>
1

> <s_lp_Variant>
AV-unprocessed.smi:2061-25

> <Gold.Version>
5.8.1

> <Gold.Id.Protein>
6NUR|6NUR_protein|mol2

> <Gold.PLP.Fitness>
52.2872

> <Gold.PLP.PLP>
-36.8921

> <Gold.PLP.part.hbond>
-5.1443

> <Gold.PLP.part.metal>
0.0000

> <Gold.PLP.part.buried>
-5.6635

> <Gold.PLP.part.nonpolar>
-27.5326

> <Gold.PLP.part.repulsive>
0.3485

> <Gold.PLP.ligand.clash>
0.0000

> <Gold.PLP.ligand.torsion>
1.3101

> <Gold.PLP.Chemscore.Hbond>
5.9760

> <Gold.PLP.Chemscore.CHOScore>
0.0000

> <Gold.PLP.Chemscore.Metal>
0.0000

> <Gold.Chemscore.Hbonds>
donor molecule, donor type, donor heavy atom, donor atom, acceptor molecule, acceptor atom, score
      L1  H     8    26       P1  7948  0.93
      L1  H    12    45       P1  7948  2.00
      P1  H  7997  8009       L1    21  0.85
      P1  H 10752 10764       L1     5  2.00

> <Gold.PLP.Chemscore.Internal.Correction>
0.0873

> <Gold.Rescore>
     Score         DG    S(hbond)    S(metal)    S(lipo)     H(rot)  DE(clash)    DE(int)     intcor
     18.78     -20.18       3.18        0.00      68.82       1.56       0.01       1.39       ----

> <Gold.Chemscore.Fitness>
18.7784

> <Gold.Chemscore.DG>
-20.1760

> <Gold.Chemscore.ZeroCoef>
-5.4800

> <Gold.Chemscore.Hbond>
3.1810

> <Gold.Chemscore.Metal>
0.0000

> <Gold.Chemscore.Lipo>
68.8243

> <Gold.Chemscore.Internal_Hbond>
0.0000

> <Gold.Chemscore.DEClash>
0.0124

> <Gold.Chemscore.DEInternal>
1.3852

> <Gold.Chemscore.Rot>
1.5550

> <Gold.Chemscore.Internal.Correction>
   9.000000E+99

> <Gold.Chemscore.Hbonds>
donor molecule, donor type, donor heavy atom, donor atom, acceptor molecule, acceptor atom, score
      L1  H     8    26       P1  7948  0.55
      L1  H    12    45       P1  7948  0.81
      P1  H  7997  8009       L1    21  0.19
      P1  H 10752 10764       L1     5  0.74

> <Gold.Chemscore.Hbond.Weighted>
-10.6244

> <Gold.Chemscore.Metal.Weighted>
-0.0000

> <Gold.Chemscore.Lipo.Weighted>
-8.0524

> <Gold.Chemscore.Internal_Hbond.Weighted>
0.0000

> <Gold.Chemscore.DEClash.Weighted>
0.0124

> <Gold.Chemscore.DEInternal.Weighted>
1.3852

> <Gold.Chemscore.Rot.Weighted>
3.9809

> <Gold.Chemscore.Internal.Correction.Weighted>
   9.000000E+99

> <Gold.Protein.RotatedTorsions>
[ 6907 6896 6895 6894 ] final   29.34 input  -60.11 | X-H torsion
[ 7974 7965 7964 7962 ] final  -68.51 input  175.53 | X-H torsion
[ 8008 7997 7996 7995 ] final -128.59 input   59.86 | X-H torsion
[ 10167 10162 10161 10158 ] final  104.15 input  -65.29 | X-H torsion
[ 10718 10713 10712 10709 ] final   57.34 input   66.30 | X-H torsion
[ 10763 10752 10751 10750 ] final  -65.86 input  -60.55 | X-H torsion
[ 11005 11000 10999 10996 ] final  152.07 input  -57.11 | X-H torsion

> <Gold.Protein.ActiveResidues>
 VAL166  LYS551  ARG553  GLY616  TRP617  ASP618  TYR619  PRO620  LYS621  CYS622 
 ASP623  PHE694  ASN695  SER759  ASP760  ASP761  ALA762  ILE779  LEU786  VAL792 
 PHE793  MET794  SER795  GLU796  ALA797  LYS798  CYS799  TRP800  GLU811  SER814 

> <Gold.Protein.RotatedAtoms>
  152.0301  134.9773  160.0572 H   0  0  0  0  0  0  0  0  0  0  0  0  # atno 6907 bound_to 6896
  152.1253  133.4372  159.4703 H   0  0  0  0  0  0  0  0  0  0  0  0  # atno 6908 bound_to 6896
  150.6852  134.2404  159.4513 H   0  0  0  0  0  0  0  0  0  0  0  0  # atno 6909 bound_to 6896
  145.7156  140.9060  143.0657 H   0  0  0  0  0  0  0  0  0  0  0  0  # atno 7974 bound_to 7965
  155.2651  140.0437  157.3001 H   0  0  0  0  0  0  0  0  0  0  0  0  # atno 8008 bound_to 7997
  154.5687  140.2367  155.8193 H   0  0  0  0  0  0  0  0  0  0  0  0  # atno 8009 bound_to 7997
  156.2105  140.3000  155.9730 H   0  0  0  0  0  0  0  0  0  0  0  0  # atno 8010 bound_to 7997
  139.7201  144.7060  151.0886 H   0  0  0  0  0  0  0  0  0  0  0  0  # atno 10167 bound_to 10162
  157.5506  130.8763  149.8957 H   0  0  0  0  0  0  0  0  0  0  0  0  # atno 10718 bound_to 10713
  154.3513  135.6136  153.5644 H   0  0  0  0  0  0  0  0  0  0  0  0  # atno 10763 bound_to 10752
  152.9798  135.5793  154.4740 H   0  0  0  0  0  0  0  0  0  0  0  0  # atno 10764 bound_to 10752
  154.4462  135.2851  155.1791 H   0  0  0  0  0  0  0  0  0  0  0  0  # atno 10765 bound_to 10752
  140.1275  134.8823  157.2158 H   0  0  0  0  0  0  0  0  0  0  0  0  # atno 11005 bound_to 11000
  144.6930  139.9133  143.7464 LP  0  0  0  0  0  0  0  0  0  0  0  0  # atno 17320 bound_to 7965
  146.0673  139.3663  143.0545 LP  0  0  0  0  0  0  0  0  0  0  0  0  # atno 17321 bound_to 7965
  140.7752  143.5177  150.9575 LP  0  0  0  0  0  0  0  0  0  0  0  0  # atno 17342 bound_to 10162
  139.8864  143.7008  152.3151 LP  0  0  0  0  0  0  0  0  0  0  0  0  # atno 17343 bound_to 10162
  156.0573  130.3706  150.1061 LP  0  0  0  0  0  0  0  0  0  0  0  0  # atno 17370 bound_to 10713
  156.9234  130.9690  151.3545 LP  0  0  0  0  0  0  0  0  0  0  0  0  # atno 17371 bound_to 10713
  140.2885  134.3268  155.7322 LP  0  0  0  0  0  0  0  0  0  0  0  0  # atno 17394 bound_to 11000
  141.2164  133.7520  156.9468 LP  0  0  0  0  0  0  0  0  0  0  0  0  # atno 17395 bound_to 11000

$$$$
