AV-unprocessed.smi:573|AV-procd|sdf|2974|dock7
  -GOLD-   2262023483D 1   1.00000     0.00000
 Structure written by MMmdl.
 44 46  0  0  0  0  0  0  0  0  1 V2000
  147.7137  145.7064  161.4848 C   0  0  0  0  0  0  0  0  0  0  0  0
  148.4854  144.6654  160.6636 C   0  0  1  0  0  0  0  0  0  0  0  0
  147.6176  144.2045  159.6493 O   0  0  0  0  0  0  0  0  0  0  0  0
  149.7432  145.2680  160.0133 C   0  0  0  0  0  0  0  0  0  0  0  0
  150.5837  144.2579  159.3951 N   0  0  0  0  0  0  0  0  0  0  0  0
  151.5567  143.4052  159.9034 C   0  0  0  0  0  0  0  0  0  0  0  0
  151.9195  143.3674  161.1840 N   0  0  0  0  0  0  0  0  0  0  0  0
  152.8860  142.3792  161.1861 C   0  0  0  0  0  0  0  0  0  0  0  0
  153.6635  141.8591  162.2455 C   0  0  0  0  0  0  0  0  0  0  0  0
  154.6002  140.8322  162.0064 C   0  0  0  0  0  0  0  0  0  0  0  0
  154.7719  140.3106  160.7078 C   0  0  0  0  0  0  0  0  0  0  0  0
  154.0094  140.8156  159.6369 C   0  0  0  0  0  0  0  0  0  0  0  0
  153.0777  141.8425  159.8795 C   0  0  0  0  0  0  0  0  0  0  0  0
  152.1915  142.5475  159.0702 N   0  0  0  0  0  0  0  0  0  0  0  0
  151.9999  142.3770  157.6366 C   0  0  0  0  0  0  0  0  0  0  0  0
  151.2785  141.0608  157.3040 C   0  0  1  0  0  0  0  0  0  0  0  0
  150.3478  141.2075  156.0854 C   0  0  0  0  0  0  0  0  0  0  0  0
  149.7031  139.8620  155.7343 C   0  0  0  0  0  0  0  0  0  0  0  0
  150.7912  138.7954  155.5715 C   0  0  0  0  0  0  0  0  0  0  0  0
  151.6999  138.7662  156.8105 C   0  0  0  0  0  0  0  0  0  0  0  0
  152.2566  140.0575  157.0345 O   0  0  0  0  0  0  0  0  0  0  0  0
  148.3259  146.0951  162.2990 H   0  0  0  0  0  0  0  0  0  0  0  0
  146.8163  145.2724  161.9273 H   0  0  0  0  0  0  0  0  0  0  0  0
  147.4062  146.5519  160.8682 H   0  0  0  0  0  0  0  0  0  0  0  0
  148.7547  143.8315  161.3136 H   0  0  0  0  0  0  0  0  0  0  0  0
  147.7458  144.7415  158.8815 H   0  0  0  0  0  0  0  0  0  0  0  0
  149.4826  146.0391  159.2873 H   0  0  0  0  0  0  0  0  0  0  0  0
  150.3516  145.7528  160.7772 H   0  0  0  0  0  0  0  0  0  0  0  0
  150.4348  144.1695  158.4004 H   0  0  0  0  0  0  0  0  0  0  0  0
  153.5379  142.2501  163.2443 H   0  0  0  0  0  0  0  0  0  0  0  0
  155.1886  140.4418  162.8238 H   0  0  0  0  0  0  0  0  0  0  0  0
  155.4893  139.5219  160.5340 H   0  0  0  0  0  0  0  0  0  0  0  0
  154.1366  140.4160  158.6417 H   0  0  0  0  0  0  0  0  0  0  0  0
  151.4420  143.2298  157.2487 H   0  0  0  0  0  0  0  0  0  0  0  0
  152.9755  142.4051  157.1500 H   0  0  0  0  0  0  0  0  0  0  0  0
  150.6902  140.7554  158.1714 H   0  0  0  0  0  0  0  0  0  0  0  0
  149.5742  141.9491  156.2865 H   0  0  0  0  0  0  0  0  0  0  0  0
  150.9168  141.5725  155.2293 H   0  0  0  0  0  0  0  0  0  0  0  0
  149.0140  139.5665  156.5266 H   0  0  0  0  0  0  0  0  0  0  0  0
  149.1136  139.9486  154.8212 H   0  0  0  0  0  0  0  0  0  0  0  0
  150.3398  137.8162  155.4098 H   0  0  0  0  0  0  0  0  0  0  0  0
  151.3899  139.0148  154.6866 H   0  0  0  0  0  0  0  0  0  0  0  0
  151.1465  138.4390  157.6921 H   0  0  0  0  0  0  0  0  0  0  0  0
  152.5119  138.0543  156.6624 H   0  0  0  0  0  0  0  0  0  0  0  0
  1  2  1  0  0  0  0
  1 22  1  0  0  0  0
  1 23  1  0  0  0  0
  1 24  1  0  0  0  0
  2  3  1  0  0  0  0
  2  4  1  0  0  0  0
  2 25  1  0  0  0  0
  3 26  1  0  0  0  0
  4  5  1  0  0  0  0
  4 27  1  0  0  0  0
  4 28  1  0  0  0  0
  5  6  1  0  0  0  0
  5 29  1  0  0  0  0
  6 14  1  0  0  0  0
  6  7  2  0  0  0  0
  7  8  1  0  0  0  0
  8 13  2  0  0  0  0
  8  9  1  0  0  0  0
  9 10  2  0  0  0  0
  9 30  1  0  0  0  0
 10 11  1  0  0  0  0
 10 31  1  0  0  0  0
 11 12  2  0  0  0  0
 11 32  1  0  0  0  0
 12 13  1  0  0  0  0
 12 33  1  0  0  0  0
 13 14  1  0  0  0  0
 14 15  1  0  0  0  0
 15 16  1  0  0  0  0
 15 34  1  0  0  0  0
 15 35  1  0  0  0  0
 16 21  1  0  0  0  0
 16 17  1  0  0  0  0
 16 36  1  0  0  0  0
 17 18  1  0  0  0  0
 17 37  1  0  0  0  0
 17 38  1  0  0  0  0
 18 19  1  0  0  0  0
 18 39  1  0  0  0  0
 18 40  1  0  0  0  0
 19 20  1  0  0  0  0
 19 41  1  0  0  0  0
 19 42  1  0  0  0  0
 20 21  1  0  0  0  0
 20 43  1  0  0  0  0
 20 44  1  0  0  0  0
M  END
> <s_m_source_file>
AV-unprocessed.smi

> <i_m_source_file_index>
573

> <i_lp_mmshare_version>
43012

> <i_f3d_flags>
0

> <s_epik_input>
W0NIM11bQ0BIXShbT0hdKVtDSDJdW05IXWMobjEpbihjKGMxMilbY0hdW2NIXVtjSF1bY0hdMilbQ0gyXVtDQEBIXTNbQ0gyXVtDSDJdW0NIMl1bQ0gyXU8z

> <s_epik_cmdline>
J2VwaWtfcHl0aG9uJywgJy1waCcsICc3LjAnLCAnLXRuJywgJzgnLCAnLW1hJywgJzIwMCcsICctbWV0YWxfYmluZGluZycsICctaW1hZScsICc8aW5maWxlLm1hZT4nLCAnLW9tYWUnLCAnPG91dGZpbGUubWFlPic=

> <r_epik_Ionization_Penalty>
1.30635

> <r_epik_Ionization_Penalty_Charging>
0

> <r_epik_Ionization_Penalty_Neutral>
1.30635

> <r_epik_State_Penalty>
1.38073

> <r_epik_Charging_Adjusted_Penalty>
1.38073

> <i_epik_Tot_Q>
0

> <i_epik_Tot_abs_Q>
0

> <r_epik_Metal_State_Penalty>
0.00547412

> <b_epik_Metal_Only>
0

> <s_lp_Force_Field>
OPLS_2005

> <r_lp_Energy>
9.01344

> <b_lp_Chiralities_Consistent>
1

> <s_lp_Variant>
AV-unprocessed.smi:573-8

> <Gold.Version>
5.8.1

> <Gold.Id.Protein>
6NUR|6NUR_protein|mol2

> <Gold.PLP.Fitness>
47.1227

> <Gold.PLP.PLP>
-42.6971

> <Gold.PLP.part.hbond>
-2.0349

> <Gold.PLP.part.metal>
0.0000

> <Gold.PLP.part.buried>
-3.5346

> <Gold.PLP.part.nonpolar>
-35.5587

> <Gold.PLP.part.repulsive>
0.2443

> <Gold.PLP.ligand.clash>
0.0000

> <Gold.PLP.ligand.torsion>
0.7922

> <Gold.PLP.Chemscore.Hbond>
2.0000

> <Gold.PLP.Chemscore.CHOScore>
0.0000

> <Gold.PLP.Chemscore.Metal>
0.0000

> <Gold.Chemscore.Hbonds>
donor molecule, donor type, donor heavy atom, donor atom, acceptor molecule, acceptor atom, score
      L1  H     3    26       P1  8029  1.00
      P1  H  7997  8010       L1    21  0.68

> <Gold.PLP.Chemscore.Internal.Correction>
0.0101

> <Gold.Rescore>
     Score         DG    S(hbond)    S(metal)    S(lipo)     H(rot)  DE(clash)    DE(int)     intcor
     17.77     -20.09       1.75        0.00     119.21       2.02       1.54       0.78       ----

> <Gold.Chemscore.Fitness>
17.7682

> <Gold.Chemscore.DG>
-20.0903

> <Gold.Chemscore.ZeroCoef>
-5.4800

> <Gold.Chemscore.Hbond>
1.7486

> <Gold.Chemscore.Metal>
0.0000

> <Gold.Chemscore.Lipo>
119.2083

> <Gold.Chemscore.Internal_Hbond>
0.0000

> <Gold.Chemscore.DEClash>
1.5407

> <Gold.Chemscore.DEInternal>
0.7813

> <Gold.Chemscore.Rot>
2.0224

> <Gold.Chemscore.Internal.Correction>
   9.000000E+99

> <Gold.Chemscore.Hbonds>
donor molecule, donor type, donor heavy atom, donor atom, acceptor molecule, acceptor atom, score
      L1  H     3    26       P1  8029  0.95
      P1  H  7997  8010       L1    21  0.53

> <Gold.Chemscore.Hbond.Weighted>
-5.8402

> <Gold.Chemscore.Metal.Weighted>
-0.0000

> <Gold.Chemscore.Lipo.Weighted>
-13.9474

> <Gold.Chemscore.Internal_Hbond.Weighted>
0.0000

> <Gold.Chemscore.DEClash.Weighted>
1.5407

> <Gold.Chemscore.DEInternal.Weighted>
0.7813

> <Gold.Chemscore.Rot.Weighted>
5.1773

> <Gold.Chemscore.Internal.Correction.Weighted>
   9.000000E+99

> <Gold.Protein.RotatedTorsions>
[ 6907 6896 6895 6894 ] final -131.18 input  -60.11 | X-H torsion
[ 7974 7965 7964 7962 ] final  113.99 input  175.53 | X-H torsion
[ 8008 7997 7996 7995 ] final   69.70 input   59.86 | X-H torsion
[ 10167 10162 10161 10158 ] final  -38.18 input  -65.29 | X-H torsion
[ 10718 10713 10712 10709 ] final   67.29 input   66.30 | X-H torsion
[ 10763 10752 10751 10750 ] final  136.49 input  -60.55 | X-H torsion
[ 11005 11000 10999 10996 ] final -165.76 input  -57.11 | X-H torsion

> <Gold.Protein.ActiveResidues>
 VAL166  LYS551  ARG553  GLY616  TRP617  ASP618  TYR619  PRO620  LYS621  CYS622 
 ASP623  PHE694  ASN695  SER759  ASP760  ASP761  ALA762  ILE779  LEU786  VAL792 
 PHE793  MET794  SER795  GLU796  ALA797  LYS798  CYS799  TRP800  GLU811  SER814 

> <Gold.Protein.RotatedAtoms>
  150.9481  133.6581  159.2777 H   0  0  0  0  0  0  0  0  0  0  0  0  # atno 6907 bound_to 6896
  151.3946  135.0960  159.9546 H   0  0  0  0  0  0  0  0  0  0  0  0  # atno 6908 bound_to 6896
  152.5098  133.8988  159.7485 H   0  0  0  0  0  0  0  0  0  0  0  0  # atno 6909 bound_to 6896
  145.2100  139.2911  143.4273 H   0  0  0  0  0  0  0  0  0  0  0  0  # atno 7974 bound_to 7965
  155.7277  140.3492  155.5045 H   0  0  0  0  0  0  0  0  0  0  0  0  # atno 8008 bound_to 7997
  155.9212  140.1067  157.1227 H   0  0  0  0  0  0  0  0  0  0  0  0  # atno 8009 bound_to 7997
  154.4070  140.1249  156.4668 H   0  0  0  0  0  0  0  0  0  0  0  0  # atno 8010 bound_to 7997
  140.7099  143.3293  151.2605 H   0  0  0  0  0  0  0  0  0  0  0  0  # atno 10167 bound_to 10162
  157.6221  130.9313  150.0222 H   0  0  0  0  0  0  0  0  0  0  0  0  # atno 10718 bound_to 10713
  153.8574  135.3071  155.3436 H   0  0  0  0  0  0  0  0  0  0  0  0  # atno 10763 bound_to 10752
  154.7864  135.4807  153.9959 H   0  0  0  0  0  0  0  0  0  0  0  0  # atno 10764 bound_to 10752
  153.1482  135.6838  153.9016 H   0  0  0  0  0  0  0  0  0  0  0  0  # atno 10765 bound_to 10752
  140.5721  134.5227  157.5163 H   0  0  0  0  0  0  0  0  0  0  0  0  # atno 11005 bound_to 11000
  146.3399  140.2373  142.8595 LP  0  0  0  0  0  0  0  0  0  0  0  0  # atno 17320 bound_to 7965
  144.9865  140.8507  143.5365 LP  0  0  0  0  0  0  0  0  0  0  0  0  # atno 17321 bound_to 7965
  139.6771  143.9919  152.2787 LP  0  0  0  0  0  0  0  0  0  0  0  0  # atno 17342 bound_to 10162
  139.9536  144.6604  150.8147 LP  0  0  0  0  0  0  0  0  0  0  0  0  # atno 17343 bound_to 10162
  156.1372  130.3642  149.9638 LP  0  0  0  0  0  0  0  0  0  0  0  0  # atno 17370 bound_to 10713
  156.7686  130.9178  151.3643 LP  0  0  0  0  0  0  0  0  0  0  0  0  # atno 17371 bound_to 10713
  139.9357  134.7880  156.0810 LP  0  0  0  0  0  0  0  0  0  0  0  0  # atno 17394 bound_to 11000
  141.1049  133.6663  156.2841 LP  0  0  0  0  0  0  0  0  0  0  0  0  # atno 17395 bound_to 11000

$$$$
