AV-unprocessed.smi:2243|AV-procd|sdf|9071|dock4
  -GOLD-   2272012273D 1   1.00000     0.00000
 Structure written by MMmdl.
 33 34  0  0  0  0  0  0  0  0  2 V2000
  151.7766  138.1637  158.7726 C   0  0  0  0  0  0  0  0  0  0  0  0
  150.4674  137.6969  158.1131 C   0  0  1  0  0  0  0  0  0  0  0  0
  149.4203  137.7169  159.1370 N   0  0  0  0  0  0  0  0  0  0  0  0
  148.8222  136.6561  159.7016 C   0  0  0  0  0  0  0  0  0  0  0  0
  149.1286  135.5136  159.3533 O   0  0  0  0  0  0  0  0  0  0  0  0
  147.8983  136.9871  160.6316 N   0  5  0  0  0  0  0  0  0  0  0  0
  147.2721  136.0221  161.3245 C   0  0  0  0  0  0  0  0  0  0  0  0
  146.2372  136.1853  162.1505 N   0  0  0  0  0  0  0  0  0  0  0  0
  145.9307  134.9206  162.6284 C   0  0  0  0  0  0  0  0  0  0  0  0
  146.8006  134.0333  162.0561 C   0  0  0  0  0  0  0  0  0  0  0  0
  147.6487  134.7154  161.2282 O   0  0  0  0  0  0  0  0  0  0  0  0
  150.0572  138.5593  156.8885 C   0  0  0  0  0  0  0  0  0  0  0  0
  150.7818  138.1401  155.5915 C   0  0  0  0  0  0  0  0  0  0  0  0
  150.4048  139.0576  154.4177 C   0  0  0  0  0  0  0  0  0  0  0  0
  150.7052  140.4099  154.7400 O   0  0  0  0  0  0  0  0  0  0  0  0
  149.9631  140.8829  155.8568 C   0  0  0  0  0  0  0  0  0  0  0  0
  150.3128  140.0643  157.1105 C   0  0  0  0  0  0  0  0  0  0  0  0
  152.6317  138.0401  158.1090 H   0  0  0  0  0  0  0  0  0  0  0  0
  151.9884  137.5825  159.6709 H   0  0  0  0  0  0  0  0  0  0  0  0
  151.7235  139.2135  159.0625 H   0  0  0  0  0  0  0  0  0  0  0  0
  150.6289  136.6737  157.7700 H   0  0  0  0  0  0  0  0  0  0  0  0
  149.1266  138.6274  159.4589 H   0  0  0  0  0  0  0  0  0  0  0  0
  145.1263  134.7539  163.3293 H   0  0  0  0  0  0  0  0  0  0  0  0
  146.9405  132.9651  162.1241 H   0  0  0  0  0  0  0  0  0  0  0  0
  148.9865  138.4237  156.7265 H   0  0  0  0  0  0  0  0  0  0  0  0
  151.8613  138.1728  155.7448 H   0  0  0  0  0  0  0  0  0  0  0  0
  150.5370  137.1119  155.3248 H   0  0  0  0  0  0  0  0  0  0  0  0
  150.9670  138.7756  153.5273 H   0  0  0  0  0  0  0  0  0  0  0  0
  149.3470  138.9568  154.1699 H   0  0  0  0  0  0  0  0  0  0  0  0
  150.2043  141.9337  156.0178 H   0  0  0  0  0  0  0  0  0  0  0  0
  148.8939  140.8321  155.6454 H   0  0  0  0  0  0  0  0  0  0  0  0
  149.7222  140.4382  157.9462 H   0  0  0  0  0  0  0  0  0  0  0  0
  151.3600  140.2274  157.3688 H   0  0  0  0  0  0  0  0  0  0  0  0
  1  2  1  0  0  0  0
  1 18  1  0  0  0  0
  1 19  1  0  0  0  0
  1 20  1  0  0  0  0
  2  3  1  0  0  0  0
  2 12  1  0  0  0  0
  2 21  1  0  0  0  0
  3 22  1  0  0  0  0
  3  4  1  0  0  0  0
  4  6  1  0  0  0  0
  4  5  2  0  0  0  0
  6  7  1  0  0  0  0
  7 11  1  0  0  0  0
  7  8  2  0  0  0  0
  8  9  1  0  0  0  0
  9 23  1  0  0  0  0
  9 10  2  0  0  0  0
 10 24  1  0  0  0  0
 10 11  1  0  0  0  0
 12 17  1  0  0  0  0
 12 13  1  0  0  0  0
 12 25  1  0  0  0  0
 13 14  1  0  0  0  0
 13 26  1  0  0  0  0
 13 27  1  0  0  0  0
 14 15  1  0  0  0  0
 14 28  1  0  0  0  0
 14 29  1  0  0  0  0
 15 16  1  0  0  0  0
 16 17  1  0  0  0  0
 16 30  1  0  0  0  0
 16 31  1  0  0  0  0
 17 32  1  0  0  0  0
 17 33  1  0  0  0  0
M  CHG  1   6  -1
M  END
> <s_m_source_file>
AV-unprocessed.smi

> <i_m_source_file_index>
2243

> <i_lp_mmshare_version>
43012

> <i_f3d_flags>
0

> <s_epik_input>
W0NIMl0xW0NIMl1PW0NIMl1bQ0gyXVtDSF0xW0NASF0oW0NIM10pW05IXUMoPU8pW05IXWMybltjSF1bY0hdbzI=

> <s_epik_cmdline>
J2VwaWtfcHl0aG9uJywgJy1waCcsICc3LjAnLCAnLXRuJywgJzgnLCAnLW1hJywgJzIwMCcsICctbWV0YWxfYmluZGluZycsICctaW1hZScsICc8aW5maWxlLm1hZT4nLCAnLW9tYWUnLCAnPG91dGZpbGUubWFlPic=

> <r_lp_tautomer_probability>
0.107061

> <r_epik_Ionization_Penalty>
11.1403

> <r_epik_Ionization_Penalty_Charging>
7.81312

> <r_epik_Ionization_Penalty_Neutral>
3.32719

> <r_epik_State_Penalty>
5.94317

> <r_epik_Charging_Adjusted_Penalty>
13.7563

> <i_epik_Tot_Q>
-1

> <i_epik_Tot_abs_Q>
1

> <r_epik_Metal_State_Penalty>
1.86619

> <b_epik_Metal_Only>
1

> <s_lp_Force_Field>
OPLS_2005

> <r_lp_Energy>
6.4903

> <b_lp_Chiralities_Consistent>
1

> <s_lp_Variant>
AV-unprocessed.smi:2243-10

> <Gold.Version>
5.8.1

> <Gold.Id.Protein>
6NUR|6NUR_protein|mol2

> <Gold.PLP.Fitness>
40.8826

> <Gold.PLP.PLP>
-26.0253

> <Gold.PLP.part.hbond>
-4.0000

> <Gold.PLP.part.metal>
0.0000

> <Gold.PLP.part.buried>
-4.5638

> <Gold.PLP.part.nonpolar>
-18.5763

> <Gold.PLP.part.repulsive>
0.5138

> <Gold.PLP.ligand.clash>
0.0000

> <Gold.PLP.ligand.torsion>
0.5239

> <Gold.PLP.Chemscore.Hbond>
5.2960

> <Gold.PLP.Chemscore.CHOScore>
0.0000

> <Gold.PLP.Chemscore.Metal>
0.0000

> <Gold.Chemscore.Hbonds>
donor molecule, donor type, donor heavy atom, donor atom, acceptor molecule, acceptor atom, score
      P1  H  6896  6907       L1     5  1.00
      P1  H  6931  6943       L1     6  1.37
      P1  H  6934  6947       L1     6  1.10
      P1  H  7989  7998       L1    15  1.00

> <Gold.PLP.Chemscore.Internal.Correction>
0.0171

> <Gold.Rescore>
     Score         DG    S(hbond)    S(metal)    S(lipo)     H(rot)  DE(clash)    DE(int)     intcor
     15.02     -17.39       2.81        0.00      50.24       1.31       0.01       2.36       ----

> <Gold.Chemscore.Fitness>
15.0220

> <Gold.Chemscore.DG>
-17.3928

> <Gold.Chemscore.ZeroCoef>
-5.4800

> <Gold.Chemscore.Hbond>
2.8080

> <Gold.Chemscore.Metal>
0.0000

> <Gold.Chemscore.Lipo>
50.2416

> <Gold.Chemscore.Internal_Hbond>
0.0000

> <Gold.Chemscore.DEClash>
0.0089

> <Gold.Chemscore.DEInternal>
2.3619

> <Gold.Chemscore.Rot>
1.3063

> <Gold.Chemscore.Internal.Correction>
   9.000000E+99

> <Gold.Chemscore.Hbonds>
donor molecule, donor type, donor heavy atom, donor atom, acceptor molecule, acceptor atom, score
      P1  H  6896  6907       L1     5  1.00
      P1  H  6931  6943       L1     6  0.16
      P1  H  6934  6947       L1     6  0.51
      P1  H  7989  7998       L1    15  0.39

> <Gold.Chemscore.Hbond.Weighted>
-9.3788

> <Gold.Chemscore.Metal.Weighted>
-0.0000

> <Gold.Chemscore.Lipo.Weighted>
-5.8783

> <Gold.Chemscore.Internal_Hbond.Weighted>
0.0000

> <Gold.Chemscore.DEClash.Weighted>
0.0089

> <Gold.Chemscore.DEInternal.Weighted>
2.3619

> <Gold.Chemscore.Rot.Weighted>
3.3443

> <Gold.Chemscore.Internal.Correction.Weighted>
   9.000000E+99

> <Gold.Protein.RotatedTorsions>
[ 6907 6896 6895 6894 ] final  -59.45 input  -60.11 | X-H torsion
[ 7974 7965 7964 7962 ] final  -62.95 input  175.53 | X-H torsion
[ 8008 7997 7996 7995 ] final -119.65 input   59.86 | X-H torsion
[ 10167 10162 10161 10158 ] final -106.78 input  -65.29 | X-H torsion
[ 10718 10713 10712 10709 ] final   -5.99 input   66.30 | X-H torsion
[ 10763 10752 10751 10750 ] final  150.00 input  -60.55 | X-H torsion
[ 11005 11000 10999 10996 ] final  -87.84 input  -57.11 | X-H torsion

> <Gold.Protein.ActiveResidues>
 VAL166  LYS551  ARG553  GLY616  TRP617  ASP618  TYR619  PRO620  LYS621  CYS622 
 ASP623  PHE694  ASN695  SER759  ASP760  ASP761  ALA762  ILE779  LEU786  VAL792 
 PHE793  MET794  SER795  GLU796  ALA797  LYS798  CYS799  TRP800  GLU811  SER814 

> <Gold.Protein.RotatedAtoms>
  150.7929  134.6967  159.6526 H   0  0  0  0  0  0  0  0  0  0  0  0  # atno 6907 bound_to 6896
  152.4037  134.6239  160.0068 H   0  0  0  0  0  0  0  0  0  0  0  0  # atno 6908 bound_to 6896
  151.6503  133.3284  159.3186 H   0  0  0  0  0  0  0  0  0  0  0  0  # atno 6909 bound_to 6896
  145.7850  140.8741  143.0310 H   0  0  0  0  0  0  0  0  0  0  0  0  # atno 7974 bound_to 7965
  155.1192  140.0398  157.2745 H   0  0  0  0  0  0  0  0  0  0  0  0  # atno 8008 bound_to 7997
  154.6626  140.2594  155.7066 H   0  0  0  0  0  0  0  0  0  0  0  0  # atno 8009 bound_to 7997
  156.2625  140.2814  156.1105 H   0  0  0  0  0  0  0  0  0  0  0  0  # atno 8010 bound_to 7997
  140.1840  143.3944  152.1259 H   0  0  0  0  0  0  0  0  0  0  0  0  # atno 10167 bound_to 10162
  156.7384  130.5202  149.5829 H   0  0  0  0  0  0  0  0  0  0  0  0  # atno 10718 bound_to 10713
  154.0803  135.2860  155.3291 H   0  0  0  0  0  0  0  0  0  0  0  0  # atno 10763 bound_to 10752
  154.6688  135.5307  153.8115 H   0  0  0  0  0  0  0  0  0  0  0  0  # atno 10764 bound_to 10752
  153.0451  135.6552  154.0979 H   0  0  0  0  0  0  0  0  0  0  0  0  # atno 10765 bound_to 10752
  141.1611  133.7534  156.9364 H   0  0  0  0  0  0  0  0  0  0  0  0  # atno 11005 bound_to 11000
  144.6790  140.0042  143.7484 LP  0  0  0  0  0  0  0  0  0  0  0  0  # atno 17320 bound_to 7965
  146.0035  139.3111  143.0913 LP  0  0  0  0  0  0  0  0  0  0  0  0  # atno 17321 bound_to 7965
  139.5284  144.7130  151.5145 LP  0  0  0  0  0  0  0  0  0  0  0  0  # atno 17342 bound_to 10162
  140.6500  143.8715  150.6776 LP  0  0  0  0  0  0  0  0  0  0  0  0  # atno 17343 bound_to 10162
  156.1481  130.6291  151.0558 LP  0  0  0  0  0  0  0  0  0  0  0  0  # atno 17370 bound_to 10713
  157.6829  131.0833  150.7322 LP  0  0  0  0  0  0  0  0  0  0  0  0  # atno 17371 bound_to 10713
  140.1351  134.9330  157.2390 LP  0  0  0  0  0  0  0  0  0  0  0  0  # atno 17394 bound_to 11000
  140.2905  134.3246  155.7316 LP  0  0  0  0  0  0  0  0  0  0  0  0  # atno 17395 bound_to 11000

$$$$
