AV-unprocessed.smi:3287|AV-procd|sdf|12597|dock1
  -GOLD-   2272018523D 1   1.00000     0.00000
 Structure written by MMmdl.
 43 44  0  0  0  0  0  0  0  0  2 V2000
  152.4965  143.9057  161.6541 C   0  0  0  0  0  0  0  0  0  0  0  0
  151.7827  143.6661  160.3136 C   0  0  1  0  0  0  0  0  0  0  0  0
  152.2651  144.6436  159.2244 C   0  0  0  0  0  0  0  0  0  0  0  0
  151.4873  144.4575  157.9116 C   0  0  0  0  0  0  0  0  0  0  0  0
  151.5576  143.0010  157.4071 C   0  0  2  0  0  0  0  0  0  0  0  0
  150.7458  142.8016  156.1855 N   0  3  0  0  0  0  0  0  0  0  0  0
  150.3481  141.4052  155.9018 C   0  0  0  0  0  0  0  0  0  0  0  0
  149.4966  141.3118  154.6236 C   0  0  1  0  0  0  0  0  0  0  0  0
  149.5831  139.9969  154.1087 O   0  0  0  0  0  0  0  0  0  0  0  0
  148.0568  141.7223  154.8924 C   0  0  0  0  0  0  0  0  0  0  0  0
  147.5230  141.7115  156.1998 C   0  0  0  0  0  0  0  0  0  0  0  0
  146.1833  142.1078  156.3845 C   0  0  0  0  0  0  0  0  0  0  0  0
  145.3815  142.5032  155.3728 N   0  0  0  0  0  0  0  0  0  0  0  0
  145.8976  142.5152  154.1256 C   0  0  0  0  0  0  0  0  0  0  0  0
  147.2234  142.1373  153.8327 C   0  0  0  0  0  0  0  0  0  0  0  0
  151.0805  142.0313  158.5075 C   0  0  0  0  0  0  0  0  0  0  0  0
  151.8576  142.1952  159.8309 C   0  0  1  0  0  0  0  0  0  0  0  0
  153.2905  141.6349  159.7243 C   0  0  0  0  0  0  0  0  0  0  0  0
  153.5773  143.7959  161.5632 H   0  0  0  0  0  0  0  0  0  0  0  0
  152.1499  143.2065  162.4155 H   0  0  0  0  0  0  0  0  0  0  0  0
  152.3025  144.9134  162.0231 H   0  0  0  0  0  0  0  0  0  0  0  0
  150.7281  143.8850  160.4895 H   0  0  0  0  0  0  0  0  0  0  0  0
  152.1458  145.6710  159.5701 H   0  0  0  0  0  0  0  0  0  0  0  0
  153.3317  144.5081  159.0430 H   0  0  0  0  0  0  0  0  0  0  0  0
  150.4460  144.7456  158.0643 H   0  0  0  0  0  0  0  0  0  0  0  0
  151.8918  145.1435  157.1675 H   0  0  0  0  0  0  0  0  0  0  0  0
  152.5919  142.7590  157.1593 H   0  0  0  0  0  0  0  0  0  0  0  0
  149.8983  143.3406  156.2924 H   0  0  0  0  0  0  0  0  0  0  0  0
  151.2327  140.7751  155.8061 H   0  0  0  0  0  0  0  0  0  0  0  0
  149.7738  141.0256  156.7481 H   0  0  0  0  0  0  0  0  0  0  0  0
  149.9083  141.9822  153.8676 H   0  0  0  0  0  0  0  0  0  0  0  0
  149.7800  140.0493  153.1852 H   0  0  0  0  0  0  0  0  0  0  0  0
  148.1215  141.4074  157.0460 H   0  0  0  0  0  0  0  0  0  0  0  0
  145.7450  142.1088  157.3716 H   0  0  0  0  0  0  0  0  0  0  0  0
  145.2347  142.8371  153.3361 H   0  0  0  0  0  0  0  0  0  0  0  0
  147.5865  142.1675  152.8159 H   0  0  0  0  0  0  0  0  0  0  0  0
  150.0202  142.2026  158.7001 H   0  0  0  0  0  0  0  0  0  0  0  0
  151.1575  141.0007  158.1586 H   0  0  0  0  0  0  0  0  0  0  0  0
  151.3466  141.5826  160.5751 H   0  0  0  0  0  0  0  0  0  0  0  0
  153.9150  142.2216  159.0511 H   0  0  0  0  0  0  0  0  0  0  0  0
  153.2799  140.6101  159.3522 H   0  0  0  0  0  0  0  0  0  0  0  0
  153.7830  141.6124  160.6962 H   0  0  0  0  0  0  0  0  0  0  0  0
  151.2532  143.1626  155.3900 H   0  0  0  0  0  0  0  0  0  0  0  0
  1  2  1  0  0  0  0
  1 19  1  0  0  0  0
  1 20  1  0  0  0  0
  1 21  1  0  0  0  0
  2 17  1  0  0  0  0
  2  3  1  0  0  0  0
  2 22  1  0  0  0  0
  3  4  1  0  0  0  0
  3 23  1  0  0  0  0
  3 24  1  0  0  0  0
  4  5  1  0  0  0  0
  4 25  1  0  0  0  0
  4 26  1  0  0  0  0
  5  6  1  0  0  0  0
  5 16  1  0  0  0  0
  5 27  1  0  0  0  0
  6  7  1  0  0  0  0
  6 28  1  0  0  0  0
  6 43  1  0  0  0  0
  7  8  1  0  0  0  0
  7 29  1  0  0  0  0
  7 30  1  0  0  0  0
  8  9  1  0  0  0  0
  8 10  1  0  0  0  0
  8 31  1  0  0  0  0
  9 32  1  0  0  0  0
 10 15  1  0  0  0  0
 10 11  2  0  0  0  0
 11 12  1  0  0  0  0
 11 33  1  0  0  0  0
 12 13  2  0  0  0  0
 12 34  1  0  0  0  0
 13 14  1  0  0  0  0
 14 15  2  0  0  0  0
 14 35  1  0  0  0  0
 15 36  1  0  0  0  0
 16 17  1  0  0  0  0
 16 37  1  0  0  0  0
 16 38  1  0  0  0  0
 17 18  1  0  0  0  0
 17 39  1  0  0  0  0
 18 40  1  0  0  0  0
 18 41  1  0  0  0  0
 18 42  1  0  0  0  0
M  CHG  1   6   1
M  END
> <s_m_source_file>
AV-unprocessed.smi

> <i_m_source_file_index>
3287

> <i_lp_mmshare_version>
43012

> <i_f3d_flags>
0

> <s_epik_input>
W0NIM11bQ0BASF0xW0NIMl1bQ0gyXVtDQEhdKFtDSDJdW0NASF0xW0NIM10pW05IXVtDSDJdW0NASF0oW09IXSljMltjSF1bY0hdbltjSF1bY0hdMg==

> <s_epik_cmdline>
J2VwaWtfcHl0aG9uJywgJy1waCcsICc3LjAnLCAnLXRuJywgJzgnLCAnLW1hJywgJzIwMCcsICctbWV0YWxfYmluZGluZycsICctaW1hZScsICc8aW5maWxlLm1hZT4nLCAnLW9tYWUnLCAnPG91dGZpbGUubWFlPic=

> <r_lp_tautomer_probability>
1

> <r_epik_Ionization_Penalty>
0.00537262

> <r_epik_Ionization_Penalty_Charging>
0.00321624

> <r_epik_Ionization_Penalty_Neutral>
0.00215638

> <r_epik_State_Penalty>
-0

> <r_epik_Charging_Adjusted_Penalty>
0.00321624

> <i_epik_Tot_Q>
1

> <i_epik_Tot_abs_Q>
1

> <r_epik_Metal_State_Penalty>
-0

> <b_epik_Metal_Only>
0

> <s_lp_Force_Field>
OPLS_2005

> <r_lp_Energy>
18.2577

> <b_lp_Chiralities_Consistent>
1

> <s_lp_Variant>
AV-unprocessed.smi:3287-8

> <Gold.Version>
5.8.1

> <Gold.Id.Protein>
6NUR|6NUR_protein|mol2

> <Gold.PLP.Fitness>
50.8008

> <Gold.PLP.PLP>
-44.1555

> <Gold.PLP.part.hbond>
-2.5951

> <Gold.PLP.part.metal>
0.0000

> <Gold.PLP.part.buried>
-4.2357

> <Gold.PLP.part.nonpolar>
-36.7685

> <Gold.PLP.part.repulsive>
0.2767

> <Gold.PLP.ligand.clash>
0.0000

> <Gold.PLP.ligand.torsion>
0.9890

> <Gold.PLP.Chemscore.Hbond>
2.8560

> <Gold.PLP.Chemscore.CHOScore>
0.0000

> <Gold.PLP.Chemscore.Metal>
0.0000

> <Gold.Chemscore.Hbonds>
donor molecule, donor type, donor heavy atom, donor atom, acceptor molecule, acceptor atom, score
      L1  H     6    28       P1  8028  1.86
      L1  H     9    32       P1  7957  1.00

> <Gold.PLP.Chemscore.Internal.Correction>
0.0554

> <Gold.Rescore>
     Score         DG    S(hbond)    S(metal)    S(lipo)     H(rot)  DE(clash)    DE(int)     intcor
     20.25     -21.87       1.98        0.00     125.12       1.90       0.41       1.20       ----

> <Gold.Chemscore.Fitness>
20.2546

> <Gold.Chemscore.DG>
-21.8705

> <Gold.Chemscore.ZeroCoef>
-5.4800

> <Gold.Chemscore.Hbond>
1.9833

> <Gold.Chemscore.Metal>
0.0000

> <Gold.Chemscore.Lipo>
125.1201

> <Gold.Chemscore.Internal_Hbond>
0.0000

> <Gold.Chemscore.DEClash>
0.4128

> <Gold.Chemscore.DEInternal>
1.2030

> <Gold.Chemscore.Rot>
1.9035

> <Gold.Chemscore.Internal.Correction>
   9.000000E+99

> <Gold.Chemscore.Hbonds>
donor molecule, donor type, donor heavy atom, donor atom, acceptor molecule, acceptor atom, score
      L1  H     6    28       P1  8028  0.90
      L1  H     9    32       P1  7957  0.93

> <Gold.Chemscore.Hbond.Weighted>
-6.6243

> <Gold.Chemscore.Metal.Weighted>
-0.0000

> <Gold.Chemscore.Lipo.Weighted>
-14.6391

> <Gold.Chemscore.Internal_Hbond.Weighted>
0.0000

> <Gold.Chemscore.DEClash.Weighted>
0.4128

> <Gold.Chemscore.DEInternal.Weighted>
1.2030

> <Gold.Chemscore.Rot.Weighted>
4.8729

> <Gold.Chemscore.Internal.Correction.Weighted>
   9.000000E+99

> <Gold.Protein.RotatedTorsions>
[ 6907 6896 6895 6894 ] final   14.12 input  -60.11 | X-H torsion
[ 7974 7965 7964 7962 ] final  127.75 input  175.53 | X-H torsion
[ 8008 7997 7996 7995 ] final    4.59 input   59.86 | X-H torsion
[ 10167 10162 10161 10158 ] final  163.60 input  -65.29 | X-H torsion
[ 10718 10713 10712 10709 ] final -137.14 input   66.30 | X-H torsion
[ 10763 10752 10751 10750 ] final -168.71 input  -60.55 | X-H torsion
[ 11005 11000 10999 10996 ] final -175.54 input  -57.11 | X-H torsion

> <Gold.Protein.ActiveResidues>
 VAL166  LYS551  ARG553  GLY616  TRP617  ASP618  TYR619  PRO620  LYS621  CYS622 
 ASP623  PHE694  ASN695  SER759  ASP760  ASP761  ALA762  ILE779  LEU786  VAL792 
 PHE793  MET794  SER795  GLU796  ALA797  LYS798  CYS799  TRP800  GLU811  SER814 

> <Gold.Protein.RotatedAtoms>
  151.7972  135.0719  160.0395 H   0  0  0  0  0  0  0  0  0  0  0  0  # atno 6907 bound_to 6896
  152.3115  133.5753  159.5692 H   0  0  0  0  0  0  0  0  0  0  0  0  # atno 6908 bound_to 6896
  150.7322  134.0062  159.3696 H   0  0  0  0  0  0  0  0  0  0  0  0  # atno 6909 bound_to 6896
  145.0471  139.3914  143.5073 H   0  0  0  0  0  0  0  0  0  0  0  0  # atno 7974 bound_to 7965
  154.7178  140.2705  155.6569 H   0  0  0  0  0  0  0  0  0  0  0  0  # atno 8008 bound_to 7997
  156.2815  140.2740  156.1764 H   0  0  0  0  0  0  0  0  0  0  0  0  # atno 8009 bound_to 7997
  155.0548  140.0371  157.2546 H   0  0  0  0  0  0  0  0  0  0  0  0  # atno 8010 bound_to 7997
  139.4876  144.4321  151.9058 H   0  0  0  0  0  0  0  0  0  0  0  0  # atno 10167 bound_to 10162
  156.2848  130.7341  151.1349 H   0  0  0  0  0  0  0  0  0  0  0  0  # atno 10718 bound_to 10713
  154.6600  135.2923  154.9878 H   0  0  0  0  0  0  0  0  0  0  0  0  # atno 10763 bound_to 10752
  154.0941  135.6586  153.4861 H   0  0  0  0  0  0  0  0  0  0  0  0  # atno 10764 bound_to 10752
  153.0424  135.5227  154.7547 H   0  0  0  0  0  0  0  0  0  0  0  0  # atno 10765 bound_to 10752
  140.4621  134.6245  157.4847 H   0  0  0  0  0  0  0  0  0  0  0  0  # atno 11005 bound_to 11000
  146.3515  140.0101  142.8668 LP  0  0  0  0  0  0  0  0  0  0  0  0  # atno 17320 bound_to 7965
  145.1574  140.9655  143.4397 LP  0  0  0  0  0  0  0  0  0  0  0  0  # atno 17321 bound_to 7965
  140.3769  144.2785  150.5913 LP  0  0  0  0  0  0  0  0  0  0  0  0  # atno 17342 bound_to 10162
  140.5269  143.2252  151.8301 LP  0  0  0  0  0  0  0  0  0  0  0  0  # atno 17343 bound_to 10162
  157.7325  131.0599  150.5624 LP  0  0  0  0  0  0  0  0  0  0  0  0  # atno 17370 bound_to 10713
  156.5734  130.4285  149.6009 LP  0  0  0  0  0  0  0  0  0  0  0  0  # atno 17371 bound_to 10713
  139.9938  134.6942  155.9643 LP  0  0  0  0  0  0  0  0  0  0  0  0  # atno 17394 bound_to 11000
  141.1616  133.6538  156.4339 LP  0  0  0  0  0  0  0  0  0  0  0  0  # atno 17395 bound_to 11000

$$$$
