AV-unprocessed.smi:1757|AV-procd|sdf|7077|dock6
  -GOLD-   22720 8293D 1   1.00000     0.00000
 Structure written by MMmdl.
 39 40  0  0  0  0  0  0  0  0  3 V2000
  145.9251  137.6601  151.9916 C   0  0  0  0  0  0  0  0  0  0  0  0
  146.9750  137.9468  152.9924 N   0  3  2  0  0  0  0  0  0  0  0  0
  146.7227  137.2656  154.2867 C   0  0  0  0  0  0  0  0  0  0  0  0
  147.8934  137.4786  155.2611 C   0  0  0  0  0  0  0  0  0  0  0  0
  148.1739  138.9755  155.4744 C   0  0  1  0  0  0  0  0  0  0  0  0
  149.3580  139.1468  156.3122 N   0  0  0  0  0  0  0  0  0  0  0  0
  149.7609  140.2927  156.8805 C   0  0  0  0  0  0  0  0  0  0  0  0
  149.1589  141.3590  156.7552 O   0  0  0  0  0  0  0  0  0  0  0  0
  150.9003  140.1061  157.5707 N   0  0  0  0  0  0  0  0  0  0  0  0
  151.6389  141.0255  158.3349 C   0  0  0  0  0  0  0  0  0  0  0  0
  151.1988  142.2615  158.6997 C   0  0  0  0  0  0  0  0  0  0  0  0
  152.0054  143.1673  159.5084 C   0  0  0  0  0  0  0  0  0  0  0  0
  151.5709  144.5607  159.9241 C   0  0  0  0  0  0  0  0  0  0  0  0
  152.2137  145.4776  159.2017 F   0  0  0  0  0  0  0  0  0  0  0  0
  150.2635  144.7164  159.7185 F   0  0  0  0  0  0  0  0  0  0  0  0
  151.8244  144.7870  161.2131 F   0  0  0  0  0  0  0  0  0  0  0  0
  153.2250  142.6197  159.8533 C   0  0  0  0  0  0  0  0  0  0  0  0
  153.7297  141.4046  159.5463 N   0  5  0  0  0  0  0  0  0  0  0  0
  152.9699  140.5672  158.7850 C   0  0  0  0  0  0  0  0  0  0  0  0
  153.3676  139.4455  158.4678 O   0  0  0  0  0  0  0  0  0  0  0  0
  148.3881  139.6644  154.1160 C   0  0  0  0  0  0  0  0  0  0  0  0
  147.2073  139.4023  153.1662 C   0  0  0  0  0  0  0  0  0  0  0  0
  144.9589  138.0495  152.3155 H   0  0  0  0  0  0  0  0  0  0  0  0
  145.8262  136.5856  151.8342 H   0  0  0  0  0  0  0  0  0  0  0  0
  146.1733  138.1148  151.0319 H   0  0  0  0  0  0  0  0  0  0  0  0
  145.7966  137.6426  154.7238 H   0  0  0  0  0  0  0  0  0  0  0  0
  146.5817  136.1975  154.1165 H   0  0  0  0  0  0  0  0  0  0  0  0
  147.6703  137.0006  156.2159 H   0  0  0  0  0  0  0  0  0  0  0  0
  148.7839  136.9853  154.8688 H   0  0  0  0  0  0  0  0  0  0  0  0
  147.2987  139.4215  155.9505 H   0  0  0  0  0  0  0  0  0  0  0  0
  149.9229  138.3251  156.4710 H   0  0  0  0  0  0  0  0  0  0  0  0
  151.3175  139.1886  157.5131 H   0  0  0  0  0  0  0  0  0  0  0  0
  150.2177  142.6026  158.4135 H   0  0  0  0  0  0  0  0  0  0  0  0
  153.8953  143.2569  160.4693 H   0  0  0  0  0  0  0  0  0  0  0  0
  148.5164  140.7383  154.2575 H   0  0  0  0  0  0  0  0  0  0  0  0
  149.3086  139.3013  153.6562 H   0  0  0  0  0  0  0  0  0  0  0  0
  147.4133  139.8577  152.1967 H   0  0  0  0  0  0  0  0  0  0  0  0
  146.3021  139.8739  153.5524 H   0  0  0  0  0  0  0  0  0  0  0  0
  147.8328  137.5597  152.6257 H   0  0  0  0  0  0  0  0  0  0  0  0
  1  2  1  0  0  0  0
  1 23  1  0  0  0  0
  1 24  1  0  0  0  0
  1 25  1  0  0  0  0
  2 22  1  0  0  0  0
  2  3  1  0  0  0  0
  2 39  1  0  0  0  0
  3  4  1  0  0  0  0
  3 26  1  0  0  0  0
  3 27  1  0  0  0  0
  4  5  1  0  0  0  0
  4 28  1  0  0  0  0
  4 29  1  0  0  0  0
  5  6  1  0  0  0  0
  5 21  1  0  0  0  0
  5 30  1  0  0  0  0
  6  7  1  0  0  0  0
  6 31  1  0  0  0  0
  7  8  2  0  0  0  0
  7  9  1  0  0  0  0
  9 10  1  0  0  0  0
  9 32  1  0  0  0  0
 10 19  1  0  0  0  0
 10 11  2  0  0  0  0
 11 12  1  0  0  0  0
 11 33  1  0  0  0  0
 12 13  1  0  0  0  0
 12 17  2  0  0  0  0
 13 14  1  0  0  0  0
 13 15  1  0  0  0  0
 13 16  1  0  0  0  0
 17 18  1  0  0  0  0
 17 34  1  0  0  0  0
 18 19  1  0  0  0  0
 19 20  2  0  0  0  0
 21 22  1  0  0  0  0
 21 35  1  0  0  0  0
 21 36  1  0  0  0  0
 22 37  1  0  0  0  0
 22 38  1  0  0  0  0
M  CHG  1   2   1
M  CHG  1  18  -1
M  END
> <s_m_source_file>
AV-unprocessed.smi

> <i_m_source_file_index>
1757

> <i_lp_mmshare_version>
43012

> <i_f3d_flags>
0

> <s_epik_input>
W0NIM11OMVtDSDJdW0NIMl1bQ0hdKFtDSDJdW0NIMl0xKVtOSF1DKD1PKVtOSF1jMltjSF1jKEMoRikoRilGKVtjSF1bbkhdYzI9Tw==

> <s_epik_cmdline>
J2VwaWtfcHl0aG9uJywgJy1waCcsICc3LjAnLCAnLXRuJywgJzgnLCAnLW1hJywgJzIwMCcsICctbWV0YWxfYmluZGluZycsICctaW1hZScsICc8aW5maWxlLm1hZT4nLCAnLW9tYWUnLCAnPG91dGZpbGUubWFlPic=

> <r_lp_tautomer_probability>
1

> <r_epik_Ionization_Penalty>
3.04759

> <r_epik_Ionization_Penalty_Charging>
0.155898

> <r_epik_Ionization_Penalty_Neutral>
2.89169

> <r_epik_State_Penalty>
2.88714

> <r_epik_Charging_Adjusted_Penalty>
3.04304

> <i_epik_Tot_Q>
0

> <i_epik_Tot_abs_Q>
2

> <r_epik_Metal_State_Penalty>
0.445786

> <b_epik_Metal_Only>
1

> <s_lp_Force_Field>
OPLS_2005

> <r_lp_Energy>
29.3736

> <b_lp_Chiralities_Consistent>
1

> <s_lp_Variant>
AV-unprocessed.smi:1757-3

> <Gold.Version>
5.8.1

> <Gold.Id.Protein>
6NUR|6NUR_protein|mol2

> <Gold.PLP.Fitness>
42.9221

> <Gold.PLP.PLP>
-35.4145

> <Gold.PLP.part.hbond>
-2.0000

> <Gold.PLP.part.metal>
0.0000

> <Gold.PLP.part.buried>
-1.3877

> <Gold.PLP.part.nonpolar>
-31.2975

> <Gold.PLP.part.repulsive>
0.1723

> <Gold.PLP.ligand.clash>
0.0000

> <Gold.PLP.ligand.torsion>
0.6738

> <Gold.PLP.Chemscore.Hbond>
2.9500

> <Gold.PLP.Chemscore.CHOScore>
0.0000

> <Gold.PLP.Chemscore.Metal>
0.0000

> <Gold.Chemscore.Hbonds>
donor molecule, donor type, donor heavy atom, donor atom, acceptor molecule, acceptor atom, score
      L1  H     2    39       P1  7948  2.00
      P1  H  7997  8008       L1    20  0.90

> <Gold.PLP.Chemscore.Internal.Correction>
0.0053

> <Gold.Rescore>
     Score         DG    S(hbond)    S(metal)    S(lipo)     H(rot)  DE(clash)    DE(int)     intcor
     14.86     -17.36       1.78        0.00      72.54       1.00       0.71       1.78       ----

> <Gold.Chemscore.Fitness>
14.8602

> <Gold.Chemscore.DG>
-17.3559

> <Gold.Chemscore.ZeroCoef>
-5.4800

> <Gold.Chemscore.Hbond>
1.7810

> <Gold.Chemscore.Metal>
0.0000

> <Gold.Chemscore.Lipo>
72.5409

> <Gold.Chemscore.Internal_Hbond>
0.0000

> <Gold.Chemscore.DEClash>
0.7135

> <Gold.Chemscore.DEInternal>
1.7822

> <Gold.Chemscore.Rot>
1.0000

> <Gold.Chemscore.Internal.Correction>
   9.000000E+99

> <Gold.Chemscore.Hbonds>
donor molecule, donor type, donor heavy atom, donor atom, acceptor molecule, acceptor atom, score
      L1  H     2    39       P1  7948  0.99
      P1  H  7997  8008       L1    20  0.17

> <Gold.Chemscore.Hbond.Weighted>
-5.9486

> <Gold.Chemscore.Metal.Weighted>
-0.0000

> <Gold.Chemscore.Lipo.Weighted>
-8.4873

> <Gold.Chemscore.Internal_Hbond.Weighted>
0.0000

> <Gold.Chemscore.DEClash.Weighted>
0.7135

> <Gold.Chemscore.DEInternal.Weighted>
1.7822

> <Gold.Chemscore.Rot.Weighted>
2.5600

> <Gold.Chemscore.Internal.Correction.Weighted>
   9.000000E+99

> <Gold.Protein.RotatedTorsions>
[ 6907 6896 6895 6894 ] final   21.31 input  -60.11 | X-H torsion
[ 7974 7965 7964 7962 ] final  102.19 input  175.53 | X-H torsion
[ 8008 7997 7996 7995 ] final -104.07 input   59.86 | X-H torsion
[ 10167 10162 10161 10158 ] final -135.96 input  -65.29 | X-H torsion
[ 10718 10713 10712 10709 ] final  105.73 input   66.30 | X-H torsion
[ 10763 10752 10751 10750 ] final  -62.17 input  -60.55 | X-H torsion
[ 11005 11000 10999 10996 ] final  150.41 input  -57.11 | X-H torsion

> <Gold.Protein.ActiveResidues>
 VAL166  LYS551  ARG553  GLY616  TRP617  ASP618  TYR619  PRO620  LYS621  CYS622 
 ASP623  PHE694  ASN695  SER759  ASP760  ASP761  ALA762  ILE779  LEU786  VAL792 
 PHE793  MET794  SER795  GLU796  ALA797  LYS798  CYS799  TRP800  GLU811  SER814 

> <Gold.Protein.RotatedAtoms>
  151.9098  135.0344  160.0513 H   0  0  0  0  0  0  0  0  0  0  0  0  # atno 6907 bound_to 6896
  152.2289  133.5038  159.5213 H   0  0  0  0  0  0  0  0  0  0  0  0  # atno 6908 bound_to 6896
  150.7020  134.1159  159.4060 H   0  0  0  0  0  0  0  0  0  0  0  0  # atno 6909 bound_to 6896
  145.3623  139.2415  143.3500 H   0  0  0  0  0  0  0  0  0  0  0  0  # atno 7974 bound_to 7965
  154.8801  140.0419  157.1777 H   0  0  0  0  0  0  0  0  0  0  0  0  # atno 8008 bound_to 7997
  154.8648  140.2949  155.5496 H   0  0  0  0  0  0  0  0  0  0  0  0  # atno 8009 bound_to 7997
  156.2999  140.2440  156.3628 H   0  0  0  0  0  0  0  0  0  0  0  0  # atno 8010 bound_to 7997
  139.8726  143.6938  152.2638 H   0  0  0  0  0  0  0  0  0  0  0  0  # atno 10167 bound_to 10162
  157.6695  131.0834  150.5900 H   0  0  0  0  0  0  0  0  0  0  0  0  # atno 10718 bound_to 10713
  154.2958  135.6244  153.5404 H   0  0  0  0  0  0  0  0  0  0  0  0  # atno 10763 bound_to 10752
  152.9846  135.5666  154.5339 H   0  0  0  0  0  0  0  0  0  0  0  0  # atno 10764 bound_to 10752
  154.4959  135.2869  155.1435 H   0  0  0  0  0  0  0  0  0  0  0  0  # atno 10765 bound_to 10752
  140.1129  134.8913  157.1962 H   0  0  0  0  0  0  0  0  0  0  0  0  # atno 11005 bound_to 11000
  146.2922  140.4259  142.8735 LP  0  0  0  0  0  0  0  0  0  0  0  0  # atno 17320 bound_to 7965
  144.8637  140.7176  143.6091 LP  0  0  0  0  0  0  0  0  0  0  0  0  # atno 17321 bound_to 7965
  139.7270  144.7591  151.0864 LP  0  0  0  0  0  0  0  0  0  0  0  0  # atno 17342 bound_to 10162
  140.7758  143.5136  150.9622 LP  0  0  0  0  0  0  0  0  0  0  0  0  # atno 17343 bound_to 10162
  156.6201  130.4403  149.5825 LP  0  0  0  0  0  0  0  0  0  0  0  0  # atno 17370 bound_to 10713
  156.2363  130.6824  151.1512 LP  0  0  0  0  0  0  0  0  0  0  0  0  # atno 17371 bound_to 10713
  140.3067  134.3070  155.7276 LP  0  0  0  0  0  0  0  0  0  0  0  0  # atno 17394 bound_to 11000
  141.2134  133.7625  156.9718 LP  0  0  0  0  0  0  0  0  0  0  0  0  # atno 17395 bound_to 11000

$$$$
