AV-unprocessed.smi:1410|AV-procd|sdf|5736|dock8
  -GOLD-   22720 5373D 1   1.00000     0.00000
 Structure written by MMmdl.
 39 40  0  0  0  0  0  0  0  0  3 V2000
  142.2060  141.5303  154.2255 N   0  5  0  0  0  0  0  0  0  0  0  0
  142.7449  142.2494  155.2286 C   0  0  0  0  0  0  0  0  0  0  0  0
  142.3759  142.3092  156.3994 O   0  0  0  0  0  0  0  0  0  0  0  0
  143.9449  143.0842  154.7704 C   0  0  0  0  0  0  0  0  0  0  0  0
  145.0811  142.2008  154.4057 N   0  3  2  0  0  0  0  0  0  0  0  0
  145.6765  141.4988  155.5754 C   0  0  0  0  0  0  0  0  0  0  0  0
  146.7673  140.5077  155.1341 C   0  0  0  0  0  0  0  0  0  0  0  0
  147.8668  141.1953  154.3017 C   0  0  2  0  0  0  0  0  0  0  0  0
  148.6802  142.0964  155.1177 N   0  0  0  0  0  0  0  0  0  0  0  0
  149.4916  141.7192  156.1166 C   0  0  0  0  0  0  0  0  0  0  0  0
  149.6498  140.5461  156.4532 O   0  0  0  0  0  0  0  0  0  0  0  0
  150.0733  142.7840  156.6956 N   0  0  0  0  0  0  0  0  0  0  0  0
  150.9690  142.8189  157.7988 C   0  0  0  0  0  0  0  0  0  0  0  0
  151.1342  141.6339  158.5454 C   0  0  0  0  0  0  0  0  0  0  0  0
  152.0063  141.6443  159.6522 C   0  0  0  0  0  0  0  0  0  0  0  0
  152.6916  142.7380  160.0461 N   0  0  0  0  0  0  0  0  0  0  0  0
  152.5213  143.8753  159.3392 C   0  0  0  0  0  0  0  0  0  0  0  0
  151.6744  143.9730  158.2170 C   0  0  0  0  0  0  0  0  0  0  0  0
  147.2218  141.9611  153.1343 C   0  0  0  0  0  0  0  0  0  0  0  0
  146.1124  142.9168  153.6118 C   0  0  0  0  0  0  0  0  0  0  0  0
  142.8352  141.0440  153.5754 H   0  0  0  0  0  0  0  0  0  0  0  0
  143.6184  143.6496  153.8964 H   0  0  0  0  0  0  0  0  0  0  0  0
  144.2559  143.8207  155.5148 H   0  0  0  0  0  0  0  0  0  0  0  0
  146.0887  142.2310  156.2713 H   0  0  0  0  0  0  0  0  0  0  0  0
  144.9067  140.9514  156.1195 H   0  0  0  0  0  0  0  0  0  0  0  0
  147.1962  140.0120  156.0056 H   0  0  0  0  0  0  0  0  0  0  0  0
  146.3084  139.7183  154.5374 H   0  0  0  0  0  0  0  0  0  0  0  0
  148.5247  140.4308  153.8841 H   0  0  0  0  0  0  0  0  0  0  0  0
  148.6130  143.0821  154.9107 H   0  0  0  0  0  0  0  0  0  0  0  0
  149.7872  143.6871  156.3475 H   0  0  0  0  0  0  0  0  0  0  0  0
  150.6097  140.7288  158.2756 H   0  0  0  0  0  0  0  0  0  0  0  0
  152.1560  140.7491  160.2377 H   0  0  0  0  0  0  0  0  0  0  0  0
  153.0736  144.7380  159.6815 H   0  0  0  0  0  0  0  0  0  0  0  0
  151.5779  144.9230  157.7153 H   0  0  0  0  0  0  0  0  0  0  0  0
  147.9804  142.5143  152.5790 H   0  0  0  0  0  0  0  0  0  0  0  0
  146.7946  141.2453  152.4307 H   0  0  0  0  0  0  0  0  0  0  0  0
  145.6469  143.3821  152.7420 H   0  0  0  0  0  0  0  0  0  0  0  0
  146.5366  143.7237  154.2114 H   0  0  0  0  0  0  0  0  0  0  0  0
  144.6954  141.4897  153.8009 H   0  0  0  0  0  0  0  0  0  0  0  0
  1  2  1  0  0  0  0
  1 21  1  0  0  0  0
  2  3  2  0  0  0  0
  2  4  1  0  0  0  0
  4  5  1  0  0  0  0
  4 22  1  0  0  0  0
  4 23  1  0  0  0  0
  5 20  1  0  0  0  0
  5  6  1  0  0  0  0
  5 39  1  0  0  0  0
  6  7  1  0  0  0  0
  6 24  1  0  0  0  0
  6 25  1  0  0  0  0
  7  8  1  0  0  0  0
  7 26  1  0  0  0  0
  7 27  1  0  0  0  0
  8  9  1  0  0  0  0
  8 19  1  0  0  0  0
  8 28  1  0  0  0  0
  9 10  1  0  0  0  0
  9 29  1  0  0  0  0
 10 11  2  0  0  0  0
 10 12  1  0  0  0  0
 12 13  1  0  0  0  0
 12 30  1  0  0  0  0
 13 18  1  0  0  0  0
 13 14  2  0  0  0  0
 14 15  1  0  0  0  0
 14 31  1  0  0  0  0
 15 16  2  0  0  0  0
 15 32  1  0  0  0  0
 16 17  1  0  0  0  0
 17 18  2  0  0  0  0
 17 33  1  0  0  0  0
 18 34  1  0  0  0  0
 19 20  1  0  0  0  0
 19 35  1  0  0  0  0
 19 36  1  0  0  0  0
 20 37  1  0  0  0  0
 20 38  1  0  0  0  0
M  CHG  1   1  -1
M  CHG  1   5   1
M  END
> <s_m_source_file>
AV-unprocessed.smi

> <i_m_source_file_index>
1410

> <i_lp_mmshare_version>
43012

> <i_f3d_flags>
0

> <s_epik_input>
W05IMl1DKD1PKVtDSDJdTjFbQ0gyXVtDSDJdW0NIXShbQ0gyXVtDSDJdMSlbTkhdQyg9TylbTkhdYzJbY0hdW2NIXW5bY0hdW2NIXTI=

> <s_epik_cmdline>
J2VwaWtfcHl0aG9uJywgJy1waCcsICc3LjAnLCAnLXRuJywgJzgnLCAnLW1hJywgJzIwMCcsICctbWV0YWxfYmluZGluZycsICctaW1hZScsICc8aW5maWxlLm1hZT4nLCAnLW9tYWUnLCAnPG91dGZpbGUubWFlPic=

> <r_epik_Ionization_Penalty>
5.8279

> <r_epik_Ionization_Penalty_Charging>
5.7288

> <r_epik_Ionization_Penalty_Neutral>
0.0990993

> <r_epik_State_Penalty>
6.63321

> <r_epik_Charging_Adjusted_Penalty>
12.362

> <i_epik_Tot_Q>
0

> <i_epik_Tot_abs_Q>
2

> <r_epik_Metal_State_Penalty>
2.69435

> <b_epik_Metal_Only>
1

> <s_lp_Force_Field>
OPLS_2005

> <r_lp_Energy>
12.1382

> <b_lp_Chiralities_Consistent>
1

> <s_lp_Variant>
AV-unprocessed.smi:1410-8

> <Gold.Version>
5.8.1

> <Gold.Id.Protein>
6NUR|6NUR_protein|mol2

> <Gold.PLP.Fitness>
47.7188

> <Gold.PLP.PLP>
-33.2220

> <Gold.PLP.part.hbond>
-5.0000

> <Gold.PLP.part.metal>
0.0000

> <Gold.PLP.part.buried>
-5.1808

> <Gold.PLP.part.nonpolar>
-23.5085

> <Gold.PLP.part.repulsive>
0.3209

> <Gold.PLP.ligand.clash>
0.0000

> <Gold.PLP.ligand.torsion>
0.2019

> <Gold.PLP.Chemscore.Hbond>
4.9600

> <Gold.PLP.Chemscore.CHOScore>
0.0000

> <Gold.PLP.Chemscore.Metal>
0.0000

> <Gold.Chemscore.Hbonds>
donor molecule, donor type, donor heavy atom, donor atom, acceptor molecule, acceptor atom, score
      L1  H     1    21       P1 10175  0.43
      L1  H     5    39       P1 10175  1.80
      L1  H     9    29       P1  8028  0.86
      L1  H    12    30       P1  8028  0.99

> <Gold.PLP.Chemscore.Internal.Correction>
0.0207

> <Gold.Rescore>
     Score         DG    S(hbond)    S(metal)    S(lipo)     H(rot)  DE(clash)    DE(int)     intcor
     19.32     -22.37       3.57        0.00      84.84       1.94       1.47       1.58       ----

> <Gold.Chemscore.Fitness>
19.3171

> <Gold.Chemscore.DG>
-22.3680

> <Gold.Chemscore.ZeroCoef>
-5.4800

> <Gold.Chemscore.Hbond>
3.5683

> <Gold.Chemscore.Metal>
0.0000

> <Gold.Chemscore.Lipo>
84.8393

> <Gold.Chemscore.Internal_Hbond>
0.0000

> <Gold.Chemscore.DEClash>
1.4729

> <Gold.Chemscore.DEInternal>
1.5780

> <Gold.Chemscore.Rot>
1.9361

> <Gold.Chemscore.Internal.Correction>
   9.000000E+99

> <Gold.Chemscore.Hbonds>
donor molecule, donor type, donor heavy atom, donor atom, acceptor molecule, acceptor atom, score
      L1  H     1    21       P1 10175  0.03
      L1  H     5    39       P1 10175  0.18
      L1  H     9    29       P1  8028  0.85
      L1  H    12    30       P1  8028  0.92

> <Gold.Chemscore.Hbond.Weighted>
-11.9181

> <Gold.Chemscore.Metal.Weighted>
-0.0000

> <Gold.Chemscore.Lipo.Weighted>
-9.9262

> <Gold.Chemscore.Internal_Hbond.Weighted>
0.0000

> <Gold.Chemscore.DEClash.Weighted>
1.4729

> <Gold.Chemscore.DEInternal.Weighted>
1.5780

> <Gold.Chemscore.Rot.Weighted>
4.9563

> <Gold.Chemscore.Internal.Correction.Weighted>
   9.000000E+99

> <Gold.Protein.RotatedTorsions>
[ 6907 6896 6895 6894 ] final -116.96 input  -60.11 | X-H torsion
[ 7974 7965 7964 7962 ] final   -8.81 input  175.53 | X-H torsion
[ 8008 7997 7996 7995 ] final   38.57 input   59.86 | X-H torsion
[ 10167 10162 10161 10158 ] final  109.29 input  -65.29 | X-H torsion
[ 10718 10713 10712 10709 ] final  -97.95 input   66.30 | X-H torsion
[ 10763 10752 10751 10750 ] final   12.13 input  -60.55 | X-H torsion
[ 11005 11000 10999 10996 ] final  -22.03 input  -57.11 | X-H torsion

> <Gold.Protein.ActiveResidues>
 VAL166  LYS551  ARG553  GLY616  TRP617  ASP618  TYR619  PRO620  LYS621  CYS622 
 ASP623  PHE694  ASN695  SER759  ASP760  ASP761  ALA762  ILE779  LEU786  VAL792 
 PHE793  MET794  SER795  GLU796  ALA797  LYS798  CYS799  TRP800  GLU811  SER814 

> <Gold.Protein.RotatedAtoms>
  150.8098  133.8443  159.3187 H   0  0  0  0  0  0  0  0  0  0  0  0  # atno 6907 bound_to 6896
  151.6232  135.1028  160.0115 H   0  0  0  0  0  0  0  0  0  0  0  0  # atno 6908 bound_to 6896
  152.4189  133.7044  159.6499 H   0  0  0  0  0  0  0  0  0  0  0  0  # atno 6909 bound_to 6896
  146.2270  140.2524  142.8348 H   0  0  0  0  0  0  0  0  0  0  0  0  # atno 7974 bound_to 7965
  155.2224  140.3332  155.4314 H   0  0  0  0  0  0  0  0  0  0  0  0  # atno 8008 bound_to 7997
  156.2328  140.1858  156.7245 H   0  0  0  0  0  0  0  0  0  0  0  0  # atno 8009 bound_to 7997
  154.6007  140.0623  156.9350 H   0  0  0  0  0  0  0  0  0  0  0  0  # atno 8010 bound_to 7997
  139.6778  144.7121  151.1570 H   0  0  0  0  0  0  0  0  0  0  0  0  # atno 10167 bound_to 10162
  156.0095  130.5216  150.6450 H   0  0  0  0  0  0  0  0  0  0  0  0  # atno 10718 bound_to 10713
  153.1854  135.6834  153.8423 H   0  0  0  0  0  0  0  0  0  0  0  0  # atno 10763 bound_to 10752
  153.7740  135.3192  155.3357 H   0  0  0  0  0  0  0  0  0  0  0  0  # atno 10764 bound_to 10752
  154.8085  135.4733  154.0551 H   0  0  0  0  0  0  0  0  0  0  0  0  # atno 10765 bound_to 10752
  140.8618  133.7783  156.0083 H   0  0  0  0  0  0  0  0  0  0  0  0  # atno 11005 bound_to 11000
  144.9402  140.8070  143.5635 LP  0  0  0  0  0  0  0  0  0  0  0  0  # atno 17320 bound_to 7965
  145.2475  139.2046  143.4960 LP  0  0  0  0  0  0  0  0  0  0  0  0  # atno 17321 bound_to 7965
  140.7642  143.5745  150.8960 LP  0  0  0  0  0  0  0  0  0  0  0  0  # atno 17342 bound_to 10162
  139.9415  143.6377  152.3052 LP  0  0  0  0  0  0  0  0  0  0  0  0  # atno 17343 bound_to 10162
  157.4222  131.0838  151.1119 LP  0  0  0  0  0  0  0  0  0  0  0  0  # atno 17370 bound_to 10713
  157.1718  130.6270  149.5643 LP  0  0  0  0  0  0  0  0  0  0  0  0  # atno 17371 bound_to 10713
  140.8674  134.2767  157.5207 LP  0  0  0  0  0  0  0  0  0  0  0  0  # atno 17394 bound_to 11000
  139.8707  134.9550  156.4192 LP  0  0  0  0  0  0  0  0  0  0  0  0  # atno 17395 bound_to 11000

$$$$
