AV-unprocessed.smi:1443|AV-procd|sdf|5877|dock9
  -GOLD-   22720 5553D 1   1.00000     0.00000
 Structure written by MMmdl.
 27 28  0  0  0  0  0  0  0  0  1 V2000
  151.1279  136.3206  154.5855 C   0  0  0  0  0  0  0  0  0  0  0  0
  151.6935  137.8902  153.8730 S   0  0  0  0  0  0  0  0  0  0  0  0
  150.5677  139.1184  154.4519 C   0  0  0  0  0  0  0  0  0  0  0  0
  149.2392  138.9431  154.3313 N   0  0  0  0  0  0  0  0  0  0  0  0
  148.4569  140.2961  154.9768 S   0  0  0  0  0  0  0  0  0  0  0  0
  149.9837  141.0265  155.3764 C   0  0  0  0  0  0  0  0  0  0  0  0
  150.0825  142.3037  156.0015 N   0  0  0  0  0  0  0  0  0  0  0  0
  150.9154  142.7607  156.9617 C   0  0  0  0  0  0  0  0  0  0  0  0
  151.7780  142.0337  157.4516 O   0  0  0  0  0  0  0  0  0  0  0  0
  150.7405  144.0384  157.3343 N   0  0  0  0  0  0  0  0  0  0  0  0
  151.4946  144.7372  158.3214 C   0  0  2  0  0  0  0  0  0  0  0  0
  152.9257  144.2903  158.5259 C   0  0  0  0  0  0  0  0  0  0  0  0
  151.8906  143.9812  159.5738 C   0  0  1  0  0  0  0  0  0  0  0  0
  151.9452  144.6749  160.9176 C   0  0  0  0  0  0  0  0  0  0  0  0
  151.0097  140.2528  155.0222 N   0  0  0  0  0  0  0  0  0  0  0  0
  151.7867  135.5089  154.2771 H   0  0  0  0  0  0  0  0  0  0  0  0
  150.1163  136.0918  154.2498 H   0  0  0  0  0  0  0  0  0  0  0  0
  151.1297  136.3725  155.6746 H   0  0  0  0  0  0  0  0  0  0  0  0
  149.4200  142.9863  155.6629 H   0  0  0  0  0  0  0  0  0  0  0  0
  150.0067  144.5590  156.8752 H   0  0  0  0  0  0  0  0  0  0  0  0
  151.3069  145.8043  158.4339 H   0  0  0  0  0  0  0  0  0  0  0  0
  153.2918  143.4593  157.9254 H   0  0  0  0  0  0  0  0  0  0  0  0
  153.6619  145.0600  158.7494 H   0  0  0  0  0  0  0  0  0  0  0  0
  151.5684  142.9429  159.6322 H   0  0  0  0  0  0  0  0  0  0  0  0
  152.2755  145.7083  160.8080 H   0  0  0  0  0  0  0  0  0  0  0  0
  152.6388  144.1555  161.5787 H   0  0  0  0  0  0  0  0  0  0  0  0
  150.9573  144.6730  161.3785 H   0  0  0  0  0  0  0  0  0  0  0  0
  1  2  1  0  0  0  0
  1 16  1  0  0  0  0
  1 17  1  0  0  0  0
  1 18  1  0  0  0  0
  2  3  1  0  0  0  0
  3 15  1  0  0  0  0
  3  4  2  0  0  0  0
  4  5  1  0  0  0  0
  5  6  1  0  0  0  0
  6  7  1  0  0  0  0
  6 15  2  0  0  0  0
  7  8  1  0  0  0  0
  7 19  1  0  0  0  0
  8  9  2  0  0  0  0
  8 10  1  0  0  0  0
 10 11  1  0  0  0  0
 10 20  1  0  0  0  0
 11 13  1  0  0  0  0
 11 12  1  0  0  0  0
 11 21  1  0  0  0  0
 12 13  1  0  0  0  0
 12 22  1  0  0  0  0
 12 23  1  0  0  0  0
 13 14  1  0  0  0  0
 13 24  1  0  0  0  0
 14 25  1  0  0  0  0
 14 26  1  0  0  0  0
 14 27  1  0  0  0  0
M  END
> <s_m_source_file>
AV-unprocessed.smi

> <i_m_source_file_index>
1443

> <i_lp_mmshare_version>
43012

> <i_f3d_flags>
0

> <s_epik_input>
W0NIM11TYzFuc2MobjEpW05IXUMoPU8pW05IXVtDQEBIXTJbQ0gyXVtDQEhdMltDSDNd

> <s_epik_cmdline>
J2VwaWtfcHl0aG9uJywgJy1waCcsICc3LjAnLCAnLXRuJywgJzgnLCAnLW1hJywgJzIwMCcsICctbWV0YWxfYmluZGluZycsICctaW1hZScsICc8aW5maWxlLm1hZT4nLCAnLW9tYWUnLCAnPG91dGZpbGUubWFlPic=

> <r_lp_tautomer_probability>
1

> <r_epik_Ionization_Penalty>
2.74658e-05

> <r_epik_Ionization_Penalty_Charging>
0

> <r_epik_Ionization_Penalty_Neutral>
2.74658e-05

> <r_epik_State_Penalty>
-0

> <r_epik_Charging_Adjusted_Penalty>
0

> <i_epik_Tot_Q>
0

> <i_epik_Tot_abs_Q>
0

> <r_epik_Metal_State_Penalty>
-0

> <b_epik_Metal_Only>
0

> <s_lp_Force_Field>
OPLS_2005

> <r_lp_Energy>
20.7527

> <b_lp_Chiralities_Consistent>
1

> <s_lp_Variant>
AV-unprocessed.smi:1443-1

> <Gold.Version>
5.8.1

> <Gold.Id.Protein>
6NUR|6NUR_protein|mol2

> <Gold.PLP.Fitness>
40.2666

> <Gold.PLP.PLP>
-33.4149

> <Gold.PLP.part.hbond>
-3.0000

> <Gold.PLP.part.metal>
0.0000

> <Gold.PLP.part.buried>
-1.8432

> <Gold.PLP.part.nonpolar>
-28.8282

> <Gold.PLP.part.repulsive>
0.4041

> <Gold.PLP.ligand.clash>
0.0000

> <Gold.PLP.ligand.torsion>
0.7188

> <Gold.PLP.Chemscore.Hbond>
2.7520

> <Gold.PLP.Chemscore.CHOScore>
0.0000

> <Gold.PLP.Chemscore.Metal>
0.0000

> <Gold.Chemscore.Hbonds>
donor molecule, donor type, donor heavy atom, donor atom, acceptor molecule, acceptor atom, score
      L1  H     7    19       P1  8028  0.94
      L1  H    10    20       P1  8028  1.00
      P1  H  7989  7998       L1    15  0.65

> <Gold.PLP.Chemscore.Internal.Correction>
0.0332

> <Gold.Rescore>
     Score         DG    S(hbond)    S(metal)    S(lipo)     H(rot)  DE(clash)    DE(int)     intcor
      9.41     -17.45       1.95        0.00      74.41       1.27       4.51       3.53       ----

> <Gold.Chemscore.Fitness>
9.4101

> <Gold.Chemscore.DG>
-17.4517

> <Gold.Chemscore.ZeroCoef>
-5.4800

> <Gold.Chemscore.Hbond>
1.9511

> <Gold.Chemscore.Metal>
0.0000

> <Gold.Chemscore.Lipo>
74.4103

> <Gold.Chemscore.Internal_Hbond>
0.0000

> <Gold.Chemscore.DEClash>
4.5085

> <Gold.Chemscore.DEInternal>
3.5331

> <Gold.Chemscore.Rot>
1.2699

> <Gold.Chemscore.Internal.Correction>
   9.000000E+99

> <Gold.Chemscore.Hbonds>
donor molecule, donor type, donor heavy atom, donor atom, acceptor molecule, acceptor atom, score
      L1  H     7    19       P1  8028  0.92
      L1  H    10    20       P1  8028  0.63
      P1  H  7989  7998       L1    15  0.03

> <Gold.Chemscore.Hbond.Weighted>
-6.5166

> <Gold.Chemscore.Metal.Weighted>
-0.0000

> <Gold.Chemscore.Lipo.Weighted>
-8.7060

> <Gold.Chemscore.Internal_Hbond.Weighted>
0.0000

> <Gold.Chemscore.DEClash.Weighted>
4.5085

> <Gold.Chemscore.DEInternal.Weighted>
3.5331

> <Gold.Chemscore.Rot.Weighted>
3.2509

> <Gold.Chemscore.Internal.Correction.Weighted>
   9.000000E+99

> <Gold.Protein.RotatedTorsions>
[ 6907 6896 6895 6894 ] final  -28.09 input  -60.11 | X-H torsion
[ 7974 7965 7964 7962 ] final  -72.64 input  175.53 | X-H torsion
[ 8008 7997 7996 7995 ] final  152.20 input   59.86 | X-H torsion
[ 10167 10162 10161 10158 ] final  -21.16 input  -65.29 | X-H torsion
[ 10718 10713 10712 10709 ] final  -12.49 input   66.30 | X-H torsion
[ 10763 10752 10751 10750 ] final -152.55 input  -60.55 | X-H torsion
[ 11005 11000 10999 10996 ] final  156.28 input  -57.11 | X-H torsion

> <Gold.Protein.ActiveResidues>
 VAL166  LYS551  ARG553  GLY616  TRP617  ASP618  TYR619  PRO620  LYS621  CYS622 
 ASP623  PHE694  ASN695  SER759  ASP760  ASP761  ALA762  ILE779  LEU786  VAL792 
 PHE793  MET794  SER795  GLU796  ALA797  LYS798  CYS799  TRP800  GLU811  SER814 

> <Gold.Protein.RotatedAtoms>
  151.1378  135.0164  159.8611 H   0  0  0  0  0  0  0  0  0  0  0  0  # atno 6907 bound_to 6896
  152.5452  134.1535  159.8538 H   0  0  0  0  0  0  0  0  0  0  0  0  # atno 6908 bound_to 6896
  151.1607  133.4801  159.2627 H   0  0  0  0  0  0  0  0  0  0  0  0  # atno 6909 bound_to 6896
  145.6625  140.9248  143.0926 H   0  0  0  0  0  0  0  0  0  0  0  0  # atno 7974 bound_to 7965
  156.2640  140.2027  156.6296 H   0  0  0  0  0  0  0  0  0  0  0  0  # atno 8008 bound_to 7997
  154.6693  140.0552  157.0172 H   0  0  0  0  0  0  0  0  0  0  0  0  # atno 8009 bound_to 7997
  155.1161  140.3220  155.4512 H   0  0  0  0  0  0  0  0  0  0  0  0  # atno 8010 bound_to 7997
  140.7280  143.4654  151.0321 H   0  0  0  0  0  0  0  0  0  0  0  0  # atno 10167 bound_to 10162
  156.6438  130.4935  149.6085 H   0  0  0  0  0  0  0  0  0  0  0  0  # atno 10718 bound_to 10713
  154.7986  135.3233  154.7605 H   0  0  0  0  0  0  0  0  0  0  0  0  # atno 10763 bound_to 10752
  153.8278  135.6882  153.4823 H   0  0  0  0  0  0  0  0  0  0  0  0  # atno 10764 bound_to 10752
  153.1691  135.4630  154.9820 H   0  0  0  0  0  0  0  0  0  0  0  0  # atno 10765 bound_to 10752
  140.1660  134.8576  157.2633 H   0  0  0  0  0  0  0  0  0  0  0  0  # atno 11005 bound_to 11000
  144.7084  139.8468  143.7422 LP  0  0  0  0  0  0  0  0  0  0  0  0  # atno 17320 bound_to 7965
  146.1113  139.4118  143.0286 LP  0  0  0  0  0  0  0  0  0  0  0  0  # atno 17321 bound_to 7965
  139.8342  143.7650  152.3180 LP  0  0  0  0  0  0  0  0  0  0  0  0  # atno 17342 bound_to 10162
  139.7776  144.7455  151.0134 LP  0  0  0  0  0  0  0  0  0  0  0  0  # atno 17343 bound_to 10162
  156.2138  130.6695  151.1297 LP  0  0  0  0  0  0  0  0  0  0  0  0  # atno 17370 bound_to 10713
  157.7162  131.0708  150.6315 LP  0  0  0  0  0  0  0  0  0  0  0  0  # atno 17371 bound_to 10713
  140.2433  134.3770  155.7471 LP  0  0  0  0  0  0  0  0  0  0  0  0  # atno 17394 bound_to 11000
  141.2213  133.7277  156.8822 LP  0  0  0  0  0  0  0  0  0  0  0  0  # atno 17395 bound_to 11000

$$$$
