AV-unprocessed.smi:262|AV-procd|sdf|1999|dock9
  -GOLD-   2262021193D 1   1.00000     0.00000
 Structure written by MMmdl.
 60 64  0  0  0  0  0  0  0  0  2 V2000
  146.6255  135.4449  151.9730 O   0  0  0  0  0  0  0  0  0  0  0  0
  146.3083  134.7438  153.1634 C   0  0  0  0  0  0  0  0  0  0  0  0
  145.3459  135.6302  153.9925 C   0  0  0  0  0  0  0  0  0  0  0  0
  145.8230  136.9889  154.2030 N   0  0  0  0  0  0  0  0  0  0  0  0
  145.2698  138.1437  153.6952 C   0  0  0  0  0  0  0  0  0  0  0  0
  145.8794  139.2486  154.0307 N   0  0  0  0  0  0  0  0  0  0  0  0
  146.9269  138.8217  154.8359 C   0  0  0  0  0  0  0  0  0  0  0  0
  147.9696  139.4868  155.5312 C   0  0  0  0  0  0  0  0  0  0  0  0
  148.0983  140.8312  155.5059 N   0  0  0  0  0  0  0  0  0  0  0  0
  147.8349  141.5159  156.7664 C   0  0  0  0  0  0  0  0  0  0  0  0
  149.1156  141.6949  157.6040 C   0  0  0  0  0  0  0  0  0  0  0  0
  150.2000  142.3210  156.8011 N   0  3  0  0  0  0  0  0  0  0  0  0
  151.4380  142.5945  157.5760 C   0  0  0  0  0  0  0  0  0  0  0  0
  151.1914  143.4520  158.8338 C   0  0  2  0  0  0  0  0  0  0  0  0
  151.4238  144.9382  158.6422 C   0  0  0  0  0  0  0  0  0  0  0  0
  151.5919  145.4205  160.0802 C   0  0  0  0  0  0  0  0  0  0  0  0
  152.1548  144.3243  160.7954 O   0  0  0  0  0  0  0  0  0  0  0  0
  152.1625  143.1586  159.9775 C   0  0  0  0  0  0  0  0  0  0  0  0
  150.4791  141.5505  155.5614 C   0  0  0  0  0  0  0  0  0  0  0  0
  149.2053  141.3585  154.7158 C   0  0  0  0  0  0  0  0  0  0  0  0
  148.8468  138.7313  156.2410 N   0  0  0  0  0  0  0  0  0  0  0  0
  148.7074  137.4019  156.2718 C   0  0  0  0  0  0  0  0  0  0  0  0
  147.7819  136.6455  155.6770 N   0  0  0  0  0  0  0  0  0  0  0  0
  146.9047  137.4051  154.9596 C   0  0  0  0  0  0  0  0  0  0  0  0
  145.6184  133.4199  152.7780 C   0  0  0  0  0  0  0  0  0  0  0  0
  146.5884  132.4333  152.1036 C   0  0  0  0  0  0  0  0  0  0  0  0
  147.7114  132.2030  152.9454 O   0  0  0  0  0  0  0  0  0  0  0  0
  148.4745  133.3808  153.1756 C   0  0  0  0  0  0  0  0  0  0  0  0
  147.6220  134.4292  153.9121 C   0  0  0  0  0  0  0  0  0  0  0  0
  147.4367  135.9109  152.1063 H   0  0  0  0  0  0  0  0  0  0  0  0
  144.3705  135.6851  153.5067 H   0  0  0  0  0  0  0  0  0  0  0  0
  145.1699  135.1787  154.9698 H   0  0  0  0  0  0  0  0  0  0  0  0
  144.3948  138.1398  153.0612 H   0  0  0  0  0  0  0  0  0  0  0  0
  147.4069  142.4923  156.5364 H   0  0  0  0  0  0  0  0  0  0  0  0
  147.0804  140.9765  157.3412 H   0  0  0  0  0  0  0  0  0  0  0  0
  148.8746  142.3075  158.4712 H   0  0  0  0  0  0  0  0  0  0  0  0
  149.4578  140.7325  157.9867 H   0  0  0  0  0  0  0  0  0  0  0  0
  151.9122  141.6505  157.8486 H   0  0  0  0  0  0  0  0  0  0  0  0
  152.1480  143.1194  156.9348 H   0  0  0  0  0  0  0  0  0  0  0  0
  150.1813  143.2967  159.2130 H   0  0  0  0  0  0  0  0  0  0  0  0
  152.3425  145.1127  158.0801 H   0  0  0  0  0  0  0  0  0  0  0  0
  150.6051  145.4381  158.1239 H   0  0  0  0  0  0  0  0  0  0  0  0
  152.2204  146.3086  160.1502 H   0  0  0  0  0  0  0  0  0  0  0  0
  150.6214  145.6570  160.5178 H   0  0  0  0  0  0  0  0  0  0  0  0
  151.8837  142.2716  160.5468 H   0  0  0  0  0  0  0  0  0  0  0  0
  153.1757  143.0123  159.6006 H   0  0  0  0  0  0  0  0  0  0  0  0
  151.2287  142.0693  154.9629 H   0  0  0  0  0  0  0  0  0  0  0  0
  150.9067  140.5831  155.8275 H   0  0  0  0  0  0  0  0  0  0  0  0
  149.4103  140.7043  153.8669 H   0  0  0  0  0  0  0  0  0  0  0  0
  148.8931  142.3161  154.2978 H   0  0  0  0  0  0  0  0  0  0  0  0
  149.4414  136.8668  156.8566 H   0  0  0  0  0  0  0  0  0  0  0  0
  145.2178  132.9479  153.6762 H   0  0  0  0  0  0  0  0  0  0  0  0
  144.7643  133.6082  152.1264 H   0  0  0  0  0  0  0  0  0  0  0  0
  146.0856  131.4826  151.9243 H   0  0  0  0  0  0  0  0  0  0  0  0
  146.9168  132.8044  151.1315 H   0  0  0  0  0  0  0  0  0  0  0  0
  149.3449  133.1209  153.7782 H   0  0  0  0  0  0  0  0  0  0  0  0
  148.8521  133.7741  152.2304 H   0  0  0  0  0  0  0  0  0  0  0  0
  148.2099  135.3345  154.0663 H   0  0  0  0  0  0  0  0  0  0  0  0
  147.3847  134.0442  154.9048 H   0  0  0  0  0  0  0  0  0  0  0  0
  149.8517  143.2186  156.4964 H   0  0  0  0  0  0  0  0  0  0  0  0
  1  2  1  0  0  0  0
  1 30  1  0  0  0  0
  2 29  1  0  0  0  0
  2  3  1  0  0  0  0
  2 25  1  0  0  0  0
  3  4  1  0  0  0  0
  3 31  1  0  0  0  0
  3 32  1  0  0  0  0
  4 24  1  0  0  0  0
  4  5  1  0  0  0  0
  5  6  2  0  0  0  0
  5 33  1  0  0  0  0
  6  7  1  0  0  0  0
  7 24  2  0  0  0  0
  7  8  1  0  0  0  0
  8  9  1  0  0  0  0
  8 21  2  0  0  0  0
  9 20  1  0  0  0  0
  9 10  1  0  0  0  0
 10 11  1  0  0  0  0
 10 34  1  0  0  0  0
 10 35  1  0  0  0  0
 11 12  1  0  0  0  0
 11 36  1  0  0  0  0
 11 37  1  0  0  0  0
 12 13  1  0  0  0  0
 12 19  1  0  0  0  0
 12 60  1  0  0  0  0
 13 14  1  0  0  0  0
 13 38  1  0  0  0  0
 13 39  1  0  0  0  0
 14 18  1  0  0  0  0
 14 15  1  0  0  0  0
 14 40  1  0  0  0  0
 15 16  1  0  0  0  0
 15 41  1  0  0  0  0
 15 42  1  0  0  0  0
 16 17  1  0  0  0  0
 16 43  1  0  0  0  0
 16 44  1  0  0  0  0
 17 18  1  0  0  0  0
 18 45  1  0  0  0  0
 18 46  1  0  0  0  0
 19 20  1  0  0  0  0
 19 47  1  0  0  0  0
 19 48  1  0  0  0  0
 20 49  1  0  0  0  0
 20 50  1  0  0  0  0
 21 22  1  0  0  0  0
 22 23  2  0  0  0  0
 22 51  1  0  0  0  0
 23 24  1  0  0  0  0
 25 26  1  0  0  0  0
 25 52  1  0  0  0  0
 25 53  1  0  0  0  0
 26 27  1  0  0  0  0
 26 54  1  0  0  0  0
 26 55  1  0  0  0  0
 27 28  1  0  0  0  0
 28 29  1  0  0  0  0
 28 56  1  0  0  0  0
 28 57  1  0  0  0  0
 29 58  1  0  0  0  0
 29 59  1  0  0  0  0
M  CHG  1  12   1
M  END
> <s_m_source_file>
AV-unprocessed.smi

> <i_m_source_file_index>
262

> <i_lp_mmshare_version>
43012

> <i_f3d_flags>
0

> <s_epik_input>
W0NIMl0xW0NIMl1PW0NIMl1bQ0gyXUMxKFtPSF0pW0NIMl1uKFtjSF1uMiljKGMyMyluW2NIXW5jM040W0NIMl1bQ0gyXU4oW0NIMl1bQ0gyXTQpW0NIMl1bQ0BASF01W0NIMl1bQ0gyXU9bQ0gyXTU=

> <s_epik_cmdline>
J2VwaWtfcHl0aG9uJywgJy1waCcsICc3LjAnLCAnLXRuJywgJzgnLCAnLW1hJywgJzIwMCcsICctbWV0YWxfYmluZGluZycsICctaW1hZScsICc8aW5maWxlLm1hZT4nLCAnLW9tYWUnLCAnPG91dGZpbGUubWFlPic=

> <r_lp_tautomer_probability>
1

> <r_epik_Ionization_Penalty>
0.010889

> <r_epik_Ionization_Penalty_Charging>
0.0108222

> <r_epik_Ionization_Penalty_Neutral>
6.6801e-05

> <r_epik_State_Penalty>
0.00829663

> <r_epik_Charging_Adjusted_Penalty>
0.0191189

> <i_epik_Tot_Q>
1

> <i_epik_Tot_abs_Q>
1

> <r_epik_Metal_State_Penalty>
0.00842341

> <b_epik_Metal_Only>
0

> <s_lp_Force_Field>
OPLS_2005

> <r_lp_Energy>
57.8888

> <b_lp_Chiralities_Consistent>
1

> <s_lp_Variant>
AV-unprocessed.smi:262-1

> <Gold.Version>
5.8.1

> <Gold.Id.Protein>
6NUR|6NUR_protein|mol2

> <Gold.PLP.Fitness>
45.9207

> <Gold.PLP.PLP>
-36.8004

> <Gold.PLP.part.hbond>
-1.5896

> <Gold.PLP.part.metal>
0.0000

> <Gold.PLP.part.buried>
-5.1273

> <Gold.PLP.part.nonpolar>
-29.3402

> <Gold.PLP.part.repulsive>
0.6520

> <Gold.PLP.ligand.clash>
0.0000

> <Gold.PLP.ligand.torsion>
0.7601

> <Gold.PLP.Chemscore.Hbond>
3.0000

> <Gold.PLP.Chemscore.CHOScore>
0.3988

> <Gold.PLP.Chemscore.Metal>
0.0000

> <Gold.Chemscore.Hbonds>
donor molecule, donor type, donor heavy atom, donor atom, acceptor molecule, acceptor atom, score
      L1  H     1    30       P1  7948  1.00
      L1  H    12    60       P1  8028  2.00
      L1  C     5    33       P1 10175  0.65

> <Gold.PLP.Chemscore.Internal.Correction>
0.4441

> <Gold.Rescore>
     Score         DG    S(hbond)    S(metal)    S(lipo)     H(rot)  DE(clash)    DE(int)     intcor
     15.39     -17.21       1.86        0.00     102.45       2.53       0.20       1.62       ----

> <Gold.Chemscore.Fitness>
15.3905

> <Gold.Chemscore.DG>
-17.2135

> <Gold.Chemscore.ZeroCoef>
-5.4800

> <Gold.Chemscore.Hbond>
1.8626

> <Gold.Chemscore.Metal>
0.0000

> <Gold.Chemscore.Lipo>
102.4471

> <Gold.Chemscore.Internal_Hbond>
0.0000

> <Gold.Chemscore.DEClash>
0.2046

> <Gold.Chemscore.DEInternal>
1.6183

> <Gold.Chemscore.Rot>
2.5288

> <Gold.Chemscore.Internal.Correction>
   9.000000E+99

> <Gold.Chemscore.Hbonds>
donor molecule, donor type, donor heavy atom, donor atom, acceptor molecule, acceptor atom, score
      L1  H     1    30       P1  7948  0.93
      L1  H    12    60       P1  8028  0.98

> <Gold.Chemscore.Hbond.Weighted>
-6.2210

> <Gold.Chemscore.Metal.Weighted>
-0.0000

> <Gold.Chemscore.Lipo.Weighted>
-11.9863

> <Gold.Chemscore.Internal_Hbond.Weighted>
0.0000

> <Gold.Chemscore.DEClash.Weighted>
0.2046

> <Gold.Chemscore.DEInternal.Weighted>
1.6183

> <Gold.Chemscore.Rot.Weighted>
6.4738

> <Gold.Chemscore.Internal.Correction.Weighted>
   9.000000E+99

> <Gold.Protein.RotatedTorsions>
[ 6907 6896 6895 6894 ] final  -52.43 input  -60.11 | X-H torsion
[ 7974 7965 7964 7962 ] final  -22.41 input  175.53 | X-H torsion
[ 8008 7997 7996 7995 ] final   55.70 input   59.86 | X-H torsion
[ 10167 10162 10161 10158 ] final   87.80 input  -65.29 | X-H torsion
[ 10718 10713 10712 10709 ] final   71.07 input   66.30 | X-H torsion
[ 10763 10752 10751 10750 ] final -118.41 input  -60.55 | X-H torsion
[ 11005 11000 10999 10996 ] final  -67.60 input  -57.11 | X-H torsion

> <Gold.Protein.ActiveResidues>
 VAL166  LYS551  ARG553  GLY616  TRP617  ASP618  TYR619  PRO620  LYS621  CYS622 
 ASP623  PHE694  ASN695  SER759  ASP760  ASP761  ALA762  ILE779  LEU786  VAL792 
 PHE793  MET794  SER795  GLU796  ALA797  LYS798  CYS799  TRP800  GLU811  SER814 

> <Gold.Protein.RotatedAtoms>
  150.8519  134.7846  159.7014 H   0  0  0  0  0  0  0  0  0  0  0  0  # atno 6907 bound_to 6896
  152.4581  134.5243  159.9801 H   0  0  0  0  0  0  0  0  0  0  0  0  # atno 6908 bound_to 6896
  151.5362  133.3402  159.2963 H   0  0  0  0  0  0  0  0  0  0  0  0  # atno 6909 bound_to 6896
  146.1677  140.4476  142.8545 H   0  0  0  0  0  0  0  0  0  0  0  0  # atno 7974 bound_to 7965
  155.5053  140.3475  155.4378 H   0  0  0  0  0  0  0  0  0  0  0  0  # atno 8008 bound_to 7997
  156.0886  140.1405  156.9649 H   0  0  0  0  0  0  0  0  0  0  0  0  # atno 8009 bound_to 7997
  154.4621  140.0931  156.6898 H   0  0  0  0  0  0  0  0  0  0  0  0  # atno 8010 bound_to 7997
  139.8737  144.6479  150.8921 H   0  0  0  0  0  0  0  0  0  0  0  0  # atno 10167 bound_to 10162
  157.6432  130.9509  150.0738 H   0  0  0  0  0  0  0  0  0  0  0  0  # atno 10718 bound_to 10713
  154.8586  135.4275  154.2135 H   0  0  0  0  0  0  0  0  0  0  0  0  # atno 10763 bound_to 10752
  153.3156  135.6978  153.7082 H   0  0  0  0  0  0  0  0  0  0  0  0  # atno 10764 bound_to 10752
  153.6158  135.3511  155.2968 H   0  0  0  0  0  0  0  0  0  0  0  0  # atno 10765 bound_to 10752
  141.1512  133.6722  156.6317 H   0  0  0  0  0  0  0  0  0  0  0  0  # atno 11005 bound_to 11000
  144.8116  140.6396  143.6411 LP  0  0  0  0  0  0  0  0  0  0  0  0  # atno 17320 bound_to 7965
  145.4424  139.1534  143.3963 LP  0  0  0  0  0  0  0  0  0  0  0  0  # atno 17321 bound_to 7965
  140.7756  143.3643  151.1769 LP  0  0  0  0  0  0  0  0  0  0  0  0  # atno 17342 bound_to 10162
  139.7260  143.9147  152.3003 LP  0  0  0  0  0  0  0  0  0  0  0  0  # atno 17343 bound_to 10162
  156.1734  130.3647  149.9134 LP  0  0  0  0  0  0  0  0  0  0  0  0  # atno 17370 bound_to 10713
  156.7104  130.8968  151.3609 LP  0  0  0  0  0  0  0  0  0  0  0  0  # atno 17371 bound_to 10713
  140.3462  134.7807  157.4433 LP  0  0  0  0  0  0  0  0  0  0  0  0  # atno 17394 bound_to 11000
  140.0898  134.5617  155.8456 LP  0  0  0  0  0  0  0  0  0  0  0  0  # atno 17395 bound_to 11000

$$$$
