AV-unprocessed.smi:2451|AV-procd|sdf|9671|dock9
  -GOLD-   2272013313D 1   1.00000     0.00000
 Structure written by MMmdl.
 38 39  0  0  0  0  0  0  0  0  1 V2000
  152.8076  142.3195  161.6097 C   0  0  0  0  0  0  0  0  0  0  0  0
  152.7997  142.6849  160.1139 C   0  0  2  0  0  0  0  0  0  0  0  0
  152.3838  144.1600  159.9458 C   0  0  0  0  0  0  0  0  0  0  0  0
  152.3954  144.5894  158.4750 C   0  0  0  0  0  0  0  0  0  0  0  0
  151.4615  143.6993  157.6510 C   0  0  0  0  0  0  0  0  0  0  0  0
  151.8404  142.2142  157.7855 C   0  0  2  0  0  0  0  0  0  0  0  0
  150.8611  141.4175  157.0395 N   0  0  0  0  0  0  0  0  0  0  0  0
  151.3684  139.9325  156.3247 S   0  0  0  0  0  0  0  0  0  0  0  0
  150.9639  139.9591  154.9109 O   0  0  0  0  0  0  0  0  0  0  0  0
  152.7811  139.7262  156.6806 O   0  0  0  0  0  0  0  0  0  0  0  0
  150.3488  138.6916  157.2259 C   0  0  0  0  0  0  0  0  0  0  0  0
  150.6798  137.3129  156.7320 C   0  0  0  0  0  0  0  0  0  0  0  0
  149.8779  136.4414  155.9440 C   0  0  0  0  0  0  0  0  0  0  0  0
  150.6643  135.3361  155.7913 C   0  0  0  0  0  0  0  0  0  0  0  0
  151.8519  135.5069  156.4249 O   0  0  0  0  0  0  0  0  0  0  0  0
  151.8535  136.7732  157.0210 N   0  0  0  0  0  0  0  0  0  0  0  0
  151.9004  141.7430  159.2629 C   0  0  1  0  0  0  0  0  0  0  0  0
  152.3771  140.2761  159.3455 C   0  0  0  0  0  0  0  0  0  0  0  0
  151.7971  142.3008  162.0187 H   0  0  0  0  0  0  0  0  0  0  0  0
  153.3839  143.0436  162.1863 H   0  0  0  0  0  0  0  0  0  0  0  0
  153.2618  141.3456  161.7890 H   0  0  0  0  0  0  0  0  0  0  0  0
  153.8239  142.5923  159.7497 H   0  0  0  0  0  0  0  0  0  0  0  0
  151.3873  144.3135  160.3629 H   0  0  0  0  0  0  0  0  0  0  0  0
  153.0567  144.8045  160.5127 H   0  0  0  0  0  0  0  0  0  0  0  0
  152.0882  145.6320  158.3885 H   0  0  0  0  0  0  0  0  0  0  0  0
  153.4098  144.5291  158.0788 H   0  0  0  0  0  0  0  0  0  0  0  0
  150.4338  143.8519  157.9839 H   0  0  0  0  0  0  0  0  0  0  0  0
  151.4957  144.0019  156.6037 H   0  0  0  0  0  0  0  0  0  0  0  0
  152.8266  142.0732  157.3407 H   0  0  0  0  0  0  0  0  0  0  0  0
  150.3456  141.9932  156.3741 H   0  0  0  0  0  0  0  0  0  0  0  0
  150.5633  138.7826  158.2905 H   0  0  0  0  0  0  0  0  0  0  0  0
  149.2959  138.9323  157.0765 H   0  0  0  0  0  0  0  0  0  0  0  0
  148.8826  136.6009  155.5567 H   0  0  0  0  0  0  0  0  0  0  0  0
  150.5280  134.3926  155.2836 H   0  0  0  0  0  0  0  0  0  0  0  0
  150.8891  141.7893  159.6707 H   0  0  0  0  0  0  0  0  0  0  0  0
  153.4070  140.1754  159.0017 H   0  0  0  0  0  0  0  0  0  0  0  0
  151.7627  139.6156  158.7339 H   0  0  0  0  0  0  0  0  0  0  0  0
  152.3222  139.8871  160.3612 H   0  0  0  0  0  0  0  0  0  0  0  0
  1  2  1  0  0  0  0
  1 19  1  0  0  0  0
  1 20  1  0  0  0  0
  1 21  1  0  0  0  0
  2 17  1  0  0  0  0
  2  3  1  0  0  0  0
  2 22  1  0  0  0  0
  3  4  1  0  0  0  0
  3 23  1  0  0  0  0
  3 24  1  0  0  0  0
  4  5  1  0  0  0  0
  4 25  1  0  0  0  0
  4 26  1  0  0  0  0
  5  6  1  0  0  0  0
  5 27  1  0  0  0  0
  5 28  1  0  0  0  0
  6  7  1  0  0  0  0
  6 17  1  0  0  0  0
  6 29  1  0  0  0  0
  7  8  1  0  0  0  0
  7 30  1  0  0  0  0
  8  9  2  0  0  0  0
  8 10  2  0  0  0  0
  8 11  1  0  0  0  0
 11 12  1  0  0  0  0
 11 31  1  0  0  0  0
 11 32  1  0  0  0  0
 12 16  2  0  0  0  0
 12 13  1  0  0  0  0
 13 14  2  0  0  0  0
 13 33  1  0  0  0  0
 14 15  1  0  0  0  0
 14 34  1  0  0  0  0
 15 16  1  0  0  0  0
 17 18  1  0  0  0  0
 17 35  1  0  0  0  0
 18 36  1  0  0  0  0
 18 37  1  0  0  0  0
 18 38  1  0  0  0  0
M  END
> <s_m_source_file>
AV-unprocessed.smi

> <i_m_source_file_index>
2451

> <i_lp_mmshare_version>
43012

> <i_f3d_flags>
0

> <s_epik_input>
W0NIM11bQ0BASF0xW0NIMl1bQ0gyXVtDSDJdW0NASF0oW0NASF0xW0NIM10pW05IXVMoPU8pKD1PKVtDSDJdYzJbY0hdW2NIXW9uMg==

> <s_epik_cmdline>
J2VwaWtfcHl0aG9uJywgJy1waCcsICc3LjAnLCAnLXRuJywgJzgnLCAnLW1hJywgJzIwMCcsICctbWV0YWxfYmluZGluZycsICctaW1hZScsICc8aW5maWxlLm1hZT4nLCAnLW9tYWUnLCAnPG91dGZpbGUubWFlPic=

> <r_lp_tautomer_probability>
1

> <r_epik_Ionization_Penalty>
8.73668e-05

> <r_epik_Ionization_Penalty_Charging>
0

> <r_epik_Ionization_Penalty_Neutral>
8.73668e-05

> <r_epik_State_Penalty>
-0

> <r_epik_Charging_Adjusted_Penalty>
0

> <i_epik_Tot_Q>
0

> <i_epik_Tot_abs_Q>
0

> <r_epik_Metal_State_Penalty>
0.0716439

> <b_epik_Metal_Only>
0

> <s_lp_Force_Field>
OPLS_2005

> <r_lp_Energy>
6.58047

> <b_lp_Chiralities_Consistent>
1

> <s_lp_Variant>
AV-unprocessed.smi:2451-3

> <Gold.Version>
5.8.1

> <Gold.Id.Protein>
6NUR|6NUR_protein|mol2

> <Gold.PLP.Fitness>
43.2560

> <Gold.PLP.PLP>
-35.1755

> <Gold.PLP.part.hbond>
-3.0000

> <Gold.PLP.part.metal>
0.0000

> <Gold.PLP.part.buried>
-5.1258

> <Gold.PLP.part.nonpolar>
-27.1364

> <Gold.PLP.part.repulsive>
0.0563

> <Gold.PLP.ligand.clash>
0.0000

> <Gold.PLP.ligand.torsion>
0.5320

> <Gold.PLP.Chemscore.Hbond>
3.0000

> <Gold.PLP.Chemscore.CHOScore>
0.0000

> <Gold.PLP.Chemscore.Metal>
0.0000

> <Gold.Chemscore.Hbonds>
donor molecule, donor type, donor heavy atom, donor atom, acceptor molecule, acceptor atom, score
      P1  H  7989  7998       L1     9  1.00
      P1  H  7997  8010       L1    10  1.00
      P1  H 10752 10763       L1    15  1.00

> <Gold.PLP.Chemscore.Internal.Correction>
0.1445

> <Gold.Rescore>
     Score         DG    S(hbond)    S(metal)    S(lipo)     H(rot)  DE(clash)    DE(int)     intcor
     20.14     -22.19       2.77        0.00     100.05       1.66       0.12       1.93       ----

> <Gold.Chemscore.Fitness>
20.1359

> <Gold.Chemscore.DG>
-22.1871

> <Gold.Chemscore.ZeroCoef>
-5.4800

> <Gold.Chemscore.Hbond>
2.7689

> <Gold.Chemscore.Metal>
0.0000

> <Gold.Chemscore.Lipo>
100.0482

> <Gold.Chemscore.Internal_Hbond>
0.0000

> <Gold.Chemscore.DEClash>
0.1169

> <Gold.Chemscore.DEInternal>
1.9343

> <Gold.Chemscore.Rot>
1.6588

> <Gold.Chemscore.Internal.Correction>
   9.000000E+99

> <Gold.Chemscore.Hbonds>
donor molecule, donor type, donor heavy atom, donor atom, acceptor molecule, acceptor atom, score
      P1  H  7989  7998       L1     9  1.00
      P1  H  7997  8010       L1    10  0.99
      P1  H 10752 10763       L1    15  0.59

> <Gold.Chemscore.Hbond.Weighted>
-9.2481

> <Gold.Chemscore.Metal.Weighted>
-0.0000

> <Gold.Chemscore.Lipo.Weighted>
-11.7056

> <Gold.Chemscore.Internal_Hbond.Weighted>
0.0000

> <Gold.Chemscore.DEClash.Weighted>
0.1169

> <Gold.Chemscore.DEInternal.Weighted>
1.9343

> <Gold.Chemscore.Rot.Weighted>
4.2466

> <Gold.Chemscore.Internal.Correction.Weighted>
   9.000000E+99

> <Gold.Protein.RotatedTorsions>
[ 6907 6896 6895 6894 ] final  -14.15 input  -60.11 | X-H torsion
[ 7974 7965 7964 7962 ] final  -32.98 input  175.53 | X-H torsion
[ 8008 7997 7996 7995 ] final   76.57 input   59.86 | X-H torsion
[ 10167 10162 10161 10158 ] final  158.33 input  -65.29 | X-H torsion
[ 10718 10713 10712 10709 ] final    4.31 input   66.30 | X-H torsion
[ 10763 10752 10751 10750 ] final  107.39 input  -60.55 | X-H torsion
[ 11005 11000 10999 10996 ] final   49.36 input  -57.11 | X-H torsion

> <Gold.Protein.ActiveResidues>
 VAL166  LYS551  ARG553  GLY616  TRP617  ASP618  TYR619  PRO620  LYS621  CYS622 
 ASP623  PHE694  ASN695  SER759  ASP760  ASP761  ALA762  ILE779  LEU786  VAL792 
 PHE793  MET794  SER795  GLU796  ALA797  LYS798  CYS799  TRP800  GLU811  SER814 

> <Gold.Protein.RotatedAtoms>
  151.3439  135.0870  159.9380 H   0  0  0  0  0  0  0  0  0  0  0  0  # atno 6907 bound_to 6896
  152.5204  133.9420  159.7641 H   0  0  0  0  0  0  0  0  0  0  0  0  # atno 6908 bound_to 6896
  150.9782  133.6219  159.2756 H   0  0  0  0  0  0  0  0  0  0  0  0  # atno 6909 bound_to 6896
  146.0947  140.5860  142.8848 H   0  0  0  0  0  0  0  0  0  0  0  0  # atno 7974 bound_to 7965
  155.8292  140.3467  155.5561 H   0  0  0  0  0  0  0  0  0  0  0  0  # atno 8008 bound_to 7997
  155.8260  140.0920  157.1840 H   0  0  0  0  0  0  0  0  0  0  0  0  # atno 8009 bound_to 7997
  154.4004  140.1421  156.3545 H   0  0  0  0  0  0  0  0  0  0  0  0  # atno 8010 bound_to 7997
  139.4826  144.4834  151.8411 H   0  0  0  0  0  0  0  0  0  0  0  0  # atno 10167 bound_to 10162
  156.8907  130.5686  149.5650 H   0  0  0  0  0  0  0  0  0  0  0  0  # atno 10718 bound_to 10713
  153.4060  135.3846  155.2019 H   0  0  0  0  0  0  0  0  0  0  0  0  # atno 10763 bound_to 10752
  154.8733  135.3783  154.4559 H   0  0  0  0  0  0  0  0  0  0  0  0  # atno 10764 bound_to 10752
  153.5062  135.7088  153.5867 H   0  0  0  0  0  0  0  0  0  0  0  0  # atno 10765 bound_to 10752
  140.1110  134.4955  155.8678 H   0  0  0  0  0  0  0  0  0  0  0  0  # atno 11005 bound_to 11000
  144.7386  140.4879  143.6885 LP  0  0  0  0  0  0  0  0  0  0  0  0  # atno 17320 bound_to 7965
  145.5971  139.1500  143.3149 LP  0  0  0  0  0  0  0  0  0  0  0  0  # atno 17321 bound_to 7965
  140.4312  144.2113  150.5888 LP  0  0  0  0  0  0  0  0  0  0  0  0  # atno 17342 bound_to 10162
  140.4777  143.2390  151.9000 LP  0  0  0  0  0  0  0  0  0  0  0  0  # atno 17343 bound_to 10162
  156.0630  130.5679  150.9232 LP  0  0  0  0  0  0  0  0  0  0  0  0  # atno 17370 bound_to 10713
  157.6085  131.0937  150.8837 LP  0  0  0  0  0  0  0  0  0  0  0  0  # atno 17371 bound_to 10713
  141.2130  133.6727  156.6704 LP  0  0  0  0  0  0  0  0  0  0  0  0  # atno 17394 bound_to 11000
  140.3091  134.8100  157.4162 LP  0  0  0  0  0  0  0  0  0  0  0  0  # atno 17395 bound_to 11000

$$$$
