AV-unprocessed.smi:2071|AV-procd|sdf|8440|dock9
  -GOLD-   2272011143D 1   1.00000     0.00000
 Structure written by MMmdl.
 45 47  0  0  0  0  0  0  0  0  1 V2000
  152.1755  139.7631  159.0049 O   0  0  0  0  0  0  0  0  0  0  0  0
  151.5644  140.1479  158.0084 C   0  0  0  0  0  0  0  0  0  0  0  0
  151.1036  139.3202  157.0598 N   0  0  0  0  0  0  0  0  0  0  0  0
  151.2624  137.8705  157.0631 C   0  0  0  0  0  0  0  0  0  0  0  0
  150.7932  137.2553  158.3908 C   0  0  0  0  0  0  0  0  0  0  0  0
  149.3229  137.5818  158.7009 C   0  0  0  0  0  0  0  0  0  0  0  0
  148.5760  136.3781  159.0760 N   0  0  0  0  0  0  0  0  0  0  0  0
  148.5650  135.2393  158.3595 C   0  0  0  0  0  0  0  0  0  0  0  0
  149.1500  135.0384  157.2962 O   0  0  0  0  0  0  0  0  0  0  0  0
  147.8065  134.3418  159.0019 N   0  0  0  0  0  0  0  0  0  0  0  0
  147.2612  134.8559  160.2424 C   0  0  0  0  0  0  0  0  0  0  0  0
  147.6913  134.0586  161.4804 C   0  0  0  0  0  0  0  0  0  0  0  0
  146.6387  134.3854  162.5484 C   0  0  0  0  0  0  0  0  0  0  0  0
  145.3824  134.8600  161.7958 C   0  0  0  0  0  0  0  0  0  0  0  0
  145.7281  134.8334  160.2996 C   0  0  0  0  0  0  0  0  0  0  0  0
  147.8483  136.2620  160.1948 C   0  0  0  0  0  0  0  0  0  0  0  0
  147.6714  137.1210  161.0595 O   0  0  0  0  0  0  0  0  0  0  0  0
  151.2560  141.4257  157.7268 N   0  0  0  0  0  0  0  0  0  0  0  0
  151.5590  142.6013  158.4669 C   0  0  0  0  0  0  0  0  0  0  0  0
  152.1286  142.6089  159.7637 C   0  0  0  0  0  0  0  0  0  0  0  0
  152.3940  143.8460  160.3825 C   0  0  0  0  0  0  0  0  0  0  0  0
  152.0882  145.0285  159.6818 C   0  0  0  0  0  0  0  0  0  0  0  0
  151.5572  145.0368  158.4413 N   0  0  0  0  0  0  0  0  0  0  0  0
  151.3052  143.8472  157.8546 C   0  0  0  0  0  0  0  0  0  0  0  0
  150.6075  139.7213  156.2773 H   0  0  0  0  0  0  0  0  0  0  0  0
  150.7207  137.4305  156.2241 H   0  0  0  0  0  0  0  0  0  0  0  0
  152.3172  137.6461  156.9029 H   0  0  0  0  0  0  0  0  0  0  0  0
  150.9272  136.1732  158.3553 H   0  0  0  0  0  0  0  0  0  0  0  0
  151.4231  137.6177  159.2046 H   0  0  0  0  0  0  0  0  0  0  0  0
  149.2680  138.3190  159.5039 H   0  0  0  0  0  0  0  0  0  0  0  0
  148.8554  138.0543  157.8353 H   0  0  0  0  0  0  0  0  0  0  0  0
  147.6343  133.4021  158.6751 H   0  0  0  0  0  0  0  0  0  0  0  0
  147.6684  132.9906  161.2587 H   0  0  0  0  0  0  0  0  0  0  0  0
  148.7013  134.2979  161.8166 H   0  0  0  0  0  0  0  0  0  0  0  0
  146.4333  133.5213  163.1809 H   0  0  0  0  0  0  0  0  0  0  0  0
  147.0000  135.1837  163.1980 H   0  0  0  0  0  0  0  0  0  0  0  0
  144.5190  134.2297  162.0114 H   0  0  0  0  0  0  0  0  0  0  0  0
  145.1285  135.8743  162.1063 H   0  0  0  0  0  0  0  0  0  0  0  0
  145.2656  135.6615  159.7600 H   0  0  0  0  0  0  0  0  0  0  0  0
  145.3546  133.9098  159.8548 H   0  0  0  0  0  0  0  0  0  0  0  0
  150.6914  141.5709  156.9026 H   0  0  0  0  0  0  0  0  0  0  0  0
  152.3789  141.7013  160.2899 H   0  0  0  0  0  0  0  0  0  0  0  0
  152.8266  143.8866  161.3713 H   0  0  0  0  0  0  0  0  0  0  0  0
  152.2801  145.9931  160.1277 H   0  0  0  0  0  0  0  0  0  0  0  0
  150.8818  143.8932  156.8615 H   0  0  0  0  0  0  0  0  0  0  0  0
  1  2  2  0  0  0  0
  2  3  1  0  0  0  0
  2 18  1  0  0  0  0
  3  4  1  0  0  0  0
  3 25  1  0  0  0  0
  4  5  1  0  0  0  0
  4 26  1  0  0  0  0
  4 27  1  0  0  0  0
  5  6  1  0  0  0  0
  5 28  1  0  0  0  0
  5 29  1  0  0  0  0
  6  7  1  0  0  0  0
  6 30  1  0  0  0  0
  6 31  1  0  0  0  0
  7 16  1  0  0  0  0
  7  8  1  0  0  0  0
  8  9  2  0  0  0  0
  8 10  1  0  0  0  0
 10 11  1  0  0  0  0
 10 32  1  0  0  0  0
 11 15  1  0  0  0  0
 11 12  1  0  0  0  0
 11 16  1  0  0  0  0
 12 13  1  0  0  0  0
 12 33  1  0  0  0  0
 12 34  1  0  0  0  0
 13 14  1  0  0  0  0
 13 35  1  0  0  0  0
 13 36  1  0  0  0  0
 14 15  1  0  0  0  0
 14 37  1  0  0  0  0
 14 38  1  0  0  0  0
 15 39  1  0  0  0  0
 15 40  1  0  0  0  0
 16 17  2  0  0  0  0
 18 19  1  0  0  0  0
 18 41  1  0  0  0  0
 19 24  1  0  0  0  0
 19 20  2  0  0  0  0
 20 21  1  0  0  0  0
 20 42  1  0  0  0  0
 21 22  2  0  0  0  0
 21 43  1  0  0  0  0
 22 23  1  0  0  0  0
 22 44  1  0  0  0  0
 23 24  2  0  0  0  0
 24 45  1  0  0  0  0
M  END
> <s_m_source_file>
AV-unprocessed.smi

> <i_m_source_file_index>
2071

> <i_lp_mmshare_version>
43012

> <i_f3d_flags>
0

> <s_epik_input>
W2NIXTFuW2NIXVtjSF1bY0hdYzFbTkhdQyg9TylbTkhdW0NIMl1bQ0gyXVtDSDJdTihDMj1PKUMoPU8pW05IXUMyM1tDSDJdW0NIMl1bQ0gyXVtDSDJdMw==

> <s_epik_cmdline>
J2VwaWtfcHl0aG9uJywgJy1waCcsICc3LjAnLCAnLXRuJywgJzgnLCAnLW1hJywgJzIwMCcsICctbWV0YWxfYmluZGluZycsICctaW1hZScsICc8aW5maWxlLm1hZT4nLCAnLW9tYWUnLCAnPG91dGZpbGUubWFlPic=

> <r_lp_tautomer_probability>
1

> <r_epik_Ionization_Penalty>
0.00482956

> <r_epik_Ionization_Penalty_Charging>
0

> <r_epik_Ionization_Penalty_Neutral>
0.00482956

> <r_epik_State_Penalty>
0.00344413

> <r_epik_Charging_Adjusted_Penalty>
0.00344413

> <i_epik_Tot_Q>
0

> <i_epik_Tot_abs_Q>
0

> <r_epik_Metal_State_Penalty>
0.0123255

> <b_epik_Metal_Only>
0

> <s_lp_Force_Field>
OPLS_2005

> <r_lp_Energy>
39.9018

> <b_lp_Chiralities_Consistent>
1

> <s_lp_Variant>
AV-unprocessed.smi:2071-1

> <Gold.Version>
5.8.1

> <Gold.Id.Protein>
6NUR|6NUR_protein|mol2

> <Gold.PLP.Fitness>
46.6051

> <Gold.PLP.PLP>
-39.0796

> <Gold.PLP.part.hbond>
-2.0000

> <Gold.PLP.part.metal>
0.0000

> <Gold.PLP.part.buried>
-5.8940

> <Gold.PLP.part.nonpolar>
-30.3810

> <Gold.PLP.part.repulsive>
0.2640

> <Gold.PLP.ligand.clash>
0.0000

> <Gold.PLP.ligand.torsion>
0.4567

> <Gold.PLP.Chemscore.Hbond>
1.8080

> <Gold.PLP.Chemscore.CHOScore>
1.0000

> <Gold.PLP.Chemscore.Metal>
0.0000

> <Gold.Chemscore.Hbonds>
donor molecule, donor type, donor heavy atom, donor atom, acceptor molecule, acceptor atom, score
      P1  H  6931  6943       L1    17  0.93
      P1  H  6934  6947       L1    17  0.90
      L1  C    24    45       P1  8028  1.00

> <Gold.PLP.Chemscore.Internal.Correction>
0.0148

> <Gold.Rescore>
     Score         DG    S(hbond)    S(metal)    S(lipo)     H(rot)  DE(clash)    DE(int)     intcor
     15.13     -17.96       1.68        0.00     101.64       1.96       0.05       2.79       ----

> <Gold.Chemscore.Fitness>
15.1280

> <Gold.Chemscore.DG>
-17.9593

> <Gold.Chemscore.ZeroCoef>
-5.4800

> <Gold.Chemscore.Hbond>
1.6808

> <Gold.Chemscore.Metal>
0.0000

> <Gold.Chemscore.Lipo>
101.6377

> <Gold.Chemscore.Internal_Hbond>
0.0000

> <Gold.Chemscore.DEClash>
0.0458

> <Gold.Chemscore.DEInternal>
2.7854

> <Gold.Chemscore.Rot>
1.9634

> <Gold.Chemscore.Internal.Correction>
   9.000000E+99

> <Gold.Chemscore.Hbonds>
donor molecule, donor type, donor heavy atom, donor atom, acceptor molecule, acceptor atom, score
      P1  H  6931  6943       L1    17  0.90
      P1  H  6934  6947       L1    17  0.87

> <Gold.Chemscore.Hbond.Weighted>
-5.6140

> <Gold.Chemscore.Metal.Weighted>
-0.0000

> <Gold.Chemscore.Lipo.Weighted>
-11.8916

> <Gold.Chemscore.Internal_Hbond.Weighted>
0.0000

> <Gold.Chemscore.DEClash.Weighted>
0.0458

> <Gold.Chemscore.DEInternal.Weighted>
2.7854

> <Gold.Chemscore.Rot.Weighted>
5.0263

> <Gold.Chemscore.Internal.Correction.Weighted>
   9.000000E+99

> <Gold.Protein.RotatedTorsions>
[ 6907 6896 6895 6894 ] final  -87.35 input  -60.11 | X-H torsion
[ 7974 7965 7964 7962 ] final  158.10 input  175.53 | X-H torsion
[ 8008 7997 7996 7995 ] final  170.03 input   59.86 | X-H torsion
[ 10167 10162 10161 10158 ] final  111.09 input  -65.29 | X-H torsion
[ 10718 10713 10712 10709 ] final  -75.56 input   66.30 | X-H torsion
[ 10763 10752 10751 10750 ] final   24.57 input  -60.55 | X-H torsion
[ 11005 11000 10999 10996 ] final   62.43 input  -57.11 | X-H torsion

> <Gold.Protein.ActiveResidues>
 VAL166  LYS551  ARG553  GLY616  TRP617  ASP618  TYR619  PRO620  LYS621  CYS622 
 ASP623  PHE694  ASN695  SER759  ASP760  ASP761  ALA762  ILE779  LEU786  VAL792 
 PHE793  MET794  SER795  GLU796  ALA797  LYS798  CYS799  TRP800  GLU811  SER814 

> <Gold.Protein.RotatedAtoms>
  150.6866  134.2909  159.4666 H   0  0  0  0  0  0  0  0  0  0  0  0  # atno 6907 bound_to 6896
  152.0815  134.9465  160.0582 H   0  0  0  0  0  0  0  0  0  0  0  0  # atno 6908 bound_to 6896
  152.0817  133.4121  159.4541 H   0  0  0  0  0  0  0  0  0  0  0  0  # atno 6909 bound_to 6896
  144.7865  139.7431  143.6238 H   0  0  0  0  0  0  0  0  0  0  0  0  # atno 7974 bound_to 7965
  156.1403  140.1548  156.8930 H   0  0  0  0  0  0  0  0  0  0  0  0  # atno 8008 bound_to 7997
  154.4982  140.0832  156.7780 H   0  0  0  0  0  0  0  0  0  0  0  0  # atno 8009 bound_to 7997
  155.4091  140.3418  155.4264 H   0  0  0  0  0  0  0  0  0  0  0  0  # atno 8010 bound_to 7997
  139.6638  144.7128  151.1815 H   0  0  0  0  0  0  0  0  0  0  0  0  # atno 10167 bound_to 10162
  156.0203  130.4444  150.3061 H   0  0  0  0  0  0  0  0  0  0  0  0  # atno 10718 bound_to 10713
  153.0754  135.6602  154.0156 H   0  0  0  0  0  0  0  0  0  0  0  0  # atno 10763 bound_to 10752
  153.9791  135.2957  155.3423 H   0  0  0  0  0  0  0  0  0  0  0  0  # atno 10764 bound_to 10752
  154.7141  135.5192  153.8782 H   0  0  0  0  0  0  0  0  0  0  0  0  # atno 10765 bound_to 10752
  140.0092  134.6322  155.9806 H   0  0  0  0  0  0  0  0  0  0  0  0  # atno 11005 bound_to 11000
  146.2099  139.5448  142.9688 LP  0  0  0  0  0  0  0  0  0  0  0  0  # atno 17320 bound_to 7965
  145.5907  141.0370  143.2071 LP  0  0  0  0  0  0  0  0  0  0  0  0  # atno 17321 bound_to 7965
  140.7591  143.5952  150.8756 LP  0  0  0  0  0  0  0  0  0  0  0  0  # atno 17342 bound_to 10162
  139.9612  143.6162  152.3002 LP  0  0  0  0  0  0  0  0  0  0  0  0  # atno 17343 bound_to 10162
  157.1164  131.0235  151.3027 LP  0  0  0  0  0  0  0  0  0  0  0  0  # atno 17370 bound_to 10713
  157.4664  130.7683  149.7282 LP  0  0  0  0  0  0  0  0  0  0  0  0  # atno 17371 bound_to 10713
  141.1699  133.6537  156.4614 LP  0  0  0  0  0  0  0  0  0  0  0  0  # atno 17394 bound_to 11000
  140.4585  134.6863  157.5074 LP  0  0  0  0  0  0  0  0  0  0  0  0  # atno 17395 bound_to 11000

$$$$
