AV-unprocessed.smi:467|AV-procd|sdf|2643|dock2
  -GOLD-   2262023 53D 1   1.00000     0.00000
 Structure written by MMmdl.
 44 46  0  0  0  0  0  0  0  0  1 V2000
  153.0071  142.7895  161.0101 C   0  0  0  0  0  0  0  0  0  0  0  0
  152.3403  142.4541  159.6876 C   0  0  0  0  0  0  0  0  0  0  0  0
  152.4462  141.1402  159.1785 C   0  0  0  0  0  0  0  0  0  0  0  0
  151.8434  140.7881  157.9509 C   0  0  0  0  0  0  0  0  0  0  0  0
  151.8221  139.5804  157.2744 N   0  0  0  0  0  0  0  0  0  0  0  0
  151.1086  139.8905  156.1958 C   0  0  0  0  0  0  0  0  0  0  0  0
  150.6636  141.1573  156.0938 N   0  0  0  0  0  0  0  0  0  0  0  0
  149.8782  141.7191  155.0095 C   0  0  0  0  0  0  0  0  0  0  0  0
  148.7200  140.7943  154.5832 C   0  0  2  0  0  0  0  0  0  0  0  0
  149.2382  139.7002  153.8535 O   0  0  0  0  0  0  0  0  0  0  0  0
  147.6853  141.5056  153.6886 C   0  0  0  0  0  0  0  0  0  0  0  0
  146.7642  142.4079  154.3808 N   0  0  0  0  0  0  0  0  0  0  0  0
  145.9647  141.7276  155.3983 C   0  0  0  0  0  0  0  0  0  0  0  0
  144.9768  142.6843  156.0893 C   0  0  0  0  0  0  0  0  0  0  0  0
  144.1440  143.3028  155.1144 O   0  0  0  0  0  0  0  0  0  0  0  0
  144.8882  144.0195  154.1354 C   0  0  0  0  0  0  0  0  0  0  0  0
  145.8673  143.0625  153.4342 C   0  0  0  0  0  0  0  0  0  0  0  0
  151.1256  141.7946  157.2407 C   0  0  0  0  0  0  0  0  0  0  0  0
  151.0121  143.1052  157.7378 C   0  0  0  0  0  0  0  0  0  0  0  0
  151.6201  143.4397  158.9660 C   0  0  0  0  0  0  0  0  0  0  0  0
  151.4927  144.8578  159.4938 C   0  0  0  0  0  0  0  0  0  0  0  0
  153.5434  141.9311  161.4154 H   0  0  0  0  0  0  0  0  0  0  0  0
  152.2629  143.0978  161.7449 H   0  0  0  0  0  0  0  0  0  0  0  0
  153.7245  143.6004  160.8823 H   0  0  0  0  0  0  0  0  0  0  0  0
  152.9951  140.3893  159.7274 H   0  0  0  0  0  0  0  0  0  0  0  0
  150.8982  139.1551  155.4330 H   0  0  0  0  0  0  0  0  0  0  0  0
  149.4906  142.6839  155.3393 H   0  0  0  0  0  0  0  0  0  0  0  0
  150.5386  141.9234  154.1659 H   0  0  0  0  0  0  0  0  0  0  0  0
  148.2356  140.3796  155.4667 H   0  0  0  0  0  0  0  0  0  0  0  0
  149.6458  140.0294  153.0673 H   0  0  0  0  0  0  0  0  0  0  0  0
  148.2306  142.0699  152.9305 H   0  0  0  0  0  0  0  0  0  0  0  0
  147.1087  140.7573  153.1421 H   0  0  0  0  0  0  0  0  0  0  0  0
  145.4110  140.9038  154.9452 H   0  0  0  0  0  0  0  0  0  0  0  0
  146.6101  141.2903  156.1591 H   0  0  0  0  0  0  0  0  0  0  0  0
  144.3525  142.1383  156.7968 H   0  0  0  0  0  0  0  0  0  0  0  0
  145.5123  143.4472  156.6563 H   0  0  0  0  0  0  0  0  0  0  0  0
  144.1991  144.4553  153.4120 H   0  0  0  0  0  0  0  0  0  0  0  0
  145.4243  144.8446  154.6068 H   0  0  0  0  0  0  0  0  0  0  0  0
  146.4479  143.6196  152.6981 H   0  0  0  0  0  0  0  0  0  0  0  0
  145.3008  142.3118  152.8809 H   0  0  0  0  0  0  0  0  0  0  0  0
  150.4642  143.8475  157.1764 H   0  0  0  0  0  0  0  0  0  0  0  0
  150.9026  145.4812  158.8217 H   0  0  0  0  0  0  0  0  0  0  0  0
  152.4765  145.3158  159.5973 H   0  0  0  0  0  0  0  0  0  0  0  0
  151.0043  144.8607  160.4686 H   0  0  0  0  0  0  0  0  0  0  0  0
  1  2  1  0  0  0  0
  1 22  1  0  0  0  0
  1 23  1  0  0  0  0
  1 24  1  0  0  0  0
  2 20  1  0  0  0  0
  2  3  2  0  0  0  0
  3  4  1  0  0  0  0
  3 25  1  0  0  0  0
  4 18  2  0  0  0  0
  4  5  1  0  0  0  0
  5  6  2  0  0  0  0
  6  7  1  0  0  0  0
  6 26  1  0  0  0  0
  7  8  1  0  0  0  0
  7 18  1  0  0  0  0
  8  9  1  0  0  0  0
  8 27  1  0  0  0  0
  8 28  1  0  0  0  0
  9 10  1  0  0  0  0
  9 11  1  0  0  0  0
  9 29  1  0  0  0  0
 10 30  1  0  0  0  0
 11 12  1  0  0  0  0
 11 31  1  0  0  0  0
 11 32  1  0  0  0  0
 12 17  1  0  0  0  0
 12 13  1  0  0  0  0
 13 14  1  0  0  0  0
 13 33  1  0  0  0  0
 13 34  1  0  0  0  0
 14 15  1  0  0  0  0
 14 35  1  0  0  0  0
 14 36  1  0  0  0  0
 15 16  1  0  0  0  0
 16 17  1  0  0  0  0
 16 37  1  0  0  0  0
 16 38  1  0  0  0  0
 17 39  1  0  0  0  0
 17 40  1  0  0  0  0
 18 19  1  0  0  0  0
 19 20  2  0  0  0  0
 19 41  1  0  0  0  0
 20 21  1  0  0  0  0
 21 42  1  0  0  0  0
 21 43  1  0  0  0  0
 21 44  1  0  0  0  0
M  END
> <s_m_source_file>
AV-unprocessed.smi

> <i_m_source_file_index>
467

> <i_lp_mmshare_version>
43012

> <i_f3d_flags>
0

> <s_epik_input>
W0NIM11jKFtjSF0xKWMoW0NIM10pW2NIXWMoYzEyKW4oW2NIXW4yKVtDSDJdW0NASF0oW09IXSlbQ0gyXU4zW0NIMl1bQ0gyXU9bQ0gyXVtDSDJdMw==

> <s_epik_cmdline>
J2VwaWtfcHl0aG9uJywgJy1waCcsICc3LjAnLCAnLXRuJywgJzgnLCAnLW1hJywgJzIwMCcsICctbWV0YWxfYmluZGluZycsICctaW1hZScsICc8aW5maWxlLm1hZT4nLCAnLW9tYWUnLCAnPG91dGZpbGUubWFlPic=

> <r_epik_Ionization_Penalty>
0.345029

> <r_epik_Ionization_Penalty_Charging>
0

> <r_epik_Ionization_Penalty_Neutral>
0.345029

> <r_epik_State_Penalty>
0.314465

> <r_epik_Charging_Adjusted_Penalty>
0.314465

> <i_epik_Tot_Q>
0

> <i_epik_Tot_abs_Q>
0

> <r_epik_Metal_State_Penalty>
0.239717

> <b_epik_Metal_Only>
0

> <s_lp_Force_Field>
OPLS_2005

> <r_lp_Energy>
28.2503

> <b_lp_Chiralities_Consistent>
1

> <s_lp_Variant>
AV-unprocessed.smi:467-1

> <Gold.Version>
5.8.1

> <Gold.Id.Protein>
6NUR|6NUR_protein|mol2

> <Gold.PLP.Fitness>
48.4455

> <Gold.PLP.PLP>
-46.2617

> <Gold.PLP.part.hbond>
-1.0000

> <Gold.PLP.part.metal>
0.0000

> <Gold.PLP.part.buried>
-6.3648

> <Gold.PLP.part.nonpolar>
-38.4032

> <Gold.PLP.part.repulsive>
0.3008

> <Gold.PLP.ligand.clash>
0.0000

> <Gold.PLP.ligand.torsion>
0.4225

> <Gold.PLP.Chemscore.Hbond>
1.0000

> <Gold.PLP.Chemscore.CHOScore>
0.0000

> <Gold.PLP.Chemscore.Metal>
0.0000

> <Gold.Chemscore.Hbonds>
donor molecule, donor type, donor heavy atom, donor atom, acceptor molecule, acceptor atom, score
      L1  H    10    30       P1  7957  0.93

> <Gold.PLP.Chemscore.Internal.Correction>
0.0287

> <Gold.Rescore>
     Score         DG    S(hbond)    S(metal)    S(lipo)     H(rot)  DE(clash)    DE(int)     intcor
     16.92     -17.65       0.95        0.00     121.06       2.02       0.31       0.43       ----

> <Gold.Chemscore.Fitness>
16.9235

> <Gold.Chemscore.DG>
-17.6547

> <Gold.Chemscore.ZeroCoef>
-5.4800

> <Gold.Chemscore.Hbond>
0.9546

> <Gold.Chemscore.Metal>
0.0000

> <Gold.Chemscore.Lipo>
121.0630

> <Gold.Chemscore.Internal_Hbond>
0.0000

> <Gold.Chemscore.DEClash>
0.3055

> <Gold.Chemscore.DEInternal>
0.4257

> <Gold.Chemscore.Rot>
2.0227

> <Gold.Chemscore.Internal.Correction>
   9.000000E+99

> <Gold.Chemscore.Hbonds>
donor molecule, donor type, donor heavy atom, donor atom, acceptor molecule, acceptor atom, score
      L1  H    10    30       P1  7957  0.89

> <Gold.Chemscore.Hbond.Weighted>
-3.1883

> <Gold.Chemscore.Metal.Weighted>
-0.0000

> <Gold.Chemscore.Lipo.Weighted>
-14.1644

> <Gold.Chemscore.Internal_Hbond.Weighted>
0.0000

> <Gold.Chemscore.DEClash.Weighted>
0.3055

> <Gold.Chemscore.DEInternal.Weighted>
0.4257

> <Gold.Chemscore.Rot.Weighted>
5.1780

> <Gold.Chemscore.Internal.Correction.Weighted>
   9.000000E+99

> <Gold.Protein.RotatedTorsions>
[ 6907 6896 6895 6894 ] final  169.91 input  -60.11 | X-H torsion
[ 7974 7965 7964 7962 ] final -140.48 input  175.53 | X-H torsion
[ 8008 7997 7996 7995 ] final    3.99 input   59.86 | X-H torsion
[ 10167 10162 10161 10158 ] final  -82.04 input  -65.29 | X-H torsion
[ 10718 10713 10712 10709 ] final -146.27 input   66.30 | X-H torsion
[ 10763 10752 10751 10750 ] final   28.33 input  -60.55 | X-H torsion
[ 11005 11000 10999 10996 ] final   53.43 input  -57.11 | X-H torsion

> <Gold.Protein.ActiveResidues>
 VAL166  LYS551  ARG553  GLY616  TRP617  ASP618  TYR619  PRO620  LYS621  CYS622 
 ASP623  PHE694  ASN695  SER759  ASP760  ASP761  ALA762  ILE779  LEU786  VAL792 
 PHE793  MET794  SER795  GLU796  ALA797  LYS798  CYS799  TRP800  GLU811  SER814 

> <Gold.Protein.RotatedAtoms>
  151.8245  133.3399  159.3593 H   0  0  0  0  0  0  0  0  0  0  0  0  # atno 6907 bound_to 6896
  150.7284  134.5542  159.5819 H   0  0  0  0  0  0  0  0  0  0  0  0  # atno 6908 bound_to 6896
  152.2982  134.7643  160.0415 H   0  0  0  0  0  0  0  0  0  0  0  0  # atno 6909 bound_to 6896
  144.8594  140.6195  143.5338 H   0  0  0  0  0  0  0  0  0  0  0  0  # atno 7974 bound_to 7965
  154.7104  140.2691  155.6635 H   0  0  0  0  0  0  0  0  0  0  0  0  # atno 8008 bound_to 7997
  156.2793  140.2754  156.1668 H   0  0  0  0  0  0  0  0  0  0  0  0  # atno 8009 bound_to 7997
  155.0643  140.0371  157.2577 H   0  0  0  0  0  0  0  0  0  0  0  0  # atno 8010 bound_to 7997
  140.4356  143.2533  151.8698 H   0  0  0  0  0  0  0  0  0  0  0  0  # atno 10167 bound_to 10162
  156.3928  130.7894  151.2098 H   0  0  0  0  0  0  0  0  0  0  0  0  # atno 10718 bound_to 10713
  153.0498  135.6516  154.0722 H   0  0  0  0  0  0  0  0  0  0  0  0  # atno 10763 bound_to 10752
  154.0412  135.2903  155.3356 H   0  0  0  0  0  0  0  0  0  0  0  0  # atno 10764 bound_to 10752
  154.6780  135.5331  153.8291 H   0  0  0  0  0  0  0  0  0  0  0  0  # atno 10765 bound_to 10752
  140.0767  134.5394  155.8989 H   0  0  0  0  0  0  0  0  0  0  0  0  # atno 11005 bound_to 11000
  145.4342  139.1545  143.4006 LP  0  0  0  0  0  0  0  0  0  0  0  0  # atno 17320 bound_to 7965
  146.2849  140.4459  142.8762 LP  0  0  0  0  0  0  0  0  0  0  0  0  # atno 17321 bound_to 7965
  139.4787  144.5286  151.8699 LP  0  0  0  0  0  0  0  0  0  0  0  0  # atno 17342 bound_to 10162
  140.4377  144.2029  150.5890 LP  0  0  0  0  0  0  0  0  0  0  0  0  # atno 17343 bound_to 10162
  157.7500  131.0310  150.4164 LP  0  0  0  0  0  0  0  0  0  0  0  0  # atno 17370 bound_to 10713
  156.4428  130.3995  149.6686 LP  0  0  0  0  0  0  0  0  0  0  0  0  # atno 17371 bound_to 10713
  141.2032  133.6630  156.6050 LP  0  0  0  0  0  0  0  0  0  0  0  0  # atno 17394 bound_to 11000
  140.3547  134.7739  157.4492 LP  0  0  0  0  0  0  0  0  0  0  0  0  # atno 17395 bound_to 11000

$$$$
