AV-unprocessed.smi:767|AV-procd|sdf|3664|dock6
  -GOLD-   22720 1 73D 1   1.00000     0.00000
 Structure written by MMmdl.
 47 49  0  0  0  0  0  0  0  0  1 V2000
  145.6436  129.9980  151.9911 C   0  0  0  0  0  0  0  0  0  0  0  0
  145.4225  131.4841  151.8031 C   0  0  0  0  0  0  0  0  0  0  0  0
  145.5344  132.3718  152.8932 C   0  0  0  0  0  0  0  0  0  0  0  0
  145.3383  133.7466  152.6614 C   0  0  0  0  0  0  0  0  0  0  0  0
  145.0327  134.1800  151.3547 C   0  0  0  0  0  0  0  0  0  0  0  0
  144.8447  135.6559  151.0447 C   0  0  0  0  0  0  0  0  0  0  0  0
  144.9953  136.5774  152.2717 C   0  0  0  0  0  0  0  0  0  0  0  0
  146.3923  136.7636  152.6595 N   0  0  0  0  0  0  0  0  0  0  0  0
  146.8102  137.4109  153.7574 C   0  0  0  0  0  0  0  0  0  0  0  0
  146.0576  137.8967  154.6023 O   0  0  0  0  0  0  0  0  0  0  0  0
  148.1456  137.4895  153.8167 N   0  0  0  0  0  0  0  0  0  0  0  0
  148.8661  138.2143  154.8565 C   0  0  1  0  0  0  0  0  0  0  0  0
  150.3308  138.4686  154.5040 C   0  0  2  0  0  0  0  0  0  0  0  0
  151.6326  138.0027  155.0513 C   0  0  0  0  0  0  0  0  0  0  0  0
  152.3441  139.3809  155.1141 C   0  0  0  0  0  0  0  0  0  0  0  0
  151.3161  140.3711  154.8671 O   0  0  0  0  0  0  0  0  0  0  0  0
  150.1310  139.7410  155.3077 C   0  0  1  0  0  0  0  0  0  0  0  0
  148.6885  139.7771  154.7645 C   0  0  0  0  0  0  0  0  0  0  0  0
  148.4574  140.4423  153.3925 C   0  0  0  0  0  0  0  0  0  0  0  0
  147.6360  140.3647  155.7055 C   0  0  0  0  0  0  0  0  0  0  0  0
  144.9264  133.2069  150.3378 C   0  0  0  0  0  0  0  0  0  0  0  0
  145.1187  131.8873  150.5498 N   0  0  0  0  0  0  0  0  0  0  0  0
  146.2643  129.8048  152.8666 H   0  0  0  0  0  0  0  0  0  0  0  0
  146.1431  129.5661  151.1230 H   0  0  0  0  0  0  0  0  0  0  0  0
  144.6886  129.4904  152.1282 H   0  0  0  0  0  0  0  0  0  0  0  0
  145.7772  132.0117  153.8821 H   0  0  0  0  0  0  0  0  0  0  0  0
  145.4324  134.4535  153.4725 H   0  0  0  0  0  0  0  0  0  0  0  0
  145.5655  135.9452  150.2794 H   0  0  0  0  0  0  0  0  0  0  0  0
  143.8588  135.8026  150.6020 H   0  0  0  0  0  0  0  0  0  0  0  0
  144.5218  137.5401  152.0725 H   0  0  0  0  0  0  0  0  0  0  0  0
  144.4577  136.1492  153.1178 H   0  0  0  0  0  0  0  0  0  0  0  0
  147.0911  136.3997  152.0283 H   0  0  0  0  0  0  0  0  0  0  0  0
  148.6923  137.0632  153.0830 H   0  0  0  0  0  0  0  0  0  0  0  0
  148.7344  137.8049  155.8626 H   0  0  0  0  0  0  0  0  0  0  0  0
  150.4377  138.6474  153.4317 H   0  0  0  0  0  0  0  0  0  0  0  0
  151.5230  137.5528  156.0391 H   0  0  0  0  0  0  0  0  0  0  0  0
  152.1414  137.2985  154.3928 H   0  0  0  0  0  0  0  0  0  0  0  0
  152.7977  139.5385  156.0935 H   0  0  0  0  0  0  0  0  0  0  0  0
  153.1262  139.4712  154.3599 H   0  0  0  0  0  0  0  0  0  0  0  0
  150.1557  139.5891  156.3931 H   0  0  0  0  0  0  0  0  0  0  0  0
  148.4963  141.5291  153.4703 H   0  0  0  0  0  0  0  0  0  0  0  0
  147.4789  140.1831  152.9906 H   0  0  0  0  0  0  0  0  0  0  0  0
  149.1905  140.1629  152.6382 H   0  0  0  0  0  0  0  0  0  0  0  0
  147.7494  141.4439  155.8123 H   0  0  0  0  0  0  0  0  0  0  0  0
  147.7056  139.9325  156.7039 H   0  0  0  0  0  0  0  0  0  0  0  0
  146.6252  140.1730  155.3438 H   0  0  0  0  0  0  0  0  0  0  0  0
  144.6981  133.4969  149.3228 H   0  0  0  0  0  0  0  0  0  0  0  0
  1  2  1  0  0  0  0
  1 23  1  0  0  0  0
  1 24  1  0  0  0  0
  1 25  1  0  0  0  0
  2 22  1  0  0  0  0
  2  3  2  0  0  0  0
  3  4  1  0  0  0  0
  3 26  1  0  0  0  0
  4  5  2  0  0  0  0
  4 27  1  0  0  0  0
  5  6  1  0  0  0  0
  5 21  1  0  0  0  0
  6  7  1  0  0  0  0
  6 28  1  0  0  0  0
  6 29  1  0  0  0  0
  7  8  1  0  0  0  0
  7 30  1  0  0  0  0
  7 31  1  0  0  0  0
  8  9  1  0  0  0  0
  8 32  1  0  0  0  0
  9 10  2  0  0  0  0
  9 11  1  0  0  0  0
 11 12  1  0  0  0  0
 11 33  1  0  0  0  0
 12 18  1  0  0  0  0
 12 13  1  0  0  0  0
 12 34  1  0  0  0  0
 13 17  1  0  0  0  0
 13 14  1  0  0  0  0
 13 35  1  0  0  0  0
 14 15  1  0  0  0  0
 14 36  1  0  0  0  0
 14 37  1  0  0  0  0
 15 16  1  0  0  0  0
 15 38  1  0  0  0  0
 15 39  1  0  0  0  0
 16 17  1  0  0  0  0
 17 18  1  0  0  0  0
 17 40  1  0  0  0  0
 18 19  1  0  0  0  0
 18 20  1  0  0  0  0
 19 41  1  0  0  0  0
 19 42  1  0  0  0  0
 19 43  1  0  0  0  0
 20 44  1  0  0  0  0
 20 45  1  0  0  0  0
 20 46  1  0  0  0  0
 21 22  2  0  0  0  0
 21 47  1  0  0  0  0
M  END
> <s_m_source_file>
AV-unprocessed.smi

> <i_m_source_file_index>
767

> <i_lp_mmshare_version>
43012

> <i_f3d_flags>
0

> <s_epik_input>
W0NIM11jMVtjSF1bY0hdYyhbY0hdbjEpW0NIMl1bQ0gyXVtOSF1DKD1PKVtOSF1bQ0BIXTJDKFtDSDNdKShbQ0gzXSlbQ0BIXShbQ0BASF0yMylPW0NIMl1bQ0gyXTM=

> <s_epik_cmdline>
J2VwaWtfcHl0aG9uJywgJy1waCcsICc3LjAnLCAnLXRuJywgJzgnLCAnLW1hJywgJzIwMCcsICctbWV0YWxfYmluZGluZycsICctaW1hZScsICc8aW5maWxlLm1hZT4nLCAnLW9tYWUnLCAnPG91dGZpbGUubWFlPic=

> <r_epik_Ionization_Penalty>
0.0567523

> <r_epik_Ionization_Penalty_Charging>
0

> <r_epik_Ionization_Penalty_Neutral>
0.0567523

> <r_epik_State_Penalty>
0.0489186

> <r_epik_Charging_Adjusted_Penalty>
0.0489186

> <i_epik_Tot_Q>
0

> <i_epik_Tot_abs_Q>
0

> <r_epik_Metal_State_Penalty>
0.044622

> <b_epik_Metal_Only>
0

> <s_lp_Force_Field>
OPLS_2005

> <r_lp_Energy>
55.1366

> <b_lp_Chiralities_Consistent>
1

> <s_lp_Variant>
AV-unprocessed.smi:767-8

> <Gold.Version>
5.8.1

> <Gold.Id.Protein>
6NUR|6NUR_protein|mol2

> <Gold.PLP.Fitness>
44.1158

> <Gold.PLP.PLP>
-32.6360

> <Gold.PLP.part.hbond>
-2.8693

> <Gold.PLP.part.metal>
0.0000

> <Gold.PLP.part.buried>
-1.4696

> <Gold.PLP.part.nonpolar>
-28.3074

> <Gold.PLP.part.repulsive>
0.2689

> <Gold.PLP.ligand.clash>
0.0000

> <Gold.PLP.ligand.torsion>
0.2196

> <Gold.PLP.Chemscore.Hbond>
2.8800

> <Gold.PLP.Chemscore.CHOScore>
1.0000

> <Gold.PLP.Chemscore.Metal>
0.0000

> <Gold.Chemscore.Hbonds>
donor molecule, donor type, donor heavy atom, donor atom, acceptor molecule, acceptor atom, score
      L1  H     8    32       P1  7948  0.85
      L1  H    11    33       P1  7948  0.89
      P1  H  7989  7998       L1    16  0.89
      L1  C    21    47       P1  7921  0.89

> <Gold.PLP.Chemscore.Internal.Correction>
0.2788

> <Gold.Rescore>
     Score         DG    S(hbond)    S(metal)    S(lipo)     H(rot)  DE(clash)    DE(int)     intcor
     19.84     -21.74       2.62        0.00      95.79       1.45       1.66       0.24       ----

> <Gold.Chemscore.Fitness>
19.8413

> <Gold.Chemscore.DG>
-21.7424

> <Gold.Chemscore.ZeroCoef>
-5.4800

> <Gold.Chemscore.Hbond>
2.6246

> <Gold.Chemscore.Metal>
0.0000

> <Gold.Chemscore.Lipo>
95.7909

> <Gold.Chemscore.Internal_Hbond>
0.0000

> <Gold.Chemscore.DEClash>
1.6624

> <Gold.Chemscore.DEInternal>
0.2388

> <Gold.Chemscore.Rot>
1.4497

> <Gold.Chemscore.Internal.Correction>
   9.000000E+99

> <Gold.Chemscore.Hbonds>
donor molecule, donor type, donor heavy atom, donor atom, acceptor molecule, acceptor atom, score
      L1  H     8    32       P1  7948  0.83
      L1  H    11    33       P1  7948  0.86
      P1  H  7989  7998       L1    16  0.33

> <Gold.Chemscore.Hbond.Weighted>
-8.7661

> <Gold.Chemscore.Metal.Weighted>
-0.0000

> <Gold.Chemscore.Lipo.Weighted>
-11.2075

> <Gold.Chemscore.Internal_Hbond.Weighted>
0.0000

> <Gold.Chemscore.DEClash.Weighted>
1.6624

> <Gold.Chemscore.DEInternal.Weighted>
0.2388

> <Gold.Chemscore.Rot.Weighted>
3.7112

> <Gold.Chemscore.Internal.Correction.Weighted>
   9.000000E+99

> <Gold.Protein.RotatedTorsions>
[ 6907 6896 6895 6894 ] final  137.56 input  -60.11 | X-H torsion
[ 7974 7965 7964 7962 ] final  -52.53 input  175.53 | X-H torsion
[ 8008 7997 7996 7995 ] final   -3.44 input   59.86 | X-H torsion
[ 10167 10162 10161 10158 ] final   50.21 input  -65.29 | X-H torsion
[ 10718 10713 10712 10709 ] final -126.13 input   66.30 | X-H torsion
[ 10763 10752 10751 10750 ] final    7.87 input  -60.55 | X-H torsion
[ 11005 11000 10999 10996 ] final  161.11 input  -57.11 | X-H torsion

> <Gold.Protein.ActiveResidues>
 VAL166  LYS551  ARG553  GLY616  TRP617  ASP618  TYR619  PRO620  LYS621  CYS622 
 ASP623  PHE694  ASN695  SER759  ASP760  ASP761  ALA762  ILE779  LEU786  VAL792 
 PHE793  MET794  SER795  GLU796  ALA797  LYS798  CYS799  TRP800  GLU811  SER814 

> <Gold.Protein.RotatedAtoms>
  152.2767  133.5432  159.5471 H   0  0  0  0  0  0  0  0  0  0  0  0  # atno 6907 bound_to 6896
  150.7180  134.0622  159.3844 H   0  0  0  0  0  0  0  0  0  0  0  0  # atno 6908 bound_to 6896
  151.8535  135.0549  160.0512 H   0  0  0  0  0  0  0  0  0  0  0  0  # atno 6909 bound_to 6896
  145.9070  140.7947  142.9714 H   0  0  0  0  0  0  0  0  0  0  0  0  # atno 7974 bound_to 7965
  154.6249  140.2509  155.7504 H   0  0  0  0  0  0  0  0  0  0  0  0  # atno 8008 bound_to 7997
  156.2447  140.2919  156.0494 H   0  0  0  0  0  0  0  0  0  0  0  0  # atno 8009 bound_to 7997
  155.1837  140.0389  157.2877 H   0  0  0  0  0  0  0  0  0  0  0  0  # atno 8010 bound_to 7997
  140.2748  144.3224  150.6280 H   0  0  0  0  0  0  0  0  0  0  0  0  # atno 10167 bound_to 10162
  156.1738  130.6685  151.0215 H   0  0  0  0  0  0  0  0  0  0  0  0  # atno 10718 bound_to 10713
  153.2314  135.6893  153.7885 H   0  0  0  0  0  0  0  0  0  0  0  0  # atno 10763 bound_to 10752
  153.7048  135.3291  155.3234 H   0  0  0  0  0  0  0  0  0  0  0  0  # atno 10764 bound_to 10752
  154.8315  135.4576  154.1201 H   0  0  0  0  0  0  0  0  0  0  0  0  # atno 10765 bound_to 10752
  140.2125  134.8257  157.3136 H   0  0  0  0  0  0  0  0  0  0  0  0  # atno 11005 bound_to 11000
  144.6740  140.1766  143.7409 LP  0  0  0  0  0  0  0  0  0  0  0  0  # atno 17320 bound_to 7965
  145.8720  139.2277  143.1655 LP  0  0  0  0  0  0  0  0  0  0  0  0  # atno 17321 bound_to 7965
  140.5860  143.2170  151.7341 LP  0  0  0  0  0  0  0  0  0  0  0  0  # atno 17342 bound_to 10162
  139.4978  144.4010  152.0181 LP  0  0  0  0  0  0  0  0  0  0  0  0  # atno 17343 bound_to 10162
  157.6821  131.0835  150.7341 LP  0  0  0  0  0  0  0  0  0  0  0  0  # atno 17370 bound_to 10713
  156.7400  130.4736  149.5480 LP  0  0  0  0  0  0  0  0  0  0  0  0  # atno 17371 bound_to 10713
  140.1935  134.4342  155.7702 LP  0  0  0  0  0  0  0  0  0  0  0  0  # atno 17394 bound_to 11000
  141.2226  133.7038  156.8067 LP  0  0  0  0  0  0  0  0  0  0  0  0  # atno 17395 bound_to 11000

$$$$
