AV-unprocessed.smi:740|AV-procd|sdf|3547|dock1
  -GOLD-   22720 0543D 1   1.00000     0.00000
 Structure written by MMmdl.
 44 46  0  0  0  0  0  0  0  0  1 V2000
  153.0117  143.3392  163.6868 C   0  0  0  0  0  0  0  0  0  0  0  0
  152.6342  143.4101  162.2176 C   0  0  0  0  0  0  0  0  0  0  0  0
  151.8668  144.5037  161.7574 C   0  0  0  0  0  0  0  0  0  0  0  0
  151.4975  144.6089  160.3986 C   0  0  0  0  0  0  0  0  0  0  0  0
  150.7629  145.5801  159.7399 N   0  0  0  0  0  0  0  0  0  0  0  0
  150.7653  145.1175  158.4932 C   0  0  0  0  0  0  0  0  0  0  0  0
  151.4134  143.9590  158.2661 N   0  0  0  0  0  0  0  0  0  0  0  0
  151.5491  143.2720  156.9940 C   0  0  0  0  0  0  0  0  0  0  0  0
  150.3793  142.3076  156.7194 C   0  0  1  0  0  0  0  0  0  0  0  0
  149.2282  142.7908  157.3850 O   0  0  0  0  0  0  0  0  0  0  0  0
  150.0720  142.1970  155.2116 C   0  0  0  0  0  0  0  0  0  0  0  0
  149.0238  141.2074  154.9380 N   0  0  0  0  0  0  0  0  0  0  0  0
  147.7148  141.4312  155.1186 C   0  0  0  0  0  0  0  0  0  0  0  0
  147.2050  142.4669  155.5452 O   0  0  0  0  0  0  0  0  0  0  0  0
  146.8919  140.2164  154.7135 C   0  0  0  0  0  0  0  0  0  0  0  0
  147.9540  139.2121  154.2412 C   0  0  1  0  0  0  0  0  0  0  0  0
  147.7730  138.7589  152.7830 C   0  0  0  0  0  0  0  0  0  0  0  0
  149.2564  139.9858  154.4375 C   0  0  0  0  0  0  0  0  0  0  0  0
  150.3586  139.5145  154.1572 O   0  0  0  0  0  0  0  0  0  0  0  0
  151.9183  143.5804  159.5055 C   0  0  0  0  0  0  0  0  0  0  0  0
  152.6814  142.4868  159.9516 C   0  0  0  0  0  0  0  0  0  0  0  0
  153.0437  142.3985  161.3120 C   0  0  0  0  0  0  0  0  0  0  0  0
  153.8716  141.2160  161.7829 C   0  0  0  0  0  0  0  0  0  0  0  0
  152.5880  144.1727  164.2477 H   0  0  0  0  0  0  0  0  0  0  0  0
  154.0951  143.3730  163.8035 H   0  0  0  0  0  0  0  0  0  0  0  0
  152.6434  142.4153  164.1332 H   0  0  0  0  0  0  0  0  0  0  0  0
  151.5557  145.2751  162.4464 H   0  0  0  0  0  0  0  0  0  0  0  0
  150.2684  145.6522  157.6967 H   0  0  0  0  0  0  0  0  0  0  0  0
  151.6328  144.0143  156.1992 H   0  0  0  0  0  0  0  0  0  0  0  0
  152.4920  142.7234  157.0067 H   0  0  0  0  0  0  0  0  0  0  0  0
  150.6314  141.3269  157.1256 H   0  0  0  0  0  0  0  0  0  0  0  0
  148.9380  143.5792  156.9523 H   0  0  0  0  0  0  0  0  0  0  0  0
  149.8176  143.1737  154.7957 H   0  0  0  0  0  0  0  0  0  0  0  0
  150.9731  141.8879  154.6785 H   0  0  0  0  0  0  0  0  0  0  0  0
  146.3264  139.8379  155.5657 H   0  0  0  0  0  0  0  0  0  0  0  0
  146.1902  140.4863  153.9235 H   0  0  0  0  0  0  0  0  0  0  0  0
  147.9636  138.3422  154.8991 H   0  0  0  0  0  0  0  0  0  0  0  0
  148.5535  138.0571  152.4871 H   0  0  0  0  0  0  0  0  0  0  0  0
  147.8046  139.6035  152.0933 H   0  0  0  0  0  0  0  0  0  0  0  0
  146.8142  138.2577  152.6493 H   0  0  0  0  0  0  0  0  0  0  0  0
  152.9883  141.7244  159.2510 H   0  0  0  0  0  0  0  0  0  0  0  0
  154.1153  140.5474  160.9567 H   0  0  0  0  0  0  0  0  0  0  0  0
  153.3245  140.6401  162.5295 H   0  0  0  0  0  0  0  0  0  0  0  0
  154.8084  141.5564  162.2246 H   0  0  0  0  0  0  0  0  0  0  0  0
  1  2  1  0  0  0  0
  1 24  1  0  0  0  0
  1 25  1  0  0  0  0
  1 26  1  0  0  0  0
  2 22  1  0  0  0  0
  2  3  2  0  0  0  0
  3  4  1  0  0  0  0
  3 27  1  0  0  0  0
  4 20  2  0  0  0  0
  4  5  1  0  0  0  0
  5  6  2  0  0  0  0
  6  7  1  0  0  0  0
  6 28  1  0  0  0  0
  7  8  1  0  0  0  0
  7 20  1  0  0  0  0
  8  9  1  0  0  0  0
  8 29  1  0  0  0  0
  8 30  1  0  0  0  0
  9 10  1  0  0  0  0
  9 11  1  0  0  0  0
  9 31  1  0  0  0  0
 10 32  1  0  0  0  0
 11 12  1  0  0  0  0
 11 33  1  0  0  0  0
 11 34  1  0  0  0  0
 12 18  1  0  0  0  0
 12 13  1  0  0  0  0
 13 14  2  0  0  0  0
 13 15  1  0  0  0  0
 15 16  1  0  0  0  0
 15 35  1  0  0  0  0
 15 36  1  0  0  0  0
 16 17  1  0  0  0  0
 16 18  1  0  0  0  0
 16 37  1  0  0  0  0
 17 38  1  0  0  0  0
 17 39  1  0  0  0  0
 17 40  1  0  0  0  0
 18 19  2  0  0  0  0
 20 21  1  0  0  0  0
 21 22  2  0  0  0  0
 21 41  1  0  0  0  0
 22 23  1  0  0  0  0
 23 42  1  0  0  0  0
 23 43  1  0  0  0  0
 23 44  1  0  0  0  0
M  END
> <s_m_source_file>
AV-unprocessed.smi

> <i_m_source_file_index>
740

> <i_lp_mmshare_version>
43012

> <i_f3d_flags>
0

> <s_epik_input>
W0NIM11jKFtjSF0xKWMoW0NIM10pW2NIXWMoYzEyKW4oW2NIXW4yKVtDSDJdW0NASF0oW09IXSlbQ0gyXU4zQyg9TylbQ0gyXVtDQEBIXShbQ0gzXSlDMz1P

> <s_epik_cmdline>
J2VwaWtfcHl0aG9uJywgJy1waCcsICc3LjAnLCAnLXRuJywgJzgnLCAnLW1hJywgJzIwMCcsICctbWV0YWxfYmluZGluZycsICctaW1hZScsICc8aW5maWxlLm1hZT4nLCAnLW9tYWUnLCAnPG91dGZpbGUubWFlPic=

> <r_lp_tautomer_probability>
1

> <r_epik_Ionization_Penalty>
0.104021

> <r_epik_Ionization_Penalty_Charging>
0

> <r_epik_Ionization_Penalty_Neutral>
0.104021

> <r_epik_State_Penalty>
0.0939354

> <r_epik_Charging_Adjusted_Penalty>
0.0939354

> <i_epik_Tot_Q>
0

> <i_epik_Tot_abs_Q>
0

> <r_epik_Metal_State_Penalty>
0.000101783

> <b_epik_Metal_Only>
0

> <s_lp_Force_Field>
OPLS_2005

> <r_lp_Energy>
16.7866

> <b_lp_Chiralities_Consistent>
1

> <s_lp_Variant>
AV-unprocessed.smi:740-2

> <Gold.Version>
5.8.1

> <Gold.Id.Protein>
6NUR|6NUR_protein|mol2

> <Gold.PLP.Fitness>
54.2067

> <Gold.PLP.PLP>
-47.8519

> <Gold.PLP.part.hbond>
-2.0000

> <Gold.PLP.part.metal>
0.0000

> <Gold.PLP.part.buried>
-1.3794

> <Gold.PLP.part.nonpolar>
-46.3445

> <Gold.PLP.part.repulsive>
3.0664

> <Gold.PLP.ligand.clash>
0.0000

> <Gold.PLP.ligand.torsion>
1.0131

> <Gold.PLP.Chemscore.Hbond>
1.9204

> <Gold.PLP.Chemscore.CHOScore>
0.8597

> <Gold.PLP.Chemscore.Metal>
0.0000

> <Gold.Chemscore.Hbonds>
donor molecule, donor type, donor heavy atom, donor atom, acceptor molecule, acceptor atom, score
      L1  H    10    32       P1  8028  1.00
      P1  H  7989  7998       L1    19  1.00
      L1  C     6    28       P1  8028  0.12
      L1  C     6    28       P1  8029  0.51

> <Gold.PLP.Chemscore.Internal.Correction>
0.0407

> <Gold.Rescore>
     Score         DG    S(hbond)    S(metal)    S(lipo)     H(rot)  DE(clash)    DE(int)     intcor
     12.76     -17.93       0.97        0.00     129.45       2.31       1.88       3.28       ----

> <Gold.Chemscore.Fitness>
12.7597

> <Gold.Chemscore.DG>
-17.9274

> <Gold.Chemscore.ZeroCoef>
-5.4800

> <Gold.Chemscore.Hbond>
0.9661

> <Gold.Chemscore.Metal>
0.0000

> <Gold.Chemscore.Lipo>
129.4534

> <Gold.Chemscore.Internal_Hbond>
0.0000

> <Gold.Chemscore.DEClash>
1.8850

> <Gold.Chemscore.DEInternal>
3.2827

> <Gold.Chemscore.Rot>
2.3147

> <Gold.Chemscore.Internal.Correction>
   9.000000E+99

> <Gold.Chemscore.Hbonds>
donor molecule, donor type, donor heavy atom, donor atom, acceptor molecule, acceptor atom, score
      L1  H    10    32       P1  8028  0.54
      P1  H  7989  7998       L1    19  0.83

> <Gold.Chemscore.Hbond.Weighted>
-3.2269

> <Gold.Chemscore.Metal.Weighted>
-0.0000

> <Gold.Chemscore.Lipo.Weighted>
-15.1460

> <Gold.Chemscore.Internal_Hbond.Weighted>
0.0000

> <Gold.Chemscore.DEClash.Weighted>
1.8850

> <Gold.Chemscore.DEInternal.Weighted>
3.2827

> <Gold.Chemscore.Rot.Weighted>
5.9256

> <Gold.Chemscore.Internal.Correction.Weighted>
   9.000000E+99

> <Gold.Protein.RotatedTorsions>
[ 6907 6896 6895 6894 ] final  -87.90 input  -60.11 | X-H torsion
[ 7974 7965 7964 7962 ] final  -88.93 input  175.53 | X-H torsion
[ 8008 7997 7996 7995 ] final  147.54 input   59.86 | X-H torsion
[ 10167 10162 10161 10158 ] final  169.21 input  -65.29 | X-H torsion
[ 10718 10713 10712 10709 ] final  131.74 input   66.30 | X-H torsion
[ 10763 10752 10751 10750 ] final  -57.70 input  -60.55 | X-H torsion
[ 11005 11000 10999 10996 ] final   57.69 input  -57.11 | X-H torsion

> <Gold.Protein.ActiveResidues>
 VAL166  LYS551  ARG553  GLY616  TRP617  ASP618  TYR619  PRO620  LYS621  CYS622 
 ASP623  PHE694  ASN695  SER759  ASP760  ASP761  ALA762  ILE779  LEU786  VAL792 
 PHE793  MET794  SER795  GLU796  ALA797  LYS798  CYS799  TRP800  GLU811  SER814 

> <Gold.Protein.RotatedAtoms>
  150.6867  134.2825  159.4632 H   0  0  0  0  0  0  0  0  0  0  0  0  # atno 6907 bound_to 6896
  152.0738  134.9514  160.0583 H   0  0  0  0  0  0  0  0  0  0  0  0  # atno 6908 bound_to 6896
  152.0893  133.4157  159.4573 H   0  0  0  0  0  0  0  0  0  0  0  0  # atno 6909 bound_to 6896
  145.4466  140.9560  143.2046 H   0  0  0  0  0  0  0  0  0  0  0  0  # atno 7974 bound_to 7965
  156.2821  140.2153  156.5555 H   0  0  0  0  0  0  0  0  0  0  0  0  # atno 8008 bound_to 7997
  154.7256  140.0500  157.0702 H   0  0  0  0  0  0  0  0  0  0  0  0  # atno 8009 bound_to 7997
  155.0420  140.3147  155.4724 H   0  0  0  0  0  0  0  0  0  0  0  0  # atno 8010 bound_to 7997
  139.4987  144.3730  151.9704 H   0  0  0  0  0  0  0  0  0  0  0  0  # atno 10167 bound_to 10162
  157.4938  131.1091  150.9520 H   0  0  0  0  0  0  0  0  0  0  0  0  # atno 10718 bound_to 10713
  154.2266  135.6368  153.5161 H   0  0  0  0  0  0  0  0  0  0  0  0  # atno 10763 bound_to 10752
  152.9957  135.5509  154.6057 H   0  0  0  0  0  0  0  0  0  0  0  0  # atno 10764 bound_to 10752
  154.5530  135.2903  155.0965 H   0  0  0  0  0  0  0  0  0  0  0  0  # atno 10765 bound_to 10752
  140.0434  134.5841  155.9353 H   0  0  0  0  0  0  0  0  0  0  0  0  # atno 11005 bound_to 11000
  144.8088  139.6001  143.7039 LP  0  0  0  0  0  0  0  0  0  0  0  0  # atno 17320 bound_to 7965
  146.2527  139.6235  142.9416 LP  0  0  0  0  0  0  0  0  0  0  0  0  # atno 17321 bound_to 7965
  140.3166  144.3476  150.6020 LP  0  0  0  0  0  0  0  0  0  0  0  0  # atno 17342 bound_to 10162
  140.5756  143.2177  151.7521 LP  0  0  0  0  0  0  0  0  0  0  0  0  # atno 17343 bound_to 10162
  157.0213  130.5675  149.5332 LP  0  0  0  0  0  0  0  0  0  0  0  0  # atno 17370 bound_to 10713
  156.0189  130.5283  150.8216 LP  0  0  0  0  0  0  0  0  0  0  0  0  # atno 17371 bound_to 10713
  141.1894  133.6565  156.5368 LP  0  0  0  0  0  0  0  0  0  0  0  0  # atno 17394 bound_to 11000
  140.4033  134.7337  157.4793 LP  0  0  0  0  0  0  0  0  0  0  0  0  # atno 17395 bound_to 11000

$$$$
