AV-unprocessed.smi:54|AV-procd|sdf|541|dock9
  -GOLD-   2262016433D 1   1.00000     0.00000
 Structure written by MMmdl.
 44 46  0  0  0  0  0  0  0  0  1 V2000
  145.3337  130.8249  151.8533 C   0  0  0  0  0  0  0  0  0  0  0  0
  144.8351  132.0822  151.1223 C   0  0  0  0  0  0  0  0  0  0  0  0
  145.3820  132.1475  149.6873 C   0  0  0  0  0  0  0  0  0  0  0  0
  145.2128  133.3474  151.9013 C   0  0  0  0  0  0  0  0  0  0  0  0
  145.9649  134.2023  151.4319 O   0  0  0  0  0  0  0  0  0  0  0  0
  144.6185  133.4656  153.2211 N   0  0  0  0  0  0  0  0  0  0  0  0
  144.7810  134.4727  154.1104 C   0  0  0  0  0  0  0  0  0  0  0  0
  145.6552  135.4554  153.9447 N   0  0  0  0  0  0  0  0  0  0  0  0
  145.6750  136.3757  154.9557 C   0  0  0  0  0  0  0  0  0  0  0  0
  144.8930  136.3666  156.0916 C   0  0  0  0  0  0  0  0  0  0  0  0
  145.1932  137.4652  156.8891 N   0  0  0  0  0  0  0  0  0  0  0  0
  146.1269  138.0902  156.2278 C   0  0  0  0  0  0  0  0  0  0  0  0
  146.4734  137.4967  155.0364 N   0  0  0  0  0  0  0  0  0  0  0  0
  147.4916  137.9240  154.0235 C   0  0  2  0  0  0  0  0  0  0  0  0
  148.3685  138.8047  154.6606 O   0  0  0  0  0  0  0  0  0  0  0  0
  148.3878  140.0725  154.0060 C   0  0  2  0  0  0  0  0  0  0  0  0
  148.6412  141.2091  155.0122 C   0  0  0  0  0  0  0  0  0  0  0  0
  148.9142  142.4122  154.3260 O   0  0  0  0  0  0  0  0  0  0  0  0
  147.0563  140.1436  153.2442 C   0  0  2  0  0  0  0  0  0  0  0  0
  146.0119  140.6439  154.0629 O   0  0  0  0  0  0  0  0  0  0  0  0
  146.8490  138.6875  152.8504 C   0  0  2  0  0  0  0  0  0  0  0  0
  145.4948  138.3697  152.5784 O   0  0  0  0  0  0  0  0  0  0  0  0
  143.9460  135.3076  156.2883 C   0  0  0  0  0  0  0  0  0  0  0  0
  143.1759  135.1394  157.2313 O   0  0  0  0  0  0  0  0  0  0  0  0
  143.9562  134.3869  155.2324 N   0  0  0  0  0  0  0  0  0  0  0  0
  147.9956  137.0035  153.7269 H   0  0  0  0  0  0  0  0  0  0  0  0
  149.1885  140.0475  153.2644 H   0  0  0  0  0  0  0  0  0  0  0  0
  147.1316  140.7884  152.3681 H   0  0  0  0  0  0  0  0  0  0  0  0
  147.4445  138.4735  151.9620 H   0  0  0  0  0  0  0  0  0  0  0  0
  144.9558  130.7838  152.8757 H   0  0  0  0  0  0  0  0  0  0  0  0
  146.4230  130.7924  151.8994 H   0  0  0  0  0  0  0  0  0  0  0  0
  144.9985  129.9205  151.3449 H   0  0  0  0  0  0  0  0  0  0  0  0
  143.7468  132.0287  151.0668 H   0  0  0  0  0  0  0  0  0  0  0  0
  145.0249  133.0370  149.1665 H   0  0  0  0  0  0  0  0  0  0  0  0
  145.0617  131.2807  149.1091 H   0  0  0  0  0  0  0  0  0  0  0  0
  146.4727  132.1684  149.6734 H   0  0  0  0  0  0  0  0  0  0  0  0
  144.0001  132.7162  153.4941 H   0  0  0  0  0  0  0  0  0  0  0  0
  146.5845  138.9981  156.5926 H   0  0  0  0  0  0  0  0  0  0  0  0
  147.7527  141.3771  155.6214 H   0  0  0  0  0  0  0  0  0  0  0  0
  149.4603  140.9662  155.6897 H   0  0  0  0  0  0  0  0  0  0  0  0
  148.9481  143.1162  154.9554 H   0  0  0  0  0  0  0  0  0  0  0  0
  145.2194  140.6749  153.5486 H   0  0  0  0  0  0  0  0  0  0  0  0
  144.9911  139.1686  152.6177 H   0  0  0  0  0  0  0  0  0  0  0  0
  143.3125  133.6128  155.3038 H   0  0  0  0  0  0  0  0  0  0  0  0
  1  2  1  0  0  0  0
  1 30  1  0  0  0  0
  1 31  1  0  0  0  0
  1 32  1  0  0  0  0
  2  3  1  0  0  0  0
  2  4  1  0  0  0  0
  2 33  1  0  0  0  0
  3 34  1  0  0  0  0
  3 35  1  0  0  0  0
  3 36  1  0  0  0  0
  4  5  2  0  0  0  0
  4  6  1  0  0  0  0
  6 37  1  0  0  0  0
  6  7  1  0  0  0  0
  7 25  1  0  0  0  0
  7  8  2  0  0  0  0
  8  9  1  0  0  0  0
  9 13  1  0  0  0  0
  9 10  2  0  0  0  0
 10 11  1  0  0  0  0
 10 23  1  0  0  0  0
 11 12  2  0  0  0  0
 12 13  1  0  0  0  0
 12 38  1  0  0  0  0
 13 14  1  0  0  0  0
 14 26  1  0  0  0  0
 14 21  1  0  0  0  0
 14 15  1  0  0  0  0
 15 16  1  0  0  0  0
 16 27  1  0  0  0  0
 16 17  1  0  0  0  0
 16 19  1  0  0  0  0
 17 18  1  0  0  0  0
 17 39  1  0  0  0  0
 17 40  1  0  0  0  0
 18 41  1  0  0  0  0
 19 28  1  0  0  0  0
 19 20  1  0  0  0  0
 19 21  1  0  0  0  0
 20 42  1  0  0  0  0
 21 29  1  0  0  0  0
 21 22  1  0  0  0  0
 22 43  1  0  0  0  0
 23 24  2  0  0  0  0
 23 25  1  0  0  0  0
 25 44  1  0  0  0  0
M  END
> <s_m_source_file>
AV-unprocessed.smi

> <i_m_source_file_index>
54

> <i_lp_mmshare_version>
43012

> <i_f3d_flags>
0

> <s_epik_input>
W0NIM11bQ0hdKFtDSDNdKUMoPU8pW05IXWMobjEpW25IXWMoPU8pYyhjMTIpbltjSF1uMltDQEBIXTNPW0NASF0oW0NIMl1bT0hdKVtDQEBIXShbT0hdKVtDQEhdM1tPSF0=

> <s_epik_cmdline>
J2VwaWtfcHl0aG9uJywgJy1waCcsICc3LjAnLCAnLXRuJywgJzgnLCAnLW1hJywgJzIwMCcsICctbWV0YWxfYmluZGluZycsICctaW1hZScsICc8aW5maWxlLm1hZT4nLCAnLW9tYWUnLCAnPG91dGZpbGUubWFlPic=

> <r_lp_tautomer_probability>
0.85571

> <r_epik_Ionization_Penalty>
0.0316551

> <r_epik_Ionization_Penalty_Charging>
0.0316043

> <r_epik_Ionization_Penalty_Neutral>
5.07097e-05

> <r_epik_State_Penalty>
3.15494e-07

> <r_epik_Charging_Adjusted_Penalty>
0.0316047

> <i_epik_Tot_Q>
0

> <i_epik_Tot_abs_Q>
0

> <r_epik_Metal_State_Penalty>
0.421206

> <b_epik_Metal_Only>
0

> <s_epik_Chemistry_Notes>
This compound contains an acetal/aminal-like group ( X-CH(R)-Y where X, Y are N, S, or O) that may be acid/base labile, releasing an aldehyde.

> <s_lp_Force_Field>
OPLS_2005

> <r_lp_Energy>
46.8633

> <b_lp_Chiralities_Consistent>
1

> <s_lp_Variant>
AV-unprocessed.smi:54-13

> <Gold.Version>
5.8.1

> <Gold.Id.Protein>
6NUR|6NUR_protein|mol2

> <Gold.PLP.Fitness>
44.3882

> <Gold.PLP.PLP>
-29.8386

> <Gold.PLP.part.hbond>
-7.6327

> <Gold.PLP.part.metal>
0.0000

> <Gold.PLP.part.buried>
-5.4134

> <Gold.PLP.part.nonpolar>
-18.4980

> <Gold.PLP.part.repulsive>
0.3615

> <Gold.PLP.ligand.clash>
0.0000

> <Gold.PLP.ligand.torsion>
0.7142

> <Gold.PLP.Chemscore.Hbond>
5.2507

> <Gold.PLP.Chemscore.CHOScore>
0.0000

> <Gold.PLP.Chemscore.Metal>
0.0000

> <Gold.Chemscore.Hbonds>
donor molecule, donor type, donor heavy atom, donor atom, acceptor molecule, acceptor atom, score
      L1  H     6    37       P1 10957  0.89
      L1  H    18    41       P1  8028  1.00
      L1  H    20    42       P1 10175  1.00
      L1  H    22    43       P1 10175  1.00
      L1  H    25    44       P1 10957  1.00
      P1  H  8011  8017       L1    18  0.12
      P1  H 11000 11005       L1    24  0.11

> <Gold.PLP.Chemscore.Internal.Correction>
0.2258

> <Gold.Rescore>
     Score         DG    S(hbond)    S(metal)    S(lipo)     H(rot)  DE(clash)    DE(int)     intcor
     15.78     -17.94       4.93        0.00      54.29       4.05       0.03       2.14       ----

> <Gold.Chemscore.Fitness>
15.7763

> <Gold.Chemscore.DG>
-17.9390

> <Gold.Chemscore.ZeroCoef>
-5.4800

> <Gold.Chemscore.Hbond>
4.9323

> <Gold.Chemscore.Metal>
0.0000

> <Gold.Chemscore.Lipo>
54.2862

> <Gold.Chemscore.Internal_Hbond>
0.0000

> <Gold.Chemscore.DEClash>
0.0263

> <Gold.Chemscore.DEInternal>
2.1363

> <Gold.Chemscore.Rot>
4.0493

> <Gold.Chemscore.Internal.Correction>
   9.000000E+99

> <Gold.Chemscore.Hbonds>
donor molecule, donor type, donor heavy atom, donor atom, acceptor molecule, acceptor atom, score
      L1  H     6    37       P1 10957  0.46
      L1  H    18    41       P1  8028  1.00
      L1  H    20    42       P1 10175  0.94
      L1  H    22    43       P1 10175  1.00
      L1  H    25    44       P1 10957  0.92
      P1  H  8011  8017       L1    18  0.12
      P1  H 11000 11005       L1    24  0.10

> <Gold.Chemscore.Hbond.Weighted>
-16.4737

> <Gold.Chemscore.Metal.Weighted>
-0.0000

> <Gold.Chemscore.Lipo.Weighted>
-6.3515

> <Gold.Chemscore.Internal_Hbond.Weighted>
0.0000

> <Gold.Chemscore.DEClash.Weighted>
0.0263

> <Gold.Chemscore.DEInternal.Weighted>
2.1363

> <Gold.Chemscore.Rot.Weighted>
10.3662

> <Gold.Chemscore.Internal.Correction.Weighted>
   9.000000E+99

> <Gold.Protein.RotatedTorsions>
[ 6907 6896 6895 6894 ] final   95.15 input  -60.11 | X-H torsion
[ 7974 7965 7964 7962 ] final   88.84 input  175.53 | X-H torsion
[ 8008 7997 7996 7995 ] final -142.93 input   59.86 | X-H torsion
[ 10167 10162 10161 10158 ] final   17.05 input  -65.29 | X-H torsion
[ 10718 10713 10712 10709 ] final -103.84 input   66.30 | X-H torsion
[ 10763 10752 10751 10750 ] final   92.61 input  -60.55 | X-H torsion
[ 11005 11000 10999 10996 ] final -112.77 input  -57.11 | X-H torsion

> <Gold.Protein.ActiveResidues>
 VAL166  LYS551  ARG553  GLY616  TRP617  ASP618  TYR619  PRO620  LYS621  CYS622 
 ASP623  PHE694  ASN695  SER759  ASP760  ASP761  ALA762  ILE779  LEU786  VAL792 
 PHE793  MET794  SER795  GLU796  ALA797  LYS798  CYS799  TRP800  GLU811  SER814 

> <Gold.Protein.RotatedAtoms>
  152.5445  134.1084  159.8347 H   0  0  0  0  0  0  0  0  0  0  0  0  # atno 6907 bound_to 6896
  151.1154  133.5135  159.2611 H   0  0  0  0  0  0  0  0  0  0  0  0  # atno 6908 bound_to 6896
  151.1838  135.0382  159.8858 H   0  0  0  0  0  0  0  0  0  0  0  0  # atno 6909 bound_to 6896
  145.5403  139.2288  143.2569 H   0  0  0  0  0  0  0  0  0  0  0  0  # atno 7974 bound_to 7965
  155.5023  140.0576  157.2937 H   0  0  0  0  0  0  0  0  0  0  0  0  # atno 8008 bound_to 7997
  154.4582  140.1983  156.0267 H   0  0  0  0  0  0  0  0  0  0  0  0  # atno 8009 bound_to 7997
  156.0841  140.3243  155.7735 H   0  0  0  0  0  0  0  0  0  0  0  0  # atno 8010 bound_to 7997
  140.5753  143.9083  150.6745 H   0  0  0  0  0  0  0  0  0  0  0  0  # atno 10167 bound_to 10162
  156.0281  130.5486  150.7311 H   0  0  0  0  0  0  0  0  0  0  0  0  # atno 10718 bound_to 10713
  153.2210  135.4355  155.0489 H   0  0  0  0  0  0  0  0  0  0  0  0  # atno 10763 bound_to 10752
  154.8250  135.3356  154.6927 H   0  0  0  0  0  0  0  0  0  0  0  0  # atno 10764 bound_to 10752
  153.7359  135.7008  153.5034 H   0  0  0  0  0  0  0  0  0  0  0  0  # atno 10765 bound_to 10752
  141.0655  133.9466  157.2587 H   0  0  0  0  0  0  0  0  0  0  0  0  # atno 11005 bound_to 11000
  146.1986  140.6222  142.9113 LP  0  0  0  0  0  0  0  0  0  0  0  0  # atno 17320 bound_to 7965
  144.7580  140.5355  143.6755 LP  0  0  0  0  0  0  0  0  0  0  0  0  # atno 17321 bound_to 7965
  140.2569  143.3552  152.1357 LP  0  0  0  0  0  0  0  0  0  0  0  0  # atno 17342 bound_to 10162
  139.5139  144.6940  151.5681 LP  0  0  0  0  0  0  0  0  0  0  0  0  # atno 17343 bound_to 10162
  157.4903  131.0910  151.0435 LP  0  0  0  0  0  0  0  0  0  0  0  0  # atno 17370 bound_to 10713
  157.0843  130.5916  149.5427 LP  0  0  0  0  0  0  0  0  0  0  0  0  # atno 17371 bound_to 10713
  139.9472  135.0182  156.8888 LP  0  0  0  0  0  0  0  0  0  0  0  0  # atno 17394 bound_to 11000
  140.5782  134.0378  155.7454 LP  0  0  0  0  0  0  0  0  0  0  0  0  # atno 17395 bound_to 11000

$$$$
