AV-unprocessed.smi:2822|AV-procd|sdf|10875|dock3
  -GOLD-   2272015313D 1   1.00000     0.00000
 Structure written by MMmdl.
 40 42  0  0  0  0  0  0  0  0  2 V2000
  154.0244  128.1254  154.4656 Cl  0  0  0  0  0  0  0  0  0  0  0  0
  153.2632  129.4890  155.2087 C   0  0  0  0  0  0  0  0  0  0  0  0
  154.0368  130.4001  155.9565 C   0  0  0  0  0  0  0  0  0  0  0  0
  153.5214  131.4883  156.5658 N   0  0  0  0  0  0  0  0  0  0  0  0
  152.1954  131.7058  156.4468 C   0  0  0  0  0  0  0  0  0  0  0  0
  151.3316  130.8593  155.7233 C   0  0  0  0  0  0  0  0  0  0  0  0
  151.8735  129.7187  155.0850 C   0  0  0  0  0  0  0  0  0  0  0  0
  151.0881  128.8202  154.3467 N   0  0  0  0  0  0  0  0  0  0  0  0
  149.6355  128.8607  154.4157 C   0  0  0  0  0  0  0  0  0  0  0  0
  149.0593  129.9390  153.4876 C   0  0  1  0  0  0  0  0  0  0  0  0
  147.6232  129.6041  153.0447 C   0  0  0  0  0  0  0  0  0  0  0  0
  147.0691  130.6929  152.2068 N   0  3  1  0  0  0  0  0  0  0  0  0
  145.6977  130.3939  151.7222 C   0  0  0  0  0  0  0  0  0  0  0  0
  145.1906  131.4980  150.7803 C   0  0  0  0  0  0  0  0  0  0  0  0
  145.2473  132.8694  151.4657 C   0  0  0  0  0  0  0  0  0  0  0  0
  146.6667  133.1410  151.9817 C   0  0  0  0  0  0  0  0  0  0  0  0
  147.1536  132.0053  152.9037 C   0  0  2  0  0  0  0  0  0  0  0  0
  148.5965  132.2539  153.3848 C   0  0  0  0  0  0  0  0  0  0  0  0
  149.0286  131.1717  154.1993 O   0  0  0  0  0  0  0  0  0  0  0  0
  155.1007  130.2510  156.0685 H   0  0  0  0  0  0  0  0  0  0  0  0
  151.8090  132.5828  156.9448 H   0  0  0  0  0  0  0  0  0  0  0  0
  150.2801  131.0980  155.6736 H   0  0  0  0  0  0  0  0  0  0  0  0
  151.5221  128.2918  153.6029 H   0  0  0  0  0  0  0  0  0  0  0  0
  149.2491  127.8849  154.1193 H   0  0  0  0  0  0  0  0  0  0  0  0
  149.3184  129.0383  155.4441 H   0  0  0  0  0  0  0  0  0  0  0  0
  149.6986  130.0339  152.6073 H   0  0  0  0  0  0  0  0  0  0  0  0
  147.6171  128.6716  152.4788 H   0  0  0  0  0  0  0  0  0  0  0  0
  146.9851  129.4535  153.9173 H   0  0  0  0  0  0  0  0  0  0  0  0
  145.6959  129.4378  151.1971 H   0  0  0  0  0  0  0  0  0  0  0  0
  145.0234  130.2899  152.5736 H   0  0  0  0  0  0  0  0  0  0  0  0
  145.7970  131.5152  149.8738 H   0  0  0  0  0  0  0  0  0  0  0  0
  144.1693  131.2807  150.4660 H   0  0  0  0  0  0  0  0  0  0  0  0
  144.9427  133.6522  150.7701 H   0  0  0  0  0  0  0  0  0  0  0  0
  144.5405  132.8968  152.2962 H   0  0  0  0  0  0  0  0  0  0  0  0
  147.3465  133.2477  151.1349 H   0  0  0  0  0  0  0  0  0  0  0  0
  146.6875  134.0919  152.5156 H   0  0  0  0  0  0  0  0  0  0  0  0
  146.5036  131.9644  153.7797 H   0  0  0  0  0  0  0  0  0  0  0  0
  149.2779  132.3813  152.5417 H   0  0  0  0  0  0  0  0  0  0  0  0
  148.6443  133.1715  153.9719 H   0  0  0  0  0  0  0  0  0  0  0  0
  147.6583  130.7599  151.3891 H   0  0  0  0  0  0  0  0  0  0  0  0
  1  2  1  0  0  0  0
  2  7  1  0  0  0  0
  2  3  2  0  0  0  0
  3  4  1  0  0  0  0
  3 20  1  0  0  0  0
  4  5  2  0  0  0  0
  5  6  1  0  0  0  0
  5 21  1  0  0  0  0
  6  7  2  0  0  0  0
  6 22  1  0  0  0  0
  7  8  1  0  0  0  0
  8  9  1  0  0  0  0
  8 23  1  0  0  0  0
  9 10  1  0  0  0  0
  9 24  1  0  0  0  0
  9 25  1  0  0  0  0
 10 19  1  0  0  0  0
 10 11  1  0  0  0  0
 10 26  1  0  0  0  0
 11 12  1  0  0  0  0
 11 27  1  0  0  0  0
 11 28  1  0  0  0  0
 12 17  1  0  0  0  0
 12 13  1  0  0  0  0
 12 40  1  0  0  0  0
 13 14  1  0  0  0  0
 13 29  1  0  0  0  0
 13 30  1  0  0  0  0
 14 15  1  0  0  0  0
 14 31  1  0  0  0  0
 14 32  1  0  0  0  0
 15 16  1  0  0  0  0
 15 33  1  0  0  0  0
 15 34  1  0  0  0  0
 16 17  1  0  0  0  0
 16 35  1  0  0  0  0
 16 36  1  0  0  0  0
 17 18  1  0  0  0  0
 17 37  1  0  0  0  0
 18 19  1  0  0  0  0
 18 38  1  0  0  0  0
 18 39  1  0  0  0  0
M  CHG  1  12   1
M  END
> <s_m_source_file>
AV-unprocessed.smi

> <i_m_source_file_index>
2822

> <i_lp_mmshare_version>
43012

> <i_f3d_flags>
0

> <s_epik_input>
Q2xjMVtjSF1uW2NIXVtjSF1jMVtOSF1bQ0gyXVtDQEhdKFtDSDJdMilPW0NIMl1bQ0BASF0oTjIzKVtDSDJdW0NIMl1bQ0gyXVtDSDJdMw==

> <s_epik_cmdline>
J2VwaWtfcHl0aG9uJywgJy1waCcsICc3LjAnLCAnLXRuJywgJzgnLCAnLW1hJywgJzIwMCcsICctbWV0YWxfYmluZGluZycsICctaW1hZScsICc8aW5maWxlLm1hZT4nLCAnLW9tYWUnLCAnPG91dGZpbGUubWFlPic=

> <r_lp_tautomer_probability>
0.999999

> <r_epik_Ionization_Penalty>
0.88937

> <r_epik_Ionization_Penalty_Charging>
0.0803403

> <r_epik_Ionization_Penalty_Neutral>
0.80903

> <r_epik_State_Penalty>
0.931884

> <r_epik_Charging_Adjusted_Penalty>
1.01222

> <i_epik_Tot_Q>
1

> <i_epik_Tot_abs_Q>
1

> <r_epik_Metal_State_Penalty>
0.0782275

> <b_epik_Metal_Only>
0

> <s_lp_Force_Field>
OPLS_2005

> <r_lp_Energy>
28.742

> <b_lp_Chiralities_Consistent>
1

> <s_lp_Variant>
AV-unprocessed.smi:2822-16

> <Gold.Version>
5.8.1

> <Gold.Id.Protein>
6NUR|6NUR_protein|mol2

> <Gold.PLP.Fitness>
38.8517

> <Gold.PLP.PLP>
-33.8473

> <Gold.PLP.part.hbond>
-2.0000

> <Gold.PLP.part.metal>
0.0000

> <Gold.PLP.part.buried>
-5.0697

> <Gold.PLP.part.nonpolar>
-27.0594

> <Gold.PLP.part.repulsive>
0.1162

> <Gold.PLP.ligand.clash>
0.0000

> <Gold.PLP.ligand.torsion>
0.4990

> <Gold.PLP.Chemscore.Hbond>
2.0000

> <Gold.PLP.Chemscore.CHOScore>
0.0000

> <Gold.PLP.Chemscore.Metal>
0.0000

> <Gold.Chemscore.Hbonds>
donor molecule, donor type, donor heavy atom, donor atom, acceptor molecule, acceptor atom, score
      L1  H     8    23       P1 10737  1.00
      L1  H    12    40       P1 10747  1.00

> <Gold.PLP.Chemscore.Internal.Correction>
0.0023

> <Gold.Rescore>
     Score         DG    S(hbond)    S(metal)    S(lipo)     H(rot)  DE(clash)    DE(int)     intcor
     19.14     -19.94       1.98        0.00      92.53       1.17       0.01       0.79       ----

> <Gold.Chemscore.Fitness>
19.1435

> <Gold.Chemscore.DG>
-19.9406

> <Gold.Chemscore.ZeroCoef>
-5.4800

> <Gold.Chemscore.Hbond>
1.9843

> <Gold.Chemscore.Metal>
0.0000

> <Gold.Chemscore.Lipo>
92.5328

> <Gold.Chemscore.Internal_Hbond>
0.0000

> <Gold.Chemscore.DEClash>
0.0111

> <Gold.Chemscore.DEInternal>
0.7860

> <Gold.Chemscore.Rot>
1.1693

> <Gold.Chemscore.Internal.Correction>
   9.000000E+99

> <Gold.Chemscore.Hbonds>
donor molecule, donor type, donor heavy atom, donor atom, acceptor molecule, acceptor atom, score
      L1  H     8    23       P1 10737  0.93
      L1  H    12    40       P1 10747  1.00

> <Gold.Chemscore.Hbond.Weighted>
-6.6276

> <Gold.Chemscore.Metal.Weighted>
-0.0000

> <Gold.Chemscore.Lipo.Weighted>
-10.8263

> <Gold.Chemscore.Internal_Hbond.Weighted>
0.0000

> <Gold.Chemscore.DEClash.Weighted>
0.0111

> <Gold.Chemscore.DEInternal.Weighted>
0.7860

> <Gold.Chemscore.Rot.Weighted>
2.9934

> <Gold.Chemscore.Internal.Correction.Weighted>
   9.000000E+99

> <Gold.Protein.RotatedTorsions>
[ 6907 6896 6895 6894 ] final  -77.85 input  -60.11 | X-H torsion
[ 7974 7965 7964 7962 ] final  172.17 input  175.53 | X-H torsion
[ 8008 7997 7996 7995 ] final  148.70 input   59.86 | X-H torsion
[ 10167 10162 10161 10158 ] final -101.70 input  -65.29 | X-H torsion
[ 10718 10713 10712 10709 ] final  -73.96 input   66.30 | X-H torsion
[ 10763 10752 10751 10750 ] final -108.24 input  -60.55 | X-H torsion
[ 11005 11000 10999 10996 ] final   63.47 input  -57.11 | X-H torsion

> <Gold.Protein.ActiveResidues>
 VAL166  LYS551  ARG553  GLY616  TRP617  ASP618  TYR619  PRO620  LYS621  CYS622 
 ASP623  PHE694  ASN695  SER759  ASP760  ASP761  ALA762  ILE779  LEU786  VAL792 
 PHE793  MET794  SER795  GLU796  ALA797  LYS798  CYS799  TRP800  GLU811  SER814 

> <Gold.Protein.RotatedAtoms>
  150.6988  134.4360  159.5269 H   0  0  0  0  0  0  0  0  0  0  0  0  # atno 6907 bound_to 6896
  152.2078  134.8526  160.0510 H   0  0  0  0  0  0  0  0  0  0  0  0  # atno 6908 bound_to 6896
  151.9423  133.3606  159.4006 H   0  0  0  0  0  0  0  0  0  0  0  0  # atno 6909 bound_to 6896
  144.7275  139.9459  143.6430 H   0  0  0  0  0  0  0  0  0  0  0  0  # atno 7974 bound_to 7965
  156.2782  140.2121  156.5741 H   0  0  0  0  0  0  0  0  0  0  0  0  # atno 8008 bound_to 7997
  154.7112  140.0512  157.0575 H   0  0  0  0  0  0  0  0  0  0  0  0  # atno 8009 bound_to 7997
  155.0603  140.3166  155.4666 H   0  0  0  0  0  0  0  0  0  0  0  0  # atno 8010 bound_to 7997
  140.2385  143.3556  152.0823 H   0  0  0  0  0  0  0  0  0  0  0  0  # atno 10167 bound_to 10162
  156.0260  130.4406  150.2821 H   0  0  0  0  0  0  0  0  0  0  0  0  # atno 10718 bound_to 10713
  154.8123  135.4645  154.0550 H   0  0  0  0  0  0  0  0  0  0  0  0  # atno 10763 bound_to 10752
  153.1971  135.6863  153.8285 H   0  0  0  0  0  0  0  0  0  0  0  0  # atno 10764 bound_to 10752
  153.7783  135.3260  155.3339 H   0  0  0  0  0  0  0  0  0  0  0  0  # atno 10765 bound_to 10752
  140.0023  134.6424  155.9911 H   0  0  0  0  0  0  0  0  0  0  0  0  # atno 11005 bound_to 11000
  146.0749  139.3737  143.0500 LP  0  0  0  0  0  0  0  0  0  0  0  0  # atno 17320 bound_to 7965
  145.7919  140.9811  143.1045 LP  0  0  0  0  0  0  0  0  0  0  0  0  # atno 17321 bound_to 7965
  139.5085  144.6852  151.5907 LP  0  0  0  0  0  0  0  0  0  0  0  0  # atno 17342 bound_to 10162
  140.6132  143.9398  150.6468 LP  0  0  0  0  0  0  0  0  0  0  0  0  # atno 17343 bound_to 10162
  157.0924  131.0173  151.3116 LP  0  0  0  0  0  0  0  0  0  0  0  0  # atno 17370 bound_to 10713
  157.4843  130.7784  149.7445 LP  0  0  0  0  0  0  0  0  0  0  0  0  # atno 17371 bound_to 10713
  141.1651  133.6537  156.4451 LP  0  0  0  0  0  0  0  0  0  0  0  0  # atno 17394 bound_to 11000
  140.4706  134.6757  157.5127 LP  0  0  0  0  0  0  0  0  0  0  0  0  # atno 17395 bound_to 11000

$$$$
