AV-unprocessed.smi:848|AV-procd|sdf|3941|dock2
  -GOLD-   22720 1403D 1   1.00000     0.00000
 Structure written by MMmdl.
 47 49  0  0  0  0  0  0  0  0  2 V2000
  154.1045  141.2215  161.6672 C   0  0  0  0  0  0  0  0  0  0  0  0
  153.2605  141.8977  160.6064 C   0  0  0  0  0  0  0  0  0  0  0  0
  152.9298  143.2622  160.7241 C   0  0  0  0  0  0  0  0  0  0  0  0
  152.1435  143.8857  159.7362 C   0  0  0  0  0  0  0  0  0  0  0  0
  151.7921  145.3532  159.8699 C   0  0  0  0  0  0  0  0  0  0  0  0
  151.6883  143.1390  158.6302 C   0  0  0  0  0  0  0  0  0  0  0  0
  152.0099  141.7727  158.4972 C   0  0  0  0  0  0  0  0  0  0  0  0
  151.5197  141.1209  157.3856 O   0  0  0  0  0  0  0  0  0  0  0  0
  150.4050  141.6872  156.7090 C   0  0  0  0  0  0  0  0  0  0  0  0
  150.0528  140.8075  155.5005 C   0  0  2  0  0  0  0  0  0  0  0  0
  151.2543  140.3207  154.9364 O   0  0  0  0  0  0  0  0  0  0  0  0
  149.2341  141.5649  154.4352 C   0  0  0  0  0  0  0  0  0  0  0  0
  147.7900  141.2977  154.5307 N   0  0  0  0  0  0  0  0  0  0  0  0
  146.9507  140.6990  153.6371 C   0  0  0  0  0  0  0  0  0  0  0  0
  147.3136  140.1433  152.2998 C   0  0  0  0  0  0  0  0  0  0  0  0
  148.1099  138.9838  152.4010 O   0  0  0  0  0  0  0  0  0  0  0  0
  145.7076  140.6871  154.1951 N   0  3  0  0  0  0  0  0  0  0  0  0
  145.7494  141.2853  155.4549 C   0  0  0  0  0  0  0  0  0  0  0  0
  144.7443  141.5048  156.3919 C   0  0  0  0  0  0  0  0  0  0  0  0
  145.1236  142.1485  157.5879 C   0  0  0  0  0  0  0  0  0  0  0  0
  146.4569  142.5459  157.8165 C   0  0  0  0  0  0  0  0  0  0  0  0
  147.4678  142.3159  156.8601 C   0  0  0  0  0  0  0  0  0  0  0  0
  147.0849  141.6798  155.6789 C   0  0  0  0  0  0  0  0  0  0  0  0
  152.8036  141.1565  159.4975 C   0  0  0  0  0  0  0  0  0  0  0  0
  154.3827  141.9176  162.4590 H   0  0  0  0  0  0  0  0  0  0  0  0
  155.0191  140.8245  161.2260 H   0  0  0  0  0  0  0  0  0  0  0  0
  153.5540  140.3955  162.1182 H   0  0  0  0  0  0  0  0  0  0  0  0
  153.2779  143.8340  161.5723 H   0  0  0  0  0  0  0  0  0  0  0  0
  151.1857  145.6968  159.0314 H   0  0  0  0  0  0  0  0  0  0  0  0
  152.6993  145.9568  159.9039 H   0  0  0  0  0  0  0  0  0  0  0  0
  151.2312  145.5249  160.7889 H   0  0  0  0  0  0  0  0  0  0  0  0
  151.0843  143.6158  157.8720 H   0  0  0  0  0  0  0  0  0  0  0  0
  149.5471  141.7672  157.3790 H   0  0  0  0  0  0  0  0  0  0  0  0
  150.6617  142.6908  156.3646 H   0  0  0  0  0  0  0  0  0  0  0  0
  149.4862  139.9430  155.8479 H   0  0  0  0  0  0  0  0  0  0  0  0
  151.1533  139.3968  154.7664 H   0  0  0  0  0  0  0  0  0  0  0  0
  149.3680  142.6403  154.5577 H   0  0  0  0  0  0  0  0  0  0  0  0
  149.5807  141.3335  153.4281 H   0  0  0  0  0  0  0  0  0  0  0  0
  146.4045  139.9037  151.7476 H   0  0  0  0  0  0  0  0  0  0  0  0
  147.8500  140.8956  151.7216 H   0  0  0  0  0  0  0  0  0  0  0  0
  148.8043  139.0386  151.7621 H   0  0  0  0  0  0  0  0  0  0  0  0
  143.7221  141.2014  156.2188 H   0  0  0  0  0  0  0  0  0  0  0  0
  144.3769  142.3427  158.3444 H   0  0  0  0  0  0  0  0  0  0  0  0
  146.7099  143.0381  158.7443 H   0  0  0  0  0  0  0  0  0  0  0  0
  148.4843  142.6280  157.0470 H   0  0  0  0  0  0  0  0  0  0  0  0
  153.0740  140.1131  159.4369 H   0  0  0  0  0  0  0  0  0  0  0  0
  144.8918  140.2936  153.7442 H   0  0  0  0  0  0  0  0  0  0  0  0
  1  2  1  0  0  0  0
  1 25  1  0  0  0  0
  1 26  1  0  0  0  0
  1 27  1  0  0  0  0
  2 24  1  0  0  0  0
  2  3  2  0  0  0  0
  3  4  1  0  0  0  0
  3 28  1  0  0  0  0
  4  5  1  0  0  0  0
  4  6  2  0  0  0  0
  5 29  1  0  0  0  0
  5 30  1  0  0  0  0
  5 31  1  0  0  0  0
  6  7  1  0  0  0  0
  6 32  1  0  0  0  0
  7  8  1  0  0  0  0
  7 24  2  0  0  0  0
  8  9  1  0  0  0  0
  9 10  1  0  0  0  0
  9 33  1  0  0  0  0
  9 34  1  0  0  0  0
 10 11  1  0  0  0  0
 10 12  1  0  0  0  0
 10 35  1  0  0  0  0
 11 36  1  0  0  0  0
 12 13  1  0  0  0  0
 12 37  1  0  0  0  0
 12 38  1  0  0  0  0
 13 23  1  0  0  0  0
 13 14  1  0  0  0  0
 14 15  1  0  0  0  0
 14 17  2  0  0  0  0
 15 16  1  0  0  0  0
 15 39  1  0  0  0  0
 15 40  1  0  0  0  0
 16 41  1  0  0  0  0
 17 18  1  0  0  0  0
 17 47  1  0  0  0  0
 18 23  2  0  0  0  0
 18 19  1  0  0  0  0
 19 20  2  0  0  0  0
 19 42  1  0  0  0  0
 20 21  1  0  0  0  0
 20 43  1  0  0  0  0
 21 22  2  0  0  0  0
 21 44  1  0  0  0  0
 22 23  1  0  0  0  0
 22 45  1  0  0  0  0
 24 46  1  0  0  0  0
M  CHG  1  17   1
M  END
> <s_m_source_file>
AV-unprocessed.smi

> <i_m_source_file_index>
848

> <i_lp_mmshare_version>
43012

> <i_f3d_flags>
0

> <s_epik_input>
W0NIM11jMVtjSF1jKFtDSDNdKVtjSF1jKFtjSF0xKU9bQ0gyXVtDQEhdKFtPSF0pW0NIMl1uKGMobjIpW0NIMl1bT0hdKWMoYzIzKVtjSF1bY0hdW2NIXVtjSF0z

> <s_epik_cmdline>
J2VwaWtfcHl0aG9uJywgJy1waCcsICc3LjAnLCAnLXRuJywgJzgnLCAnLW1hJywgJzIwMCcsICctbWV0YWxfYmluZGluZycsICctaW1hZScsICc8aW5maWxlLm1hZT4nLCAnLW9tYWUnLCAnPG91dGZpbGUubWFlPic=

> <r_lp_tautomer_probability>
1

> <r_epik_Ionization_Penalty>
1.43292

> <r_epik_Ionization_Penalty_Charging>
1.43206

> <r_epik_Ionization_Penalty_Neutral>
0.000858184

> <r_epik_State_Penalty>
1.51673

> <r_epik_Charging_Adjusted_Penalty>
2.94879

> <i_epik_Tot_Q>
1

> <i_epik_Tot_abs_Q>
1

> <r_epik_Metal_State_Penalty>
5.56186

> <b_epik_Metal_Only>
0

> <s_lp_Force_Field>
OPLS_2005

> <r_lp_Energy>
18.3298

> <b_lp_Chiralities_Consistent>
1

> <s_lp_Variant>
AV-unprocessed.smi:848-3

> <Gold.Version>
5.8.1

> <Gold.Id.Protein>
6NUR|6NUR_protein|mol2

> <Gold.PLP.Fitness>
56.4524

> <Gold.PLP.PLP>
-48.1366

> <Gold.PLP.part.hbond>
-3.6555

> <Gold.PLP.part.metal>
0.0000

> <Gold.PLP.part.buried>
-2.9466

> <Gold.PLP.part.nonpolar>
-41.5626

> <Gold.PLP.part.repulsive>
0.0071

> <Gold.PLP.ligand.clash>
0.7745

> <Gold.PLP.ligand.torsion>
1.1647

> <Gold.PLP.Chemscore.Hbond>
3.7840

> <Gold.PLP.Chemscore.CHOScore>
0.0000

> <Gold.PLP.Chemscore.Metal>
0.0000

> <Gold.Chemscore.Hbonds>
donor molecule, donor type, donor heavy atom, donor atom, acceptor molecule, acceptor atom, score
      L1  H    16    41       P1  7957  0.52
      L1  H    17    47       P1 10175  1.86
      P1  H  7989  7998       L1    11  1.00

> <Gold.PLP.Chemscore.Internal.Correction>
0.0677

> <Gold.Rescore>
     Score         DG    S(hbond)    S(metal)    S(lipo)     H(rot)  DE(clash)    DE(int)     intcor
     20.07     -21.70       2.78        0.00     126.01       3.05       0.55       1.08       ----

> <Gold.Chemscore.Fitness>
20.0683

> <Gold.Chemscore.DG>
-21.6974

> <Gold.Chemscore.ZeroCoef>
-5.4800

> <Gold.Chemscore.Hbond>
2.7771

> <Gold.Chemscore.Metal>
0.0000

> <Gold.Chemscore.Lipo>
126.0137

> <Gold.Chemscore.Internal_Hbond>
0.0000

> <Gold.Chemscore.DEClash>
0.5519

> <Gold.Chemscore.DEInternal>
1.0773

> <Gold.Chemscore.Rot>
3.0476

> <Gold.Chemscore.Internal.Correction>
   9.000000E+99

> <Gold.Chemscore.Hbonds>
donor molecule, donor type, donor heavy atom, donor atom, acceptor molecule, acceptor atom, score
      L1  H    16    41       P1  7957  0.42
      L1  H    17    47       P1 10175  0.90
      P1  H  7989  7998       L1    11  0.31

> <Gold.Chemscore.Hbond.Weighted>
-9.2756

> <Gold.Chemscore.Metal.Weighted>
-0.0000

> <Gold.Chemscore.Lipo.Weighted>
-14.7436

> <Gold.Chemscore.Internal_Hbond.Weighted>
0.0000

> <Gold.Chemscore.DEClash.Weighted>
0.5519

> <Gold.Chemscore.DEInternal.Weighted>
1.0773

> <Gold.Chemscore.Rot.Weighted>
7.8018

> <Gold.Chemscore.Internal.Correction.Weighted>
   9.000000E+99

> <Gold.Protein.RotatedTorsions>
[ 6907 6896 6895 6894 ] final  118.52 input  -60.11 | X-H torsion
[ 7974 7965 7964 7962 ] final -174.54 input  175.53 | X-H torsion
[ 8008 7997 7996 7995 ] final   49.76 input   59.86 | X-H torsion
[ 10167 10162 10161 10158 ] final  103.21 input  -65.29 | X-H torsion
[ 10718 10713 10712 10709 ] final  -31.79 input   66.30 | X-H torsion
[ 10763 10752 10751 10750 ] final   75.98 input  -60.55 | X-H torsion
[ 11005 11000 10999 10996 ] final   99.35 input  -57.11 | X-H torsion

> <Gold.Protein.ActiveResidues>
 VAL166  LYS551  ARG553  GLY616  TRP617  ASP618  TYR619  PRO620  LYS621  CYS622 
 ASP623  PHE694  ASN695  SER759  ASP760  ASP761  ALA762  ILE779  LEU786  VAL792 
 PHE793  MET794  SER795  GLU796  ALA797  LYS798  CYS799  TRP800  GLU811  SER814 

> <Gold.Protein.RotatedAtoms>
  152.4537  133.7680  159.6783 H   0  0  0  0  0  0  0  0  0  0  0  0  # atno 6907 bound_to 6896
  150.8457  133.7855  159.3050 H   0  0  0  0  0  0  0  0  0  0  0  0  # atno 6908 bound_to 6896
  151.5467  135.1070  159.9991 H   0  0  0  0  0  0  0  0  0  0  0  0  # atno 6909 bound_to 6896
  144.7131  140.1456  143.6388 H   0  0  0  0  0  0  0  0  0  0  0  0  # atno 7974 bound_to 7965
  155.4075  140.3441  155.4261 H   0  0  0  0  0  0  0  0  0  0  0  0  # atno 8008 bound_to 7997
  156.1468  140.1558  156.8866 H   0  0  0  0  0  0  0  0  0  0  0  0  # atno 8009 bound_to 7997
  154.5017  140.0813  156.7793 H   0  0  0  0  0  0  0  0  0  0  0  0  # atno 8010 bound_to 7997
  139.7283  144.7042  151.0763 H   0  0  0  0  0  0  0  0  0  0  0  0  # atno 10167 bound_to 10162
  156.3829  130.4359  149.7455 H   0  0  0  0  0  0  0  0  0  0  0  0  # atno 10718 bound_to 10713
  153.0692  135.4968  154.8268 H   0  0  0  0  0  0  0  0  0  0  0  0  # atno 10763 bound_to 10752
  154.6999  135.2999  154.9359 H   0  0  0  0  0  0  0  0  0  0  0  0  # atno 10764 bound_to 10752
  154.0087  135.6757  153.4816 H   0  0  0  0  0  0  0  0  0  0  0  0  # atno 10765 bound_to 10752
  139.8771  134.9092  156.4593 H   0  0  0  0  0  0  0  0  0  0  0  0  # atno 11005 bound_to 11000
  145.9163  139.2518  143.1408 LP  0  0  0  0  0  0  0  0  0  0  0  0  # atno 17320 bound_to 7965
  145.9666  140.8794  143.0184 LP  0  0  0  0  0  0  0  0  0  0  0  0  # atno 17321 bound_to 7965
  140.7766  143.5076  150.9692 LP  0  0  0  0  0  0  0  0  0  0  0  0  # atno 17342 bound_to 10162
  139.8764  143.7127  152.3161 LP  0  0  0  0  0  0  0  0  0  0  0  0  # atno 17343 bound_to 10162
  156.4538  130.7919  151.2940 LP  0  0  0  0  0  0  0  0  0  0  0  0  # atno 17370 bound_to 10713
  157.7493  131.0087  150.3238 LP  0  0  0  0  0  0  0  0  0  0  0  0  # atno 17371 bound_to 10713
  140.8875  133.7872  155.9535 LP  0  0  0  0  0  0  0  0  0  0  0  0  # atno 17394 bound_to 11000
  140.8789  134.2636  157.5154 LP  0  0  0  0  0  0  0  0  0  0  0  0  # atno 17395 bound_to 11000

$$$$
