AV-unprocessed.smi:260|AV-procd|sdf|1980|dock7
  -GOLD-   2262021153D 1   1.00000     0.00000
 Structure written by MMmdl.
 53 56  0  0  0  0  0  0  0  0  1 V2000
  147.5142  133.3707  152.1137 C   0  0  0  0  0  0  0  0  0  0  0  0
  148.5677  133.4856  153.1100 N   0  0  0  0  0  0  0  0  0  0  0  0
  148.3707  133.8554  154.3857 C   0  0  0  0  0  0  0  0  0  0  0  0
  147.2537  134.1475  154.8154 O   0  0  0  0  0  0  0  0  0  0  0  0
  149.5958  133.9202  155.3358 C   0  0  2  0  0  0  0  0  0  0  0  0
  150.2859  132.5424  155.3562 C   0  0  0  0  0  0  0  0  0  0  0  0
  149.2679  134.4277  156.7587 C   0  0  0  0  0  0  0  0  0  0  0  0
  149.2497  135.9572  156.6362 C   0  0  0  0  0  0  0  0  0  0  0  0
  150.0504  136.2601  155.4587 N   0  0  0  0  0  0  0  0  0  0  0  0
  150.7188  137.4368  155.3470 C   0  0  0  0  0  0  0  0  0  0  0  0
  151.8871  137.4636  154.6521 N   0  0  0  0  0  0  0  0  0  0  0  0
  152.5742  138.6021  154.5223 C   0  0  0  0  0  0  0  0  0  0  0  0
  152.2772  139.8138  154.9944 N   0  0  0  0  0  0  0  0  0  0  0  0
  151.0992  139.7996  155.6805 C   0  0  0  0  0  0  0  0  0  0  0  0
  150.2624  138.6684  155.9026 C   0  0  0  0  0  0  0  0  0  0  0  0
  149.1426  139.0532  156.6335 N   0  0  0  0  0  0  0  0  0  0  0  0
  149.3137  140.3302  156.8395 C   0  0  0  0  0  0  0  0  0  0  0  0
  150.4645  140.8592  156.3028 N   0  0  0  0  0  0  0  0  0  0  0  0
  150.9101  142.2394  156.3796 C   0  0  0  0  0  0  0  0  0  0  0  0
  151.0155  142.7402  157.8337 C   0  0  2  0  0  0  0  0  0  0  0  0
  150.7783  144.1353  157.8613 O   0  0  0  0  0  0  0  0  0  0  0  0
  152.3964  142.4562  158.4536 C   0  0  1  0  0  0  0  0  0  0  0  0
  152.5754  143.0025  159.8723 C   0  0  0  0  0  0  0  0  0  0  0  0
  153.6469  142.0902  160.4217 C   0  0  0  0  0  0  0  0  0  0  0  0
  153.2416  140.7483  159.8220 C   0  0  0  0  0  0  0  0  0  0  0  0
  152.6077  141.0507  158.5817 O   0  0  0  0  0  0  0  0  0  0  0  0
  150.5617  135.0276  154.8717 C   0  0  0  0  0  0  0  0  0  0  0  0
  147.9446  133.1127  151.1464 H   0  0  0  0  0  0  0  0  0  0  0  0
  146.9736  134.3120  152.0059 H   0  0  0  0  0  0  0  0  0  0  0  0
  146.8046  132.5904  152.3913 H   0  0  0  0  0  0  0  0  0  0  0  0
  149.5075  133.2614  152.8167 H   0  0  0  0  0  0  0  0  0  0  0  0
  151.1862  132.5580  155.9712 H   0  0  0  0  0  0  0  0  0  0  0  0
  150.5852  132.2256  154.3560 H   0  0  0  0  0  0  0  0  0  0  0  0
  149.6257  131.7760  155.7640 H   0  0  0  0  0  0  0  0  0  0  0  0
  148.3499  134.0270  157.1896 H   0  0  0  0  0  0  0  0  0  0  0  0
  150.0727  134.1430  157.4380 H   0  0  0  0  0  0  0  0  0  0  0  0
  148.2342  136.3204  156.4758 H   0  0  0  0  0  0  0  0  0  0  0  0
  149.6457  136.4270  157.5373 H   0  0  0  0  0  0  0  0  0  0  0  0
  153.4935  138.5313  153.9598 H   0  0  0  0  0  0  0  0  0  0  0  0
  148.6023  140.9237  157.3949 H   0  0  0  0  0  0  0  0  0  0  0  0
  151.8782  142.3089  155.8826 H   0  0  0  0  0  0  0  0  0  0  0  0
  150.2214  142.8627  155.8074 H   0  0  0  0  0  0  0  0  0  0  0  0
  150.2457  142.2565  158.4367 H   0  0  0  0  0  0  0  0  0  0  0  0
  150.1602  144.3481  157.1791 H   0  0  0  0  0  0  0  0  0  0  0  0
  153.1883  142.8516  157.8151 H   0  0  0  0  0  0  0  0  0  0  0  0
  152.8596  144.0549  159.8907 H   0  0  0  0  0  0  0  0  0  0  0  0
  151.6568  142.8868  160.4496 H   0  0  0  0  0  0  0  0  0  0  0  0
  154.6254  142.3919  160.0456 H   0  0  0  0  0  0  0  0  0  0  0  0
  153.6859  142.0780  161.5114 H   0  0  0  0  0  0  0  0  0  0  0  0
  154.0923  140.0805  159.6841 H   0  0  0  0  0  0  0  0  0  0  0  0
  152.5179  140.2466  160.4654 H   0  0  0  0  0  0  0  0  0  0  0  0
  151.5706  134.8407  155.2427 H   0  0  0  0  0  0  0  0  0  0  0  0
  150.6187  135.1080  153.7851 H   0  0  0  0  0  0  0  0  0  0  0  0
  1  2  1  0  0  0  0
  1 28  1  0  0  0  0
  1 29  1  0  0  0  0
  1 30  1  0  0  0  0
  2  3  1  0  0  0  0
  2 31  1  0  0  0  0
  3  4  2  0  0  0  0
  3  5  1  0  0  0  0
  5 27  1  0  0  0  0
  5  6  1  0  0  0  0
  5  7  1  0  0  0  0
  6 32  1  0  0  0  0
  6 33  1  0  0  0  0
  6 34  1  0  0  0  0
  7  8  1  0  0  0  0
  7 35  1  0  0  0  0
  7 36  1  0  0  0  0
  8  9  1  0  0  0  0
  8 37  1  0  0  0  0
  8 38  1  0  0  0  0
  9 10  1  0  0  0  0
  9 27  1  0  0  0  0
 10 15  1  0  0  0  0
 10 11  2  0  0  0  0
 11 12  1  0  0  0  0
 12 13  2  0  0  0  0
 12 39  1  0  0  0  0
 13 14  1  0  0  0  0
 14 18  1  0  0  0  0
 14 15  2  0  0  0  0
 15 16  1  0  0  0  0
 16 17  2  0  0  0  0
 17 18  1  0  0  0  0
 17 40  1  0  0  0  0
 18 19  1  0  0  0  0
 19 20  1  0  0  0  0
 19 41  1  0  0  0  0
 19 42  1  0  0  0  0
 20 21  1  0  0  0  0
 20 22  1  0  0  0  0
 20 43  1  0  0  0  0
 21 44  1  0  0  0  0
 22 26  1  0  0  0  0
 22 23  1  0  0  0  0
 22 45  1  0  0  0  0
 23 24  1  0  0  0  0
 23 46  1  0  0  0  0
 23 47  1  0  0  0  0
 24 25  1  0  0  0  0
 24 48  1  0  0  0  0
 24 49  1  0  0  0  0
 25 26  1  0  0  0  0
 25 50  1  0  0  0  0
 25 51  1  0  0  0  0
 27 52  1  0  0  0  0
 27 53  1  0  0  0  0
M  END
> <s_m_source_file>
AV-unprocessed.smi

> <i_m_source_file_index>
260

> <i_lp_mmshare_version>
43012

> <i_f3d_flags>
0

> <s_epik_input>
W0NIM11bTkhdQyg9TylbQ0BAXTEoW0NIM10pW0NIMl1bQ0gyXU4oW0NIMl0xKWMobltjSF1uMiljKGMyMyluW2NIXW4zW0NIMl1bQ0BIXShbT0hdKVtDQEBIXTRbQ0gyXVtDSDJdW0NIMl1PNA==

> <s_epik_cmdline>
J2VwaWtfcHl0aG9uJywgJy1waCcsICc3LjAnLCAnLXRuJywgJzgnLCAnLW1hJywgJzIwMCcsICctbWV0YWxfYmluZGluZycsICctaW1hZScsICc8aW5maWxlLm1hZT4nLCAnLW9tYWUnLCAnPG91dGZpbGUubWFlPic=

> <r_lp_tautomer_probability>
1

> <r_epik_Ionization_Penalty>
0.00115068

> <r_epik_Ionization_Penalty_Charging>
0

> <r_epik_Ionization_Penalty_Neutral>
0.00115068

> <r_epik_State_Penalty>
0.000668876

> <r_epik_Charging_Adjusted_Penalty>
0.000668876

> <i_epik_Tot_Q>
0

> <i_epik_Tot_abs_Q>
0

> <r_epik_Metal_State_Penalty>
-0

> <b_epik_Metal_Only>
0

> <s_lp_Force_Field>
OPLS_2005

> <r_lp_Energy>
49.109

> <b_lp_Chiralities_Consistent>
1

> <s_lp_Variant>
AV-unprocessed.smi:260-6

> <Gold.Version>
5.8.1

> <Gold.Id.Protein>
6NUR|6NUR_protein|mol2

> <Gold.PLP.Fitness>
51.6197

> <Gold.PLP.PLP>
-45.5559

> <Gold.PLP.part.hbond>
-4.0416

> <Gold.PLP.part.metal>
0.0000

> <Gold.PLP.part.buried>
-6.8208

> <Gold.PLP.part.nonpolar>
-35.3577

> <Gold.PLP.part.repulsive>
0.1744

> <Gold.PLP.ligand.clash>
0.0000

> <Gold.PLP.ligand.torsion>
0.6541

> <Gold.PLP.Chemscore.Hbond>
2.3477

> <Gold.PLP.Chemscore.CHOScore>
0.0000

> <Gold.PLP.Chemscore.Metal>
0.0000

> <Gold.Chemscore.Hbonds>
donor molecule, donor type, donor heavy atom, donor atom, acceptor molecule, acceptor atom, score
      L1  H    21    44       P1  8028  1.00
      P1  H  7989  7998       L1    13  0.66
      P1  H 10752 10765       L1    11  0.74

> <Gold.PLP.Chemscore.Internal.Correction>
0.3290

> <Gold.Rescore>
     Score         DG    S(hbond)    S(metal)    S(lipo)     H(rot)  DE(clash)    DE(int)     intcor
     14.46     -15.23       1.68        0.00      90.57       2.53       0.04       0.72       ----

> <Gold.Chemscore.Fitness>
14.4613

> <Gold.Chemscore.DG>
-15.2266

> <Gold.Chemscore.ZeroCoef>
-5.4800

> <Gold.Chemscore.Hbond>
1.6814

> <Gold.Chemscore.Metal>
0.0000

> <Gold.Chemscore.Lipo>
90.5730

> <Gold.Chemscore.Internal_Hbond>
0.0000

> <Gold.Chemscore.DEClash>
0.0416

> <Gold.Chemscore.DEInternal>
0.7237

> <Gold.Chemscore.Rot>
2.5259

> <Gold.Chemscore.Internal.Correction>
   9.000000E+99

> <Gold.Chemscore.Hbonds>
donor molecule, donor type, donor heavy atom, donor atom, acceptor molecule, acceptor atom, score
      L1  H    21    44       P1  8028  0.68
      P1  H  7989  7998       L1    13  0.08
      P1  H 10752 10765       L1    11  0.65

> <Gold.Chemscore.Hbond.Weighted>
-5.6159

> <Gold.Chemscore.Metal.Weighted>
-0.0000

> <Gold.Chemscore.Lipo.Weighted>
-10.5970

> <Gold.Chemscore.Internal_Hbond.Weighted>
0.0000

> <Gold.Chemscore.DEClash.Weighted>
0.0416

> <Gold.Chemscore.DEInternal.Weighted>
0.7237

> <Gold.Chemscore.Rot.Weighted>
6.4663

> <Gold.Chemscore.Internal.Correction.Weighted>
   9.000000E+99

> <Gold.Protein.RotatedTorsions>
[ 6907 6896 6895 6894 ] final  104.99 input  -60.11 | X-H torsion
[ 7974 7965 7964 7962 ] final  -92.23 input  175.53 | X-H torsion
[ 8008 7997 7996 7995 ] final   23.09 input   59.86 | X-H torsion
[ 10167 10162 10161 10158 ] final -177.82 input  -65.29 | X-H torsion
[ 10718 10713 10712 10709 ] final   75.62 input   66.30 | X-H torsion
[ 10763 10752 10751 10750 ] final  170.05 input  -60.55 | X-H torsion
[ 11005 11000 10999 10996 ] final  133.56 input  -57.11 | X-H torsion

> <Gold.Protein.ActiveResidues>
 VAL166  LYS551  ARG553  GLY616  TRP617  ASP618  TYR619  PRO620  LYS621  CYS622 
 ASP623  PHE694  ASN695  SER759  ASP760  ASP761  ALA762  ILE779  LEU786  VAL792 
 PHE793  MET794  SER795  GLU796  ALA797  LYS798  CYS799  TRP800  GLU811  SER814 

> <Gold.Protein.RotatedAtoms>
  152.5246  133.9594  159.7709 H   0  0  0  0  0  0  0  0  0  0  0  0  # atno 6907 bound_to 6896
  150.9888  133.6162  159.2718 H   0  0  0  0  0  0  0  0  0  0  0  0  # atno 6908 bound_to 6896
  151.3313  135.0848  159.9393 H   0  0  0  0  0  0  0  0  0  0  0  0  # atno 6909 bound_to 6896
  145.4026  140.9538  143.2279 H   0  0  0  0  0  0  0  0  0  0  0  0  # atno 7974 bound_to 7965
  154.9756  140.3095  155.4968 H   0  0  0  0  0  0  0  0  0  0  0  0  # atno 8008 bound_to 7997
  156.2960  140.2276  156.4791 H   0  0  0  0  0  0  0  0  0  0  0  0  # atno 8009 bound_to 7997
  154.7836  140.0444  157.1135 H   0  0  0  0  0  0  0  0  0  0  0  0  # atno 8010 bound_to 7997
  139.5461  144.2231  152.0991 H   0  0  0  0  0  0  0  0  0  0  0  0  # atno 10167 bound_to 10162
  157.6641  130.9735  150.1379 H   0  0  0  0  0  0  0  0  0  0  0  0  # atno 10718 bound_to 10713
  154.3920  135.2754  155.2149 H   0  0  0  0  0  0  0  0  0  0  0  0  # atno 10763 bound_to 10752
  154.4211  135.6000  153.6014 H   0  0  0  0  0  0  0  0  0  0  0  0  # atno 10764 bound_to 10752
  152.9832  135.5973  154.4176 H   0  0  0  0  0  0  0  0  0  0  0  0  # atno 10765 bound_to 10752
  139.9859  134.9532  156.9742 H   0  0  0  0  0  0  0  0  0  0  0  0  # atno 11005 bound_to 11000
  144.8363  139.5544  143.6920 LP  0  0  0  0  0  0  0  0  0  0  0  0  # atno 17320 bound_to 7965
  146.2744  139.6716  142.9273 LP  0  0  0  0  0  0  0  0  0  0  0  0  # atno 17321 bound_to 7965
  140.1718  144.4929  150.6575 LP  0  0  0  0  0  0  0  0  0  0  0  0  # atno 17342 bound_to 10162
  140.6710  143.2286  151.5625 LP  0  0  0  0  0  0  0  0  0  0  0  0  # atno 17343 bound_to 10162
  156.2209  130.3674  149.8557 LP  0  0  0  0  0  0  0  0  0  0  0  0  # atno 17370 bound_to 10713
  156.6410  130.8705  151.3514 LP  0  0  0  0  0  0  0  0  0  0  0  0  # atno 17371 bound_to 10713
  140.5003  134.1104  155.7249 LP  0  0  0  0  0  0  0  0  0  0  0  0  # atno 17394 bound_to 11000
  141.1524  133.8944  157.2064 LP  0  0  0  0  0  0  0  0  0  0  0  0  # atno 17395 bound_to 11000

$$$$
