AV-unprocessed.smi:3157|AV-procd|sdf|12040|dock5
  -GOLD-   2272017463D 1   1.00000     0.00000
 Structure written by MMmdl.
 40 41  0  0  0  0  0  0  0  0  2 V2000
  150.0839  140.5587  155.1154 C   0  0  0  0  0  0  0  0  0  0  0  0
  148.7700  141.1800  155.6169 C   0  0  1  0  0  0  0  0  0  0  0  0
  149.0967  142.2467  156.5922 N   0  3  0  0  0  0  0  0  0  0  0  0
  150.2401  141.9520  157.4804 C   0  0  0  0  0  0  0  0  0  0  0  0
  150.9325  143.2430  157.9435 C   0  0  0  0  0  0  0  0  0  0  0  0
  152.2110  142.9929  158.7479 C   0  0  0  0  0  0  0  0  0  0  0  0
  152.4493  144.2829  159.5427 C   0  0  0  0  0  0  0  0  0  0  0  0
  151.1000  145.0153  159.5924 C   0  0  0  0  0  0  0  0  0  0  0  0
  150.0918  144.0955  158.8984 C   0  0  0  0  0  0  0  0  0  0  0  0
  147.8963  141.7458  154.4652 C   0  0  1  0  0  0  0  0  0  0  0  0
  147.4907  140.6845  153.4249 C   0  0  0  0  0  0  0  0  0  0  0  0
  146.7049  142.4088  154.9844 N   0  0  0  0  0  0  0  0  0  0  0  0
  145.7240  143.0953  154.2955 C   0  0  0  0  0  0  0  0  0  0  0  0
  144.7938  143.5039  155.2075 C   0  0  0  0  0  0  0  0  0  0  0  0
  145.2926  143.0092  156.4441 C   0  0  0  0  0  0  0  0  0  0  0  0
  146.4291  142.3458  156.3060 N   0  0  0  0  0  0  0  0  0  0  0  0
  149.9043  139.6853  154.4887 H   0  0  0  0  0  0  0  0  0  0  0  0
  150.7023  140.2272  155.9503 H   0  0  0  0  0  0  0  0  0  0  0  0
  150.6664  141.2747  154.5345 H   0  0  0  0  0  0  0  0  0  0  0  0
  148.2114  140.3920  156.1255 H   0  0  0  0  0  0  0  0  0  0  0  0
  149.3052  143.0935  156.0830 H   0  0  0  0  0  0  0  0  0  0  0  0
  149.9046  141.3773  158.3442 H   0  0  0  0  0  0  0  0  0  0  0  0
  150.9486  141.3256  156.9369 H   0  0  0  0  0  0  0  0  0  0  0  0
  151.1940  143.8467  157.0724 H   0  0  0  0  0  0  0  0  0  0  0  0
  152.0564  142.1656  159.4426 H   0  0  0  0  0  0  0  0  0  0  0  0
  153.0593  142.7334  158.1133 H   0  0  0  0  0  0  0  0  0  0  0  0
  152.8280  144.0640  160.5418 H   0  0  0  0  0  0  0  0  0  0  0  0
  153.1915  144.9065  159.0431 H   0  0  0  0  0  0  0  0  0  0  0  0
  150.7953  145.2476  160.6136 H   0  0  0  0  0  0  0  0  0  0  0  0
  151.1755  145.9597  159.0518 H   0  0  0  0  0  0  0  0  0  0  0  0
  149.3046  144.6509  158.3874 H   0  0  0  0  0  0  0  0  0  0  0  0
  149.6152  143.4582  159.6443 H   0  0  0  0  0  0  0  0  0  0  0  0
  148.4832  142.4994  153.9362 H   0  0  0  0  0  0  0  0  0  0  0  0
  148.3549  140.3012  152.8829 H   0  0  0  0  0  0  0  0  0  0  0  0
  146.8136  141.1069  152.6815 H   0  0  0  0  0  0  0  0  0  0  0  0
  146.9861  139.8371  153.8900 H   0  0  0  0  0  0  0  0  0  0  0  0
  145.7664  143.2331  153.2251 H   0  0  0  0  0  0  0  0  0  0  0  0
  143.8926  144.0687  155.0198 H   0  0  0  0  0  0  0  0  0  0  0  0
  144.8615  143.1046  157.4296 H   0  0  0  0  0  0  0  0  0  0  0  0
  148.2793  142.4098  157.1634 H   0  0  0  0  0  0  0  0  0  0  0  0
  1  2  1  0  0  0  0
  1 17  1  0  0  0  0
  1 18  1  0  0  0  0
  1 19  1  0  0  0  0
  2  3  1  0  0  0  0
  2 10  1  0  0  0  0
  2 20  1  0  0  0  0
  3  4  1  0  0  0  0
  3 21  1  0  0  0  0
  3 40  1  0  0  0  0
  4  5  1  0  0  0  0
  4 22  1  0  0  0  0
  4 23  1  0  0  0  0
  5  9  1  0  0  0  0
  5  6  1  0  0  0  0
  5 24  1  0  0  0  0
  6  7  1  0  0  0  0
  6 25  1  0  0  0  0
  6 26  1  0  0  0  0
  7  8  1  0  0  0  0
  7 27  1  0  0  0  0
  7 28  1  0  0  0  0
  8  9  1  0  0  0  0
  8 29  1  0  0  0  0
  8 30  1  0  0  0  0
  9 31  1  0  0  0  0
  9 32  1  0  0  0  0
 10 11  1  0  0  0  0
 10 12  1  0  0  0  0
 10 33  1  0  0  0  0
 11 34  1  0  0  0  0
 11 35  1  0  0  0  0
 11 36  1  0  0  0  0
 12 16  1  0  0  0  0
 12 13  1  0  0  0  0
 13 14  2  0  0  0  0
 13 37  1  0  0  0  0
 14 15  1  0  0  0  0
 14 38  1  0  0  0  0
 15 16  2  0  0  0  0
 15 39  1  0  0  0  0
M  CHG  1   3   1
M  END
> <s_m_source_file>
AV-unprocessed.smi

> <i_m_source_file_index>
3157

> <i_lp_mmshare_version>
43012

> <i_f3d_flags>
0

> <s_epik_input>
bjFbY0hdW2NIXVtjSF1uMVtDQEBIXShbQ0gzXSlbQ0BIXShbQ0gzXSlbTkhdW0NIMl1bQ0hdMltDSDJdW0NIMl1bQ0gyXVtDSDJdMg==

> <s_epik_cmdline>
J2VwaWtfcHl0aG9uJywgJy1waCcsICc3LjAnLCAnLXRuJywgJzgnLCAnLW1hJywgJzIwMCcsICctbWV0YWxfYmluZGluZycsICctaW1hZScsICc8aW5maWxlLm1hZT4nLCAnLW9tYWUnLCAnPG91dGZpbGUubWFlPic=

> <r_lp_tautomer_probability>
1

> <r_epik_Ionization_Penalty>
0.00132192

> <r_epik_Ionization_Penalty_Charging>
0.0013111

> <r_epik_Ionization_Penalty_Neutral>
1.08112e-05

> <r_epik_State_Penalty>
-0

> <r_epik_Charging_Adjusted_Penalty>
0.0013111

> <i_epik_Tot_Q>
1

> <i_epik_Tot_abs_Q>
1

> <r_epik_Metal_State_Penalty>
-0

> <b_epik_Metal_Only>
0

> <s_lp_Force_Field>
OPLS_2005

> <r_lp_Energy>
31.1459

> <b_lp_Chiralities_Consistent>
1

> <s_lp_Variant>
AV-unprocessed.smi:3157-4

> <Gold.Version>
5.8.1

> <Gold.Id.Protein>
6NUR|6NUR_protein|mol2

> <Gold.PLP.Fitness>
41.3211

> <Gold.PLP.PLP>
-36.1175

> <Gold.PLP.part.hbond>
-1.0000

> <Gold.PLP.part.metal>
0.0000

> <Gold.PLP.part.buried>
-3.6322

> <Gold.PLP.part.nonpolar>
-32.9860

> <Gold.PLP.part.repulsive>
0.1578

> <Gold.PLP.ligand.clash>
0.0253

> <Gold.PLP.ligand.torsion>
0.4266

> <Gold.PLP.Chemscore.Hbond>
2.0000

> <Gold.PLP.Chemscore.CHOScore>
0.0000

> <Gold.PLP.Chemscore.Metal>
0.0000

> <Gold.Chemscore.Hbonds>
donor molecule, donor type, donor heavy atom, donor atom, acceptor molecule, acceptor atom, score
      L1  H     3    21       P1  8028  1.98

> <Gold.PLP.Chemscore.Internal.Correction>
0.0822

> <Gold.Rescore>
     Score         DG    S(hbond)    S(metal)    S(lipo)     H(rot)  DE(clash)    DE(int)     intcor
     14.62     -16.55       0.96        0.00     100.13       1.50       0.04       1.90       ----

> <Gold.Chemscore.Fitness>
14.6170

> <Gold.Chemscore.DG>
-16.5540

> <Gold.Chemscore.ZeroCoef>
-5.4800

> <Gold.Chemscore.Hbond>
0.9613

> <Gold.Chemscore.Metal>
0.0000

> <Gold.Chemscore.Lipo>
100.1297

> <Gold.Chemscore.Internal_Hbond>
0.0000

> <Gold.Chemscore.DEClash>
0.0401

> <Gold.Chemscore.DEInternal>
1.8969

> <Gold.Chemscore.Rot>
1.5047

> <Gold.Chemscore.Internal.Correction>
   9.000000E+99

> <Gold.Chemscore.Hbonds>
donor molecule, donor type, donor heavy atom, donor atom, acceptor molecule, acceptor atom, score
      L1  H     3    21       P1  8028  0.93

> <Gold.Chemscore.Hbond.Weighted>
-3.2108

> <Gold.Chemscore.Metal.Weighted>
-0.0000

> <Gold.Chemscore.Lipo.Weighted>
-11.7152

> <Gold.Chemscore.Internal_Hbond.Weighted>
0.0000

> <Gold.Chemscore.DEClash.Weighted>
0.0401

> <Gold.Chemscore.DEInternal.Weighted>
1.8969

> <Gold.Chemscore.Rot.Weighted>
3.8520

> <Gold.Chemscore.Internal.Correction.Weighted>
   9.000000E+99

> <Gold.Protein.RotatedTorsions>
[ 6907 6896 6895 6894 ] final  -82.63 input  -60.11 | X-H torsion
[ 7974 7965 7964 7962 ] final  -83.59 input  175.53 | X-H torsion
[ 8008 7997 7996 7995 ] final  -29.43 input   59.86 | X-H torsion
[ 10167 10162 10161 10158 ] final -137.00 input  -65.29 | X-H torsion
[ 10718 10713 10712 10709 ] final   67.59 input   66.30 | X-H torsion
[ 10763 10752 10751 10750 ] final  -66.78 input  -60.55 | X-H torsion
[ 11005 11000 10999 10996 ] final  -27.22 input  -57.11 | X-H torsion

> <Gold.Protein.ActiveResidues>
 VAL166  LYS551  ARG553  GLY616  TRP617  ASP618  TYR619  PRO620  LYS621  CYS622 
 ASP623  PHE694  ASN695  SER759  ASP760  ASP761  ALA762  ILE779  LEU786  VAL792 
 PHE793  MET794  SER795  GLU796  ALA797  LYS798  CYS799  TRP800  GLU811  SER814 

> <Gold.Protein.RotatedAtoms>
  150.6895  134.3635  159.4960 H   0  0  0  0  0  0  0  0  0  0  0  0  # atno 6907 bound_to 6896
  152.1460  134.9022  160.0560 H   0  0  0  0  0  0  0  0  0  0  0  0  # atno 6908 bound_to 6896
  152.0138  133.3837  159.4267 H   0  0  0  0  0  0  0  0  0  0  0  0  # atno 6909 bound_to 6896
  145.5179  140.9534  143.1671 H   0  0  0  0  0  0  0  0  0  0  0  0  # atno 7974 bound_to 7965
  154.4290  140.1818  156.1247 H   0  0  0  0  0  0  0  0  0  0  0  0  # atno 8008 bound_to 7997
  156.0115  140.3350  155.6920 H   0  0  0  0  0  0  0  0  0  0  0  0  # atno 8009 bound_to 7997
  155.6104  140.0649  157.2698 H   0  0  0  0  0  0  0  0  0  0  0  0  # atno 8010 bound_to 7997
  139.8622  143.7063  152.2649 H   0  0  0  0  0  0  0  0  0  0  0  0  # atno 10167 bound_to 10162
  157.6239  130.9329  150.0263 H   0  0  0  0  0  0  0  0  0  0  0  0  # atno 10718 bound_to 10713
  154.3649  135.6108  153.5709 H   0  0  0  0  0  0  0  0  0  0  0  0  # atno 10763 bound_to 10752
  152.9792  135.5824  154.4590 H   0  0  0  0  0  0  0  0  0  0  0  0  # atno 10764 bound_to 10752
  154.4334  135.2848  155.1875 H   0  0  0  0  0  0  0  0  0  0  0  0  # atno 10765 bound_to 10752
  140.9100  133.7467  156.0657 H   0  0  0  0  0  0  0  0  0  0  0  0  # atno 11005 bound_to 11000
  144.7692  139.6775  143.7202 LP  0  0  0  0  0  0  0  0  0  0  0  0  # atno 17320 bound_to 7965
  146.2125  139.5490  142.9672 LP  0  0  0  0  0  0  0  0  0  0  0  0  # atno 17321 bound_to 7965
  139.7363  144.7570  151.0722 LP  0  0  0  0  0  0  0  0  0  0  0  0  # atno 17342 bound_to 10162
  140.7773  143.5026  150.9752 LP  0  0  0  0  0  0  0  0  0  0  0  0  # atno 17343 bound_to 10162
  156.1400  130.3642  149.9597 LP  0  0  0  0  0  0  0  0  0  0  0  0  # atno 17370 bound_to 10713
  156.7640  130.9161  151.3642 LP  0  0  0  0  0  0  0  0  0  0  0  0  # atno 17371 bound_to 10713
  140.8123  134.3385  157.5408 LP  0  0  0  0  0  0  0  0  0  0  0  0  # atno 17394 bound_to 11000
  139.8756  134.9261  156.3391 LP  0  0  0  0  0  0  0  0  0  0  0  0  # atno 17395 bound_to 11000

$$$$
