AV-unprocessed.smi:3003|AV-procd|sdf|11438|dock4
  -GOLD-   2272016363D 1   1.00000     0.00000
 Structure written by MMmdl.
 41 42  0  0  0  0  0  0  0  0  1 V2000
  149.4427  132.6369  153.2413 C   0  0  0  0  0  0  0  0  0  0  0  0
  150.6771  133.2470  154.4216 S   0  0  0  0  0  0  0  0  0  0  0  0
  149.9622  134.8589  154.8630 C   0  0  1  0  0  0  0  0  0  0  0  0
  149.3259  134.7943  156.2604 C   0  0  0  0  0  0  0  0  0  0  0  0
  150.9989  135.9861  154.7874 C   0  0  0  0  0  0  0  0  0  0  0  0
  151.9863  135.9726  155.5233 O   0  0  0  0  0  0  0  0  0  0  0  0
  150.7639  136.9584  153.8923 N   0  0  0  0  0  0  0  0  0  0  0  0
  151.6118  138.1291  153.6924 C   0  0  0  0  0  0  0  0  0  0  0  0
  151.6240  139.0912  154.8714 C   0  0  0  0  0  0  0  0  0  0  0  0
  150.4888  139.8508  155.2228 C   0  0  0  0  0  0  0  0  0  0  0  0
  150.5627  140.7192  156.3283 C   0  0  0  0  0  0  0  0  0  0  0  0
  151.7729  140.8098  157.0565 C   0  0  0  0  0  0  0  0  0  0  0  0
  151.8660  141.6664  158.1751 N   0  0  0  0  0  0  0  0  0  0  0  0
  153.0554  141.4925  159.0058 C   0  0  0  0  0  0  0  0  0  0  0  0
  152.8988  142.2531  160.3339 C   0  0  0  0  0  0  0  0  0  0  0  0
  152.6009  143.6210  160.0751 O   0  0  0  0  0  0  0  0  0  0  0  0
  151.3775  143.7694  159.3627 C   0  0  0  0  0  0  0  0  0  0  0  0
  151.4837  143.0664  157.9991 C   0  0  0  0  0  0  0  0  0  0  0  0
  152.8673  140.0907  156.7036 N   0  0  0  0  0  0  0  0  0  0  0  0
  152.7907  139.2581  155.6440 C   0  0  0  0  0  0  0  0  0  0  0  0
  149.7149  131.6381  152.9003 H   0  0  0  0  0  0  0  0  0  0  0  0
  149.3829  133.2909  152.3716 H   0  0  0  0  0  0  0  0  0  0  0  0
  148.4598  132.5856  153.7096 H   0  0  0  0  0  0  0  0  0  0  0  0
  149.1649  135.0653  154.1470 H   0  0  0  0  0  0  0  0  0  0  0  0
  148.9005  135.7567  156.5475 H   0  0  0  0  0  0  0  0  0  0  0  0
  150.0542  134.5107  157.0214 H   0  0  0  0  0  0  0  0  0  0  0  0
  148.5199  134.0606  156.2861 H   0  0  0  0  0  0  0  0  0  0  0  0
  149.9338  136.8905  153.3213 H   0  0  0  0  0  0  0  0  0  0  0  0
  152.6293  137.8096  153.4600 H   0  0  0  0  0  0  0  0  0  0  0  0
  151.2495  138.6668  152.8161 H   0  0  0  0  0  0  0  0  0  0  0  0
  149.5720  139.7743  154.6571 H   0  0  0  0  0  0  0  0  0  0  0  0
  149.6997  141.3111  156.5946 H   0  0  0  0  0  0  0  0  0  0  0  0
  153.2486  140.4427  159.2209 H   0  0  0  0  0  0  0  0  0  0  0  0
  153.9223  141.8692  158.4611 H   0  0  0  0  0  0  0  0  0  0  0  0
  152.1126  141.8079  160.9457 H   0  0  0  0  0  0  0  0  0  0  0  0
  153.8219  142.1941  160.9106 H   0  0  0  0  0  0  0  0  0  0  0  0
  150.5514  143.3618  159.9475 H   0  0  0  0  0  0  0  0  0  0  0  0
  151.1747  144.8312  159.2224 H   0  0  0  0  0  0  0  0  0  0  0  0
  152.2259  143.5689  157.3774 H   0  0  0  0  0  0  0  0  0  0  0  0
  150.5251  143.1338  157.4833 H   0  0  0  0  0  0  0  0  0  0  0  0
  153.6885  138.7049  155.4112 H   0  0  0  0  0  0  0  0  0  0  0  0
  1  2  1  0  0  0  0
  1 21  1  0  0  0  0
  1 22  1  0  0  0  0
  1 23  1  0  0  0  0
  2  3  1  0  0  0  0
  3  4  1  0  0  0  0
  3  5  1  0  0  0  0
  3 24  1  0  0  0  0
  4 25  1  0  0  0  0
  4 26  1  0  0  0  0
  4 27  1  0  0  0  0
  5  6  2  0  0  0  0
  5  7  1  0  0  0  0
  7  8  1  0  0  0  0
  7 28  1  0  0  0  0
  8  9  1  0  0  0  0
  8 29  1  0  0  0  0
  8 30  1  0  0  0  0
  9 20  1  0  0  0  0
  9 10  2  0  0  0  0
 10 11  1  0  0  0  0
 10 31  1  0  0  0  0
 11 12  2  0  0  0  0
 11 32  1  0  0  0  0
 12 13  1  0  0  0  0
 12 19  1  0  0  0  0
 13 18  1  0  0  0  0
 13 14  1  0  0  0  0
 14 15  1  0  0  0  0
 14 33  1  0  0  0  0
 14 34  1  0  0  0  0
 15 16  1  0  0  0  0
 15 35  1  0  0  0  0
 15 36  1  0  0  0  0
 16 17  1  0  0  0  0
 17 18  1  0  0  0  0
 17 37  1  0  0  0  0
 17 38  1  0  0  0  0
 18 39  1  0  0  0  0
 18 40  1  0  0  0  0
 19 20  2  0  0  0  0
 20 41  1  0  0  0  0
M  END
> <s_m_source_file>
AV-unprocessed.smi

> <i_m_source_file_index>
3003

> <i_lp_mmshare_version>
43012

> <i_f3d_flags>
0

> <s_epik_input>
W0NIM11TW0NASF0oW0NIM10pQyg9TylbTkhdW0NIMl1jMVtjSF1bY0hdYyhuW2NIXTEpTjJbQ0gyXVtDSDJdT1tDSDJdW0NIMl0y

> <s_epik_cmdline>
J2VwaWtfcHl0aG9uJywgJy1waCcsICc3LjAnLCAnLXRuJywgJzgnLCAnLW1hJywgJzIwMCcsICctbWV0YWxfYmluZGluZycsICctaW1hZScsICc8aW5maWxlLm1hZT4nLCAnLW9tYWUnLCAnPG91dGZpbGUubWFlPic=

> <r_lp_tautomer_probability>
1

> <r_epik_Ionization_Penalty>
0.00417642

> <r_epik_Ionization_Penalty_Charging>
0

> <r_epik_Ionization_Penalty_Neutral>
0.00417642

> <r_epik_State_Penalty>
0.00299889

> <r_epik_Charging_Adjusted_Penalty>
0.00299889

> <i_epik_Tot_Q>
0

> <i_epik_Tot_abs_Q>
0

> <r_epik_Metal_State_Penalty>
-0

> <b_epik_Metal_Only>
0

> <s_lp_Force_Field>
OPLS_2005

> <r_lp_Energy>
16.8537

> <b_lp_Chiralities_Consistent>
1

> <s_lp_Variant>
AV-unprocessed.smi:3003-2

> <Gold.Version>
5.8.1

> <Gold.Id.Protein>
6NUR|6NUR_protein|mol2

> <Gold.PLP.Fitness>
45.2243

> <Gold.PLP.PLP>
-38.1681

> <Gold.PLP.part.hbond>
-4.0000

> <Gold.PLP.part.metal>
0.0000

> <Gold.PLP.part.buried>
-1.3815

> <Gold.PLP.part.nonpolar>
-31.8745

> <Gold.PLP.part.repulsive>
0.1128

> <Gold.PLP.ligand.clash>
0.0000

> <Gold.PLP.ligand.torsion>
0.9261

> <Gold.PLP.Chemscore.Hbond>
2.8352

> <Gold.PLP.Chemscore.CHOScore>
0.0000

> <Gold.PLP.Chemscore.Metal>
0.0000

> <Gold.Chemscore.Hbonds>
donor molecule, donor type, donor heavy atom, donor atom, acceptor molecule, acceptor atom, score
      L1  H     7    28       P1  7948  0.95
      P1  H  7997  8008       L1    19  0.63
      P1  H 10752 10763       L1     6  0.44

> <Gold.PLP.Chemscore.Internal.Correction>
0.4029

> <Gold.Rescore>
     Score         DG    S(hbond)    S(metal)    S(lipo)     H(rot)  DE(clash)    DE(int)     intcor
     18.50     -19.50       2.19        0.00      93.76       1.67       0.26       0.73       ----

> <Gold.Chemscore.Fitness>
18.5049

> <Gold.Chemscore.DG>
-19.4988

> <Gold.Chemscore.ZeroCoef>
-5.4800

> <Gold.Chemscore.Hbond>
2.1916

> <Gold.Chemscore.Metal>
0.0000

> <Gold.Chemscore.Lipo>
93.7580

> <Gold.Chemscore.Internal_Hbond>
0.0000

> <Gold.Chemscore.DEClash>
0.2594

> <Gold.Chemscore.DEInternal>
0.7345

> <Gold.Chemscore.Rot>
1.6682

> <Gold.Chemscore.Internal.Correction>
   9.000000E+99

> <Gold.Chemscore.Hbonds>
donor molecule, donor type, donor heavy atom, donor atom, acceptor molecule, acceptor atom, score
      L1  H     7    28       P1  7948  0.21
      P1  H  7997  8008       L1    19  0.09
      P1  H 10752 10763       L1     6  0.32

> <Gold.Chemscore.Hbond.Weighted>
-7.3198

> <Gold.Chemscore.Metal.Weighted>
-0.0000

> <Gold.Chemscore.Lipo.Weighted>
-10.9697

> <Gold.Chemscore.Internal_Hbond.Weighted>
0.0000

> <Gold.Chemscore.DEClash.Weighted>
0.2594

> <Gold.Chemscore.DEInternal.Weighted>
0.7345

> <Gold.Chemscore.Rot.Weighted>
4.2707

> <Gold.Chemscore.Internal.Correction.Weighted>
   9.000000E+99

> <Gold.Protein.RotatedTorsions>
[ 6907 6896 6895 6894 ] final  168.39 input  -60.11 | X-H torsion
[ 7974 7965 7964 7962 ] final  144.57 input  175.53 | X-H torsion
[ 8008 7997 7996 7995 ] final  -74.06 input   59.86 | X-H torsion
[ 10167 10162 10161 10158 ] final  -48.08 input  -65.29 | X-H torsion
[ 10718 10713 10712 10709 ] final  108.69 input   66.30 | X-H torsion
[ 10763 10752 10751 10750 ] final   77.45 input  -60.55 | X-H torsion
[ 11005 11000 10999 10996 ] final   69.77 input  -57.11 | X-H torsion

> <Gold.Protein.ActiveResidues>
 VAL166  LYS551  ARG553  GLY616  TRP617  ASP618  TYR619  PRO620  LYS621  CYS622 
 ASP623  PHE694  ASN695  SER759  ASP760  ASP761  ALA762  ILE779  LEU786  VAL792 
 PHE793  MET794  SER795  GLU796  ALA797  LYS798  CYS799  TRP800  GLU811  SER814 

> <Gold.Protein.RotatedAtoms>
  151.8483  133.3435  159.3664 H   0  0  0  0  0  0  0  0  0  0  0  0  # atno 6907 bound_to 6896
  150.7214  134.5324  159.5716 H   0  0  0  0  0  0  0  0  0  0  0  0  # atno 6908 bound_to 6896
  152.2812  134.7827  160.0447 H   0  0  0  0  0  0  0  0  0  0  0  0  # atno 6909 bound_to 6896
  144.8825  139.5678  143.5836 H   0  0  0  0  0  0  0  0  0  0  0  0  # atno 7974 bound_to 7965
  154.5299  140.0768  156.8326 H   0  0  0  0  0  0  0  0  0  0  0  0  # atno 8008 bound_to 7997
  155.3396  140.3406  155.4221 H   0  0  0  0  0  0  0  0  0  0  0  0  # atno 8009 bound_to 7997
  156.1771  140.1639  156.8330 H   0  0  0  0  0  0  0  0  0  0  0  0  # atno 8010 bound_to 7997
  140.6747  143.2756  151.4019 H   0  0  0  0  0  0  0  0  0  0  0  0  # atno 10167 bound_to 10162
  157.6575  131.0899  150.6343 H   0  0  0  0  0  0  0  0  0  0  0  0  # atno 10718 bound_to 10713
  153.0799  135.4914  154.8482 H   0  0  0  0  0  0  0  0  0  0  0  0  # atno 10763 bound_to 10752
  154.7137  135.3025  154.9159 H   0  0  0  0  0  0  0  0  0  0  0  0  # atno 10764 bound_to 10752
  153.9844  135.6786  153.4804 H   0  0  0  0  0  0  0  0  0  0  0  0  # atno 10765 bound_to 10752
  139.9635  134.7021  156.0596 H   0  0  0  0  0  0  0  0  0  0  0  0  # atno 11005 bound_to 11000
  146.3003  139.7407  142.9096 LP  0  0  0  0  0  0  0  0  0  0  0  0  # atno 17320 bound_to 7965
  145.3928  141.0375  143.3114 LP  0  0  0  0  0  0  0  0  0  0  0  0  # atno 17321 bound_to 7965
  139.6033  144.1250  152.2221 LP  0  0  0  0  0  0  0  0  0  0  0  0  # atno 17342 bound_to 10162
  140.0641  144.5832  150.7240 LP  0  0  0  0  0  0  0  0  0  0  0  0  # atno 17343 bound_to 10162
  156.6649  130.4522  149.5676 LP  0  0  0  0  0  0  0  0  0  0  0  0  # atno 17370 bound_to 10713
  156.2040  130.6637  151.1198 LP  0  0  0  0  0  0  0  0  0  0  0  0  # atno 17371 bound_to 10713
  141.1313  133.6586  156.3473 LP  0  0  0  0  0  0  0  0  0  0  0  0  # atno 17394 bound_to 11000
  140.5448  134.6085  157.5390 LP  0  0  0  0  0  0  0  0  0  0  0  0  # atno 17395 bound_to 11000

$$$$
