AV-unprocessed.smi:3354|AV-procd|sdf|12956|dock7
  -GOLD-   2272019393D 1   1.00000     0.00000
 Structure written by MMmdl.
 38 40  0  0  0  0  0  0  0  0  1 V2000
  148.5364  141.0129  153.4858 C   0  0  0  0  0  0  0  0  0  0  0  0
  149.2866  141.6935  154.6141 C   0  0  1  0  0  0  0  0  0  0  0  0
  148.9522  141.3892  156.0561 C   0  0  0  0  0  0  0  0  0  0  0  0
  150.2873  140.9560  155.4828 C   0  0  1  0  0  0  0  0  0  0  0  0
  150.5601  139.5704  155.2355 N   0  0  0  0  0  0  0  0  0  0  0  0
  149.5307  138.5458  155.3462 C   0  0  0  0  0  0  0  0  0  0  0  0
  150.2888  137.2088  155.4271 C   0  0  1  0  0  0  0  0  0  0  0  0
  149.6864  136.2066  154.5499 N   0  0  0  0  0  0  0  0  0  0  0  0
  149.4253  134.9336  154.8801 C   0  0  0  0  0  0  0  0  0  0  0  0
  149.6642  134.4532  155.9878 O   0  0  0  0  0  0  0  0  0  0  0  0
  148.8572  134.2754  153.8548 N   0  0  0  0  0  0  0  0  0  0  0  0
  148.4562  132.9133  153.7897 C   0  0  0  0  0  0  0  0  0  0  0  0
  149.1254  131.8524  154.4472 C   0  0  0  0  0  0  0  0  0  0  0  0
  148.6408  130.5399  154.2868 C   0  0  0  0  0  0  0  0  0  0  0  0
  147.5115  130.3345  153.4709 C   0  0  0  0  0  0  0  0  0  0  0  0
  146.8719  131.3339  152.8276 N   0  0  0  0  0  0  0  0  0  0  0  0
  147.3426  132.5893  152.9855 C   0  0  0  0  0  0  0  0  0  0  0  0
  151.7313  137.5327  155.0153 C   0  0  0  0  0  0  0  0  0  0  0  0
  151.7822  139.0496  155.0785 C   0  0  0  0  0  0  0  0  0  0  0  0
  152.8345  139.6827  155.0072 O   0  0  0  0  0  0  0  0  0  0  0  0
  148.2172  140.0104  153.7711 H   0  0  0  0  0  0  0  0  0  0  0  0
  149.1754  140.9372  152.6057 H   0  0  0  0  0  0  0  0  0  0  0  0
  147.6514  141.5927  153.2240 H   0  0  0  0  0  0  0  0  0  0  0  0
  149.5424  142.7279  154.3920 H   0  0  0  0  0  0  0  0  0  0  0  0
  148.9554  142.2236  156.7543 H   0  0  0  0  0  0  0  0  0  0  0  0
  148.1863  140.6392  156.2413 H   0  0  0  0  0  0  0  0  0  0  0  0
  151.1432  141.5408  155.8165 H   0  0  0  0  0  0  0  0  0  0  0  0
  148.9077  138.7016  156.2281 H   0  0  0  0  0  0  0  0  0  0  0  0
  148.8876  138.5923  154.4661 H   0  0  0  0  0  0  0  0  0  0  0  0
  150.2973  136.8747  156.4663 H   0  0  0  0  0  0  0  0  0  0  0  0
  149.4478  136.5094  153.6168 H   0  0  0  0  0  0  0  0  0  0  0  0
  148.6425  134.8279  153.0377 H   0  0  0  0  0  0  0  0  0  0  0  0
  150.0028  132.0136  155.0540 H   0  0  0  0  0  0  0  0  0  0  0  0
  149.1278  129.7083  154.7746 H   0  0  0  0  0  0  0  0  0  0  0  0
  147.1152  129.3404  153.3260 H   0  0  0  0  0  0  0  0  0  0  0  0
  146.8083  133.3628  152.4532 H   0  0  0  0  0  0  0  0  0  0  0  0
  152.4611  137.0821  155.6887 H   0  0  0  0  0  0  0  0  0  0  0  0
  151.9541  137.2130  153.9964 H   0  0  0  0  0  0  0  0  0  0  0  0
  1  2  1  0  0  0  0
  1 21  1  0  0  0  0
  1 22  1  0  0  0  0
  1 23  1  0  0  0  0
  2  4  1  0  0  0  0
  2  3  1  0  0  0  0
  2 24  1  0  0  0  0
  3  4  1  0  0  0  0
  3 25  1  0  0  0  0
  3 26  1  0  0  0  0
  4  5  1  0  0  0  0
  4 27  1  0  0  0  0
  5 19  1  0  0  0  0
  5  6  1  0  0  0  0
  6  7  1  0  0  0  0
  6 28  1  0  0  0  0
  6 29  1  0  0  0  0
  7  8  1  0  0  0  0
  7 18  1  0  0  0  0
  7 30  1  0  0  0  0
  8  9  1  0  0  0  0
  8 31  1  0  0  0  0
  9 10  2  0  0  0  0
  9 11  1  0  0  0  0
 11 12  1  0  0  0  0
 11 32  1  0  0  0  0
 12 17  1  0  0  0  0
 12 13  2  0  0  0  0
 13 14  1  0  0  0  0
 13 33  1  0  0  0  0
 14 15  2  0  0  0  0
 14 34  1  0  0  0  0
 15 16  1  0  0  0  0
 15 35  1  0  0  0  0
 16 17  2  0  0  0  0
 17 36  1  0  0  0  0
 18 19  1  0  0  0  0
 18 37  1  0  0  0  0
 18 38  1  0  0  0  0
 19 20  2  0  0  0  0
M  END
> <s_m_source_file>
AV-unprocessed.smi

> <i_m_source_file_index>
3354

> <i_lp_mmshare_version>
43012

> <i_f3d_flags>
0

> <s_epik_input>
W0NIM11bQ0BASF0xW0NIMl1bQ0BIXTFOMltDSDJdW0NASF0oW0NIMl1DMj1PKVtOSF1DKD1PKVtOSF1jM1tjSF1bY0hdW2NIXW5bY0hdMw==

> <s_epik_cmdline>
J2VwaWtfcHl0aG9uJywgJy1waCcsICc3LjAnLCAnLXRuJywgJzgnLCAnLW1hJywgJzIwMCcsICctbWV0YWxfYmluZGluZycsICctaW1hZScsICc8aW5maWxlLm1hZT4nLCAnLW9tYWUnLCAnPG91dGZpbGUubWFlPic=

> <r_epik_Ionization_Penalty>
0.00456191

> <r_epik_Ionization_Penalty_Charging>
0

> <r_epik_Ionization_Penalty_Neutral>
0.00456191

> <r_epik_State_Penalty>
0.00327094

> <r_epik_Charging_Adjusted_Penalty>
0.00327094

> <i_epik_Tot_Q>
0

> <i_epik_Tot_abs_Q>
0

> <r_epik_Metal_State_Penalty>
-0

> <b_epik_Metal_Only>
0

> <s_lp_Force_Field>
OPLS_2005

> <r_lp_Energy>
43.9825

> <b_lp_Chiralities_Consistent>
1

> <s_lp_Variant>
AV-unprocessed.smi:3354-2

> <Gold.Version>
5.8.1

> <Gold.Id.Protein>
6NUR|6NUR_protein|mol2

> <Gold.PLP.Fitness>
44.3555

> <Gold.PLP.PLP>
-35.9070

> <Gold.PLP.part.hbond>
-4.1196

> <Gold.PLP.part.metal>
0.0000

> <Gold.PLP.part.buried>
0.0207

> <Gold.PLP.part.nonpolar>
-32.4310

> <Gold.PLP.part.repulsive>
0.2294

> <Gold.PLP.ligand.clash>
0.0000

> <Gold.PLP.ligand.torsion>
0.5738

> <Gold.PLP.Chemscore.Hbond>
3.1310

> <Gold.PLP.Chemscore.CHOScore>
0.0000

> <Gold.PLP.Chemscore.Metal>
0.0000

> <Gold.Chemscore.Hbonds>
donor molecule, donor type, donor heavy atom, donor atom, acceptor molecule, acceptor atom, score
      L1  H     8    31       P1  7948  1.00
      L1  H    11    32       P1  7948  1.00
      P1  H  7989  7998       L1    20  0.04
      P1  H  7997  8008       L1    20  1.00

> <Gold.PLP.Chemscore.Internal.Correction>
0.2030

> <Gold.Rescore>
     Score         DG    S(hbond)    S(metal)    S(lipo)     H(rot)  DE(clash)    DE(int)     intcor
     18.25     -18.79       2.60        0.00      66.48       1.24       0.14       0.40       ----

> <Gold.Chemscore.Fitness>
18.2514

> <Gold.Chemscore.DG>
-18.7897

> <Gold.Chemscore.ZeroCoef>
-5.4800

> <Gold.Chemscore.Hbond>
2.6035

> <Gold.Chemscore.Metal>
0.0000

> <Gold.Chemscore.Lipo>
66.4808

> <Gold.Chemscore.Internal_Hbond>
0.0000

> <Gold.Chemscore.DEClash>
0.1430

> <Gold.Chemscore.DEInternal>
0.3953

> <Gold.Chemscore.Rot>
1.2361

> <Gold.Chemscore.Internal.Correction>
   9.000000E+99

> <Gold.Chemscore.Hbonds>
donor molecule, donor type, donor heavy atom, donor atom, acceptor molecule, acceptor atom, score
      L1  H     8    31       P1  7948  0.80
      L1  H    11    32       P1  7948  0.34
      P1  H  7997  8008       L1    20  0.99

> <Gold.Chemscore.Hbond.Weighted>
-8.6958

> <Gold.Chemscore.Metal.Weighted>
-0.0000

> <Gold.Chemscore.Lipo.Weighted>
-7.7783

> <Gold.Chemscore.Internal_Hbond.Weighted>
0.0000

> <Gold.Chemscore.DEClash.Weighted>
0.1430

> <Gold.Chemscore.DEInternal.Weighted>
0.3953

> <Gold.Chemscore.Rot.Weighted>
3.1643

> <Gold.Chemscore.Internal.Correction.Weighted>
   9.000000E+99

> <Gold.Protein.RotatedTorsions>
[ 6907 6896 6895 6894 ] final   44.35 input  -60.11 | X-H torsion
[ 7974 7965 7964 7962 ] final   15.01 input  175.53 | X-H torsion
[ 8008 7997 7996 7995 ] final   -6.65 input   59.86 | X-H torsion
[ 10167 10162 10161 10158 ] final  158.61 input  -65.29 | X-H torsion
[ 10718 10713 10712 10709 ] final -105.91 input   66.30 | X-H torsion
[ 10763 10752 10751 10750 ] final -100.72 input  -60.55 | X-H torsion
[ 11005 11000 10999 10996 ] final -175.59 input  -57.11 | X-H torsion

> <Gold.Protein.ActiveResidues>
 VAL166  LYS551  ARG553  GLY616  TRP617  ASP618  TYR619  PRO620  LYS621  CYS622 
 ASP623  PHE694  ASN695  SER759  ASP760  ASP761  ALA762  ILE779  LEU786  VAL792 
 PHE793  MET794  SER795  GLU796  ALA797  LYS798  CYS799  TRP800  GLU811  SER814 

> <Gold.Protein.RotatedAtoms>
  152.2314  134.8318  160.0472 H   0  0  0  0  0  0  0  0  0  0  0  0  # atno 6907 bound_to 6896
  151.9065  133.3545  159.3857 H   0  0  0  0  0  0  0  0  0  0  0  0  # atno 6908 bound_to 6896
  150.7027  134.4701  159.5465 H   0  0  0  0  0  0  0  0  0  0  0  0  # atno 6909 bound_to 6896
  146.2290  139.8957  142.8547 H   0  0  0  0  0  0  0  0  0  0  0  0  # atno 7974 bound_to 7965
  154.5917  140.2427  155.7912 H   0  0  0  0  0  0  0  0  0  0  0  0  # atno 8008 bound_to 7997
  156.2251  140.2985  156.0002 H   0  0  0  0  0  0  0  0  0  0  0  0  # atno 8009 bound_to 7997
  155.2363  140.0405  157.2959 H   0  0  0  0  0  0  0  0  0  0  0  0  # atno 8010 bound_to 7997
  139.4827  144.4808  151.8446 H   0  0  0  0  0  0  0  0  0  0  0  0  # atno 10167 bound_to 10162
  156.0366  130.5587  150.7606 H   0  0  0  0  0  0  0  0  0  0  0  0  # atno 10718 bound_to 10713
  154.7601  135.4924  153.9449 H   0  0  0  0  0  0  0  0  0  0  0  0  # atno 10763 bound_to 10752
  153.1242  135.6738  153.9293 H   0  0  0  0  0  0  0  0  0  0  0  0  # atno 10764 bound_to 10752
  153.9016  135.3109  155.3427 H   0  0  0  0  0  0  0  0  0  0  0  0  # atno 10765 bound_to 10752
  140.4616  134.6249  157.4845 H   0  0  0  0  0  0  0  0  0  0  0  0  # atno 11005 bound_to 11000
  145.2373  140.9996  143.3956 LP  0  0  0  0  0  0  0  0  0  0  0  0  # atno 17320 bound_to 7965
  144.9481  139.4114  143.6416 LP  0  0  0  0  0  0  0  0  0  0  0  0  # atno 17321 bound_to 7965
  140.4284  144.2149  150.5887 LP  0  0  0  0  0  0  0  0  0  0  0  0  # atno 17342 bound_to 10162
  140.4804  143.2381  151.8964 LP  0  0  0  0  0  0  0  0  0  0  0  0  # atno 17343 bound_to 10162
  157.5126  131.0926  151.0179 LP  0  0  0  0  0  0  0  0  0  0  0  0  # atno 17370 bound_to 10713
  157.0530  130.5795  149.5373 LP  0  0  0  0  0  0  0  0  0  0  0  0  # atno 17371 bound_to 10713
  139.9942  134.6938  155.9638 LP  0  0  0  0  0  0  0  0  0  0  0  0  # atno 17394 bound_to 11000
  141.1618  133.6538  156.4346 LP  0  0  0  0  0  0  0  0  0  0  0  0  # atno 17395 bound_to 11000

$$$$
