AV-unprocessed.smi:37|AV-procd|sdf|306|dock5
  -GOLD-   2262016113D 1   1.00000     0.00000
 Structure written by MMmdl.
 44 45  0  0  0  0  0  0  0  0  1 V2000
  144.7405  137.6586  161.9462 C   0  0  0  0  0  0  0  0  0  0  0  0
  146.1317  137.6564  162.5966 C   0  0  0  0  0  0  0  0  0  0  0  0
  147.1669  136.8360  161.8247 C   0  0  0  0  0  0  0  0  0  0  0  0
  148.3270  136.6960  162.2160 O   0  0  0  0  0  0  0  0  0  0  0  0
  146.6543  136.3177  160.7012 O   0  0  0  0  0  0  0  0  0  0  0  0
  147.4996  135.6444  159.7837 C   0  0  0  0  0  0  0  0  0  0  0  0
  148.6611  136.5513  159.3406 C   0  0  1  0  0  0  0  0  0  0  0  0
  149.5665  135.7897  158.5384 O   0  0  0  0  0  0  0  0  0  0  0  0
  150.0565  136.5656  157.4854 C   0  0  2  0  0  0  0  0  0  0  0  0
  151.3292  137.2879  157.9033 N   0  0  0  0  0  0  0  0  0  0  0  0
  151.3167  138.5098  158.5701 C   0  0  0  0  0  0  0  0  0  0  0  0
  152.4432  139.1451  158.9718 C   0  0  0  0  0  0  0  0  0  0  0  0
  152.3476  140.3239  159.6100 F   0  0  0  0  0  0  0  0  0  0  0  0
  153.7566  138.5553  158.7360 C   0  0  0  0  0  0  0  0  0  0  0  0
  154.8324  139.0606  159.0492 O   0  0  0  0  0  0  0  0  0  0  0  0
  153.7218  137.3069  158.1100 N   0  0  0  0  0  0  0  0  0  0  0  0
  152.5681  136.6364  157.7016 C   0  0  0  0  0  0  0  0  0  0  0  0
  152.6577  135.5191  157.1945 O   0  0  0  0  0  0  0  0  0  0  0  0
  148.9248  137.5494  157.1552 C   0  0  1  0  0  0  0  0  0  0  0  0
  147.6303  136.6498  155.9301 Br  0  0  0  0  0  0  0  0  0  0  0  0
  148.3120  137.8137  158.5242 C   0  0  1  0  0  0  0  0  0  0  0  0
  146.9287  138.1354  158.4249 O   0  0  0  0  0  0  0  0  0  0  0  0
  146.5331  139.4158  158.3035 C   0  0  0  0  0  0  0  0  0  0  0  0
  147.2748  140.3957  158.2332 O   0  0  0  0  0  0  0  0  0  0  0  0
  145.0137  139.5627  158.2520 C   0  0  0  0  0  0  0  0  0  0  0  0
  144.4708  140.4388  159.3891 C   0  0  0  0  0  0  0  0  0  0  0  0
  154.6061  136.8462  157.9504 H   0  0  0  0  0  0  0  0  0  0  0  0
  144.0424  138.2513  162.5374 H   0  0  0  0  0  0  0  0  0  0  0  0
  144.3345  136.6490  161.8713 H   0  0  0  0  0  0  0  0  0  0  0  0
  144.7702  138.0879  160.9441 H   0  0  0  0  0  0  0  0  0  0  0  0
  146.4981  138.6794  162.6851 H   0  0  0  0  0  0  0  0  0  0  0  0
  146.0615  137.2591  163.6095 H   0  0  0  0  0  0  0  0  0  0  0  0
  147.8962  134.7373  160.2416 H   0  0  0  0  0  0  0  0  0  0  0  0
  146.9161  135.3360  158.9154 H   0  0  0  0  0  0  0  0  0  0  0  0
  149.1828  136.8729  160.2419 H   0  0  0  0  0  0  0  0  0  0  0  0
  150.3615  135.9359  156.6476 H   0  0  0  0  0  0  0  0  0  0  0  0
  150.3830  138.9955  158.8061 H   0  0  0  0  0  0  0  0  0  0  0  0
  149.2666  138.4581  156.6622 H   0  0  0  0  0  0  0  0  0  0  0  0
  148.8557  138.6545  158.9588 H   0  0  0  0  0  0  0  0  0  0  0  0
  144.7379  139.9968  157.2905 H   0  0  0  0  0  0  0  0  0  0  0  0
  144.5608  138.5719  158.2931 H   0  0  0  0  0  0  0  0  0  0  0  0
  143.3982  140.5955  159.2747 H   0  0  0  0  0  0  0  0  0  0  0  0
  144.9483  141.4192  159.4005 H   0  0  0  0  0  0  0  0  0  0  0  0
  144.6317  139.9726  160.3617 H   0  0  0  0  0  0  0  0  0  0  0  0
  1  2  1  0  0  0  0
  1 28  1  0  0  0  0
  1 29  1  0  0  0  0
  1 30  1  0  0  0  0
  2  3  1  0  0  0  0
  2 31  1  0  0  0  0
  2 32  1  0  0  0  0
  3  4  2  0  0  0  0
  3  5  1  0  0  0  0
  5  6  1  0  0  0  0
  6  7  1  0  0  0  0
  6 33  1  0  0  0  0
  6 34  1  0  0  0  0
  7 21  1  0  0  0  0
  7  8  1  0  0  0  0
  7 35  1  0  0  0  0
  8  9  1  0  0  0  0
  9 10  1  0  0  0  0
  9 19  1  0  0  0  0
  9 36  1  0  0  0  0
 10 17  1  0  0  0  0
 10 11  1  0  0  0  0
 11 12  2  0  0  0  0
 11 37  1  0  0  0  0
 12 13  1  0  0  0  0
 12 14  1  0  0  0  0
 14 15  2  0  0  0  0
 14 16  1  0  0  0  0
 16 27  1  0  0  0  0
 16 17  1  0  0  0  0
 17 18  2  0  0  0  0
 19 20  1  0  0  0  0
 19 21  1  0  0  0  0
 19 38  1  0  0  0  0
 21 22  1  0  0  0  0
 21 39  1  0  0  0  0
 22 23  1  0  0  0  0
 23 24  2  0  0  0  0
 23 25  1  0  0  0  0
 25 26  1  0  0  0  0
 25 40  1  0  0  0  0
 25 41  1  0  0  0  0
 26 42  1  0  0  0  0
 26 43  1  0  0  0  0
 26 44  1  0  0  0  0
M  END
> <s_m_source_file>
AV-unprocessed.smi

> <i_m_source_file_index>
37

> <i_lp_mmshare_version>
43012

> <i_f3d_flags>
0

> <s_epik_input>
W0NIM11bQ0gyXUMoPU8pT1tDSDJdW0NAQEhdMU9bQ0BASF0objJbY0hdYyhGKWMoPU8pW25IXWMyPU8pW0NAQEhdKEJyKVtDQEhdMU9DKD1PKVtDSDJdW0NIM10=

> <s_epik_cmdline>
J2VwaWtfcHl0aG9uJywgJy1waCcsICc3LjAnLCAnLXRuJywgJzgnLCAnLW1hJywgJzIwMCcsICctbWV0YWxfYmluZGluZycsICctaW1hZScsICc8aW5maWxlLm1hZT4nLCAnLW9tYWUnLCAnPG91dGZpbGUubWFlPic=

> <r_lp_tautomer_probability>
0.999537

> <r_epik_Ionization_Penalty>
0.104106

> <r_epik_Ionization_Penalty_Charging>
0.104106

> <r_epik_Ionization_Penalty_Neutral>
3.94675e-16

> <r_epik_State_Penalty>
0.0940182

> <r_epik_Charging_Adjusted_Penalty>
0.198124

> <i_epik_Tot_Q>
0

> <i_epik_Tot_abs_Q>
0

> <r_epik_Metal_State_Penalty>
3.05314

> <b_epik_Metal_Only>
0

> <s_epik_Chemistry_Notes>
This compound has an ester and may undergo hydrolysis at high or low pH. This compound contains an acetal/aminal-like group ( X-CH(R)-Y where X, Y are N, S, or O) that may be acid/base labile, releasing an aldehyde.

> <s_lp_Force_Field>
OPLS_2005

> <r_lp_Energy>
23.6922

> <b_lp_Chiralities_Consistent>
1

> <s_lp_Variant>
AV-unprocessed.smi:37-4

> <Gold.Version>
5.8.1

> <Gold.Id.Protein>
6NUR|6NUR_protein|mol2

> <Gold.PLP.Fitness>
35.4511

> <Gold.PLP.PLP>
-25.6862

> <Gold.PLP.part.hbond>
-5.0862

> <Gold.PLP.part.metal>
0.0000

> <Gold.PLP.part.buried>
-4.5039

> <Gold.PLP.part.nonpolar>
-15.8479

> <Gold.PLP.part.repulsive>
0.1367

> <Gold.PLP.ligand.clash>
0.0000

> <Gold.PLP.ligand.torsion>
1.1875

> <Gold.PLP.Chemscore.Hbond>
4.0000

> <Gold.PLP.Chemscore.CHOScore>
0.0000

> <Gold.PLP.Chemscore.Metal>
0.0000

> <Gold.Chemscore.Hbonds>
donor molecule, donor type, donor heavy atom, donor atom, acceptor molecule, acceptor atom, score
      P1  H  6896  6907       L1     8  1.00
      P1  H  6931  6943       L1     4  1.00
      P1  H  7997  8008       L1    15  1.00
      P1  H 10752 10764       L1    18  0.94

> <Gold.PLP.Chemscore.Internal.Correction>
0.1399

> <Gold.Rescore>
     Score         DG    S(hbond)    S(metal)    S(lipo)     H(rot)  DE(clash)    DE(int)     intcor
      8.29     -12.63       3.62        0.00      30.61       3.33       0.01       4.33       ----

> <Gold.Chemscore.Fitness>
8.2933

> <Gold.Chemscore.DG>
-12.6298

> <Gold.Chemscore.ZeroCoef>
-5.4800

> <Gold.Chemscore.Hbond>
3.6211

> <Gold.Chemscore.Metal>
0.0000

> <Gold.Chemscore.Lipo>
30.6060

> <Gold.Chemscore.Internal_Hbond>
0.0000

> <Gold.Chemscore.DEClash>
0.0073

> <Gold.Chemscore.DEInternal>
4.3292

> <Gold.Chemscore.Rot>
3.3303

> <Gold.Chemscore.Internal.Correction>
   9.000000E+99

> <Gold.Chemscore.Hbonds>
donor molecule, donor type, donor heavy atom, donor atom, acceptor molecule, acceptor atom, score
      P1  H  6896  6907       L1     8  0.76
      P1  H  6931  6943       L1     4  0.45
      P1  H  7997  8008       L1    15  0.25
      P1  H 10752 10764       L1    18  0.86

> <Gold.Chemscore.Hbond.Weighted>
-12.0945

> <Gold.Chemscore.Metal.Weighted>
-0.0000

> <Gold.Chemscore.Lipo.Weighted>
-3.5809

> <Gold.Chemscore.Internal_Hbond.Weighted>
0.0000

> <Gold.Chemscore.DEClash.Weighted>
0.0073

> <Gold.Chemscore.DEInternal.Weighted>
4.3292

> <Gold.Chemscore.Rot.Weighted>
8.5256

> <Gold.Chemscore.Internal.Correction.Weighted>
   9.000000E+99

> <Gold.Protein.RotatedTorsions>
[ 6907 6896 6895 6894 ] final  -53.92 input  -60.11 | X-H torsion
[ 7974 7965 7964 7962 ] final  149.97 input  175.53 | X-H torsion
[ 8008 7997 7996 7995 ] final -130.21 input   59.86 | X-H torsion
[ 10167 10162 10161 10158 ] final  171.18 input  -65.29 | X-H torsion
[ 10718 10713 10712 10709 ] final -172.60 input   66.30 | X-H torsion
[ 10763 10752 10751 10750 ] final   -3.41 input  -60.55 | X-H torsion
[ 11005 11000 10999 10996 ] final  -21.03 input  -57.11 | X-H torsion

> <Gold.Protein.ActiveResidues>
 VAL166  LYS551  ARG553  GLY616  TRP617  ASP618  TYR619  PRO620  LYS621  CYS622 
 ASP623  PHE694  ASN695  SER759  ASP760  ASP761  ALA762  ILE779  LEU786  VAL792 
 PHE793  MET794  SER795  GLU796  ALA797  LYS798  CYS799  TRP800  GLU811  SER814 

> <Gold.Protein.RotatedAtoms>
  150.8384  134.7666  159.6911 H   0  0  0  0  0  0  0  0  0  0  0  0  # atno 6907 bound_to 6896
  152.4476  134.5459  159.9862 H   0  0  0  0  0  0  0  0  0  0  0  0  # atno 6908 bound_to 6896
  151.5604  133.3366  159.3006 H   0  0  0  0  0  0  0  0  0  0  0  0  # atno 6909 bound_to 6896
  144.8398  139.6349  143.6021 H   0  0  0  0  0  0  0  0  0  0  0  0  # atno 7974 bound_to 7965
  155.2920  140.0449  157.3023 H   0  0  0  0  0  0  0  0  0  0  0  0  # atno 8008 bound_to 7997
  154.5535  140.2325  155.8414 H   0  0  0  0  0  0  0  0  0  0  0  0  # atno 8009 bound_to 7997
  156.1988  140.3031  155.9489 H   0  0  0  0  0  0  0  0  0  0  0  0  # atno 8010 bound_to 7997
  139.5039  144.3514  151.9918 H   0  0  0  0  0  0  0  0  0  0  0  0  # atno 10167 bound_to 10162
  156.7579  130.9402  151.3117 H   0  0  0  0  0  0  0  0  0  0  0  0  # atno 10718 bound_to 10713
  153.3710  135.6994  153.6638 H   0  0  0  0  0  0  0  0  0  0  0  0  # atno 10763 bound_to 10752
  153.5288  135.3596  155.2667 H   0  0  0  0  0  0  0  0  0  0  0  0  # atno 10764 bound_to 10752
  154.8681  135.4175  154.2988 H   0  0  0  0  0  0  0  0  0  0  0  0  # atno 10765 bound_to 10752
  140.8521  133.7849  155.9978 H   0  0  0  0  0  0  0  0  0  0  0  0  # atno 11005 bound_to 11000
  146.2692  139.6594  142.9308 LP  0  0  0  0  0  0  0  0  0  0  0  0  # atno 17320 bound_to 7965
  145.4718  141.0436  143.2695 LP  0  0  0  0  0  0  0  0  0  0  0  0  # atno 17321 bound_to 7965
  140.2951  144.3710  150.6077 LP  0  0  0  0  0  0  0  0  0  0  0  0  # atno 17342 bound_to 10162
  140.5917  143.2168  151.7241 LP  0  0  0  0  0  0  0  0  0  0  0  0  # atno 17343 bound_to 10162
  157.6748  130.9084  150.0123 LP  0  0  0  0  0  0  0  0  0  0  0  0  # atno 17370 bound_to 10713
  156.1358  130.3642  149.9659 LP  0  0  0  0  0  0  0  0  0  0  0  0  # atno 17371 bound_to 10713
  140.8778  134.2648  157.5159 LP  0  0  0  0  0  0  0  0  0  0  0  0  # atno 17394 bound_to 11000
  139.8704  134.9600  156.4349 LP  0  0  0  0  0  0  0  0  0  0  0  0  # atno 17395 bound_to 11000

$$$$
