AV-unprocessed.smi:3298|AV-procd|sdf|12644|dock6
  -GOLD-   2272018573D 1   1.00000     0.00000
 Structure written by MMmdl.
 36 37  0  0  0  0  0  0  0  0  2 V2000
  146.3859  142.9700  154.0599 C   0  0  0  0  0  0  0  0  0  0  0  0
  147.3349  141.7930  154.1437 C   0  0  0  0  0  0  0  0  0  0  0  0
  147.0045  140.5206  153.6301 C   0  0  0  0  0  0  0  0  0  0  0  0
  147.9274  139.4585  153.7519 C   0  0  0  0  0  0  0  0  0  0  0  0
  147.5628  138.1956  153.2142 N   0  0  0  0  0  0  0  0  0  0  0  0
  146.3409  137.6371  153.1811 C   0  0  0  0  0  0  0  0  0  0  0  0
  145.3143  138.1539  153.6225 O   0  0  0  0  0  0  0  0  0  0  0  0
  146.3655  136.4416  152.5756 N   0  0  0  0  0  0  0  0  0  0  0  0
  145.1918  135.6110  152.3296 C   0  0  2  0  0  0  0  0  0  0  0  0
  145.2280  134.3782  153.1903 C   0  0  0  0  0  0  0  0  0  0  0  0
  145.1668  133.2537  152.4810 C   0  0  0  0  0  0  0  0  0  0  0  0
  145.0875  133.5012  150.9961 C   0  0  2  0  0  0  0  0  0  0  0  0
  146.2058  132.7911  150.2132 C   0  0  0  0  0  0  0  0  0  0  0  0
  146.2021  131.4056  150.4857 O   0  0  0  0  0  0  0  0  0  0  0  0
  145.1542  135.0460  150.8847 C   0  0  0  0  0  0  0  0  0  0  0  0
  149.1808  139.7136  154.3627 C   0  0  0  0  0  0  0  0  0  0  0  0
  149.4578  141.0055  154.8531 C   0  0  0  0  0  0  0  0  0  0  0  0
  148.5367  141.9851  154.7306 N   0  3  0  0  0  0  0  0  0  0  0  0
  144.2783  136.1631  152.5575 H   0  0  0  0  0  0  0  0  0  0  0  0
  144.1148  133.1525  150.6463 H   0  0  0  0  0  0  0  0  0  0  0  0
  145.3762  142.6415  153.8114 H   0  0  0  0  0  0  0  0  0  0  0  0
  146.7177  143.6689  153.2919 H   0  0  0  0  0  0  0  0  0  0  0  0
  146.3443  143.4987  155.0128 H   0  0  0  0  0  0  0  0  0  0  0  0
  146.0468  140.3593  153.1563 H   0  0  0  0  0  0  0  0  0  0  0  0
  148.2938  137.6992  152.7259 H   0  0  0  0  0  0  0  0  0  0  0  0
  147.2503  136.0892  152.2407 H   0  0  0  0  0  0  0  0  0  0  0  0
  145.2806  134.4298  154.2680 H   0  0  0  0  0  0  0  0  0  0  0  0
  145.1648  132.2573  152.8982 H   0  0  0  0  0  0  0  0  0  0  0  0
  146.0645  132.9321  149.1414 H   0  0  0  0  0  0  0  0  0  0  0  0
  147.1821  133.2048  150.4681 H   0  0  0  0  0  0  0  0  0  0  0  0
  147.0803  131.0746  150.3739 H   0  0  0  0  0  0  0  0  0  0  0  0
  144.2881  135.4308  150.3450 H   0  0  0  0  0  0  0  0  0  0  0  0
  146.0338  135.3547  150.3173 H   0  0  0  0  0  0  0  0  0  0  0  0
  149.9348  138.9461  154.4520 H   0  0  0  0  0  0  0  0  0  0  0  0
  150.3849  141.2832  155.3326 H   0  0  0  0  0  0  0  0  0  0  0  0
  148.7597  142.9122  155.0939 H   0  0  0  0  0  0  0  0  0  0  0  0
  1  2  1  0  0  0  0
  1 21  1  0  0  0  0
  1 22  1  0  0  0  0
  1 23  1  0  0  0  0
  2 18  1  0  0  0  0
  2  3  2  0  0  0  0
  3  4  1  0  0  0  0
  3 24  1  0  0  0  0
  4  5  1  0  0  0  0
  4 16  2  0  0  0  0
  5  6  1  0  0  0  0
  5 25  1  0  0  0  0
  6  7  2  0  0  0  0
  6  8  1  0  0  0  0
  8  9  1  0  0  0  0
  8 26  1  0  0  0  0
  9 19  1  0  0  0  0
  9 15  1  0  0  0  0
  9 10  1  0  0  0  0
 10 11  2  0  0  0  0
 10 27  1  0  0  0  0
 11 12  1  0  0  0  0
 11 28  1  0  0  0  0
 12 20  1  0  0  0  0
 12 13  1  0  0  0  0
 12 15  1  0  0  0  0
 13 14  1  0  0  0  0
 13 29  1  0  0  0  0
 13 30  1  0  0  0  0
 14 31  1  0  0  0  0
 15 32  1  0  0  0  0
 15 33  1  0  0  0  0
 16 17  1  0  0  0  0
 16 34  1  0  0  0  0
 17 18  2  0  0  0  0
 17 35  1  0  0  0  0
 18 36  1  0  0  0  0
M  CHG  1  18   1
M  END
> <s_m_source_file>
AV-unprocessed.smi

> <i_m_source_file_index>
3298

> <i_lp_mmshare_version>
43012

> <i_f3d_flags>
0

> <s_epik_input>
W0NIM11jMVtjSF1jKFtjSF1bY0hdbjEpW05IXUMoPU8pW05IXVtDQEBIXTJbQ0hdPVtDSF1bQ0BASF0oW0NIMl0yKVtDSDJdW09IXQ==

> <s_epik_cmdline>
J2VwaWtfcHl0aG9uJywgJy1waCcsICc3LjAnLCAnLXRuJywgJzgnLCAnLW1hJywgJzIwMCcsICctbWV0YWxfYmluZGluZycsICctaW1hZScsICc8aW5maWxlLm1hZT4nLCAnLW9tYWUnLCAnPG91dGZpbGUubWFlPic=

> <r_epik_Ionization_Penalty>
0.443901

> <r_epik_Ionization_Penalty_Charging>
0.443881

> <r_epik_Ionization_Penalty_Neutral>
1.94967e-05

> <r_epik_State_Penalty>
0.446172

> <r_epik_Charging_Adjusted_Penalty>
0.890053

> <i_epik_Tot_Q>
1

> <i_epik_Tot_abs_Q>
1

> <r_epik_Metal_State_Penalty>
0.675842

> <b_epik_Metal_Only>
0

> <s_lp_Force_Field>
OPLS_2005

> <r_lp_Energy>
26.7826

> <b_lp_Chiralities_Consistent>
1

> <s_lp_Variant>
AV-unprocessed.smi:3298-5

> <Gold.Version>
5.8.1

> <Gold.Id.Protein>
6NUR|6NUR_protein|mol2

> <Gold.PLP.Fitness>
47.0214

> <Gold.PLP.PLP>
-32.7630

> <Gold.PLP.part.hbond>
-4.0000

> <Gold.PLP.part.metal>
0.0000

> <Gold.PLP.part.buried>
-5.2026

> <Gold.PLP.part.nonpolar>
-25.0413

> <Gold.PLP.part.repulsive>
0.9092

> <Gold.PLP.ligand.clash>
0.0000

> <Gold.PLP.ligand.torsion>
0.3785

> <Gold.PLP.Chemscore.Hbond>
5.0000

> <Gold.PLP.Chemscore.CHOScore>
0.0000

> <Gold.PLP.Chemscore.Metal>
0.0000

> <Gold.Chemscore.Hbonds>
donor molecule, donor type, donor heavy atom, donor atom, acceptor molecule, acceptor atom, score
      L1  H     5    25       P1  7948  1.00
      L1  H     8    26       P1  7948  1.00
      L1  H    14    31       P1 10747  1.00
      L1  H    18    36       P1  8028  2.00

> <Gold.PLP.Chemscore.Internal.Correction>
0.0154

> <Gold.Rescore>
     Score         DG    S(hbond)    S(metal)    S(lipo)     H(rot)  DE(clash)    DE(int)     intcor
     20.84     -22.47       3.93        0.00      72.42       1.81       0.01       1.62       ----

> <Gold.Chemscore.Fitness>
20.8385

> <Gold.Chemscore.DG>
-22.4699

> <Gold.Chemscore.ZeroCoef>
-5.4800

> <Gold.Chemscore.Hbond>
3.9344

> <Gold.Chemscore.Metal>
0.0000

> <Gold.Chemscore.Lipo>
72.4155

> <Gold.Chemscore.Internal_Hbond>
0.0000

> <Gold.Chemscore.DEClash>
0.0150

> <Gold.Chemscore.DEInternal>
1.6164

> <Gold.Chemscore.Rot>
1.8061

> <Gold.Chemscore.Internal.Correction>
   9.000000E+99

> <Gold.Chemscore.Hbonds>
donor molecule, donor type, donor heavy atom, donor atom, acceptor molecule, acceptor atom, score
      L1  H     5    25       P1  7948  0.97
      L1  H     8    26       P1  7948  0.98
      L1  H    14    31       P1 10747  1.00
      L1  H    18    36       P1  8028  1.00

> <Gold.Chemscore.Hbond.Weighted>
-13.1410

> <Gold.Chemscore.Metal.Weighted>
-0.0000

> <Gold.Chemscore.Lipo.Weighted>
-8.4726

> <Gold.Chemscore.Internal_Hbond.Weighted>
0.0000

> <Gold.Chemscore.DEClash.Weighted>
0.0150

> <Gold.Chemscore.DEInternal.Weighted>
1.6164

> <Gold.Chemscore.Rot.Weighted>
4.6237

> <Gold.Chemscore.Internal.Correction.Weighted>
   9.000000E+99

> <Gold.Protein.RotatedTorsions>
[ 6907 6896 6895 6894 ] final   99.54 input  -60.11 | X-H torsion
[ 7974 7965 7964 7962 ] final -115.42 input  175.53 | X-H torsion
[ 8008 7997 7996 7995 ] final  143.86 input   59.86 | X-H torsion
[ 10167 10162 10161 10158 ] final  101.63 input  -65.29 | X-H torsion
[ 10718 10713 10712 10709 ] final  -30.03 input   66.30 | X-H torsion
[ 10763 10752 10751 10750 ] final  -76.75 input  -60.55 | X-H torsion
[ 11005 11000 10999 10996 ] final  122.15 input  -57.11 | X-H torsion

> <Gold.Protein.ActiveResidues>
 VAL166  LYS551  ARG553  GLY616  TRP617  ASP618  TYR619  PRO620  LYS621  CYS622 
 ASP623  PHE694  ASN695  SER759  ASP760  ASP761  ALA762  ILE779  LEU786  VAL792 
 PHE793  MET794  SER795  GLU796  ALA797  LYS798  CYS799  TRP800  GLU811  SER814 

> <Gold.Protein.RotatedAtoms>
  152.5390  134.0413  159.8068 H   0  0  0  0  0  0  0  0  0  0  0  0  # atno 6907 bound_to 6896
  151.0568  133.5569  159.2645 H   0  0  0  0  0  0  0  0  0  0  0  0  # atno 6908 bound_to 6896
  151.2483  135.0621  159.9106 H   0  0  0  0  0  0  0  0  0  0  0  0  # atno 6909 bound_to 6896
  145.1086  140.8597  143.3883 H   0  0  0  0  0  0  0  0  0  0  0  0  # atno 7974 bound_to 7965
  156.2921  140.2251  156.4959 H   0  0  0  0  0  0  0  0  0  0  0  0  # atno 8008 bound_to 7997
  154.7731  140.0465  157.1089 H   0  0  0  0  0  0  0  0  0  0  0  0  # atno 8009 bound_to 7997
  154.9850  140.3083  155.4934 H   0  0  0  0  0  0  0  0  0  0  0  0  # atno 8010 bound_to 7997
  139.7421  144.7008  151.0559 H   0  0  0  0  0  0  0  0  0  0  0  0  # atno 10167 bound_to 10162
  156.4049  130.4397  149.7295 H   0  0  0  0  0  0  0  0  0  0  0  0  # atno 10718 bound_to 10713
  154.5039  135.5787  153.6552 H   0  0  0  0  0  0  0  0  0  0  0  0  # atno 10763 bound_to 10752
  152.9884  135.6142  154.2967 H   0  0  0  0  0  0  0  0  0  0  0  0  # atno 10764 bound_to 10752
  154.2876  135.2849  155.2648 H   0  0  0  0  0  0  0  0  0  0  0  0  # atno 10765 bound_to 10752
  139.9256  134.9640  156.8065 H   0  0  0  0  0  0  0  0  0  0  0  0  # atno 11005 bound_to 11000
  145.0873  139.2915  143.5753 LP  0  0  0  0  0  0  0  0  0  0  0  0  # atno 17320 bound_to 7965
  146.3527  140.0399  142.8644 LP  0  0  0  0  0  0  0  0  0  0  0  0  # atno 17321 bound_to 7965
  140.7787  143.4911  150.9892 LP  0  0  0  0  0  0  0  0  0  0  0  0  # atno 17342 bound_to 10162
  139.8600  143.7327  152.3174 LP  0  0  0  0  0  0  0  0  0  0  0  0  # atno 17343 bound_to 10162
  156.4296  130.7809  151.2828 LP  0  0  0  0  0  0  0  0  0  0  0  0  # atno 17370 bound_to 10713
  157.7505  131.0158  150.3518 LP  0  0  0  0  0  0  0  0  0  0  0  0  # atno 17371 bound_to 10713
  140.6347  133.9873  155.7678 LP  0  0  0  0  0  0  0  0  0  0  0  0  # atno 17394 bound_to 11000
  141.0810  134.0062  157.3385 LP  0  0  0  0  0  0  0  0  0  0  0  0  # atno 17395 bound_to 11000

$$$$
