AV-unprocessed.smi:1915|AV-procd|sdf|7761|dock9
  -GOLD-   22720 9503D 1   1.00000     0.00000
 Structure written by MMmdl.
 44 45  0  0  0  0  0  0  0  0  1 V2000
  151.1250  145.4975  159.8002 C   0  0  0  0  0  0  0  0  0  0  0  0
  151.4017  144.0168  160.1128 C   0  0  0  0  0  0  0  0  0  0  0  0
  151.8820  143.8581  161.5631 C   0  0  0  0  0  0  0  0  0  0  0  0
  152.4042  143.3611  159.1366 C   0  0  0  0  0  0  0  0  0  0  0  0
  152.8204  142.0219  159.5535 N   0  0  0  0  0  0  0  0  0  0  0  0
  153.9083  141.8522  160.5036 C   0  0  0  0  0  0  0  0  0  0  0  0
  154.2307  140.3422  160.5076 C   0  0  2  0  0  0  0  0  0  0  0  0
  155.5950  140.0271  159.8756 C   0  0  0  0  0  0  0  0  0  0  0  0
  155.6682  139.2991  158.8851 O   0  0  0  0  0  0  0  0  0  0  0  0
  156.6684  140.5677  160.4712 N   0  0  0  0  0  0  0  0  0  0  0  0
  158.0542  140.3270  160.0808 C   0  0  0  0  0  0  0  0  0  0  0  0
  158.7605  141.6004  159.5719 C   0  0  0  0  0  0  0  0  0  0  0  0
  160.2375  141.6570  159.9249 C   0  0  0  0  0  0  0  0  0  0  0  0
  160.6643  141.5278  161.2642 C   0  0  0  0  0  0  0  0  0  0  0  0
  162.0425  141.6075  161.5406 C   0  0  0  0  0  0  0  0  0  0  0  0
  162.9370  141.8106  160.4724 C   0  0  0  0  0  0  0  0  0  0  0  0
  162.4109  141.9242  159.1699 C   0  0  0  0  0  0  0  0  0  0  0  0
  161.0907  141.8511  158.8943 N   0  0  0  0  0  0  0  0  0  0  0  0
  153.0842  139.6842  159.7153 C   0  0  0  0  0  0  0  0  0  0  0  0
  152.3441  140.8577  159.0970 C   0  0  0  0  0  0  0  0  0  0  0  0
  151.4376  140.7144  158.2780 O   0  0  0  0  0  0  0  0  0  0  0  0
  152.0464  146.0806  159.8011 H   0  0  0  0  0  0  0  0  0  0  0  0
  150.4536  145.9357  160.5390 H   0  0  0  0  0  0  0  0  0  0  0  0
  150.6505  145.6217  158.8272 H   0  0  0  0  0  0  0  0  0  0  0  0
  150.4550  143.4817  160.0280 H   0  0  0  0  0  0  0  0  0  0  0  0
  152.8297  144.3725  161.7250 H   0  0  0  0  0  0  0  0  0  0  0  0
  152.0255  142.8076  161.8185 H   0  0  0  0  0  0  0  0  0  0  0  0
  151.1562  144.2686  162.2657 H   0  0  0  0  0  0  0  0  0  0  0  0
  151.9765  143.3201  158.1332 H   0  0  0  0  0  0  0  0  0  0  0  0
  153.2941  143.9861  159.0520 H   0  0  0  0  0  0  0  0  0  0  0  0
  154.7642  142.4698  160.2257 H   0  0  0  0  0  0  0  0  0  0  0  0
  153.5767  142.1782  161.4903 H   0  0  0  0  0  0  0  0  0  0  0  0
  154.2227  139.9744  161.5352 H   0  0  0  0  0  0  0  0  0  0  0  0
  156.5183  141.1548  161.2789 H   0  0  0  0  0  0  0  0  0  0  0  0
  158.6107  139.8881  160.9102 H   0  0  0  0  0  0  0  0  0  0  0  0
  158.0427  139.5789  159.2877 H   0  0  0  0  0  0  0  0  0  0  0  0
  158.6545  141.6715  158.4888 H   0  0  0  0  0  0  0  0  0  0  0  0
  158.2634  142.4824  159.9775 H   0  0  0  0  0  0  0  0  0  0  0  0
  159.9528  141.3787  162.0629 H   0  0  0  0  0  0  0  0  0  0  0  0
  162.4063  141.5170  162.5535 H   0  0  0  0  0  0  0  0  0  0  0  0
  164.0007  141.8774  160.6466 H   0  0  0  0  0  0  0  0  0  0  0  0
  163.0678  142.0803  158.3272 H   0  0  0  0  0  0  0  0  0  0  0  0
  153.4233  138.9950  158.9400 H   0  0  0  0  0  0  0  0  0  0  0  0
  152.4110  139.1395  160.3777 H   0  0  0  0  0  0  0  0  0  0  0  0
  1  2  1  0  0  0  0
  1 22  1  0  0  0  0
  1 23  1  0  0  0  0
  1 24  1  0  0  0  0
  2  3  1  0  0  0  0
  2  4  1  0  0  0  0
  2 25  1  0  0  0  0
  3 26  1  0  0  0  0
  3 27  1  0  0  0  0
  3 28  1  0  0  0  0
  4  5  1  0  0  0  0
  4 29  1  0  0  0  0
  4 30  1  0  0  0  0
  5 20  1  0  0  0  0
  5  6  1  0  0  0  0
  6  7  1  0  0  0  0
  6 31  1  0  0  0  0
  6 32  1  0  0  0  0
  7  8  1  0  0  0  0
  7 19  1  0  0  0  0
  7 33  1  0  0  0  0
  8  9  2  0  0  0  0
  8 10  1  0  0  0  0
 10 11  1  0  0  0  0
 10 34  1  0  0  0  0
 11 12  1  0  0  0  0
 11 35  1  0  0  0  0
 11 36  1  0  0  0  0
 12 13  1  0  0  0  0
 12 37  1  0  0  0  0
 12 38  1  0  0  0  0
 13 18  1  0  0  0  0
 13 14  2  0  0  0  0
 14 15  1  0  0  0  0
 14 39  1  0  0  0  0
 15 16  2  0  0  0  0
 15 40  1  0  0  0  0
 16 17  1  0  0  0  0
 16 41  1  0  0  0  0
 17 18  2  0  0  0  0
 17 42  1  0  0  0  0
 19 20  1  0  0  0  0
 19 43  1  0  0  0  0
 19 44  1  0  0  0  0
 20 21  2  0  0  0  0
M  END
> <s_m_source_file>
AV-unprocessed.smi

> <i_m_source_file_index>
1915

> <i_lp_mmshare_version>
43012

> <i_f3d_flags>
0

> <s_epik_input>
W0NIM11bQ0hdKFtDSDNdKVtDSDJdTjFbQ0gyXVtDQEhdKFtDSDJdQzE9TylDKD1PKVtOSF1bQ0gyXVtDSDJdYzJbY0hdW2NIXVtjSF1bY0hdbjI=

> <s_epik_cmdline>
J2VwaWtfcHl0aG9uJywgJy1waCcsICc3LjAnLCAnLXRuJywgJzgnLCAnLW1hJywgJzIwMCcsICctbWV0YWxfYmluZGluZycsICctaW1hZScsICc8aW5maWxlLm1hZT4nLCAnLW9tYWUnLCAnPG91dGZpbGUubWFlPic=

> <r_epik_Ionization_Penalty>
0.0252359

> <r_epik_Ionization_Penalty_Charging>
0

> <r_epik_Ionization_Penalty_Neutral>
0.0252359

> <r_epik_State_Penalty>
0.020532

> <r_epik_Charging_Adjusted_Penalty>
0.020532

> <i_epik_Tot_Q>
0

> <i_epik_Tot_abs_Q>
0

> <r_epik_Metal_State_Penalty>
0.0196901

> <b_epik_Metal_Only>
0

> <s_lp_Force_Field>
OPLS_2005

> <r_lp_Energy>
14.5856

> <b_lp_Chiralities_Consistent>
1

> <s_lp_Variant>
AV-unprocessed.smi:1915-2

> <Gold.Version>
5.8.1

> <Gold.Id.Protein>
6NUR|6NUR_protein|mol2

> <Gold.PLP.Fitness>
49.4773

> <Gold.PLP.PLP>
-44.8599

> <Gold.PLP.part.hbond>
-3.0000

> <Gold.PLP.part.metal>
0.0000

> <Gold.PLP.part.buried>
-6.3335

> <Gold.PLP.part.nonpolar>
-35.9721

> <Gold.PLP.part.repulsive>
0.3230

> <Gold.PLP.ligand.clash>
0.0000

> <Gold.PLP.ligand.torsion>
0.6507

> <Gold.PLP.Chemscore.Hbond>
1.0000

> <Gold.PLP.Chemscore.CHOScore>
0.9273

> <Gold.PLP.Chemscore.Metal>
0.0000

> <Gold.Chemscore.Hbonds>
donor molecule, donor type, donor heavy atom, donor atom, acceptor molecule, acceptor atom, score
      P1  H  7997  8009       L1     9  1.00

> <Gold.PLP.Chemscore.Internal.Correction>
0.1369

> <Gold.Rescore>
     Score         DG    S(hbond)    S(metal)    S(lipo)     H(rot)  DE(clash)    DE(int)     intcor
     15.84     -17.49       0.92        0.00     114.43       1.75       0.69       0.96       ----

> <Gold.Chemscore.Fitness>
15.8361

> <Gold.Chemscore.DG>
-17.4859

> <Gold.Chemscore.ZeroCoef>
-5.4800

> <Gold.Chemscore.Hbond>
0.9240

> <Gold.Chemscore.Metal>
0.0000

> <Gold.Chemscore.Lipo>
114.4320

> <Gold.Chemscore.Internal_Hbond>
0.0000

> <Gold.Chemscore.DEClash>
0.6945

> <Gold.Chemscore.DEInternal>
0.9553

> <Gold.Chemscore.Rot>
1.7456

> <Gold.Chemscore.Internal.Correction>
   9.000000E+99

> <Gold.Chemscore.Hbonds>
donor molecule, donor type, donor heavy atom, donor atom, acceptor molecule, acceptor atom, score
      P1  H  7997  8009       L1     9  0.96

> <Gold.Chemscore.Hbond.Weighted>
-3.0861

> <Gold.Chemscore.Metal.Weighted>
-0.0000

> <Gold.Chemscore.Lipo.Weighted>
-13.3885

> <Gold.Chemscore.Internal_Hbond.Weighted>
0.0000

> <Gold.Chemscore.DEClash.Weighted>
0.6945

> <Gold.Chemscore.DEInternal.Weighted>
0.9553

> <Gold.Chemscore.Rot.Weighted>
4.4688

> <Gold.Chemscore.Internal.Correction.Weighted>
   9.000000E+99

> <Gold.Protein.RotatedTorsions>
[ 6907 6896 6895 6894 ] final  -12.25 input  -60.11 | X-H torsion
[ 7974 7965 7964 7962 ] final  136.07 input  175.53 | X-H torsion
[ 8008 7997 7996 7995 ] final   98.60 input   59.86 | X-H torsion
[ 10167 10162 10161 10158 ] final   -1.42 input  -65.29 | X-H torsion
[ 10718 10713 10712 10709 ] final -178.54 input   66.30 | X-H torsion
[ 10763 10752 10751 10750 ] final  -67.89 input  -60.55 | X-H torsion
[ 11005 11000 10999 10996 ] final   -3.86 input  -57.11 | X-H torsion

> <Gold.Protein.ActiveResidues>
 VAL166  LYS551  ARG553  GLY616  TRP617  ASP618  TYR619  PRO620  LYS621  CYS622 
 ASP623  PHE694  ASN695  SER759  ASP760  ASP761  ALA762  ILE779  LEU786  VAL792 
 PHE793  MET794  SER795  GLU796  ALA797  LYS798  CYS799  TRP800  GLU811  SER814 

> <Gold.Protein.RotatedAtoms>
  151.3735  135.0927  159.9472 H   0  0  0  0  0  0  0  0  0  0  0  0  # atno 6907 bound_to 6896
  152.5129  133.9141  159.7513 H   0  0  0  0  0  0  0  0  0  0  0  0  # atno 6908 bound_to 6896
  150.9560  133.6442  159.2792 H   0  0  0  0  0  0  0  0  0  0  0  0  # atno 6909 bound_to 6896
  144.9601  139.4720  143.5483 H   0  0  0  0  0  0  0  0  0  0  0  0  # atno 7974 bound_to 7965
  156.1021  140.3241  155.7956 H   0  0  0  0  0  0  0  0  0  0  0  0  # atno 8008 bound_to 7997
  155.4819  140.0554  157.2983 H   0  0  0  0  0  0  0  0  0  0  0  0  # atno 8009 bound_to 7997
  154.4704  140.2008  156.0025 H   0  0  0  0  0  0  0  0  0  0  0  0  # atno 8010 bound_to 7997
  140.6809  143.6777  150.8132 H   0  0  0  0  0  0  0  0  0  0  0  0  # atno 10167 bound_to 10162
  156.8458  130.9702  151.3096 H   0  0  0  0  0  0  0  0  0  0  0  0  # atno 10718 bound_to 10713
  154.3811  135.6074  153.5791 H   0  0  0  0  0  0  0  0  0  0  0  0  # atno 10763 bound_to 10752
  152.9788  135.5861  154.4408 H   0  0  0  0  0  0  0  0  0  0  0  0  # atno 10764 bound_to 10752
  154.4178  135.2845  155.1973 H   0  0  0  0  0  0  0  0  0  0  0  0  # atno 10765 bound_to 10752
  140.6739  133.9212  155.8512 H   0  0  0  0  0  0  0  0  0  0  0  0  # atno 11005 bound_to 11000
  146.3350  139.8746  142.8834 LP  0  0  0  0  0  0  0  0  0  0  0  0  # atno 17320 bound_to 7965
  145.2712  141.0109  143.3770 LP  0  0  0  0  0  0  0  0  0  0  0  0  # atno 17321 bound_to 7965
  140.0477  143.5281  152.2688 LP  0  0  0  0  0  0  0  0  0  0  0  0  # atno 17342 bound_to 10162
  139.6132  144.7613  151.2906 LP  0  0  0  0  0  0  0  0  0  0  0  0  # atno 17343 bound_to 10162
  157.6331  130.8745  149.9309 LP  0  0  0  0  0  0  0  0  0  0  0  0  # atno 17370 bound_to 10713
  156.0855  130.3668  150.0495 LP  0  0  0  0  0  0  0  0  0  0  0  0  # atno 17371 bound_to 10713
  141.0370  134.0675  157.3947 LP  0  0  0  0  0  0  0  0  0  0  0  0  # atno 17394 bound_to 11000
  139.8973  135.0149  156.7092 LP  0  0  0  0  0  0  0  0  0  0  0  0  # atno 17395 bound_to 11000

$$$$
