AV-unprocessed.smi:34|AV-procd|sdf|232|dock7
  -GOLD-   2262015563D 1   1.00000     0.00000
 Structure written by MMmdl.
 54 58  0  0  0  0  0  0  0  0  2 V2000
  152.7984  140.4758  157.7983 O   0  0  0  0  0  0  0  0  0  0  0  0
  151.6757  140.9299  157.5677 C   0  0  0  0  0  0  0  0  0  0  0  0
  150.6257  140.2982  156.9840 N   0  5  0  0  0  0  0  0  0  0  0  0
  150.8416  139.3890  156.0210 C   0  0  0  0  0  0  0  0  0  0  0  0
  151.5236  139.7297  154.8977 N   0  0  0  0  0  0  0  0  0  0  0  0
  151.7334  138.8252  153.9345 C   0  0  0  0  0  0  0  0  0  0  0  0
  151.3507  137.5461  153.8876 N   0  0  0  0  0  0  0  0  0  0  0  0
  150.6563  137.1903  155.0069 C   0  0  0  0  0  0  0  0  0  0  0  0
  150.3630  138.0521  156.1041 C   0  0  0  0  0  0  0  0  0  0  0  0
  149.6399  137.3803  157.0788 N   0  0  0  0  0  0  0  0  0  0  0  0
  149.5321  136.1664  156.5442 C   0  0  0  0  0  0  0  0  0  0  0  0
  150.0982  135.9638  155.3380 N   0  0  0  0  0  0  0  0  0  0  0  0
  150.1059  134.6862  154.5563 C   0  0  1  0  0  0  0  0  0  0  0  0
  149.5823  133.6492  155.3344 O   0  0  0  0  0  0  0  0  0  0  0  0
  148.6970  132.8257  154.5686 C   0  0  1  0  0  0  0  0  0  0  0  0
  147.2644  133.0119  155.0938 C   0  0  0  0  0  0  0  0  0  0  0  0
  147.3044  133.1600  156.5039 O   0  0  0  0  0  0  0  0  0  0  0  0
  147.0260  134.3521  157.0663 C   0  0  0  0  0  0  0  0  0  0  0  0
  146.8037  135.3779  156.4196 O   0  0  0  0  0  0  0  0  0  0  0  0
  147.0185  134.3018  158.5567 C   0  0  0  0  0  0  0  0  0  0  0  0
  146.8823  135.5035  159.2901 C   0  0  0  0  0  0  0  0  0  0  0  0
  146.8767  135.4875  160.6985 C   0  0  0  0  0  0  0  0  0  0  0  0
  147.0092  134.2696  161.3906 C   0  0  0  0  0  0  0  0  0  0  0  0
  147.1461  133.0673  160.6726 C   0  0  0  0  0  0  0  0  0  0  0  0
  147.1508  133.0812  159.2641 C   0  0  0  0  0  0  0  0  0  0  0  0
  148.8925  133.3001  153.1247 C   0  0  1  0  0  0  0  0  0  0  0  0
  147.8524  133.0935  152.3147 F   0  0  0  0  0  0  0  0  0  0  0  0
  149.2801  134.7601  153.2656 C   0  0  1  0  0  0  0  0  0  0  0  0
  148.1557  135.6171  153.3621 O   0  0  0  0  0  0  0  0  0  0  0  0
  151.3956  142.3728  157.8954 C   0  0  0  0  0  0  0  0  0  0  0  0
  150.2346  142.9950  157.3818 C   0  0  0  0  0  0  0  0  0  0  0  0
  149.9673  144.3507  157.6550 C   0  0  0  0  0  0  0  0  0  0  0  0
  150.8637  145.1026  158.4369 C   0  0  0  0  0  0  0  0  0  0  0  0
  152.0299  144.4984  158.9425 C   0  0  0  0  0  0  0  0  0  0  0  0
  152.2979  143.1427  158.6701 C   0  0  0  0  0  0  0  0  0  0  0  0
  152.2873  139.1763  153.0764 H   0  0  0  0  0  0  0  0  0  0  0  0
  149.0125  135.3743  157.0630 H   0  0  0  0  0  0  0  0  0  0  0  0
  151.1603  134.4816  154.3650 H   0  0  0  0  0  0  0  0  0  0  0  0
  148.9857  131.7782  154.6631 H   0  0  0  0  0  0  0  0  0  0  0  0
  146.7924  133.8776  154.6296 H   0  0  0  0  0  0  0  0  0  0  0  0
  146.6557  132.1406  154.8496 H   0  0  0  0  0  0  0  0  0  0  0  0
  146.7814  136.4507  158.7801 H   0  0  0  0  0  0  0  0  0  0  0  0
  146.7715  136.4113  161.2478 H   0  0  0  0  0  0  0  0  0  0  0  0
  147.0067  134.2574  162.4704 H   0  0  0  0  0  0  0  0  0  0  0  0
  147.2488  132.1318  161.2026 H   0  0  0  0  0  0  0  0  0  0  0  0
  147.2611  132.1411  158.7436 H   0  0  0  0  0  0  0  0  0  0  0  0
  149.7304  132.7554  152.6876 H   0  0  0  0  0  0  0  0  0  0  0  0
  149.9088  135.1016  152.4426 H   0  0  0  0  0  0  0  0  0  0  0  0
  148.0759  136.1024  152.5550 H   0  0  0  0  0  0  0  0  0  0  0  0
  149.5374  142.4330  156.7773 H   0  0  0  0  0  0  0  0  0  0  0  0
  149.0744  144.8141  157.2623 H   0  0  0  0  0  0  0  0  0  0  0  0
  150.6593  146.1422  158.6457 H   0  0  0  0  0  0  0  0  0  0  0  0
  152.7226  145.0754  159.5371 H   0  0  0  0  0  0  0  0  0  0  0  0
  153.2043  142.7018  159.0592 H   0  0  0  0  0  0  0  0  0  0  0  0
  1  2  2  0  0  0  0
  2  3  1  0  0  0  0
  2 30  1  0  0  0  0
  3  4  1  0  0  0  0
  4  9  1  0  0  0  0
  4  5  2  0  0  0  0
  5  6  1  0  0  0  0
  6  7  2  0  0  0  0
  6 36  1  0  0  0  0
  7  8  1  0  0  0  0
  8 12  1  0  0  0  0
  8  9  2  0  0  0  0
  9 10  1  0  0  0  0
 10 11  2  0  0  0  0
 11 12  1  0  0  0  0
 11 37  1  0  0  0  0
 12 13  1  0  0  0  0
 13 28  1  0  0  0  0
 13 14  1  0  0  0  0
 13 38  1  0  0  0  0
 14 15  1  0  0  0  0
 15 16  1  0  0  0  0
 15 26  1  0  0  0  0
 15 39  1  0  0  0  0
 16 17  1  0  0  0  0
 16 40  1  0  0  0  0
 16 41  1  0  0  0  0
 17 18  1  0  0  0  0
 18 19  2  0  0  0  0
 18 20  1  0  0  0  0
 20 25  1  0  0  0  0
 20 21  2  0  0  0  0
 21 22  1  0  0  0  0
 21 42  1  0  0  0  0
 22 23  2  0  0  0  0
 22 43  1  0  0  0  0
 23 24  1  0  0  0  0
 23 44  1  0  0  0  0
 24 25  2  0  0  0  0
 24 45  1  0  0  0  0
 25 46  1  0  0  0  0
 26 27  1  0  0  0  0
 26 28  1  0  0  0  0
 26 47  1  0  0  0  0
 28 29  1  0  0  0  0
 28 48  1  0  0  0  0
 29 49  1  0  0  0  0
 30 35  1  0  0  0  0
 30 31  2  0  0  0  0
 31 32  1  0  0  0  0
 31 50  1  0  0  0  0
 32 33  2  0  0  0  0
 32 51  1  0  0  0  0
 33 34  1  0  0  0  0
 33 52  1  0  0  0  0
 34 35  2  0  0  0  0
 34 53  1  0  0  0  0
 35 54  1  0  0  0  0
M  CHG  1   3  -1
M  END
> <s_m_source_file>
AV-unprocessed.smi

> <i_m_source_file_index>
34

> <i_lp_mmshare_version>
43012

> <i_f3d_flags>
0

> <s_epik_input>
W2NIXTFbY0hdW2NIXVtjSF1bY0hdYzFDKD1PKVtOSF1jKG5bY0hdbjIpYyhjMjMpbltjSF1uM1tDQEBIXTRPW0NASF0oW0NAQEhdKEYpW0NASF00W09IXSlbQ0gyXU9DKD1PKWM1W2NIXVtjSF1bY0hdW2NIXVtjSF01

> <s_epik_cmdline>
J2VwaWtfcHl0aG9uJywgJy1waCcsICc3LjAnLCAnLXRuJywgJzgnLCAnLW1hJywgJzIwMCcsICctbWV0YWxfYmluZGluZycsICctaW1hZScsICc8aW5maWxlLm1hZT4nLCAnLW9tYWUnLCAnPG91dGZpbGUubWFlPic=

> <r_lp_tautomer_probability>
1

> <r_epik_Ionization_Penalty>
4.33227

> <r_epik_Ionization_Penalty_Charging>
3.41027

> <r_epik_Ionization_Penalty_Neutral>
0.922001

> <r_epik_State_Penalty>
3.41358

> <r_epik_Charging_Adjusted_Penalty>
6.82385

> <i_epik_Tot_Q>
-1

> <i_epik_Tot_abs_Q>
1

> <r_epik_Metal_State_Penalty>
0.496292

> <b_epik_Metal_Only>
1

> <s_epik_Chemistry_Notes>
This compound has an ester and may undergo hydrolysis at high or low pH. This compound contains an acetal/aminal-like group ( X-CH(R)-Y where X, Y are N, S, or O) that may be acid/base labile, releasing an aldehyde.

> <s_lp_Force_Field>
OPLS_2005

> <r_lp_Energy>
54.2336

> <b_lp_Chiralities_Consistent>
1

> <s_lp_Variant>
AV-unprocessed.smi:34-18

> <Gold.Version>
5.8.1

> <Gold.Id.Protein>
6NUR|6NUR_protein|mol2

> <Gold.PLP.Fitness>
62.0558

> <Gold.PLP.PLP>
-55.3699

> <Gold.PLP.part.hbond>
-3.0000

> <Gold.PLP.part.metal>
0.0000

> <Gold.PLP.part.buried>
-7.1826

> <Gold.PLP.part.nonpolar>
-46.2829

> <Gold.PLP.part.repulsive>
0.1174

> <Gold.PLP.ligand.clash>
0.0000

> <Gold.PLP.ligand.torsion>
1.6128

> <Gold.PLP.Chemscore.Hbond>
3.0000

> <Gold.PLP.Chemscore.CHOScore>
0.0000

> <Gold.PLP.Chemscore.Metal>
0.0000

> <Gold.Chemscore.Hbonds>
donor molecule, donor type, donor heavy atom, donor atom, acceptor molecule, acceptor atom, score
      P1  H  7989  7998       L1     5  0.10
      P1  H  7997  8008       L1     1  0.69

> <Gold.PLP.Chemscore.Internal.Correction>
0.9114

> <Gold.Rescore>
     Score         DG    S(hbond)    S(metal)    S(lipo)     H(rot)  DE(clash)    DE(int)     intcor
     20.26     -22.03       2.72        0.00     122.75       2.69       0.03       1.74       ----

> <Gold.Chemscore.Fitness>
20.2556

> <Gold.Chemscore.DG>
-22.0312

> <Gold.Chemscore.ZeroCoef>
-5.4800

> <Gold.Chemscore.Hbond>
2.7206

> <Gold.Chemscore.Metal>
0.0000

> <Gold.Chemscore.Lipo>
122.7502

> <Gold.Chemscore.Internal_Hbond>
0.0000

> <Gold.Chemscore.DEClash>
0.0330

> <Gold.Chemscore.DEInternal>
1.7426

> <Gold.Chemscore.Rot>
2.6944

> <Gold.Chemscore.Internal.Correction>
   9.000000E+99

> <Gold.Chemscore.Hbonds>
donor molecule, donor type, donor heavy atom, donor atom, acceptor molecule, acceptor atom, score
      L1  H    29    49       P1  7948  0.02
      P1  H  7997  8008       L1     1  0.64

> <Gold.Chemscore.Hbond.Weighted>
-9.0870

> <Gold.Chemscore.Metal.Weighted>
-0.0000

> <Gold.Chemscore.Lipo.Weighted>
-14.3618

> <Gold.Chemscore.Internal_Hbond.Weighted>
0.0000

> <Gold.Chemscore.DEClash.Weighted>
0.0330

> <Gold.Chemscore.DEInternal.Weighted>
1.7426

> <Gold.Chemscore.Rot.Weighted>
6.8975

> <Gold.Chemscore.Internal.Correction.Weighted>
   9.000000E+99

> <Gold.Protein.RotatedTorsions>
[ 6907 6896 6895 6894 ] final   93.78 input  -60.11 | X-H torsion
[ 7974 7965 7964 7962 ] final  104.43 input  175.53 | X-H torsion
[ 8008 7997 7996 7995 ] final  -91.02 input   59.86 | X-H torsion
[ 10167 10162 10161 10158 ] final  169.31 input  -65.29 | X-H torsion
[ 10718 10713 10712 10709 ] final  122.85 input   66.30 | X-H torsion
[ 10763 10752 10751 10750 ] final  -55.07 input  -60.55 | X-H torsion
[ 11005 11000 10999 10996 ] final   24.93 input  -57.11 | X-H torsion

> <Gold.Protein.ActiveResidues>
 VAL166  LYS551  ARG553  GLY616  TRP617  ASP618  TYR619  PRO620  LYS621  CYS622 
 ASP623  PHE694  ASN695  SER759  ASP760  ASP761  ALA762  ILE779  LEU786  VAL792 
 PHE793  MET794  SER795  GLU796  ALA797  LYS798  CYS799  TRP800  GLU811  SER814 

> <Gold.Protein.RotatedAtoms>
  152.5451  134.1294  159.8432 H   0  0  0  0  0  0  0  0  0  0  0  0  # atno 6907 bound_to 6896
  151.1342  133.5009  159.2606 H   0  0  0  0  0  0  0  0  0  0  0  0  # atno 6908 bound_to 6896
  151.1643  135.0298  159.8778 H   0  0  0  0  0  0  0  0  0  0  0  0  # atno 6909 bound_to 6896
  145.3328  139.2482  143.3651 H   0  0  0  0  0  0  0  0  0  0  0  0  # atno 7974 bound_to 7965
  154.7056  140.0524  157.0501 H   0  0  0  0  0  0  0  0  0  0  0  0  # atno 8008 bound_to 7997
  155.0624  140.3191  155.4637 H   0  0  0  0  0  0  0  0  0  0  0  0  # atno 8009 bound_to 7997
  156.2774  140.2096  156.5751 H   0  0  0  0  0  0  0  0  0  0  0  0  # atno 8010 bound_to 7997
  139.4989  144.3719  151.9715 H   0  0  0  0  0  0  0  0  0  0  0  0  # atno 10167 bound_to 10162
  157.5711  131.1083  150.8366 H   0  0  0  0  0  0  0  0  0  0  0  0  # atno 10718 bound_to 10713
  154.1850  135.6437  153.5044 H   0  0  0  0  0  0  0  0  0  0  0  0  # atno 10763 bound_to 10752
  153.0049  135.5415  154.6475 H   0  0  0  0  0  0  0  0  0  0  0  0  # atno 10764 bound_to 10752
  154.5849  135.2928  155.0668 H   0  0  0  0  0  0  0  0  0  0  0  0  # atno 10765 bound_to 10752
  140.3533  134.2204  155.7678 H   0  0  0  0  0  0  0  0  0  0  0  0  # atno 11005 bound_to 11000
  146.3038  140.3910  142.8694 LP  0  0  0  0  0  0  0  0  0  0  0  0  # atno 17320 bound_to 7965
  144.8850  140.7450  143.5962 LP  0  0  0  0  0  0  0  0  0  0  0  0  # atno 17321 bound_to 7965
  140.3155  144.3488  150.6022 LP  0  0  0  0  0  0  0  0  0  0  0  0  # atno 17342 bound_to 10162
  140.5764  143.2176  151.7507 LP  0  0  0  0  0  0  0  0  0  0  0  0  # atno 17343 bound_to 10162
  156.8837  130.5188  149.5289 LP  0  0  0  0  0  0  0  0  0  0  0  0  # atno 17370 bound_to 10713
  156.0756  130.5779  150.9467 LP  0  0  0  0  0  0  0  0  0  0  0  0  # atno 17371 bound_to 10713
  141.2005  133.7984  157.0483 LP  0  0  0  0  0  0  0  0  0  0  0  0  # atno 17394 bound_to 11000
  140.0685  134.9715  157.1427 LP  0  0  0  0  0  0  0  0  0  0  0  0  # atno 17395 bound_to 11000

$$$$
