AV-unprocessed.smi:3077|AV-procd|sdf|11730|dock2
  -GOLD-   2272017123D 1   1.00000     0.00000
 Structure written by MMmdl.
 28 29  0  0  0  0  0  0  0  0  2 V2000
  148.3501  141.4021  155.0270 C   0  0  0  0  0  0  0  0  0  0  0  0
  149.1961  140.4844  154.3438 C   0  0  0  0  0  0  0  0  0  0  0  0
  150.4235  140.4574  154.8382 N   0  0  0  0  0  0  0  0  0  0  0  0
  150.4033  141.3581  155.8441 N   0  0  0  0  0  0  0  0  0  0  0  0
  151.6010  141.5832  156.6329 C   0  0  0  0  0  0  0  0  0  0  0  0
  151.3606  142.4946  157.8539 C   0  0  1  0  0  0  0  0  0  0  0  0
  152.4822  142.3971  158.9137 C   0  0  0  0  0  0  0  0  0  0  0  0
  152.2344  143.3620  160.0837 C   0  0  0  0  0  0  0  0  0  0  0  0
  152.0395  144.7933  159.5646 C   0  0  0  0  0  0  0  0  0  0  0  0
  150.9206  144.8414  158.5120 C   0  0  0  0  0  0  0  0  0  0  0  0
  151.2006  143.8983  157.4072 N   0  3  0  0  0  0  0  0  0  0  0  0
  149.1606  141.9395  155.9853 C   0  0  0  0  0  0  0  0  0  0  0  0
  147.3099  141.6275  154.8443 H   0  0  0  0  0  0  0  0  0  0  0  0
  148.9562  139.8400  153.5110 H   0  0  0  0  0  0  0  0  0  0  0  0
  151.9844  140.6145  156.9566 H   0  0  0  0  0  0  0  0  0  0  0  0
  152.3601  142.0164  155.9798 H   0  0  0  0  0  0  0  0  0  0  0  0
  150.4196  142.1978  158.3204 H   0  0  0  0  0  0  0  0  0  0  0  0
  152.5554  141.3800  159.3000 H   0  0  0  0  0  0  0  0  0  0  0  0
  153.4456  142.6216  158.4537 H   0  0  0  0  0  0  0  0  0  0  0  0
  151.3484  143.0481  160.6374 H   0  0  0  0  0  0  0  0  0  0  0  0
  153.0685  143.3259  160.7850 H   0  0  0  0  0  0  0  0  0  0  0  0
  151.8038  145.4633  160.3922 H   0  0  0  0  0  0  0  0  0  0  0  0
  152.9714  145.1556  159.1282 H   0  0  0  0  0  0  0  0  0  0  0  0
  149.9607  144.5901  158.9651 H   0  0  0  0  0  0  0  0  0  0  0  0
  150.8274  145.8485  158.1049 H   0  0  0  0  0  0  0  0  0  0  0  0
  152.0519  144.1870  156.9471 H   0  0  0  0  0  0  0  0  0  0  0  0
  148.9577  142.6788  156.7462 H   0  0  0  0  0  0  0  0  0  0  0  0
  150.4408  143.9427  156.7429 H   0  0  0  0  0  0  0  0  0  0  0  0
  1 12  2  0  0  0  0
  1  2  1  0  0  0  0
  1 13  1  0  0  0  0
  2  3  2  0  0  0  0
  2 14  1  0  0  0  0
  3  4  1  0  0  0  0
  4  5  1  0  0  0  0
  4 12  1  0  0  0  0
  5  6  1  0  0  0  0
  5 15  1  0  0  0  0
  5 16  1  0  0  0  0
  6 11  1  0  0  0  0
  6  7  1  0  0  0  0
  6 17  1  0  0  0  0
  7  8  1  0  0  0  0
  7 18  1  0  0  0  0
  7 19  1  0  0  0  0
  8  9  1  0  0  0  0
  8 20  1  0  0  0  0
  8 21  1  0  0  0  0
  9 10  1  0  0  0  0
  9 22  1  0  0  0  0
  9 23  1  0  0  0  0
 10 11  1  0  0  0  0
 10 24  1  0  0  0  0
 10 25  1  0  0  0  0
 11 26  1  0  0  0  0
 11 28  1  0  0  0  0
 12 27  1  0  0  0  0
M  CHG  1  11   1
M  END
> <s_m_source_file>
AV-unprocessed.smi

> <i_m_source_file_index>
3077

> <i_lp_mmshare_version>
43012

> <i_f3d_flags>
0

> <s_epik_input>
W2NIXTFbY0hdW2NIXW5uMVtDSDJdW0NAQEhdMltDSDJdW0NIMl1bQ0gyXVtDSDJdW05IXTI=

> <s_epik_cmdline>
J2VwaWtfcHl0aG9uJywgJy1waCcsICc3LjAnLCAnLXRuJywgJzgnLCAnLW1hJywgJzIwMCcsICctbWV0YWxfYmluZGluZycsICctaW1hZScsICc8aW5maWxlLm1hZT4nLCAnLW9tYWUnLCAnPG91dGZpbGUubWFlPic=

> <r_lp_tautomer_probability>
1

> <r_epik_Ionization_Penalty>
0.000655985

> <r_epik_Ionization_Penalty_Charging>
0.000651447

> <r_epik_Ionization_Penalty_Neutral>
4.5377e-06

> <r_epik_State_Penalty>
0.000412577

> <r_epik_Charging_Adjusted_Penalty>
0.00106402

> <i_epik_Tot_Q>
1

> <i_epik_Tot_abs_Q>
1

> <r_epik_Metal_State_Penalty>
-0

> <b_epik_Metal_Only>
0

> <s_lp_Force_Field>
OPLS_2005

> <r_lp_Energy>
13.5088

> <b_lp_Chiralities_Consistent>
1

> <s_lp_Variant>
AV-unprocessed.smi:3077-2

> <Gold.Version>
5.8.1

> <Gold.Id.Protein>
6NUR|6NUR_protein|mol2

> <Gold.PLP.Fitness>
40.8337

> <Gold.PLP.PLP>
-27.6096

> <Gold.PLP.part.hbond>
-2.0000

> <Gold.PLP.part.metal>
0.0000

> <Gold.PLP.part.buried>
-1.9081

> <Gold.PLP.part.nonpolar>
-24.1950

> <Gold.PLP.part.repulsive>
0.0944

> <Gold.PLP.ligand.clash>
0.0000

> <Gold.PLP.ligand.torsion>
0.1710

> <Gold.PLP.Chemscore.Hbond>
3.0000

> <Gold.PLP.Chemscore.CHOScore>
1.5206

> <Gold.PLP.Chemscore.Metal>
0.0000

> <Gold.Chemscore.Hbonds>
donor molecule, donor type, donor heavy atom, donor atom, acceptor molecule, acceptor atom, score
      L1  H    11    28       P1  8028  2.00
      P1  H  7989  7998       L1     3  1.00
      L1  C     2    14       P1  7957  0.99
      L1  C    12    27       P1  8028  0.53

> <Gold.PLP.Chemscore.Internal.Correction>
0.0041

> <Gold.Rescore>
     Score         DG    S(hbond)    S(metal)    S(lipo)     H(rot)  DE(clash)    DE(int)     intcor
     16.03     -16.66       1.65        0.00      74.43       1.19       0.18       0.46       ----

> <Gold.Chemscore.Fitness>
16.0252

> <Gold.Chemscore.DG>
-16.6641

> <Gold.Chemscore.ZeroCoef>
-5.4800

> <Gold.Chemscore.Hbond>
1.6529

> <Gold.Chemscore.Metal>
0.0000

> <Gold.Chemscore.Lipo>
74.4342

> <Gold.Chemscore.Internal_Hbond>
0.0000

> <Gold.Chemscore.DEClash>
0.1780

> <Gold.Chemscore.DEInternal>
0.4609

> <Gold.Chemscore.Rot>
1.1896

> <Gold.Chemscore.Internal.Correction>
   9.000000E+99

> <Gold.Chemscore.Hbonds>
donor molecule, donor type, donor heavy atom, donor atom, acceptor molecule, acceptor atom, score
      L1  H    11    28       P1  8028  0.93
      P1  H  7989  7998       L1     3  0.57

> <Gold.Chemscore.Hbond.Weighted>
-5.5206

> <Gold.Chemscore.Metal.Weighted>
-0.0000

> <Gold.Chemscore.Lipo.Weighted>
-8.7088

> <Gold.Chemscore.Internal_Hbond.Weighted>
0.0000

> <Gold.Chemscore.DEClash.Weighted>
0.1780

> <Gold.Chemscore.DEInternal.Weighted>
0.4609

> <Gold.Chemscore.Rot.Weighted>
3.0453

> <Gold.Chemscore.Internal.Correction.Weighted>
   9.000000E+99

> <Gold.Protein.RotatedTorsions>
[ 6907 6896 6895 6894 ] final -150.02 input  -60.11 | X-H torsion
[ 7974 7965 7964 7962 ] final   94.25 input  175.53 | X-H torsion
[ 8008 7997 7996 7995 ] final  -72.16 input   59.86 | X-H torsion
[ 10167 10162 10161 10158 ] final   68.96 input  -65.29 | X-H torsion
[ 10718 10713 10712 10709 ] final -145.01 input   66.30 | X-H torsion
[ 10763 10752 10751 10750 ] final   51.09 input  -60.55 | X-H torsion
[ 11005 11000 10999 10996 ] final   74.41 input  -57.11 | X-H torsion

> <Gold.Protein.ActiveResidues>
 VAL166  LYS551  ARG553  GLY616  TRP617  ASP618  TYR619  PRO620  LYS621  CYS622 
 ASP623  PHE694  ASN695  SER759  ASP760  ASP761  ALA762  ILE779  LEU786  VAL792 
 PHE793  MET794  SER795  GLU796  ALA797  LYS798  CYS799  TRP800  GLU811  SER814 

> <Gold.Protein.RotatedAtoms>
  151.1925  133.4658  159.2594 H   0  0  0  0  0  0  0  0  0  0  0  0  # atno 6907 bound_to 6896
  151.1149  135.0047  159.8521 H   0  0  0  0  0  0  0  0  0  0  0  0  # atno 6908 bound_to 6896
  152.5453  134.1842  159.8700 H   0  0  0  0  0  0  0  0  0  0  0  0  # atno 6909 bound_to 6896
  145.4681  139.2283  143.2950 H   0  0  0  0  0  0  0  0  0  0  0  0  # atno 7974 bound_to 7965
  154.5144  140.0802  156.8052 H   0  0  0  0  0  0  0  0  0  0  0  0  # atno 8008 bound_to 7997
  155.3713  140.3423  155.4225 H   0  0  0  0  0  0  0  0  0  0  0  0  # atno 8009 bound_to 7997
  156.1611  140.1588  156.8598 H   0  0  0  0  0  0  0  0  0  0  0  0  # atno 8010 bound_to 7997
  140.0730  144.5136  150.7214 H   0  0  0  0  0  0  0  0  0  0  0  0  # atno 10167 bound_to 10162
  156.3772  130.7818  151.2006 H   0  0  0  0  0  0  0  0  0  0  0  0  # atno 10718 bound_to 10713
  152.9785  135.5857  154.4358 H   0  0  0  0  0  0  0  0  0  0  0  0  # atno 10763 bound_to 10752
  154.3966  135.2768  155.2124 H   0  0  0  0  0  0  0  0  0  0  0  0  # atno 10764 bound_to 10752
  154.3974  135.6111  153.5931 H   0  0  0  0  0  0  0  0  0  0  0  0  # atno 10765 bound_to 10752
  139.9392  134.7430  156.1144 H   0  0  0  0  0  0  0  0  0  0  0  0  # atno 11005 bound_to 11000
  146.2413  140.5456  142.8933 LP  0  0  0  0  0  0  0  0  0  0  0  0  # atno 17320 bound_to 7965
  144.7962  140.6127  143.6508 LP  0  0  0  0  0  0  0  0  0  0  0  0  # atno 17321 bound_to 7965
  140.7116  143.2509  151.4564 LP  0  0  0  0  0  0  0  0  0  0  0  0  # atno 17342 bound_to 10162
  139.5824  144.1679  152.1986 LP  0  0  0  0  0  0  0  0  0  0  0  0  # atno 17343 bound_to 10162
  157.7489  131.0355  150.4365 LP  0  0  0  0  0  0  0  0  0  0  0  0  # atno 17370 bound_to 10713
  156.4603  130.4030  149.6580 LP  0  0  0  0  0  0  0  0  0  0  0  0  # atno 17371 bound_to 10713
  141.1020  133.6674  156.2776 LP  0  0  0  0  0  0  0  0  0  0  0  0  # atno 17394 bound_to 11000
  140.5995  134.5569  157.5515 LP  0  0  0  0  0  0  0  0  0  0  0  0  # atno 17395 bound_to 11000

$$$$
