AV-unprocessed.smi:1347|AV-procd|sdf|5516|dock4
  -GOLD-   22720 5103D 1   1.00000     0.00000
 Structure written by MMmdl.
 38 39  0  0  0  0  0  0  0  0  1 V2000
  145.7479  147.3505  159.5930 C   0  0  0  0  0  0  0  0  0  0  0  0
  146.4105  146.2090  160.1076 O   0  0  0  0  0  0  0  0  0  0  0  0
  145.6754  145.0153  159.8927 C   0  0  0  0  0  0  0  0  0  0  0  0
  146.6482  143.8412  159.7952 C   0  0  0  0  0  0  0  0  0  0  0  0
  146.6529  142.9651  160.6598 O   0  0  0  0  0  0  0  0  0  0  0  0
  147.4600  143.8294  158.7277 N   0  0  0  0  0  0  0  0  0  0  0  0
  148.4169  142.7748  158.4105 C   0  0  0  0  0  0  0  0  0  0  0  0
  149.8732  143.2117  158.5335 C   0  0  0  0  0  0  0  0  0  0  0  0
  150.2087  144.2686  159.4061 C   0  0  0  0  0  0  0  0  0  0  0  0
  151.5532  144.6667  159.5184 C   0  0  0  0  0  0  0  0  0  0  0  0
  152.5161  143.9899  158.7478 C   0  0  0  0  0  0  0  0  0  0  0  0
  152.2125  142.9791  157.9070 N   0  0  0  0  0  0  0  0  0  0  0  0
  150.9181  142.5928  157.7986 C   0  0  0  0  0  0  0  0  0  0  0  0
  150.6336  141.5372  156.9182 N   0  0  0  0  0  0  0  0  0  0  0  0
  149.8547  141.9240  155.7501 C   0  0  0  0  0  0  0  0  0  0  0  0
  149.4547  140.6692  154.9545 C   0  0  0  0  0  0  0  0  0  0  0  0
  150.6212  139.9235  154.6148 O   0  0  0  0  0  0  0  0  0  0  0  0
  151.3406  139.4935  155.7678 C   0  0  0  0  0  0  0  0  0  0  0  0
  151.7910  140.7194  156.5796 C   0  0  0  0  0  0  0  0  0  0  0  0
  146.3471  148.2403  159.7859 H   0  0  0  0  0  0  0  0  0  0  0  0
  144.7759  147.4896  160.0679 H   0  0  0  0  0  0  0  0  0  0  0  0
  145.6030  147.2694  158.5149 H   0  0  0  0  0  0  0  0  0  0  0  0
  144.9882  144.8351  160.7207 H   0  0  0  0  0  0  0  0  0  0  0  0
  145.0839  145.0944  158.9786 H   0  0  0  0  0  0  0  0  0  0  0  0
  147.3890  144.5920  158.0700 H   0  0  0  0  0  0  0  0  0  0  0  0
  148.2467  141.9425  159.0939 H   0  0  0  0  0  0  0  0  0  0  0  0
  148.2185  142.3913  157.4086 H   0  0  0  0  0  0  0  0  0  0  0  0
  149.4472  144.7675  159.9875 H   0  0  0  0  0  0  0  0  0  0  0  0
  151.8391  145.4704  160.1805 H   0  0  0  0  0  0  0  0  0  0  0  0
  153.5579  144.2681  158.8073 H   0  0  0  0  0  0  0  0  0  0  0  0
  148.9643  142.4704  156.0632 H   0  0  0  0  0  0  0  0  0  0  0  0
  150.4420  142.5931  155.1198 H   0  0  0  0  0  0  0  0  0  0  0  0
  148.7686  140.0463  155.5307 H   0  0  0  0  0  0  0  0  0  0  0  0
  148.9350  140.9531  154.0393 H   0  0  0  0  0  0  0  0  0  0  0  0
  150.7174  138.8343  156.3745 H   0  0  0  0  0  0  0  0  0  0  0  0
  152.2068  138.9121  155.4514 H   0  0  0  0  0  0  0  0  0  0  0  0
  152.5024  141.3079  155.9988 H   0  0  0  0  0  0  0  0  0  0  0  0
  152.2999  140.4011  157.4903 H   0  0  0  0  0  0  0  0  0  0  0  0
  1  2  1  0  0  0  0
  1 20  1  0  0  0  0
  1 21  1  0  0  0  0
  1 22  1  0  0  0  0
  2  3  1  0  0  0  0
  3  4  1  0  0  0  0
  3 23  1  0  0  0  0
  3 24  1  0  0  0  0
  4  5  2  0  0  0  0
  4  6  1  0  0  0  0
  6  7  1  0  0  0  0
  6 25  1  0  0  0  0
  7  8  1  0  0  0  0
  7 26  1  0  0  0  0
  7 27  1  0  0  0  0
  8 13  1  0  0  0  0
  8  9  2  0  0  0  0
  9 10  1  0  0  0  0
  9 28  1  0  0  0  0
 10 11  2  0  0  0  0
 10 29  1  0  0  0  0
 11 12  1  0  0  0  0
 11 30  1  0  0  0  0
 12 13  2  0  0  0  0
 13 14  1  0  0  0  0
 14 19  1  0  0  0  0
 14 15  1  0  0  0  0
 15 16  1  0  0  0  0
 15 31  1  0  0  0  0
 15 32  1  0  0  0  0
 16 17  1  0  0  0  0
 16 33  1  0  0  0  0
 16 34  1  0  0  0  0
 17 18  1  0  0  0  0
 18 19  1  0  0  0  0
 18 35  1  0  0  0  0
 18 36  1  0  0  0  0
 19 37  1  0  0  0  0
 19 38  1  0  0  0  0
M  END
> <s_m_source_file>
AV-unprocessed.smi

> <i_m_source_file_index>
1347

> <i_lp_mmshare_version>
43012

> <i_f3d_flags>
0

> <s_epik_input>
W0NIM11PW0NIMl1DKD1PKVtOSF1bQ0gyXWMxW2NIXVtjSF1bY0hdbmMxTjJbQ0gyXVtDSDJdT1tDSDJdW0NIMl0y

> <s_epik_cmdline>
J2VwaWtfcHl0aG9uJywgJy1waCcsICc3LjAnLCAnLXRuJywgJzgnLCAnLW1hJywgJzIwMCcsICctbWV0YWxfYmluZGluZycsICctaW1hZScsICc8aW5maWxlLm1hZT4nLCAnLW9tYWUnLCAnPG91dGZpbGUubWFlPic=

> <r_lp_tautomer_probability>
1

> <r_epik_Ionization_Penalty>
0.00422298

> <r_epik_Ionization_Penalty_Charging>
0

> <r_epik_Ionization_Penalty_Neutral>
0.00422298

> <r_epik_State_Penalty>
0.00303469

> <r_epik_Charging_Adjusted_Penalty>
0.00303469

> <i_epik_Tot_Q>
0

> <i_epik_Tot_abs_Q>
0

> <r_epik_Metal_State_Penalty>
-0

> <b_epik_Metal_Only>
0

> <s_lp_Force_Field>
OPLS_2005

> <r_lp_Energy>
19.5871

> <b_lp_Chiralities_Consistent>
1

> <s_lp_Variant>
AV-unprocessed.smi:1347-1

> <Gold.Version>
5.8.1

> <Gold.Id.Protein>
6NUR|6NUR_protein|mol2

> <Gold.PLP.Fitness>
41.3091

> <Gold.PLP.PLP>
-31.4561

> <Gold.PLP.part.hbond>
-4.0000

> <Gold.PLP.part.metal>
0.0000

> <Gold.PLP.part.buried>
-2.8772

> <Gold.PLP.part.nonpolar>
-25.5424

> <Gold.PLP.part.repulsive>
0.4419

> <Gold.PLP.ligand.clash>
0.0000

> <Gold.PLP.ligand.torsion>
0.9251

> <Gold.PLP.Chemscore.Hbond>
3.8479

> <Gold.PLP.Chemscore.CHOScore>
0.0000

> <Gold.PLP.Chemscore.Metal>
0.0000

> <Gold.Chemscore.Hbonds>
donor molecule, donor type, donor heavy atom, donor atom, acceptor molecule, acceptor atom, score
      L1  H     6    25       P1  8029  1.00
      P1  H  6933  6944       L1     5  0.81
      P1  H  6934  6946       L1     5  0.75
      P1  H  7989  7998       L1    17  1.00

> <Gold.PLP.Chemscore.Internal.Correction>
0.1596

> <Gold.Rescore>
     Score         DG    S(hbond)    S(metal)    S(lipo)     H(rot)  DE(clash)    DE(int)     intcor
     18.18     -20.22       3.21        0.00      76.81       1.94       0.70       1.34       ----

> <Gold.Chemscore.Fitness>
18.1806

> <Gold.Chemscore.DG>
-20.2156

> <Gold.Chemscore.ZeroCoef>
-5.4800

> <Gold.Chemscore.Hbond>
3.2071

> <Gold.Chemscore.Metal>
0.0000

> <Gold.Chemscore.Lipo>
76.8077

> <Gold.Chemscore.Internal_Hbond>
0.0000

> <Gold.Chemscore.DEClash>
0.6977

> <Gold.Chemscore.DEInternal>
1.3373

> <Gold.Chemscore.Rot>
1.9385

> <Gold.Chemscore.Internal.Correction>
   9.000000E+99

> <Gold.Chemscore.Hbonds>
donor molecule, donor type, donor heavy atom, donor atom, acceptor molecule, acceptor atom, score
      L1  H     6    25       P1  8029  0.64
      P1  H  6933  6944       L1     5  0.74
      P1  H  6934  6946       L1     5  0.71
      P1  H  7989  7998       L1    17  0.64

> <Gold.Chemscore.Hbond.Weighted>
-10.7118

> <Gold.Chemscore.Metal.Weighted>
-0.0000

> <Gold.Chemscore.Lipo.Weighted>
-8.9865

> <Gold.Chemscore.Internal_Hbond.Weighted>
0.0000

> <Gold.Chemscore.DEClash.Weighted>
0.6977

> <Gold.Chemscore.DEInternal.Weighted>
1.3373

> <Gold.Chemscore.Rot.Weighted>
4.9627

> <Gold.Chemscore.Internal.Correction.Weighted>
   9.000000E+99

> <Gold.Protein.RotatedTorsions>
[ 6907 6896 6895 6894 ] final -176.04 input  -60.11 | X-H torsion
[ 7974 7965 7964 7962 ] final  138.84 input  175.53 | X-H torsion
[ 8008 7997 7996 7995 ] final   24.60 input   59.86 | X-H torsion
[ 10167 10162 10161 10158 ] final -161.83 input  -65.29 | X-H torsion
[ 10718 10713 10712 10709 ] final   14.76 input   66.30 | X-H torsion
[ 10763 10752 10751 10750 ] final -140.60 input  -60.55 | X-H torsion
[ 11005 11000 10999 10996 ] final  -94.66 input  -57.11 | X-H torsion

> <Gold.Protein.ActiveResidues>
 VAL166  LYS551  ARG553  GLY616  TRP617  ASP618  TYR619  PRO620  LYS621  CYS622 
 ASP623  PHE694  ASN695  SER759  ASP760  ASP761  ALA762  ILE779  LEU786  VAL792 
 PHE793  MET794  SER795  GLU796  ALA797  LYS798  CYS799  TRP800  GLU811  SER814 

> <Gold.Protein.RotatedAtoms>
  151.5983  133.3359  159.3041 H   0  0  0  0  0  0  0  0  0  0  0  0  # atno 6907 bound_to 6896
  150.8222  134.7439  159.6793 H   0  0  0  0  0  0  0  0  0  0  0  0  # atno 6908 bound_to 6896
  152.4314  134.5775  159.9990 H   0  0  0  0  0  0  0  0  0  0  0  0  # atno 6909 bound_to 6896
  144.9334  139.5019  143.5607 H   0  0  0  0  0  0  0  0  0  0  0  0  # atno 7974 bound_to 7965
  154.9988  140.3122  155.4876 H   0  0  0  0  0  0  0  0  0  0  0  0  # atno 8008 bound_to 7997
  156.2928  140.2235  156.5037 H   0  0  0  0  0  0  0  0  0  0  0  0  # atno 8009 bound_to 7997
  154.7637  140.0457  157.0982 H   0  0  0  0  0  0  0  0  0  0  0  0  # atno 8010 bound_to 7997
  139.6436  144.0213  152.2110 H   0  0  0  0  0  0  0  0  0  0  0  0  # atno 10167 bound_to 10162
  157.0438  130.6242  149.5755 H   0  0  0  0  0  0  0  0  0  0  0  0  # atno 10718 bound_to 10713
  154.8573  135.3548  154.5734 H   0  0  0  0  0  0  0  0  0  0  0  0  # atno 10763 bound_to 10752
  153.6346  135.7001  153.5268 H   0  0  0  0  0  0  0  0  0  0  0  0  # atno 10764 bound_to 10752
  153.3021  135.4203  155.1221 H   0  0  0  0  0  0  0  0  0  0  0  0  # atno 10765 bound_to 10752
  141.1464  133.7972  157.0328 H   0  0  0  0  0  0  0  0  0  0  0  0  # atno 11005 bound_to 11000
  146.3256  139.8301  142.8910 LP  0  0  0  0  0  0  0  0  0  0  0  0  # atno 17320 bound_to 7965
  145.3105  141.0218  143.3557 LP  0  0  0  0  0  0  0  0  0  0  0  0  # atno 17321 bound_to 7965
  139.9909  144.6362  150.7815 LP  0  0  0  0  0  0  0  0  0  0  0  0  # atno 17342 bound_to 10162
  140.7503  143.2954  151.3220 LP  0  0  0  0  0  0  0  0  0  0  0  0  # atno 17343 bound_to 10162
  156.0029  130.5112  150.7729 LP  0  0  0  0  0  0  0  0  0  0  0  0  # atno 17370 bound_to 10713
  157.5084  131.0923  151.0229 LP  0  0  0  0  0  0  0  0  0  0  0  0  # atno 17371 bound_to 10713
  140.0743  134.9685  157.1519 LP  0  0  0  0  0  0  0  0  0  0  0  0  # atno 17394 bound_to 11000
  140.3667  134.2435  155.7181 LP  0  0  0  0  0  0  0  0  0  0  0  0  # atno 17395 bound_to 11000

$$$$
