AV-unprocessed.smi:21|AV-procd|sdf|123|dock9
  -GOLD-   2262015303D 1   1.00000     0.00000
 Structure written by MMmdl.
 62 65  0  0  0  0  0  0  0  0  2 V2000
  147.0515  131.1667  153.1547 C   0  0  0  0  0  0  0  0  0  0  0  0
  146.7798  132.2564  154.0223 O   0  0  0  0  0  0  0  0  0  0  0  0
  145.9413  133.2477  153.4446 C   0  0  1  0  0  0  0  0  0  0  0  0
  145.7788  134.4104  154.4299 C   0  0  0  0  0  0  0  0  0  0  0  0
  146.6960  135.5082  153.8871 C   0  0  2  0  0  0  0  0  0  0  0  0
  146.3721  136.9389  154.3780 C   0  0  0  0  0  0  0  0  0  0  0  0
  147.3247  137.9349  153.8934 N   0  0  0  0  0  0  0  0  0  0  0  0
  146.9180  138.8022  152.7884 C   0  0  0  0  0  0  0  0  0  0  0  0
  148.5083  138.1778  154.5327 C   0  0  0  0  0  0  0  0  0  0  0  0
  149.3512  137.1263  154.7241 N   0  0  0  0  0  0  0  0  0  0  0  0
  150.5227  137.2824  155.3439 C   0  0  0  0  0  0  0  0  0  0  0  0
  151.0527  138.3942  155.8500 N   0  0  0  0  0  0  0  0  0  0  0  0
  150.2261  139.4612  155.6664 C   0  0  0  0  0  0  0  0  0  0  0  0
  148.9499  139.4476  155.0271 C   0  0  0  0  0  0  0  0  0  0  0  0
  148.4254  140.7384  155.0372 N   0  0  0  0  0  0  0  0  0  0  0  0
  149.3278  141.4609  155.6406 C   0  0  0  0  0  0  0  0  0  0  0  0
  150.4455  140.7737  156.0467 N   0  0  0  0  0  0  0  0  0  0  0  0
  151.5991  141.3292  156.7339 C   0  0  0  0  0  0  0  0  0  0  0  0
  151.2667  141.8600  158.1507 C   0  0  2  0  0  0  0  0  0  0  0  0
  150.4055  143.1466  158.1198 C   0  0  0  0  0  0  0  0  0  0  0  0
  151.0152  144.1577  157.3441 O   0  0  0  0  0  0  0  0  0  0  0  0
  152.5439  142.0314  159.0117 C   0  0  2  0  0  0  0  0  0  0  0  0
  153.2206  140.7335  159.4170 C   0  0  0  0  0  0  0  0  0  0  0  0
  154.0995  141.1796  160.5803 C   0  0  0  0  0  0  0  0  0  0  0  0
  153.3894  142.2367  161.2148 O   0  0  0  0  0  0  0  0  0  0  0  0
  152.3105  142.6626  160.3886 C   0  0  0  0  0  0  0  0  0  0  0  0
  146.6566  135.3313  152.4156 N   0  3  2  0  0  0  0  0  0  0  0  0
  145.5685  136.0525  151.7104 C   0  0  0  0  0  0  0  0  0  0  0  0
  146.5991  133.8694  152.1955 C   0  0  0  0  0  0  0  0  0  0  0  0
  144.9586  132.8315  153.2153 H   0  0  0  0  0  0  0  0  0  0  0  0
  147.7149  135.2564  154.1846 H   0  0  0  0  0  0  0  0  0  0  0  0
  147.6949  130.4484  153.6627 H   0  0  0  0  0  0  0  0  0  0  0  0
  147.5638  131.4904  152.2482 H   0  0  0  0  0  0  0  0  0  0  0  0
  146.1333  130.6507  152.8709 H   0  0  0  0  0  0  0  0  0  0  0  0
  144.7433  134.7532  154.4174 H   0  0  0  0  0  0  0  0  0  0  0  0
  146.0184  134.1329  155.4569 H   0  0  0  0  0  0  0  0  0  0  0  0
  145.3609  137.2321  154.1008 H   0  0  0  0  0  0  0  0  0  0  0  0
  146.3790  136.9641  155.4681 H   0  0  0  0  0  0  0  0  0  0  0  0
  147.6186  138.7203  151.9565 H   0  0  0  0  0  0  0  0  0  0  0  0
  146.8789  139.8441  153.1089 H   0  0  0  0  0  0  0  0  0  0  0  0
  145.9302  138.5332  152.4141 H   0  0  0  0  0  0  0  0  0  0  0  0
  151.1206  136.3891  155.4495 H   0  0  0  0  0  0  0  0  0  0  0  0
  149.2053  142.5219  155.8037 H   0  0  0  0  0  0  0  0  0  0  0  0
  152.3560  140.5465  156.7855 H   0  0  0  0  0  0  0  0  0  0  0  0
  152.0238  142.1246  156.1206 H   0  0  0  0  0  0  0  0  0  0  0  0
  150.6557  141.0972  158.6355 H   0  0  0  0  0  0  0  0  0  0  0  0
  149.4130  142.9464  157.7167 H   0  0  0  0  0  0  0  0  0  0  0  0
  150.2457  143.5305  159.1270 H   0  0  0  0  0  0  0  0  0  0  0  0
  150.3612  144.5411  156.7798 H   0  0  0  0  0  0  0  0  0  0  0  0
  153.2708  142.6398  158.4707 H   0  0  0  0  0  0  0  0  0  0  0  0
  152.4825  140.0084  159.7626 H   0  0  0  0  0  0  0  0  0  0  0  0
  153.7982  140.2771  158.6125 H   0  0  0  0  0  0  0  0  0  0  0  0
  154.3152  140.3689  161.2766 H   0  0  0  0  0  0  0  0  0  0  0  0
  155.0478  141.5718  160.2112 H   0  0  0  0  0  0  0  0  0  0  0  0
  152.2588  143.7508  160.3445 H   0  0  0  0  0  0  0  0  0  0  0  0
  151.3814  142.2986  160.8294 H   0  0  0  0  0  0  0  0  0  0  0  0
  144.5882  135.7725  152.0982 H   0  0  0  0  0  0  0  0  0  0  0  0
  145.5892  135.8212  150.6448 H   0  0  0  0  0  0  0  0  0  0  0  0
  145.6820  137.1326  151.8025 H   0  0  0  0  0  0  0  0  0  0  0  0
  147.6264  133.5165  152.0966 H   0  0  0  0  0  0  0  0  0  0  0  0
  146.0796  133.5975  151.2756 H   0  0  0  0  0  0  0  0  0  0  0  0
  147.5247  135.6774  152.0319 H   0  0  0  0  0  0  0  0  0  0  0  0
  1  2  1  0  0  0  0
  1 32  1  0  0  0  0
  1 33  1  0  0  0  0
  1 34  1  0  0  0  0
  2  3  1  0  0  0  0
  3 30  1  0  0  0  0
  3 29  1  0  0  0  0
  3  4  1  0  0  0  0
  4  5  1  0  0  0  0
  4 35  1  0  0  0  0
  4 36  1  0  0  0  0
  5 31  1  0  0  0  0
  5  6  1  0  0  0  0
  5 27  1  0  0  0  0
  6  7  1  0  0  0  0
  6 37  1  0  0  0  0
  6 38  1  0  0  0  0
  7  8  1  0  0  0  0
  7  9  1  0  0  0  0
  8 39  1  0  0  0  0
  8 40  1  0  0  0  0
  8 41  1  0  0  0  0
  9 14  1  0  0  0  0
  9 10  2  0  0  0  0
 10 11  1  0  0  0  0
 11 12  2  0  0  0  0
 11 42  1  0  0  0  0
 12 13  1  0  0  0  0
 13 17  1  0  0  0  0
 13 14  2  0  0  0  0
 14 15  1  0  0  0  0
 15 16  2  0  0  0  0
 16 17  1  0  0  0  0
 16 43  1  0  0  0  0
 17 18  1  0  0  0  0
 18 19  1  0  0  0  0
 18 44  1  0  0  0  0
 18 45  1  0  0  0  0
 19 20  1  0  0  0  0
 19 22  1  0  0  0  0
 19 46  1  0  0  0  0
 20 21  1  0  0  0  0
 20 47  1  0  0  0  0
 20 48  1  0  0  0  0
 21 49  1  0  0  0  0
 22 26  1  0  0  0  0
 22 23  1  0  0  0  0
 22 50  1  0  0  0  0
 23 24  1  0  0  0  0
 23 51  1  0  0  0  0
 23 52  1  0  0  0  0
 24 25  1  0  0  0  0
 24 53  1  0  0  0  0
 24 54  1  0  0  0  0
 25 26  1  0  0  0  0
 26 55  1  0  0  0  0
 26 56  1  0  0  0  0
 27 28  1  0  0  0  0
 27 29  1  0  0  0  0
 27 62  1  0  0  0  0
 28 57  1  0  0  0  0
 28 58  1  0  0  0  0
 28 59  1  0  0  0  0
 29 60  1  0  0  0  0
 29 61  1  0  0  0  0
M  CHG  1  27   1
M  END
> <s_m_source_file>
AV-unprocessed.smi

> <i_m_source_file_index>
21

> <i_lp_mmshare_version>
43012

> <i_f3d_flags>
0

> <s_epik_input>
W0NIM11PW0NASF0xW0NIMl1bQ0BIXShOKFtDSDNdKVtDSDJdMSlbQ0gyXU4oW0NIM10pYyhuW2NIXW4yKWMoYzIzKW5bY0hdbjNbQ0gyXVtDQEhdKFtDSDJdW09IXSlbQ0BASF00W0NIMl1bQ0gyXU9bQ0gyXTQ=

> <s_epik_cmdline>
J2VwaWtfcHl0aG9uJywgJy1waCcsICc3LjAnLCAnLXRuJywgJzgnLCAnLW1hJywgJzIwMCcsICctbWV0YWxfYmluZGluZycsICctaW1hZScsICc8aW5maWxlLm1hZT4nLCAnLW9tYWUnLCAnPG91dGZpbGUubWFlPic=

> <r_lp_tautomer_probability>
1

> <r_epik_Ionization_Penalty>
0.0157465

> <r_epik_Ionization_Penalty_Charging>
0.015354

> <r_epik_Ionization_Penalty_Neutral>
0.000392529

> <r_epik_State_Penalty>
0.0120612

> <r_epik_Charging_Adjusted_Penalty>
0.0274152

> <i_epik_Tot_Q>
1

> <i_epik_Tot_abs_Q>
1

> <r_epik_Metal_State_Penalty>
0.0121253

> <b_epik_Metal_Only>
0

> <s_lp_Force_Field>
OPLS_2005

> <r_lp_Energy>
63.0646

> <b_lp_Chiralities_Consistent>
1

> <s_lp_Variant>
AV-unprocessed.smi:21-3

> <Gold.Version>
5.8.1

> <Gold.Id.Protein>
6NUR|6NUR_protein|mol2

> <Gold.PLP.Fitness>
47.8912

> <Gold.PLP.PLP>
-38.6079

> <Gold.PLP.part.hbond>
-2.0000

> <Gold.PLP.part.metal>
0.0000

> <Gold.PLP.part.buried>
-5.2112

> <Gold.PLP.part.nonpolar>
-32.5444

> <Gold.PLP.part.repulsive>
1.1981

> <Gold.PLP.ligand.clash>
0.0000

> <Gold.PLP.ligand.torsion>
1.5442

> <Gold.PLP.Chemscore.Hbond>
3.0000

> <Gold.PLP.Chemscore.CHOScore>
1.0000

> <Gold.PLP.Chemscore.Metal>
0.0000

> <Gold.Chemscore.Hbonds>
donor molecule, donor type, donor heavy atom, donor atom, acceptor molecule, acceptor atom, score
      L1  H    21    49       P1  8028  1.00
      L1  H    27    62       P1  7948  1.92
      L1  C    16    43       P1  8028  1.00

> <Gold.PLP.Chemscore.Internal.Correction>
0.3716

> <Gold.Rescore>
     Score         DG    S(hbond)    S(metal)    S(lipo)     H(rot)  DE(clash)    DE(int)     intcor
     12.37     -15.42       1.97        0.00      96.12       3.08       1.13       1.92       ----

> <Gold.Chemscore.Fitness>
12.3746

> <Gold.Chemscore.DG>
-15.4245

> <Gold.Chemscore.ZeroCoef>
-5.4800

> <Gold.Chemscore.Hbond>
1.9680

> <Gold.Chemscore.Metal>
0.0000

> <Gold.Chemscore.Lipo>
96.1158

> <Gold.Chemscore.Internal_Hbond>
0.0000

> <Gold.Chemscore.DEClash>
1.1260

> <Gold.Chemscore.DEInternal>
1.9239

> <Gold.Chemscore.Rot>
3.0758

> <Gold.Chemscore.Internal.Correction>
   9.000000E+99

> <Gold.Chemscore.Hbonds>
donor molecule, donor type, donor heavy atom, donor atom, acceptor molecule, acceptor atom, score
      L1  H    21    49       P1  8028  0.88
      L1  H    27    62       P1  7948  0.91

> <Gold.Chemscore.Hbond.Weighted>
-6.5731

> <Gold.Chemscore.Metal.Weighted>
-0.0000

> <Gold.Chemscore.Lipo.Weighted>
-11.2456

> <Gold.Chemscore.Internal_Hbond.Weighted>
0.0000

> <Gold.Chemscore.DEClash.Weighted>
1.1260

> <Gold.Chemscore.DEInternal.Weighted>
1.9239

> <Gold.Chemscore.Rot.Weighted>
7.8741

> <Gold.Chemscore.Internal.Correction.Weighted>
   9.000000E+99

> <Gold.Protein.RotatedTorsions>
[ 6907 6896 6895 6894 ] final -163.00 input  -60.11 | X-H torsion
[ 7974 7965 7964 7962 ] final   34.29 input  175.53 | X-H torsion
[ 8008 7997 7996 7995 ] final   -9.99 input   59.86 | X-H torsion
[ 10167 10162 10161 10158 ] final   89.51 input  -65.29 | X-H torsion
[ 10718 10713 10712 10709 ] final   96.96 input   66.30 | X-H torsion
[ 10763 10752 10751 10750 ] final  101.33 input  -60.55 | X-H torsion
[ 11005 11000 10999 10996 ] final  -53.27 input  -57.11 | X-H torsion

> <Gold.Protein.ActiveResidues>
 VAL166  LYS551  ARG553  GLY616  TRP617  ASP618  TYR619  PRO620  LYS621  CYS622 
 ASP623  PHE694  ASN695  SER759  ASP760  ASP761  ALA762  ILE779  LEU786  VAL792 
 PHE793  MET794  SER795  GLU796  ALA797  LYS798  CYS799  TRP800  GLU811  SER814 

> <Gold.Protein.RotatedAtoms>
  151.3892  133.3794  159.2718 H   0  0  0  0  0  0  0  0  0  0  0  0  # atno 6907 bound_to 6896
  150.9518  134.8918  159.7687 H   0  0  0  0  0  0  0  0  0  0  0  0  # atno 6908 bound_to 6896
  152.5115  134.3848  159.9416 H   0  0  0  0  0  0  0  0  0  0  0  0  # atno 6909 bound_to 6896
  146.1362  139.6287  142.9193 H   0  0  0  0  0  0  0  0  0  0  0  0  # atno 7974 bound_to 7965
  154.5596  140.2340  155.8356 H   0  0  0  0  0  0  0  0  0  0  0  0  # atno 8008 bound_to 7997
  156.2018  140.3050  155.9502 H   0  0  0  0  0  0  0  0  0  0  0  0  # atno 8009 bound_to 7997
  155.2914  140.0427  157.3014 H   0  0  0  0  0  0  0  0  0  0  0  0  # atno 8010 bound_to 7997
  139.8566  144.6566  150.9107 H   0  0  0  0  0  0  0  0  0  0  0  0  # atno 10167 bound_to 10162
  157.6919  131.0594  150.4571 H   0  0  0  0  0  0  0  0  0  0  0  0  # atno 10718 bound_to 10713
  153.3253  135.4048  155.1451 H   0  0  0  0  0  0  0  0  0  0  0  0  # atno 10763 bound_to 10752
  154.8610  135.3597  154.5542 H   0  0  0  0  0  0  0  0  0  0  0  0  # atno 10764 bound_to 10752
  153.5978  135.7072  153.5456 H   0  0  0  0  0  0  0  0  0  0  0  0  # atno 10765 bound_to 10752
  141.0967  133.6623  156.4147 H   0  0  0  0  0  0  0  0  0  0  0  0  # atno 11005 bound_to 11000
  145.5149  141.0434  143.2467 LP  0  0  0  0  0  0  0  0  0  0  0  0  # atno 17320 bound_to 7965
  144.7743  139.6665  143.7181 LP  0  0  0  0  0  0  0  0  0  0  0  0  # atno 17321 bound_to 7965
  140.7781  143.3781  151.1527 LP  0  0  0  0  0  0  0  0  0  0  0  0  # atno 17342 bound_to 10162
  139.7414  143.8919  152.3051 LP  0  0  0  0  0  0  0  0  0  0  0  0  # atno 17343 bound_to 10162
  156.4918  130.4097  149.6402 LP  0  0  0  0  0  0  0  0  0  0  0  0  # atno 17370 bound_to 10713
  156.3409  130.7382  151.2327 LP  0  0  0  0  0  0  0  0  0  0  0  0  # atno 17371 bound_to 10713
  140.5122  134.6384  157.5288 LP  0  0  0  0  0  0  0  0  0  0  0  0  # atno 17394 bound_to 11000
  139.9806  134.7144  155.9867 LP  0  0  0  0  0  0  0  0  0  0  0  0  # atno 17395 bound_to 11000

$$$$
