AV-unprocessed.smi:1139|AV-procd|sdf|4870|dock7
  -GOLD-   22720 3443D 1   1.00000     0.00000
 Structure written by MMmdl.
 43 44  0  0  0  0  0  0  0  0  2 V2000
  149.7447  141.4983  155.3237 C   0  0  0  0  0  0  0  0  0  0  0  0
  150.8156  140.5978  155.8694 C   0  0  0  0  0  0  0  0  0  0  0  0
  151.6545  141.0661  156.7778 N   0  0  0  0  0  0  0  0  0  0  0  0
  152.5258  140.0138  157.0742 O   0  0  0  0  0  0  0  0  0  0  0  0
  152.1748  138.9409  156.3204 C   0  0  0  0  0  0  0  0  0  0  0  0
  152.9946  137.7063  156.4858 C   0  0  0  0  0  0  0  0  0  0  0  0
  151.0972  139.2417  155.5337 C   0  0  0  0  0  0  0  0  0  0  0  0
  150.3845  138.3552  154.5453 C   0  0  0  0  0  0  0  0  0  0  0  0
  148.8750  138.4631  154.7586 C   0  0  0  0  0  0  0  0  0  0  0  0
  148.4320  138.9741  155.7869 O   0  0  0  0  0  0  0  0  0  0  0  0
  148.0947  137.9662  153.7882 N   0  0  0  0  0  0  0  0  0  0  0  0
  146.6386  137.9313  153.8413 C   0  0  0  0  0  0  0  0  0  0  0  0
  146.0110  137.6529  152.4534 C   0  0  1  0  0  0  0  0  0  0  0  0
  146.5064  138.6791  151.4090 C   0  0  0  0  0  0  0  0  0  0  0  0
  146.2947  136.2610  151.9966 N   0  3  0  0  0  0  0  0  0  0  0  0
  146.0114  135.1887  152.9757 C   0  0  0  0  0  0  0  0  0  0  0  0
  145.9040  133.9145  152.1465 C   0  0  0  0  0  0  0  0  0  0  0  0
  145.2161  134.3910  150.8728 C   0  0  0  0  0  0  0  0  0  0  0  0
  145.6300  135.8622  150.7292 C   0  0  0  0  0  0  0  0  0  0  0  0
  150.1058  142.0436  154.4518 H   0  0  0  0  0  0  0  0  0  0  0  0
  149.4222  142.2310  156.0645 H   0  0  0  0  0  0  0  0  0  0  0  0
  148.8658  140.9297  155.0202 H   0  0  0  0  0  0  0  0  0  0  0  0
  153.3189  137.3268  155.5168 H   0  0  0  0  0  0  0  0  0  0  0  0
  152.4175  136.9244  156.9792 H   0  0  0  0  0  0  0  0  0  0  0  0
  153.8836  137.9006  157.0862 H   0  0  0  0  0  0  0  0  0  0  0  0
  150.6111  138.6435  153.5180 H   0  0  0  0  0  0  0  0  0  0  0  0
  150.7006  137.3159  154.6420 H   0  0  0  0  0  0  0  0  0  0  0  0
  148.5400  137.5662  152.9750 H   0  0  0  0  0  0  0  0  0  0  0  0
  146.3255  137.1652  154.5531 H   0  0  0  0  0  0  0  0  0  0  0  0
  146.3022  138.8912  154.2348 H   0  0  0  0  0  0  0  0  0  0  0  0
  144.9282  137.7558  152.5461 H   0  0  0  0  0  0  0  0  0  0  0  0
  146.2565  139.7000  151.6972 H   0  0  0  0  0  0  0  0  0  0  0  0
  146.0564  138.5224  150.4292 H   0  0  0  0  0  0  0  0  0  0  0  0
  147.5890  138.6264  151.2877 H   0  0  0  0  0  0  0  0  0  0  0  0
  146.7888  135.1128  153.7367 H   0  0  0  0  0  0  0  0  0  0  0  0
  145.0604  135.3849  153.4742 H   0  0  0  0  0  0  0  0  0  0  0  0
  146.9012  133.5392  151.9120 H   0  0  0  0  0  0  0  0  0  0  0  0
  145.3557  133.1211  152.6551 H   0  0  0  0  0  0  0  0  0  0  0  0
  145.4889  133.7916  150.0038 H   0  0  0  0  0  0  0  0  0  0  0  0
  144.1341  134.3244  150.9936 H   0  0  0  0  0  0  0  0  0  0  0  0
  144.7475  136.4711  150.5267 H   0  0  0  0  0  0  0  0  0  0  0  0
  146.3258  135.9995  149.9009 H   0  0  0  0  0  0  0  0  0  0  0  0
  147.2873  136.2076  151.8169 H   0  0  0  0  0  0  0  0  0  0  0  0
  1  2  1  0  0  0  0
  1 20  1  0  0  0  0
  1 21  1  0  0  0  0
  1 22  1  0  0  0  0
  2  7  1  0  0  0  0
  2  3  2  0  0  0  0
  3  4  1  0  0  0  0
  4  5  1  0  0  0  0
  5  6  1  0  0  0  0
  5  7  2  0  0  0  0
  6 23  1  0  0  0  0
  6 24  1  0  0  0  0
  6 25  1  0  0  0  0
  7  8  1  0  0  0  0
  8  9  1  0  0  0  0
  8 26  1  0  0  0  0
  8 27  1  0  0  0  0
  9 10  2  0  0  0  0
  9 11  1  0  0  0  0
 11 12  1  0  0  0  0
 11 28  1  0  0  0  0
 12 13  1  0  0  0  0
 12 29  1  0  0  0  0
 12 30  1  0  0  0  0
 13 14  1  0  0  0  0
 13 15  1  0  0  0  0
 13 31  1  0  0  0  0
 14 32  1  0  0  0  0
 14 33  1  0  0  0  0
 14 34  1  0  0  0  0
 15 19  1  0  0  0  0
 15 16  1  0  0  0  0
 15 43  1  0  0  0  0
 16 17  1  0  0  0  0
 16 35  1  0  0  0  0
 16 36  1  0  0  0  0
 17 18  1  0  0  0  0
 17 37  1  0  0  0  0
 17 38  1  0  0  0  0
 18 19  1  0  0  0  0
 18 39  1  0  0  0  0
 18 40  1  0  0  0  0
 19 41  1  0  0  0  0
 19 42  1  0  0  0  0
M  CHG  1  15   1
M  END
> <s_m_source_file>
AV-unprocessed.smi

> <i_m_source_file_index>
1139

> <i_lp_mmshare_version>
43012

> <i_f3d_flags>
0

> <s_epik_input>
W0NIM11jMW5vYyhbQ0gzXSljMVtDSDJdQyg9TylbTkhdW0NIMl1bQ0BIXShbQ0gzXSlOMltDSDJdW0NIMl1bQ0gyXVtDSDJdMg==

> <s_epik_cmdline>
J2VwaWtfcHl0aG9uJywgJy1waCcsICc3LjAnLCAnLXRuJywgJzgnLCAnLW1hJywgJzIwMCcsICctbWV0YWxfYmluZGluZycsICctaW1hZScsICc8aW5maWxlLm1hZT4nLCAnLW9tYWUnLCAnPG91dGZpbGUubWFlPic=

> <r_epik_Ionization_Penalty>
0.0050436

> <r_epik_Ionization_Penalty_Charging>
0.0050435

> <r_epik_Ionization_Penalty_Neutral>
9.69799e-08

> <r_epik_State_Penalty>
0.00366867

> <r_epik_Charging_Adjusted_Penalty>
0.00871217

> <i_epik_Tot_Q>
1

> <i_epik_Tot_abs_Q>
1

> <r_epik_Metal_State_Penalty>
-0

> <b_epik_Metal_Only>
0

> <s_lp_Force_Field>
OPLS_2005

> <r_lp_Energy>
24.7849

> <b_lp_Chiralities_Consistent>
1

> <s_lp_Variant>
AV-unprocessed.smi:1139-2

> <Gold.Version>
5.8.1

> <Gold.Id.Protein>
6NUR|6NUR_protein|mol2

> <Gold.PLP.Fitness>
41.9752

> <Gold.PLP.PLP>
-30.9098

> <Gold.PLP.part.hbond>
-3.0000

> <Gold.PLP.part.metal>
0.0000

> <Gold.PLP.part.buried>
-1.7340

> <Gold.PLP.part.nonpolar>
-28.5594

> <Gold.PLP.part.repulsive>
0.0791

> <Gold.PLP.ligand.clash>
0.0000

> <Gold.PLP.ligand.torsion>
0.4848

> <Gold.PLP.Chemscore.Hbond>
4.0000

> <Gold.PLP.Chemscore.CHOScore>
0.0000

> <Gold.PLP.Chemscore.Metal>
0.0000

> <Gold.Chemscore.Hbonds>
donor molecule, donor type, donor heavy atom, donor atom, acceptor molecule, acceptor atom, score
      L1  H    11    28       P1  7948  1.00
      L1  H    15    43       P1  7948  2.00
      P1  H  7997  8009       L1     4  0.85

> <Gold.PLP.Chemscore.Internal.Correction>
0.0349

> <Gold.Rescore>
     Score         DG    S(hbond)    S(metal)    S(lipo)     H(rot)  DE(clash)    DE(int)     intcor
     15.22     -19.31       2.61        0.00      81.22       1.72       0.94       3.14       ----

> <Gold.Chemscore.Fitness>
15.2243

> <Gold.Chemscore.DG>
-19.3063

> <Gold.Chemscore.ZeroCoef>
-5.4800

> <Gold.Chemscore.Hbond>
2.6123

> <Gold.Chemscore.Metal>
0.0000

> <Gold.Chemscore.Lipo>
81.2227

> <Gold.Chemscore.Internal_Hbond>
0.0000

> <Gold.Chemscore.DEClash>
0.9375

> <Gold.Chemscore.DEInternal>
3.1445

> <Gold.Chemscore.Rot>
1.7195

> <Gold.Chemscore.Internal.Correction>
   9.000000E+99

> <Gold.Chemscore.Hbonds>
donor molecule, donor type, donor heavy atom, donor atom, acceptor molecule, acceptor atom, score
      L1  H    11    28       P1  7948  0.98
      L1  H    15    43       P1  7948  1.00
      P1  H  7997  8009       L1     4  0.14

> <Gold.Chemscore.Hbond.Weighted>
-8.7250

> <Gold.Chemscore.Metal.Weighted>
-0.0000

> <Gold.Chemscore.Lipo.Weighted>
-9.5031

> <Gold.Chemscore.Internal_Hbond.Weighted>
0.0000

> <Gold.Chemscore.DEClash.Weighted>
0.9375

> <Gold.Chemscore.DEInternal.Weighted>
3.1445

> <Gold.Chemscore.Rot.Weighted>
4.4018

> <Gold.Chemscore.Internal.Correction.Weighted>
   9.000000E+99

> <Gold.Protein.RotatedTorsions>
[ 6907 6896 6895 6894 ] final  179.68 input  -60.11 | X-H torsion
[ 7974 7965 7964 7962 ] final  -46.35 input  175.53 | X-H torsion
[ 8008 7997 7996 7995 ] final -169.28 input   59.86 | X-H torsion
[ 10167 10162 10161 10158 ] final   75.30 input  -65.29 | X-H torsion
[ 10718 10713 10712 10709 ] final -133.96 input   66.30 | X-H torsion
[ 10763 10752 10751 10750 ] final  112.52 input  -60.55 | X-H torsion
[ 11005 11000 10999 10996 ] final   67.59 input  -57.11 | X-H torsion

> <Gold.Protein.ActiveResidues>
 VAL166  LYS551  ARG553  GLY616  TRP617  ASP618  TYR619  PRO620  LYS621  CYS622 
 ASP623  PHE694  ASN695  SER759  ASP760  ASP761  ALA762  ILE779  LEU786  VAL792 
 PHE793  MET794  SER795  GLU796  ALA797  LYS798  CYS799  TRP800  GLU811  SER814 

> <Gold.Protein.RotatedAtoms>
  151.6677  133.3315  159.3188 H   0  0  0  0  0  0  0  0  0  0  0  0  # atno 6907 bound_to 6896
  150.7882  134.6889  159.6495 H   0  0  0  0  0  0  0  0  0  0  0  0  # atno 6908 bound_to 6896
  152.3957  134.6373  160.0142 H   0  0  0  0  0  0  0  0  0  0  0  0  # atno 6909 bound_to 6896
  145.9728  140.7365  142.9402 H   0  0  0  0  0  0  0  0  0  0  0  0  # atno 7974 bound_to 7965
  155.9028  140.1044  157.1337 H   0  0  0  0  0  0  0  0  0  0  0  0  # atno 8008 bound_to 7997
  154.4028  140.1289  156.4522 H   0  0  0  0  0  0  0  0  0  0  0  0  # atno 8009 bound_to 7997
  155.7402  140.3467  155.5103 H   0  0  0  0  0  0  0  0  0  0  0  0  # atno 8010 bound_to 7997
  140.0045  144.5661  150.7710 H   0  0  0  0  0  0  0  0  0  0  0  0  # atno 10167 bound_to 10162
  156.2504  130.7149  151.1046 H   0  0  0  0  0  0  0  0  0  0  0  0  # atno 10718 bound_to 10713
  153.4790  135.3683  155.2432 H   0  0  0  0  0  0  0  0  0  0  0  0  # atno 10763 bound_to 10752
  154.8755  135.3950  154.3722 H   0  0  0  0  0  0  0  0  0  0  0  0  # atno 10764 bound_to 10752
  153.4323  135.7082  153.6288 H   0  0  0  0  0  0  0  0  0  0  0  0  # atno 10765 bound_to 10752
  139.9762  134.6819  156.0350 H   0  0  0  0  0  0  0  0  0  0  0  0  # atno 11005 bound_to 11000
  144.6841  140.2777  143.7297 LP  0  0  0  0  0  0  0  0  0  0  0  0  # atno 17320 bound_to 7965
  145.7882  139.1917  143.2118 LP  0  0  0  0  0  0  0  0  0  0  0  0  # atno 17321 bound_to 7965
  140.7406  143.2806  151.3609 LP  0  0  0  0  0  0  0  0  0  0  0  0  # atno 17342 bound_to 10162
  139.6248  144.0835  152.2424 LP  0  0  0  0  0  0  0  0  0  0  0  0  # atno 17343 bound_to 10162
  157.7212  131.0680  150.6128 LP  0  0  0  0  0  0  0  0  0  0  0  0  # atno 17370 bound_to 10713
  156.6207  130.4405  149.5823 LP  0  0  0  0  0  0  0  0  0  0  0  0  # atno 17371 bound_to 10713
  141.1439  133.6559  156.3809 LP  0  0  0  0  0  0  0  0  0  0  0  0  # atno 17394 bound_to 11000
  140.5190  134.6322  157.5311 LP  0  0  0  0  0  0  0  0  0  0  0  0  # atno 17395 bound_to 11000

$$$$
