AV-unprocessed.smi:540|AV-procd|sdf|2869|dock4
  -GOLD-   2262023363D 1   1.00000     0.00000
 Structure written by MMmdl.
 49 51  0  0  0  0  0  0  0  0  1 V2000
  152.2427  132.3745  157.1953 C   0  0  0  0  0  0  0  0  0  0  0  0
  150.7605  132.1678  157.5144 C   0  0  0  0  0  0  0  0  0  0  0  0
  150.2241  133.3831  158.0088 O   0  0  0  0  0  0  0  0  0  0  0  0
  148.8838  133.2503  158.4492 C   0  0  0  0  0  0  0  0  0  0  0  0
  148.1535  134.5775  158.2131 C   0  0  0  0  0  0  0  0  0  0  0  0
  148.9322  135.7110  158.7047 N   0  0  0  0  0  0  0  0  0  0  0  0
  148.9582  136.2414  159.9593 C   0  0  0  0  0  0  0  0  0  0  0  0
  148.1687  135.7454  160.9993 N   0  0  0  0  0  0  0  0  0  0  0  0
  147.7043  136.4850  162.1729 C   0  0  0  0  0  0  0  0  0  0  0  0
  146.1809  136.3588  162.3544 C   0  0  0  0  0  0  0  0  0  0  0  0
  145.7673  134.8826  162.4853 C   0  0  0  0  0  0  0  0  0  0  0  0
  144.2427  134.7234  162.5672 C   0  0  0  0  0  0  0  0  0  0  0  0
  146.3657  134.0767  161.3185 C   0  0  0  0  0  0  0  0  0  0  0  0
  147.8794  134.3257  161.1900 C   0  0  0  0  0  0  0  0  0  0  0  0
  149.8361  137.2348  160.1237 N   0  0  0  0  0  0  0  0  0  0  0  0
  150.4016  137.3681  158.8655 C   0  0  0  0  0  0  0  0  0  0  0  0
  149.8846  136.4552  158.0038 C   0  0  0  0  0  0  0  0  0  0  0  0
  150.3453  136.3417  156.6120 C   0  0  0  0  0  0  0  0  0  0  0  0
  149.9177  135.5069  155.8181 O   0  0  0  0  0  0  0  0  0  0  0  0
  151.3005  137.2479  156.2916 N   0  0  0  0  0  0  0  0  0  0  0  0
  151.8547  138.1961  157.1065 C   0  0  0  0  0  0  0  0  0  0  0  0
  152.7248  138.9497  156.6703 O   0  0  0  0  0  0  0  0  0  0  0  0
  151.4083  138.2622  158.4014 N   0  0  0  0  0  0  0  0  0  0  0  0
  151.9740  139.2506  159.3217 C   0  0  0  0  0  0  0  0  0  0  0  0
  151.6481  137.2147  155.3444 H   0  0  0  0  0  0  0  0  0  0  0  0
  152.6899  131.4579  156.8102 H   0  0  0  0  0  0  0  0  0  0  0  0
  152.7976  132.6690  158.0864 H   0  0  0  0  0  0  0  0  0  0  0  0
  152.3757  133.1532  156.4439 H   0  0  0  0  0  0  0  0  0  0  0  0
  150.2273  131.8594  156.6137 H   0  0  0  0  0  0  0  0  0  0  0  0
  150.6443  131.3760  158.2562 H   0  0  0  0  0  0  0  0  0  0  0  0
  148.3918  132.4487  157.8966 H   0  0  0  0  0  0  0  0  0  0  0  0
  148.8567  132.9865  159.5076 H   0  0  0  0  0  0  0  0  0  0  0  0
  147.9307  134.7064  157.1562 H   0  0  0  0  0  0  0  0  0  0  0  0
  147.1810  134.5612  158.6947 H   0  0  0  0  0  0  0  0  0  0  0  0
  148.2112  136.0926  163.0556 H   0  0  0  0  0  0  0  0  0  0  0  0
  148.0042  137.5302  162.1088 H   0  0  0  0  0  0  0  0  0  0  0  0
  145.8690  136.9146  163.2390 H   0  0  0  0  0  0  0  0  0  0  0  0
  145.6668  136.8137  161.5072 H   0  0  0  0  0  0  0  0  0  0  0  0
  146.1934  134.4956  163.4121 H   0  0  0  0  0  0  0  0  0  0  0  0
  143.7562  135.0954  161.6649 H   0  0  0  0  0  0  0  0  0  0  0  0
  143.8366  135.2741  163.4161 H   0  0  0  0  0  0  0  0  0  0  0  0
  143.9641  133.6765  162.6895 H   0  0  0  0  0  0  0  0  0  0  0  0
  146.1784  133.0125  161.4644 H   0  0  0  0  0  0  0  0  0  0  0  0
  145.8726  134.3523  160.3853 H   0  0  0  0  0  0  0  0  0  0  0  0
  148.2702  133.7559  160.3463 H   0  0  0  0  0  0  0  0  0  0  0  0
  148.4020  133.9640  162.0765 H   0  0  0  0  0  0  0  0  0  0  0  0
  151.9261  140.2529  158.8930 H   0  0  0  0  0  0  0  0  0  0  0  0
  153.0191  139.0189  159.5302 H   0  0  0  0  0  0  0  0  0  0  0  0
  151.4469  139.2848  160.2751 H   0  0  0  0  0  0  0  0  0  0  0  0
  1  2  1  0  0  0  0
  1 26  1  0  0  0  0
  1 27  1  0  0  0  0
  1 28  1  0  0  0  0
  2  3  1  0  0  0  0
  2 29  1  0  0  0  0
  2 30  1  0  0  0  0
  3  4  1  0  0  0  0
  4  5  1  0  0  0  0
  4 31  1  0  0  0  0
  4 32  1  0  0  0  0
  5  6  1  0  0  0  0
  5 33  1  0  0  0  0
  5 34  1  0  0  0  0
  6 17  1  0  0  0  0
  6  7  1  0  0  0  0
  7  8  1  0  0  0  0
  7 15  2  0  0  0  0
  8 14  1  0  0  0  0
  8  9  1  0  0  0  0
  9 10  1  0  0  0  0
  9 35  1  0  0  0  0
  9 36  1  0  0  0  0
 10 11  1  0  0  0  0
 10 37  1  0  0  0  0
 10 38  1  0  0  0  0
 11 12  1  0  0  0  0
 11 13  1  0  0  0  0
 11 39  1  0  0  0  0
 12 40  1  0  0  0  0
 12 41  1  0  0  0  0
 12 42  1  0  0  0  0
 13 14  1  0  0  0  0
 13 43  1  0  0  0  0
 13 44  1  0  0  0  0
 14 45  1  0  0  0  0
 14 46  1  0  0  0  0
 15 16  1  0  0  0  0
 16 23  1  0  0  0  0
 16 17  2  0  0  0  0
 17 18  1  0  0  0  0
 18 19  2  0  0  0  0
 18 20  1  0  0  0  0
 20 25  1  0  0  0  0
 20 21  1  0  0  0  0
 21 22  2  0  0  0  0
 21 23  1  0  0  0  0
 23 24  1  0  0  0  0
 24 47  1  0  0  0  0
 24 48  1  0  0  0  0
 24 49  1  0  0  0  0
M  END
> <s_m_source_file>
AV-unprocessed.smi

> <i_m_source_file_index>
540

> <i_lp_mmshare_version>
43012

> <i_f3d_flags>
0

> <s_epik_input>
W0NIM11uMWMoPU8pW25IXWMoPU8pYyhjMTIpbihbQ0gyXVtDSDJdT1tDSDJdW0NIM10pYyhuMilOM1tDSDJdW0NIMl1bQ0hdKFtDSDNdKVtDSDJdW0NIMl0z

> <s_epik_cmdline>
J2VwaWtfcHl0aG9uJywgJy1waCcsICc3LjAnLCAnLXRuJywgJzgnLCAnLW1hJywgJzIwMCcsICctbWV0YWxfYmluZGluZycsICctaW1hZScsICc8aW5maWxlLm1hZT4nLCAnLW9tYWUnLCAnPG91dGZpbGUubWFlPic=

> <r_lp_tautomer_probability>
1

> <r_epik_Ionization_Penalty>
0.000763957

> <r_epik_Ionization_Penalty_Charging>
0.000121351

> <r_epik_Ionization_Penalty_Neutral>
0.000642606

> <r_epik_State_Penalty>
-0

> <r_epik_Charging_Adjusted_Penalty>
0.000121351

> <i_epik_Tot_Q>
0

> <i_epik_Tot_abs_Q>
0

> <r_epik_Metal_State_Penalty>
0.0930422

> <b_epik_Metal_Only>
0

> <s_lp_Force_Field>
OPLS_2005

> <r_lp_Energy>
38.5385

> <b_lp_Chiralities_Consistent>
1

> <s_lp_Variant>
AV-unprocessed.smi:540-1

> <Gold.Version>
5.8.1

> <Gold.Id.Protein>
6NUR|6NUR_protein|mol2

> <Gold.PLP.Fitness>
36.7572

> <Gold.PLP.PLP>
-31.9854

> <Gold.PLP.part.hbond>
-3.0000

> <Gold.PLP.part.metal>
0.0000

> <Gold.PLP.part.buried>
-5.1127

> <Gold.PLP.part.nonpolar>
-25.0667

> <Gold.PLP.part.repulsive>
0.1386

> <Gold.PLP.ligand.clash>
0.0000

> <Gold.PLP.ligand.torsion>
1.0634

> <Gold.PLP.Chemscore.Hbond>
2.1414

> <Gold.PLP.Chemscore.CHOScore>
0.0000

> <Gold.PLP.Chemscore.Metal>
0.0000

> <Gold.Chemscore.Hbonds>
donor molecule, donor type, donor heavy atom, donor atom, acceptor molecule, acceptor atom, score
      P1  H  6896  6908       L1     3  0.75
      P1  H  6931  6943       L1    15  0.17
      P1  H  7997  8008       L1    22  1.00

> <Gold.PLP.Chemscore.Internal.Correction>
0.4741

> <Gold.Rescore>
     Score         DG    S(hbond)    S(metal)    S(lipo)     H(rot)  DE(clash)    DE(int)     intcor
     14.00     -15.60       2.06        0.00      62.26       1.58       0.02       1.57       ----

> <Gold.Chemscore.Fitness>
14.0040

> <Gold.Chemscore.DG>
-15.5984

> <Gold.Chemscore.ZeroCoef>
-5.4800

> <Gold.Chemscore.Hbond>
2.0600

> <Gold.Chemscore.Metal>
0.0000

> <Gold.Chemscore.Lipo>
62.2573

> <Gold.Chemscore.Internal_Hbond>
0.0000

> <Gold.Chemscore.DEClash>
0.0202

> <Gold.Chemscore.DEInternal>
1.5741

> <Gold.Chemscore.Rot>
1.5806

> <Gold.Chemscore.Internal.Correction>
   9.000000E+99

> <Gold.Chemscore.Hbonds>
donor molecule, donor type, donor heavy atom, donor atom, acceptor molecule, acceptor atom, score
      P1  H  6896  6908       L1     3  0.12
      P1  H  6931  6943       L1    15  0.07
      P1  H  7997  8008       L1    22  0.97

> <Gold.Chemscore.Hbond.Weighted>
-6.8805

> <Gold.Chemscore.Metal.Weighted>
-0.0000

> <Gold.Chemscore.Lipo.Weighted>
-7.2841

> <Gold.Chemscore.Internal_Hbond.Weighted>
0.0000

> <Gold.Chemscore.DEClash.Weighted>
0.0202

> <Gold.Chemscore.DEInternal.Weighted>
1.5741

> <Gold.Chemscore.Rot.Weighted>
4.0463

> <Gold.Chemscore.Internal.Correction.Weighted>
   9.000000E+99

> <Gold.Protein.RotatedTorsions>
[ 6907 6896 6895 6894 ] final  102.98 input  -60.11 | X-H torsion
[ 7974 7965 7964 7962 ] final  -69.55 input  175.53 | X-H torsion
[ 8008 7997 7996 7995 ] final  -49.15 input   59.86 | X-H torsion
[ 10167 10162 10161 10158 ] final   53.53 input  -65.29 | X-H torsion
[ 10718 10713 10712 10709 ] final   59.10 input   66.30 | X-H torsion
[ 10763 10752 10751 10750 ] final  125.97 input  -60.55 | X-H torsion
[ 11005 11000 10999 10996 ] final  105.32 input  -57.11 | X-H torsion

> <Gold.Protein.ActiveResidues>
 VAL166  LYS551  ARG553  GLY616  TRP617  ASP618  TYR619  PRO620  LYS621  CYS622 
 ASP623  PHE694  ASN695  SER759  ASP760  ASP761  ALA762  ILE779  LEU786  VAL792 
 PHE793  MET794  SER795  GLU796  ALA797  LYS798  CYS799  TRP800  GLU811  SER814 

> <Gold.Protein.RotatedAtoms>
  152.5309  133.9895  159.7843 H   0  0  0  0  0  0  0  0  0  0  0  0  # atno 6907 bound_to 6896
  151.0133  133.5936  159.2687 H   0  0  0  0  0  0  0  0  0  0  0  0  # atno 6908 bound_to 6896
  151.3003  135.0773  159.9289 H   0  0  0  0  0  0  0  0  0  0  0  0  # atno 6909 bound_to 6896
  145.7023  140.9111  143.0724 H   0  0  0  0  0  0  0  0  0  0  0  0  # atno 7974 bound_to 7965
  154.4039  140.1304  156.4456 H   0  0  0  0  0  0  0  0  0  0  0  0  # atno 8008 bound_to 7997
  155.7416  140.3489  155.5087 H   0  0  0  0  0  0  0  0  0  0  0  0  # atno 8009 bound_to 7997
  155.9033  140.1023  157.1324 H   0  0  0  0  0  0  0  0  0  0  0  0  # atno 8010 bound_to 7997
  140.2397  144.3597  150.6384 H   0  0  0  0  0  0  0  0  0  0  0  0  # atno 10167 bound_to 10162
  157.5649  130.8863  149.9171 H   0  0  0  0  0  0  0  0  0  0  0  0  # atno 10718 bound_to 10713
  153.6859  135.3307  155.3190 H   0  0  0  0  0  0  0  0  0  0  0  0  # atno 10763 bound_to 10752
  154.8453  135.4420  154.1558 H   0  0  0  0  0  0  0  0  0  0  0  0  # atno 10764 bound_to 10752
  153.2587  135.6989  153.7679 H   0  0  0  0  0  0  0  0  0  0  0  0  # atno 10765 bound_to 10752
  139.8801  134.9332  156.5496 H   0  0  0  0  0  0  0  0  0  0  0  0  # atno 11005 bound_to 11000
  144.6965  139.8965  143.7456 LP  0  0  0  0  0  0  0  0  0  0  0  0  # atno 17320 bound_to 7965
  146.0786  139.3774  143.0478 LP  0  0  0  0  0  0  0  0  0  0  0  0  # atno 17321 bound_to 7965
  140.6123  143.2170  151.6862 LP  0  0  0  0  0  0  0  0  0  0  0  0  # atno 17342 bound_to 10162
  139.5081  144.3622  152.0551 LP  0  0  0  0  0  0  0  0  0  0  0  0  # atno 17343 bound_to 10162
  156.0698  130.3687  150.0800 LP  0  0  0  0  0  0  0  0  0  0  0  0  # atno 17370 bound_to 10713
  156.8960  130.9604  151.3582 LP  0  0  0  0  0  0  0  0  0  0  0  0  # atno 17371 bound_to 10713
  140.8250  133.8324  155.8930 LP  0  0  0  0  0  0  0  0  0  0  0  0  # atno 17394 bound_to 11000
  140.9383  134.1934  157.4816 LP  0  0  0  0  0  0  0  0  0  0  0  0  # atno 17395 bound_to 11000

$$$$
