AV-unprocessed.smi:1421|AV-procd|sdf|5790|dock8
  -GOLD-   22720 5433D 1   1.00000     0.00000
 Structure written by MMmdl.
 45 46  0  0  0  0  0  0  0  0  1 V2000
  147.7259  132.9878  161.7109 C   0  0  0  0  0  0  0  0  0  0  0  0
  146.5669  134.3140  162.2352 S   0  0  0  0  0  0  0  0  0  0  0  0
  145.2445  133.7116  162.4624 O   0  0  0  0  0  0  0  0  0  0  0  0
  147.2032  135.1167  163.2904 O   0  0  0  0  0  0  0  0  0  0  0  0
  146.4718  135.3011  160.8216 N   0  0  0  0  0  0  0  0  0  0  0  0
  146.9679  136.6771  160.8841 C   0  0  0  0  0  0  0  0  0  0  0  0
  147.4730  137.1465  159.5068 C   0  0  0  0  0  0  0  0  0  0  0  0
  148.9201  136.7286  159.2299 C   0  0  0  0  0  0  0  0  0  0  0  0
  149.2142  135.5385  159.1178 O   0  0  0  0  0  0  0  0  0  0  0  0
  149.8111  137.7250  159.1075 N   0  0  0  0  0  0  0  0  0  0  0  0
  151.2271  137.5698  158.7867 C   0  0  0  0  0  0  0  0  0  0  0  0
  151.5598  138.0456  157.3782 C   0  0  0  0  0  0  0  0  0  0  0  0
  150.9883  137.3843  156.2698 C   0  0  0  0  0  0  0  0  0  0  0  0
  151.3074  137.8174  154.9700 C   0  0  0  0  0  0  0  0  0  0  0  0
  152.1917  138.9019  154.8274 C   0  0  0  0  0  0  0  0  0  0  0  0
  152.7453  139.5460  155.8754 N   0  0  0  0  0  0  0  0  0  0  0  0
  152.4408  139.1315  157.1296 C   0  0  0  0  0  0  0  0  0  0  0  0
  153.0148  139.8381  158.1995 N   0  0  0  0  0  0  0  0  0  0  0  0
  152.1031  140.6734  158.9721 C   0  0  0  0  0  0  0  0  0  0  0  0
  152.8998  141.5159  159.9823 C   0  0  0  0  0  0  0  0  0  0  0  0
  153.6740  140.6543  160.8118 O   0  0  0  0  0  0  0  0  0  0  0  0
  154.6135  139.8884  160.0620 C   0  0  0  0  0  0  0  0  0  0  0  0
  153.8735  139.0113  159.0364 C   0  0  0  0  0  0  0  0  0  0  0  0
  147.8721  132.2886  162.5339 H   0  0  0  0  0  0  0  0  0  0  0  0
  148.6842  133.4270  161.4355 H   0  0  0  0  0  0  0  0  0  0  0  0
  147.3099  132.4568  160.8550 H   0  0  0  0  0  0  0  0  0  0  0  0
  146.8612  134.8138  160.0148 H   0  0  0  0  0  0  0  0  0  0  0  0
  146.1785  137.3305  161.2588 H   0  0  0  0  0  0  0  0  0  0  0  0
  147.7796  136.7104  161.6116 H   0  0  0  0  0  0  0  0  0  0  0  0
  146.8438  136.7298  158.7195 H   0  0  0  0  0  0  0  0  0  0  0  0
  147.3948  138.2307  159.4257 H   0  0  0  0  0  0  0  0  0  0  0  0
  149.4759  138.6707  159.2201 H   0  0  0  0  0  0  0  0  0  0  0  0
  151.7989  138.1463  159.5143 H   0  0  0  0  0  0  0  0  0  0  0  0
  151.5611  136.5373  158.8982 H   0  0  0  0  0  0  0  0  0  0  0  0
  150.3149  136.5515  156.4102 H   0  0  0  0  0  0  0  0  0  0  0  0
  150.8860  137.3290  154.1040 H   0  0  0  0  0  0  0  0  0  0  0  0
  152.4615  139.2627  153.8458 H   0  0  0  0  0  0  0  0  0  0  0  0
  151.5410  141.3235  158.3010 H   0  0  0  0  0  0  0  0  0  0  0  0
  151.3824  140.0482  159.5014 H   0  0  0  0  0  0  0  0  0  0  0  0
  153.5492  142.2282  159.4702 H   0  0  0  0  0  0  0  0  0  0  0  0
  152.2205  142.0954  160.6075 H   0  0  0  0  0  0  0  0  0  0  0  0
  155.3237  140.5522  159.5673 H   0  0  0  0  0  0  0  0  0  0  0  0
  155.1880  139.2630  160.7452 H   0  0  0  0  0  0  0  0  0  0  0  0
  153.2659  138.2661  159.5515 H   0  0  0  0  0  0  0  0  0  0  0  0
  154.5920  138.4707  158.4193 H   0  0  0  0  0  0  0  0  0  0  0  0
  1  2  1  0  0  0  0
  1 24  1  0  0  0  0
  1 25  1  0  0  0  0
  1 26  1  0  0  0  0
  2  3  2  0  0  0  0
  2  4  2  0  0  0  0
  2  5  1  0  0  0  0
  5  6  1  0  0  0  0
  5 27  1  0  0  0  0
  6  7  1  0  0  0  0
  6 28  1  0  0  0  0
  6 29  1  0  0  0  0
  7  8  1  0  0  0  0
  7 30  1  0  0  0  0
  7 31  1  0  0  0  0
  8  9  2  0  0  0  0
  8 10  1  0  0  0  0
 10 11  1  0  0  0  0
 10 32  1  0  0  0  0
 11 12  1  0  0  0  0
 11 33  1  0  0  0  0
 11 34  1  0  0  0  0
 12 17  1  0  0  0  0
 12 13  2  0  0  0  0
 13 14  1  0  0  0  0
 13 35  1  0  0  0  0
 14 15  2  0  0  0  0
 14 36  1  0  0  0  0
 15 16  1  0  0  0  0
 15 37  1  0  0  0  0
 16 17  2  0  0  0  0
 17 18  1  0  0  0  0
 18 23  1  0  0  0  0
 18 19  1  0  0  0  0
 19 20  1  0  0  0  0
 19 38  1  0  0  0  0
 19 39  1  0  0  0  0
 20 21  1  0  0  0  0
 20 40  1  0  0  0  0
 20 41  1  0  0  0  0
 21 22  1  0  0  0  0
 22 23  1  0  0  0  0
 22 42  1  0  0  0  0
 22 43  1  0  0  0  0
 23 44  1  0  0  0  0
 23 45  1  0  0  0  0
M  END
> <s_m_source_file>
AV-unprocessed.smi

> <i_m_source_file_index>
1421

> <i_lp_mmshare_version>
43012

> <i_f3d_flags>
0

> <s_epik_input>
W0NIM11TKD1PKSg9TylbTkhdW0NIMl1bQ0gyXUMoPU8pW05IXVtDSDJdYzFbY0hdW2NIXVtjSF1uYzFOMltDSDJdW0NIMl1PW0NIMl1bQ0gyXTI=

> <s_epik_cmdline>
J2VwaWtfcHl0aG9uJywgJy1waCcsICc3LjAnLCAnLXRuJywgJzgnLCAnLW1hJywgJzIwMCcsICctbWV0YWxfYmluZGluZycsICctaW1hZScsICc8aW5maWxlLm1hZT4nLCAnLW9tYWUnLCAnPG91dGZpbGUubWFlPic=

> <r_lp_tautomer_probability>
1

> <r_epik_Ionization_Penalty>
0.00479902

> <r_epik_Ionization_Penalty_Charging>
0

> <r_epik_Ionization_Penalty_Neutral>
0.00479902

> <r_epik_State_Penalty>
0.00346804

> <r_epik_Charging_Adjusted_Penalty>
0.00346804

> <i_epik_Tot_Q>
0

> <i_epik_Tot_abs_Q>
0

> <r_epik_Metal_State_Penalty>
0.0135183

> <b_epik_Metal_Only>
0

> <s_lp_Force_Field>
OPLS_2005

> <r_lp_Energy>
16.2215

> <b_lp_Chiralities_Consistent>
1

> <s_lp_Variant>
AV-unprocessed.smi:1421-1

> <Gold.Version>
5.8.1

> <Gold.Id.Protein>
6NUR|6NUR_protein|mol2

> <Gold.PLP.Fitness>
40.8594

> <Gold.PLP.PLP>
-35.7352

> <Gold.PLP.part.hbond>
-4.1215

> <Gold.PLP.part.metal>
0.0000

> <Gold.PLP.part.buried>
-6.7330

> <Gold.PLP.part.nonpolar>
-25.8818

> <Gold.PLP.part.repulsive>
0.3131

> <Gold.PLP.ligand.clash>
0.0000

> <Gold.PLP.ligand.torsion>
0.5738

> <Gold.PLP.Chemscore.Hbond>
2.0000

> <Gold.PLP.Chemscore.CHOScore>
0.0000

> <Gold.PLP.Chemscore.Metal>
0.0000

> <Gold.Chemscore.Hbonds>
donor molecule, donor type, donor heavy atom, donor atom, acceptor molecule, acceptor atom, score
      P1  H  6896  6909       L1     9  1.00
      P1  H  7997  8010       L1    16  1.00

> <Gold.PLP.Chemscore.Internal.Correction>
0.2718

> <Gold.Rescore>
     Score         DG    S(hbond)    S(metal)    S(lipo)     H(rot)  DE(clash)    DE(int)     intcor
     12.12     -12.68       1.91        0.00      70.57       2.90       0.02       0.55       ----

> <Gold.Chemscore.Fitness>
12.1224

> <Gold.Chemscore.DG>
-12.6850

> <Gold.Chemscore.ZeroCoef>
-5.4800

> <Gold.Chemscore.Hbond>
1.9089

> <Gold.Chemscore.Metal>
0.0000

> <Gold.Chemscore.Lipo>
70.5731

> <Gold.Chemscore.Internal_Hbond>
0.0000

> <Gold.Chemscore.DEClash>
0.0164

> <Gold.Chemscore.DEInternal>
0.5462

> <Gold.Chemscore.Rot>
2.9015

> <Gold.Chemscore.Internal.Correction>
   9.000000E+99

> <Gold.Chemscore.Hbonds>
donor molecule, donor type, donor heavy atom, donor atom, acceptor molecule, acceptor atom, score
      P1  H  6896  6909       L1     9  1.00
      P1  H  7997  8010       L1    16  0.26

> <Gold.Chemscore.Hbond.Weighted>
-6.3758

> <Gold.Chemscore.Metal.Weighted>
-0.0000

> <Gold.Chemscore.Lipo.Weighted>
-8.2571

> <Gold.Chemscore.Internal_Hbond.Weighted>
0.0000

> <Gold.Chemscore.DEClash.Weighted>
0.0164

> <Gold.Chemscore.DEInternal.Weighted>
0.5462

> <Gold.Chemscore.Rot.Weighted>
7.4278

> <Gold.Chemscore.Internal.Correction.Weighted>
   9.000000E+99

> <Gold.Protein.RotatedTorsions>
[ 6907 6896 6895 6894 ] final   46.54 input  -60.11 | X-H torsion
[ 7974 7965 7964 7962 ] final  128.67 input  175.53 | X-H torsion
[ 8008 7997 7996 7995 ] final   89.67 input   59.86 | X-H torsion
[ 10167 10162 10161 10158 ] final  -60.33 input  -65.29 | X-H torsion
[ 10718 10713 10712 10709 ] final  -69.15 input   66.30 | X-H torsion
[ 10763 10752 10751 10750 ] final   -7.37 input  -60.55 | X-H torsion
[ 11005 11000 10999 10996 ] final  -96.34 input  -57.11 | X-H torsion

> <Gold.Protein.ActiveResidues>
 VAL166  LYS551  ARG553  GLY616  TRP617  ASP618  TYR619  PRO620  LYS621  CYS622 
 ASP623  PHE694  ASN695  SER759  ASP760  ASP761  ALA762  ILE779  LEU786  VAL792 
 PHE793  MET794  SER795  GLU796  ALA797  LYS798  CYS799  TRP800  GLU811  SER814 

> <Gold.Protein.RotatedAtoms>
  152.2576  134.8068  160.0435 H   0  0  0  0  0  0  0  0  0  0  0  0  # atno 6907 bound_to 6896
  151.8726  133.3473  159.3748 H   0  0  0  0  0  0  0  0  0  0  0  0  # atno 6908 bound_to 6896
  150.7105  134.5025  159.5612 H   0  0  0  0  0  0  0  0  0  0  0  0  # atno 6909 bound_to 6896
  145.0370  139.3996  143.5121 H   0  0  0  0  0  0  0  0  0  0  0  0  # atno 7974 bound_to 7965
  156.0027  140.3358  155.6862 H   0  0  0  0  0  0  0  0  0  0  0  0  # atno 8008 bound_to 7997
  155.6267  140.0681  157.2679 H   0  0  0  0  0  0  0  0  0  0  0  0  # atno 8009 bound_to 7997
  154.4255  140.1767  156.1417 H   0  0  0  0  0  0  0  0  0  0  0  0  # atno 8010 bound_to 7997
  140.6078  143.2378  151.5780 H   0  0  0  0  0  0  0  0  0  0  0  0  # atno 10167 bound_to 10162
  156.0469  130.4307  150.2106 H   0  0  0  0  0  0  0  0  0  0  0  0  # atno 10718 bound_to 10713
  153.4253  135.7011  153.6266 H   0  0  0  0  0  0  0  0  0  0  0  0  # atno 10763 bound_to 10752
  153.4703  135.3716  155.2388 H   0  0  0  0  0  0  0  0  0  0  0  0  # atno 10764 bound_to 10752
  154.8723  135.4041  154.3629 H   0  0  0  0  0  0  0  0  0  0  0  0  # atno 10765 bound_to 10752
  141.1414  133.8090  157.0557 H   0  0  0  0  0  0  0  0  0  0  0  0  # atno 11005 bound_to 11000
  146.3505  139.9951  142.8682 LP  0  0  0  0  0  0  0  0  0  0  0  0  # atno 17320 bound_to 7965
  145.1696  140.9714  143.4329 LP  0  0  0  0  0  0  0  0  0  0  0  0  # atno 17321 bound_to 7965
  139.5338  144.2840  152.1206 LP  0  0  0  0  0  0  0  0  0  0  0  0  # atno 17342 bound_to 10162
  140.2033  144.4636  150.6421 LP  0  0  0  0  0  0  0  0  0  0  0  0  # atno 17343 bound_to 10162
  157.0194  130.9975  151.3344 LP  0  0  0  0  0  0  0  0  0  0  0  0  # atno 17370 bound_to 10713
  157.5355  130.8086  149.7966 LP  0  0  0  0  0  0  0  0  0  0  0  0  # atno 17371 bound_to 10713
  140.0603  134.9758  157.1293 LP  0  0  0  0  0  0  0  0  0  0  0  0  # atno 17394 bound_to 11000
  140.3858  134.2238  155.7168 LP  0  0  0  0  0  0  0  0  0  0  0  0  # atno 17395 bound_to 11000

$$$$
