AV-unprocessed.smi:3193|AV-procd|sdf|12203|dock3
  -GOLD-   2272018 33D 1   1.00000     0.00000
 Structure written by MMmdl.
 40 41  0  0  0  0  0  0  0  0  2 V2000
  151.7251  141.0237  159.5067 C   0  0  0  0  0  0  0  0  0  0  0  0
  152.6837  142.1720  159.1298 C   0  0  2  0  0  0  0  0  0  0  0  0
  153.4184  142.7282  160.3684 C   0  0  0  0  0  0  0  0  0  0  0  0
  152.4965  143.5682  161.2686 C   0  0  0  0  0  0  0  0  0  0  0  0
  151.8282  144.7005  160.4757 C   0  0  0  0  0  0  0  0  0  0  0  0
  151.0829  144.1619  159.2440 C   0  0  0  0  0  0  0  0  0  0  0  0
  152.0142  143.3263  158.3364 C   0  0  2  0  0  0  0  0  0  0  0  0
  151.3014  142.8354  157.0600 C   0  0  0  0  0  0  0  0  0  0  0  0
  149.8463  142.6963  157.2684 N   0  3  0  0  0  0  0  0  0  0  0  0
  149.2385  141.5693  156.5321 C   0  0  0  0  0  0  0  0  0  0  0  0
  149.4946  141.6747  155.0206 C   0  0  0  0  0  0  0  0  0  0  0  0
  148.6159  140.8115  154.2538 N   0  0  0  0  0  0  0  0  0  0  0  0
  147.5218  141.1951  153.4891 C   0  0  0  0  0  0  0  0  0  0  0  0
  146.9945  140.0427  152.9516 C   0  0  0  0  0  0  0  0  0  0  0  0
  147.7466  138.9460  153.3660 N   0  0  0  0  0  0  0  0  0  0  0  0
  148.6920  139.4794  154.1281 C   0  0  0  0  0  0  0  0  0  0  0  0
  150.8900  141.3670  160.1167 H   0  0  0  0  0  0  0  0  0  0  0  0
  152.2475  140.2526  160.0735 H   0  0  0  0  0  0  0  0  0  0  0  0
  151.3126  140.5387  158.6222 H   0  0  0  0  0  0  0  0  0  0  0  0
  153.4455  141.7320  158.4847 H   0  0  0  0  0  0  0  0  0  0  0  0
  153.8595  141.9141  160.9449 H   0  0  0  0  0  0  0  0  0  0  0  0
  154.2534  143.3490  160.0409 H   0  0  0  0  0  0  0  0  0  0  0  0
  151.7327  142.9327  161.7174 H   0  0  0  0  0  0  0  0  0  0  0  0
  153.0695  143.9856  162.0972 H   0  0  0  0  0  0  0  0  0  0  0  0
  151.1380  145.2474  161.1188 H   0  0  0  0  0  0  0  0  0  0  0  0
  152.5857  145.4175  160.1574 H   0  0  0  0  0  0  0  0  0  0  0  0
  150.2304  143.5627  159.5646 H   0  0  0  0  0  0  0  0  0  0  0  0
  150.6693  145.0034  158.6875 H   0  0  0  0  0  0  0  0  0  0  0  0
  152.8234  143.9840  158.0134 H   0  0  0  0  0  0  0  0  0  0  0  0
  151.4650  143.5458  156.2485 H   0  0  0  0  0  0  0  0  0  0  0  0
  151.7107  141.8776  156.7362 H   0  0  0  0  0  0  0  0  0  0  0  0
  149.6743  142.5681  158.2553 H   0  0  0  0  0  0  0  0  0  0  0  0
  149.6334  140.6278  156.9162 H   0  0  0  0  0  0  0  0  0  0  0  0
  148.1639  141.5636  156.7188 H   0  0  0  0  0  0  0  0  0  0  0  0
  149.3366  142.7012  154.6875 H   0  0  0  0  0  0  0  0  0  0  0  0
  150.5309  141.4254  154.7881 H   0  0  0  0  0  0  0  0  0  0  0  0
  147.2153  142.2266  153.3935 H   0  0  0  0  0  0  0  0  0  0  0  0
  146.1401  139.9191  152.3023 H   0  0  0  0  0  0  0  0  0  0  0  0
  149.4539  138.8851  154.6114 H   0  0  0  0  0  0  0  0  0  0  0  0
  149.3978  143.5512  156.9707 H   0  0  0  0  0  0  0  0  0  0  0  0
  1  2  1  0  0  0  0
  1 17  1  0  0  0  0
  1 18  1  0  0  0  0
  1 19  1  0  0  0  0
  2  7  1  0  0  0  0
  2  3  1  0  0  0  0
  2 20  1  0  0  0  0
  3  4  1  0  0  0  0
  3 21  1  0  0  0  0
  3 22  1  0  0  0  0
  4  5  1  0  0  0  0
  4 23  1  0  0  0  0
  4 24  1  0  0  0  0
  5  6  1  0  0  0  0
  5 25  1  0  0  0  0
  5 26  1  0  0  0  0
  6  7  1  0  0  0  0
  6 27  1  0  0  0  0
  6 28  1  0  0  0  0
  7  8  1  0  0  0  0
  7 29  1  0  0  0  0
  8  9  1  0  0  0  0
  8 30  1  0  0  0  0
  8 31  1  0  0  0  0
  9 10  1  0  0  0  0
  9 32  1  0  0  0  0
  9 40  1  0  0  0  0
 10 11  1  0  0  0  0
 10 33  1  0  0  0  0
 10 34  1  0  0  0  0
 11 12  1  0  0  0  0
 11 35  1  0  0  0  0
 11 36  1  0  0  0  0
 12 16  1  0  0  0  0
 12 13  1  0  0  0  0
 13 14  2  0  0  0  0
 13 37  1  0  0  0  0
 14 15  1  0  0  0  0
 14 38  1  0  0  0  0
 15 16  2  0  0  0  0
 16 39  1  0  0  0  0
M  CHG  1   9   1
M  END
> <s_m_source_file>
AV-unprocessed.smi

> <i_m_source_file_index>
3193

> <i_lp_mmshare_version>
43012

> <i_f3d_flags>
0

> <s_epik_input>
W0NIM11bQ0BASF0xW0NIMl1bQ0gyXVtDSDJdW0NIMl1bQ0BIXTFbQ0gyXVtOSF1bQ0gyXVtDSDJdbjJbY0hdW2NIXW5bY0hdMg==

> <s_epik_cmdline>
J2VwaWtfcHl0aG9uJywgJy1waCcsICc3LjAnLCAnLXRuJywgJzgnLCAnLW1hJywgJzIwMCcsICctbWV0YWxfYmluZGluZycsICctaW1hZScsICc8aW5maWxlLm1hZT4nLCAnLW9tYWUnLCAnPG91dGZpbGUubWFlPic=

> <r_lp_tautomer_probability>
1

> <r_epik_Ionization_Penalty>
0.0503046

> <r_epik_Ionization_Penalty_Charging>
0.0503046

> <r_epik_Ionization_Penalty_Neutral>
0

> <r_epik_State_Penalty>
0.0981804

> <r_epik_Charging_Adjusted_Penalty>
0.148485

> <i_epik_Tot_Q>
1

> <i_epik_Tot_abs_Q>
1

> <r_epik_Metal_State_Penalty>
0.000105854

> <b_epik_Metal_Only>
0

> <s_lp_Force_Field>
OPLS_2005

> <r_lp_Energy>
20.9297

> <b_lp_Chiralities_Consistent>
1

> <s_lp_Variant>
AV-unprocessed.smi:3193-3

> <Gold.Version>
5.8.1

> <Gold.Id.Protein>
6NUR|6NUR_protein|mol2

> <Gold.PLP.Fitness>
45.8265

> <Gold.PLP.PLP>
-38.7109

> <Gold.PLP.part.hbond>
-1.0000

> <Gold.PLP.part.metal>
0.0000

> <Gold.PLP.part.buried>
-3.0077

> <Gold.PLP.part.nonpolar>
-35.2321

> <Gold.PLP.part.repulsive>
0.6320

> <Gold.PLP.ligand.clash>
0.0000

> <Gold.PLP.ligand.torsion>
0.9684

> <Gold.PLP.Chemscore.Hbond>
2.0000

> <Gold.PLP.Chemscore.CHOScore>
1.0000

> <Gold.PLP.Chemscore.Metal>
0.0000

> <Gold.Chemscore.Hbonds>
donor molecule, donor type, donor heavy atom, donor atom, acceptor molecule, acceptor atom, score
      L1  H     9    40       P1  8028  2.00
      L1  C    14    38       P1 10175  1.00

> <Gold.PLP.Chemscore.Internal.Correction>
0.0523

> <Gold.Rescore>
     Score         DG    S(hbond)    S(metal)    S(lipo)     H(rot)  DE(clash)    DE(int)     intcor
     16.39     -17.20       0.95        0.00     114.47       1.89       0.18       0.62       ----

> <Gold.Chemscore.Fitness>
16.3922

> <Gold.Chemscore.DG>
-17.1981

> <Gold.Chemscore.ZeroCoef>
-5.4800

> <Gold.Chemscore.Hbond>
0.9467

> <Gold.Chemscore.Metal>
0.0000

> <Gold.Chemscore.Lipo>
114.4715

> <Gold.Chemscore.Internal_Hbond>
0.0000

> <Gold.Chemscore.DEClash>
0.1828

> <Gold.Chemscore.DEInternal>
0.6231

> <Gold.Chemscore.Rot>
1.8895

> <Gold.Chemscore.Internal.Correction>
   9.000000E+99

> <Gold.Chemscore.Hbonds>
donor molecule, donor type, donor heavy atom, donor atom, acceptor molecule, acceptor atom, score
      L1  H     9    40       P1  8028  0.87

> <Gold.Chemscore.Hbond.Weighted>
-3.1620

> <Gold.Chemscore.Metal.Weighted>
-0.0000

> <Gold.Chemscore.Lipo.Weighted>
-13.3932

> <Gold.Chemscore.Internal_Hbond.Weighted>
0.0000

> <Gold.Chemscore.DEClash.Weighted>
0.1828

> <Gold.Chemscore.DEInternal.Weighted>
0.6231

> <Gold.Chemscore.Rot.Weighted>
4.8371

> <Gold.Chemscore.Internal.Correction.Weighted>
   9.000000E+99

> <Gold.Protein.RotatedTorsions>
[ 6907 6896 6895 6894 ] final   49.83 input  -60.11 | X-H torsion
[ 7974 7965 7964 7962 ] final   80.54 input  175.53 | X-H torsion
[ 8008 7997 7996 7995 ] final  -59.11 input   59.86 | X-H torsion
[ 10167 10162 10161 10158 ] final  148.80 input  -65.29 | X-H torsion
[ 10718 10713 10712 10709 ] final   16.35 input   66.30 | X-H torsion
[ 10763 10752 10751 10750 ] final  -43.06 input  -60.55 | X-H torsion
[ 11005 11000 10999 10996 ] final    5.21 input  -57.11 | X-H torsion

> <Gold.Protein.ActiveResidues>
 VAL166  LYS551  ARG553  GLY616  TRP617  ASP618  TYR619  PRO620  LYS621  CYS622 
 ASP623  PHE694  ASN695  SER759  ASP760  ASP761  ALA762  ILE779  LEU786  VAL792 
 PHE793  MET794  SER795  GLU796  ALA797  LYS798  CYS799  TRP800  GLU811  SER814 

> <Gold.Protein.RotatedAtoms>
  152.2951  134.7676  160.0369 H   0  0  0  0  0  0  0  0  0  0  0  0  # atno 6907 bound_to 6896
  151.8208  133.3389  159.3592 H   0  0  0  0  0  0  0  0  0  0  0  0  # atno 6908 bound_to 6896
  150.7248  134.5504  159.5836 H   0  0  0  0  0  0  0  0  0  0  0  0  # atno 6909 bound_to 6896
  145.6499  139.2445  143.1983 H   0  0  0  0  0  0  0  0  0  0  0  0  # atno 7974 bound_to 7965
  154.4338  140.1069  156.6064 H   0  0  0  0  0  0  0  0  0  0  0  0  # atno 8008 bound_to 7997
  155.5856  140.3491  155.4533 H   0  0  0  0  0  0  0  0  0  0  0  0  # atno 8009 bound_to 7997
  156.0285  140.1255  157.0272 H   0  0  0  0  0  0  0  0  0  0  0  0  # atno 8010 bound_to 7997
  139.4870  144.5651  151.7159 H   0  0  0  0  0  0  0  0  0  0  0  0  # atno 10167 bound_to 10162
  157.0666  130.6331  149.5797 H   0  0  0  0  0  0  0  0  0  0  0  0  # atno 10718 bound_to 10713
  153.9893  135.6707  153.4753 H   0  0  0  0  0  0  0  0  0  0  0  0  # atno 10763 bound_to 10752
  153.0712  135.4973  154.8306 H   0  0  0  0  0  0  0  0  0  0  0  0  # atno 10764 bound_to 10752
  154.7119  135.3099  154.9146 H   0  0  0  0  0  0  0  0  0  0  0  0  # atno 10765 bound_to 10752
  140.5732  134.0082  155.8017 H   0  0  0  0  0  0  0  0  0  0  0  0  # atno 11005 bound_to 11000
  146.1212  140.7306  142.9456 LP  0  0  0  0  0  0  0  0  0  0  0  0  # atno 17320 bound_to 7965
  144.7126  140.4096  143.7068 LP  0  0  0  0  0  0  0  0  0  0  0  0  # atno 17321 bound_to 7965
  140.5228  144.0852  150.6028 LP  0  0  0  0  0  0  0  0  0  0  0  0  # atno 17342 bound_to 10162
  140.3816  143.2800  152.0164 LP  0  0  0  0  0  0  0  0  0  0  0  0  # atno 17343 bound_to 10162
  155.9962  130.5031  150.7490 LP  0  0  0  0  0  0  0  0  0  0  0  0  # atno 17370 bound_to 10713
  157.4912  131.0911  151.0425 LP  0  0  0  0  0  0  0  0  0  0  0  0  # atno 17371 bound_to 10713
  141.1043  133.9719  157.3024 LP  0  0  0  0  0  0  0  0  0  0  0  0  # atno 17394 bound_to 11000
  139.9352  135.0197  156.8531 LP  0  0  0  0  0  0  0  0  0  0  0  0  # atno 17395 bound_to 11000

$$$$
