AV-unprocessed.smi:2120|AV-procd|sdf|8638|dock3
  -GOLD-   2272011383D 1   1.00000     0.00000
 Structure written by MMmdl.
 45 48  0  0  0  0  0  0  0  0  1 V2000
  151.3151  140.8380  155.6355 O   0  0  0  0  0  0  0  0  0  0  0  0
  150.6752  141.8157  156.0257 C   0  0  0  0  0  0  0  0  0  0  0  0
  149.5457  142.2182  155.4191 N   0  0  0  0  0  0  0  0  0  0  0  0
  148.9446  141.5817  154.2531 C   0  0  0  0  0  0  0  0  0  0  0  0
  147.4683  141.2253  154.4960 C   0  0  0  0  0  0  0  0  0  0  0  0
  147.0318  140.0149  153.6942 C   0  0  0  0  0  0  0  0  0  0  0  0
  147.1727  139.9922  152.2912 C   0  0  0  0  0  0  0  0  0  0  0  0
  146.7522  138.8488  151.5853 C   0  0  0  0  0  0  0  0  0  0  0  0
  146.2094  137.7725  152.3151 C   0  0  0  0  0  0  0  0  0  0  0  0
  146.0705  137.7825  153.6585 N   0  0  0  0  0  0  0  0  0  0  0  0
  146.4747  138.8836  154.3278 C   0  0  0  0  0  0  0  0  0  0  0  0
  151.1717  142.6120  157.2557 C   0  0  0  0  0  0  0  0  0  0  0  0
  149.9672  142.9092  158.1903 C   0  0  0  0  0  0  0  0  0  0  0  0
  150.4407  143.6578  159.4552 C   0  0  1  0  0  0  0  0  0  0  0  0
  151.4587  142.7864  160.2201 C   0  0  0  0  0  0  0  0  0  0  0  0
  152.6713  142.5035  159.3086 C   0  0  2  0  0  0  0  0  0  0  0  0
  153.3382  143.8346  158.9054 C   0  0  0  0  0  0  0  0  0  0  0  0
  152.3163  144.7049  158.1449 C   0  0  2  0  0  0  0  0  0  0  0  0
  151.1018  144.9926  159.0519 C   0  0  0  0  0  0  0  0  0  0  0  0
  151.8474  143.9634  156.8750 C   0  0  0  0  0  0  0  0  0  0  0  0
  152.2017  141.7544  158.0430 C   0  0  0  0  0  0  0  0  0  0  0  0
  149.0720  143.0282  155.7920 H   0  0  0  0  0  0  0  0  0  0  0  0
  149.0254  142.2716  153.4128 H   0  0  0  0  0  0  0  0  0  0  0  0
  149.5169  140.6930  153.9819 H   0  0  0  0  0  0  0  0  0  0  0  0
  147.2957  141.0157  155.5525 H   0  0  0  0  0  0  0  0  0  0  0  0
  146.8331  142.0755  154.2435 H   0  0  0  0  0  0  0  0  0  0  0  0
  147.5931  140.8367  151.7647 H   0  0  0  0  0  0  0  0  0  0  0  0
  146.8434  138.7974  150.5103 H   0  0  0  0  0  0  0  0  0  0  0  0
  145.8776  136.8800  151.8054 H   0  0  0  0  0  0  0  0  0  0  0  0
  146.3487  138.8591  155.4003 H   0  0  0  0  0  0  0  0  0  0  0  0
  149.2199  143.5078  157.6669 H   0  0  0  0  0  0  0  0  0  0  0  0
  149.4663  141.9844  158.4815 H   0  0  0  0  0  0  0  0  0  0  0  0
  149.5833  143.8593  160.0979 H   0  0  0  0  0  0  0  0  0  0  0  0
  151.7803  143.2921  161.1315 H   0  0  0  0  0  0  0  0  0  0  0  0
  150.9951  141.8504  160.5338 H   0  0  0  0  0  0  0  0  0  0  0  0
  153.3915  141.8868  159.8467 H   0  0  0  0  0  0  0  0  0  0  0  0
  153.6977  144.3605  159.7908 H   0  0  0  0  0  0  0  0  0  0  0  0
  154.2130  143.6456  158.2821 H   0  0  0  0  0  0  0  0  0  0  0  0
  152.7862  145.6471  157.8607 H   0  0  0  0  0  0  0  0  0  0  0  0
  150.3841  145.6291  158.5328 H   0  0  0  0  0  0  0  0  0  0  0  0
  151.4157  145.5421  159.9403 H   0  0  0  0  0  0  0  0  0  0  0  0
  152.7018  143.7937  156.2175 H   0  0  0  0  0  0  0  0  0  0  0  0
  151.1538  144.6013  156.3244 H   0  0  0  0  0  0  0  0  0  0  0  0
  151.7688  140.7955  158.3329 H   0  0  0  0  0  0  0  0  0  0  0  0
  153.0611  141.5214  157.4122 H   0  0  0  0  0  0  0  0  0  0  0  0
  1  2  2  0  0  0  0
  2  3  1  0  0  0  0
  2 12  1  0  0  0  0
  3  4  1  0  0  0  0
  3 22  1  0  0  0  0
  4  5  1  0  0  0  0
  4 23  1  0  0  0  0
  4 24  1  0  0  0  0
  5  6  1  0  0  0  0
  5 25  1  0  0  0  0
  5 26  1  0  0  0  0
  6 11  1  0  0  0  0
  6  7  2  0  0  0  0
  7  8  1  0  0  0  0
  7 27  1  0  0  0  0
  8  9  2  0  0  0  0
  8 28  1  0  0  0  0
  9 10  1  0  0  0  0
  9 29  1  0  0  0  0
 10 11  2  0  0  0  0
 11 30  1  0  0  0  0
 12 20  1  0  0  0  0
 12 21  1  0  0  0  0
 12 13  1  0  0  0  0
 13 14  1  0  0  0  0
 13 31  1  0  0  0  0
 13 32  1  0  0  0  0
 14 19  1  0  0  0  0
 14 15  1  0  0  0  0
 14 33  1  0  0  0  0
 15 16  1  0  0  0  0
 15 34  1  0  0  0  0
 15 35  1  0  0  0  0
 16 17  1  0  0  0  0
 16 21  1  0  0  0  0
 16 36  1  0  0  0  0
 17 18  1  0  0  0  0
 17 37  1  0  0  0  0
 17 38  1  0  0  0  0
 18 19  1  0  0  0  0
 18 20  1  0  0  0  0
 18 39  1  0  0  0  0
 19 40  1  0  0  0  0
 19 41  1  0  0  0  0
 20 42  1  0  0  0  0
 20 43  1  0  0  0  0
 21 44  1  0  0  0  0
 21 45  1  0  0  0  0
M  END
> <s_m_source_file>
AV-unprocessed.smi

> <i_m_source_file_index>
2120

> <i_lp_mmshare_version>
43012

> <i_f3d_flags>
0

> <s_epik_input>
W0NIMl0xW0NASF0oW0NIMl0yKVtDSDJdW0NASF0oW0NIMl0zKVtDSDJdW0NAQEhdMVtDSDJdQzIzQyg9TylbTkhdW0NIMl1bQ0gyXWM0W2NIXVtjSF1bY0hdbltjSF00

> <s_epik_cmdline>
J2VwaWtfcHl0aG9uJywgJy1waCcsICc3LjAnLCAnLXRuJywgJzgnLCAnLW1hJywgJzIwMCcsICctbWV0YWxfYmluZGluZycsICctaW1hZScsICc8aW5maWxlLm1hZT4nLCAnLW9tYWUnLCAnPG91dGZpbGUubWFlPic=

> <r_epik_Ionization_Penalty>
0.0137322

> <r_epik_Ionization_Penalty_Charging>
0

> <r_epik_Ionization_Penalty_Neutral>
0.0137322

> <r_epik_State_Penalty>
0.0107033

> <r_epik_Charging_Adjusted_Penalty>
0.0107033

> <i_epik_Tot_Q>
0

> <i_epik_Tot_abs_Q>
0

> <r_epik_Metal_State_Penalty>
0.0104605

> <b_epik_Metal_Only>
0

> <s_lp_Force_Field>
OPLS_2005

> <r_lp_Energy>
34.8386

> <b_lp_Chiralities_Consistent>
1

> <s_lp_Variant>
AV-unprocessed.smi:2120-1

> <Gold.Version>
5.8.1

> <Gold.Id.Protein>
6NUR|6NUR_protein|mol2

> <Gold.PLP.Fitness>
44.1816

> <Gold.PLP.PLP>
-41.6391

> <Gold.PLP.part.hbond>
-2.0000

> <Gold.PLP.part.metal>
0.0000

> <Gold.PLP.part.buried>
1.0383

> <Gold.PLP.part.nonpolar>
-40.8255

> <Gold.PLP.part.repulsive>
0.3682

> <Gold.PLP.ligand.clash>
0.0000

> <Gold.PLP.ligand.torsion>
0.8425

> <Gold.PLP.Chemscore.Hbond>
1.4066

> <Gold.PLP.Chemscore.CHOScore>
0.0000

> <Gold.PLP.Chemscore.Metal>
0.0000

> <Gold.Chemscore.Hbonds>
donor molecule, donor type, donor heavy atom, donor atom, acceptor molecule, acceptor atom, score
      L1  H     3    22       P1  8028  0.90
      P1  H  7989  7998       L1     1  0.50

> <Gold.PLP.Chemscore.Internal.Correction>
0.0076

> <Gold.Rescore>
     Score         DG    S(hbond)    S(metal)    S(lipo)     H(rot)  DE(clash)    DE(int)     intcor
     20.64     -25.60       1.41        0.00     160.88       1.32       3.74       1.23       ----

> <Gold.Chemscore.Fitness>
20.6383

> <Gold.Chemscore.DG>
-25.6043

> <Gold.Chemscore.ZeroCoef>
-5.4800

> <Gold.Chemscore.Hbond>
1.4053

> <Gold.Chemscore.Metal>
0.0000

> <Gold.Chemscore.Lipo>
160.8765

> <Gold.Chemscore.Internal_Hbond>
0.0000

> <Gold.Chemscore.DEClash>
3.7374

> <Gold.Chemscore.DEInternal>
1.2286

> <Gold.Chemscore.Rot>
1.3250

> <Gold.Chemscore.Internal.Correction>
   9.000000E+99

> <Gold.Chemscore.Hbonds>
donor molecule, donor type, donor heavy atom, donor atom, acceptor molecule, acceptor atom, score
      L1  H     3    22       P1  8028  0.88
      P1  H  7989  7998       L1     1  0.41

> <Gold.Chemscore.Hbond.Weighted>
-4.6937

> <Gold.Chemscore.Metal.Weighted>
-0.0000

> <Gold.Chemscore.Lipo.Weighted>
-18.8226

> <Gold.Chemscore.Internal_Hbond.Weighted>
0.0000

> <Gold.Chemscore.DEClash.Weighted>
3.7374

> <Gold.Chemscore.DEInternal.Weighted>
1.2286

> <Gold.Chemscore.Rot.Weighted>
3.3920

> <Gold.Chemscore.Internal.Correction.Weighted>
   9.000000E+99

> <Gold.Protein.RotatedTorsions>
[ 6907 6896 6895 6894 ] final   24.65 input  -60.11 | X-H torsion
[ 7974 7965 7964 7962 ] final  121.76 input  175.53 | X-H torsion
[ 8008 7997 7996 7995 ] final   -0.66 input   59.86 | X-H torsion
[ 10167 10162 10161 10158 ] final   39.59 input  -65.29 | X-H torsion
[ 10718 10713 10712 10709 ] final -172.33 input   66.30 | X-H torsion
[ 10763 10752 10751 10750 ] final   -6.30 input  -60.55 | X-H torsion
[ 11005 11000 10999 10996 ] final   99.40 input  -57.11 | X-H torsion

> <Gold.Protein.ActiveResidues>
 VAL166  LYS551  ARG553  GLY616  TRP617  ASP618  TYR619  PRO620  LYS621  CYS622 
 ASP623  PHE694  ASN695  SER759  ASP760  ASP761  ALA762  ILE779  LEU786  VAL792 
 PHE793  MET794  SER795  GLU796  ALA797  LYS798  CYS799  TRP800  GLU811  SER814 

> <Gold.Protein.RotatedAtoms>
  151.9607  135.0125  160.0547 H   0  0  0  0  0  0  0  0  0  0  0  0  # atno 6907 bound_to 6896
  152.1871  133.4743  159.4997 H   0  0  0  0  0  0  0  0  0  0  0  0  # atno 6908 bound_to 6896
  150.6928  134.1676  159.4243 H   0  0  0  0  0  0  0  0  0  0  0  0  # atno 6909 bound_to 6896
  145.1155  139.3424  143.4741 H   0  0  0  0  0  0  0  0  0  0  0  0  # atno 7974 bound_to 7965
  154.6556  140.2579  155.7165 H   0  0  0  0  0  0  0  0  0  0  0  0  # atno 8008 bound_to 7997
  156.2595  140.2859  156.0929 H   0  0  0  0  0  0  0  0  0  0  0  0  # atno 8009 bound_to 7997
  155.1385  140.0380  157.2783 H   0  0  0  0  0  0  0  0  0  0  0  0  # atno 8010 bound_to 7997
  140.3825  144.1961  150.6130 H   0  0  0  0  0  0  0  0  0  0  0  0  # atno 10167 bound_to 10162
  156.7540  130.9389  151.3115 H   0  0  0  0  0  0  0  0  0  0  0  0  # atno 10718 bound_to 10713
  153.4104  135.7007  153.6363 H   0  0  0  0  0  0  0  0  0  0  0  0  # atno 10763 bound_to 10752
  153.4860  135.3683  155.2467 H   0  0  0  0  0  0  0  0  0  0  0  0  # atno 10764 bound_to 10752
  154.8716  135.4077  154.3455 H   0  0  0  0  0  0  0  0  0  0  0  0  # atno 10765 bound_to 10752
  139.8771  134.9094  156.4601 H   0  0  0  0  0  0  0  0  0  0  0  0  # atno 11005 bound_to 11000
  146.3524  140.1092  142.8604 LP  0  0  0  0  0  0  0  0  0  0  0  0  # atno 17320 bound_to 7965
  145.0799  140.9214  143.4832 LP  0  0  0  0  0  0  0  0  0  0  0  0  # atno 17321 bound_to 7965
  140.4923  143.2343  151.8800 LP  0  0  0  0  0  0  0  0  0  0  0  0  # atno 17342 bound_to 10162
  139.4794  144.5152  151.8878 LP  0  0  0  0  0  0  0  0  0  0  0  0  # atno 17343 bound_to 10162
  157.6764  130.9099  150.0161 LP  0  0  0  0  0  0  0  0  0  0  0  0  # atno 17370 bound_to 10713
  156.1382  130.3642  149.9623 LP  0  0  0  0  0  0  0  0  0  0  0  0  # atno 17371 bound_to 10713
  140.8870  133.7876  155.9529 LP  0  0  0  0  0  0  0  0  0  0  0  0  # atno 17394 bound_to 11000
  140.8794  134.2630  157.5152 LP  0  0  0  0  0  0  0  0  0  0  0  0  # atno 17395 bound_to 11000

$$$$
