AV-unprocessed.smi:946|AV-procd|sdf|4237|dock7
  -GOLD-   22720 2143D 1   1.00000     0.00000
 Structure written by MMmdl.
 42 43  0  0  0  0  0  0  0  0  1 V2000
  151.3011  139.2070  154.9339 C   0  0  0  0  0  0  0  0  0  0  0  0
  150.3801  139.9958  155.8767 C   0  0  1  0  0  0  0  0  0  0  0  0
  151.2095  140.7663  156.7431 O   0  0  0  0  0  0  0  0  0  0  0  0
  150.5283  141.4872  157.7640 C   0  0  0  0  0  0  0  0  0  0  0  0
  151.4347  142.6212  158.2596 C   0  0  1  0  0  0  0  0  0  0  0  0
  151.5135  143.7776  157.2436 C   0  0  0  0  0  0  0  0  0  0  0  0
  152.3486  144.9339  157.8052 C   0  0  0  0  0  0  0  0  0  0  0  0
  151.8046  145.3434  159.1777 C   0  0  0  0  0  0  0  0  0  0  0  0
  151.6979  144.1167  160.0971 C   0  0  0  0  0  0  0  0  0  0  0  0
  150.8900  143.1188  159.4804 O   0  0  0  0  0  0  0  0  0  0  0  0
  149.4218  140.9084  155.0939 C   0  0  0  0  0  0  0  0  0  0  0  0
  149.7493  141.3293  153.9839 O   0  0  0  0  0  0  0  0  0  0  0  0
  148.2613  141.1998  155.7111 N   0  0  0  0  0  0  0  0  0  0  0  0
  147.1978  142.0175  155.2467 C   0  0  0  0  0  0  0  0  0  0  0  0
  147.1166  142.1543  153.8434 C   0  0  0  0  0  0  0  0  0  0  0  0
  146.0945  142.9437  153.2834 C   0  0  0  0  0  0  0  0  0  0  0  0
  145.1784  143.5779  154.1411 C   0  0  0  0  0  0  0  0  0  0  0  0
  145.3267  143.3939  155.5324 C   0  0  0  0  0  0  0  0  0  0  0  0
  144.3805  144.0483  156.5295 C   0  0  0  0  0  0  0  0  0  0  0  0
  143.1336  143.6328  156.3055 F   0  0  0  0  0  0  0  0  0  0  0  0
  144.7046  143.7475  157.7875 F   0  0  0  0  0  0  0  0  0  0  0  0
  144.4242  145.3733  156.3884 F   0  0  0  0  0  0  0  0  0  0  0  0
  146.3100  142.6336  156.0652 N   0  0  0  0  0  0  0  0  0  0  0  0
  150.7255  138.6049  154.2298 H   0  0  0  0  0  0  0  0  0  0  0  0
  151.9413  138.5291  155.4990 H   0  0  0  0  0  0  0  0  0  0  0  0
  151.9505  139.8679  154.3585 H   0  0  0  0  0  0  0  0  0  0  0  0
  149.8074  139.2800  156.4697 H   0  0  0  0  0  0  0  0  0  0  0  0
  149.6055  141.9093  157.3645 H   0  0  0  0  0  0  0  0  0  0  0  0
  150.2573  140.8303  158.5921 H   0  0  0  0  0  0  0  0  0  0  0  0
  152.4365  142.2250  158.4358 H   0  0  0  0  0  0  0  0  0  0  0  0
  151.9459  143.4291  156.3052 H   0  0  0  0  0  0  0  0  0  0  0  0
  150.5086  144.1333  157.0119 H   0  0  0  0  0  0  0  0  0  0  0  0
  153.3896  144.6231  157.8996 H   0  0  0  0  0  0  0  0  0  0  0  0
  152.3337  145.7827  157.1211 H   0  0  0  0  0  0  0  0  0  0  0  0
  152.4470  146.1003  159.6282 H   0  0  0  0  0  0  0  0  0  0  0  0
  150.8193  145.7968  159.0617 H   0  0  0  0  0  0  0  0  0  0  0  0
  152.6853  143.7121  160.3254 H   0  0  0  0  0  0  0  0  0  0  0  0
  151.2432  144.3995  161.0467 H   0  0  0  0  0  0  0  0  0  0  0  0
  148.1269  140.7885  156.6230 H   0  0  0  0  0  0  0  0  0  0  0  0
  147.8287  141.6609  153.1979 H   0  0  0  0  0  0  0  0  0  0  0  0
  146.0153  143.0608  152.2128 H   0  0  0  0  0  0  0  0  0  0  0  0
  144.3863  144.1881  153.7334 H   0  0  0  0  0  0  0  0  0  0  0  0
  1  2  1  0  0  0  0
  1 24  1  0  0  0  0
  1 25  1  0  0  0  0
  1 26  1  0  0  0  0
  2  3  1  0  0  0  0
  2 11  1  0  0  0  0
  2 27  1  0  0  0  0
  3  4  1  0  0  0  0
  4  5  1  0  0  0  0
  4 28  1  0  0  0  0
  4 29  1  0  0  0  0
  5 10  1  0  0  0  0
  5  6  1  0  0  0  0
  5 30  1  0  0  0  0
  6  7  1  0  0  0  0
  6 31  1  0  0  0  0
  6 32  1  0  0  0  0
  7  8  1  0  0  0  0
  7 33  1  0  0  0  0
  7 34  1  0  0  0  0
  8  9  1  0  0  0  0
  8 35  1  0  0  0  0
  8 36  1  0  0  0  0
  9 10  1  0  0  0  0
  9 37  1  0  0  0  0
  9 38  1  0  0  0  0
 11 12  2  0  0  0  0
 11 13  1  0  0  0  0
 13 14  1  0  0  0  0
 13 39  1  0  0  0  0
 14 23  1  0  0  0  0
 14 15  2  0  0  0  0
 15 16  1  0  0  0  0
 15 40  1  0  0  0  0
 16 17  2  0  0  0  0
 16 41  1  0  0  0  0
 17 18  1  0  0  0  0
 17 42  1  0  0  0  0
 18 19  1  0  0  0  0
 18 23  2  0  0  0  0
 19 20  1  0  0  0  0
 19 21  1  0  0  0  0
 19 22  1  0  0  0  0
M  END
> <s_m_source_file>
AV-unprocessed.smi

> <i_m_source_file_index>
946

> <i_lp_mmshare_version>
43012

> <i_f3d_flags>
0

> <s_epik_input>
TzFbQ0gyXVtDSDJdW0NIMl1bQ0gyXVtDQEhdMVtDSDJdT1tDQEBIXShbQ0gzXSlDKD1PKVtOSF1jMltjSF1bY0hdW2NIXWMobjIpQyhGKShGKUY=

> <s_epik_cmdline>
J2VwaWtfcHl0aG9uJywgJy1waCcsICc3LjAnLCAnLXRuJywgJzgnLCAnLW1hJywgJzIwMCcsICctbWV0YWxfYmluZGluZycsICctaW1hZScsICc8aW5maWxlLm1hZT4nLCAnLW9tYWUnLCAnPG91dGZpbGUubWFlPic=

> <r_lp_tautomer_probability>
1

> <r_epik_Ionization_Penalty>
1.32683e-06

> <r_epik_Ionization_Penalty_Charging>
0

> <r_epik_Ionization_Penalty_Neutral>
1.32683e-06

> <r_epik_State_Penalty>
-0

> <r_epik_Charging_Adjusted_Penalty>
0

> <i_epik_Tot_Q>
0

> <i_epik_Tot_abs_Q>
0

> <r_epik_Metal_State_Penalty>
-0

> <b_epik_Metal_Only>
0

> <s_lp_Force_Field>
OPLS_2005

> <r_lp_Energy>
14.7702

> <b_lp_Chiralities_Consistent>
1

> <s_lp_Variant>
AV-unprocessed.smi:946-4

> <Gold.Version>
5.8.1

> <Gold.Id.Protein>
6NUR|6NUR_protein|mol2

> <Gold.PLP.Fitness>
46.1241

> <Gold.PLP.PLP>
-45.1910

> <Gold.PLP.part.hbond>
-2.8726

> <Gold.PLP.part.metal>
0.0000

> <Gold.PLP.part.buried>
-4.8996

> <Gold.PLP.part.nonpolar>
-36.9369

> <Gold.PLP.part.repulsive>
0.3904

> <Gold.PLP.ligand.clash>
0.0000

> <Gold.PLP.ligand.torsion>
1.0593

> <Gold.PLP.Chemscore.Hbond>
1.0053

> <Gold.PLP.Chemscore.CHOScore>
0.0000

> <Gold.PLP.Chemscore.Metal>
0.0000

> <Gold.Chemscore.Hbonds>
donor molecule, donor type, donor heavy atom, donor atom, acceptor molecule, acceptor atom, score
      P1  H  7989  7998       L1    12  0.29
      P1  H  8011  8017       L1    12  0.72

> <Gold.PLP.Chemscore.Internal.Correction>
0.0356

> <Gold.Rescore>
     Score         DG    S(hbond)    S(metal)    S(lipo)     H(rot)  DE(clash)    DE(int)     intcor
     13.42     -16.29       0.95        0.00     103.55       1.76       0.09       2.78       ----

> <Gold.Chemscore.Fitness>
13.4162

> <Gold.Chemscore.DG>
-16.2863

> <Gold.Chemscore.ZeroCoef>
-5.4800

> <Gold.Chemscore.Hbond>
0.9536

> <Gold.Chemscore.Metal>
0.0000

> <Gold.Chemscore.Lipo>
103.5550

> <Gold.Chemscore.Internal_Hbond>
0.0000

> <Gold.Chemscore.DEClash>
0.0896

> <Gold.Chemscore.DEInternal>
2.7805

> <Gold.Chemscore.Rot>
1.7557

> <Gold.Chemscore.Internal.Correction>
   9.000000E+99

> <Gold.Chemscore.Hbonds>
donor molecule, donor type, donor heavy atom, donor atom, acceptor molecule, acceptor atom, score
      P1  H  7989  7998       L1    12  0.25
      P1  H  8011  8017       L1    12  0.70

> <Gold.Chemscore.Hbond.Weighted>
-3.1850

> <Gold.Chemscore.Metal.Weighted>
-0.0000

> <Gold.Chemscore.Lipo.Weighted>
-12.1159

> <Gold.Chemscore.Internal_Hbond.Weighted>
0.0000

> <Gold.Chemscore.DEClash.Weighted>
0.0896

> <Gold.Chemscore.DEInternal.Weighted>
2.7805

> <Gold.Chemscore.Rot.Weighted>
4.4946

> <Gold.Chemscore.Internal.Correction.Weighted>
   9.000000E+99

> <Gold.Protein.RotatedTorsions>
[ 6907 6896 6895 6894 ] final  138.97 input  -60.11 | X-H torsion
[ 7974 7965 7964 7962 ] final  -88.69 input  175.53 | X-H torsion
[ 8008 7997 7996 7995 ] final  -92.59 input   59.86 | X-H torsion
[ 10167 10162 10161 10158 ] final  -29.66 input  -65.29 | X-H torsion
[ 10718 10713 10712 10709 ] final -142.23 input   66.30 | X-H torsion
[ 10763 10752 10751 10750 ] final  -61.08 input  -60.55 | X-H torsion
[ 11005 11000 10999 10996 ] final -162.12 input  -57.11 | X-H torsion

> <Gold.Protein.ActiveResidues>
 VAL166  LYS551  ARG553  GLY616  TRP617  ASP618  TYR619  PRO620  LYS621  CYS622 
 ASP623  PHE694  ASN695  SER759  ASP760  ASP761  ALA762  ILE779  LEU786  VAL792 
 PHE793  MET794  SER795  GLU796  ALA797  LYS798  CYS799  TRP800  GLU811  SER814 

> <Gold.Protein.RotatedAtoms>
  152.2604  133.5292  159.5378 H   0  0  0  0  0  0  0  0  0  0  0  0  # atno 6907 bound_to 6896
  150.7123  134.0837  159.3916 H   0  0  0  0  0  0  0  0  0  0  0  0  # atno 6908 bound_to 6896
  151.8755  135.0473  160.0534 H   0  0  0  0  0  0  0  0  0  0  0  0  # atno 6909 bound_to 6896
  145.4498  140.9560  143.2029 H   0  0  0  0  0  0  0  0  0  0  0  0  # atno 7974 bound_to 7965
  154.7250  140.0507  157.0675 H   0  0  0  0  0  0  0  0  0  0  0  0  # atno 8008 bound_to 7997
  155.0376  140.3165  155.4717 H   0  0  0  0  0  0  0  0  0  0  0  0  # atno 8009 bound_to 7997
  156.2827  140.2138  156.5499 H   0  0  0  0  0  0  0  0  0  0  0  0  # atno 8010 bound_to 7997
  140.7258  143.3911  151.1428 H   0  0  0  0  0  0  0  0  0  0  0  0  # atno 10167 bound_to 10162
  156.3434  130.7650  151.1790 H   0  0  0  0  0  0  0  0  0  0  0  0  # atno 10718 bound_to 10713
  154.2790  135.6275  153.5340 H   0  0  0  0  0  0  0  0  0  0  0  0  # atno 10763 bound_to 10752
  152.9868  135.5628  154.5516 H   0  0  0  0  0  0  0  0  0  0  0  0  # atno 10764 bound_to 10752
  154.5102  135.2876  155.1324 H   0  0  0  0  0  0  0  0  0  0  0  0  # atno 10765 bound_to 10752
  140.6128  134.4832  157.5217 H   0  0  0  0  0  0  0  0  0  0  0  0  # atno 11005 bound_to 11000
  144.8069  139.6035  143.7047 LP  0  0  0  0  0  0  0  0  0  0  0  0  # atno 17320 bound_to 7965
  146.2511  139.6201  142.9427 LP  0  0  0  0  0  0  0  0  0  0  0  0  # atno 17321 bound_to 7965
  139.7516  143.8770  152.3078 LP  0  0  0  0  0  0  0  0  0  0  0  0  # atno 17342 bound_to 10162
  139.8625  144.7109  150.9082 LP  0  0  0  0  0  0  0  0  0  0  0  0  # atno 17343 bound_to 10162
  157.7450  131.0448  150.4811 LP  0  0  0  0  0  0  0  0  0  0  0  0  # atno 17370 bound_to 10713
  156.4994  130.4113  149.6361 LP  0  0  0  0  0  0  0  0  0  0  0  0  # atno 17371 bound_to 10713
  139.9185  134.8197  156.1287 LP  0  0  0  0  0  0  0  0  0  0  0  0  # atno 17394 bound_to 11000
  141.0796  133.6760  156.2309 LP  0  0  0  0  0  0  0  0  0  0  0  0  # atno 17395 bound_to 11000

$$$$
