AV-unprocessed.smi:1484|AV-procd|sdf|5995|dock3
  -GOLD-   22720 6 93D 1   1.00000     0.00000
 Structure written by MMmdl.
 37 38  0  0  0  0  0  0  0  0  2 V2000
  153.0591  142.5848  162.0042 C   0  0  0  0  0  0  0  0  0  0  0  0
  152.8355  143.2483  160.6377 C   0  0  2  0  0  0  0  0  0  0  0  0
  152.0966  144.5926  160.7781 C   0  0  0  0  0  0  0  0  0  0  0  0
  151.8759  145.2571  159.4105 C   0  0  0  0  0  0  0  0  0  0  0  0
  151.1215  144.3219  158.4531 C   0  0  0  0  0  0  0  0  0  0  0  0
  151.8476  142.9732  158.2976 C   0  0  2  0  0  0  0  0  0  0  0  0
  151.0667  142.0973  157.4294 N   0  0  0  0  0  0  0  0  0  0  0  0
  151.4635  140.9001  156.9713 C   0  0  0  0  0  0  0  0  0  0  0  0
  152.5567  140.4033  157.2485 O   0  0  0  0  0  0  0  0  0  0  0  0
  150.4545  140.1674  156.0724 C   0  0  0  0  0  0  0  0  0  0  0  0
  149.1134  140.7697  156.0522 N   0  0  0  0  0  0  0  0  0  0  0  0
  148.4145  140.6959  157.3325 N   0  5  0  0  0  0  0  0  0  0  0  0
  147.1572  141.2033  157.4313 C   0  0  0  0  0  0  0  0  0  0  0  0
  146.5016  141.1617  158.4699 O   0  0  0  0  0  0  0  0  0  0  0  0
  146.5748  141.8230  156.2527 C   0  0  0  0  0  0  0  0  0  0  0  0
  147.2519  141.8977  155.0899 C   0  0  0  0  0  0  0  0  0  0  0  0
  148.5994  141.3624  154.9366 C   0  0  0  0  0  0  0  0  0  0  0  0
  149.2272  141.4359  153.8800 O   0  0  0  0  0  0  0  0  0  0  0  0
  152.0776  142.3142  159.6740 C   0  0  0  0  0  0  0  0  0  0  0  0
  152.1121  142.3542  162.4931 H   0  0  0  0  0  0  0  0  0  0  0  0
  153.6274  143.2362  162.6686 H   0  0  0  0  0  0  0  0  0  0  0  0
  153.6163  141.6533  161.9014 H   0  0  0  0  0  0  0  0  0  0  0  0
  153.8174  143.4481  160.2064 H   0  0  0  0  0  0  0  0  0  0  0  0
  151.1331  144.4351  161.2652 H   0  0  0  0  0  0  0  0  0  0  0  0
  152.6625  145.2650  161.4237 H   0  0  0  0  0  0  0  0  0  0  0  0
  151.3214  146.1877  159.5345 H   0  0  0  0  0  0  0  0  0  0  0  0
  152.8389  145.5269  158.9750 H   0  0  0  0  0  0  0  0  0  0  0  0
  150.1117  144.1568  158.8320 H   0  0  0  0  0  0  0  0  0  0  0  0
  151.0122  144.8028  157.4803 H   0  0  0  0  0  0  0  0  0  0  0  0
  152.8162  143.1617  157.8301 H   0  0  0  0  0  0  0  0  0  0  0  0
  150.1524  142.4257  157.1551 H   0  0  0  0  0  0  0  0  0  0  0  0
  150.8660  140.1294  155.0619 H   0  0  0  0  0  0  0  0  0  0  0  0
  150.3835  139.1276  156.3965 H   0  0  0  0  0  0  0  0  0  0  0  0
  145.5780  142.2345  156.3114 H   0  0  0  0  0  0  0  0  0  0  0  0
  146.7805  142.3674  154.2397 H   0  0  0  0  0  0  0  0  0  0  0  0
  152.6369  141.3857  159.5511 H   0  0  0  0  0  0  0  0  0  0  0  0
  151.1175  142.0382  160.1131 H   0  0  0  0  0  0  0  0  0  0  0  0
  1  2  1  0  0  0  0
  1 20  1  0  0  0  0
  1 21  1  0  0  0  0
  1 22  1  0  0  0  0
  2 19  1  0  0  0  0
  2  3  1  0  0  0  0
  2 23  1  0  0  0  0
  3  4  1  0  0  0  0
  3 24  1  0  0  0  0
  3 25  1  0  0  0  0
  4  5  1  0  0  0  0
  4 26  1  0  0  0  0
  4 27  1  0  0  0  0
  5  6  1  0  0  0  0
  5 28  1  0  0  0  0
  5 29  1  0  0  0  0
  6  7  1  0  0  0  0
  6 19  1  0  0  0  0
  6 30  1  0  0  0  0
  7  8  1  0  0  0  0
  7 31  1  0  0  0  0
  8  9  2  0  0  0  0
  8 10  1  0  0  0  0
 10 32  1  0  0  0  0
 10 33  1  0  0  0  0
 10 11  1  0  0  0  0
 11 12  1  0  0  0  0
 11 17  1  0  0  0  0
 12 13  1  0  0  0  0
 13 14  2  0  0  0  0
 13 15  1  0  0  0  0
 15 34  1  0  0  0  0
 15 16  2  0  0  0  0
 16 35  1  0  0  0  0
 16 17  1  0  0  0  0
 17 18  2  0  0  0  0
 19 36  1  0  0  0  0
 19 37  1  0  0  0  0
M  CHG  1  12  -1
M  END
> <s_m_source_file>
AV-unprocessed.smi

> <i_m_source_file_index>
1484

> <i_lp_mmshare_version>
43012

> <i_f3d_flags>
0

> <s_epik_input>
W0NIM11bQ0BASF0xW0NIMl1bQ0gyXVtDSDJdW0NASF0oW0NIMl0xKVtOSF1DKD1PKVtDSDJdbjJbbkhdYyg9TylbY0hdW2NIXWMyPU8=

> <s_epik_cmdline>
J2VwaWtfcHl0aG9uJywgJy1waCcsICc3LjAnLCAnLXRuJywgJzgnLCAnLW1hJywgJzIwMCcsICctbWV0YWxfYmluZGluZycsICctaW1hZScsICc8aW5maWxlLm1hZT4nLCAnLW9tYWUnLCAnPG91dGZpbGUubWFlPic=

> <r_lp_tautomer_probability>
1

> <r_epik_Ionization_Penalty>
0.101352

> <r_epik_Ionization_Penalty_Charging>
0.101352

> <r_epik_Ionization_Penalty_Neutral>
1.90469e-08

> <r_epik_State_Penalty>
0.0358555

> <r_epik_Charging_Adjusted_Penalty>
0.137208

> <i_epik_Tot_Q>
-1

> <i_epik_Tot_abs_Q>
1

> <r_epik_Metal_State_Penalty>
0.0358555

> <b_epik_Metal_Only>
0

> <s_lp_Force_Field>
OPLS_2005

> <r_lp_Energy>
24.7991

> <b_lp_Chiralities_Consistent>
1

> <s_lp_Variant>
AV-unprocessed.smi:1484-3

> <Gold.Version>
5.8.1

> <Gold.Id.Protein>
6NUR|6NUR_protein|mol2

> <Gold.PLP.Fitness>
45.6558

> <Gold.PLP.PLP>
-40.4409

> <Gold.PLP.part.hbond>
-3.3015

> <Gold.PLP.part.metal>
0.0000

> <Gold.PLP.part.buried>
-4.4113

> <Gold.PLP.part.nonpolar>
-33.5144

> <Gold.PLP.part.repulsive>
1.3742

> <Gold.PLP.ligand.clash>
0.0000

> <Gold.PLP.ligand.torsion>
0.1916

> <Gold.PLP.Chemscore.Hbond>
1.8634

> <Gold.PLP.Chemscore.CHOScore>
0.0000

> <Gold.PLP.Chemscore.Metal>
0.0000

> <Gold.Chemscore.Hbonds>
donor molecule, donor type, donor heavy atom, donor atom, acceptor molecule, acceptor atom, score
      P1  H  6934  6946       L1    14  0.17
      P1  H  7997  8008       L1     9  0.93
      P1  H  8011  8017       L1    18  0.75

> <Gold.PLP.Chemscore.Internal.Correction>
0.0080

> <Gold.Rescore>
     Score         DG    S(hbond)    S(metal)    S(lipo)     H(rot)  DE(clash)    DE(int)     intcor
     18.48     -18.83       1.92        0.00      95.54       1.65       0.02       0.33       ----

> <Gold.Chemscore.Fitness>
18.4848

> <Gold.Chemscore.DG>
-18.8334

> <Gold.Chemscore.ZeroCoef>
-5.4800

> <Gold.Chemscore.Hbond>
1.9195

> <Gold.Chemscore.Metal>
0.0000

> <Gold.Chemscore.Lipo>
95.5449

> <Gold.Chemscore.Internal_Hbond>
0.0000

> <Gold.Chemscore.DEClash>
0.0197

> <Gold.Chemscore.DEInternal>
0.3289

> <Gold.Chemscore.Rot>
1.6549

> <Gold.Chemscore.Internal.Correction>
   9.000000E+99

> <Gold.Chemscore.Hbonds>
donor molecule, donor type, donor heavy atom, donor atom, acceptor molecule, acceptor atom, score
      P1  H  6934  6946       L1    14  0.17
      P1  H  7989  7998       L1    18  0.01
      P1  H  7997  8008       L1     9  0.89
      P1  H  8011  8017       L1    18  0.76

> <Gold.Chemscore.Hbond.Weighted>
-6.4111

> <Gold.Chemscore.Metal.Weighted>
-0.0000

> <Gold.Chemscore.Lipo.Weighted>
-11.1788

> <Gold.Chemscore.Internal_Hbond.Weighted>
0.0000

> <Gold.Chemscore.DEClash.Weighted>
0.0197

> <Gold.Chemscore.DEInternal.Weighted>
0.3289

> <Gold.Chemscore.Rot.Weighted>
4.2364

> <Gold.Chemscore.Internal.Correction.Weighted>
   9.000000E+99

> <Gold.Protein.RotatedTorsions>
[ 6907 6896 6895 6894 ] final   52.06 input  -60.11 | X-H torsion
[ 7974 7965 7964 7962 ] final  -46.63 input  175.53 | X-H torsion
[ 8008 7997 7996 7995 ] final  -62.90 input   59.86 | X-H torsion
[ 10167 10162 10161 10158 ] final   -9.15 input  -65.29 | X-H torsion
[ 10718 10713 10712 10709 ] final  167.99 input   66.30 | X-H torsion
[ 10763 10752 10751 10750 ] final  161.52 input  -60.55 | X-H torsion
[ 11005 11000 10999 10996 ] final -107.41 input  -57.11 | X-H torsion

> <Gold.Protein.ActiveResidues>
 VAL166  LYS551  ARG553  GLY616  TRP617  ASP618  TYR619  PRO620  LYS621  CYS622 
 ASP623  PHE694  ASN695  SER759  ASP760  ASP761  ALA762  ILE779  LEU786  VAL792 
 PHE793  MET794  SER795  GLU796  ALA797  LYS798  CYS799  TRP800  GLU811  SER814 

> <Gold.Protein.RotatedAtoms>
  152.3193  134.7401  160.0317 H   0  0  0  0  0  0  0  0  0  0  0  0  # atno 6907 bound_to 6896
  151.7855  133.3348  159.3492 H   0  0  0  0  0  0  0  0  0  0  0  0  # atno 6908 bound_to 6896
  150.7361  134.5822  159.5989 H   0  0  0  0  0  0  0  0  0  0  0  0  # atno 6909 bound_to 6896
  145.9700  140.7393  142.9415 H   0  0  0  0  0  0  0  0  0  0  0  0  # atno 7974 bound_to 7965
  154.4524  140.0986  156.6658 H   0  0  0  0  0  0  0  0  0  0  0  0  # atno 8008 bound_to 7997
  155.5242  140.3479  155.4394 H   0  0  0  0  0  0  0  0  0  0  0  0  # atno 8009 bound_to 7997
  156.0709  140.1349  156.9818 H   0  0  0  0  0  0  0  0  0  0  0  0  # atno 8010 bound_to 7997
  140.7079  143.5889  150.8914 H   0  0  0  0  0  0  0  0  0  0  0  0  # atno 10167 bound_to 10162
  157.0435  131.0293  151.2705 H   0  0  0  0  0  0  0  0  0  0  0  0  # atno 10718 bound_to 10713
  154.2643  135.2767  155.2765 H   0  0  0  0  0  0  0  0  0  0  0  0  # atno 10763 bound_to 10752
  154.5357  135.5717  153.6800 H   0  0  0  0  0  0  0  0  0  0  0  0  # atno 10764 bound_to 10752
  152.9956  135.6238  154.2795 H   0  0  0  0  0  0  0  0  0  0  0  0  # atno 10765 bound_to 10752
  141.0955  133.8978  157.1973 H   0  0  0  0  0  0  0  0  0  0  0  0  # atno 11005 bound_to 11000
  144.6834  140.2732  143.7303 LP  0  0  0  0  0  0  0  0  0  0  0  0  # atno 17320 bound_to 7965
  145.7920  139.1930  143.2097 LP  0  0  0  0  0  0  0  0  0  0  0  0  # atno 17321 bound_to 7965
  139.9615  143.6159  152.3001 LP  0  0  0  0  0  0  0  0  0  0  0  0  # atno 17342 bound_to 10162
  139.6713  144.7660  151.1778 LP  0  0  0  0  0  0  0  0  0  0  0  0  # atno 17343 bound_to 10162
  157.5086  130.7924  149.7680 LP  0  0  0  0  0  0  0  0  0  0  0  0  # atno 17370 bound_to 10713
  156.0030  130.3870  150.2534 LP  0  0  0  0  0  0  0  0  0  0  0  0  # atno 17371 bound_to 10713
  139.9791  135.0104  156.9705 LP  0  0  0  0  0  0  0  0  0  0  0  0  # atno 17394 bound_to 11000
  140.5150  134.0964  155.7279 LP  0  0  0  0  0  0  0  0  0  0  0  0  # atno 17395 bound_to 11000

$$$$
