AV-unprocessed.smi:67|AV-procd|sdf|631|dock5
  -GOLD-   2262016523D 1   1.00000     0.00000
 Structure written by MMmdl.
 49 51  0  0  0  0  0  0  0  0  3 V2000
  144.5092  132.8265  148.8850 O   0  0  0  0  0  0  0  0  0  0  0  0
  144.8424  132.7915  150.2624 C   0  0  1  0  0  0  0  0  0  0  0  0
  145.8574  131.6466  150.4904 C   0  0  0  0  0  0  0  0  0  0  0  0
  146.1595  131.4236  151.9310 N   0  3  2  0  0  0  0  0  0  0  0  0
  147.0148  132.4908  152.5120 C   0  0  0  0  0  0  0  0  0  0  0  0
  147.1815  132.3086  154.0312 C   0  0  0  0  0  0  0  0  0  0  0  0
  147.7375  130.9199  154.3842 C   0  0  2  0  0  0  0  0  0  0  0  0
  149.0782  130.8557  153.9015 O   0  0  0  0  0  0  0  0  0  0  0  0
  150.1308  131.1650  154.7389 C   0  0  0  0  0  0  0  0  0  0  0  0
  150.1769  132.2926  155.5969 C   0  0  0  0  0  0  0  0  0  0  0  0
  151.3028  132.5226  156.4101 C   0  0  0  0  0  0  0  0  0  0  0  0
  152.3931  131.6343  156.3793 C   0  0  0  0  0  0  0  0  0  0  0  0
  152.3623  130.5050  155.5343 C   0  0  0  0  0  0  0  0  0  0  0  0
  153.5367  129.5392  155.4825 C   0  0  0  0  0  0  0  0  0  0  0  0
  153.1347  128.3031  155.7798 F   0  0  0  0  0  0  0  0  0  0  0  0
  154.0511  129.5397  154.2535 F   0  0  0  0  0  0  0  0  0  0  0  0
  154.4910  129.8867  156.3469 F   0  0  0  0  0  0  0  0  0  0  0  0
  151.2327  130.2854  154.7173 C   0  0  0  0  0  0  0  0  0  0  0  0
  146.8553  129.8384  153.7284 C   0  0  0  0  0  0  0  0  0  0  0  0
  146.7097  130.0722  152.2153 C   0  0  0  0  0  0  0  0  0  0  0  0
  145.3041  134.1801  150.7172 C   0  0  0  0  0  0  0  0  0  0  0  0
  144.0010  134.9534  150.9212 C   0  0  0  0  0  0  0  0  0  0  0  0
  142.9974  133.9529  151.3294 N   0  3  0  0  0  0  0  0  0  0  0  0
  143.5385  132.6041  151.0596 C   0  0  0  0  0  0  0  0  0  0  0  0
  144.8336  133.6321  148.5103 H   0  0  0  0  0  0  0  0  0  0  0  0
  145.5042  130.7202  150.0348 H   0  0  0  0  0  0  0  0  0  0  0  0
  146.7743  131.8993  149.9549 H   0  0  0  0  0  0  0  0  0  0  0  0
  147.9891  132.4874  152.0202 H   0  0  0  0  0  0  0  0  0  0  0  0
  146.5656  133.4661  152.3199 H   0  0  0  0  0  0  0  0  0  0  0  0
  147.8357  133.0845  154.4302 H   0  0  0  0  0  0  0  0  0  0  0  0
  146.2146  132.4450  154.5177 H   0  0  0  0  0  0  0  0  0  0  0  0
  147.7194  130.8291  155.4705 H   0  0  0  0  0  0  0  0  0  0  0  0
  149.3639  132.9995  155.6532 H   0  0  0  0  0  0  0  0  0  0  0  0
  151.3306  133.3858  157.0589 H   0  0  0  0  0  0  0  0  0  0  0  0
  153.2517  131.8275  157.0054 H   0  0  0  0  0  0  0  0  0  0  0  0
  151.2090  129.4276  154.0611 H   0  0  0  0  0  0  0  0  0  0  0  0
  147.2581  128.8422  153.9077 H   0  0  0  0  0  0  0  0  0  0  0  0
  145.8675  129.8510  154.1905 H   0  0  0  0  0  0  0  0  0  0  0  0
  146.0595  129.3040  151.8001 H   0  0  0  0  0  0  0  0  0  0  0  0
  147.6778  129.9602  151.7243 H   0  0  0  0  0  0  0  0  0  0  0  0
  145.8202  134.1035  151.6754 H   0  0  0  0  0  0  0  0  0  0  0  0
  145.9791  134.6675  150.0123 H   0  0  0  0  0  0  0  0  0  0  0  0
  144.0967  135.7513  151.6580 H   0  0  0  0  0  0  0  0  0  0  0  0
  143.6788  135.4008  149.9801 H   0  0  0  0  0  0  0  0  0  0  0  0
  142.8069  134.0416  152.3175 H   0  0  0  0  0  0  0  0  0  0  0  0
  142.8088  131.9728  150.5504 H   0  0  0  0  0  0  0  0  0  0  0  0
  143.7487  132.1422  152.0252 H   0  0  0  0  0  0  0  0  0  0  0  0
  142.1454  134.0998  150.8066 H   0  0  0  0  0  0  0  0  0  0  0  0
  145.2741  131.4883  152.4136 H   0  0  0  0  0  0  0  0  0  0  0  0
  1  2  1  0  0  0  0
  1 25  1  0  0  0  0
  2 24  1  0  0  0  0
  2  3  1  0  0  0  0
  2 21  1  0  0  0  0
  3  4  1  0  0  0  0
  3 26  1  0  0  0  0
  3 27  1  0  0  0  0
  4 20  1  0  0  0  0
  4  5  1  0  0  0  0
  4 49  1  0  0  0  0
  5  6  1  0  0  0  0
  5 28  1  0  0  0  0
  5 29  1  0  0  0  0
  6  7  1  0  0  0  0
  6 30  1  0  0  0  0
  6 31  1  0  0  0  0
  7  8  1  0  0  0  0
  7 19  1  0  0  0  0
  7 32  1  0  0  0  0
  8  9  1  0  0  0  0
  9 18  1  0  0  0  0
  9 10  2  0  0  0  0
 10 11  1  0  0  0  0
 10 33  1  0  0  0  0
 11 12  2  0  0  0  0
 11 34  1  0  0  0  0
 12 13  1  0  0  0  0
 12 35  1  0  0  0  0
 13 14  1  0  0  0  0
 13 18  2  0  0  0  0
 14 15  1  0  0  0  0
 14 16  1  0  0  0  0
 14 17  1  0  0  0  0
 18 36  1  0  0  0  0
 19 20  1  0  0  0  0
 19 37  1  0  0  0  0
 19 38  1  0  0  0  0
 20 39  1  0  0  0  0
 20 40  1  0  0  0  0
 21 22  1  0  0  0  0
 21 41  1  0  0  0  0
 21 42  1  0  0  0  0
 22 23  1  0  0  0  0
 22 43  1  0  0  0  0
 22 44  1  0  0  0  0
 23 24  1  0  0  0  0
 23 45  1  0  0  0  0
 23 48  1  0  0  0  0
 24 46  1  0  0  0  0
 24 47  1  0  0  0  0
M  CHG  1   4   1
M  CHG  1  23   1
M  END
> <s_m_source_file>
AV-unprocessed.smi

> <i_m_source_file_index>
67

> <i_lp_mmshare_version>
43012

> <i_f3d_flags>
0

> <s_epik_input>
W0NIMl0xW05IXVtDSDJdW0NIMl1bQ0BAXTEoW09IXSlbQ0gyXU4yW0NIMl1bQ0gyXVtDSF0oW0NIMl1bQ0gyXTIpT2MzW2NIXVtjSF1bY0hdYyhDKEYpKEYpRilbY0hdMw==

> <s_epik_cmdline>
J2VwaWtfcHl0aG9uJywgJy1waCcsICc3LjAnLCAnLXRuJywgJzgnLCAnLW1hJywgJzIwMCcsICctbWV0YWxfYmluZGluZycsICctaW1hZScsICc8aW5maWxlLm1hZT4nLCAnLW9tYWUnLCAnPG91dGZpbGUubWFlPic=

> <r_lp_tautomer_probability>
1

> <r_epik_Ionization_Penalty>
0.0989853

> <r_epik_Ionization_Penalty_Charging>
0.0989662

> <r_epik_Ionization_Penalty_Neutral>
1.91014e-05

> <r_epik_State_Penalty>
0.0852826

> <r_epik_Charging_Adjusted_Penalty>
0.184249

> <i_epik_Tot_Q>
2

> <i_epik_Tot_abs_Q>
2

> <r_epik_Metal_State_Penalty>
0.0849414

> <b_epik_Metal_Only>
0

> <s_lp_Force_Field>
OPLS_2005

> <r_lp_Energy>
57.962

> <b_lp_Chiralities_Consistent>
1

> <s_lp_Variant>
AV-unprocessed.smi:67-3

> <Gold.Version>
5.8.1

> <Gold.Id.Protein>
6NUR|6NUR_protein|mol2

> <Gold.PLP.Fitness>
48.3615

> <Gold.PLP.PLP>
-40.5583

> <Gold.PLP.part.hbond>
-2.0403

> <Gold.PLP.part.metal>
0.0000

> <Gold.PLP.part.buried>
-4.5435

> <Gold.PLP.part.nonpolar>
-33.5324

> <Gold.PLP.part.repulsive>
0.0833

> <Gold.PLP.ligand.clash>
0.7045

> <Gold.PLP.ligand.torsion>
0.8097

> <Gold.PLP.Chemscore.Hbond>
3.0000

> <Gold.PLP.Chemscore.CHOScore>
0.0000

> <Gold.PLP.Chemscore.Metal>
0.0000

> <Gold.Chemscore.Hbonds>
donor molecule, donor type, donor heavy atom, donor atom, acceptor molecule, acceptor atom, score
      L1  H     1    25       P1  7921  1.00
      L1  H    23    48       P1 10186  2.00

> <Gold.PLP.Chemscore.Internal.Correction>
1.1272

> <Gold.Rescore>
     Score         DG    S(hbond)    S(metal)    S(lipo)     H(rot)  DE(clash)    DE(int)     intcor
     15.57     -17.41       1.66        0.00     103.56       2.24       0.36       1.48       ----

> <Gold.Chemscore.Fitness>
15.5684

> <Gold.Chemscore.DG>
-17.4095

> <Gold.Chemscore.ZeroCoef>
-5.4800

> <Gold.Chemscore.Hbond>
1.6571

> <Gold.Chemscore.Metal>
0.0000

> <Gold.Chemscore.Lipo>
103.5638

> <Gold.Chemscore.Internal_Hbond>
0.0000

> <Gold.Chemscore.DEClash>
0.3603

> <Gold.Chemscore.DEInternal>
1.4809

> <Gold.Chemscore.Rot>
2.2352

> <Gold.Chemscore.Internal.Correction>
   9.000000E+99

> <Gold.Chemscore.Hbonds>
donor molecule, donor type, donor heavy atom, donor atom, acceptor molecule, acceptor atom, score
      L1  H     1    25       P1  7921  0.92
      L1  H    23    48       P1 10186  0.30

> <Gold.Chemscore.Hbond.Weighted>
-5.5347

> <Gold.Chemscore.Metal.Weighted>
-0.0000

> <Gold.Chemscore.Lipo.Weighted>
-12.1170

> <Gold.Chemscore.Internal_Hbond.Weighted>
0.0000

> <Gold.Chemscore.DEClash.Weighted>
0.3603

> <Gold.Chemscore.DEInternal.Weighted>
1.4809

> <Gold.Chemscore.Rot.Weighted>
5.7221

> <Gold.Chemscore.Internal.Correction.Weighted>
   9.000000E+99

> <Gold.Protein.RotatedTorsions>
[ 6907 6896 6895 6894 ] final  -30.05 input  -60.11 | X-H torsion
[ 7974 7965 7964 7962 ] final   15.75 input  175.53 | X-H torsion
[ 8008 7997 7996 7995 ] final  -39.78 input   59.86 | X-H torsion
[ 10167 10162 10161 10158 ] final -139.07 input  -65.29 | X-H torsion
[ 10718 10713 10712 10709 ] final   57.41 input   66.30 | X-H torsion
[ 10763 10752 10751 10750 ] final  134.63 input  -60.55 | X-H torsion
[ 11005 11000 10999 10996 ] final   95.71 input  -57.11 | X-H torsion

> <Gold.Protein.ActiveResidues>
 VAL166  LYS551  ARG553  GLY616  TRP617  ASP618  TYR619  PRO620  LYS621  CYS622 
 ASP623  PHE694  ASN695  SER759  ASP760  ASP761  ALA762  ILE779  LEU786  VAL792 
 PHE793  MET794  SER795  GLU796  ALA797  LYS798  CYS799  TRP800  GLU811  SER814 

> <Gold.Protein.RotatedAtoms>
  151.1108  135.0026  159.8492 H   0  0  0  0  0  0  0  0  0  0  0  0  # atno 6907 bound_to 6896
  152.5443  134.1838  159.8656 H   0  0  0  0  0  0  0  0  0  0  0  0  # atno 6908 bound_to 6896
  151.1888  133.4635  159.2628 H   0  0  0  0  0  0  0  0  0  0  0  0  # atno 6909 bound_to 6896
  146.2269  139.8848  142.8564 H   0  0  0  0  0  0  0  0  0  0  0  0  # atno 7974 bound_to 7965
  154.4019  140.1542  156.2919 H   0  0  0  0  0  0  0  0  0  0  0  0  # atno 8008 bound_to 7997
  155.8778  140.3445  155.5844 H   0  0  0  0  0  0  0  0  0  0  0  0  # atno 8009 bound_to 7997
  155.7702  140.0829  157.2102 H   0  0  0  0  0  0  0  0  0  0  0  0  # atno 8010 bound_to 7997
  139.8416  143.7315  152.2663 H   0  0  0  0  0  0  0  0  0  0  0  0  # atno 10167 bound_to 10162
  157.5512  130.8767  149.8967 H   0  0  0  0  0  0  0  0  0  0  0  0  # atno 10718 bound_to 10713
  153.8268  135.3109  155.3415 H   0  0  0  0  0  0  0  0  0  0  0  0  # atno 10763 bound_to 10752
  154.7990  135.4738  154.0233 H   0  0  0  0  0  0  0  0  0  0  0  0  # atno 10764 bound_to 10752
  153.1659  135.6869  153.8766 H   0  0  0  0  0  0  0  0  0  0  0  0  # atno 10765 bound_to 10752
  139.8787  134.8913  156.4051 H   0  0  0  0  0  0  0  0  0  0  0  0  # atno 11005 bound_to 11000
  145.2476  141.0032  143.3900 LP  0  0  0  0  0  0  0  0  0  0  0  0  # atno 17320 bound_to 7965
  144.9401  139.4199  143.6453 LP  0  0  0  0  0  0  0  0  0  0  0  0  # atno 17321 bound_to 7965
  139.7553  144.7522  151.0444 LP  0  0  0  0  0  0  0  0  0  0  0  0  # atno 17342 bound_to 10162
  140.7797  143.4812  151.0015 LP  0  0  0  0  0  0  0  0  0  0  0  0  # atno 17343 bound_to 10162
  156.0579  130.3705  150.1050 LP  0  0  0  0  0  0  0  0  0  0  0  0  # atno 17370 bound_to 10713
  156.9222  130.9687  151.3546 LP  0  0  0  0  0  0  0  0  0  0  0  0  # atno 17371 bound_to 10713
  140.9240  133.7625  155.9941 LP  0  0  0  0  0  0  0  0  0  0  0  0  # atno 17394 bound_to 11000
  140.8407  134.3069  157.5314 LP  0  0  0  0  0  0  0  0  0  0  0  0  # atno 17395 bound_to 11000

$$$$
