AV-unprocessed.smi:2710|AV-procd|sdf|10471|dock10
  -GOLD-   2272014513D 1   1.00000     0.00000
 Structure written by MMmdl.
 53 54  0  0  0  0  0  0  0  0  2 V2000
  148.1971  128.1274  152.0245 C   0  0  0  0  0  0  0  0  0  0  0  0
  147.3066  129.0770  152.8430 C   0  0  0  0  0  0  0  0  0  0  0  0
  147.8131  130.4799  152.8852 N   0  3  1  0  0  0  0  0  0  0  0  0
  146.6985  131.4711  152.8950 C   0  0  0  0  0  0  0  0  0  0  0  0
  147.2075  132.9172  152.8128 C   0  0  0  0  0  0  0  0  0  0  0  0
  148.1718  133.2221  153.9623 C   0  0  2  0  0  0  0  0  0  0  0  0
  148.6829  134.5840  153.8338 N   0  0  0  0  0  0  0  0  0  0  0  0
  148.9858  135.3952  154.8575 C   0  0  0  0  0  0  0  0  0  0  0  0
  148.8859  135.0610  156.0371 O   0  0  0  0  0  0  0  0  0  0  0  0
  149.4171  136.5895  154.4179 N   0  0  0  0  0  0  0  0  0  0  0  0
  149.8186  137.7241  155.1738 C   0  0  0  0  0  0  0  0  0  0  0  0
  149.9145  137.7807  156.5851 C   0  0  0  0  0  0  0  0  0  0  0  0
  150.2892  138.9090  157.2246 N   0  0  0  0  0  0  0  0  0  0  0  0
  150.6003  139.9776  156.4796 C   0  0  0  0  0  0  0  0  0  0  0  0
  150.8804  141.2952  157.2235 C   0  0  0  0  0  0  0  0  0  0  0  0
  152.1504  141.1816  158.0996 C   0  0  0  0  0  0  0  0  0  0  0  0
  149.7242  141.6448  158.1901 C   0  0  0  0  0  0  0  0  0  0  0  0
  151.0599  142.4327  156.2016 C   0  0  0  0  0  0  0  0  0  0  0  0
  150.4949  140.0409  155.1457 N   0  0  0  0  0  0  0  0  0  0  0  0
  150.1211  138.9204  154.4933 C   0  0  0  0  0  0  0  0  0  0  0  0
  149.3125  132.1935  153.9334 C   0  0  0  0  0  0  0  0  0  0  0  0
  148.7880  130.7419  153.9947 C   0  0  2  0  0  0  0  0  0  0  0  0
  149.9958  129.7818  153.9881 C   0  0  0  0  0  0  0  0  0  0  0  0
  147.8778  127.0942  152.1633 H   0  0  0  0  0  0  0  0  0  0  0  0
  149.2392  128.1931  152.3384 H   0  0  0  0  0  0  0  0  0  0  0  0
  148.1484  128.3287  150.9549 H   0  0  0  0  0  0  0  0  0  0  0  0
  146.2835  129.0610  152.4645 H   0  0  0  0  0  0  0  0  0  0  0  0
  147.2730  128.6559  153.8449 H   0  0  0  0  0  0  0  0  0  0  0  0
  146.0317  131.3107  152.0497 H   0  0  0  0  0  0  0  0  0  0  0  0
  146.1005  131.3363  153.7977 H   0  0  0  0  0  0  0  0  0  0  0  0
  147.7038  133.0751  151.8538 H   0  0  0  0  0  0  0  0  0  0  0  0
  146.3619  133.6058  152.8414 H   0  0  0  0  0  0  0  0  0  0  0  0
  147.6292  133.1343  154.9058 H   0  0  0  0  0  0  0  0  0  0  0  0
  148.8006  134.9407  152.8967 H   0  0  0  0  0  0  0  0  0  0  0  0
  149.4947  136.6914  153.4164 H   0  0  0  0  0  0  0  0  0  0  0  0
  149.6754  136.9464  157.2251 H   0  0  0  0  0  0  0  0  0  0  0  0
  152.3252  142.0971  158.6658 H   0  0  0  0  0  0  0  0  0  0  0  0
  153.0455  141.0068  157.5016 H   0  0  0  0  0  0  0  0  0  0  0  0
  152.0664  140.3640  158.8166 H   0  0  0  0  0  0  0  0  0  0  0  0
  149.5555  140.8461  158.9134 H   0  0  0  0  0  0  0  0  0  0  0  0
  148.7859  141.8154  157.6608 H   0  0  0  0  0  0  0  0  0  0  0  0
  149.9373  142.5551  158.7514 H   0  0  0  0  0  0  0  0  0  0  0  0
  151.2605  143.3841  156.6954 H   0  0  0  0  0  0  0  0  0  0  0  0
  150.1653  142.5608  155.5909 H   0  0  0  0  0  0  0  0  0  0  0  0
  151.8921  142.2304  155.5263 H   0  0  0  0  0  0  0  0  0  0  0  0
  150.0581  138.9841  153.4168 H   0  0  0  0  0  0  0  0  0  0  0  0
  149.9072  132.3293  153.0285 H   0  0  0  0  0  0  0  0  0  0  0  0
  149.9868  132.3734  154.7719 H   0  0  0  0  0  0  0  0  0  0  0  0
  148.2608  130.6111  154.9413 H   0  0  0  0  0  0  0  0  0  0  0  0
  150.7528  130.1048  154.7036 H   0  0  0  0  0  0  0  0  0  0  0  0
  150.4691  129.7413  153.0065 H   0  0  0  0  0  0  0  0  0  0  0  0
  149.7230  128.7684  154.2805 H   0  0  0  0  0  0  0  0  0  0  0  0
  148.3215  130.6229  152.0242 H   0  0  0  0  0  0  0  0  0  0  0  0
  1  2  1  0  0  0  0
  1 24  1  0  0  0  0
  1 25  1  0  0  0  0
  1 26  1  0  0  0  0
  2  3  1  0  0  0  0
  2 27  1  0  0  0  0
  2 28  1  0  0  0  0
  3 22  1  0  0  0  0
  3  4  1  0  0  0  0
  3 53  1  0  0  0  0
  4  5  1  0  0  0  0
  4 29  1  0  0  0  0
  4 30  1  0  0  0  0
  5  6  1  0  0  0  0
  5 31  1  0  0  0  0
  5 32  1  0  0  0  0
  6  7  1  0  0  0  0
  6 21  1  0  0  0  0
  6 33  1  0  0  0  0
  7  8  1  0  0  0  0
  7 34  1  0  0  0  0
  8  9  2  0  0  0  0
  8 10  1  0  0  0  0
 10 11  1  0  0  0  0
 10 35  1  0  0  0  0
 11 20  1  0  0  0  0
 11 12  2  0  0  0  0
 12 13  1  0  0  0  0
 12 36  1  0  0  0  0
 13 14  2  0  0  0  0
 14 15  1  0  0  0  0
 14 19  1  0  0  0  0
 15 16  1  0  0  0  0
 15 17  1  0  0  0  0
 15 18  1  0  0  0  0
 16 37  1  0  0  0  0
 16 38  1  0  0  0  0
 16 39  1  0  0  0  0
 17 40  1  0  0  0  0
 17 41  1  0  0  0  0
 17 42  1  0  0  0  0
 18 43  1  0  0  0  0
 18 44  1  0  0  0  0
 18 45  1  0  0  0  0
 19 20  2  0  0  0  0
 20 46  1  0  0  0  0
 21 22  1  0  0  0  0
 21 47  1  0  0  0  0
 21 48  1  0  0  0  0
 22 23  1  0  0  0  0
 22 49  1  0  0  0  0
 23 50  1  0  0  0  0
 23 51  1  0  0  0  0
 23 52  1  0  0  0  0
M  CHG  1   3   1
M  END
> <s_m_source_file>
AV-unprocessed.smi

> <i_m_source_file_index>
2710

> <i_lp_mmshare_version>
43012

> <i_f3d_flags>
0

> <s_epik_input>
W0NIM11bQ0gyXU4xW0NIMl1bQ0gyXVtDQEhdKFtDSDJdW0NASF0xW0NIM10pW05IXUMoPU8pW05IXWMyW2NIXW5jKEMoW0NIM10pKFtDSDNdKVtDSDNdKW5bY0hdMg==

> <s_epik_cmdline>
J2VwaWtfcHl0aG9uJywgJy1waCcsICc3LjAnLCAnLXRuJywgJzgnLCAnLW1hJywgJzIwMCcsICctbWV0YWxfYmluZGluZycsICctaW1hZScsICc8aW5maWxlLm1hZT4nLCAnLW9tYWUnLCAnPG91dGZpbGUubWFlPic=

> <r_lp_tautomer_probability>
1

> <r_epik_Ionization_Penalty>
0.00396003

> <r_epik_Ionization_Penalty_Charging>
0.0039379

> <r_epik_Ionization_Penalty_Neutral>
2.21316e-05

> <r_epik_State_Penalty>
0.00281651

> <r_epik_Charging_Adjusted_Penalty>
0.00675441

> <i_epik_Tot_Q>
1

> <i_epik_Tot_abs_Q>
1

> <r_epik_Metal_State_Penalty>
-0

> <b_epik_Metal_Only>
0

> <s_lp_Force_Field>
OPLS_2005

> <r_lp_Energy>
20.1014

> <b_lp_Chiralities_Consistent>
1

> <s_lp_Variant>
AV-unprocessed.smi:2710-8

> <Gold.Version>
5.8.1

> <Gold.Id.Protein>
6NUR|6NUR_protein|mol2

> <Gold.PLP.Fitness>
44.2561

> <Gold.PLP.PLP>
-32.3496

> <Gold.PLP.part.hbond>
-3.6316

> <Gold.PLP.part.metal>
0.0000

> <Gold.PLP.part.buried>
-3.1582

> <Gold.PLP.part.nonpolar>
-23.8176

> <Gold.PLP.part.repulsive>
0.1038

> <Gold.PLP.ligand.clash>
0.0000

> <Gold.PLP.ligand.torsion>
0.8426

> <Gold.PLP.Chemscore.Hbond>
3.4750

> <Gold.PLP.Chemscore.CHOScore>
1.0000

> <Gold.PLP.Chemscore.Metal>
0.0000

> <Gold.Chemscore.Hbonds>
donor molecule, donor type, donor heavy atom, donor atom, acceptor molecule, acceptor atom, score
      L1  H     3    53       P1 10747  1.00
      L1  H     7    34       P1  7948  0.95
      L1  H    10    35       P1  7948  0.99
      P1  H  7989  7998       L1    19  0.53
      L1  C    20    46       P1  7957  1.00

> <Gold.PLP.Chemscore.Internal.Correction>
0.1667

> <Gold.Rescore>
     Score         DG    S(hbond)    S(metal)    S(lipo)     H(rot)  DE(clash)    DE(int)     intcor
     18.72     -20.93       2.68        0.00      84.02       1.31       0.13       2.08       ----

> <Gold.Chemscore.Fitness>
18.7163

> <Gold.Chemscore.DG>
-20.9263

> <Gold.Chemscore.ZeroCoef>
-5.4800

> <Gold.Chemscore.Hbond>
2.6840

> <Gold.Chemscore.Metal>
0.0000

> <Gold.Chemscore.Lipo>
84.0235

> <Gold.Chemscore.Internal_Hbond>
0.0000

> <Gold.Chemscore.DEClash>
0.1334

> <Gold.Chemscore.DEInternal>
2.0766

> <Gold.Chemscore.Rot>
1.3081

> <Gold.Chemscore.Internal.Correction>
   9.000000E+99

> <Gold.Chemscore.Hbonds>
donor molecule, donor type, donor heavy atom, donor atom, acceptor molecule, acceptor atom, score
      L1  H     3    53       P1 10747  0.97
      L1  H     7    34       P1  7948  0.20
      L1  H    10    35       P1  7948  0.74
      P1  H  7989  7998       L1    19  0.08

> <Gold.Chemscore.Hbond.Weighted>
-8.9644

> <Gold.Chemscore.Metal.Weighted>
-0.0000

> <Gold.Chemscore.Lipo.Weighted>
-9.8307

> <Gold.Chemscore.Internal_Hbond.Weighted>
0.0000

> <Gold.Chemscore.DEClash.Weighted>
0.1334

> <Gold.Chemscore.DEInternal.Weighted>
2.0766

> <Gold.Chemscore.Rot.Weighted>
3.3488

> <Gold.Chemscore.Internal.Correction.Weighted>
   9.000000E+99

> <Gold.Protein.RotatedTorsions>
[ 6907 6896 6895 6894 ] final  -41.84 input  -60.11 | X-H torsion
[ 7974 7965 7964 7962 ] final  109.41 input  175.53 | X-H torsion
[ 8008 7997 7996 7995 ] final   90.44 input   59.86 | X-H torsion
[ 10167 10162 10161 10158 ] final  -17.53 input  -65.29 | X-H torsion
[ 10718 10713 10712 10709 ] final  147.86 input   66.30 | X-H torsion
[ 10763 10752 10751 10750 ] final  -70.46 input  -60.55 | X-H torsion
[ 11005 11000 10999 10996 ] final  138.34 input  -57.11 | X-H torsion

> <Gold.Protein.ActiveResidues>
 VAL166  LYS551  ARG553  GLY616  TRP617  ASP618  TYR619  PRO620  LYS621  CYS622 
 ASP623  PHE694  ASN695  SER759  ASP760  ASP761  ALA762  ILE779  LEU786  VAL792 
 PHE793  MET794  SER795  GLU796  ALA797  LYS798  CYS799  TRP800  GLU811  SER814 

> <Gold.Protein.RotatedAtoms>
  150.9621  134.9007  159.7736 H   0  0  0  0  0  0  0  0  0  0  0  0  # atno 6907 bound_to 6896
  152.5160  134.3658  159.9310 H   0  0  0  0  0  0  0  0  0  0  0  0  # atno 6908 bound_to 6896
  151.3670  133.3828  159.2730 H   0  0  0  0  0  0  0  0  0  0  0  0  # atno 6909 bound_to 6896
  145.2681  139.2677  143.3981 H   0  0  0  0  0  0  0  0  0  0  0  0  # atno 7974 bound_to 7965
  156.0120  140.3349  155.6950 H   0  0  0  0  0  0  0  0  0  0  0  0  # atno 8008 bound_to 7997
  155.6144  140.0668  157.2714 H   0  0  0  0  0  0  0  0  0  0  0  0  # atno 8009 bound_to 7997
  154.4285  140.1788  156.1294 H   0  0  0  0  0  0  0  0  0  0  0  0  # atno 8010 bound_to 7997
  140.7248  143.5006  150.9874 H   0  0  0  0  0  0  0  0  0  0  0  0  # atno 10167 bound_to 10162
  157.3158  131.0896  151.1280 H   0  0  0  0  0  0  0  0  0  0  0  0  # atno 10718 bound_to 10713
  154.4180  135.5993  153.5992 H   0  0  0  0  0  0  0  0  0  0  0  0  # atno 10763 bound_to 10752
  152.9792  135.5945  154.3990 H   0  0  0  0  0  0  0  0  0  0  0  0  # atno 10764 bound_to 10752
  154.3811  135.2841  155.2189 H   0  0  0  0  0  0  0  0  0  0  0  0  # atno 10765 bound_to 10752
  140.0177  134.9411  157.0409 H   0  0  0  0  0  0  0  0  0  0  0  0  # atno 11005 bound_to 11000
  146.3255  140.3117  142.8627 LP  0  0  0  0  0  0  0  0  0  0  0  0  # atno 17320 bound_to 7965
  144.9359  140.8026  143.5660 LP  0  0  0  0  0  0  0  0  0  0  0  0  # atno 17321 bound_to 7965
  139.8715  143.7186  152.3166 LP  0  0  0  0  0  0  0  0  0  0  0  0  # atno 17342 bound_to 10162
  139.7437  144.7553  151.0613 LP  0  0  0  0  0  0  0  0  0  0  0  0  # atno 17343 bound_to 10162
  157.2584  130.6647  149.5963 LP  0  0  0  0  0  0  0  0  0  0  0  0  # atno 17370 bound_to 10713
  155.9681  130.4516  150.5743 LP  0  0  0  0  0  0  0  0  0  0  0  0  # atno 17371 bound_to 10713
  140.4442  134.1649  155.7176 LP  0  0  0  0  0  0  0  0  0  0  0  0  # atno 17394 bound_to 11000
  141.1753  133.8526  157.1440 LP  0  0  0  0  0  0  0  0  0  0  0  0  # atno 17395 bound_to 11000

$$$$
