AV-unprocessed.smi:645|AV-procd|sdf|3161|dock5
  -GOLD-   22720 0 83D 1   1.00000     0.00000
 Structure written by MMmdl.
 22 23  0  0  0  0  0  0  0  0  2 V2000
  150.1298  139.8682  158.4572 C   0  0  0  0  0  0  0  0  0  0  0  0
  151.5612  140.3239  158.1036 C   0  0  1  0  0  0  0  0  0  0  0  0
  151.7755  141.8249  158.3662 C   0  0  0  0  0  0  0  0  0  0  0  0
  152.7006  142.2966  159.3299 C   0  0  0  0  0  0  0  0  0  0  0  0
  152.8400  143.6855  159.5212 C   0  0  0  0  0  0  0  0  0  0  0  0
  152.1331  144.6060  158.8333 N   0  0  0  0  0  0  0  0  0  0  0  0
  151.2512  144.1597  157.9153 C   0  0  0  0  0  0  0  0  0  0  0  0
  151.0349  142.7937  157.6488 C   0  0  0  0  0  0  0  0  0  0  0  0
  152.5127  139.4755  158.7955 N   0  0  0  0  0  0  0  0  0  0  0  0
  153.2875  138.8077  157.9430 C   0  0  0  0  0  0  0  0  0  0  0  0
  154.1729  138.0497  158.3324 O   0  0  0  0  0  0  0  0  0  0  0  0
  152.9396  139.0980  156.6750 N   0  5  0  0  0  0  0  0  0  0  0  0
  151.9137  139.9768  156.6484 C   0  0  0  0  0  0  0  0  0  0  0  0
  151.3053  140.4483  155.6877 O   0  0  0  0  0  0  0  0  0  0  0  0
  149.3765  140.3988  157.8745 H   0  0  0  0  0  0  0  0  0  0  0  0
  149.9139  140.0431  159.5114 H   0  0  0  0  0  0  0  0  0  0  0  0
  149.9907  138.8028  158.2672 H   0  0  0  0  0  0  0  0  0  0  0  0
  153.3037  141.6222  159.9190 H   0  0  0  0  0  0  0  0  0  0  0  0
  153.5404  144.0676  160.2491 H   0  0  0  0  0  0  0  0  0  0  0  0
  150.6995  144.9147  157.3748 H   0  0  0  0  0  0  0  0  0  0  0  0
  150.3175  142.5004  156.8969 H   0  0  0  0  0  0  0  0  0  0  0  0
  152.5852  139.4267  159.8009 H   0  0  0  0  0  0  0  0  0  0  0  0
  1  2  1  0  0  0  0
  1 15  1  0  0  0  0
  1 16  1  0  0  0  0
  1 17  1  0  0  0  0
  2 13  1  0  0  0  0
  2  3  1  0  0  0  0
  2  9  1  0  0  0  0
  3  8  1  0  0  0  0
  3  4  2  0  0  0  0
  4  5  1  0  0  0  0
  4 18  1  0  0  0  0
  5  6  2  0  0  0  0
  5 19  1  0  0  0  0
  6  7  1  0  0  0  0
  7  8  2  0  0  0  0
  7 20  1  0  0  0  0
  8 21  1  0  0  0  0
  9 10  1  0  0  0  0
  9 22  1  0  0  0  0
 10 11  2  0  0  0  0
 10 12  1  0  0  0  0
 12 13  1  0  0  0  0
 13 14  2  0  0  0  0
M  CHG  1  12  -1
M  END
> <s_m_source_file>
AV-unprocessed.smi

> <i_m_source_file_index>
645

> <i_lp_mmshare_version>
43012

> <i_f3d_flags>
0

> <s_epik_input>
Tz1DMVtOSF1DKD1PKVtOSF1bQ0BAXTEoW0NIM10pYzJbY0hdW2NIXW5bY0hdW2NIXTI=

> <s_epik_cmdline>
J2VwaWtfcHl0aG9uJywgJy1waCcsICc3LjAnLCAnLXRuJywgJzgnLCAnLW1hJywgJzIwMCcsICctbWV0YWxfYmluZGluZycsICctaW1hZScsICc8aW5maWxlLm1hZT4nLCAnLW9tYWUnLCAnPG91dGZpbGUubWFlPic=

> <r_epik_Ionization_Penalty>
1.83307

> <r_epik_Ionization_Penalty_Charging>
1.82122

> <r_epik_Ionization_Penalty_Neutral>
0.0118514

> <r_epik_State_Penalty>
1.93645

> <r_epik_Charging_Adjusted_Penalty>
3.75767

> <i_epik_Tot_Q>
-1

> <i_epik_Tot_abs_Q>
1

> <r_epik_Metal_State_Penalty>
0.53507

> <b_epik_Metal_Only>
0

> <s_lp_Force_Field>
OPLS_2005

> <r_lp_Energy>
9.09868

> <b_lp_Chiralities_Consistent>
1

> <s_lp_Variant>
AV-unprocessed.smi:645-3

> <Gold.Version>
5.8.1

> <Gold.Id.Protein>
6NUR|6NUR_protein|mol2

> <Gold.PLP.Fitness>
36.0571

> <Gold.PLP.PLP>
-24.9780

> <Gold.PLP.part.hbond>
-2.0000

> <Gold.PLP.part.metal>
0.0000

> <Gold.PLP.part.buried>
-3.5873

> <Gold.PLP.part.nonpolar>
-20.1265

> <Gold.PLP.part.repulsive>
0.1510

> <Gold.PLP.ligand.clash>
0.0000

> <Gold.PLP.ligand.torsion>
0.0715

> <Gold.PLP.Chemscore.Hbond>
2.8160

> <Gold.PLP.Chemscore.CHOScore>
0.8974

> <Gold.PLP.Chemscore.Metal>
0.0000

> <Gold.Chemscore.Hbonds>
donor molecule, donor type, donor heavy atom, donor atom, acceptor molecule, acceptor atom, score
      P1  H  7989  7998       L1    14  0.41
      P1  H  7997  8009       L1    12  1.40
      L1  C     7    20       P1  8028  1.00

> <Gold.PLP.Chemscore.Internal.Correction>
0.0820

> <Gold.Rescore>
     Score         DG    S(hbond)    S(metal)    S(lipo)     H(rot)  DE(clash)    DE(int)     intcor
     12.32     -12.94       0.89        0.00      60.21       1.00       0.01       0.61       ----

> <Gold.Chemscore.Fitness>
12.3205

> <Gold.Chemscore.DG>
-12.9365

> <Gold.Chemscore.ZeroCoef>
-5.4800

> <Gold.Chemscore.Hbond>
0.8899

> <Gold.Chemscore.Metal>
0.0000

> <Gold.Chemscore.Lipo>
60.2078

> <Gold.Chemscore.Internal_Hbond>
0.0000

> <Gold.Chemscore.DEClash>
0.0089

> <Gold.Chemscore.DEInternal>
0.6071

> <Gold.Chemscore.Rot>
1.0000

> <Gold.Chemscore.Internal.Correction>
   9.000000E+99

> <Gold.Chemscore.Hbonds>
donor molecule, donor type, donor heavy atom, donor atom, acceptor molecule, acceptor atom, score
      P1  H  7989  7998       L1    14  0.39
      P1  H  7997  8009       L1    12  0.03

> <Gold.Chemscore.Hbond.Weighted>
-2.9722

> <Gold.Chemscore.Metal.Weighted>
-0.0000

> <Gold.Chemscore.Lipo.Weighted>
-7.0443

> <Gold.Chemscore.Internal_Hbond.Weighted>
0.0000

> <Gold.Chemscore.DEClash.Weighted>
0.0089

> <Gold.Chemscore.DEInternal.Weighted>
0.6071

> <Gold.Chemscore.Rot.Weighted>
2.5600

> <Gold.Chemscore.Internal.Correction.Weighted>
   9.000000E+99

> <Gold.Protein.RotatedTorsions>
[ 6907 6896 6895 6894 ] final  -53.06 input  -60.11 | X-H torsion
[ 7974 7965 7964 7962 ] final   97.43 input  175.53 | X-H torsion
[ 8008 7997 7996 7995 ] final -165.64 input   59.86 | X-H torsion
[ 10167 10162 10161 10158 ] final  -13.40 input  -65.29 | X-H torsion
[ 10718 10713 10712 10709 ] final  130.71 input   66.30 | X-H torsion
[ 10763 10752 10751 10750 ] final  -82.91 input  -60.55 | X-H torsion
[ 11005 11000 10999 10996 ] final  -90.12 input  -57.11 | X-H torsion

> <Gold.Protein.ActiveResidues>
 VAL166  LYS551  ARG553  GLY616  TRP617  ASP618  TYR619  PRO620  LYS621  CYS622 
 ASP623  PHE694  ASN695  SER759  ASP760  ASP761  ALA762  ILE779  LEU786  VAL792 
 PHE793  MET794  SER795  GLU796  ALA797  LYS798  CYS799  TRP800  GLU811  SER814 

> <Gold.Protein.RotatedAtoms>
  150.8461  134.7770  159.6970 H   0  0  0  0  0  0  0  0  0  0  0  0  # atno 6907 bound_to 6896
  152.4537  134.5334  159.9827 H   0  0  0  0  0  0  0  0  0  0  0  0  # atno 6908 bound_to 6896
  151.5465  133.3386  159.2981 H   0  0  0  0  0  0  0  0  0  0  0  0  # atno 6909 bound_to 6896
  145.4256  139.2316  143.3172 H   0  0  0  0  0  0  0  0  0  0  0  0  # atno 7974 bound_to 7965
  155.8526  140.0965  157.1665 H   0  0  0  0  0  0  0  0  0  0  0  0  # atno 8008 bound_to 7997
  154.3986  140.1380  156.3925 H   0  0  0  0  0  0  0  0  0  0  0  0  # atno 8009 bound_to 7997
  155.7944  140.3455  155.5370 H   0  0  0  0  0  0  0  0  0  0  0  0  # atno 8010 bound_to 7997
  140.7181  143.5431  150.9387 H   0  0  0  0  0  0  0  0  0  0  0  0  # atno 10167 bound_to 10162
  157.5037  131.1095  150.9391 H   0  0  0  0  0  0  0  0  0  0  0  0  # atno 10718 bound_to 10713
  154.5815  135.5574  153.7190 H   0  0  0  0  0  0  0  0  0  0  0  0  # atno 10763 bound_to 10752
  153.0083  135.6321  154.1976 H   0  0  0  0  0  0  0  0  0  0  0  0  # atno 10764 bound_to 10752
  154.1917  135.2882  155.3000 H   0  0  0  0  0  0  0  0  0  0  0  0  # atno 10765 bound_to 10752
  141.1572  133.7672  156.9692 H   0  0  0  0  0  0  0  0  0  0  0  0  # atno 11005 bound_to 11000
  146.2634  140.4986  142.8844 LP  0  0  0  0  0  0  0  0  0  0  0  0  # atno 17320 bound_to 7965
  144.8216  140.6560  143.6349 LP  0  0  0  0  0  0  0  0  0  0  0  0  # atno 17321 bound_to 7965
  139.9154  143.6670  152.3107 LP  0  0  0  0  0  0  0  0  0  0  0  0  # atno 17342 bound_to 10162
  139.7068  144.7627  151.1180 LP  0  0  0  0  0  0  0  0  0  0  0  0  # atno 17343 bound_to 10162
  157.0054  130.5616  149.5315 LP  0  0  0  0  0  0  0  0  0  0  0  0  # atno 17370 bound_to 10713
  156.0245  130.5339  150.8367 LP  0  0  0  0  0  0  0  0  0  0  0  0  # atno 17371 bound_to 10713
  140.1141  134.9458  157.2108 LP  0  0  0  0  0  0  0  0  0  0  0  0  # atno 17394 bound_to 11000
  140.3156  134.2974  155.7257 LP  0  0  0  0  0  0  0  0  0  0  0  0  # atno 17395 bound_to 11000

$$$$
