AV-unprocessed.smi:1813|AV-procd|sdf|7347|dock5
  -GOLD-   22720 9 13D 1   1.00000     0.00000
 Structure written by MMmdl.
 39 40  0  0  0  0  0  0  0  0  3 V2000
  147.9058  133.1945  153.1779 C   0  0  0  0  0  0  0  0  0  0  0  0
  147.8132  134.5848  153.5963 N   0  0  0  0  0  0  0  0  0  0  0  0
  147.7530  134.9858  154.8739 C   0  0  0  0  0  0  0  0  0  0  0  0
  147.7788  134.2078  155.8282 O   0  0  0  0  0  0  0  0  0  0  0  0
  147.6701  136.4978  155.1062 C   0  0  0  0  0  0  0  0  0  0  0  0
  148.9075  137.2177  154.7094 N   0  3  2  0  0  0  0  0  0  0  0  0
  150.0329  137.0056  155.6594 C   0  0  0  0  0  0  0  0  0  0  0  0
  151.3231  137.6714  155.1505 C   0  0  0  0  0  0  0  0  0  0  0  0
  151.1209  139.1765  154.8855 C   0  0  2  0  0  0  0  0  0  0  0  0
  150.8987  139.9191  156.1258 N   0  0  0  0  0  0  0  0  0  0  0  0
  151.6947  139.9253  157.2039 C   0  0  0  0  0  0  0  0  0  0  0  0
  152.7449  139.2794  157.1993 O   0  0  0  0  0  0  0  0  0  0  0  0
  151.2143  140.6732  158.2222 N   0  5  0  0  0  0  0  0  0  0  0  0
  152.0426  141.1094  159.1852 C   0  0  0  0  0  0  0  0  0  0  0  0
  151.8862  142.2852  159.8036 N   0  0  0  0  0  0  0  0  0  0  0  0
  152.8551  142.5330  160.7777 C   0  0  0  0  0  0  0  0  0  0  0  0
  153.7658  141.5183  160.9096 C   0  0  0  0  0  0  0  0  0  0  0  0
  153.4314  140.2134  159.8077 S   0  0  0  0  0  0  0  0  0  0  0  0
  149.9264  139.3667  153.9360 C   0  0  0  0  0  0  0  0  0  0  0  0
  148.6609  138.6614  154.4594 C   0  0  0  0  0  0  0  0  0  0  0  0
  147.8754  133.1308  152.0902 H   0  0  0  0  0  0  0  0  0  0  0  0
  147.0751  132.6100  153.5760 H   0  0  0  0  0  0  0  0  0  0  0  0
  148.8410  132.7493  153.5199 H   0  0  0  0  0  0  0  0  0  0  0  0
  147.7939  135.2849  152.8683 H   0  0  0  0  0  0  0  0  0  0  0  0
  146.8298  136.8569  154.5107 H   0  0  0  0  0  0  0  0  0  0  0  0
  147.4307  136.7150  156.1487 H   0  0  0  0  0  0  0  0  0  0  0  0
  149.7649  137.4023  156.6400 H   0  0  0  0  0  0  0  0  0  0  0  0
  150.2149  135.9392  155.7940 H   0  0  0  0  0  0  0  0  0  0  0  0
  152.1320  137.5101  155.8636 H   0  0  0  0  0  0  0  0  0  0  0  0
  151.6367  137.1835  154.2268 H   0  0  0  0  0  0  0  0  0  0  0  0
  152.0132  139.5793  154.4030 H   0  0  0  0  0  0  0  0  0  0  0  0
  150.0595  140.4774  156.1785 H   0  0  0  0  0  0  0  0  0  0  0  0
  152.8198  143.4594  161.3313 H   0  0  0  0  0  0  0  0  0  0  0  0
  154.6071  141.4580  161.5831 H   0  0  0  0  0  0  0  0  0  0  0  0
  149.7279  140.4287  153.7865 H   0  0  0  0  0  0  0  0  0  0  0  0
  150.1801  138.9647  152.9541 H   0  0  0  0  0  0  0  0  0  0  0  0
  147.8626  138.7746  153.7253 H   0  0  0  0  0  0  0  0  0  0  0  0
  148.3126  139.1358  155.3783 H   0  0  0  0  0  0  0  0  0  0  0  0
  149.1926  136.8213  153.8250 H   0  0  0  0  0  0  0  0  0  0  0  0
  1  2  1  0  0  0  0
  1 21  1  0  0  0  0
  1 22  1  0  0  0  0
  1 23  1  0  0  0  0
  2  3  1  0  0  0  0
  2 24  1  0  0  0  0
  3  4  2  0  0  0  0
  3  5  1  0  0  0  0
  5  6  1  0  0  0  0
  5 25  1  0  0  0  0
  5 26  1  0  0  0  0
  6 20  1  0  0  0  0
  6  7  1  0  0  0  0
  6 39  1  0  0  0  0
  7  8  1  0  0  0  0
  7 27  1  0  0  0  0
  7 28  1  0  0  0  0
  8  9  1  0  0  0  0
  8 29  1  0  0  0  0
  8 30  1  0  0  0  0
  9 10  1  0  0  0  0
  9 19  1  0  0  0  0
  9 31  1  0  0  0  0
 10 11  1  0  0  0  0
 10 32  1  0  0  0  0
 11 12  2  0  0  0  0
 11 13  1  0  0  0  0
 13 14  1  0  0  0  0
 14 18  1  0  0  0  0
 14 15  2  0  0  0  0
 15 16  1  0  0  0  0
 16 17  2  0  0  0  0
 16 33  1  0  0  0  0
 17 18  1  0  0  0  0
 17 34  1  0  0  0  0
 19 20  1  0  0  0  0
 19 35  1  0  0  0  0
 19 36  1  0  0  0  0
 20 37  1  0  0  0  0
 20 38  1  0  0  0  0
M  CHG  1   6   1
M  CHG  1  13  -1
M  END
> <s_m_source_file>
AV-unprocessed.smi

> <i_m_source_file_index>
1813

> <i_lp_mmshare_version>
43012

> <i_f3d_flags>
0

> <s_epik_input>
W0NIM11bTkhdQyg9TylbQ0gyXU4xW0NIMl1bQ0gyXVtDSF0oW0NIMl1bQ0gyXTEpW05IXUMoPU8pW05IXWMybltjSF1bY0hdczI=

> <s_epik_cmdline>
J2VwaWtfcHl0aG9uJywgJy1waCcsICc3LjAnLCAnLXRuJywgJzgnLCAnLW1hJywgJzIwMCcsICctbWV0YWxfYmluZGluZycsICctaW1hZScsICc8aW5maWxlLm1hZT4nLCAnLW9tYWUnLCAnPG91dGZpbGUubWFlPic=

> <r_lp_tautomer_probability>
0.999

> <r_epik_Ionization_Penalty>
7.12128

> <r_epik_Ionization_Penalty_Charging>
6.25357

> <r_epik_Ionization_Penalty_Neutral>
0.867707

> <r_epik_State_Penalty>
6.33838

> <r_epik_Charging_Adjusted_Penalty>
12.592

> <i_epik_Tot_Q>
0

> <i_epik_Tot_abs_Q>
2

> <r_epik_Metal_State_Penalty>
2.34161

> <b_epik_Metal_Only>
1

> <s_lp_Force_Field>
OPLS_2005

> <r_lp_Energy>
4.26142

> <b_lp_Chiralities_Consistent>
1

> <s_lp_Variant>
AV-unprocessed.smi:1813-8

> <Gold.Version>
5.8.1

> <Gold.Id.Protein>
6NUR|6NUR_protein|mol2

> <Gold.PLP.Fitness>
43.1858

> <Gold.PLP.PLP>
-32.5351

> <Gold.PLP.part.hbond>
-3.3872

> <Gold.PLP.part.metal>
0.0000

> <Gold.PLP.part.buried>
-2.2064

> <Gold.PLP.part.nonpolar>
-26.4056

> <Gold.PLP.part.repulsive>
0.1030

> <Gold.PLP.ligand.clash>
0.0000

> <Gold.PLP.ligand.torsion>
0.5551

> <Gold.PLP.Chemscore.Hbond>
3.9120

> <Gold.PLP.Chemscore.CHOScore>
0.0000

> <Gold.PLP.Chemscore.Metal>
0.0000

> <Gold.Chemscore.Hbonds>
donor molecule, donor type, donor heavy atom, donor atom, acceptor molecule, acceptor atom, score
      L1  H     2    24       P1  7948  0.77
      L1  H     6    39       P1  7948  1.92
      P1  H  7997  8010       L1    12  1.00

> <Gold.PLP.Chemscore.Internal.Correction>
0.0248

> <Gold.Rescore>
     Score         DG    S(hbond)    S(metal)    S(lipo)     H(rot)  DE(clash)    DE(int)     intcor
     13.53     -16.88       2.27        0.00      71.27       1.76       0.27       3.08       ----

> <Gold.Chemscore.Fitness>
13.5345

> <Gold.Chemscore.DG>
-16.8799

> <Gold.Chemscore.ZeroCoef>
-5.4800

> <Gold.Chemscore.Hbond>
2.2658

> <Gold.Chemscore.Metal>
0.0000

> <Gold.Chemscore.Lipo>
71.2689

> <Gold.Chemscore.Internal_Hbond>
0.0000

> <Gold.Chemscore.DEClash>
0.2692

> <Gold.Chemscore.DEInternal>
3.0761

> <Gold.Chemscore.Rot>
1.7603

> <Gold.Chemscore.Internal.Correction>
   9.000000E+99

> <Gold.Chemscore.Hbonds>
donor molecule, donor type, donor heavy atom, donor atom, acceptor molecule, acceptor atom, score
      L1  H     2    24       P1  7948  0.76
      L1  H     6    39       P1  7948  0.89
      P1  H  7997  8010       L1    12  0.96

> <Gold.Chemscore.Hbond.Weighted>
-7.5678

> <Gold.Chemscore.Metal.Weighted>
-0.0000

> <Gold.Chemscore.Lipo.Weighted>
-8.3385

> <Gold.Chemscore.Internal_Hbond.Weighted>
0.0000

> <Gold.Chemscore.DEClash.Weighted>
0.2692

> <Gold.Chemscore.DEInternal.Weighted>
3.0761

> <Gold.Chemscore.Rot.Weighted>
4.5064

> <Gold.Chemscore.Internal.Correction.Weighted>
   9.000000E+99

> <Gold.Protein.RotatedTorsions>
[ 6907 6896 6895 6894 ] final  -12.24 input  -60.11 | X-H torsion
[ 7974 7965 7964 7962 ] final -148.94 input  175.53 | X-H torsion
[ 8008 7997 7996 7995 ] final   70.70 input   59.86 | X-H torsion
[ 10167 10162 10161 10158 ] final    9.41 input  -65.29 | X-H torsion
[ 10718 10713 10712 10709 ] final  -47.57 input   66.30 | X-H torsion
[ 10763 10752 10751 10750 ] final  -49.28 input  -60.55 | X-H torsion
[ 11005 11000 10999 10996 ] final  -34.85 input  -57.11 | X-H torsion

> <Gold.Protein.ActiveResidues>
 VAL166  LYS551  ARG553  GLY616  TRP617  ASP618  TYR619  PRO620  LYS621  CYS622 
 ASP623  PHE694  ASN695  SER759  ASP760  ASP761  ALA762  ILE779  LEU786  VAL792 
 PHE793  MET794  SER795  GLU796  ALA797  LYS798  CYS799  TRP800  GLU811  SER814 

> <Gold.Protein.RotatedAtoms>
  151.3736  135.0927  159.9473 H   0  0  0  0  0  0  0  0  0  0  0  0  # atno 6907 bound_to 6896
  152.5128  133.9141  159.7512 H   0  0  0  0  0  0  0  0  0  0  0  0  # atno 6908 bound_to 6896
  150.9559  133.6443  159.2792 H   0  0  0  0  0  0  0  0  0  0  0  0  # atno 6909 bound_to 6896
  144.7998  140.5130  143.5715 H   0  0  0  0  0  0  0  0  0  0  0  0  # atno 7974 bound_to 7965
  155.7428  140.3490  155.5112 H   0  0  0  0  0  0  0  0  0  0  0  0  # atno 8008 bound_to 7997
  155.9078  140.1045  157.1323 H   0  0  0  0  0  0  0  0  0  0  0  0  # atno 8009 bound_to 7997
  154.4052  140.1273  156.4505 H   0  0  0  0  0  0  0  0  0  0  0  0  # atno 8010 bound_to 7997
  140.6256  143.8107  150.7229 H   0  0  0  0  0  0  0  0  0  0  0  0  # atno 10167 bound_to 10162
  156.2071  130.4159  149.9163 H   0  0  0  0  0  0  0  0  0  0  0  0  # atno 10718 bound_to 10713
  154.0915  135.6576  153.4853 H   0  0  0  0  0  0  0  0  0  0  0  0  # atno 10763 bound_to 10752
  153.0320  135.5203  154.7376 H   0  0  0  0  0  0  0  0  0  0  0  0  # atno 10764 bound_to 10752
  154.6501  135.3000  154.9966 H   0  0  0  0  0  0  0  0  0  0  0  0  # atno 10765 bound_to 10752
  140.9749  133.7089  156.1585 H   0  0  0  0  0  0  0  0  0  0  0  0  # atno 11005 bound_to 11000
  145.5582  139.1478  143.3356 LP  0  0  0  0  0  0  0  0  0  0  0  0  # atno 17320 bound_to 7965
  146.2276  140.5718  142.8989 LP  0  0  0  0  0  0  0  0  0  0  0  0  # atno 17321 bound_to 7965
  140.1707  143.4196  152.2002 LP  0  0  0  0  0  0  0  0  0  0  0  0  # atno 17342 bound_to 10162
  139.5477  144.7312  151.4531 LP  0  0  0  0  0  0  0  0  0  0  0  0  # atno 17343 bound_to 10162
  156.6853  130.8874  151.3581 LP  0  0  0  0  0  0  0  0  0  0  0  0  # atno 17370 bound_to 10713
  157.7018  130.9341  150.0809 LP  0  0  0  0  0  0  0  0  0  0  0  0  # atno 17371 bound_to 10713
  140.7274  134.4292  157.5569 LP  0  0  0  0  0  0  0  0  0  0  0  0  # atno 17394 bound_to 11000
  139.8926  134.8750  156.2261 LP  0  0  0  0  0  0  0  0  0  0  0  0  # atno 17395 bound_to 11000

$$$$
