AV-unprocessed.smi:2674|AV-procd|sdf|10359|dock5
  -GOLD-   2272014383D 1   1.00000     0.00000
 Structure written by MMmdl.
 45 46  0  0  0  0  0  0  0  0  2 V2000
  146.8419  141.4436  154.3672 C   0  0  0  0  0  0  0  0  0  0  0  0
  147.8177  140.3777  154.7186 N   0  3  1  0  0  0  0  0  0  0  0  0
  147.9952  139.3937  153.6102 C   0  0  0  0  0  0  0  0  0  0  0  0
  146.6733  138.8121  153.0631 C   0  0  0  0  0  0  0  0  0  0  0  0
  146.8824  137.5113  152.4363 N   0  0  0  0  0  0  0  0  0  0  0  0
  145.9087  136.6354  152.1465 C   0  0  0  0  0  0  0  0  0  0  0  0
  144.7199  136.8433  152.3917 O   0  0  0  0  0  0  0  0  0  0  0  0
  146.4024  135.5286  151.5639 N   0  0  0  0  0  0  0  0  0  0  0  0
  145.6869  134.4063  151.0672 C   0  0  0  0  0  0  0  0  0  0  0  0
  146.4873  133.3869  150.5039 C   0  0  0  0  0  0  0  0  0  0  0  0
  145.8722  132.2351  149.9762 C   0  0  0  0  0  0  0  0  0  0  0  0
  144.4706  132.1326  150.0252 C   0  0  0  0  0  0  0  0  0  0  0  0
  143.7480  133.1923  150.6036 C   0  0  0  0  0  0  0  0  0  0  0  0
  144.3354  134.2972  151.1097 N   0  0  0  0  0  0  0  0  0  0  0  0
  149.0854  140.9580  155.2749 C   0  0  0  0  0  0  0  0  0  0  0  0
  150.2939  139.9826  155.3012 C   0  0  0  0  0  0  0  0  0  0  0  0
  151.5512  140.6303  155.9045 C   0  0  0  0  0  0  0  0  0  0  0  0
  151.2829  141.1658  157.3161 C   0  0  0  0  0  0  0  0  0  0  0  0
  150.0992  142.1411  157.3105 C   0  0  0  0  0  0  0  0  0  0  0  0
  148.8431  141.4904  156.7098 C   0  0  0  0  0  0  0  0  0  0  0  0
  147.1167  141.9262  153.4283 H   0  0  0  0  0  0  0  0  0  0  0  0
  146.7809  142.2191  155.1285 H   0  0  0  0  0  0  0  0  0  0  0  0
  145.8343  141.0421  154.2660 H   0  0  0  0  0  0  0  0  0  0  0  0
  148.5648  139.8640  152.8072 H   0  0  0  0  0  0  0  0  0  0  0  0
  148.5784  138.5441  153.9636 H   0  0  0  0  0  0  0  0  0  0  0  0
  145.9540  138.6885  153.8731 H   0  0  0  0  0  0  0  0  0  0  0  0
  146.2137  139.4743  152.3287 H   0  0  0  0  0  0  0  0  0  0  0  0
  147.8333  137.2614  152.2062 H   0  0  0  0  0  0  0  0  0  0  0  0
  147.4040  135.4898  151.4456 H   0  0  0  0  0  0  0  0  0  0  0  0
  147.5632  133.4822  150.4733 H   0  0  0  0  0  0  0  0  0  0  0  0
  146.4661  131.4450  149.5409 H   0  0  0  0  0  0  0  0  0  0  0  0
  143.9624  131.2655  149.6302 H   0  0  0  0  0  0  0  0  0  0  0  0
  142.6702  133.1534  150.6606 H   0  0  0  0  0  0  0  0  0  0  0  0
  149.3719  141.7945  154.6345 H   0  0  0  0  0  0  0  0  0  0  0  0
  150.0420  139.0905  155.8768 H   0  0  0  0  0  0  0  0  0  0  0  0
  150.5485  139.6515  154.2940 H   0  0  0  0  0  0  0  0  0  0  0  0
  152.3649  139.9047  155.9329 H   0  0  0  0  0  0  0  0  0  0  0  0
  151.8876  141.4450  155.2618 H   0  0  0  0  0  0  0  0  0  0  0  0
  151.0725  140.3351  157.9910 H   0  0  0  0  0  0  0  0  0  0  0  0
  152.1736  141.6618  157.7031 H   0  0  0  0  0  0  0  0  0  0  0  0
  149.8926  142.4772  158.3272 H   0  0  0  0  0  0  0  0  0  0  0  0
  150.3600  143.0320  156.7376 H   0  0  0  0  0  0  0  0  0  0  0  0
  148.0379  142.2231  156.7320 H   0  0  0  0  0  0  0  0  0  0  0  0
  148.5207  140.6698  157.3525 H   0  0  0  0  0  0  0  0  0  0  0  0
  147.4081  139.8532  155.4784 H   0  0  0  0  0  0  0  0  0  0  0  0
  1  2  1  0  0  0  0
  1 21  1  0  0  0  0
  1 22  1  0  0  0  0
  1 23  1  0  0  0  0
  2  3  1  0  0  0  0
  2 15  1  0  0  0  0
  2 45  1  0  0  0  0
  3  4  1  0  0  0  0
  3 24  1  0  0  0  0
  3 25  1  0  0  0  0
  4  5  1  0  0  0  0
  4 26  1  0  0  0  0
  4 27  1  0  0  0  0
  5  6  1  0  0  0  0
  5 28  1  0  0  0  0
  6  7  2  0  0  0  0
  6  8  1  0  0  0  0
  8  9  1  0  0  0  0
  8 29  1  0  0  0  0
  9 14  1  0  0  0  0
  9 10  2  0  0  0  0
 10 11  1  0  0  0  0
 10 30  1  0  0  0  0
 11 12  2  0  0  0  0
 11 31  1  0  0  0  0
 12 13  1  0  0  0  0
 12 32  1  0  0  0  0
 13 14  2  0  0  0  0
 13 33  1  0  0  0  0
 15 20  1  0  0  0  0
 15 16  1  0  0  0  0
 15 34  1  0  0  0  0
 16 17  1  0  0  0  0
 16 35  1  0  0  0  0
 16 36  1  0  0  0  0
 17 18  1  0  0  0  0
 17 37  1  0  0  0  0
 17 38  1  0  0  0  0
 18 19  1  0  0  0  0
 18 39  1  0  0  0  0
 18 40  1  0  0  0  0
 19 20  1  0  0  0  0
 19 41  1  0  0  0  0
 19 42  1  0  0  0  0
 20 43  1  0  0  0  0
 20 44  1  0  0  0  0
M  CHG  1   2   1
M  END
> <s_m_source_file>
AV-unprocessed.smi

> <i_m_source_file_index>
2674

> <i_lp_mmshare_version>
43012

> <i_f3d_flags>
0

> <s_epik_input>
W0NIMl0xW0NIMl1bQ0gyXVtDSDJdW0NIMl1bQ0hdMU4oW0NIM10pW0NIMl1bQ0gyXVtOSF1DKD1PKVtOSF1jMltjSF1bY0hdW2NIXVtjSF1uMg==

> <s_epik_cmdline>
J2VwaWtfcHl0aG9uJywgJy1waCcsICc3LjAnLCAnLXRuJywgJzgnLCAnLW1hJywgJzIwMCcsICctbWV0YWxfYmluZGluZycsICctaW1hZScsICc8aW5maWxlLm1hZT4nLCAnLW9tYWUnLCAnPG91dGZpbGUubWFlPic=

> <r_epik_Ionization_Penalty>
0.00206741

> <r_epik_Ionization_Penalty_Charging>
0.00203269

> <r_epik_Ionization_Penalty_Neutral>
3.47205e-05

> <r_epik_State_Penalty>
0.00139005

> <r_epik_Charging_Adjusted_Penalty>
0.00342273

> <i_epik_Tot_Q>
1

> <i_epik_Tot_abs_Q>
1

> <r_epik_Metal_State_Penalty>
-0

> <b_epik_Metal_Only>
0

> <s_lp_Force_Field>
OPLS_2005

> <r_lp_Energy>
21.1862

> <b_lp_Chiralities_Consistent>
1

> <s_lp_Variant>
AV-unprocessed.smi:2674-2

> <Gold.Version>
5.8.1

> <Gold.Id.Protein>
6NUR|6NUR_protein|mol2

> <Gold.PLP.Fitness>
42.6799

> <Gold.PLP.PLP>
-34.9021

> <Gold.PLP.part.hbond>
-1.8514

> <Gold.PLP.part.metal>
0.0000

> <Gold.PLP.part.buried>
-2.7378

> <Gold.PLP.part.nonpolar>
-30.1450

> <Gold.PLP.part.repulsive>
0.5123

> <Gold.PLP.ligand.clash>
0.0000

> <Gold.PLP.ligand.torsion>
0.6124

> <Gold.PLP.Chemscore.Hbond>
1.9600

> <Gold.PLP.Chemscore.CHOScore>
1.0000

> <Gold.PLP.Chemscore.Metal>
0.0000

> <Gold.Chemscore.Hbonds>
donor molecule, donor type, donor heavy atom, donor atom, acceptor molecule, acceptor atom, score
      L1  H     5    28       P1  7948  1.00
      L1  H     8    29       P1  7948  0.96
      L1  C    13    33       P1 10186  1.00

> <Gold.PLP.Chemscore.Internal.Correction>
0.1226

> <Gold.Rescore>
     Score         DG    S(hbond)    S(metal)    S(lipo)     H(rot)  DE(clash)    DE(int)     intcor
     16.07     -17.97       1.92        0.00      89.24       1.70       0.07       1.84       ----

> <Gold.Chemscore.Fitness>
16.0650

> <Gold.Chemscore.DG>
-17.9739

> <Gold.Chemscore.ZeroCoef>
-5.4800

> <Gold.Chemscore.Hbond>
1.9199

> <Gold.Chemscore.Metal>
0.0000

> <Gold.Chemscore.Lipo>
89.2404

> <Gold.Chemscore.Internal_Hbond>
0.0000

> <Gold.Chemscore.DEClash>
0.0714

> <Gold.Chemscore.DEInternal>
1.8375

> <Gold.Chemscore.Rot>
1.7030

> <Gold.Chemscore.Internal.Correction>
   9.000000E+99

> <Gold.Chemscore.Hbonds>
donor molecule, donor type, donor heavy atom, donor atom, acceptor molecule, acceptor atom, score
      L1  H     5    28       P1  7948  0.92
      L1  H     8    29       P1  7948  0.85

> <Gold.Chemscore.Hbond.Weighted>
-6.4125

> <Gold.Chemscore.Metal.Weighted>
-0.0000

> <Gold.Chemscore.Lipo.Weighted>
-10.4411

> <Gold.Chemscore.Internal_Hbond.Weighted>
0.0000

> <Gold.Chemscore.DEClash.Weighted>
0.0714

> <Gold.Chemscore.DEInternal.Weighted>
1.8375

> <Gold.Chemscore.Rot.Weighted>
4.3597

> <Gold.Chemscore.Internal.Correction.Weighted>
   9.000000E+99

> <Gold.Protein.RotatedTorsions>
[ 6907 6896 6895 6894 ] final   29.93 input  -60.11 | X-H torsion
[ 7974 7965 7964 7962 ] final  150.08 input  175.53 | X-H torsion
[ 8008 7997 7996 7995 ] final  168.08 input   59.86 | X-H torsion
[ 10167 10162 10161 10158 ] final  143.04 input  -65.29 | X-H torsion
[ 10718 10713 10712 10709 ] final  -36.57 input   66.30 | X-H torsion
[ 10763 10752 10751 10750 ] final   32.20 input  -60.55 | X-H torsion
[ 11005 11000 10999 10996 ] final  158.97 input  -57.11 | X-H torsion

> <Gold.Protein.ActiveResidues>
 VAL166  LYS551  ARG553  GLY616  TRP617  ASP618  TYR619  PRO620  LYS621  CYS622 
 ASP623  PHE694  ASN695  SER759  ASP760  ASP761  ALA762  ILE779  LEU786  VAL792 
 PHE793  MET794  SER795  GLU796  ALA797  LYS798  CYS799  TRP800  GLU811  SER814 

> <Gold.Protein.RotatedAtoms>
  152.0387  134.9724  160.0573 H   0  0  0  0  0  0  0  0  0  0  0  0  # atno 6907 bound_to 6896
  152.1172  133.4328  159.4667 H   0  0  0  0  0  0  0  0  0  0  0  0  # atno 6908 bound_to 6896
  150.6847  134.2497  159.4549 H   0  0  0  0  0  0  0  0  0  0  0  0  # atno 6909 bound_to 6896
  144.8390  139.6363  143.6025 H   0  0  0  0  0  0  0  0  0  0  0  0  # atno 7974 bound_to 7965
  156.1578  140.1600  156.8664 H   0  0  0  0  0  0  0  0  0  0  0  0  # atno 8008 bound_to 7997
  154.5131  140.0796  156.8065 H   0  0  0  0  0  0  0  0  0  0  0  0  # atno 8009 bound_to 7997
  155.3769  140.3403  155.4247 H   0  0  0  0  0  0  0  0  0  0  0  0  # atno 8010 bound_to 7997
  139.4979  144.6067  151.6362 H   0  0  0  0  0  0  0  0  0  0  0  0  # atno 10167 bound_to 10162
  156.3253  130.4271  149.7922 H   0  0  0  0  0  0  0  0  0  0  0  0  # atno 10718 bound_to 10713
  153.0275  135.6419  154.1318 H   0  0  0  0  0  0  0  0  0  0  0  0  # atno 10763 bound_to 10752
  154.1045  135.2857  155.3246 H   0  0  0  0  0  0  0  0  0  0  0  0  # atno 10764 bound_to 10752
  154.6375  135.5471  153.7814 H   0  0  0  0  0  0  0  0  0  0  0  0  # atno 10765 bound_to 10752
  140.1917  134.8403  157.2919 H   0  0  0  0  0  0  0  0  0  0  0  0  # atno 11005 bound_to 11000
  146.2685  139.6578  142.9312 LP  0  0  0  0  0  0  0  0  0  0  0  0  # atno 17320 bound_to 7965
  145.4734  141.0436  143.2686 LP  0  0  0  0  0  0  0  0  0  0  0  0  # atno 17321 bound_to 7965
  140.5731  144.0075  150.6227 LP  0  0  0  0  0  0  0  0  0  0  0  0  # atno 17342 bound_to 10162
  140.3199  143.3144  152.0794 LP  0  0  0  0  0  0  0  0  0  0  0  0  # atno 17343 bound_to 10162
  156.5215  130.8217  151.3205 LP  0  0  0  0  0  0  0  0  0  0  0  0  # atno 17370 bound_to 10713
  157.7420  130.9881  150.2484 LP  0  0  0  0  0  0  0  0  0  0  0  0  # atno 17371 bound_to 10713
  140.2153  134.4089  155.7592 LP  0  0  0  0  0  0  0  0  0  0  0  0  # atno 17394 bound_to 11000
  141.2226  133.7138  156.8403 LP  0  0  0  0  0  0  0  0  0  0  0  0  # atno 17395 bound_to 11000

$$$$
