AV-unprocessed.smi:1305|AV-procd|sdf|5433|dock2
  -GOLD-   22720 4593D 1   1.00000     0.00000
 Structure written by MMmdl.
 32 33  0  0  0  0  0  0  0  0  1 V2000
  153.4485  142.1795  161.4314 C   0  0  0  0  0  0  0  0  0  0  0  0
  153.6269  141.1562  160.3049 C   0  0  0  0  0  0  0  0  0  0  0  0
  152.7847  141.4909  159.0678 C   0  0  0  0  0  0  0  0  0  0  0  0
  152.1909  139.9841  158.2440 S   0  0  0  0  0  0  0  0  0  0  0  0
  150.8384  140.6444  157.3120 C   0  0  0  0  0  0  0  0  0  0  0  0
  149.8484  141.3781  157.8303 N   0  0  0  0  0  0  0  0  0  0  0  0
  149.0080  141.6686  156.7806 N   0  0  0  0  0  0  0  0  0  0  0  0
  149.5701  141.1027  155.7112 C   0  0  0  0  0  0  0  0  0  0  0  0
  148.9627  141.1397  154.3442 C   0  0  0  0  0  0  0  0  0  0  0  0
  147.7071  141.9376  154.0705 C   0  0  0  0  0  0  0  0  0  0  0  0
  147.6588  140.4330  154.0418 C   0  0  0  0  0  0  0  0  0  0  0  0
  150.7114  140.4358  155.9832 N   0  0  0  0  0  0  0  0  0  0  0  0
  151.5720  139.6809  155.0784 C   0  0  0  0  0  0  0  0  0  0  0  0
  150.9271  138.3655  154.6321 C   0  0  0  0  0  0  0  0  0  0  0  0
  150.1931  138.3837  153.5163 N   0  0  0  0  0  0  0  0  0  0  0  0
  151.1010  137.3380  155.2831 O   0  0  0  0  0  0  0  0  0  0  0  0
  154.0560  141.9146  162.2970 H   0  0  0  0  0  0  0  0  0  0  0  0
  152.4093  142.2295  161.7570 H   0  0  0  0  0  0  0  0  0  0  0  0
  153.7471  143.1769  161.1080 H   0  0  0  0  0  0  0  0  0  0  0  0
  154.6804  141.1072  160.0277 H   0  0  0  0  0  0  0  0  0  0  0  0
  153.3574  140.1657  160.6729 H   0  0  0  0  0  0  0  0  0  0  0  0
  151.9283  142.1012  159.3562 H   0  0  0  0  0  0  0  0  0  0  0  0
  153.3779  142.0715  158.3605 H   0  0  0  0  0  0  0  0  0  0  0  0
  149.7361  141.1247  153.5787 H   0  0  0  0  0  0  0  0  0  0  0  0
  147.2264  142.4341  154.9109 H   0  0  0  0  0  0  0  0  0  0  0  0
  147.6465  142.4644  153.1205 H   0  0  0  0  0  0  0  0  0  0  0  0
  147.5626  139.9518  153.0709 H   0  0  0  0  0  0  0  0  0  0  0  0
  147.1446  139.9350  154.8614 H   0  0  0  0  0  0  0  0  0  0  0  0
  151.8105  140.2893  154.2059 H   0  0  0  0  0  0  0  0  0  0  0  0
  152.5200  139.4771  155.5778 H   0  0  0  0  0  0  0  0  0  0  0  0
  149.7512  137.5368  153.1883 H   0  0  0  0  0  0  0  0  0  0  0  0
  150.0827  139.2465  153.0035 H   0  0  0  0  0  0  0  0  0  0  0  0
  1  2  1  0  0  0  0
  1 17  1  0  0  0  0
  1 18  1  0  0  0  0
  1 19  1  0  0  0  0
  2  3  1  0  0  0  0
  2 20  1  0  0  0  0
  2 21  1  0  0  0  0
  3  4  1  0  0  0  0
  3 22  1  0  0  0  0
  3 23  1  0  0  0  0
  4  5  1  0  0  0  0
  5 12  1  0  0  0  0
  5  6  2  0  0  0  0
  6  7  1  0  0  0  0
  7  8  2  0  0  0  0
  8  9  1  0  0  0  0
  8 12  1  0  0  0  0
  9 11  1  0  0  0  0
  9 10  1  0  0  0  0
  9 24  1  0  0  0  0
 10 11  1  0  0  0  0
 10 25  1  0  0  0  0
 10 26  1  0  0  0  0
 11 27  1  0  0  0  0
 11 28  1  0  0  0  0
 12 13  1  0  0  0  0
 13 14  1  0  0  0  0
 13 29  1  0  0  0  0
 13 30  1  0  0  0  0
 14 15  1  0  0  0  0
 14 16  2  0  0  0  0
 15 31  1  0  0  0  0
 15 32  1  0  0  0  0
M  END
> <s_m_source_file>
AV-unprocessed.smi

> <i_m_source_file_index>
1305

> <i_lp_mmshare_version>
43012

> <i_f3d_flags>
0

> <s_epik_input>
W0NIM11bQ0gyXVtDSDJdU2Mxbm5jKFtDSF0yW0NIMl1bQ0gyXTIpbjFbQ0gyXUMoPU8pW05IMl0=

> <s_epik_cmdline>
J2VwaWtfcHl0aG9uJywgJy1waCcsICc3LjAnLCAnLXRuJywgJzgnLCAnLW1hJywgJzIwMCcsICctbWV0YWxfYmluZGluZycsICctaW1hZScsICc8aW5maWxlLm1hZT4nLCAnLW9tYWUnLCAnPG91dGZpbGUubWFlPic=

> <r_lp_tautomer_probability>
1

> <r_epik_Ionization_Penalty>
4.21319e-06

> <r_epik_Ionization_Penalty_Charging>
0

> <r_epik_Ionization_Penalty_Neutral>
4.21319e-06

> <r_epik_State_Penalty>
-0

> <r_epik_Charging_Adjusted_Penalty>
0

> <i_epik_Tot_Q>
0

> <i_epik_Tot_abs_Q>
0

> <r_epik_Metal_State_Penalty>
-0

> <b_epik_Metal_Only>
0

> <s_lp_Force_Field>
OPLS_2005

> <r_lp_Energy>
5.08374

> <b_lp_Chiralities_Consistent>
1

> <s_lp_Variant>
AV-unprocessed.smi:1305-1

> <Gold.Version>
5.8.1

> <Gold.Id.Protein>
6NUR|6NUR_protein|mol2

> <Gold.PLP.Fitness>
37.6843

> <Gold.PLP.PLP>
-33.7543

> <Gold.PLP.part.hbond>
-2.2160

> <Gold.PLP.part.metal>
0.0000

> <Gold.PLP.part.buried>
-2.1984

> <Gold.PLP.part.nonpolar>
-29.7318

> <Gold.PLP.part.repulsive>
0.3538

> <Gold.PLP.ligand.clash>
0.0000

> <Gold.PLP.ligand.torsion>
0.9550

> <Gold.PLP.Chemscore.Hbond>
1.8564

> <Gold.PLP.Chemscore.CHOScore>
0.0000

> <Gold.PLP.Chemscore.Metal>
0.0000

> <Gold.Chemscore.Hbonds>
donor molecule, donor type, donor heavy atom, donor atom, acceptor molecule, acceptor atom, score
      L1  H    15    31       P1  7948  1.00
      L1  H    15    32       P1  7957  0.81

> <Gold.PLP.Chemscore.Internal.Correction>
0.2708

> <Gold.Rescore>
     Score         DG    S(hbond)    S(metal)    S(lipo)     H(rot)  DE(clash)    DE(int)     intcor
     11.20     -12.26       1.74        0.00      64.40       2.57       0.22       0.85       ----

> <Gold.Chemscore.Fitness>
11.1957

> <Gold.Chemscore.DG>
-12.2587

> <Gold.Chemscore.ZeroCoef>
-5.4800

> <Gold.Chemscore.Hbond>
1.7427

> <Gold.Chemscore.Metal>
0.0000

> <Gold.Chemscore.Lipo>
64.4033

> <Gold.Chemscore.Internal_Hbond>
0.0000

> <Gold.Chemscore.DEClash>
0.2173

> <Gold.Chemscore.DEInternal>
0.8457

> <Gold.Chemscore.Rot>
2.5691

> <Gold.Chemscore.Internal.Correction>
   9.000000E+99

> <Gold.Chemscore.Hbonds>
donor molecule, donor type, donor heavy atom, donor atom, acceptor molecule, acceptor atom, score
      L1  H    15    31       P1  7948  0.58
      L1  H    15    32       P1  7957  0.71

> <Gold.Chemscore.Hbond.Weighted>
-5.8205

> <Gold.Chemscore.Metal.Weighted>
-0.0000

> <Gold.Chemscore.Lipo.Weighted>
-7.5352

> <Gold.Chemscore.Internal_Hbond.Weighted>
0.0000

> <Gold.Chemscore.DEClash.Weighted>
0.2173

> <Gold.Chemscore.DEInternal.Weighted>
0.8457

> <Gold.Chemscore.Rot.Weighted>
6.5770

> <Gold.Chemscore.Internal.Correction.Weighted>
   9.000000E+99

> <Gold.Protein.RotatedTorsions>
[ 6907 6896 6895 6894 ] final  -73.58 input  -60.11 | X-H torsion
[ 7974 7965 7964 7962 ] final -111.60 input  175.53 | X-H torsion
[ 8008 7997 7996 7995 ] final   22.71 input   59.86 | X-H torsion
[ 10167 10162 10161 10158 ] final -107.90 input  -65.29 | X-H torsion
[ 10718 10713 10712 10709 ] final   58.04 input   66.30 | X-H torsion
[ 10763 10752 10751 10750 ] final  175.44 input  -60.55 | X-H torsion
[ 11005 11000 10999 10996 ] final  -19.51 input  -57.11 | X-H torsion

> <Gold.Protein.ActiveResidues>
 VAL166  LYS551  ARG553  GLY616  TRP617  ASP618  TYR619  PRO620  LYS621  CYS622 
 ASP623  PHE694  ASN695  SER759  ASP760  ASP761  ALA762  ILE779  LEU786  VAL792 
 PHE793  MET794  SER795  GLU796  ALA797  LYS798  CYS799  TRP800  GLU811  SER814 

> <Gold.Protein.RotatedAtoms>
  150.7125  134.4995  159.5554 H   0  0  0  0  0  0  0  0  0  0  0  0  # atno 6907 bound_to 6896
  152.2595  134.8046  160.0442 H   0  0  0  0  0  0  0  0  0  0  0  0  # atno 6908 bound_to 6896
  151.8764  133.3451  159.3788 H   0  0  0  0  0  0  0  0  0  0  0  0  # atno 6909 bound_to 6896
  145.1542  140.8845  143.3629 H   0  0  0  0  0  0  0  0  0  0  0  0  # atno 7974 bound_to 7965
  154.9698  140.3088  155.4993 H   0  0  0  0  0  0  0  0  0  0  0  0  # atno 8008 bound_to 7997
  156.2967  140.2286  156.4729 H   0  0  0  0  0  0  0  0  0  0  0  0  # atno 8009 bound_to 7997
  154.7887  140.0441  157.1172 H   0  0  0  0  0  0  0  0  0  0  0  0  # atno 8010 bound_to 7997
  140.1719  143.4036  152.1348 H   0  0  0  0  0  0  0  0  0  0  0  0  # atno 10167 bound_to 10162
  157.5563  130.8803  149.9041 H   0  0  0  0  0  0  0  0  0  0  0  0  # atno 10718 bound_to 10713
  154.4677  135.2770  155.1666 H   0  0  0  0  0  0  0  0  0  0  0  0  # atno 10763 bound_to 10752
  154.3428  135.6166  153.5608 H   0  0  0  0  0  0  0  0  0  0  0  0  # atno 10764 bound_to 10752
  152.9861  135.5792  154.5052 H   0  0  0  0  0  0  0  0  0  0  0  0  # atno 10765 bound_to 10752
  140.8373  133.7952  155.9823 H   0  0  0  0  0  0  0  0  0  0  0  0  # atno 11005 bound_to 11000
  145.0399  139.3269  143.5982 LP  0  0  0  0  0  0  0  0  0  0  0  0  # atno 17320 bound_to 7965
  146.3491  139.9769  142.8700 LP  0  0  0  0  0  0  0  0  0  0  0  0  # atno 17321 bound_to 7965
  139.5334  144.7184  151.4977 LP  0  0  0  0  0  0  0  0  0  0  0  0  # atno 17342 bound_to 10162
  140.6576  143.8566  150.6852 LP  0  0  0  0  0  0  0  0  0  0  0  0  # atno 17343 bound_to 10162
  156.0622  130.3698  150.0957 LP  0  0  0  0  0  0  0  0  0  0  0  0  # atno 17370 bound_to 10713
  156.9126  130.9656  151.3561 LP  0  0  0  0  0  0  0  0  0  0  0  0  # atno 17371 bound_to 10713
  140.8933  134.2468  157.5082 LP  0  0  0  0  0  0  0  0  0  0  0  0  # atno 17394 bound_to 11000
  139.8704  134.9672  156.4588 LP  0  0  0  0  0  0  0  0  0  0  0  0  # atno 17395 bound_to 11000

$$$$
