AV-unprocessed.smi:3261|AV-procd|sdf|12482|dock8
  -GOLD-   2272018383D 1   1.00000     0.00000
 Structure written by MMmdl.
 30 31  0  0  0  0  0  0  0  0  3 V2000
  146.7877  132.8805  153.9749 O   0  0  0  0  0  0  0  0  0  0  0  0
  147.5758  132.3210  153.2143 C   0  0  0  0  0  0  0  0  0  0  0  0
  147.2640  132.2314  151.8973 N   0  0  0  0  0  0  0  0  0  0  0  0
  146.0844  132.6476  151.2241 C   0  0  0  0  0  0  0  0  0  0  0  0
  145.4684  133.8418  151.6580 C   0  0  0  0  0  0  0  0  0  0  0  0
  144.3086  134.3027  151.0026 C   0  0  0  0  0  0  0  0  0  0  0  0
  143.8041  133.6083  149.9600 N   0  3  0  0  0  0  0  0  0  0  0  0
  144.3695  132.4723  149.4977 C   0  0  0  0  0  0  0  0  0  0  0  0
  145.5311  131.9632  150.1128 C   0  0  0  0  0  0  0  0  0  0  0  0
  148.7625  131.8145  153.6688 N   0  5  0  0  0  0  0  0  0  0  0  0
  149.7830  132.4562  154.5127 C   0  0  2  0  0  0  0  0  0  0  0  0
  150.2921  131.4944  155.6064 C   0  0  0  0  0  0  0  0  0  0  0  0
  151.0627  132.3079  156.6560 C   0  0  0  0  0  0  0  0  0  0  0  0
  150.2612  133.9580  156.6965 S   0  0  0  0  0  0  0  0  0  0  0  0
  149.4027  134.0589  157.8868 O   0  0  0  0  0  0  0  0  0  0  0  0
  151.2732  134.9868  156.4090 O   0  0  0  0  0  0  0  0  0  0  0  0
  149.2083  133.6936  155.2159 C   0  0  0  0  0  0  0  0  0  0  0  0
  147.9988  131.8721  151.3056 H   0  0  0  0  0  0  0  0  0  0  0  0
  145.8757  134.3973  152.4906 H   0  0  0  0  0  0  0  0  0  0  0  0
  143.7752  135.2008  151.2780 H   0  0  0  0  0  0  0  0  0  0  0  0
  143.8835  132.0105  148.6507 H   0  0  0  0  0  0  0  0  0  0  0  0
  145.9844  131.0665  149.7174 H   0  0  0  0  0  0  0  0  0  0  0  0
  150.6459  132.7816  153.9294 H   0  0  0  0  0  0  0  0  0  0  0  0
  149.4408  131.0161  156.0936 H   0  0  0  0  0  0  0  0  0  0  0  0
  150.9092  130.6973  155.1910 H   0  0  0  0  0  0  0  0  0  0  0  0
  151.0337  131.8526  157.6456 H   0  0  0  0  0  0  0  0  0  0  0  0
  152.1062  132.4429  156.3672 H   0  0  0  0  0  0  0  0  0  0  0  0
  149.2122  134.5825  154.5853 H   0  0  0  0  0  0  0  0  0  0  0  0
  148.1889  133.5163  155.5612 H   0  0  0  0  0  0  0  0  0  0  0  0
  142.9645  133.9595  149.4987 H   0  0  0  0  0  0  0  0  0  0  0  0
  1  2  2  0  0  0  0
  2  3  1  0  0  0  0
  2 10  1  0  0  0  0
  3  4  1  0  0  0  0
  3 18  1  0  0  0  0
  4  9  1  0  0  0  0
  4  5  2  0  0  0  0
  5  6  1  0  0  0  0
  5 19  1  0  0  0  0
  6  7  2  0  0  0  0
  6 20  1  0  0  0  0
  7  8  1  0  0  0  0
  7 30  1  0  0  0  0
  8  9  2  0  0  0  0
  8 21  1  0  0  0  0
  9 22  1  0  0  0  0
 10 11  1  0  0  0  0
 11 17  1  0  0  0  0
 11 12  1  0  0  0  0
 11 23  1  0  0  0  0
 12 13  1  0  0  0  0
 12 24  1  0  0  0  0
 12 25  1  0  0  0  0
 13 14  1  0  0  0  0
 13 26  1  0  0  0  0
 13 27  1  0  0  0  0
 14 15  2  0  0  0  0
 14 16  2  0  0  0  0
 14 17  1  0  0  0  0
 17 28  1  0  0  0  0
 17 29  1  0  0  0  0
M  CHG  1   7   1
M  CHG  1  10  -1
M  END
> <s_m_source_file>
AV-unprocessed.smi

> <i_m_source_file_index>
3261

> <i_lp_mmshare_version>
43012

> <i_f3d_flags>
0

> <s_epik_input>
Tz1TMSg9TylbQ0gyXVtDSDJdW0NASF0oW0NIMl0xKVtOSF1DKD1PKVtOSF1jMltjSF1bY0hdbltjSF1bY0hdMg==

> <s_epik_cmdline>
J2VwaWtfcHl0aG9uJywgJy1waCcsICc3LjAnLCAnLXRuJywgJzgnLCAnLW1hJywgJzIwMCcsICctbWV0YWxfYmluZGluZycsICctaW1hZScsICc8aW5maWxlLm1hZT4nLCAnLW9tYWUnLCAnPG91dGZpbGUubWFlPic=

> <r_epik_Ionization_Penalty>
8.1176

> <r_epik_Ionization_Penalty_Charging>
8.1176

> <r_epik_Ionization_Penalty_Neutral>
3.03687e-06

> <r_epik_State_Penalty>
7.79629

> <r_epik_Charging_Adjusted_Penalty>
15.9139

> <i_epik_Tot_Q>
0

> <i_epik_Tot_abs_Q>
2

> <r_epik_Metal_State_Penalty>
3.7997

> <b_epik_Metal_Only>
1

> <s_lp_Force_Field>
OPLS_2005

> <r_lp_Energy>
18.9878

> <b_lp_Chiralities_Consistent>
1

> <s_lp_Variant>
AV-unprocessed.smi:3261-5

> <Gold.Version>
5.8.1

> <Gold.Id.Protein>
6NUR|6NUR_protein|mol2

> <Gold.PLP.Fitness>
44.1898

> <Gold.PLP.PLP>
-31.0745

> <Gold.PLP.part.hbond>
-4.0000

> <Gold.PLP.part.metal>
0.0000

> <Gold.PLP.part.buried>
-6.5240

> <Gold.PLP.part.nonpolar>
-21.5432

> <Gold.PLP.part.repulsive>
0.2559

> <Gold.PLP.ligand.clash>
0.0000

> <Gold.PLP.ligand.torsion>
0.9070

> <Gold.PLP.Chemscore.Hbond>
4.9760

> <Gold.PLP.Chemscore.CHOScore>
0.0000

> <Gold.PLP.Chemscore.Metal>
0.0000

> <Gold.Chemscore.Hbonds>
donor molecule, donor type, donor heavy atom, donor atom, acceptor molecule, acceptor atom, score
      L1  H     3    18       P1 10747  1.00
      L1  H     7    30       P1 10186  2.00
      P1  H  6896  6909       L1    15  1.00

> <Gold.PLP.Chemscore.Internal.Correction>
0.0013

> <Gold.Rescore>
     Score         DG    S(hbond)    S(metal)    S(lipo)     H(rot)  DE(clash)    DE(int)     intcor
     19.41     -23.13       3.90        0.00      61.51       1.00       0.02       3.69       ----

> <Gold.Chemscore.Fitness>
19.4121

> <Gold.Chemscore.DG>
-23.1300

> <Gold.Chemscore.ZeroCoef>
-5.4800

> <Gold.Chemscore.Hbond>
3.8962

> <Gold.Chemscore.Metal>
0.0000

> <Gold.Chemscore.Lipo>
61.5105

> <Gold.Chemscore.Internal_Hbond>
0.0000

> <Gold.Chemscore.DEClash>
0.0237

> <Gold.Chemscore.DEInternal>
3.6942

> <Gold.Chemscore.Rot>
1.0000

> <Gold.Chemscore.Internal.Correction>
   9.000000E+99

> <Gold.Chemscore.Hbonds>
donor molecule, donor type, donor heavy atom, donor atom, acceptor molecule, acceptor atom, score
      L1  H     3    18       P1 10747  1.00
      L1  H     7    30       P1 10186  0.91
      P1  H  6896  6909       L1    15  0.39
      P1  H 10752 10764       L1    16  0.05

> <Gold.Chemscore.Hbond.Weighted>
-13.0133

> <Gold.Chemscore.Metal.Weighted>
-0.0000

> <Gold.Chemscore.Lipo.Weighted>
-7.1967

> <Gold.Chemscore.Internal_Hbond.Weighted>
0.0000

> <Gold.Chemscore.DEClash.Weighted>
0.0237

> <Gold.Chemscore.DEInternal.Weighted>
3.6942

> <Gold.Chemscore.Rot.Weighted>
2.5600

> <Gold.Chemscore.Internal.Correction.Weighted>
   9.000000E+99

> <Gold.Protein.RotatedTorsions>
[ 6907 6896 6895 6894 ] final   16.92 input  -60.11 | X-H torsion
[ 7974 7965 7964 7962 ] final  101.49 input  175.53 | X-H torsion
[ 8008 7997 7996 7995 ] final  152.59 input   59.86 | X-H torsion
[ 10167 10162 10161 10158 ] final -145.45 input  -65.29 | X-H torsion
[ 10718 10713 10712 10709 ] final  160.99 input   66.30 | X-H torsion
[ 10763 10752 10751 10750 ] final  -51.58 input  -60.55 | X-H torsion
[ 11005 11000 10999 10996 ] final   46.95 input  -57.11 | X-H torsion

> <Gold.Protein.ActiveResidues>
 VAL166  LYS551  ARG553  GLY616  TRP617  ASP618  TYR619  PRO620  LYS621  CYS622 
 ASP623  PHE694  ASN695  SER759  ASP760  ASP761  ALA762  ILE779  LEU786  VAL792 
 PHE793  MET794  SER795  GLU796  ALA797  LYS798  CYS799  TRP800  GLU811  SER814 

> <Gold.Protein.RotatedAtoms>
  151.8414  135.0588  160.0448 H   0  0  0  0  0  0  0  0  0  0  0  0  # atno 6907 bound_to 6896
  152.2806  133.5462  159.5503 H   0  0  0  0  0  0  0  0  0  0  0  0  # atno 6908 bound_to 6896
  150.7188  134.0486  159.3832 H   0  0  0  0  0  0  0  0  0  0  0  0  # atno 6909 bound_to 6896
  145.3717  139.2397  143.3452 H   0  0  0  0  0  0  0  0  0  0  0  0  # atno 7974 bound_to 7965
  156.2622  140.2016  156.6358 H   0  0  0  0  0  0  0  0  0  0  0  0  # atno 8008 bound_to 7997
  154.6648  140.0557  157.0126 H   0  0  0  0  0  0  0  0  0  0  0  0  # atno 8009 bound_to 7997
  155.1223  140.3226  155.4497 H   0  0  0  0  0  0  0  0  0  0  0  0  # atno 8010 bound_to 7997
  139.7805  143.8108  152.2638 H   0  0  0  0  0  0  0  0  0  0  0  0  # atno 10167 bound_to 10162
  157.1427  131.0544  151.2319 H   0  0  0  0  0  0  0  0  0  0  0  0  # atno 10718 bound_to 10713
  154.1289  135.6523  153.4918 H   0  0  0  0  0  0  0  0  0  0  0  0  # atno 10763 bound_to 10752
  153.0201  135.5288  154.7021 H   0  0  0  0  0  0  0  0  0  0  0  0  # atno 10764 bound_to 10752
  154.6250  135.2969  155.0253 H   0  0  0  0  0  0  0  0  0  0  0  0  # atno 10765 bound_to 10752
  140.1322  134.4690  155.8512 H   0  0  0  0  0  0  0  0  0  0  0  0  # atno 11005 bound_to 11000
  146.2882  140.4369  142.8749 LP  0  0  0  0  0  0  0  0  0  0  0  0  # atno 17320 bound_to 7965
  144.8572  140.7087  143.6131 LP  0  0  0  0  0  0  0  0  0  0  0  0  # atno 17321 bound_to 7965
  139.8169  144.7312  150.9623 LP  0  0  0  0  0  0  0  0  0  0  0  0  # atno 17342 bound_to 10162
  140.7818  143.4196  151.0863 LP  0  0  0  0  0  0  0  0  0  0  0  0  # atno 17343 bound_to 10162
  157.4292  130.7481  149.6976 LP  0  0  0  0  0  0  0  0  0  0  0  0  # atno 17370 bound_to 10713
  155.9785  130.4050  150.3642 LP  0  0  0  0  0  0  0  0  0  0  0  0  # atno 17371 bound_to 10713
  141.2172  133.6800  156.7091 LP  0  0  0  0  0  0  0  0  0  0  0  0  # atno 17394 bound_to 11000
  140.2827  134.8304  157.3948 LP  0  0  0  0  0  0  0  0  0  0  0  0  # atno 17395 bound_to 11000

$$$$
