AV-unprocessed.smi:3268|AV-procd|sdf|12508|dock5
  -GOLD-   2272018413D 1   1.00000     0.00000
 Structure written by MMmdl.
 40 41  0  0  0  0  0  0  0  0  2 V2000
  148.6626  141.5018  155.7469 C   0  0  0  0  0  0  0  0  0  0  0  0
  148.8418  140.6602  154.4674 C   0  0  2  0  0  0  0  0  0  0  0  0
  147.5241  140.0060  154.0264 C   0  0  0  0  0  0  0  0  0  0  0  0
  146.4818  140.2229  154.6454 O   0  0  0  0  0  0  0  0  0  0  0  0
  147.5814  139.2040  152.9509 N   0  0  0  0  0  0  0  0  0  0  0  0
  146.4444  138.4934  152.3764 C   0  0  0  0  0  0  0  0  0  0  0  0
  146.0883  137.2358  153.1940 C   0  0  0  0  0  0  0  0  0  0  0  0
  146.0446  136.0103  152.3570 N   0  3  0  0  0  0  0  0  0  0  0  0
  145.9172  134.7756  153.1757 C   0  0  0  0  0  0  0  0  0  0  0  0
  146.0043  133.5130  152.3017 C   0  0  0  0  0  0  0  0  0  0  0  0
  144.9479  133.5396  151.1901 C   0  0  0  0  0  0  0  0  0  0  0  0
  145.0793  134.8331  150.3763 C   0  0  0  0  0  0  0  0  0  0  0  0
  145.0095  136.0687  151.2896 C   0  0  0  0  0  0  0  0  0  0  0  0
  149.8837  139.6497  154.6078 N   0  0  0  0  0  0  0  0  0  0  0  0
  151.0656  139.7183  155.2247 C   0  0  0  0  0  0  0  0  0  0  0  0
  151.7949  138.6166  155.1178 N   0  0  0  0  0  0  0  0  0  0  0  0
  150.9510  137.8575  154.3579 C   0  0  0  0  0  0  0  0  0  0  0  0
  149.7986  138.4322  154.0146 N   0  0  0  0  0  0  0  0  0  0  0  0
  147.9186  142.2854  155.5993 H   0  0  0  0  0  0  0  0  0  0  0  0
  149.5975  141.9890  156.0251 H   0  0  0  0  0  0  0  0  0  0  0  0
  148.3395  140.8983  156.5964 H   0  0  0  0  0  0  0  0  0  0  0  0
  149.1649  141.3400  153.6770 H   0  0  0  0  0  0  0  0  0  0  0  0
  148.4766  139.0764  152.5010 H   0  0  0  0  0  0  0  0  0  0  0  0
  145.6076  139.1904  152.3503 H   0  0  0  0  0  0  0  0  0  0  0  0
  146.6598  138.2273  151.3401 H   0  0  0  0  0  0  0  0  0  0  0  0
  146.8443  137.1055  153.9694 H   0  0  0  0  0  0  0  0  0  0  0  0
  145.1378  137.3654  153.7139 H   0  0  0  0  0  0  0  0  0  0  0  0
  146.7116  134.7441  153.9227 H   0  0  0  0  0  0  0  0  0  0  0  0
  144.9710  134.7938  153.7192 H   0  0  0  0  0  0  0  0  0  0  0  0
  146.9993  133.4405  151.8604 H   0  0  0  0  0  0  0  0  0  0  0  0
  145.8743  132.6229  152.9182 H   0  0  0  0  0  0  0  0  0  0  0  0
  145.0604  132.6713  150.5401 H   0  0  0  0  0  0  0  0  0  0  0  0
  143.9503  133.4770  151.6267 H   0  0  0  0  0  0  0  0  0  0  0  0
  146.0255  134.8310  149.8333 H   0  0  0  0  0  0  0  0  0  0  0  0
  144.2907  134.8806  149.6243 H   0  0  0  0  0  0  0  0  0  0  0  0
  144.0203  136.1403  151.7448 H   0  0  0  0  0  0  0  0  0  0  0  0
  145.1412  136.9629  150.6818 H   0  0  0  0  0  0  0  0  0  0  0  0
  151.4006  140.5935  155.7619 H   0  0  0  0  0  0  0  0  0  0  0  0
  151.1956  136.8536  154.0432 H   0  0  0  0  0  0  0  0  0  0  0  0
  146.9418  135.9473  151.8970 H   0  0  0  0  0  0  0  0  0  0  0  0
  1  2  1  0  0  0  0
  1 19  1  0  0  0  0
  1 20  1  0  0  0  0
  1 21  1  0  0  0  0
  2  3  1  0  0  0  0
  2 14  1  0  0  0  0
  2 22  1  0  0  0  0
  3  4  2  0  0  0  0
  3  5  1  0  0  0  0
  5  6  1  0  0  0  0
  5 23  1  0  0  0  0
  6  7  1  0  0  0  0
  6 24  1  0  0  0  0
  6 25  1  0  0  0  0
  7  8  1  0  0  0  0
  7 26  1  0  0  0  0
  7 27  1  0  0  0  0
  8 13  1  0  0  0  0
  8  9  1  0  0  0  0
  8 40  1  0  0  0  0
  9 10  1  0  0  0  0
  9 28  1  0  0  0  0
  9 29  1  0  0  0  0
 10 11  1  0  0  0  0
 10 30  1  0  0  0  0
 10 31  1  0  0  0  0
 11 12  1  0  0  0  0
 11 32  1  0  0  0  0
 11 33  1  0  0  0  0
 12 13  1  0  0  0  0
 12 34  1  0  0  0  0
 12 35  1  0  0  0  0
 13 36  1  0  0  0  0
 13 37  1  0  0  0  0
 14 18  1  0  0  0  0
 14 15  1  0  0  0  0
 15 16  2  0  0  0  0
 15 38  1  0  0  0  0
 16 17  1  0  0  0  0
 17 18  2  0  0  0  0
 17 39  1  0  0  0  0
M  CHG  1   8   1
M  END
> <s_m_source_file>
AV-unprocessed.smi

> <i_m_source_file_index>
3268

> <i_lp_mmshare_version>
43012

> <i_f3d_flags>
0

> <s_epik_input>
bjFbY0hdbltjSF1uMVtDQEhdKFtDSDNdKUMoPU8pW05IXVtDSDJdW0NIMl1OMltDSDJdW0NIMl1bQ0gyXVtDSDJdW0NIMl0y

> <s_epik_cmdline>
J2VwaWtfcHl0aG9uJywgJy1waCcsICc3LjAnLCAnLXRuJywgJzgnLCAnLW1hJywgJzIwMCcsICctbWV0YWxfYmluZGluZycsICctaW1hZScsICc8aW5maWxlLm1hZT4nLCAnLW9tYWUnLCAnPG91dGZpbGUubWFlPic=

> <r_lp_tautomer_probability>
1

> <r_epik_Ionization_Penalty>
0.00266407

> <r_epik_Ionization_Penalty_Charging>
0.00265606

> <r_epik_Ionization_Penalty_Neutral>
8.01095e-06

> <r_epik_State_Penalty>
0.00184955

> <r_epik_Charging_Adjusted_Penalty>
0.00450561

> <i_epik_Tot_Q>
1

> <i_epik_Tot_abs_Q>
1

> <r_epik_Metal_State_Penalty>
-0

> <b_epik_Metal_Only>
0

> <s_lp_Force_Field>
OPLS_2005

> <r_lp_Energy>
22.0187

> <b_lp_Chiralities_Consistent>
1

> <s_lp_Variant>
AV-unprocessed.smi:3268-1

> <Gold.Version>
5.8.1

> <Gold.Id.Protein>
6NUR|6NUR_protein|mol2

> <Gold.PLP.Fitness>
38.1420

> <Gold.PLP.PLP>
-28.5500

> <Gold.PLP.part.hbond>
-2.0000

> <Gold.PLP.part.metal>
0.0000

> <Gold.PLP.part.buried>
-0.8030

> <Gold.PLP.part.nonpolar>
-26.5633

> <Gold.PLP.part.repulsive>
0.7030

> <Gold.PLP.ligand.clash>
0.0000

> <Gold.PLP.ligand.torsion>
1.1540

> <Gold.PLP.Chemscore.Hbond>
2.9280

> <Gold.PLP.Chemscore.CHOScore>
1.0000

> <Gold.PLP.Chemscore.Metal>
0.0000

> <Gold.Chemscore.Hbonds>
donor molecule, donor type, donor heavy atom, donor atom, acceptor molecule, acceptor atom, score
      L1  H     5    23       P1  7957  0.75
      L1  H     8    40       P1  7948  2.00
      L1  C    17    39       P1  7949  0.53

> <Gold.PLP.Chemscore.Internal.Correction>
0.1160

> <Gold.Rescore>
     Score         DG    S(hbond)    S(metal)    S(lipo)     H(rot)  DE(clash)    DE(int)     intcor
      7.78     -10.60       1.86        0.00      46.98       2.57       0.24       2.58       ----

> <Gold.Chemscore.Fitness>
7.7761

> <Gold.Chemscore.DG>
-10.5973

> <Gold.Chemscore.ZeroCoef>
-5.4800

> <Gold.Chemscore.Hbond>
1.8554

> <Gold.Chemscore.Metal>
0.0000

> <Gold.Chemscore.Lipo>
46.9827

> <Gold.Chemscore.Internal_Hbond>
0.0000

> <Gold.Chemscore.DEClash>
0.2437

> <Gold.Chemscore.DEInternal>
2.5776

> <Gold.Chemscore.Rot>
2.5690

> <Gold.Chemscore.Internal.Correction>
   9.000000E+99

> <Gold.Chemscore.Hbonds>
donor molecule, donor type, donor heavy atom, donor atom, acceptor molecule, acceptor atom, score
      L1  H     5    23       P1  7957  0.74
      L1  H     8    40       P1  7948  0.93

> <Gold.Chemscore.Hbond.Weighted>
-6.1969

> <Gold.Chemscore.Metal.Weighted>
-0.0000

> <Gold.Chemscore.Lipo.Weighted>
-5.4970

> <Gold.Chemscore.Internal_Hbond.Weighted>
0.0000

> <Gold.Chemscore.DEClash.Weighted>
0.2437

> <Gold.Chemscore.DEInternal.Weighted>
2.5776

> <Gold.Chemscore.Rot.Weighted>
6.5766

> <Gold.Chemscore.Internal.Correction.Weighted>
   9.000000E+99

> <Gold.Protein.RotatedTorsions>
[ 6907 6896 6895 6894 ] final   97.98 input  -60.11 | X-H torsion
[ 7974 7965 7964 7962 ] final  -89.20 input  175.53 | X-H torsion
[ 8008 7997 7996 7995 ] final   10.94 input   59.86 | X-H torsion
[ 10167 10162 10161 10158 ] final  -92.61 input  -65.29 | X-H torsion
[ 10718 10713 10712 10709 ] final   78.23 input   66.30 | X-H torsion
[ 10763 10752 10751 10750 ] final -173.64 input  -60.55 | X-H torsion
[ 11005 11000 10999 10996 ] final  -41.69 input  -57.11 | X-H torsion

> <Gold.Protein.ActiveResidues>
 VAL166  LYS551  ARG553  GLY616  TRP617  ASP618  TYR619  PRO620  LYS621  CYS622 
 ASP623  PHE694  ASN695  SER759  ASP760  ASP761  ALA762  ILE779  LEU786  VAL792 
 PHE793  MET794  SER795  GLU796  ALA797  LYS798  CYS799  TRP800  GLU811  SER814 

> <Gold.Protein.RotatedAtoms>
  152.5416  134.0650  159.8168 H   0  0  0  0  0  0  0  0  0  0  0  0  # atno 6907 bound_to 6896
  151.0772  133.5411  159.2630 H   0  0  0  0  0  0  0  0  0  0  0  0  # atno 6908 bound_to 6896
  151.2252  135.0542  159.9019 H   0  0  0  0  0  0  0  0  0  0  0  0  # atno 6909 bound_to 6896
  145.4430  140.9559  143.2064 H   0  0  0  0  0  0  0  0  0  0  0  0  # atno 7974 bound_to 7965
  154.8001  140.2850  155.5928 H   0  0  0  0  0  0  0  0  0  0  0  0  # atno 8008 bound_to 7997
  156.2976  140.2588  156.2797 H   0  0  0  0  0  0  0  0  0  0  0  0  # atno 8009 bound_to 7997
  154.9568  140.0378  157.2160 H   0  0  0  0  0  0  0  0  0  0  0  0  # atno 8010 bound_to 7997
  140.3331  143.2984  151.9920 H   0  0  0  0  0  0  0  0  0  0  0  0  # atno 10167 bound_to 10162
  157.6738  130.9858  150.1756 H   0  0  0  0  0  0  0  0  0  0  0  0  # atno 10718 bound_to 10713
  154.6055  135.2859  155.0489 H   0  0  0  0  0  0  0  0  0  0  0  0  # atno 10763 bound_to 10752
  154.1738  135.6468  153.5020 H   0  0  0  0  0  0  0  0  0  0  0  0  # atno 10764 bound_to 10752
  153.0174  135.5407  154.6790 H   0  0  0  0  0  0  0  0  0  0  0  0  # atno 10765 bound_to 10752
  141.0263  133.6840  156.2492 H   0  0  0  0  0  0  0  0  0  0  0  0  # atno 11005 bound_to 11000
  144.8109  139.5963  143.7030 LP  0  0  0  0  0  0  0  0  0  0  0  0  # atno 17320 bound_to 7965
  146.2546  139.6274  142.9404 LP  0  0  0  0  0  0  0  0  0  0  0  0  # atno 17321 bound_to 7965
  139.4853  144.6219  151.7239 LP  0  0  0  0  0  0  0  0  0  0  0  0  # atno 17342 bound_to 10162
  140.5379  144.0626  150.6077 LP  0  0  0  0  0  0  0  0  0  0  0  0  # atno 17343 bound_to 10162
  156.2500  130.3699  149.8242 LP  0  0  0  0  0  0  0  0  0  0  0  0  # atno 17370 bound_to 10713
  156.6018  130.8550  151.3433 LP  0  0  0  0  0  0  0  0  0  0  0  0  # atno 17371 bound_to 10713
  140.6485  134.5092  157.5575 LP  0  0  0  0  0  0  0  0  0  0  0  0  # atno 17394 bound_to 11000
  139.9178  134.8210  156.1308 LP  0  0  0  0  0  0  0  0  0  0  0  0  # atno 17395 bound_to 11000

$$$$
