AV-unprocessed.smi:310|AV-procd|sdf|2295|dock9
  -GOLD-   2262022193D 1   1.00000     0.00000
 Structure written by MMmdl.
 41 43  0  0  0  0  0  0  0  0  1 V2000
  149.6485  124.2801  151.1851 C   0  0  0  0  0  0  0  0  0  0  0  0
  148.9035  125.5316  151.5010 C   0  0  0  0  0  0  0  0  0  0  0  0
  148.8054  126.7407  150.8717 C   0  0  0  0  0  0  0  0  0  0  0  0
  147.9285  127.4713  151.7171 C   0  0  0  0  0  0  0  0  0  0  0  0
  147.5628  128.8060  151.4068 N   0  0  0  0  0  0  0  0  0  0  0  0
  146.3450  129.3666  151.5055 C   0  0  0  0  0  0  0  0  0  0  0  0
  145.3301  128.7925  151.9009 O   0  0  0  0  0  0  0  0  0  0  0  0
  146.3664  130.6495  151.1149 N   0  0  0  0  0  0  0  0  0  0  0  0
  145.2106  131.5412  151.0869 C   0  0  0  0  0  0  0  0  0  0  0  0
  145.1788  132.3061  149.7459 C   0  0  0  0  0  0  0  0  0  0  0  0
  144.0855  133.3884  149.7544 C   0  0  0  0  0  0  0  0  0  0  0  0
  144.3281  134.2935  150.8860 N   0  0  0  0  0  0  0  0  0  0  0  0
  144.7497  135.5805  150.8040 C   0  0  0  0  0  0  0  0  0  0  0  0
  145.0371  136.1075  149.7281 O   0  0  0  0  0  0  0  0  0  0  0  0
  144.8276  136.3582  152.0837 C   0  0  0  0  0  0  0  0  0  0  0  0
  146.0204  137.2718  152.3038 C   0  0  0  0  0  0  0  0  0  0  0  0
  145.9221  135.9699  153.0554 C   0  0  0  0  0  0  0  0  0  0  0  0
  144.1531  133.5974  152.1667 C   0  0  0  0  0  0  0  0  0  0  0  0
  145.2378  132.5110  152.2917 C   0  0  0  0  0  0  0  0  0  0  0  0
  147.5280  126.7718  152.7677 N   0  0  0  0  0  0  0  0  0  0  0  0
  148.1512  125.5252  152.6347 O   0  0  0  0  0  0  0  0  0  0  0  0
  150.1577  124.3609  150.2245 H   0  0  0  0  0  0  0  0  0  0  0  0
  148.9701  123.4281  151.1373 H   0  0  0  0  0  0  0  0  0  0  0  0
  150.3983  124.0739  151.9490 H   0  0  0  0  0  0  0  0  0  0  0  0
  149.2842  127.0493  149.9543 H   0  0  0  0  0  0  0  0  0  0  0  0
  148.3077  129.3960  151.0674 H   0  0  0  0  0  0  0  0  0  0  0  0
  147.2458  131.0385  150.8079 H   0  0  0  0  0  0  0  0  0  0  0  0
  144.2973  130.9458  151.1466 H   0  0  0  0  0  0  0  0  0  0  0  0
  146.1461  132.7758  149.5602 H   0  0  0  0  0  0  0  0  0  0  0  0
  145.0086  131.6110  148.9231 H   0  0  0  0  0  0  0  0  0  0  0  0
  144.0370  133.8919  148.7899 H   0  0  0  0  0  0  0  0  0  0  0  0
  143.1071  132.9211  149.8756 H   0  0  0  0  0  0  0  0  0  0  0  0
  143.8862  136.7151  152.4973 H   0  0  0  0  0  0  0  0  0  0  0  0
  146.7879  137.3425  151.5353 H   0  0  0  0  0  0  0  0  0  0  0  0
  145.8397  138.1926  152.8544 H   0  0  0  0  0  0  0  0  0  0  0  0
  145.6768  136.0063  154.1147 H   0  0  0  0  0  0  0  0  0  0  0  0
  146.6062  135.1731  152.7676 H   0  0  0  0  0  0  0  0  0  0  0  0
  144.2041  134.2671  153.0261 H   0  0  0  0  0  0  0  0  0  0  0  0
  143.1611  133.1448  152.2031 H   0  0  0  0  0  0  0  0  0  0  0  0
  145.1030  131.9591  153.2226 H   0  0  0  0  0  0  0  0  0  0  0  0
  146.2154  132.9913  152.3570 H   0  0  0  0  0  0  0  0  0  0  0  0
  1  2  1  0  0  0  0
  1 22  1  0  0  0  0
  1 23  1  0  0  0  0
  1 24  1  0  0  0  0
  2 21  1  0  0  0  0
  2  3  2  0  0  0  0
  3  4  1  0  0  0  0
  3 25  1  0  0  0  0
  4  5  1  0  0  0  0
  4 20  2  0  0  0  0
  5  6  1  0  0  0  0
  5 26  1  0  0  0  0
  6  7  2  0  0  0  0
  6  8  1  0  0  0  0
  8  9  1  0  0  0  0
  8 27  1  0  0  0  0
  9 19  1  0  0  0  0
  9 10  1  0  0  0  0
  9 28  1  0  0  0  0
 10 11  1  0  0  0  0
 10 29  1  0  0  0  0
 10 30  1  0  0  0  0
 11 12  1  0  0  0  0
 11 31  1  0  0  0  0
 11 32  1  0  0  0  0
 12 13  1  0  0  0  0
 12 18  1  0  0  0  0
 13 14  2  0  0  0  0
 13 15  1  0  0  0  0
 15 17  1  0  0  0  0
 15 16  1  0  0  0  0
 15 33  1  0  0  0  0
 16 17  1  0  0  0  0
 16 34  1  0  0  0  0
 16 35  1  0  0  0  0
 17 36  1  0  0  0  0
 17 37  1  0  0  0  0
 18 19  1  0  0  0  0
 18 38  1  0  0  0  0
 18 39  1  0  0  0  0
 19 40  1  0  0  0  0
 19 41  1  0  0  0  0
 20 21  1  0  0  0  0
M  END
> <s_m_source_file>
AV-unprocessed.smi

> <i_m_source_file_index>
310

> <i_lp_mmshare_version>
43012

> <i_f3d_flags>
0

> <s_epik_input>
W0NIM11jMVtjSF1jKG5vMSlbTkhdQyg9TylbTkhdW0NIXTJbQ0gyXVtDSDJdTihbQ0gyXVtDSDJdMilDKD1PKVtDSF0zW0NIMl1bQ0gyXTM=

> <s_epik_cmdline>
J2VwaWtfcHl0aG9uJywgJy1waCcsICc3LjAnLCAnLXRuJywgJzgnLCAnLW1hJywgJzIwMCcsICctbWV0YWxfYmluZGluZycsICctaW1hZScsICc8aW5maWxlLm1hZT4nLCAnLW9tYWUnLCAnPG91dGZpbGUubWFlPic=

> <r_lp_tautomer_probability>
1

> <r_epik_Ionization_Penalty>
2.91812e-05

> <r_epik_Ionization_Penalty_Charging>
0

> <r_epik_Ionization_Penalty_Neutral>
2.91812e-05

> <r_epik_State_Penalty>
-0

> <r_epik_Charging_Adjusted_Penalty>
0

> <i_epik_Tot_Q>
0

> <i_epik_Tot_abs_Q>
0

> <r_epik_Metal_State_Penalty>
0.00922567

> <b_epik_Metal_Only>
0

> <s_lp_Force_Field>
OPLS_2005

> <r_lp_Energy>
27.9216

> <b_lp_Chiralities_Consistent>
1

> <s_lp_Variant>
AV-unprocessed.smi:310-1

> <Gold.Version>
5.8.1

> <Gold.Id.Protein>
6NUR|6NUR_protein|mol2

> <Gold.PLP.Fitness>
39.0341

> <Gold.PLP.PLP>
-34.7025

> <Gold.PLP.part.hbond>
-2.6782

> <Gold.PLP.part.metal>
0.0000

> <Gold.PLP.part.buried>
-6.3041

> <Gold.PLP.part.nonpolar>
-31.2384

> <Gold.PLP.part.repulsive>
5.9026

> <Gold.PLP.ligand.clash>
0.0000

> <Gold.PLP.ligand.torsion>
0.8949

> <Gold.PLP.Chemscore.Hbond>
2.0000

> <Gold.PLP.Chemscore.CHOScore>
0.0000

> <Gold.PLP.Chemscore.Metal>
0.0000

> <Gold.Chemscore.Hbonds>
donor molecule, donor type, donor heavy atom, donor atom, acceptor molecule, acceptor atom, score
      L1  H     5    26       P1 10747  0.95
      L1  H     8    27       P1 10747  1.00

> <Gold.PLP.Chemscore.Internal.Correction>
0.1214

> <Gold.Rescore>
     Score         DG    S(hbond)    S(metal)    S(lipo)     H(rot)  DE(clash)    DE(int)     intcor
     12.14     -14.72       1.33        0.00      68.63       1.26       1.62       0.96       ----

> <Gold.Chemscore.Fitness>
12.1418

> <Gold.Chemscore.DG>
-14.7212

> <Gold.Chemscore.ZeroCoef>
-5.4800

> <Gold.Chemscore.Hbond>
1.3296

> <Gold.Chemscore.Metal>
0.0000

> <Gold.Chemscore.Lipo>
68.6316

> <Gold.Chemscore.Internal_Hbond>
0.0000

> <Gold.Chemscore.DEClash>
1.6161

> <Gold.Chemscore.DEInternal>
0.9634

> <Gold.Chemscore.Rot>
1.2615

> <Gold.Chemscore.Internal.Correction>
   9.000000E+99

> <Gold.Chemscore.Hbonds>
donor molecule, donor type, donor heavy atom, donor atom, acceptor molecule, acceptor atom, score
      L1  H     5    26       P1 10747  0.21
      L1  H     8    27       P1 10747  0.95

> <Gold.Chemscore.Hbond.Weighted>
-4.4409

> <Gold.Chemscore.Metal.Weighted>
-0.0000

> <Gold.Chemscore.Lipo.Weighted>
-8.0299

> <Gold.Chemscore.Internal_Hbond.Weighted>
0.0000

> <Gold.Chemscore.DEClash.Weighted>
1.6161

> <Gold.Chemscore.DEInternal.Weighted>
0.9634

> <Gold.Chemscore.Rot.Weighted>
3.2295

> <Gold.Chemscore.Internal.Correction.Weighted>
   9.000000E+99

> <Gold.Protein.RotatedTorsions>
[ 6907 6896 6895 6894 ] final  -57.75 input  -60.11 | X-H torsion
[ 7974 7965 7964 7962 ] final -120.38 input  175.53 | X-H torsion
[ 8008 7997 7996 7995 ] final   90.54 input   59.86 | X-H torsion
[ 10167 10162 10161 10158 ] final   43.73 input  -65.29 | X-H torsion
[ 10718 10713 10712 10709 ] final   26.60 input   66.30 | X-H torsion
[ 10763 10752 10751 10750 ] final  170.26 input  -60.55 | X-H torsion
[ 11005 11000 10999 10996 ] final   76.35 input  -57.11 | X-H torsion

> <Gold.Protein.ActiveResidues>
 VAL166  LYS551  ARG553  GLY616  TRP617  ASP618  TYR619  PRO620  LYS621  CYS622 
 ASP623  PHE694  ASN695  SER759  ASP760  ASP761  ALA762  ILE779  LEU786  VAL792 
 PHE793  MET794  SER795  GLU796  ALA797  LYS798  CYS799  TRP800  GLU811  SER814 

> <Gold.Protein.RotatedAtoms>
  150.8061  134.7187  159.6645 H   0  0  0  0  0  0  0  0  0  0  0  0  # atno 6907 bound_to 6896
  152.4181  134.6002  160.0008 H   0  0  0  0  0  0  0  0  0  0  0  0  # atno 6908 bound_to 6896
  151.6225  133.3301  159.3127 H   0  0  0  0  0  0  0  0  0  0  0  0  # atno 6909 bound_to 6896
  145.0520  140.8226  143.4203 H   0  0  0  0  0  0  0  0  0  0  0  0  # atno 7974 bound_to 7965
  156.0132  140.3348  155.6962 H   0  0  0  0  0  0  0  0  0  0  0  0  # atno 8008 bound_to 7997
  155.6128  140.0667  157.2719 H   0  0  0  0  0  0  0  0  0  0  0  0  # atno 8009 bound_to 7997
  154.4289  140.1790  156.1278 H   0  0  0  0  0  0  0  0  0  0  0  0  # atno 8010 bound_to 7997
  140.3414  144.2465  150.6155 H   0  0  0  0  0  0  0  0  0  0  0  0  # atno 10167 bound_to 10162
  157.2090  130.6925  149.6220 H   0  0  0  0  0  0  0  0  0  0  0  0  # atno 10718 bound_to 10713
  154.3951  135.2754  155.2131 H   0  0  0  0  0  0  0  0  0  0  0  0  # atno 10763 bound_to 10752
  154.4181  135.6006  153.5996 H   0  0  0  0  0  0  0  0  0  0  0  0  # atno 10764 bound_to 10752
  152.9831  135.5965  154.4211 H   0  0  0  0  0  0  0  0  0  0  0  0  # atno 10765 bound_to 10752
  139.9302  134.7593  156.1385 H   0  0  0  0  0  0  0  0  0  0  0  0  # atno 11005 bound_to 11000
  145.1515  139.2512  143.5438 LP  0  0  0  0  0  0  0  0  0  0  0  0  # atno 17320 bound_to 7965
  146.3518  140.1219  142.8600 LP  0  0  0  0  0  0  0  0  0  0  0  0  # atno 17321 bound_to 7965
  140.5305  143.2244  151.8246 LP  0  0  0  0  0  0  0  0  0  0  0  0  # atno 17342 bound_to 10162
  139.4840  144.4726  151.9406 LP  0  0  0  0  0  0  0  0  0  0  0  0  # atno 17343 bound_to 10162
  155.9692  130.4557  150.5898 LP  0  0  0  0  0  0  0  0  0  0  0  0  # atno 17370 bound_to 10713
  157.3691  131.0762  151.1573 LP  0  0  0  0  0  0  0  0  0  0  0  0  # atno 17371 bound_to 10713
  141.0886  133.6724  156.2490 LP  0  0  0  0  0  0  0  0  0  0  0  0  # atno 17394 bound_to 11000
  140.6223  134.5349  157.5549 LP  0  0  0  0  0  0  0  0  0  0  0  0  # atno 17395 bound_to 11000

$$$$
