AV-unprocessed.smi:713|AV-procd|sdf|3474|dock3
  -GOLD-   22720 0463D 1   1.00000     0.00000
 Structure written by MMmdl.
 41 42  0  0  0  0  0  0  0  0  1 V2000
  153.8882  141.6446  161.0338 C   0  0  0  0  0  0  0  0  0  0  0  0
  152.5571  141.7545  160.2625 C   0  0  2  0  0  0  0  0  0  0  0  0
  152.4935  140.8325  159.0317 C   0  0  0  0  0  0  0  0  0  0  0  0
  153.4729  140.1690  158.6883 O   0  0  0  0  0  0  0  0  0  0  0  0
  151.3193  140.7908  158.3807 N   0  0  0  0  0  0  0  0  0  0  0  0
  151.0422  139.9945  157.1902 C   0  0  2  0  0  0  0  0  0  0  0  0
  150.5797  140.9190  156.0498 C   0  0  0  0  0  0  0  0  0  0  0  0
  150.2314  140.1246  154.7814 C   0  0  0  0  0  0  0  0  0  0  0  0
  149.1992  139.0188  155.0691 C   0  0  0  0  0  0  0  0  0  0  0  0
  149.5853  138.0994  156.2506 C   0  0  1  0  0  0  0  0  0  0  0  0
  150.9170  136.8685  155.8330 S   0  0  0  0  0  0  0  0  0  0  0  0
  150.0317  135.2612  155.9783 C   0  0  0  0  0  0  0  0  0  0  0  0
  151.3252  137.0246  154.4293 O   0  0  0  0  0  0  0  0  0  0  0  0
  151.9379  136.9255  156.8900 O   0  0  0  0  0  0  0  0  0  0  0  0
  149.9664  138.9308  157.4917 C   0  0  0  0  0  0  0  0  0  0  0  0
  152.2586  143.1345  159.8939 N   0  0  0  0  0  0  0  0  0  0  0  0
  152.0645  144.2136  160.7324 C   0  0  0  0  0  0  0  0  0  0  0  0
  151.7788  145.2955  159.9501 C   0  0  0  0  0  0  0  0  0  0  0  0
  151.8131  144.7741  158.6269 C   0  0  0  0  0  0  0  0  0  0  0  0
  152.0941  143.4820  158.5960 N   0  0  0  0  0  0  0  0  0  0  0  0
  154.0620  140.6243  161.3771 H   0  0  0  0  0  0  0  0  0  0  0  0
  153.8805  142.2869  161.9147 H   0  0  0  0  0  0  0  0  0  0  0  0
  154.7412  141.9371  160.4199 H   0  0  0  0  0  0  0  0  0  0  0  0
  151.7660  141.4250  160.9379 H   0  0  0  0  0  0  0  0  0  0  0  0
  150.5653  141.3648  158.7290 H   0  0  0  0  0  0  0  0  0  0  0  0
  151.9654  139.5041  156.8794 H   0  0  0  0  0  0  0  0  0  0  0  0
  149.7051  141.4884  156.3684 H   0  0  0  0  0  0  0  0  0  0  0  0
  151.3568  141.6495  155.8216 H   0  0  0  0  0  0  0  0  0  0  0  0
  149.8364  140.8026  154.0243 H   0  0  0  0  0  0  0  0  0  0  0  0
  151.1374  139.7020  154.3512 H   0  0  0  0  0  0  0  0  0  0  0  0
  148.2476  139.4967  155.3056 H   0  0  0  0  0  0  0  0  0  0  0  0
  149.0169  138.4358  154.1675 H   0  0  0  0  0  0  0  0  0  0  0  0
  148.7141  137.4981  156.5112 H   0  0  0  0  0  0  0  0  0  0  0  0
  150.7468  134.4470  155.8617 H   0  0  0  0  0  0  0  0  0  0  0  0
  149.2735  135.1798  155.2006 H   0  0  0  0  0  0  0  0  0  0  0  0
  149.5623  135.1890  156.9590 H   0  0  0  0  0  0  0  0  0  0  0  0
  150.3006  138.2694  158.2916 H   0  0  0  0  0  0  0  0  0  0  0  0
  149.0710  139.4269  157.8693 H   0  0  0  0  0  0  0  0  0  0  0  0
  152.1448  144.1226  161.8057 H   0  0  0  0  0  0  0  0  0  0  0  0
  151.5738  146.3051  160.2737 H   0  0  0  0  0  0  0  0  0  0  0  0
  151.6407  145.2915  157.6947 H   0  0  0  0  0  0  0  0  0  0  0  0
  1  2  1  0  0  0  0
  1 21  1  0  0  0  0
  1 22  1  0  0  0  0
  1 23  1  0  0  0  0
  2  3  1  0  0  0  0
  2 16  1  0  0  0  0
  2 24  1  0  0  0  0
  3  4  2  0  0  0  0
  3  5  1  0  0  0  0
  5  6  1  0  0  0  0
  5 25  1  0  0  0  0
  6 15  1  0  0  0  0
  6  7  1  0  0  0  0
  6 26  1  0  0  0  0
  7  8  1  0  0  0  0
  7 27  1  0  0  0  0
  7 28  1  0  0  0  0
  8  9  1  0  0  0  0
  8 29  1  0  0  0  0
  8 30  1  0  0  0  0
  9 10  1  0  0  0  0
  9 31  1  0  0  0  0
  9 32  1  0  0  0  0
 10 11  1  0  0  0  0
 10 15  1  0  0  0  0
 10 33  1  0  0  0  0
 11 12  1  0  0  0  0
 11 13  2  0  0  0  0
 11 14  2  0  0  0  0
 12 34  1  0  0  0  0
 12 35  1  0  0  0  0
 12 36  1  0  0  0  0
 15 37  1  0  0  0  0
 15 38  1  0  0  0  0
 16 20  1  0  0  0  0
 16 17  1  0  0  0  0
 17 18  2  0  0  0  0
 17 39  1  0  0  0  0
 18 19  1  0  0  0  0
 18 40  1  0  0  0  0
 19 20  2  0  0  0  0
 19 41  1  0  0  0  0
M  END
> <s_m_source_file>
AV-unprocessed.smi

> <i_m_source_file_index>
713

> <i_lp_mmshare_version>
43012

> <i_f3d_flags>
0

> <s_epik_input>
bjFbY0hdW2NIXVtjSF1uMVtDQEhdKFtDSDNdKUMoPU8pW05IXVtDQEBIXTJbQ0gyXVtDSDJdW0NIMl1bQ0BIXShbQ0gyXTIpUyg9TykoPU8pW0NIM10=

> <s_epik_cmdline>
J2VwaWtfcHl0aG9uJywgJy1waCcsICc3LjAnLCAnLXRuJywgJzgnLCAnLW1hJywgJzIwMCcsICctbWV0YWxfYmluZGluZycsICctaW1hZScsICc8aW5maWxlLm1hZT4nLCAnLW9tYWUnLCAnPG91dGZpbGUubWFlPic=

> <r_lp_tautomer_probability>
1

> <r_epik_Ionization_Penalty>
4.07816e-05

> <r_epik_Ionization_Penalty_Charging>
0

> <r_epik_Ionization_Penalty_Neutral>
4.07816e-05

> <r_epik_State_Penalty>
-0

> <r_epik_Charging_Adjusted_Penalty>
0

> <i_epik_Tot_Q>
0

> <i_epik_Tot_abs_Q>
0

> <r_epik_Metal_State_Penalty>
-0

> <b_epik_Metal_Only>
0

> <s_lp_Force_Field>
OPLS_2005

> <r_lp_Energy>
4.10812

> <b_lp_Chiralities_Consistent>
1

> <s_lp_Variant>
AV-unprocessed.smi:713-1

> <Gold.Version>
5.8.1

> <Gold.Id.Protein>
6NUR|6NUR_protein|mol2

> <Gold.PLP.Fitness>
46.2630

> <Gold.PLP.PLP>
-40.3863

> <Gold.PLP.part.hbond>
-2.0000

> <Gold.PLP.part.metal>
0.0000

> <Gold.PLP.part.buried>
-3.4216

> <Gold.PLP.part.nonpolar>
-35.6944

> <Gold.PLP.part.repulsive>
0.2842

> <Gold.PLP.ligand.clash>
0.0000

> <Gold.PLP.ligand.torsion>
0.2006

> <Gold.PLP.Chemscore.Hbond>
1.9920

> <Gold.PLP.Chemscore.CHOScore>
0.0000

> <Gold.PLP.Chemscore.Metal>
0.0000

> <Gold.Chemscore.Hbonds>
donor molecule, donor type, donor heavy atom, donor atom, acceptor molecule, acceptor atom, score
      P1  H  7997  8009       L1     4  0.94
      P1  H 10752 10765       L1    13  0.73

> <Gold.PLP.Chemscore.Internal.Correction>
0.3019

> <Gold.Rescore>
     Score         DG    S(hbond)    S(metal)    S(lipo)     H(rot)  DE(clash)    DE(int)     intcor
     15.53     -17.95       1.81        0.00      92.81       1.72       0.86       1.56       ----

> <Gold.Chemscore.Fitness>
15.5329

> <Gold.Chemscore.DG>
-17.9525

> <Gold.Chemscore.ZeroCoef>
-5.4800

> <Gold.Chemscore.Hbond>
1.8053

> <Gold.Chemscore.Metal>
0.0000

> <Gold.Chemscore.Lipo>
92.8076

> <Gold.Chemscore.Internal_Hbond>
0.0000

> <Gold.Chemscore.DEClash>
0.8580

> <Gold.Chemscore.DEInternal>
1.5616

> <Gold.Chemscore.Rot>
1.7249

> <Gold.Chemscore.Internal.Correction>
   9.000000E+99

> <Gold.Chemscore.Hbonds>
donor molecule, donor type, donor heavy atom, donor atom, acceptor molecule, acceptor atom, score
      P1  H  7997  8009       L1     4  0.89
      P1  H 10752 10765       L1    13  0.40

> <Gold.Chemscore.Hbond.Weighted>
-6.0298

> <Gold.Chemscore.Metal.Weighted>
-0.0000

> <Gold.Chemscore.Lipo.Weighted>
-10.8585

> <Gold.Chemscore.Internal_Hbond.Weighted>
0.0000

> <Gold.Chemscore.DEClash.Weighted>
0.8580

> <Gold.Chemscore.DEInternal.Weighted>
1.5616

> <Gold.Chemscore.Rot.Weighted>
4.4157

> <Gold.Chemscore.Internal.Correction.Weighted>
   9.000000E+99

> <Gold.Protein.RotatedTorsions>
[ 6907 6896 6895 6894 ] final -155.37 input  -60.11 | X-H torsion
[ 7974 7965 7964 7962 ] final -151.78 input  175.53 | X-H torsion
[ 8008 7997 7996 7995 ] final  139.77 input   59.86 | X-H torsion
[ 10167 10162 10161 10158 ] final  132.99 input  -65.29 | X-H torsion
[ 10718 10713 10712 10709 ] final  168.27 input   66.30 | X-H torsion
[ 10763 10752 10751 10750 ] final  152.80 input  -60.55 | X-H torsion
[ 11005 11000 10999 10996 ] final  165.53 input  -57.11 | X-H torsion

> <Gold.Protein.ActiveResidues>
 VAL166  LYS551  ARG553  GLY616  TRP617  ASP618  TYR619  PRO620  LYS621  CYS622 
 ASP623  PHE694  ASN695  SER759  ASP760  ASP761  ALA762  ILE779  LEU786  VAL792 
 PHE793  MET794  SER795  GLU796  ALA797  LYS798  CYS799  TRP800  GLU811  SER814 

> <Gold.Protein.RotatedAtoms>
  151.2715  133.4253  159.2621 H   0  0  0  0  0  0  0  0  0  0  0  0  # atno 6907 bound_to 6896
  151.0441  134.9628  159.8187 H   0  0  0  0  0  0  0  0  0  0  0  0  # atno 6908 bound_to 6896
  152.5370  134.2672  159.9010 H   0  0  0  0  0  0  0  0  0  0  0  0  # atno 6909 bound_to 6896
  144.7831  140.4752  143.5825 H   0  0  0  0  0  0  0  0  0  0  0  0  # atno 7974 bound_to 7965
  156.2986  140.2359  156.4292 H   0  0  0  0  0  0  0  0  0  0  0  0  # atno 8008 bound_to 7997
  154.8286  140.0434  157.1481 H   0  0  0  0  0  0  0  0  0  0  0  0  # atno 8009 bound_to 7997
  154.9234  140.3006  155.5208 H   0  0  0  0  0  0  0  0  0  0  0  0  # atno 8010 bound_to 7997
  139.5316  144.6637  151.4931 H   0  0  0  0  0  0  0  0  0  0  0  0  # atno 10167 bound_to 10162
  157.0396  131.0283  151.2718 H   0  0  0  0  0  0  0  0  0  0  0  0  # atno 10718 bound_to 10713
  154.1259  135.2830  155.3197 H   0  0  0  0  0  0  0  0  0  0  0  0  # atno 10763 bound_to 10752
  154.6390  135.5409  153.7770 H   0  0  0  0  0  0  0  0  0  0  0  0  # atno 10764 bound_to 10752
  153.0297  135.6481  154.1411 H   0  0  0  0  0  0  0  0  0  0  0  0  # atno 10765 bound_to 10752
  140.2571  134.7931  157.3556 H   0  0  0  0  0  0  0  0  0  0  0  0  # atno 11005 bound_to 11000
  145.5996  139.1502  143.3136 LP  0  0  0  0  0  0  0  0  0  0  0  0  # atno 17320 bound_to 7965
  146.2049  140.6118  142.9086 LP  0  0  0  0  0  0  0  0  0  0  0  0  # atno 17321 bound_to 7965
  140.6497  143.8721  150.6773 LP  0  0  0  0  0  0  0  0  0  0  0  0  # atno 17342 bound_to 10162
  140.2082  143.3905  152.1739 LP  0  0  0  0  0  0  0  0  0  0  0  0  # atno 17343 bound_to 10162
  157.5115  130.7941  149.7710 LP  0  0  0  0  0  0  0  0  0  0  0  0  # atno 17370 bound_to 10713
  156.0042  130.3864  150.2491 LP  0  0  0  0  0  0  0  0  0  0  0  0  # atno 17371 bound_to 10713
  140.1501  134.4861  155.7967 LP  0  0  0  0  0  0  0  0  0  0  0  0  # atno 17394 bound_to 11000
  141.2195  133.6859  156.7363 LP  0  0  0  0  0  0  0  0  0  0  0  0  # atno 17395 bound_to 11000

$$$$
