AV-unprocessed.smi:3303|AV-procd|sdf|12657|dock8
  -GOLD-   2272018593D 1   1.00000     0.00000
 Structure written by MMmdl.
 45 46  0  0  0  0  0  0  0  0  3 V2000
  146.6776  143.2092  154.3202 C   0  0  0  0  0  0  0  0  0  0  0  0
  147.5340  141.9532  154.0797 C   0  0  2  0  0  0  0  0  0  0  0  0
  146.7608  140.9440  153.2062 C   0  0  0  0  0  0  0  0  0  0  0  0
  147.5493  139.7146  152.9311 N   0  3  2  0  0  0  0  0  0  0  0  0
  146.8384  138.8342  151.9721 C   0  0  0  0  0  0  0  0  0  0  0  0
  147.9699  139.0295  154.1898 C   0  0  1  0  0  0  0  0  0  0  0  0
  148.8134  137.7666  153.9261 C   0  0  0  0  0  0  0  0  0  0  0  0
  148.7638  140.0037  155.0844 C   0  0  0  0  0  0  0  0  0  0  0  0
  147.9754  141.2847  155.3989 C   0  0  1  0  0  0  0  0  0  0  0  0
  148.8188  142.1996  156.2023 N   0  3  0  0  0  0  0  0  0  0  0  0
  148.8887  141.8745  157.6408 C   0  0  0  0  0  0  0  0  0  0  0  0
  149.2543  143.1146  158.4673 C   0  0  0  0  0  0  0  0  0  0  0  0
  150.7410  143.1928  158.7552 C   0  0  0  0  0  0  0  0  0  0  0  0
  151.5352  144.2060  158.1775 C   0  0  0  0  0  0  0  0  0  0  0  0
  152.9090  144.2382  158.4864 C   0  0  0  0  0  0  0  0  0  0  0  0
  153.4316  143.2616  159.3558 C   0  0  0  0  0  0  0  0  0  0  0  0
  152.5539  142.2925  159.8813 C   0  0  0  0  0  0  0  0  0  0  0  0
  151.2343  142.2545  159.5940 N   0  0  0  0  0  0  0  0  0  0  0  0
  145.7789  142.9745  154.8917 H   0  0  0  0  0  0  0  0  0  0  0  0
  146.3621  143.6550  153.3763 H   0  0  0  0  0  0  0  0  0  0  0  0
  147.2284  143.9745  154.8676 H   0  0  0  0  0  0  0  0  0  0  0  0
  148.4261  142.2584  153.5297 H   0  0  0  0  0  0  0  0  0  0  0  0
  145.8216  140.6684  153.6893 H   0  0  0  0  0  0  0  0  0  0  0  0
  146.4976  141.4190  152.2600 H   0  0  0  0  0  0  0  0  0  0  0  0
  145.9647  138.3744  152.4354 H   0  0  0  0  0  0  0  0  0  0  0  0
  147.4878  138.0447  151.5951 H   0  0  0  0  0  0  0  0  0  0  0  0
  146.5015  139.4001  151.1028 H   0  0  0  0  0  0  0  0  0  0  0  0
  147.0689  138.7257  154.7260 H   0  0  0  0  0  0  0  0  0  0  0  0
  149.1868  137.3462  154.8604 H   0  0  0  0  0  0  0  0  0  0  0  0
  149.6763  137.9864  153.2968 H   0  0  0  0  0  0  0  0  0  0  0  0
  148.2335  136.9797  153.4441 H   0  0  0  0  0  0  0  0  0  0  0  0
  149.0335  139.5072  156.0178 H   0  0  0  0  0  0  0  0  0  0  0  0
  149.7035  140.2624  154.5931 H   0  0  0  0  0  0  0  0  0  0  0  0
  147.0859  141.0082  155.9686 H   0  0  0  0  0  0  0  0  0  0  0  0
  149.7572  142.1847  155.8282 H   0  0  0  0  0  0  0  0  0  0  0  0
  147.9254  141.4822  157.9696 H   0  0  0  0  0  0  0  0  0  0  0  0
  149.6290  141.0877  157.7929 H   0  0  0  0  0  0  0  0  0  0  0  0
  148.9490  144.0204  157.9410 H   0  0  0  0  0  0  0  0  0  0  0  0
  148.7076  143.1092  159.4113 H   0  0  0  0  0  0  0  0  0  0  0  0
  151.1059  144.9427  157.5144 H   0  0  0  0  0  0  0  0  0  0  0  0
  153.5498  144.9989  158.0654 H   0  0  0  0  0  0  0  0  0  0  0  0
  154.4801  143.2555  159.6146 H   0  0  0  0  0  0  0  0  0  0  0  0
  152.9205  141.5291  160.5514 H   0  0  0  0  0  0  0  0  0  0  0  0
  148.4522  143.1361  156.1067 H   0  0  0  0  0  0  0  0  0  0  0  0
  148.3945  140.0140  152.4656 H   0  0  0  0  0  0  0  0  0  0  0  0
  1  2  1  0  0  0  0
  1 19  1  0  0  0  0
  1 20  1  0  0  0  0
  1 21  1  0  0  0  0
  2  9  1  0  0  0  0
  2  3  1  0  0  0  0
  2 22  1  0  0  0  0
  3  4  1  0  0  0  0
  3 23  1  0  0  0  0
  3 24  1  0  0  0  0
  4  5  1  0  0  0  0
  4  6  1  0  0  0  0
  4 45  1  0  0  0  0
  5 25  1  0  0  0  0
  5 26  1  0  0  0  0
  5 27  1  0  0  0  0
  6  7  1  0  0  0  0
  6  8  1  0  0  0  0
  6 28  1  0  0  0  0
  7 29  1  0  0  0  0
  7 30  1  0  0  0  0
  7 31  1  0  0  0  0
  8  9  1  0  0  0  0
  8 32  1  0  0  0  0
  8 33  1  0  0  0  0
  9 10  1  0  0  0  0
  9 34  1  0  0  0  0
 10 11  1  0  0  0  0
 10 35  1  0  0  0  0
 10 44  1  0  0  0  0
 11 12  1  0  0  0  0
 11 36  1  0  0  0  0
 11 37  1  0  0  0  0
 12 13  1  0  0  0  0
 12 38  1  0  0  0  0
 12 39  1  0  0  0  0
 13 18  1  0  0  0  0
 13 14  2  0  0  0  0
 14 15  1  0  0  0  0
 14 40  1  0  0  0  0
 15 16  2  0  0  0  0
 15 41  1  0  0  0  0
 16 17  1  0  0  0  0
 16 42  1  0  0  0  0
 17 18  2  0  0  0  0
 17 43  1  0  0  0  0
M  CHG  1   4   1
M  CHG  1  10   1
M  END
> <s_m_source_file>
AV-unprocessed.smi

> <i_m_source_file_index>
3303

> <i_lp_mmshare_version>
43012

> <i_f3d_flags>
0

> <s_epik_input>
W0NIM11bQ0BASF0xW0NIMl1OKFtDSDNdKVtDQEBIXShbQ0gzXSlbQ0gyXVtDQEhdMVtOSF1bQ0gyXVtDSDJdYzJbY0hdW2NIXVtjSF1bY0hdbjI=

> <s_epik_cmdline>
J2VwaWtfcHl0aG9uJywgJy1waCcsICc3LjAnLCAnLXRuJywgJzgnLCAnLW1hJywgJzIwMCcsICctbWV0YWxfYmluZGluZycsICctaW1hZScsICc8aW5maWxlLm1hZT4nLCAnLW9tYWUnLCAnPG91dGZpbGUubWFlPic=

> <r_epik_Ionization_Penalty>
0.0769462

> <r_epik_Ionization_Penalty_Charging>
0.0759813

> <r_epik_Ionization_Penalty_Neutral>
0.000964829

> <r_epik_State_Penalty>
0.0654373

> <r_epik_Charging_Adjusted_Penalty>
0.141419

> <i_epik_Tot_Q>
2

> <i_epik_Tot_abs_Q>
2

> <r_epik_Metal_State_Penalty>
0.0656439

> <b_epik_Metal_Only>
0

> <s_lp_Force_Field>
OPLS_2005

> <r_lp_Energy>
29.1913

> <b_lp_Chiralities_Consistent>
1

> <s_lp_Variant>
AV-unprocessed.smi:3303-1

> <Gold.Version>
5.8.1

> <Gold.Id.Protein>
6NUR|6NUR_protein|mol2

> <Gold.PLP.Fitness>
41.3430

> <Gold.PLP.PLP>
-35.0816

> <Gold.PLP.part.hbond>
-2.4175

> <Gold.PLP.part.metal>
0.0000

> <Gold.PLP.part.buried>
3.3893

> <Gold.PLP.part.nonpolar>
-35.3675

> <Gold.PLP.part.repulsive>
0.1221

> <Gold.PLP.ligand.clash>
0.0000

> <Gold.PLP.ligand.torsion>
0.6285

> <Gold.PLP.Chemscore.Hbond>
2.5040

> <Gold.PLP.Chemscore.CHOScore>
0.0000

> <Gold.PLP.Chemscore.Metal>
0.0000

> <Gold.Chemscore.Hbonds>
donor molecule, donor type, donor heavy atom, donor atom, acceptor molecule, acceptor atom, score
      L1  H     4    45       P1  7957  1.00
      L1  H    10    44       P1  8028  1.76

> <Gold.PLP.Chemscore.Internal.Correction>
0.0065

> <Gold.Rescore>
     Score         DG    S(hbond)    S(metal)    S(lipo)     H(rot)  DE(clash)    DE(int)     intcor
     19.63     -21.73       1.79        0.00     117.71       1.37       1.54       0.56       ----

> <Gold.Chemscore.Fitness>
19.6282

> <Gold.Chemscore.DG>
-21.7287

> <Gold.Chemscore.ZeroCoef>
-5.4800

> <Gold.Chemscore.Hbond>
1.7949

> <Gold.Chemscore.Metal>
0.0000

> <Gold.Chemscore.Lipo>
117.7095

> <Gold.Chemscore.Internal_Hbond>
0.0000

> <Gold.Chemscore.DEClash>
1.5403

> <Gold.Chemscore.DEInternal>
0.5602

> <Gold.Chemscore.Rot>
1.3744

> <Gold.Chemscore.Internal.Correction>
   9.000000E+99

> <Gold.Chemscore.Hbonds>
donor molecule, donor type, donor heavy atom, donor atom, acceptor molecule, acceptor atom, score
      L1  H     4    45       P1  7957  0.98
      L1  H    10    44       P1  8028  0.78

> <Gold.Chemscore.Hbond.Weighted>
-5.9951

> <Gold.Chemscore.Metal.Weighted>
-0.0000

> <Gold.Chemscore.Lipo.Weighted>
-13.7720

> <Gold.Chemscore.Internal_Hbond.Weighted>
0.0000

> <Gold.Chemscore.DEClash.Weighted>
1.5403

> <Gold.Chemscore.DEInternal.Weighted>
0.5602

> <Gold.Chemscore.Rot.Weighted>
3.5185

> <Gold.Chemscore.Internal.Correction.Weighted>
   9.000000E+99

> <Gold.Protein.RotatedTorsions>
[ 6907 6896 6895 6894 ] final   23.30 input  -60.11 | X-H torsion
[ 7974 7965 7964 7962 ] final  115.67 input  175.53 | X-H torsion
[ 8008 7997 7996 7995 ] final   87.22 input   59.86 | X-H torsion
[ 10167 10162 10161 10158 ] final    3.71 input  -65.29 | X-H torsion
[ 10718 10713 10712 10709 ] final  -43.89 input   66.30 | X-H torsion
[ 10763 10752 10751 10750 ] final  -19.61 input  -60.55 | X-H torsion
[ 11005 11000 10999 10996 ] final   66.81 input  -57.11 | X-H torsion

> <Gold.Protein.ActiveResidues>
 VAL166  LYS551  ARG553  GLY616  TRP617  ASP618  TYR619  PRO620  LYS621  CYS622 
 ASP623  PHE694  ASN695  SER759  ASP760  ASP761  ALA762  ILE779  LEU786  VAL792 
 PHE793  MET794  SER795  GLU796  ALA797  LYS798  CYS799  TRP800  GLU811  SER814 

> <Gold.Protein.RotatedAtoms>
  151.9402  135.0216  160.0535 H   0  0  0  0  0  0  0  0  0  0  0  0  # atno 6907 bound_to 6896
  152.2042  133.4859  159.5083 H   0  0  0  0  0  0  0  0  0  0  0  0  # atno 6908 bound_to 6896
  150.6961  134.1467  159.4168 H   0  0  0  0  0  0  0  0  0  0  0  0  # atno 6909 bound_to 6896
  145.1890  139.3010  143.4378 H   0  0  0  0  0  0  0  0  0  0  0  0  # atno 7974 bound_to 7965
  155.9726  140.3384  155.6589 H   0  0  0  0  0  0  0  0  0  0  0  0  # atno 8008 bound_to 7997
  155.6654  140.0721  157.2557 H   0  0  0  0  0  0  0  0  0  0  0  0  # atno 8009 bound_to 7997
  154.4170  140.1701  156.1809 H   0  0  0  0  0  0  0  0  0  0  0  0  # atno 8010 bound_to 7997
  140.6572  143.7397  150.7674 H   0  0  0  0  0  0  0  0  0  0  0  0  # atno 10167 bound_to 10162
  156.2443  130.4182  149.8724 H   0  0  0  0  0  0  0  0  0  0  0  0  # atno 10718 bound_to 10713
  153.6075  135.6997  153.5360 H   0  0  0  0  0  0  0  0  0  0  0  0  # atno 10763 bound_to 10752
  153.3044  135.4119  155.1281 H   0  0  0  0  0  0  0  0  0  0  0  0  # atno 10764 bound_to 10752
  154.8570  135.3657  154.5613 H   0  0  0  0  0  0  0  0  0  0  0  0  # atno 10765 bound_to 10752
  139.9809  134.6745  156.0264 H   0  0  0  0  0  0  0  0  0  0  0  0  # atno 11005 bound_to 11000
  146.3439  140.2097  142.8590 LP  0  0  0  0  0  0  0  0  0  0  0  0  # atno 17320 bound_to 7965
  145.0060  140.8673  143.5253 LP  0  0  0  0  0  0  0  0  0  0  0  0  # atno 17321 bound_to 7965
  140.1059  143.4744  152.2398 LP  0  0  0  0  0  0  0  0  0  0  0  0  # atno 17342 bound_to 10162
  139.5797  144.7504  151.3672 LP  0  0  0  0  0  0  0  0  0  0  0  0  # atno 17343 bound_to 10162
  156.6295  130.8660  151.3492 LP  0  0  0  0  0  0  0  0  0  0  0  0  # atno 17370 bound_to 10713
  157.7188  130.9532  150.1358 LP  0  0  0  0  0  0  0  0  0  0  0  0  # atno 17371 bound_to 10713
  141.1481  133.6552  156.3929 LP  0  0  0  0  0  0  0  0  0  0  0  0  # atno 17394 bound_to 11000
  140.5099  134.6405  157.5280 LP  0  0  0  0  0  0  0  0  0  0  0  0  # atno 17395 bound_to 11000

$$$$
