AV-unprocessed.smi:3222|AV-procd|sdf|12303|dock3
  -GOLD-   2272018143D 1   1.00000     0.00000
 Structure written by MMmdl.
 41 42  0  0  0  0  0  0  0  0  2 V2000
  148.7176  141.1924  157.5269 C   0  0  0  0  0  0  0  0  0  0  0  0
  150.0793  141.5601  156.9060 C   0  0  2  0  0  0  0  0  0  0  0  0
  150.3995  142.9784  157.1957 N   0  3  0  0  0  0  0  0  0  0  0  0
  150.7077  143.2856  158.6073 C   0  0  0  0  0  0  0  0  0  0  0  0
  152.2225  143.2278  158.8579 C   0  0  0  0  0  0  0  0  0  0  0  0
  152.5300  143.1212  160.2815 N   0  0  0  0  0  0  0  0  0  0  0  0
  152.0166  144.0967  161.2284 C   0  0  0  0  0  0  0  0  0  0  0  0
  152.6877  143.7479  162.5649 C   0  0  0  0  0  0  0  0  0  0  0  0
  153.3125  142.3617  162.3714 C   0  0  0  0  0  0  0  0  0  0  0  0
  153.2294  142.1440  160.8703 C   0  0  0  0  0  0  0  0  0  0  0  0
  153.7480  141.1832  160.3038 O   0  0  0  0  0  0  0  0  0  0  0  0
  150.1194  141.3159  155.3743 C   0  0  2  0  0  0  0  0  0  0  0  0
  148.7358  141.3888  154.7007 C   0  0  0  0  0  0  0  0  0  0  0  0
  150.7491  140.0349  155.0703 N   0  0  0  0  0  0  0  0  0  0  0  0
  151.9989  139.5736  155.4355 C   0  0  0  0  0  0  0  0  0  0  0  0
  152.1544  138.3340  154.8847 C   0  0  0  0  0  0  0  0  0  0  0  0
  150.9361  138.1210  154.1822 C   0  0  0  0  0  0  0  0  0  0  0  0
  150.1031  139.1438  154.2861 N   0  0  0  0  0  0  0  0  0  0  0  0
  148.4956  140.1320  157.4103 H   0  0  0  0  0  0  0  0  0  0  0  0
  147.9063  141.7560  157.0650 H   0  0  0  0  0  0  0  0  0  0  0  0
  148.6923  141.3950  158.5973 H   0  0  0  0  0  0  0  0  0  0  0  0
  150.8490  140.9370  157.3649 H   0  0  0  0  0  0  0  0  0  0  0  0
  151.2188  143.2165  156.6540 H   0  0  0  0  0  0  0  0  0  0  0  0
  150.3228  144.2737  158.8590 H   0  0  0  0  0  0  0  0  0  0  0  0
  150.2002  142.5668  159.2521 H   0  0  0  0  0  0  0  0  0  0  0  0
  152.6546  142.3760  158.3306 H   0  0  0  0  0  0  0  0  0  0  0  0
  152.7064  144.1184  158.4533 H   0  0  0  0  0  0  0  0  0  0  0  0
  152.2486  145.1151  160.9142 H   0  0  0  0  0  0  0  0  0  0  0  0
  150.9325  143.9980  161.2973 H   0  0  0  0  0  0  0  0  0  0  0  0
  153.4659  144.4767  162.7953 H   0  0  0  0  0  0  0  0  0  0  0  0
  151.9735  143.7608  163.3891 H   0  0  0  0  0  0  0  0  0  0  0  0
  154.3439  142.3224  162.7234 H   0  0  0  0  0  0  0  0  0  0  0  0
  152.7373  141.5898  162.8837 H   0  0  0  0  0  0  0  0  0  0  0  0
  150.7338  142.0974  154.9226 H   0  0  0  0  0  0  0  0  0  0  0  0
  148.3171  142.3937  154.7477 H   0  0  0  0  0  0  0  0  0  0  0  0
  148.0238  140.7086  155.1690 H   0  0  0  0  0  0  0  0  0  0  0  0
  148.8024  141.1246  153.6445 H   0  0  0  0  0  0  0  0  0  0  0  0
  152.6676  140.1576  156.0508 H   0  0  0  0  0  0  0  0  0  0  0  0
  153.0089  137.6791  154.9695 H   0  0  0  0  0  0  0  0  0  0  0  0
  150.6363  137.2622  153.5998 H   0  0  0  0  0  0  0  0  0  0  0  0
  149.6344  143.5591  156.8830 H   0  0  0  0  0  0  0  0  0  0  0  0
  1  2  1  0  0  0  0
  1 19  1  0  0  0  0
  1 20  1  0  0  0  0
  1 21  1  0  0  0  0
  2  3  1  0  0  0  0
  2 12  1  0  0  0  0
  2 22  1  0  0  0  0
  3  4  1  0  0  0  0
  3 23  1  0  0  0  0
  3 41  1  0  0  0  0
  4  5  1  0  0  0  0
  4 24  1  0  0  0  0
  4 25  1  0  0  0  0
  5  6  1  0  0  0  0
  5 26  1  0  0  0  0
  5 27  1  0  0  0  0
  6 10  1  0  0  0  0
  6  7  1  0  0  0  0
  7  8  1  0  0  0  0
  7 28  1  0  0  0  0
  7 29  1  0  0  0  0
  8  9  1  0  0  0  0
  8 30  1  0  0  0  0
  8 31  1  0  0  0  0
  9 10  1  0  0  0  0
  9 32  1  0  0  0  0
  9 33  1  0  0  0  0
 10 11  2  0  0  0  0
 12 13  1  0  0  0  0
 12 14  1  0  0  0  0
 12 34  1  0  0  0  0
 13 35  1  0  0  0  0
 13 36  1  0  0  0  0
 13 37  1  0  0  0  0
 14 18  1  0  0  0  0
 14 15  1  0  0  0  0
 15 16  2  0  0  0  0
 15 38  1  0  0  0  0
 16 17  1  0  0  0  0
 16 39  1  0  0  0  0
 17 18  2  0  0  0  0
 17 40  1  0  0  0  0
M  CHG  1   3   1
M  END
> <s_m_source_file>
AV-unprocessed.smi

> <i_m_source_file_index>
3222

> <i_lp_mmshare_version>
43012

> <i_f3d_flags>
0

> <s_epik_input>
bjFbY0hdW2NIXVtjSF1uMVtDQEBIXShbQ0gzXSlbQ0BIXShbQ0gzXSlbTkhdW0NIMl1bQ0gyXU4yW0NIMl1bQ0gyXVtDSDJdQzI9Tw==

> <s_epik_cmdline>
J2VwaWtfcHl0aG9uJywgJy1waCcsICc3LjAnLCAnLXRuJywgJzgnLCAnLW1hJywgJzIwMCcsICctbWV0YWxfYmluZGluZycsICctaW1hZScsICc8aW5maWxlLm1hZT4nLCAnLW9tYWUnLCAnPG91dGZpbGUubWFlPic=

> <r_lp_tautomer_probability>
1

> <r_epik_Ionization_Penalty>
0.0064019

> <r_epik_Ionization_Penalty_Charging>
0.00639164

> <r_epik_Ionization_Penalty_Neutral>
1.02567e-05

> <r_epik_State_Penalty>
0.00472531

> <r_epik_Charging_Adjusted_Penalty>
0.011117

> <i_epik_Tot_Q>
1

> <i_epik_Tot_abs_Q>
1

> <r_epik_Metal_State_Penalty>
-0

> <b_epik_Metal_Only>
0

> <s_lp_Force_Field>
OPLS_2005

> <r_lp_Energy>
24.5342

> <b_lp_Chiralities_Consistent>
1

> <s_lp_Variant>
AV-unprocessed.smi:3222-1

> <Gold.Version>
5.8.1

> <Gold.Id.Protein>
6NUR|6NUR_protein|mol2

> <Gold.PLP.Fitness>
54.7483

> <Gold.PLP.PLP>
-47.8585

> <Gold.PLP.part.hbond>
-1.0000

> <Gold.PLP.part.metal>
0.0000

> <Gold.PLP.part.buried>
-3.7355

> <Gold.PLP.part.nonpolar>
-42.8122

> <Gold.PLP.part.repulsive>
0.1843

> <Gold.PLP.ligand.clash>
0.0000

> <Gold.PLP.ligand.torsion>
1.4400

> <Gold.PLP.Chemscore.Hbond>
2.0000

> <Gold.PLP.Chemscore.CHOScore>
1.1929

> <Gold.PLP.Chemscore.Metal>
0.0000

> <Gold.Chemscore.Hbonds>
donor molecule, donor type, donor heavy atom, donor atom, acceptor molecule, acceptor atom, score
      L1  H     3    41       P1  8028  2.00
      L1  C    17    40       P1  7948  0.48
      L1  C    17    40       P1  7949  0.67

> <Gold.PLP.Chemscore.Internal.Correction>
0.1912

> <Gold.Rescore>
     Score         DG    S(hbond)    S(metal)    S(lipo)     H(rot)  DE(clash)    DE(int)     intcor
     14.47     -15.65       0.99        0.00     102.11       1.99       0.06       1.12       ----

> <Gold.Chemscore.Fitness>
14.4710

> <Gold.Chemscore.DG>
-15.6473

> <Gold.Chemscore.ZeroCoef>
-5.4800

> <Gold.Chemscore.Hbond>
0.9941

> <Gold.Chemscore.Metal>
0.0000

> <Gold.Chemscore.Lipo>
102.1133

> <Gold.Chemscore.Internal_Hbond>
0.0000

> <Gold.Chemscore.DEClash>
0.0609

> <Gold.Chemscore.DEInternal>
1.1154

> <Gold.Chemscore.Rot>
1.9922

> <Gold.Chemscore.Internal.Correction>
   9.000000E+99

> <Gold.Chemscore.Hbonds>
donor molecule, donor type, donor heavy atom, donor atom, acceptor molecule, acceptor atom, score
      L1  H     3    41       P1  8028  0.94

> <Gold.Chemscore.Hbond.Weighted>
-3.3202

> <Gold.Chemscore.Metal.Weighted>
-0.0000

> <Gold.Chemscore.Lipo.Weighted>
-11.9473

> <Gold.Chemscore.Internal_Hbond.Weighted>
0.0000

> <Gold.Chemscore.DEClash.Weighted>
0.0609

> <Gold.Chemscore.DEInternal.Weighted>
1.1154

> <Gold.Chemscore.Rot.Weighted>
5.1002

> <Gold.Chemscore.Internal.Correction.Weighted>
   9.000000E+99

> <Gold.Protein.RotatedTorsions>
[ 6907 6896 6895 6894 ] final  130.32 input  -60.11 | X-H torsion
[ 7974 7965 7964 7962 ] final   28.97 input  175.53 | X-H torsion
[ 8008 7997 7996 7995 ] final   90.56 input   59.86 | X-H torsion
[ 10167 10162 10161 10158 ] final -147.78 input  -65.29 | X-H torsion
[ 10718 10713 10712 10709 ] final   11.38 input   66.30 | X-H torsion
[ 10763 10752 10751 10750 ] final   37.13 input  -60.55 | X-H torsion
[ 11005 11000 10999 10996 ] final   14.72 input  -57.11 | X-H torsion

> <Gold.Protein.ActiveResidues>
 VAL166  LYS551  ARG553  GLY616  TRP617  ASP618  TYR619  PRO620  LYS621  CYS622 
 ASP623  PHE694  ASN695  SER759  ASP760  ASP761  ALA762  ILE779  LEU786  VAL792 
 PHE793  MET794  SER795  GLU796  ALA797  LYS798  CYS799  TRP800  GLU811  SER814 

> <Gold.Protein.RotatedAtoms>
  152.3538  133.6211  159.5963 H   0  0  0  0  0  0  0  0  0  0  0  0  # atno 6907 bound_to 6896
  150.7555  133.9533  159.3501 H   0  0  0  0  0  0  0  0  0  0  0  0  # atno 6908 bound_to 6896
  151.7381  135.0861  160.0362 H   0  0  0  0  0  0  0  0  0  0  0  0  # atno 6909 bound_to 6896
  146.1698  139.6984  142.8975 H   0  0  0  0  0  0  0  0  0  0  0  0  # atno 7974 bound_to 7965
  156.0134  140.3348  155.6964 H   0  0  0  0  0  0  0  0  0  0  0  0  # atno 8008 bound_to 7997
  155.6126  140.0667  157.2719 H   0  0  0  0  0  0  0  0  0  0  0  0  # atno 8009 bound_to 7997
  154.4289  140.1791  156.1276 H   0  0  0  0  0  0  0  0  0  0  0  0  # atno 8010 bound_to 7997
  139.7591  143.8403  152.2603 H   0  0  0  0  0  0  0  0  0  0  0  0  # atno 10167 bound_to 10162
  156.9948  130.6056  149.5690 H   0  0  0  0  0  0  0  0  0  0  0  0  # atno 10718 bound_to 10713
  153.0049  135.6286  154.2096 H   0  0  0  0  0  0  0  0  0  0  0  0  # atno 10763 bound_to 10752
  154.1839  135.2812  155.3045 H   0  0  0  0  0  0  0  0  0  0  0  0  # atno 10764 bound_to 10752
  154.5813  135.5646  153.7247 H   0  0  0  0  0  0  0  0  0  0  0  0  # atno 10765 bound_to 10752
  140.4663  134.1076  155.7725 H   0  0  0  0  0  0  0  0  0  0  0  0  # atno 11005 bound_to 11000
  145.4370  141.0419  143.2879 LP  0  0  0  0  0  0  0  0  0  0  0  0  # atno 17320 bound_to 7965
  144.8146  139.5899  143.7014 LP  0  0  0  0  0  0  0  0  0  0  0  0  # atno 17321 bound_to 7965
  139.8404  144.7212  150.9338 LP  0  0  0  0  0  0  0  0  0  0  0  0  # atno 17342 bound_to 10162
  140.7805  143.3988  151.1183 LP  0  0  0  0  0  0  0  0  0  0  0  0  # atno 17343 bound_to 10162
  156.0193  130.5288  150.8229 LP  0  0  0  0  0  0  0  0  0  0  0  0  # atno 17370 bound_to 10713
  157.5433  131.0941  150.9797 LP  0  0  0  0  0  0  0  0  0  0  0  0  # atno 17371 bound_to 10713
  141.1598  133.8815  157.1880 LP  0  0  0  0  0  0  0  0  0  0  0  0  # atno 17394 bound_to 11000
  139.9913  135.0063  156.9981 LP  0  0  0  0  0  0  0  0  0  0  0  0  # atno 17395 bound_to 11000

$$$$
