AV-unprocessed.smi:2712|AV-procd|sdf|10476|dock5
  -GOLD-   2272014513D 1   1.00000     0.00000
 Structure written by MMmdl.
 52 53  0  0  0  0  0  0  0  0  1 V2000
  157.4087  136.6950  155.7670 C   0  0  0  0  0  0  0  0  0  0  0  0
  156.6293  136.0165  156.8546 C   0  0  0  0  0  0  0  0  0  0  0  0
  156.8448  134.6329  157.2333 C   0  0  0  0  0  0  0  0  0  0  0  0
  156.0980  134.0930  158.2202 C   0  0  0  0  0  0  0  0  0  0  0  0
  155.0772  134.8675  158.9226 C   0  0  0  0  0  0  0  0  0  0  0  0
  154.3783  134.4041  159.8237 O   0  0  0  0  0  0  0  0  0  0  0  0
  154.9712  136.1583  158.4876 N   0  0  0  0  0  0  0  0  0  0  0  0
  154.0110  137.0907  159.0961 C   0  0  0  0  0  0  0  0  0  0  0  0
  154.5908  138.4899  159.3524 C   0  0  0  0  0  0  0  0  0  0  0  0
  155.3822  139.0041  158.5602 O   0  0  0  0  0  0  0  0  0  0  0  0
  154.1680  139.1007  160.4699 N   0  0  0  0  0  0  0  0  0  0  0  0
  154.5722  140.4324  160.9160 C   0  0  2  0  0  0  0  0  0  0  0  0
  153.7073  140.8668  162.1163 C   0  0  0  0  0  0  0  0  0  0  0  0
  153.7485  142.3712  162.4212 C   0  0  0  0  0  0  0  0  0  0  0  0
  152.6845  143.1756  161.6502 C   0  0  0  0  0  0  0  0  0  0  0  0
  152.9434  143.3906  160.1324 C   0  0  2  0  0  0  0  0  0  0  0  0
  151.8449  144.2752  159.4329 C   0  0  0  0  0  0  0  0  0  0  0  0
  152.2600  144.6861  158.0035 C   0  0  0  0  0  0  0  0  0  0  0  0
  151.5717  145.5582  160.2542 C   0  0  0  0  0  0  0  0  0  0  0  0
  150.4951  143.5255  159.3475 C   0  0  0  0  0  0  0  0  0  0  0  0
  153.2009  142.0438  159.3972 C   0  0  0  0  0  0  0  0  0  0  0  0
  154.5647  141.4090  159.7236 C   0  0  0  0  0  0  0  0  0  0  0  0
  155.7303  136.7122  157.4698 N   0  0  0  0  0  0  0  0  0  0  0  0
  158.1037  136.0038  155.2896 H   0  0  0  0  0  0  0  0  0  0  0  0
  157.9875  137.5280  156.1671 H   0  0  0  0  0  0  0  0  0  0  0  0
  156.7431  137.0844  154.9960 H   0  0  0  0  0  0  0  0  0  0  0  0
  157.5972  134.0476  156.7257 H   0  0  0  0  0  0  0  0  0  0  0  0
  156.2597  133.0628  158.5017 H   0  0  0  0  0  0  0  0  0  0  0  0
  153.1357  137.1996  158.4531 H   0  0  0  0  0  0  0  0  0  0  0  0
  153.6336  136.6791  160.0342 H   0  0  0  0  0  0  0  0  0  0  0  0
  153.5175  138.6039  161.0611 H   0  0  0  0  0  0  0  0  0  0  0  0
  155.6096  140.3767  161.2513 H   0  0  0  0  0  0  0  0  0  0  0  0
  152.6710  140.5566  161.9736 H   0  0  0  0  0  0  0  0  0  0  0  0
  154.0512  140.3204  162.9956 H   0  0  0  0  0  0  0  0  0  0  0  0
  153.5445  142.4977  163.4850 H   0  0  0  0  0  0  0  0  0  0  0  0
  154.7468  142.7808  162.2633 H   0  0  0  0  0  0  0  0  0  0  0  0
  151.7095  142.7143  161.8054 H   0  0  0  0  0  0  0  0  0  0  0  0
  152.6355  144.1439  162.1457 H   0  0  0  0  0  0  0  0  0  0  0  0
  153.8672  143.9673  160.0682 H   0  0  0  0  0  0  0  0  0  0  0  0
  151.4803  145.2801  157.5253 H   0  0  0  0  0  0  0  0  0  0  0  0
  152.4383  143.8209  157.3653 H   0  0  0  0  0  0  0  0  0  0  0  0
  153.1660  145.2918  158.0000 H   0  0  0  0  0  0  0  0  0  0  0  0
  152.4094  146.2537  160.2478 H   0  0  0  0  0  0  0  0  0  0  0  0
  151.3412  145.3241  161.2941 H   0  0  0  0  0  0  0  0  0  0  0  0
  150.7214  146.1112  159.8532 H   0  0  0  0  0  0  0  0  0  0  0  0
  149.6955  144.1812  159.0011 H   0  0  0  0  0  0  0  0  0  0  0  0
  150.1948  143.1332  160.3198 H   0  0  0  0  0  0  0  0  0  0  0  0
  150.5291  142.6936  158.6441 H   0  0  0  0  0  0  0  0  0  0  0  0
  152.3931  141.3350  159.5822 H   0  0  0  0  0  0  0  0  0  0  0  0
  153.1984  142.2029  158.3222 H   0  0  0  0  0  0  0  0  0  0  0  0
  155.2985  142.1971  159.8945 H   0  0  0  0  0  0  0  0  0  0  0  0
  154.9326  140.8830  158.8412 H   0  0  0  0  0  0  0  0  0  0  0  0
  1  2  1  0  0  0  0
  1 24  1  0  0  0  0
  1 25  1  0  0  0  0
  1 26  1  0  0  0  0
  2 23  2  0  0  0  0
  2  3  1  0  0  0  0
  3  4  2  0  0  0  0
  3 27  1  0  0  0  0
  4  5  1  0  0  0  0
  4 28  1  0  0  0  0
  5  6  2  0  0  0  0
  5  7  1  0  0  0  0
  7  8  1  0  0  0  0
  7 23  1  0  0  0  0
  8  9  1  0  0  0  0
  8 29  1  0  0  0  0
  8 30  1  0  0  0  0
  9 10  2  0  0  0  0
  9 11  1  0  0  0  0
 11 12  1  0  0  0  0
 11 31  1  0  0  0  0
 12 22  1  0  0  0  0
 12 13  1  0  0  0  0
 12 32  1  0  0  0  0
 13 14  1  0  0  0  0
 13 33  1  0  0  0  0
 13 34  1  0  0  0  0
 14 15  1  0  0  0  0
 14 35  1  0  0  0  0
 14 36  1  0  0  0  0
 15 16  1  0  0  0  0
 15 37  1  0  0  0  0
 15 38  1  0  0  0  0
 16 17  1  0  0  0  0
 16 21  1  0  0  0  0
 16 39  1  0  0  0  0
 17 18  1  0  0  0  0
 17 19  1  0  0  0  0
 17 20  1  0  0  0  0
 18 40  1  0  0  0  0
 18 41  1  0  0  0  0
 18 42  1  0  0  0  0
 19 43  1  0  0  0  0
 19 44  1  0  0  0  0
 19 45  1  0  0  0  0
 20 46  1  0  0  0  0
 20 47  1  0  0  0  0
 20 48  1  0  0  0  0
 21 22  1  0  0  0  0
 21 49  1  0  0  0  0
 21 50  1  0  0  0  0
 22 51  1  0  0  0  0
 22 52  1  0  0  0  0
M  END
> <s_m_source_file>
AV-unprocessed.smi

> <i_m_source_file_index>
2712

> <i_lp_mmshare_version>
43012

> <i_f3d_flags>
0

> <s_epik_input>
W0NIM11jMVtjSF1bY0hdYyg9TyluKG4xKVtDSDJdQyg9TylbTkhdW0NAQEhdMltDSDJdW0NIMl1bQ0gyXVtDQEBIXShDKFtDSDNdKShbQ0gzXSlbQ0gzXSlbQ0gyXVtDSDJdMg==

> <s_epik_cmdline>
J2VwaWtfcHl0aG9uJywgJy1waCcsICc3LjAnLCAnLXRuJywgJzgnLCAnLW1hJywgJzIwMCcsICctbWV0YWxfYmluZGluZycsICctaW1hZScsICc8aW5maWxlLm1hZT4nLCAnLW9tYWUnLCAnPG91dGZpbGUubWFlPic=

> <r_lp_tautomer_probability>
1

> <r_epik_Ionization_Penalty>
8.71758e-07

> <r_epik_Ionization_Penalty_Charging>
8.50442e-07

> <r_epik_Ionization_Penalty_Neutral>
2.13165e-08

> <r_epik_State_Penalty>
-0

> <r_epik_Charging_Adjusted_Penalty>
8.50442e-07

> <i_epik_Tot_Q>
0

> <i_epik_Tot_abs_Q>
0

> <r_epik_Metal_State_Penalty>
-0

> <b_epik_Metal_Only>
0

> <s_lp_Force_Field>
OPLS_2005

> <r_lp_Energy>
39.6201

> <b_lp_Chiralities_Consistent>
1

> <s_lp_Variant>
AV-unprocessed.smi:2712-3

> <Gold.Version>
5.8.1

> <Gold.Id.Protein>
6NUR|6NUR_protein|mol2

> <Gold.PLP.Fitness>
46.8767

> <Gold.PLP.PLP>
-42.3408

> <Gold.PLP.part.hbond>
-2.0000

> <Gold.PLP.part.metal>
0.0000

> <Gold.PLP.part.buried>
-5.5618

> <Gold.PLP.part.nonpolar>
-33.8803

> <Gold.PLP.part.repulsive>
0.0560

> <Gold.PLP.ligand.clash>
0.0000

> <Gold.PLP.ligand.torsion>
0.7868

> <Gold.PLP.Chemscore.Hbond>
2.0000

> <Gold.PLP.Chemscore.CHOScore>
0.0000

> <Gold.PLP.Chemscore.Metal>
0.0000

> <Gold.Chemscore.Hbonds>
donor molecule, donor type, donor heavy atom, donor atom, acceptor molecule, acceptor atom, score
      P1  H  6896  6907       L1     6  1.00
      P1  H  7997  8009       L1    10  1.00

> <Gold.PLP.Chemscore.Internal.Correction>
0.1095

> <Gold.Rescore>
     Score         DG    S(hbond)    S(metal)    S(lipo)     H(rot)  DE(clash)    DE(int)     intcor
     20.17     -24.14       1.99        0.00     135.77       1.52       0.16       3.82       ----

> <Gold.Chemscore.Fitness>
20.1720

> <Gold.Chemscore.DG>
-24.1440

> <Gold.Chemscore.ZeroCoef>
-5.4800

> <Gold.Chemscore.Hbond>
1.9940

> <Gold.Chemscore.Metal>
0.0000

> <Gold.Chemscore.Lipo>
135.7727

> <Gold.Chemscore.Internal_Hbond>
0.0000

> <Gold.Chemscore.DEClash>
0.1564

> <Gold.Chemscore.DEInternal>
3.8155

> <Gold.Chemscore.Rot>
1.5162

> <Gold.Chemscore.Internal.Correction>
   9.000000E+99

> <Gold.Chemscore.Hbonds>
donor molecule, donor type, donor heavy atom, donor atom, acceptor molecule, acceptor atom, score
      P1  H  6896  6907       L1     6  0.99
      P1  H  7997  8009       L1    10  0.97

> <Gold.Chemscore.Hbond.Weighted>
-6.6600

> <Gold.Chemscore.Metal.Weighted>
-0.0000

> <Gold.Chemscore.Lipo.Weighted>
-15.8854

> <Gold.Chemscore.Internal_Hbond.Weighted>
0.0000

> <Gold.Chemscore.DEClash.Weighted>
0.1564

> <Gold.Chemscore.DEInternal.Weighted>
3.8155

> <Gold.Chemscore.Rot.Weighted>
3.8814

> <Gold.Chemscore.Internal.Correction.Weighted>
   9.000000E+99

> <Gold.Protein.RotatedTorsions>
[ 6907 6896 6895 6894 ] final   72.73 input  -60.11 | X-H torsion
[ 7974 7965 7964 7962 ] final  -87.55 input  175.53 | X-H torsion
[ 8008 7997 7996 7995 ] final  102.91 input   59.86 | X-H torsion
[ 10167 10162 10161 10158 ] final   10.00 input  -65.29 | X-H torsion
[ 10718 10713 10712 10709 ] final  -54.42 input   66.30 | X-H torsion
[ 10763 10752 10751 10750 ] final    8.63 input  -60.55 | X-H torsion
[ 11005 11000 10999 10996 ] final   86.01 input  -57.11 | X-H torsion

> <Gold.Protein.ActiveResidues>
 VAL166  LYS551  ARG553  GLY616  TRP617  ASP618  TYR619  PRO620  LYS621  CYS622 
 ASP623  PHE694  ASN695  SER759  ASP760  ASP761  ALA762  ILE779  LEU786  VAL792 
 PHE793  MET794  SER795  GLU796  ALA797  LYS798  CYS799  TRP800  GLU811  SER814 

> <Gold.Protein.RotatedAtoms>
  152.4884  134.4527  159.9579 H   0  0  0  0  0  0  0  0  0  0  0  0  # atno 6907 bound_to 6896
  151.4519  133.3609  159.2804 H   0  0  0  0  0  0  0  0  0  0  0  0  # atno 6908 bound_to 6896
  150.9016  134.8452  159.7424 H   0  0  0  0  0  0  0  0  0  0  0  0  # atno 6909 bound_to 6896
  145.4651  140.9560  143.1948 H   0  0  0  0  0  0  0  0  0  0  0  0  # atno 7974 bound_to 7965
  156.1436  140.3173  155.8534 H   0  0  0  0  0  0  0  0  0  0  0  0  # atno 8008 bound_to 7997
  155.4107  140.0505  157.3049 H   0  0  0  0  0  0  0  0  0  0  0  0  # atno 8009 bound_to 7997
  154.4997  140.2124  155.9385 H   0  0  0  0  0  0  0  0  0  0  0  0  # atno 8010 bound_to 7997
  140.6221  143.8181  150.7188 H   0  0  0  0  0  0  0  0  0  0  0  0  # atno 10167 bound_to 10162
  156.1452  130.4153  150.0035 H   0  0  0  0  0  0  0  0  0  0  0  0  # atno 10718 bound_to 10713
  153.2229  135.6883  153.7979 H   0  0  0  0  0  0  0  0  0  0  0  0  # atno 10763 bound_to 10752
  153.7171  135.3273  155.3260 H   0  0  0  0  0  0  0  0  0  0  0  0  # atno 10764 bound_to 10752
  154.8278  135.4604  154.1084 H   0  0  0  0  0  0  0  0  0  0  0  0  # atno 10765 bound_to 10752
  139.8956  134.8326  156.2662 H   0  0  0  0  0  0  0  0  0  0  0  0  # atno 11005 bound_to 11000
  144.7979  139.6198  143.7084 LP  0  0  0  0  0  0  0  0  0  0  0  0  # atno 17320 bound_to 7965
  146.2429  139.6038  142.9479 LP  0  0  0  0  0  0  0  0  0  0  0  0  # atno 17321 bound_to 7965
  140.1774  143.4143  152.1958 LP  0  0  0  0  0  0  0  0  0  0  0  0  # atno 17342 bound_to 10162
  139.5448  144.7288  151.4619 LP  0  0  0  0  0  0  0  0  0  0  0  0  # atno 17343 bound_to 10162
  156.7909  130.9255  151.3646 LP  0  0  0  0  0  0  0  0  0  0  0  0  # atno 17370 bound_to 10713
  157.6611  130.8966  149.9831 LP  0  0  0  0  0  0  0  0  0  0  0  0  # atno 17371 bound_to 10713
  141.0130  133.7084  156.1143 LP  0  0  0  0  0  0  0  0  0  0  0  0  # atno 17394 bound_to 11000
  140.7340  134.4223  157.5562 LP  0  0  0  0  0  0  0  0  0  0  0  0  # atno 17395 bound_to 11000

$$$$
