AV-unprocessed.smi:1985|AV-procd|sdf|8044|dock3
  -GOLD-   2272010243D 1   1.00000     0.00000
 Structure written by MMmdl.
 51 52  0  0  0  0  0  0  0  0  2 V2000
  144.9276  142.8432  154.9765 C   0  0  0  0  0  0  0  0  0  0  0  0
  146.2119  142.3337  154.2984 C   0  0  0  0  0  0  0  0  0  0  0  0
  146.7464  140.9588  154.8074 C   0  0  1  0  0  0  0  0  0  0  0  0
  148.0211  140.6304  153.9855 C   0  0  0  0  0  0  0  0  0  0  0  0
  147.1372  141.0598  156.3161 C   0  0  0  0  0  0  0  0  0  0  0  0
  148.2916  141.9234  156.5616 N   0  0  0  0  0  0  0  0  0  0  0  0
  149.1162  141.8409  157.6169 C   0  0  0  0  0  0  0  0  0  0  0  0
  149.0172  140.9757  158.4876 O   0  0  0  0  0  0  0  0  0  0  0  0
  150.2195  142.9022  157.7020 C   0  0  0  0  0  0  0  0  0  0  0  0
  151.1855  142.6102  158.7686 N   0  0  0  0  0  0  0  0  0  0  0  0
  151.9822  141.4827  158.6830 C   0  0  0  0  0  0  0  0  0  0  0  0
  152.8805  141.1319  159.6288 C   0  0  0  0  0  0  0  0  0  0  0  0
  153.0621  141.9458  160.8239 C   0  0  0  0  0  0  0  0  0  0  0  0
  153.8644  141.6702  161.7173 O   0  0  0  0  0  0  0  0  0  0  0  0
  152.2380  143.0923  160.8874 N   0  0  0  0  0  0  0  0  0  0  0  0
  152.3847  143.9236  162.0640 C   0  0  0  0  0  0  0  0  0  0  0  0
  151.2996  143.4570  159.8939 C   0  0  0  0  0  0  0  0  0  0  0  0
  150.5959  144.4659  159.9858 O   0  0  0  0  0  0  0  0  0  0  0  0
  145.6982  139.8938  154.5993 N   0  3  0  0  0  0  0  0  0  0  0  0
  146.2018  138.5071  154.3872 C   0  0  0  0  0  0  0  0  0  0  0  0
  145.0474  137.5684  153.9950 C   0  0  0  0  0  0  0  0  0  0  0  0
  144.0390  137.5968  154.9951 O   0  0  0  0  0  0  0  0  0  0  0  0
  143.4860  138.8967  155.1466 C   0  0  0  0  0  0  0  0  0  0  0  0
  144.5866  139.8723  155.5925 C   0  0  0  0  0  0  0  0  0  0  0  0
  144.6276  143.8001  154.5484 H   0  0  0  0  0  0  0  0  0  0  0  0
  145.0647  142.9971  156.0468 H   0  0  0  0  0  0  0  0  0  0  0  0
  144.0949  142.1541  154.8380 H   0  0  0  0  0  0  0  0  0  0  0  0
  146.0061  142.2737  153.2297 H   0  0  0  0  0  0  0  0  0  0  0  0
  146.9840  143.0980  154.3823 H   0  0  0  0  0  0  0  0  0  0  0  0
  148.6993  141.4832  153.9349 H   0  0  0  0  0  0  0  0  0  0  0  0
  147.7820  140.3499  152.9594 H   0  0  0  0  0  0  0  0  0  0  0  0
  148.5926  139.8129  154.4251 H   0  0  0  0  0  0  0  0  0  0  0  0
  146.2965  141.4024  156.9193 H   0  0  0  0  0  0  0  0  0  0  0  0
  147.3991  140.0769  156.7065 H   0  0  0  0  0  0  0  0  0  0  0  0
  148.4559  142.6630  155.8937 H   0  0  0  0  0  0  0  0  0  0  0  0
  150.7250  142.9468  156.7364 H   0  0  0  0  0  0  0  0  0  0  0  0
  149.7850  143.8918  157.8546 H   0  0  0  0  0  0  0  0  0  0  0  0
  151.8805  140.8438  157.8179 H   0  0  0  0  0  0  0  0  0  0  0  0
  153.4702  140.2361  159.5007 H   0  0  0  0  0  0  0  0  0  0  0  0
  151.7230  144.7882  162.0274 H   0  0  0  0  0  0  0  0  0  0  0  0
  153.4237  144.2567  162.0974 H   0  0  0  0  0  0  0  0  0  0  0  0
  152.1372  143.3049  162.9285 H   0  0  0  0  0  0  0  0  0  0  0  0
  146.9425  138.4646  153.5909 H   0  0  0  0  0  0  0  0  0  0  0  0
  146.6807  138.1372  155.2940 H   0  0  0  0  0  0  0  0  0  0  0  0
  144.6263  137.8526  153.0292 H   0  0  0  0  0  0  0  0  0  0  0  0
  145.4126  136.5464  153.8933 H   0  0  0  0  0  0  0  0  0  0  0  0
  143.0267  139.2250  154.2126 H   0  0  0  0  0  0  0  0  0  0  0  0
  142.6941  138.8573  155.8946 H   0  0  0  0  0  0  0  0  0  0  0  0
  144.9553  139.5651  156.5713 H   0  0  0  0  0  0  0  0  0  0  0  0
  144.1371  140.8560  155.7129 H   0  0  0  0  0  0  0  0  0  0  0  0
  145.2617  140.1456  153.7238 H   0  0  0  0  0  0  0  0  0  0  0  0
  1  2  1  0  0  0  0
  1 25  1  0  0  0  0
  1 26  1  0  0  0  0
  1 27  1  0  0  0  0
  2  3  1  0  0  0  0
  2 28  1  0  0  0  0
  2 29  1  0  0  0  0
  3  4  1  0  0  0  0
  3  5  1  0  0  0  0
  3 19  1  0  0  0  0
  4 30  1  0  0  0  0
  4 31  1  0  0  0  0
  4 32  1  0  0  0  0
  5  6  1  0  0  0  0
  5 33  1  0  0  0  0
  5 34  1  0  0  0  0
  6  7  1  0  0  0  0
  6 35  1  0  0  0  0
  7  8  2  0  0  0  0
  7  9  1  0  0  0  0
  9 10  1  0  0  0  0
  9 36  1  0  0  0  0
  9 37  1  0  0  0  0
 10 17  1  0  0  0  0
 10 11  1  0  0  0  0
 11 12  2  0  0  0  0
 11 38  1  0  0  0  0
 12 13  1  0  0  0  0
 12 39  1  0  0  0  0
 13 14  2  0  0  0  0
 13 15  1  0  0  0  0
 15 16  1  0  0  0  0
 15 17  1  0  0  0  0
 16 40  1  0  0  0  0
 16 41  1  0  0  0  0
 16 42  1  0  0  0  0
 17 18  2  0  0  0  0
 19 24  1  0  0  0  0
 19 20  1  0  0  0  0
 19 51  1  0  0  0  0
 20 21  1  0  0  0  0
 20 43  1  0  0  0  0
 20 44  1  0  0  0  0
 21 22  1  0  0  0  0
 21 45  1  0  0  0  0
 21 46  1  0  0  0  0
 22 23  1  0  0  0  0
 23 24  1  0  0  0  0
 23 47  1  0  0  0  0
 23 48  1  0  0  0  0
 24 49  1  0  0  0  0
 24 50  1  0  0  0  0
M  CHG  1  19   1
M  END
> <s_m_source_file>
AV-unprocessed.smi

> <i_m_source_file_index>
1985

> <i_lp_mmshare_version>
43012

> <i_f3d_flags>
0

> <s_epik_input>
W0NIMl0xW0NIMl1PW0NIMl1bQ0gyXU4xW0NAQF0oW0NIM10pKFtDSDJdW0NIM10pW0NIMl1bTkhdQyg9TylbQ0gyXW4yW2NIXVtjSF1jKD1PKW4oW0NIM10pYzI9Tw==

> <s_epik_cmdline>
J2VwaWtfcHl0aG9uJywgJy1waCcsICc3LjAnLCAnLXRuJywgJzgnLCAnLW1hJywgJzIwMCcsICctbWV0YWxfYmluZGluZycsICctaW1hZScsICc8aW5maWxlLm1hZT4nLCAnLW9tYWUnLCAnPG91dGZpbGUubWFlPic=

> <r_lp_tautomer_probability>
1

> <r_epik_Ionization_Penalty>
0.519658

> <r_epik_Ionization_Penalty_Charging>
0.519658

> <r_epik_Ionization_Penalty_Neutral>
8.70177e-08

> <r_epik_State_Penalty>
0.527569

> <r_epik_Charging_Adjusted_Penalty>
1.04723

> <i_epik_Tot_Q>
1

> <i_epik_Tot_abs_Q>
1

> <r_epik_Metal_State_Penalty>
0.527613

> <b_epik_Metal_Only>
0

> <s_lp_Force_Field>
OPLS_2005

> <r_lp_Energy>
36.0852

> <b_lp_Chiralities_Consistent>
1

> <s_lp_Variant>
AV-unprocessed.smi:1985-3

> <Gold.Version>
5.8.1

> <Gold.Id.Protein>
6NUR|6NUR_protein|mol2

> <Gold.PLP.Fitness>
43.9516

> <Gold.PLP.PLP>
-36.5892

> <Gold.PLP.part.hbond>
-2.8573

> <Gold.PLP.part.metal>
0.0000

> <Gold.PLP.part.buried>
-2.8126

> <Gold.PLP.part.nonpolar>
-30.8913

> <Gold.PLP.part.repulsive>
0.2080

> <Gold.PLP.ligand.clash>
0.0000

> <Gold.PLP.ligand.torsion>
1.0373

> <Gold.PLP.Chemscore.Hbond>
2.9920

> <Gold.PLP.Chemscore.CHOScore>
0.0000

> <Gold.PLP.Chemscore.Metal>
0.0000

> <Gold.Chemscore.Hbonds>
donor molecule, donor type, donor heavy atom, donor atom, acceptor molecule, acceptor atom, score
      L1  H     6    35       P1  8028  0.73
      L1  H    19    51       P1 10175  1.95

> <Gold.PLP.Chemscore.Internal.Correction>
0.4611

> <Gold.Rescore>
     Score         DG    S(hbond)    S(metal)    S(lipo)     H(rot)  DE(clash)    DE(int)     intcor
     10.34     -12.93       1.59        0.00      67.95       2.27       1.62       0.97       ----

> <Gold.Chemscore.Fitness>
10.3362

> <Gold.Chemscore.DG>
-12.9272

> <Gold.Chemscore.ZeroCoef>
-5.4800

> <Gold.Chemscore.Hbond>
1.5910

> <Gold.Chemscore.Metal>
0.0000

> <Gold.Chemscore.Lipo>
67.9532

> <Gold.Chemscore.Internal_Hbond>
0.0000

> <Gold.Chemscore.DEClash>
1.6205

> <Gold.Chemscore.DEInternal>
0.9705

> <Gold.Chemscore.Rot>
2.2724

> <Gold.Chemscore.Internal.Correction>
   9.000000E+99

> <Gold.Chemscore.Hbonds>
donor molecule, donor type, donor heavy atom, donor atom, acceptor molecule, acceptor atom, score
      L1  H     6    35       P1  8028  0.70
      L1  H    19    51       P1 10175  0.91

> <Gold.Chemscore.Hbond.Weighted>
-5.3141

> <Gold.Chemscore.Metal.Weighted>
-0.0000

> <Gold.Chemscore.Lipo.Weighted>
-7.9505

> <Gold.Chemscore.Internal_Hbond.Weighted>
0.0000

> <Gold.Chemscore.DEClash.Weighted>
1.6205

> <Gold.Chemscore.DEInternal.Weighted>
0.9705

> <Gold.Chemscore.Rot.Weighted>
5.8174

> <Gold.Chemscore.Internal.Correction.Weighted>
   9.000000E+99

> <Gold.Protein.RotatedTorsions>
[ 6907 6896 6895 6894 ] final -176.08 input  -60.11 | X-H torsion
[ 7974 7965 7964 7962 ] final    1.51 input  175.53 | X-H torsion
[ 8008 7997 7996 7995 ] final   24.33 input   59.86 | X-H torsion
[ 10167 10162 10161 10158 ] final  -52.20 input  -65.29 | X-H torsion
[ 10718 10713 10712 10709 ] final  -54.47 input   66.30 | X-H torsion
[ 10763 10752 10751 10750 ] final  -99.03 input  -60.55 | X-H torsion
[ 11005 11000 10999 10996 ] final   67.80 input  -57.11 | X-H torsion

> <Gold.Protein.ActiveResidues>
 VAL166  LYS551  ARG553  GLY616  TRP617  ASP618  TYR619  PRO620  LYS621  CYS622 
 ASP623  PHE694  ASN695  SER759  ASP760  ASP761  ALA762  ILE779  LEU786  VAL792 
 PHE793  MET794  SER795  GLU796  ALA797  LYS798  CYS799  TRP800  GLU811  SER814 

> <Gold.Protein.RotatedAtoms>
  151.5989  133.3358  159.3043 H   0  0  0  0  0  0  0  0  0  0  0  0  # atno 6907 bound_to 6896
  150.8219  134.7434  159.6790 H   0  0  0  0  0  0  0  0  0  0  0  0  # atno 6908 bound_to 6896
  152.4311  134.5781  159.9991 H   0  0  0  0  0  0  0  0  0  0  0  0  # atno 6909 bound_to 6896
  146.2440  140.0976  142.8349 H   0  0  0  0  0  0  0  0  0  0  0  0  # atno 7974 bound_to 7965
  154.9946  140.3118  155.4892 H   0  0  0  0  0  0  0  0  0  0  0  0  # atno 8008 bound_to 7997
  156.2934  140.2243  156.4993 H   0  0  0  0  0  0  0  0  0  0  0  0  # atno 8009 bound_to 7997
  154.7672  140.0455  157.1010 H   0  0  0  0  0  0  0  0  0  0  0  0  # atno 8010 bound_to 7997
  140.6549  143.2592  151.4613 H   0  0  0  0  0  0  0  0  0  0  0  0  # atno 10167 bound_to 10162
  156.1448  130.4153  150.0043 H   0  0  0  0  0  0  0  0  0  0  0  0  # atno 10718 bound_to 10713
  154.7464  135.4987  153.9212 H   0  0  0  0  0  0  0  0  0  0  0  0  # atno 10763 bound_to 10752
  153.1097  135.6706  153.9531 H   0  0  0  0  0  0  0  0  0  0  0  0  # atno 10764 bound_to 10752
  153.9294  135.3079  155.3425 H   0  0  0  0  0  0  0  0  0  0  0  0  # atno 10765 bound_to 10752
  139.9749  134.6839  156.0373 H   0  0  0  0  0  0  0  0  0  0  0  0  # atno 11005 bound_to 11000
  145.0596  140.9078  143.4947 LP  0  0  0  0  0  0  0  0  0  0  0  0  # atno 17320 bound_to 7965
  145.1089  139.2770  143.5647 LP  0  0  0  0  0  0  0  0  0  0  0  0  # atno 17321 bound_to 7965
  139.5770  144.1795  152.1917 LP  0  0  0  0  0  0  0  0  0  0  0  0  # atno 17342 bound_to 10162
  140.1109  144.5458  150.6926 LP  0  0  0  0  0  0  0  0  0  0  0  0  # atno 17343 bound_to 10162
  156.7918  130.9258  151.3646 LP  0  0  0  0  0  0  0  0  0  0  0  0  # atno 17370 bound_to 10713
  157.6607  130.8963  149.9823 LP  0  0  0  0  0  0  0  0  0  0  0  0  # atno 17371 bound_to 10713
  141.1427  133.6561  156.3776 LP  0  0  0  0  0  0  0  0  0  0  0  0  # atno 17394 bound_to 11000
  140.5215  134.6299  157.5320 LP  0  0  0  0  0  0  0  0  0  0  0  0  # atno 17395 bound_to 11000

$$$$
