AV-unprocessed.smi:2190|AV-procd|sdf|8891|dock7
  -GOLD-   2272012 93D 1   1.00000     0.00000
 Structure written by MMmdl.
 47 49  0  0  0  0  0  0  0  0  2 V2000
  153.1222  142.9192  162.9602 C   0  0  0  0  0  0  0  0  0  0  0  0
  152.7005  143.2132  161.5351 C   0  0  0  0  0  0  0  0  0  0  0  0
  152.3586  144.5240  161.1518 C   0  0  0  0  0  0  0  0  0  0  0  0
  151.9657  144.7885  159.8276 C   0  0  0  0  0  0  0  0  0  0  0  0
  151.9109  143.7458  158.8796 C   0  0  0  0  0  0  0  0  0  0  0  0
  151.4838  144.0499  157.4558 C   0  0  0  0  0  0  0  0  0  0  0  0
  152.2509  142.4241  159.2511 C   0  0  0  0  0  0  0  0  0  0  0  0
  152.1762  141.4506  158.2758 O   0  0  0  0  0  0  0  0  0  0  0  0
  152.4616  140.1056  158.6360 C   0  0  0  0  0  0  0  0  0  0  0  0
  152.2542  139.2090  157.4055 C   0  0  1  0  0  0  0  0  0  0  0  0
  152.9701  138.0056  157.6030 O   0  0  0  0  0  0  0  0  0  0  0  0
  150.7646  138.8815  157.1810 C   0  0  0  0  0  0  0  0  0  0  0  0
  150.2676  139.3402  155.8724 N   0  0  0  0  0  0  0  0  0  0  0  0
  150.6930  139.0302  154.6131 C   0  0  0  0  0  0  0  0  0  0  0  0
  151.8041  138.1051  154.2386 C   0  0  0  0  0  0  0  0  0  0  0  0
  151.3632  136.7745  154.0851 O   0  0  0  0  0  0  0  0  0  0  0  0
  149.9017  139.7136  153.7394 N   0  3  0  0  0  0  0  0  0  0  0  0
  148.9600  140.4654  154.4423 C   0  0  0  0  0  0  0  0  0  0  0  0
  147.9512  141.3109  153.9912 C   0  0  0  0  0  0  0  0  0  0  0  0
  147.1526  141.9256  154.9775 C   0  0  0  0  0  0  0  0  0  0  0  0
  147.3701  141.6886  156.3501 C   0  0  0  0  0  0  0  0  0  0  0  0
  148.3971  140.8304  156.7951 C   0  0  0  0  0  0  0  0  0  0  0  0
  149.1856  140.2285  155.8141 C   0  0  0  0  0  0  0  0  0  0  0  0
  152.6451  142.1693  160.5897 C   0  0  0  0  0  0  0  0  0  0  0  0
  153.3697  143.8355  163.4971 H   0  0  0  0  0  0  0  0  0  0  0  0
  153.9997  142.2721  162.9737 H   0  0  0  0  0  0  0  0  0  0  0  0
  152.3159  142.4165  163.4943 H   0  0  0  0  0  0  0  0  0  0  0  0
  152.3954  145.3301  161.8700 H   0  0  0  0  0  0  0  0  0  0  0  0
  151.7057  145.7975  159.5431 H   0  0  0  0  0  0  0  0  0  0  0  0
  152.2759  143.7798  156.7568 H   0  0  0  0  0  0  0  0  0  0  0  0
  151.2614  145.1089  157.3226 H   0  0  0  0  0  0  0  0  0  0  0  0
  150.5895  143.4815  157.1992 H   0  0  0  0  0  0  0  0  0  0  0  0
  153.4751  139.9973  159.0269 H   0  0  0  0  0  0  0  0  0  0  0  0
  151.7658  139.8062  159.4217 H   0  0  0  0  0  0  0  0  0  0  0  0
  152.6442  139.7100  156.5188 H   0  0  0  0  0  0  0  0  0  0  0  0
  153.5173  138.1072  158.3669 H   0  0  0  0  0  0  0  0  0  0  0  0
  150.5759  137.8134  157.2883 H   0  0  0  0  0  0  0  0  0  0  0  0
  150.1576  139.3669  157.9454 H   0  0  0  0  0  0  0  0  0  0  0  0
  152.2527  138.4400  153.3031 H   0  0  0  0  0  0  0  0  0  0  0  0
  152.5865  138.1382  154.9964 H   0  0  0  0  0  0  0  0  0  0  0  0
  151.2353  136.6036  153.1643 H   0  0  0  0  0  0  0  0  0  0  0  0
  147.7803  141.4909  152.9400 H   0  0  0  0  0  0  0  0  0  0  0  0
  146.3556  142.5895  154.6750 H   0  0  0  0  0  0  0  0  0  0  0  0
  146.7352  142.1732  157.0776 H   0  0  0  0  0  0  0  0  0  0  0  0
  148.5478  140.6523  157.8494 H   0  0  0  0  0  0  0  0  0  0  0  0
  152.9103  141.1759  160.9177 H   0  0  0  0  0  0  0  0  0  0  0  0
  149.9974  139.6612  152.7335 H   0  0  0  0  0  0  0  0  0  0  0  0
  1  2  1  0  0  0  0
  1 25  1  0  0  0  0
  1 26  1  0  0  0  0
  1 27  1  0  0  0  0
  2 24  1  0  0  0  0
  2  3  2  0  0  0  0
  3  4  1  0  0  0  0
  3 28  1  0  0  0  0
  4  5  2  0  0  0  0
  4 29  1  0  0  0  0
  5  6  1  0  0  0  0
  5  7  1  0  0  0  0
  6 30  1  0  0  0  0
  6 31  1  0  0  0  0
  6 32  1  0  0  0  0
  7  8  1  0  0  0  0
  7 24  2  0  0  0  0
  8  9  1  0  0  0  0
  9 10  1  0  0  0  0
  9 33  1  0  0  0  0
  9 34  1  0  0  0  0
 10 11  1  0  0  0  0
 10 12  1  0  0  0  0
 10 35  1  0  0  0  0
 11 36  1  0  0  0  0
 12 13  1  0  0  0  0
 12 37  1  0  0  0  0
 12 38  1  0  0  0  0
 13 23  1  0  0  0  0
 13 14  1  0  0  0  0
 14 15  1  0  0  0  0
 14 17  2  0  0  0  0
 15 16  1  0  0  0  0
 15 39  1  0  0  0  0
 15 40  1  0  0  0  0
 16 41  1  0  0  0  0
 17 18  1  0  0  0  0
 17 47  1  0  0  0  0
 18 23  2  0  0  0  0
 18 19  1  0  0  0  0
 19 20  2  0  0  0  0
 19 42  1  0  0  0  0
 20 21  1  0  0  0  0
 20 43  1  0  0  0  0
 21 22  2  0  0  0  0
 21 44  1  0  0  0  0
 22 23  1  0  0  0  0
 22 45  1  0  0  0  0
 24 46  1  0  0  0  0
M  CHG  1  17   1
M  END
> <s_m_source_file>
AV-unprocessed.smi

> <i_m_source_file_index>
2190

> <i_lp_mmshare_version>
43012

> <i_f3d_flags>
0

> <s_epik_input>
W0NIM11jMVtjSF1bY0hdYyhbQ0gzXSljKFtjSF0xKU9bQ0gyXVtDQEhdKFtPSF0pW0NIMl1uKGMobjIpW0NIMl1bT0hdKWMoYzIzKVtjSF1bY0hdW2NIXVtjSF0z

> <s_epik_cmdline>
J2VwaWtfcHl0aG9uJywgJy1waCcsICc3LjAnLCAnLXRuJywgJzgnLCAnLW1hJywgJzIwMCcsICctbWV0YWxfYmluZGluZycsICctaW1hZScsICc8aW5maWxlLm1hZT4nLCAnLW9tYWUnLCAnPG91dGZpbGUubWFlPic=

> <r_lp_tautomer_probability>
1

> <r_epik_Ionization_Penalty>
1.43125

> <r_epik_Ionization_Penalty_Charging>
1.43039

> <r_epik_Ionization_Penalty_Neutral>
0.000858184

> <r_epik_State_Penalty>
1.51493

> <r_epik_Charging_Adjusted_Penalty>
2.94531

> <i_epik_Tot_Q>
1

> <i_epik_Tot_abs_Q>
1

> <r_epik_Metal_State_Penalty>
5.5599

> <b_epik_Metal_Only>
0

> <s_lp_Force_Field>
OPLS_2005

> <r_lp_Energy>
19.5123

> <b_lp_Chiralities_Consistent>
1

> <s_lp_Variant>
AV-unprocessed.smi:2190-4

> <Gold.Version>
5.8.1

> <Gold.Id.Protein>
6NUR|6NUR_protein|mol2

> <Gold.PLP.Fitness>
60.2624

> <Gold.PLP.PLP>
-53.8438

> <Gold.PLP.part.hbond>
-3.2467

> <Gold.PLP.part.metal>
0.0000

> <Gold.PLP.part.buried>
-7.8295

> <Gold.PLP.part.nonpolar>
-44.6863

> <Gold.PLP.part.repulsive>
1.4960

> <Gold.PLP.ligand.clash>
0.0000

> <Gold.PLP.ligand.torsion>
1.3301

> <Gold.PLP.Chemscore.Hbond>
3.0000

> <Gold.PLP.Chemscore.CHOScore>
0.0000

> <Gold.PLP.Chemscore.Metal>
0.0000

> <Gold.Chemscore.Hbonds>
donor molecule, donor type, donor heavy atom, donor atom, acceptor molecule, acceptor atom, score
      L1  H    16    41       P1  7949  1.00
      L1  H    17    47       P1  7957  1.00
      P1  H 10752 10764       L1    16  0.98

> <Gold.PLP.Chemscore.Internal.Correction>
0.0789

> <Gold.Rescore>
     Score         DG    S(hbond)    S(metal)    S(lipo)     H(rot)  DE(clash)    DE(int)     intcor
     20.28     -22.10       2.30        0.00     143.08       3.05       0.48       1.34       ----

> <Gold.Chemscore.Fitness>
20.2772

> <Gold.Chemscore.DG>
-22.0985

> <Gold.Chemscore.ZeroCoef>
-5.4800

> <Gold.Chemscore.Hbond>
2.2993

> <Gold.Chemscore.Metal>
0.0000

> <Gold.Chemscore.Lipo>
143.0827

> <Gold.Chemscore.Internal_Hbond>
0.0000

> <Gold.Chemscore.DEClash>
0.4784

> <Gold.Chemscore.DEInternal>
1.3428

> <Gold.Chemscore.Rot>
3.0476

> <Gold.Chemscore.Internal.Correction>
   9.000000E+99

> <Gold.Chemscore.Hbonds>
donor molecule, donor type, donor heavy atom, donor atom, acceptor molecule, acceptor atom, score
      L1  H    16    41       P1  7949  0.60
      L1  H    17    47       P1  7957  0.98
      P1  H 10752 10764       L1    16  0.22

> <Gold.Chemscore.Hbond.Weighted>
-7.6796

> <Gold.Chemscore.Metal.Weighted>
-0.0000

> <Gold.Chemscore.Lipo.Weighted>
-16.7407

> <Gold.Chemscore.Internal_Hbond.Weighted>
0.0000

> <Gold.Chemscore.DEClash.Weighted>
0.4784

> <Gold.Chemscore.DEInternal.Weighted>
1.3428

> <Gold.Chemscore.Rot.Weighted>
7.8018

> <Gold.Chemscore.Internal.Correction.Weighted>
   9.000000E+99

> <Gold.Protein.RotatedTorsions>
[ 6907 6896 6895 6894 ] final  -47.53 input  -60.11 | X-H torsion
[ 7974 7965 7964 7962 ] final  -83.29 input  175.53 | X-H torsion
[ 8008 7997 7996 7995 ] final  -62.78 input   59.86 | X-H torsion
[ 10167 10162 10161 10158 ] final  100.16 input  -65.29 | X-H torsion
[ 10718 10713 10712 10709 ] final  -60.26 input   66.30 | X-H torsion
[ 10763 10752 10751 10750 ] final  -58.74 input  -60.55 | X-H torsion
[ 11005 11000 10999 10996 ] final   73.31 input  -57.11 | X-H torsion

> <Gold.Protein.ActiveResidues>
 VAL166  LYS551  ARG553  GLY616  TRP617  ASP618  TYR619  PRO620  LYS621  CYS622 
 ASP623  PHE694  ASN695  SER759  ASP760  ASP761  ALA762  ILE779  LEU786  VAL792 
 PHE793  MET794  SER795  GLU796  ALA797  LYS798  CYS799  TRP800  GLU811  SER814 

> <Gold.Protein.RotatedAtoms>
  150.8998  134.8409  159.7351 H   0  0  0  0  0  0  0  0  0  0  0  0  # atno 6907 bound_to 6896
  152.4886  134.4520  159.9587 H   0  0  0  0  0  0  0  0  0  0  0  0  # atno 6908 bound_to 6896
  151.4573  133.3563  159.2839 H   0  0  0  0  0  0  0  0  0  0  0  0  # atno 6909 bound_to 6896
  145.5219  140.9530  143.1650 H   0  0  0  0  0  0  0  0  0  0  0  0  # atno 7974 bound_to 7965
  154.4518  140.0989  156.6640 H   0  0  0  0  0  0  0  0  0  0  0  0  # atno 8008 bound_to 7997
  155.5261  140.3480  155.4398 H   0  0  0  0  0  0  0  0  0  0  0  0  # atno 8009 bound_to 7997
  156.0696  140.1346  156.9833 H   0  0  0  0  0  0  0  0  0  0  0  0  # atno 8010 bound_to 7997
  139.7552  144.6972  151.0373 H   0  0  0  0  0  0  0  0  0  0  0  0  # atno 10167 bound_to 10162
  156.1003  130.4187  150.0829 H   0  0  0  0  0  0  0  0  0  0  0  0  # atno 10718 bound_to 10713
  154.2428  135.6340  153.5213 H   0  0  0  0  0  0  0  0  0  0  0  0  # atno 10763 bound_to 10752
  152.9927  135.5546  154.5891 H   0  0  0  0  0  0  0  0  0  0  0  0  # atno 10764 bound_to 10752
  154.5401  135.2894  155.1078 H   0  0  0  0  0  0  0  0  0  0  0  0  # atno 10765 bound_to 10752
  139.9446  134.7336  156.1011 H   0  0  0  0  0  0  0  0  0  0  0  0  # atno 11005 bound_to 11000
  144.7671  139.6819  143.7210 LP  0  0  0  0  0  0  0  0  0  0  0  0  # atno 17320 bound_to 7965
  146.2100  139.5450  142.9687 LP  0  0  0  0  0  0  0  0  0  0  0  0  # atno 17321 bound_to 7965
  140.7802  143.4762  151.0080 LP  0  0  0  0  0  0  0  0  0  0  0  0  # atno 17342 bound_to 10162
  139.8449  143.7515  152.3179 LP  0  0  0  0  0  0  0  0  0  0  0  0  # atno 17343 bound_to 10162
  156.8818  130.9559  151.3598 LP  0  0  0  0  0  0  0  0  0  0  0  0  # atno 17370 bound_to 10713
  157.6172  130.8627  149.9048 LP  0  0  0  0  0  0  0  0  0  0  0  0  # atno 17371 bound_to 10713
  141.1092  133.6649  156.2938 LP  0  0  0  0  0  0  0  0  0  0  0  0  # atno 17394 bound_to 11000
  140.5866  134.5692  157.5491 LP  0  0  0  0  0  0  0  0  0  0  0  0  # atno 17395 bound_to 11000

$$$$
