AV-unprocessed.smi:1452|AV-procd|sdf|5907|dock6
  -GOLD-   22720 5593D 1   1.00000     0.00000
 Structure written by MMmdl.
 40 42  0  0  0  0  0  0  0  0  2 V2000
  145.2818  138.3625  153.2606 O   0  0  0  0  0  0  0  0  0  0  0  0
  146.2062  137.7018  152.7902 C   0  0  0  0  0  0  0  0  0  0  0  0
  147.4910  138.0871  152.9394 N   0  0  0  0  0  0  0  0  0  0  0  0
  148.0573  139.2197  153.5946 C   0  0  0  0  0  0  0  0  0  0  0  0
  147.2758  140.3948  153.5197 C   0  0  0  0  0  0  0  0  0  0  0  0
  147.7436  141.5812  154.1170 C   0  0  0  0  0  0  0  0  0  0  0  0
  148.9873  141.5653  154.7721 C   0  0  0  0  0  0  0  0  0  0  0  0
  149.7077  140.3573  154.7961 C   0  0  0  0  0  0  0  0  0  0  0  0
  149.2603  139.2190  154.2246 N   0  0  0  0  0  0  0  0  0  0  0  0
  146.0077  136.5631  152.1065 N   0  0  0  0  0  0  0  0  0  0  0  0
  144.7049  135.9916  151.7841 C   0  0  2  0  0  0  0  0  0  0  0  0
  143.9523  135.4804  153.0055 C   0  0  0  0  0  0  0  0  0  0  0  0
  142.9188  134.5255  152.3997 C   0  0  0  0  0  0  0  0  0  0  0  0
  143.4865  134.0324  151.1202 N   0  3  2  0  0  0  0  0  0  0  0  0
  143.5604  132.5497  151.0234 C   0  0  0  0  0  0  0  0  0  0  0  0
  144.5015  132.1181  149.8889 C   0  0  0  0  0  0  0  0  0  0  0  0
  145.9423  132.6046  150.1351 C   0  0  0  0  0  0  0  0  0  0  0  0
  145.9989  133.8373  151.0574 C   0  0  0  0  0  0  0  0  0  0  0  0
  144.7656  134.7553  150.8677 C   0  0  2  0  0  0  0  0  0  0  0  0
  148.1702  137.4261  152.5907 H   0  0  0  0  0  0  0  0  0  0  0  0
  146.3225  140.3920  153.0109 H   0  0  0  0  0  0  0  0  0  0  0  0
  147.1574  142.4872  154.0719 H   0  0  0  0  0  0  0  0  0  0  0  0
  149.3793  142.4552  155.2419 H   0  0  0  0  0  0  0  0  0  0  0  0
  150.6686  140.3025  155.2860 H   0  0  0  0  0  0  0  0  0  0  0  0
  146.8221  136.0790  151.7544 H   0  0  0  0  0  0  0  0  0  0  0  0
  144.0849  136.7546  151.3080 H   0  0  0  0  0  0  0  0  0  0  0  0
  144.6261  134.9273  153.6619 H   0  0  0  0  0  0  0  0  0  0  0  0
  143.4961  136.2806  153.5894 H   0  0  0  0  0  0  0  0  0  0  0  0
  142.6597  133.7243  153.0931 H   0  0  0  0  0  0  0  0  0  0  0  0
  141.9996  135.0660  152.1714 H   0  0  0  0  0  0  0  0  0  0  0  0
  143.9185  132.1279  151.9642 H   0  0  0  0  0  0  0  0  0  0  0  0
  142.5570  132.1544  150.8623 H   0  0  0  0  0  0  0  0  0  0  0  0
  144.4895  131.0340  149.7723 H   0  0  0  0  0  0  0  0  0  0  0  0
  144.1331  132.5292  148.9478 H   0  0  0  0  0  0  0  0  0  0  0  0
  146.5380  131.8049  150.5768 H   0  0  0  0  0  0  0  0  0  0  0  0
  146.4076  132.8339  149.1758 H   0  0  0  0  0  0  0  0  0  0  0  0
  146.0470  133.5088  152.0967 H   0  0  0  0  0  0  0  0  0  0  0  0
  146.9273  134.3772  150.8690 H   0  0  0  0  0  0  0  0  0  0  0  0
  144.7634  135.0898  149.8293 H   0  0  0  0  0  0  0  0  0  0  0  0
  142.8533  134.3379  150.3950 H   0  0  0  0  0  0  0  0  0  0  0  0
  1  2  2  0  0  0  0
  2  3  1  0  0  0  0
  2 10  1  0  0  0  0
  3  4  1  0  0  0  0
  3 20  1  0  0  0  0
  4  9  1  0  0  0  0
  4  5  2  0  0  0  0
  5  6  1  0  0  0  0
  5 21  1  0  0  0  0
  6  7  2  0  0  0  0
  6 22  1  0  0  0  0
  7  8  1  0  0  0  0
  7 23  1  0  0  0  0
  8  9  2  0  0  0  0
  8 24  1  0  0  0  0
 10 11  1  0  0  0  0
 10 25  1  0  0  0  0
 11 19  1  0  0  0  0
 11 12  1  0  0  0  0
 11 26  1  0  0  0  0
 12 13  1  0  0  0  0
 12 27  1  0  0  0  0
 12 28  1  0  0  0  0
 13 14  1  0  0  0  0
 13 29  1  0  0  0  0
 13 30  1  0  0  0  0
 14 19  1  0  0  0  0
 14 15  1  0  0  0  0
 14 40  1  0  0  0  0
 15 16  1  0  0  0  0
 15 31  1  0  0  0  0
 15 32  1  0  0  0  0
 16 17  1  0  0  0  0
 16 33  1  0  0  0  0
 16 34  1  0  0  0  0
 17 18  1  0  0  0  0
 17 35  1  0  0  0  0
 17 36  1  0  0  0  0
 18 19  1  0  0  0  0
 18 37  1  0  0  0  0
 18 38  1  0  0  0  0
 19 39  1  0  0  0  0
M  CHG  1  14   1
M  END
> <s_m_source_file>
AV-unprocessed.smi

> <i_m_source_file_index>
1452

> <i_lp_mmshare_version>
43012

> <i_f3d_flags>
0

> <s_epik_input>
W0NIMl0xW0NIMl1bQ0gyXVtDSDJdW0NASF0oTjEyKVtDQEBIXShbQ0gyXVtDSDJdMilbTkhdQyg9TylbTkhdYzNbY0hdW2NIXVtjSF1bY0hdbjM=

> <s_epik_cmdline>
J2VwaWtfcHl0aG9uJywgJy1waCcsICc3LjAnLCAnLXRuJywgJzgnLCAnLW1hJywgJzIwMCcsICctbWV0YWxfYmluZGluZycsICctaW1hZScsICc8aW5maWxlLm1hZT4nLCAnLW9tYWUnLCAnPG91dGZpbGUubWFlPic=

> <r_epik_Ionization_Penalty>
0.00100813

> <r_epik_Ionization_Penalty_Charging>
0.000974069

> <r_epik_Ionization_Penalty_Neutral>
3.40643e-05

> <r_epik_State_Penalty>
0.000633842

> <r_epik_Charging_Adjusted_Penalty>
0.00160791

> <i_epik_Tot_Q>
1

> <i_epik_Tot_abs_Q>
1

> <r_epik_Metal_State_Penalty>
-0

> <b_epik_Metal_Only>
0

> <s_lp_Force_Field>
OPLS_2005

> <r_lp_Energy>
44.9795

> <b_lp_Chiralities_Consistent>
1

> <s_lp_Variant>
AV-unprocessed.smi:1452-5

> <Gold.Version>
5.8.1

> <Gold.Id.Protein>
6NUR|6NUR_protein|mol2

> <Gold.PLP.Fitness>
46.5532

> <Gold.PLP.PLP>
-36.1561

> <Gold.PLP.part.hbond>
-3.0000

> <Gold.PLP.part.metal>
0.0000

> <Gold.PLP.part.buried>
-4.6044

> <Gold.PLP.part.nonpolar>
-32.5950

> <Gold.PLP.part.repulsive>
2.9304

> <Gold.PLP.ligand.clash>
0.0000

> <Gold.PLP.ligand.torsion>
0.2778

> <Gold.PLP.Chemscore.Hbond>
3.6500

> <Gold.PLP.Chemscore.CHOScore>
0.0000

> <Gold.PLP.Chemscore.Metal>
0.0000

> <Gold.Chemscore.Hbonds>
donor molecule, donor type, donor heavy atom, donor atom, acceptor molecule, acceptor atom, score
      L1  H     3    20       P1  7948  1.00
      L1  H    10    25       P1  7948  0.64
      L1  H    14    40       P1 10186  2.00

> <Gold.PLP.Chemscore.Internal.Correction>
0.0029

> <Gold.Rescore>
     Score         DG    S(hbond)    S(metal)    S(lipo)     H(rot)  DE(clash)    DE(int)     intcor
     17.97     -20.74       2.43        0.00      82.90       1.00       1.21       1.56       ----

> <Gold.Chemscore.Fitness>
17.9735

> <Gold.Chemscore.DG>
-20.7434

> <Gold.Chemscore.ZeroCoef>
-5.4800

> <Gold.Chemscore.Hbond>
2.4324

> <Gold.Chemscore.Metal>
0.0000

> <Gold.Chemscore.Lipo>
82.8998

> <Gold.Chemscore.Internal_Hbond>
0.0000

> <Gold.Chemscore.DEClash>
1.2073

> <Gold.Chemscore.DEInternal>
1.5626

> <Gold.Chemscore.Rot>
1.0000

> <Gold.Chemscore.Internal.Correction>
   9.000000E+99

> <Gold.Chemscore.Hbonds>
donor molecule, donor type, donor heavy atom, donor atom, acceptor molecule, acceptor atom, score
      L1  H     3    20       P1  7948  0.98
      L1  H    10    25       P1  7948  0.63
      L1  H    14    40       P1 10186  0.67

> <Gold.Chemscore.Hbond.Weighted>
-8.1242

> <Gold.Chemscore.Metal.Weighted>
-0.0000

> <Gold.Chemscore.Lipo.Weighted>
-9.6993

> <Gold.Chemscore.Internal_Hbond.Weighted>
0.0000

> <Gold.Chemscore.DEClash.Weighted>
1.2073

> <Gold.Chemscore.DEInternal.Weighted>
1.5626

> <Gold.Chemscore.Rot.Weighted>
2.5600

> <Gold.Chemscore.Internal.Correction.Weighted>
   9.000000E+99

> <Gold.Protein.RotatedTorsions>
[ 6907 6896 6895 6894 ] final  -95.00 input  -60.11 | X-H torsion
[ 7974 7965 7964 7962 ] final  -95.56 input  175.53 | X-H torsion
[ 8008 7997 7996 7995 ] final  -73.13 input   59.86 | X-H torsion
[ 10167 10162 10161 10158 ] final   76.57 input  -65.29 | X-H torsion
[ 10718 10713 10712 10709 ] final   80.75 input   66.30 | X-H torsion
[ 10763 10752 10751 10750 ] final -169.16 input  -60.55 | X-H torsion
[ 11005 11000 10999 10996 ] final  -14.28 input  -57.11 | X-H torsion

> <Gold.Protein.ActiveResidues>
 VAL166  LYS551  ARG553  GLY616  TRP617  ASP618  TYR619  PRO620  LYS621  CYS622 
 ASP623  PHE694  ASN695  SER759  ASP760  ASP761  ALA762  ILE779  LEU786  VAL792 
 PHE793  MET794  SER795  GLU796  ALA797  LYS798  CYS799  TRP800  GLU811  SER814 

> <Gold.Protein.RotatedAtoms>
  150.6954  134.1725  159.4217 H   0  0  0  0  0  0  0  0  0  0  0  0  # atno 6907 bound_to 6896
  151.9702  135.0078  160.0561 H   0  0  0  0  0  0  0  0  0  0  0  0  # atno 6908 bound_to 6896
  152.1848  133.4697  159.5014 H   0  0  0  0  0  0  0  0  0  0  0  0  # atno 6909 bound_to 6896
  145.3584  140.9488  143.2514 H   0  0  0  0  0  0  0  0  0  0  0  0  # atno 7974 bound_to 7965
  154.5222  140.0784  156.8193 H   0  0  0  0  0  0  0  0  0  0  0  0  # atno 8008 bound_to 7997
  155.3551  140.3415  155.4221 H   0  0  0  0  0  0  0  0  0  0  0  0  # atno 8009 bound_to 7997
  156.1693  140.1614  156.8462 H   0  0  0  0  0  0  0  0  0  0  0  0  # atno 8010 bound_to 7997
  139.9909  144.5758  150.7819 H   0  0  0  0  0  0  0  0  0  0  0  0  # atno 10167 bound_to 10162
  157.6815  130.9973  150.2126 H   0  0  0  0  0  0  0  0  0  0  0  0  # atno 10718 bound_to 10713
  154.6553  135.2917  154.9936 H   0  0  0  0  0  0  0  0  0  0  0  0  # atno 10763 bound_to 10752
  154.1015  135.6576  153.4873 H   0  0  0  0  0  0  0  0  0  0  0  0  # atno 10764 bound_to 10752
  153.0399  135.5243  154.7479 H   0  0  0  0  0  0  0  0  0  0  0  0  # atno 10765 bound_to 10752
  140.7848  133.8334  155.9325 H   0  0  0  0  0  0  0  0  0  0  0  0  # atno 11005 bound_to 11000
  144.8664  139.5101  143.6788 LP  0  0  0  0  0  0  0  0  0  0  0  0  # atno 17320 bound_to 7965
  146.2938  139.7216  142.9142 LP  0  0  0  0  0  0  0  0  0  0  0  0  # atno 17321 bound_to 7965
  140.7455  143.2876  151.3419 LP  0  0  0  0  0  0  0  0  0  0  0  0  # atno 17342 bound_to 10162
  139.6341  144.0664  152.2501 LP  0  0  0  0  0  0  0  0  0  0  0  0  # atno 17343 bound_to 10162
  156.2794  130.3731  149.7951 LP  0  0  0  0  0  0  0  0  0  0  0  0  # atno 17370 bound_to 10713
  156.5644  130.8397  151.3338 LP  0  0  0  0  0  0  0  0  0  0  0  0  # atno 17371 bound_to 10713
  140.9447  134.1856  157.4772 LP  0  0  0  0  0  0  0  0  0  0  0  0  # atno 17394 bound_to 11000
  139.8738  134.9886  156.5418 LP  0  0  0  0  0  0  0  0  0  0  0  0  # atno 17395 bound_to 11000

$$$$
