AV-unprocessed.smi:2375|AV-procd|sdf|9442|dock3
  -GOLD-   2272013 73D 1   1.00000     0.00000
 Structure written by MMmdl.
 37 38  0  0  0  0  0  0  0  0  1 V2000
  150.8586  142.1601  158.2897 C   0  0  0  0  0  0  0  0  0  0  0  0
  150.4754  141.4839  157.0176 C   0  0  0  0  0  0  0  0  0  0  0  0
  151.3080  140.9631  156.0581 C   0  0  0  0  0  0  0  0  0  0  0  0
  150.6346  140.3985  154.9730 N   0  0  0  0  0  0  0  0  0  0  0  0
  149.3069  140.4892  155.0922 C   0  0  0  0  0  0  0  0  0  0  0  0
  148.3414  140.0045  154.0535 C   0  0  2  0  0  0  0  0  0  0  0  0
  147.4767  141.1436  153.4948 C   0  0  0  0  0  0  0  0  0  0  0  0
  147.5098  138.7886  154.5139 C   0  0  0  0  0  0  0  0  0  0  0  0
  147.3080  137.8238  153.4348 N   0  0  0  0  0  0  0  0  0  0  0  0
  146.1196  137.3824  152.9868 C   0  0  0  0  0  0  0  0  0  0  0  0
  145.0383  137.7970  153.3998 O   0  0  0  0  0  0  0  0  0  0  0  0
  146.1966  136.4333  152.0372 N   0  0  0  0  0  0  0  0  0  0  0  0
  145.0959  135.7545  151.3520 C   0  0  0  0  0  0  0  0  0  0  0  0
  143.8892  135.5242  152.2936 C   0  0  0  0  0  0  0  0  0  0  0  0
  143.4728  134.1084  151.9987 C   0  0  0  0  0  0  0  0  0  0  0  0
  144.3348  133.4816  151.2006 C   0  0  0  0  0  0  0  0  0  0  0  0
  145.4936  134.3573  150.8100 C   0  0  0  0  0  0  0  0  0  0  0  0
  148.7998  141.2726  156.5843 S   0  0  0  0  0  0  0  0  0  0  0  0
  151.9398  142.1494  158.4305 H   0  0  0  0  0  0  0  0  0  0  0  0
  150.4028  141.6620  159.1455 H   0  0  0  0  0  0  0  0  0  0  0  0
  150.5295  143.1994  158.2882 H   0  0  0  0  0  0  0  0  0  0  0  0
  152.3879  140.9534  156.0644 H   0  0  0  0  0  0  0  0  0  0  0  0
  148.9524  139.6555  153.2198 H   0  0  0  0  0  0  0  0  0  0  0  0
  148.0965  141.9442  153.0898 H   0  0  0  0  0  0  0  0  0  0  0  0
  146.8402  141.5735  154.2688 H   0  0  0  0  0  0  0  0  0  0  0  0
  146.8299  140.7880  152.6923 H   0  0  0  0  0  0  0  0  0  0  0  0
  147.9916  138.3154  155.3711 H   0  0  0  0  0  0  0  0  0  0  0  0
  146.5311  139.1192  154.8625 H   0  0  0  0  0  0  0  0  0  0  0  0
  148.1396  137.4253  153.0239 H   0  0  0  0  0  0  0  0  0  0  0  0
  147.1248  136.1826  151.7288 H   0  0  0  0  0  0  0  0  0  0  0  0
  144.7487  136.3688  150.5190 H   0  0  0  0  0  0  0  0  0  0  0  0
  144.1601  135.6030  153.3474 H   0  0  0  0  0  0  0  0  0  0  0  0
  143.0765  136.2224  152.0909 H   0  0  0  0  0  0  0  0  0  0  0  0
  142.5812  133.6692  152.4214 H   0  0  0  0  0  0  0  0  0  0  0  0
  144.2518  132.4549  150.8754 H   0  0  0  0  0  0  0  0  0  0  0  0
  145.6353  134.3654  149.7287 H   0  0  0  0  0  0  0  0  0  0  0  0
  146.4011  133.9727  151.2774 H   0  0  0  0  0  0  0  0  0  0  0  0
  1  2  1  0  0  0  0
  1 19  1  0  0  0  0
  1 20  1  0  0  0  0
  1 21  1  0  0  0  0
  2 18  1  0  0  0  0
  2  3  2  0  0  0  0
  3  4  1  0  0  0  0
  3 22  1  0  0  0  0
  4  5  2  0  0  0  0
  5  6  1  0  0  0  0
  5 18  1  0  0  0  0
  6  7  1  0  0  0  0
  6  8  1  0  0  0  0
  6 23  1  0  0  0  0
  7 24  1  0  0  0  0
  7 25  1  0  0  0  0
  7 26  1  0  0  0  0
  8  9  1  0  0  0  0
  8 27  1  0  0  0  0
  8 28  1  0  0  0  0
  9 10  1  0  0  0  0
  9 29  1  0  0  0  0
 10 11  2  0  0  0  0
 10 12  1  0  0  0  0
 12 13  1  0  0  0  0
 12 30  1  0  0  0  0
 13 17  1  0  0  0  0
 13 14  1  0  0  0  0
 13 31  1  0  0  0  0
 14 15  1  0  0  0  0
 14 32  1  0  0  0  0
 14 33  1  0  0  0  0
 15 16  2  0  0  0  0
 15 34  1  0  0  0  0
 16 17  1  0  0  0  0
 16 35  1  0  0  0  0
 17 36  1  0  0  0  0
 17 37  1  0  0  0  0
M  END
> <s_m_source_file>
AV-unprocessed.smi

> <i_m_source_file_index>
2375

> <i_lp_mmshare_version>
43012

> <i_f3d_flags>
0

> <s_epik_input>
W0NIM11jMVtjSF1uYyhzMSlbQ0BIXShbQ0gzXSlbQ0gyXVtOSF1DKD1PKVtOSF1bQ0hdMltDSDJdW0NIXT1bQ0hdW0NIMl0y

> <s_epik_cmdline>
J2VwaWtfcHl0aG9uJywgJy1waCcsICc3LjAnLCAnLXRuJywgJzgnLCAnLW1hJywgJzIwMCcsICctbWV0YWxfYmluZGluZycsICctaW1hZScsICc8aW5maWxlLm1hZT4nLCAnLW9tYWUnLCAnPG91dGZpbGUubWFlPic=

> <r_epik_Ionization_Penalty>
0.000644205

> <r_epik_Ionization_Penalty_Charging>
0

> <r_epik_Ionization_Penalty_Neutral>
0.000644205

> <r_epik_State_Penalty>
0.000370883

> <r_epik_Charging_Adjusted_Penalty>
0.000370883

> <i_epik_Tot_Q>
0

> <i_epik_Tot_abs_Q>
0

> <r_epik_Metal_State_Penalty>
-0

> <b_epik_Metal_Only>
0

> <s_lp_Force_Field>
OPLS_2005

> <r_lp_Energy>
17.1523

> <b_lp_Chiralities_Consistent>
1

> <s_lp_Variant>
AV-unprocessed.smi:2375-1

> <Gold.Version>
5.8.1

> <Gold.Id.Protein>
6NUR|6NUR_protein|mol2

> <Gold.PLP.Fitness>
38.6874

> <Gold.PLP.PLP>
-31.3257

> <Gold.PLP.part.hbond>
-3.0000

> <Gold.PLP.part.metal>
0.0000

> <Gold.PLP.part.buried>
-5.4691

> <Gold.PLP.part.nonpolar>
-23.4257

> <Gold.PLP.part.repulsive>
0.3607

> <Gold.PLP.ligand.clash>
0.0000

> <Gold.PLP.ligand.torsion>
0.8787

> <Gold.PLP.Chemscore.Hbond>
3.0000

> <Gold.PLP.Chemscore.CHOScore>
0.0000

> <Gold.PLP.Chemscore.Metal>
0.0000

> <Gold.Chemscore.Hbonds>
donor molecule, donor type, donor heavy atom, donor atom, acceptor molecule, acceptor atom, score
      L1  H     9    29       P1  7948  1.00
      L1  H    12    30       P1  7948  1.00
      P1  H  7989  7998       L1     4  1.00

> <Gold.PLP.Chemscore.Internal.Correction>
0.1192

> <Gold.Rescore>
     Score         DG    S(hbond)    S(metal)    S(lipo)     H(rot)  DE(clash)    DE(int)     intcor
     16.93     -19.05       2.67        0.00      72.63       1.50       0.01       2.11       ----

> <Gold.Chemscore.Fitness>
16.9294

> <Gold.Chemscore.DG>
-19.0520

> <Gold.Chemscore.ZeroCoef>
-5.4800

> <Gold.Chemscore.Hbond>
2.6697

> <Gold.Chemscore.Metal>
0.0000

> <Gold.Chemscore.Lipo>
72.6331

> <Gold.Chemscore.Internal_Hbond>
0.0000

> <Gold.Chemscore.DEClash>
0.0089

> <Gold.Chemscore.DEInternal>
2.1138

> <Gold.Chemscore.Rot>
1.5012

> <Gold.Chemscore.Internal.Correction>
   9.000000E+99

> <Gold.Chemscore.Hbonds>
donor molecule, donor type, donor heavy atom, donor atom, acceptor molecule, acceptor atom, score
      L1  H     9    29       P1  7948  0.95
      L1  H    12    30       P1  7948  0.98
      P1  H  7989  7998       L1     4  0.49

> <Gold.Chemscore.Hbond.Weighted>
-8.9169

> <Gold.Chemscore.Metal.Weighted>
-0.0000

> <Gold.Chemscore.Lipo.Weighted>
-8.4981

> <Gold.Chemscore.Internal_Hbond.Weighted>
0.0000

> <Gold.Chemscore.DEClash.Weighted>
0.0089

> <Gold.Chemscore.DEInternal.Weighted>
2.1138

> <Gold.Chemscore.Rot.Weighted>
3.8429

> <Gold.Chemscore.Internal.Correction.Weighted>
   9.000000E+99

> <Gold.Protein.RotatedTorsions>
[ 6907 6896 6895 6894 ] final   14.35 input  -60.11 | X-H torsion
[ 7974 7965 7964 7962 ] final  110.62 input  175.53 | X-H torsion
[ 8008 7997 7996 7995 ] final -108.45 input   59.86 | X-H torsion
[ 10167 10162 10161 10158 ] final  128.24 input  -65.29 | X-H torsion
[ 10718 10713 10712 10709 ] final  -15.94 input   66.30 | X-H torsion
[ 10763 10752 10751 10750 ] final  -21.88 input  -60.55 | X-H torsion
[ 11005 11000 10999 10996 ] final  167.06 input  -57.11 | X-H torsion

> <Gold.Protein.ActiveResidues>
 VAL166  LYS551  ARG553  GLY616  TRP617  ASP618  TYR619  PRO620  LYS621  CYS622 
 ASP623  PHE694  ASN695  SER759  ASP760  ASP761  ALA762  ILE779  LEU786  VAL792 
 PHE793  MET794  SER795  GLU796  ALA797  LYS798  CYS799  TRP800  GLU811  SER814 

> <Gold.Protein.RotatedAtoms>
  151.8008  135.0709  160.0399 H   0  0  0  0  0  0  0  0  0  0  0  0  # atno 6907 bound_to 6896
  152.3090  133.5728  159.5676 H   0  0  0  0  0  0  0  0  0  0  0  0  # atno 6908 bound_to 6896
  150.7310  134.0096  159.3707 H   0  0  0  0  0  0  0  0  0  0  0  0  # atno 6909 bound_to 6896
  145.2526  139.2734  143.4059 H   0  0  0  0  0  0  0  0  0  0  0  0  # atno 7974 bound_to 7965
  154.9445  140.0402  157.2113 H   0  0  0  0  0  0  0  0  0  0  0  0  # atno 8008 bound_to 7997
  154.8037  140.2856  155.5881 H   0  0  0  0  0  0  0  0  0  0  0  0  # atno 8009 bound_to 7997
  156.2964  140.2550  156.2911 H   0  0  0  0  0  0  0  0  0  0  0  0  # atno 8010 bound_to 7997
  139.5537  144.6832  151.4247 H   0  0  0  0  0  0  0  0  0  0  0  0  # atno 10167 bound_to 10162
  156.5946  130.4808  149.6265 H   0  0  0  0  0  0  0  0  0  0  0  0  # atno 10718 bound_to 10713
  153.6431  135.6984  153.5234 H   0  0  0  0  0  0  0  0  0  0  0  0  # atno 10763 bound_to 10752
  153.2766  135.4198  155.1038 H   0  0  0  0  0  0  0  0  0  0  0  0  # atno 10764 bound_to 10752
  154.8495  135.3591  154.5975 H   0  0  0  0  0  0  0  0  0  0  0  0  # atno 10765 bound_to 10752
  140.2729  134.7812  157.3691 H   0  0  0  0  0  0  0  0  0  0  0  0  # atno 11005 bound_to 11000
  146.3298  140.2921  142.8616 LP  0  0  0  0  0  0  0  0  0  0  0  0  # atno 17320 bound_to 7965
  144.9489  140.8158  143.5584 LP  0  0  0  0  0  0  0  0  0  0  0  0  # atno 17321 bound_to 7965
  140.6805  143.8092  150.7115 LP  0  0  0  0  0  0  0  0  0  0  0  0  # atno 17342 bound_to 10162
  140.1544  143.4329  152.2109 LP  0  0  0  0  0  0  0  0  0  0  0  0  # atno 17343 bound_to 10162
  156.2521  130.6913  151.1654 LP  0  0  0  0  0  0  0  0  0  0  0  0  # atno 17370 bound_to 10713
  157.7295  131.0624  150.5771 LP  0  0  0  0  0  0  0  0  0  0  0  0  # atno 17371 bound_to 10713
  140.1356  134.5038  155.8071 LP  0  0  0  0  0  0  0  0  0  0  0  0  # atno 17394 bound_to 11000
  141.2175  133.6806  156.7118 LP  0  0  0  0  0  0  0  0  0  0  0  0  # atno 17395 bound_to 11000

$$$$
