AV-unprocessed.smi:1988|AV-procd|sdf|8059|dock7
  -GOLD-   2272010263D 1   1.00000     0.00000
 Structure written by MMmdl.
 37 38  0  0  0  0  0  0  0  0  1 V2000
  151.3115  137.7685  153.9813 C   0  0  0  0  0  0  0  0  0  0  0  0
  151.2257  138.7332  155.1292 C   0  0  0  0  0  0  0  0  0  0  0  0
  151.1901  140.0328  154.8875 N   0  0  0  0  0  0  0  0  0  0  0  0
  151.1084  140.6527  156.1380 O   0  0  0  0  0  0  0  0  0  0  0  0
  151.0976  139.6907  157.0950 C   0  0  0  0  0  0  0  0  0  0  0  0
  151.0138  140.1593  158.5083 C   0  0  0  0  0  0  0  0  0  0  0  0
  151.1698  138.4491  156.5243 C   0  0  0  0  0  0  0  0  0  0  0  0
  151.1853  137.0996  157.1965 C   0  0  0  0  0  0  0  0  0  0  0  0
  150.1605  137.0676  158.3310 C   0  0  0  0  0  0  0  0  0  0  0  0
  150.5362  137.1333  159.5009 O   0  0  0  0  0  0  0  0  0  0  0  0
  148.8717  136.9584  157.9715 N   0  0  0  0  0  0  0  0  0  0  0  0
  147.7338  136.9231  158.8844 C   0  0  0  0  0  0  0  0  0  0  0  0
  147.7815  135.7046  159.8269 C   0  0  1  0  0  0  0  0  0  0  0  0
  146.9596  135.8796  161.1221 C   0  0  0  0  0  0  0  0  0  0  0  0
  146.8446  134.5211  161.8206 C   0  0  0  0  0  0  0  0  0  0  0  0
  146.7862  133.2777  160.4783 S   0  0  0  0  0  0  0  0  0  0  0  0
  147.8462  132.2828  160.7018 O   0  0  0  0  0  0  0  0  0  0  0  0
  145.3934  132.8628  160.2523 O   0  0  0  0  0  0  0  0  0  0  0  0
  147.2914  134.4211  159.1380 C   0  0  0  0  0  0  0  0  0  0  0  0
  151.9877  136.9450  154.2106 H   0  0  0  0  0  0  0  0  0  0  0  0
  151.6784  138.2515  153.0749 H   0  0  0  0  0  0  0  0  0  0  0  0
  150.3332  137.3426  153.7586 H   0  0  0  0  0  0  0  0  0  0  0  0
  151.3780  139.3966  159.1967 H   0  0  0  0  0  0  0  0  0  0  0  0
  149.9832  140.3921  158.7759 H   0  0  0  0  0  0  0  0  0  0  0  0
  151.6133  141.0578  158.6555 H   0  0  0  0  0  0  0  0  0  0  0  0
  150.9580  136.2981  156.4927 H   0  0  0  0  0  0  0  0  0  0  0  0
  152.1726  136.8728  157.6007 H   0  0  0  0  0  0  0  0  0  0  0  0
  148.6621  136.9124  156.9848 H   0  0  0  0  0  0  0  0  0  0  0  0
  147.6629  137.8491  159.4576 H   0  0  0  0  0  0  0  0  0  0  0  0
  146.8304  136.8753  158.2758 H   0  0  0  0  0  0  0  0  0  0  0  0
  148.8188  135.5369  160.1211 H   0  0  0  0  0  0  0  0  0  0  0  0
  147.3975  136.6242  161.7872 H   0  0  0  0  0  0  0  0  0  0  0  0
  145.9591  136.2309  160.8659 H   0  0  0  0  0  0  0  0  0  0  0  0
  147.7282  134.3213  162.4273 H   0  0  0  0  0  0  0  0  0  0  0  0
  145.9600  134.4388  162.4524 H   0  0  0  0  0  0  0  0  0  0  0  0
  146.4127  134.6169  158.5226 H   0  0  0  0  0  0  0  0  0  0  0  0
  148.0537  133.9554  158.5133 H   0  0  0  0  0  0  0  0  0  0  0  0
  1  2  1  0  0  0  0
  1 20  1  0  0  0  0
  1 21  1  0  0  0  0
  1 22  1  0  0  0  0
  2  7  1  0  0  0  0
  2  3  2  0  0  0  0
  3  4  1  0  0  0  0
  4  5  1  0  0  0  0
  5  6  1  0  0  0  0
  5  7  2  0  0  0  0
  6 23  1  0  0  0  0
  6 24  1  0  0  0  0
  6 25  1  0  0  0  0
  7  8  1  0  0  0  0
  8  9  1  0  0  0  0
  8 26  1  0  0  0  0
  8 27  1  0  0  0  0
  9 10  2  0  0  0  0
  9 11  1  0  0  0  0
 11 12  1  0  0  0  0
 11 28  1  0  0  0  0
 12 13  1  0  0  0  0
 12 29  1  0  0  0  0
 12 30  1  0  0  0  0
 13 19  1  0  0  0  0
 13 14  1  0  0  0  0
 13 31  1  0  0  0  0
 14 15  1  0  0  0  0
 14 32  1  0  0  0  0
 14 33  1  0  0  0  0
 15 16  1  0  0  0  0
 15 34  1  0  0  0  0
 15 35  1  0  0  0  0
 16 17  2  0  0  0  0
 16 18  2  0  0  0  0
 16 19  1  0  0  0  0
 19 36  1  0  0  0  0
 19 37  1  0  0  0  0
M  END
> <s_m_source_file>
AV-unprocessed.smi

> <i_m_source_file_index>
1988

> <i_lp_mmshare_version>
43012

> <i_f3d_flags>
0

> <s_epik_input>
W0NIM11jMW5vYyhbQ0gzXSljMVtDSDJdQyg9TylbTkhdW0NIMl1bQ0BASF0oW0NIMl0yKVtDSDJdW0NIMl1TMig9Tyk9Tw==

> <s_epik_cmdline>
J2VwaWtfcHl0aG9uJywgJy1waCcsICc3LjAnLCAnLXRuJywgJzgnLCAnLW1hJywgJzIwMCcsICctbWV0YWxfYmluZGluZycsICctaW1hZScsICc8aW5maWxlLm1hZT4nLCAnLW9tYWUnLCAnPG91dGZpbGUubWFlPic=

> <r_lp_tautomer_probability>
1

> <r_epik_Ionization_Penalty>
2.7503e-08

> <r_epik_Ionization_Penalty_Charging>
0

> <r_epik_Ionization_Penalty_Neutral>
2.7503e-08

> <r_epik_State_Penalty>
-0

> <r_epik_Charging_Adjusted_Penalty>
0

> <i_epik_Tot_Q>
0

> <i_epik_Tot_abs_Q>
0

> <r_epik_Metal_State_Penalty>
-0

> <b_epik_Metal_Only>
0

> <s_lp_Force_Field>
OPLS_2005

> <r_lp_Energy>
-1.59396

> <b_lp_Chiralities_Consistent>
1

> <s_lp_Variant>
AV-unprocessed.smi:1988-2

> <Gold.Version>
5.8.1

> <Gold.Id.Protein>
6NUR|6NUR_protein|mol2

> <Gold.PLP.Fitness>
33.9084

> <Gold.PLP.PLP>
-29.1988

> <Gold.PLP.part.hbond>
-1.9530

> <Gold.PLP.part.metal>
0.0000

> <Gold.PLP.part.buried>
-4.4845

> <Gold.PLP.part.nonpolar>
-22.7805

> <Gold.PLP.part.repulsive>
0.1792

> <Gold.PLP.ligand.clash>
0.0000

> <Gold.PLP.ligand.torsion>
0.6385

> <Gold.PLP.Chemscore.Hbond>
1.9913

> <Gold.PLP.Chemscore.CHOScore>
0.0000

> <Gold.PLP.Chemscore.Metal>
0.0000

> <Gold.Chemscore.Hbonds>
donor molecule, donor type, donor heavy atom, donor atom, acceptor molecule, acceptor atom, score
      P1  H  6896  6907       L1    10  0.60
      P1  H  7989  7998       L1     3  1.00

> <Gold.PLP.Chemscore.Internal.Correction>
0.0128

> <Gold.Rescore>
     Score         DG    S(hbond)    S(metal)    S(lipo)     H(rot)  DE(clash)    DE(int)     intcor
     14.84     -15.13       1.95        0.00      63.96       1.70       0.01       0.28       ----

> <Gold.Chemscore.Fitness>
14.8354

> <Gold.Chemscore.DG>
-15.1332

> <Gold.Chemscore.ZeroCoef>
-5.4800

> <Gold.Chemscore.Hbond>
1.9495

> <Gold.Chemscore.Metal>
0.0000

> <Gold.Chemscore.Lipo>
63.9599

> <Gold.Chemscore.Internal_Hbond>
0.0000

> <Gold.Chemscore.DEClash>
0.0149

> <Gold.Chemscore.DEInternal>
0.2830

> <Gold.Chemscore.Rot>
1.6958

> <Gold.Chemscore.Internal.Correction>
   9.000000E+99

> <Gold.Chemscore.Hbonds>
donor molecule, donor type, donor heavy atom, donor atom, acceptor molecule, acceptor atom, score
      P1  H  6896  6907       L1    10  0.30
      P1  H  7989  7998       L1     3  0.99

> <Gold.Chemscore.Hbond.Weighted>
-6.5112

> <Gold.Chemscore.Metal.Weighted>
-0.0000

> <Gold.Chemscore.Lipo.Weighted>
-7.4833

> <Gold.Chemscore.Internal_Hbond.Weighted>
0.0000

> <Gold.Chemscore.DEClash.Weighted>
0.0149

> <Gold.Chemscore.DEInternal.Weighted>
0.2830

> <Gold.Chemscore.Rot.Weighted>
4.3413

> <Gold.Chemscore.Internal.Correction.Weighted>
   9.000000E+99

> <Gold.Protein.RotatedTorsions>
[ 6907 6896 6895 6894 ] final   -9.82 input  -60.11 | X-H torsion
[ 7974 7965 7964 7962 ] final  -60.54 input  175.53 | X-H torsion
[ 8008 7997 7996 7995 ] final  103.10 input   59.86 | X-H torsion
[ 10167 10162 10161 10158 ] final  141.37 input  -65.29 | X-H torsion
[ 10718 10713 10712 10709 ] final   10.23 input   66.30 | X-H torsion
[ 10763 10752 10751 10750 ] final -107.31 input  -60.55 | X-H torsion
[ 11005 11000 10999 10996 ] final   57.50 input  -57.11 | X-H torsion

> <Gold.Protein.ActiveResidues>
 VAL166  LYS551  ARG553  GLY616  TRP617  ASP618  TYR619  PRO620  LYS621  CYS622 
 ASP623  PHE694  ASN695  SER759  ASP760  ASP761  ALA762  ILE779  LEU786  VAL792 
 PHE793  MET794  SER795  GLU796  ALA797  LYS798  CYS799  TRP800  GLU811  SER814 

> <Gold.Protein.RotatedAtoms>
  151.4117  135.0986  159.9586 H   0  0  0  0  0  0  0  0  0  0  0  0  # atno 6907 bound_to 6896
  152.5018  133.8791  159.7348 H   0  0  0  0  0  0  0  0  0  0  0  0  # atno 6908 bound_to 6896
  150.9288  133.6735  159.2843 H   0  0  0  0  0  0  0  0  0  0  0  0  # atno 6909 bound_to 6896
  145.8142  140.8580  143.0166 H   0  0  0  0  0  0  0  0  0  0  0  0  # atno 7974 bound_to 7965
  156.1453  140.3170  155.8561 H   0  0  0  0  0  0  0  0  0  0  0  0  # atno 8008 bound_to 7997
  155.4075  140.0503  157.3050 H   0  0  0  0  0  0  0  0  0  0  0  0  # atno 8009 bound_to 7997
  154.5011  140.2129  155.9356 H   0  0  0  0  0  0  0  0  0  0  0  0  # atno 8010 bound_to 7997
  139.5022  144.6176  151.6128 H   0  0  0  0  0  0  0  0  0  0  0  0  # atno 10167 bound_to 10162
  156.9779  130.5994  149.5674 H   0  0  0  0  0  0  0  0  0  0  0  0  # atno 10718 bound_to 10713
  154.8067  135.4679  154.0411 H   0  0  0  0  0  0  0  0  0  0  0  0  # atno 10763 bound_to 10752
  153.1874  135.6850  153.8404 H   0  0  0  0  0  0  0  0  0  0  0  0  # atno 10764 bound_to 10752
  153.7933  135.3240  155.3358 H   0  0  0  0  0  0  0  0  0  0  0  0  # atno 10765 bound_to 10752
  140.0448  134.5821  155.9336 H   0  0  0  0  0  0  0  0  0  0  0  0  # atno 11005 bound_to 11000
  144.6754  140.0440  143.7480 LP  0  0  0  0  0  0  0  0  0  0  0  0  # atno 17320 bound_to 7965
  145.9744  139.2894  143.1079 LP  0  0  0  0  0  0  0  0  0  0  0  0  # atno 17321 bound_to 7965
  140.5868  143.9850  150.6300 LP  0  0  0  0  0  0  0  0  0  0  0  0  # atno 17342 bound_to 10162
  140.3017  143.3256  152.0965 LP  0  0  0  0  0  0  0  0  0  0  0  0  # atno 17343 bound_to 10162
  156.0256  130.5350  150.8397 LP  0  0  0  0  0  0  0  0  0  0  0  0  # atno 17370 bound_to 10713
  157.5547  131.0944  150.9646 LP  0  0  0  0  0  0  0  0  0  0  0  0  # atno 17371 bound_to 10713
  141.1901  133.6567  156.5398 LP  0  0  0  0  0  0  0  0  0  0  0  0  # atno 17394 bound_to 11000
  140.4011  134.7356  157.4780 LP  0  0  0  0  0  0  0  0  0  0  0  0  # atno 17395 bound_to 11000

$$$$
