AV-unprocessed.smi:671|AV-procd|sdf|3285|dock7
  -GOLD-   22720 0243D 1   1.00000     0.00000
 Structure written by MMmdl.
 50 51  0  0  0  0  0  0  0  0  2 V2000
  148.0044  141.2929  153.7931 C   0  0  0  0  0  0  0  0  0  0  0  0
  148.9135  141.1363  154.9662 C   0  0  0  0  0  0  0  0  0  0  0  0
  149.3231  142.1603  155.7614 N   0  3  0  0  0  0  0  0  0  0  0  0
  150.1354  141.7031  156.7245 N   0  0  0  0  0  0  0  0  0  0  0  0
  150.6877  142.6555  157.6878 C   0  0  0  0  0  0  0  0  0  0  0  0
  150.3007  140.3548  156.6022 C   0  0  0  0  0  0  0  0  0  0  0  0
  151.1461  139.5238  157.5127 C   0  0  0  0  0  0  0  0  0  0  0  0
  149.5251  139.9922  155.4919 C   0  0  0  0  0  0  0  0  0  0  0  0
  149.3643  138.6054  154.9338 C   0  0  0  0  0  0  0  0  0  0  0  0
  148.0184  137.9479  155.3166 C   0  0  2  0  0  0  0  0  0  0  0  0
  148.0491  137.3106  156.7145 C   0  0  0  0  0  0  0  0  0  0  0  0
  147.6534  136.9214  154.3367 N   0  0  0  0  0  0  0  0  0  0  0  0
  146.5564  136.1412  154.3185 C   0  0  0  0  0  0  0  0  0  0  0  0
  145.6921  136.2159  155.1892 O   0  0  0  0  0  0  0  0  0  0  0  0
  146.4993  135.2861  153.2833 N   0  0  0  0  0  0  0  0  0  0  0  0
  145.4583  134.2892  153.0370 C   0  0  2  0  0  0  0  0  0  0  0  0
  146.1094  132.9374  152.6846 C   0  0  0  0  0  0  0  0  0  0  0  0
  145.8426  132.6865  151.1932 C   0  0  0  0  0  0  0  0  0  0  0  0
  145.3023  134.0031  150.6357 C   0  0  0  0  0  0  0  0  0  0  0  0
  144.5805  134.6464  151.8203 C   0  0  2  0  0  0  0  0  0  0  0  0
  144.2558  136.1365  151.6192 C   0  0  0  0  0  0  0  0  0  0  0  0
  147.2263  140.5301  153.8096 H   0  0  0  0  0  0  0  0  0  0  0  0
  148.5692  141.1929  152.8663 H   0  0  0  0  0  0  0  0  0  0  0  0
  147.5259  142.2725  153.8045 H   0  0  0  0  0  0  0  0  0  0  0  0
  151.0206  142.1249  158.5801 H   0  0  0  0  0  0  0  0  0  0  0  0
  149.9218  143.3801  157.9676 H   0  0  0  0  0  0  0  0  0  0  0  0
  151.5343  143.1713  157.2338 H   0  0  0  0  0  0  0  0  0  0  0  0
  151.2644  138.5118  157.1279 H   0  0  0  0  0  0  0  0  0  0  0  0
  150.6858  139.4644  158.4990 H   0  0  0  0  0  0  0  0  0  0  0  0
  152.1370  139.9667  157.6167 H   0  0  0  0  0  0  0  0  0  0  0  0
  149.4536  138.6566  153.8483 H   0  0  0  0  0  0  0  0  0  0  0  0
  150.1869  137.9637  155.2485 H   0  0  0  0  0  0  0  0  0  0  0  0
  147.2364  138.7089  155.3283 H   0  0  0  0  0  0  0  0  0  0  0  0
  148.2337  138.0553  157.4887 H   0  0  0  0  0  0  0  0  0  0  0  0
  148.8287  136.5516  156.7887 H   0  0  0  0  0  0  0  0  0  0  0  0
  147.0969  136.8329  156.9479 H   0  0  0  0  0  0  0  0  0  0  0  0
  148.3117  136.7829  153.5833 H   0  0  0  0  0  0  0  0  0  0  0  0
  147.2552  135.3149  152.6154 H   0  0  0  0  0  0  0  0  0  0  0  0
  144.8335  134.1764  153.9250 H   0  0  0  0  0  0  0  0  0  0  0  0
  147.1802  132.9367  152.8939 H   0  0  0  0  0  0  0  0  0  0  0  0
  145.6749  132.1341  153.2804 H   0  0  0  0  0  0  0  0  0  0  0  0
  146.7347  132.3527  150.6624 H   0  0  0  0  0  0  0  0  0  0  0  0
  145.0872  131.9071  151.0852 H   0  0  0  0  0  0  0  0  0  0  0  0
  146.1314  134.6354  150.3153 H   0  0  0  0  0  0  0  0  0  0  0  0
  144.6481  133.8534  149.7763 H   0  0  0  0  0  0  0  0  0  0  0  0
  143.6330  134.1193  151.9451 H   0  0  0  0  0  0  0  0  0  0  0  0
  145.1506  136.7252  151.4156 H   0  0  0  0  0  0  0  0  0  0  0  0
  143.7735  136.5530  152.5039 H   0  0  0  0  0  0  0  0  0  0  0  0
  143.5762  136.2734  150.7779 H   0  0  0  0  0  0  0  0  0  0  0  0
  149.0906  143.1433  155.6958 H   0  0  0  0  0  0  0  0  0  0  0  0
  1  2  1  0  0  0  0
  1 22  1  0  0  0  0
  1 23  1  0  0  0  0
  1 24  1  0  0  0  0
  2  8  1  0  0  0  0
  2  3  2  0  0  0  0
  3  4  1  0  0  0  0
  3 50  1  0  0  0  0
  4  5  1  0  0  0  0
  4  6  1  0  0  0  0
  5 25  1  0  0  0  0
  5 26  1  0  0  0  0
  5 27  1  0  0  0  0
  6  7  1  0  0  0  0
  6  8  2  0  0  0  0
  7 28  1  0  0  0  0
  7 29  1  0  0  0  0
  7 30  1  0  0  0  0
  8  9  1  0  0  0  0
  9 10  1  0  0  0  0
  9 31  1  0  0  0  0
  9 32  1  0  0  0  0
 10 11  1  0  0  0  0
 10 12  1  0  0  0  0
 10 33  1  0  0  0  0
 11 34  1  0  0  0  0
 11 35  1  0  0  0  0
 11 36  1  0  0  0  0
 12 13  1  0  0  0  0
 12 37  1  0  0  0  0
 13 14  2  0  0  0  0
 13 15  1  0  0  0  0
 15 16  1  0  0  0  0
 15 38  1  0  0  0  0
 16 20  1  0  0  0  0
 16 17  1  0  0  0  0
 16 39  1  0  0  0  0
 17 18  1  0  0  0  0
 17 40  1  0  0  0  0
 17 41  1  0  0  0  0
 18 19  1  0  0  0  0
 18 42  1  0  0  0  0
 18 43  1  0  0  0  0
 19 20  1  0  0  0  0
 19 44  1  0  0  0  0
 19 45  1  0  0  0  0
 20 21  1  0  0  0  0
 20 46  1  0  0  0  0
 21 47  1  0  0  0  0
 21 48  1  0  0  0  0
 21 49  1  0  0  0  0
M  CHG  1   3   1
M  END
> <s_m_source_file>
AV-unprocessed.smi

> <i_m_source_file_index>
671

> <i_lp_mmshare_version>
43012

> <i_f3d_flags>
0

> <s_epik_input>
W0NIM11jMW5uKFtDSDNdKWMoW0NIM10pYzFbQ0gyXVtDQEhdKFtDSDNdKVtOSF1DKD1PKVtOSF1bQ0BASF0yW0NIMl1bQ0gyXVtDSDJdW0NASF0yW0NIM10=

> <s_epik_cmdline>
J2VwaWtfcHl0aG9uJywgJy1waCcsICc3LjAnLCAnLXRuJywgJzgnLCAnLW1hJywgJzIwMCcsICctbWV0YWxfYmluZGluZycsICctaW1hZScsICc8aW5maWxlLm1hZT4nLCAnLW9tYWUnLCAnPG91dGZpbGUubWFlPic=

> <r_lp_tautomer_probability>
1

> <r_epik_Ionization_Penalty>
2.28705

> <r_epik_Ionization_Penalty_Charging>
2.28698

> <r_epik_Ionization_Penalty_Neutral>
6.23157e-05

> <r_epik_State_Penalty>
2.43671

> <r_epik_Charging_Adjusted_Penalty>
4.72369

> <i_epik_Tot_Q>
1

> <i_epik_Tot_abs_Q>
1

> <r_epik_Metal_State_Penalty>
2.44911

> <b_epik_Metal_Only>
0

> <s_lp_Force_Field>
OPLS_2005

> <r_lp_Energy>
35.629

> <b_lp_Chiralities_Consistent>
1

> <s_lp_Variant>
AV-unprocessed.smi:671-13

> <Gold.Version>
5.8.1

> <Gold.Id.Protein>
6NUR|6NUR_protein|mol2

> <Gold.PLP.Fitness>
45.7083

> <Gold.PLP.PLP>
-35.7378

> <Gold.PLP.part.hbond>
-2.8634

> <Gold.PLP.part.metal>
0.0000

> <Gold.PLP.part.buried>
-5.4187

> <Gold.PLP.part.nonpolar>
-28.5354

> <Gold.PLP.part.repulsive>
0.2164

> <Gold.PLP.ligand.clash>
0.0000

> <Gold.PLP.ligand.torsion>
0.6091

> <Gold.PLP.Chemscore.Hbond>
3.7200

> <Gold.PLP.Chemscore.CHOScore>
0.0000

> <Gold.PLP.Chemscore.Metal>
0.0000

> <Gold.Chemscore.Hbonds>
donor molecule, donor type, donor heavy atom, donor atom, acceptor molecule, acceptor atom, score
      L1  H     3    50       P1  8028  2.00
      L1  H    12    37       P1  7948  1.00
      L1  H    15    38       P1  7948  0.96

> <Gold.PLP.Chemscore.Internal.Correction>
0.0286

> <Gold.Rescore>
     Score         DG    S(hbond)    S(metal)    S(lipo)     H(rot)  DE(clash)    DE(int)     intcor
     19.62     -20.69       2.81        0.00      82.77       1.51       0.59       0.49       ----

> <Gold.Chemscore.Fitness>
19.6184

> <Gold.Chemscore.DG>
-20.6929

> <Gold.Chemscore.ZeroCoef>
-5.4800

> <Gold.Chemscore.Hbond>
2.8093

> <Gold.Chemscore.Metal>
0.0000

> <Gold.Chemscore.Lipo>
82.7741

> <Gold.Chemscore.Internal_Hbond>
0.0000

> <Gold.Chemscore.DEClash>
0.5877

> <Gold.Chemscore.DEInternal>
0.4867

> <Gold.Chemscore.Rot>
1.5057

> <Gold.Chemscore.Internal.Correction>
   9.000000E+99

> <Gold.Chemscore.Hbonds>
donor molecule, donor type, donor heavy atom, donor atom, acceptor molecule, acceptor atom, score
      L1  H     3    50       P1  8028  0.98
      L1  H    12    37       P1  7948  0.99
      L1  H    15    38       P1  7948  0.87

> <Gold.Chemscore.Hbond.Weighted>
-9.3830

> <Gold.Chemscore.Metal.Weighted>
-0.0000

> <Gold.Chemscore.Lipo.Weighted>
-9.6846

> <Gold.Chemscore.Internal_Hbond.Weighted>
0.0000

> <Gold.Chemscore.DEClash.Weighted>
0.5877

> <Gold.Chemscore.DEInternal.Weighted>
0.4867

> <Gold.Chemscore.Rot.Weighted>
3.8547

> <Gold.Chemscore.Internal.Correction.Weighted>
   9.000000E+99

> <Gold.Protein.RotatedTorsions>
[ 6907 6896 6895 6894 ] final   18.52 input  -60.11 | X-H torsion
[ 7974 7965 7964 7962 ] final  130.54 input  175.53 | X-H torsion
[ 8008 7997 7996 7995 ] final    5.95 input   59.86 | X-H torsion
[ 10167 10162 10161 10158 ] final -145.28 input  -65.29 | X-H torsion
[ 10718 10713 10712 10709 ] final -115.58 input   66.30 | X-H torsion
[ 10763 10752 10751 10750 ] final  -51.60 input  -60.55 | X-H torsion
[ 11005 11000 10999 10996 ] final -151.82 input  -57.11 | X-H torsion

> <Gold.Protein.ActiveResidues>
 VAL166  LYS551  ARG553  GLY616  TRP617  ASP618  TYR619  PRO620  LYS621  CYS622 
 ASP623  PHE694  ASN695  SER759  ASP760  ASP761  ALA762  ILE779  LEU786  VAL792 
 PHE793  MET794  SER795  GLU796  ALA797  LYS798  CYS799  TRP800  GLU811  SER814 

> <Gold.Protein.RotatedAtoms>
  151.8665  135.0505  160.0474 H   0  0  0  0  0  0  0  0  0  0  0  0  # atno 6907 bound_to 6896
  152.2621  133.5302  159.5396 H   0  0  0  0  0  0  0  0  0  0  0  0  # atno 6908 bound_to 6896
  150.7120  134.0731  159.3914 H   0  0  0  0  0  0  0  0  0  0  0  0  # atno 6909 bound_to 6896
  145.0168  139.4169  143.5217 H   0  0  0  0  0  0  0  0  0  0  0  0  # atno 7974 bound_to 7965
  154.7348  140.2737  155.6424 H   0  0  0  0  0  0  0  0  0  0  0  0  # atno 8008 bound_to 7997
  156.2859  140.2708  156.1984 H   0  0  0  0  0  0  0  0  0  0  0  0  # atno 8009 bound_to 7997
  155.0334  140.0371  157.2472 H   0  0  0  0  0  0  0  0  0  0  0  0  # atno 8010 bound_to 7997
  139.7821  143.8087  152.2640 H   0  0  0  0  0  0  0  0  0  0  0  0  # atno 10167 bound_to 10162
  156.0905  130.6089  150.8925 H   0  0  0  0  0  0  0  0  0  0  0  0  # atno 10718 bound_to 10713
  154.1292  135.6522  153.4918 H   0  0  0  0  0  0  0  0  0  0  0  0  # atno 10763 bound_to 10752
  153.0200  135.5289  154.7018 H   0  0  0  0  0  0  0  0  0  0  0  0  # atno 10764 bound_to 10752
  154.6248  135.2969  155.0255 H   0  0  0  0  0  0  0  0  0  0  0  0  # atno 10765 bound_to 10752
  140.7255  134.3679  157.5176 H   0  0  0  0  0  0  0  0  0  0  0  0  # atno 11005 bound_to 11000
  146.3479  139.9643  142.8713 LP  0  0  0  0  0  0  0  0  0  0  0  0  # atno 17320 bound_to 7965
  145.1949  140.9828  143.4189 LP  0  0  0  0  0  0  0  0  0  0  0  0  # atno 17321 bound_to 7965
  139.8152  144.7319  150.9644 LP  0  0  0  0  0  0  0  0  0  0  0  0  # atno 17342 bound_to 10162
  140.7818  143.4212  151.0839 LP  0  0  0  0  0  0  0  0  0  0  0  0  # atno 17343 bound_to 10162
  157.6053  131.0939  150.8890 LP  0  0  0  0  0  0  0  0  0  0  0  0  # atno 17370 bound_to 10713
  156.9039  130.5256  149.5282 LP  0  0  0  0  0  0  0  0  0  0  0  0  # atno 17371 bound_to 10713
  139.8838  134.8984  156.2743 LP  0  0  0  0  0  0  0  0  0  0  0  0  # atno 17394 bound_to 11000
  140.9966  133.7176  156.0896 LP  0  0  0  0  0  0  0  0  0  0  0  0  # atno 17395 bound_to 11000

$$$$
