AV-unprocessed.smi:35|AV-procd|sdf|258|dock3
  -GOLD-   2262016 23D 1   1.00000     0.00000
 Structure written by MMmdl.
 29 30  0  0  0  0  0  0  0  0  1 V2000
  148.7364  133.5359  156.8231 O   0  0  0  0  0  0  0  0  0  0  0  0
  148.1452  134.4527  156.2569 C   0  0  0  0  0  0  0  0  0  0  0  0
  147.5409  135.4690  157.0008 N   0  0  0  0  0  0  0  0  0  0  0  0
  146.8398  136.5540  156.4716 C   0  0  0  0  0  0  0  0  0  0  0  0
  146.3724  137.4073  157.2245 O   0  0  0  0  0  0  0  0  0  0  0  0
  146.7027  136.6191  155.0653 N   0  0  0  0  0  0  0  0  0  0  0  0
  145.9627  137.8068  154.4702 C   0  0  1  0  0  0  0  0  0  0  0  0
  146.6275  138.9927  154.7845 O   0  0  0  0  0  0  0  0  0  0  0  0
  147.5268  139.3258  153.7361 C   0  0  2  0  0  0  0  0  0  0  0  0
  147.8946  140.8145  153.8329 C   0  0  0  0  0  0  0  0  0  0  0  0
  149.1471  141.0538  153.2271 O   0  0  0  0  0  0  0  0  0  0  0  0
  146.7467  138.9358  152.4780 C   0  0  1  0  0  0  0  0  0  0  0  0
  147.6407  138.5664  151.4469 O   0  0  0  0  0  0  0  0  0  0  0  0
  145.9141  137.7334  152.9248 C   0  0  2  0  0  0  0  0  0  0  0  0
  144.5908  137.8485  152.4402 O   0  0  0  0  0  0  0  0  0  0  0  0
  147.3253  135.6499  154.2844 C   0  0  0  0  0  0  0  0  0  0  0  0
  148.0085  134.6075  154.8134 C   0  0  0  0  0  0  0  0  0  0  0  0
  148.8168  133.3348  153.5277 Br  0  0  0  0  0  0  0  0  0  0  0  0
  147.6236  135.4177  158.0057 H   0  0  0  0  0  0  0  0  0  0  0  0
  144.9856  137.7924  154.9573 H   0  0  0  0  0  0  0  0  0  0  0  0
  148.4210  138.7080  153.8366 H   0  0  0  0  0  0  0  0  0  0  0  0
  147.1346  141.4391  153.3628 H   0  0  0  0  0  0  0  0  0  0  0  0
  147.9572  141.1159  154.8788 H   0  0  0  0  0  0  0  0  0  0  0  0
  149.3038  140.3790  152.5839 H   0  0  0  0  0  0  0  0  0  0  0  0
  146.1097  139.7603  152.1532 H   0  0  0  0  0  0  0  0  0  0  0  0
  148.4620  139.0121  151.5903 H   0  0  0  0  0  0  0  0  0  0  0  0
  146.3497  136.7963  152.5743 H   0  0  0  0  0  0  0  0  0  0  0  0
  144.4022  138.7628  152.2950 H   0  0  0  0  0  0  0  0  0  0  0  0
  147.2865  135.7081  153.2075 H   0  0  0  0  0  0  0  0  0  0  0  0
  1  2  2  0  0  0  0
  2 17  1  0  0  0  0
  2  3  1  0  0  0  0
  3 19  1  0  0  0  0
  3  4  1  0  0  0  0
  4  5  2  0  0  0  0
  4  6  1  0  0  0  0
  6  7  1  0  0  0  0
  6 16  1  0  0  0  0
  7 14  1  0  0  0  0
  7  8  1  0  0  0  0
  7 20  1  0  0  0  0
  8  9  1  0  0  0  0
  9 10  1  0  0  0  0
  9 12  1  0  0  0  0
  9 21  1  0  0  0  0
 10 11  1  0  0  0  0
 10 22  1  0  0  0  0
 10 23  1  0  0  0  0
 11 24  1  0  0  0  0
 12 13  1  0  0  0  0
 12 14  1  0  0  0  0
 12 25  1  0  0  0  0
 13 26  1  0  0  0  0
 14 15  1  0  0  0  0
 14 27  1  0  0  0  0
 15 28  1  0  0  0  0
 16 17  2  0  0  0  0
 16 29  1  0  0  0  0
 17 18  1  0  0  0  0
M  END
> <s_m_source_file>
AV-unprocessed.smi

> <i_m_source_file_index>
35

> <i_lp_mmshare_version>
43012

> <i_f3d_flags>
0

> <s_epik_input>
Tz1jMVtuSF1jKD1PKW4oW2NIXWMxQnIpW0NAQEhdMk9bQ0BASF0oW0NIMl1bT0hdKVtDQEBIXShbT0hdKVtDQEhdMltPSF0=

> <s_epik_cmdline>
J2VwaWtfcHl0aG9uJywgJy1waCcsICc3LjAnLCAnLXRuJywgJzgnLCAnLW1hJywgJzIwMCcsICctbWV0YWxfYmluZGluZycsICctaW1hZScsICc8aW5maWxlLm1hZT4nLCAnLW9tYWUnLCAnPG91dGZpbGUubWFlPic=

> <r_lp_tautomer_probability>
0.999537

> <r_epik_Ionization_Penalty>
0.10812

> <r_epik_Ionization_Penalty_Charging>
0.108119

> <r_epik_Ionization_Penalty_Neutral>
4.93006e-07

> <r_epik_State_Penalty>
0.0979238

> <r_epik_Charging_Adjusted_Penalty>
0.206043

> <i_epik_Tot_Q>
0

> <i_epik_Tot_abs_Q>
0

> <r_epik_Metal_State_Penalty>
3.07911

> <b_epik_Metal_Only>
0

> <s_epik_Chemistry_Notes>
This compound contains an acetal/aminal-like group ( X-CH(R)-Y where X, Y are N, S, or O) that may be acid/base labile, releasing an aldehyde.

> <s_lp_Force_Field>
OPLS_2005

> <r_lp_Energy>
26.4636

> <b_lp_Chiralities_Consistent>
1

> <s_lp_Variant>
AV-unprocessed.smi:35-12

> <Gold.Version>
5.8.1

> <Gold.Id.Protein>
6NUR|6NUR_protein|mol2

> <Gold.PLP.Fitness>
36.6313

> <Gold.PLP.PLP>
-20.8393

> <Gold.PLP.part.hbond>
-7.0416

> <Gold.PLP.part.metal>
0.0000

> <Gold.PLP.part.buried>
-0.3129

> <Gold.PLP.part.nonpolar>
-12.3220

> <Gold.PLP.part.repulsive>
0.0750

> <Gold.PLP.ligand.clash>
0.0000

> <Gold.PLP.ligand.torsion>
0.3510

> <Gold.PLP.Chemscore.Hbond>
4.4920

> <Gold.PLP.Chemscore.CHOScore>
0.9952

> <Gold.PLP.Chemscore.Metal>
0.0000

> <Gold.Chemscore.Hbonds>
donor molecule, donor type, donor heavy atom, donor atom, acceptor molecule, acceptor atom, score
      L1  H    11    24       P1  7957  0.86
      L1  H    13    26       P1  7957  1.00
      L1  H    15    28       P1 10175  1.00
      P1  H  7954  7966       L1    13  0.58
      P1  H  8011  8017       L1    11  0.90
      L1  C    16    29       P1  7948  0.94

> <Gold.PLP.Chemscore.Internal.Correction>
0.0326

> <Gold.Rescore>
     Score         DG    S(hbond)    S(metal)    S(lipo)     H(rot)  DE(clash)    DE(int)     intcor
      9.20     -10.61       3.07        0.00      36.50       3.67       0.14       1.27       ----

> <Gold.Chemscore.Fitness>
9.1973

> <Gold.Chemscore.DG>
-10.6052

> <Gold.Chemscore.ZeroCoef>
-5.4800

> <Gold.Chemscore.Hbond>
3.0689

> <Gold.Chemscore.Metal>
0.0000

> <Gold.Chemscore.Lipo>
36.4990

> <Gold.Chemscore.Internal_Hbond>
0.0000

> <Gold.Chemscore.DEClash>
0.1363

> <Gold.Chemscore.DEInternal>
1.2716

> <Gold.Chemscore.Rot>
3.6701

> <Gold.Chemscore.Internal.Correction>
   9.000000E+99

> <Gold.Chemscore.Hbonds>
donor molecule, donor type, donor heavy atom, donor atom, acceptor molecule, acceptor atom, score
      L1  H    11    24       P1  7957  0.79
      L1  H    13    26       P1  7957  0.68
      L1  H    15    28       P1 10175  1.00
      P1  H  7954  7966       L1    13  0.04
      P1  H  8011  8017       L1    11  0.18

> <Gold.Chemscore.Hbond.Weighted>
-10.2503

> <Gold.Chemscore.Metal.Weighted>
-0.0000

> <Gold.Chemscore.Lipo.Weighted>
-4.2704

> <Gold.Chemscore.Internal_Hbond.Weighted>
0.0000

> <Gold.Chemscore.DEClash.Weighted>
0.1363

> <Gold.Chemscore.DEInternal.Weighted>
1.2716

> <Gold.Chemscore.Rot.Weighted>
9.3955

> <Gold.Chemscore.Internal.Correction.Weighted>
   9.000000E+99

> <Gold.Protein.RotatedTorsions>
[ 6907 6896 6895 6894 ] final  120.63 input  -60.11 | X-H torsion
[ 7974 7965 7964 7962 ] final   44.92 input  175.53 | X-H torsion
[ 8008 7997 7996 7995 ] final  -46.71 input   59.86 | X-H torsion
[ 10167 10162 10161 10158 ] final   -9.49 input  -65.29 | X-H torsion
[ 10718 10713 10712 10709 ] final  114.25 input   66.30 | X-H torsion
[ 10763 10752 10751 10750 ] final  -52.27 input  -60.55 | X-H torsion
[ 11005 11000 10999 10996 ] final  165.12 input  -57.11 | X-H torsion

> <Gold.Protein.ActiveResidues>
 VAL166  LYS551  ARG553  GLY616  TRP617  ASP618  TYR619  PRO620  LYS621  CYS622 
 ASP623  PHE694  ASN695  SER759  ASP760  ASP761  ALA762  ILE779  LEU786  VAL792 
 PHE793  MET794  SER795  GLU796  ALA797  LYS798  CYS799  TRP800  GLU811  SER814 

> <Gold.Protein.RotatedAtoms>
  152.4384  133.7402  159.6636 H   0  0  0  0  0  0  0  0  0  0  0  0  # atno 6907 bound_to 6896
  150.8270  133.8144  159.3120 H   0  0  0  0  0  0  0  0  0  0  0  0  # atno 6908 bound_to 6896
  151.5809  135.1061  160.0068 H   0  0  0  0  0  0  0  0  0  0  0  0  # atno 6909 bound_to 6896
  146.0526  139.5021  142.9709 H   0  0  0  0  0  0  0  0  0  0  0  0  # atno 7974 bound_to 7965
  154.4010  140.1364  156.4056 H   0  0  0  0  0  0  0  0  0  0  0  0  # atno 8008 bound_to 7997
  155.7783  140.3482  155.5263 H   0  0  0  0  0  0  0  0  0  0  0  0  # atno 8009 bound_to 7997
  155.8699  140.0970  157.1547 H   0  0  0  0  0  0  0  0  0  0  0  0  # atno 8010 bound_to 7997
  140.7089  143.5852  150.8950 H   0  0  0  0  0  0  0  0  0  0  0  0  # atno 10167 bound_to 10162
  157.6292  131.0996  150.7158 H   0  0  0  0  0  0  0  0  0  0  0  0  # atno 10718 bound_to 10713
  154.1400  135.6507  153.4940 H   0  0  0  0  0  0  0  0  0  0  0  0  # atno 10763 bound_to 10752
  153.0169  135.5313  154.6915 H   0  0  0  0  0  0  0  0  0  0  0  0  # atno 10764 bound_to 10752
  154.6173  135.2960  155.0336 H   0  0  0  0  0  0  0  0  0  0  0  0  # atno 10765 bound_to 10752
  140.2529  134.7963  157.3519 H   0  0  0  0  0  0  0  0  0  0  0  0  # atno 11005 bound_to 11000
  145.6698  141.0219  143.1663 LP  0  0  0  0  0  0  0  0  0  0  0  0  # atno 17320 bound_to 7965
  144.7131  139.8298  143.7408 LP  0  0  0  0  0  0  0  0  0  0  0  0  # atno 17321 bound_to 7965
  139.9578  143.6198  152.3011 LP  0  0  0  0  0  0  0  0  0  0  0  0  # atno 17342 bound_to 10162
  139.6740  144.7659  151.1730 LP  0  0  0  0  0  0  0  0  0  0  0  0  # atno 17343 bound_to 10162
  156.7501  130.4766  149.5458 LP  0  0  0  0  0  0  0  0  0  0  0  0  # atno 17370 bound_to 10713
  156.1484  130.6293  151.0562 LP  0  0  0  0  0  0  0  0  0  0  0  0  # atno 17371 bound_to 10713
  140.1540  134.4813  155.7941 LP  0  0  0  0  0  0  0  0  0  0  0  0  # atno 17394 bound_to 11000
  141.2199  133.6874  156.7428 LP  0  0  0  0  0  0  0  0  0  0  0  0  # atno 17395 bound_to 11000

$$$$
