AV-unprocessed.smi:2994|AV-procd|sdf|11405|dock2
  -GOLD-   2272016333D 1   1.00000     0.00000
 Structure written by MMmdl.
 47 49  0  0  0  0  0  0  0  0  1 V2000
  144.5008  136.8712  154.7208 C   0  0  0  0  0  0  0  0  0  0  0  0
  145.1818  137.6865  153.6127 C   0  0  1  0  0  0  0  0  0  0  0  0
  146.5960  137.8331  153.9438 N   0  0  0  0  0  0  0  0  0  0  0  0
  147.0794  138.4013  155.0579 C   0  0  0  0  0  0  0  0  0  0  0  0
  146.3657  138.8714  155.9429 O   0  0  0  0  0  0  0  0  0  0  0  0
  148.4236  138.3878  155.0593 N   0  0  0  0  0  0  0  0  0  0  0  0
  149.3334  138.8718  156.0401 C   0  0  0  0  0  0  0  0  0  0  0  0
  150.7446  138.8080  155.9419 C   0  0  0  0  0  0  0  0  0  0  0  0
  151.5244  139.3373  156.9878 C   0  0  0  0  0  0  0  0  0  0  0  0
  150.8729  139.9275  158.0938 C   0  0  0  0  0  0  0  0  0  0  0  0
  151.6681  140.4846  159.2386 C   0  0  0  0  0  0  0  0  0  0  0  0
  152.4454  139.7366  159.8334 O   0  0  0  0  0  0  0  0  0  0  0  0
  151.5026  141.7916  159.5649 N   0  0  0  0  0  0  0  0  0  0  0  0
  152.3877  142.5825  160.4356 C   0  0  0  0  0  0  0  0  0  0  0  0
  153.1967  143.5655  159.5690 C   0  0  0  0  0  0  0  0  0  0  0  0
  152.2678  144.4558  158.7237 C   0  0  0  0  0  0  0  0  0  0  0  0
  151.2331  143.6184  157.9509 C   0  0  0  0  0  0  0  0  0  0  0  0
  150.5090  142.6403  158.8933 C   0  0  0  0  0  0  0  0  0  0  0  0
  149.5268  139.9835  158.1977 N   0  0  0  0  0  0  0  0  0  0  0  0
  148.7855  139.4729  157.1924 C   0  0  0  0  0  0  0  0  0  0  0  0
  144.9404  137.0560  152.2510 C   0  0  0  0  0  0  0  0  0  0  0  0
  143.5429  136.8242  151.7261 C   0  0  0  0  0  0  0  0  0  0  0  0
  144.4032  135.6494  152.1309 C   0  0  0  0  0  0  0  0  0  0  0  0
  143.4288  136.7838  154.5416 H   0  0  0  0  0  0  0  0  0  0  0  0
  144.6322  137.3434  155.6952 H   0  0  0  0  0  0  0  0  0  0  0  0
  144.9104  135.8621  154.7810 H   0  0  0  0  0  0  0  0  0  0  0  0
  144.7226  138.6771  153.6123 H   0  0  0  0  0  0  0  0  0  0  0  0
  147.2569  137.4762  153.2694 H   0  0  0  0  0  0  0  0  0  0  0  0
  148.8565  137.9928  154.2372 H   0  0  0  0  0  0  0  0  0  0  0  0
  151.2507  138.3747  155.0948 H   0  0  0  0  0  0  0  0  0  0  0  0
  152.6027  139.2943  156.9365 H   0  0  0  0  0  0  0  0  0  0  0  0
  151.7822  143.1300  161.1593 H   0  0  0  0  0  0  0  0  0  0  0  0
  153.0808  141.9846  161.0241 H   0  0  0  0  0  0  0  0  0  0  0  0
  153.8341  144.1855  160.1999 H   0  0  0  0  0  0  0  0  0  0  0  0
  153.8633  143.0053  158.9116 H   0  0  0  0  0  0  0  0  0  0  0  0
  151.7445  145.1508  159.3816 H   0  0  0  0  0  0  0  0  0  0  0  0
  152.8527  145.0643  158.0336 H   0  0  0  0  0  0  0  0  0  0  0  0
  150.5120  144.2738  157.4619 H   0  0  0  0  0  0  0  0  0  0  0  0
  151.7320  143.0593  157.1582 H   0  0  0  0  0  0  0  0  0  0  0  0
  149.7701  142.0628  158.3359 H   0  0  0  0  0  0  0  0  0  0  0  0
  149.9433  143.1937  159.6444 H   0  0  0  0  0  0  0  0  0  0  0  0
  147.7148  139.5468  157.3148 H   0  0  0  0  0  0  0  0  0  0  0  0
  145.6857  137.3334  151.5076 H   0  0  0  0  0  0  0  0  0  0  0  0
  142.7059  137.0770  152.3739 H   0  0  0  0  0  0  0  0  0  0  0  0
  143.3745  136.9845  150.6632 H   0  0  0  0  0  0  0  0  0  0  0  0
  144.8066  135.0235  151.3377 H   0  0  0  0  0  0  0  0  0  0  0  0
  144.1381  135.1273  153.0482 H   0  0  0  0  0  0  0  0  0  0  0  0
  1  2  1  0  0  0  0
  1 24  1  0  0  0  0
  1 25  1  0  0  0  0
  1 26  1  0  0  0  0
  2  3  1  0  0  0  0
  2 21  1  0  0  0  0
  2 27  1  0  0  0  0
  3  4  1  0  0  0  0
  3 28  1  0  0  0  0
  4  5  2  0  0  0  0
  4  6  1  0  0  0  0
  6  7  1  0  0  0  0
  6 29  1  0  0  0  0
  7 20  1  0  0  0  0
  7  8  2  0  0  0  0
  8  9  1  0  0  0  0
  8 30  1  0  0  0  0
  9 10  2  0  0  0  0
  9 31  1  0  0  0  0
 10 11  1  0  0  0  0
 10 19  1  0  0  0  0
 11 12  2  0  0  0  0
 11 13  1  0  0  0  0
 13 18  1  0  0  0  0
 13 14  1  0  0  0  0
 14 15  1  0  0  0  0
 14 32  1  0  0  0  0
 14 33  1  0  0  0  0
 15 16  1  0  0  0  0
 15 34  1  0  0  0  0
 15 35  1  0  0  0  0
 16 17  1  0  0  0  0
 16 36  1  0  0  0  0
 16 37  1  0  0  0  0
 17 18  1  0  0  0  0
 17 38  1  0  0  0  0
 17 39  1  0  0  0  0
 18 40  1  0  0  0  0
 18 41  1  0  0  0  0
 19 20  2  0  0  0  0
 20 42  1  0  0  0  0
 21 23  1  0  0  0  0
 21 22  1  0  0  0  0
 21 43  1  0  0  0  0
 22 23  1  0  0  0  0
 22 44  1  0  0  0  0
 22 45  1  0  0  0  0
 23 46  1  0  0  0  0
 23 47  1  0  0  0  0
M  END
> <s_m_source_file>
AV-unprocessed.smi

> <i_m_source_file_index>
2994

> <i_lp_mmshare_version>
43012

> <i_f3d_flags>
0

> <s_epik_input>
W0NIMl0xW0NIMl1bQ0hdMVtDQEhdKFtDSDNdKVtOSF1DKD1PKVtOSF1jMltjSF1bY0hdYyhuW2NIXTIpQyg9TylOM1tDSDJdW0NIMl1bQ0gyXVtDSDJdW0NIMl0z

> <s_epik_cmdline>
J2VwaWtfcHl0aG9uJywgJy1waCcsICc3LjAnLCAnLXRuJywgJzgnLCAnLW1hJywgJzIwMCcsICctbWV0YWxfYmluZGluZycsICctaW1hZScsICc8aW5maWxlLm1hZT4nLCAnLW9tYWUnLCAnPG91dGZpbGUubWFlPic=

> <r_lp_tautomer_probability>
1

> <r_epik_Ionization_Penalty>
4.52104e-05

> <r_epik_Ionization_Penalty_Charging>
0

> <r_epik_Ionization_Penalty_Neutral>
4.52104e-05

> <r_epik_State_Penalty>
-0

> <r_epik_Charging_Adjusted_Penalty>
0

> <i_epik_Tot_Q>
0

> <i_epik_Tot_abs_Q>
0

> <r_epik_Metal_State_Penalty>
-0

> <b_epik_Metal_Only>
0

> <s_lp_Force_Field>
OPLS_2005

> <r_lp_Energy>
45.5302

> <b_lp_Chiralities_Consistent>
1

> <s_lp_Variant>
AV-unprocessed.smi:2994-2

> <Gold.Version>
5.8.1

> <Gold.Id.Protein>
6NUR|6NUR_protein|mol2

> <Gold.PLP.Fitness>
25.2956

> <Gold.PLP.PLP>
-25.5733

> <Gold.PLP.part.hbond>
-0.2936

> <Gold.PLP.part.metal>
0.0000

> <Gold.PLP.part.buried>
-0.5495

> <Gold.PLP.part.nonpolar>
-26.6613

> <Gold.PLP.part.repulsive>
0.0183

> <Gold.PLP.ligand.clash>
0.0000

> <Gold.PLP.ligand.torsion>
1.8159

> <Gold.PLP.Chemscore.Hbond>
0.4388

> <Gold.PLP.Chemscore.CHOScore>
0.0000

> <Gold.PLP.Chemscore.Metal>
0.0000

> <Gold.PLP.Chemscore.Internal.Correction>
2.0378

> <Gold.Rescore>
     Score         DG    S(hbond)    S(metal)    S(lipo)     H(rot)  DE(clash)    DE(int)     intcor
     13.27     -17.61       1.00        0.00     100.12       1.14       0.18       4.17       ----

> <Gold.Chemscore.Fitness>
13.2671

> <Gold.Chemscore.DG>
-17.6140

> <Gold.Chemscore.ZeroCoef>
-5.4800

> <Gold.Chemscore.Hbond>
0.9995

> <Gold.Chemscore.Metal>
0.0000

> <Gold.Chemscore.Lipo>
100.1158

> <Gold.Chemscore.Internal_Hbond>
0.0000

> <Gold.Chemscore.DEClash>
0.1790

> <Gold.Chemscore.DEInternal>
4.1679

> <Gold.Chemscore.Rot>
1.1399

> <Gold.Chemscore.Internal.Correction>
   9.000000E+99

> <Gold.Chemscore.Hbonds>
donor molecule, donor type, donor heavy atom, donor atom, acceptor molecule, acceptor atom, score
      L1  H     3    28       P1  7948  0.01

> <Gold.Chemscore.Hbond.Weighted>
-3.3385

> <Gold.Chemscore.Metal.Weighted>
-0.0000

> <Gold.Chemscore.Lipo.Weighted>
-11.7135

> <Gold.Chemscore.Internal_Hbond.Weighted>
0.0000

> <Gold.Chemscore.DEClash.Weighted>
0.1790

> <Gold.Chemscore.DEInternal.Weighted>
4.1679

> <Gold.Chemscore.Rot.Weighted>
2.9180

> <Gold.Chemscore.Internal.Correction.Weighted>
   9.000000E+99

> <Gold.Protein.RotatedTorsions>
[ 6907 6896 6895 6894 ] final  -30.58 input  -60.11 | X-H torsion
[ 7974 7965 7964 7962 ] final -149.32 input  175.53 | X-H torsion
[ 8008 7997 7996 7995 ] final   20.48 input   59.86 | X-H torsion
[ 10167 10162 10161 10158 ] final  173.77 input  -65.29 | X-H torsion
[ 10718 10713 10712 10709 ] final -157.30 input   66.30 | X-H torsion
[ 10763 10752 10751 10750 ] final -154.77 input  -60.55 | X-H torsion
[ 11005 11000 10999 10996 ] final   48.36 input  -57.11 | X-H torsion

> <Gold.Protein.ActiveResidues>
 VAL166  LYS551  ARG553  GLY616  TRP617  ASP618  TYR619  PRO620  LYS621  CYS622 
 ASP623  PHE694  ASN695  SER759  ASP760  ASP761  ALA762  ILE779  LEU786  VAL792 
 PHE793  MET794  SER795  GLU796  ALA797  LYS798  CYS799  TRP800  GLU811  SER814 

> <Gold.Protein.RotatedAtoms>
  151.1036  134.9986  159.8460 H   0  0  0  0  0  0  0  0  0  0  0  0  # atno 6907 bound_to 6896
  152.5438  134.1920  159.8688 H   0  0  0  0  0  0  0  0  0  0  0  0  # atno 6908 bound_to 6896
  151.1965  133.4592  159.2629 H   0  0  0  0  0  0  0  0  0  0  0  0  # atno 6909 bound_to 6896
  144.7975  140.5081  143.5730 H   0  0  0  0  0  0  0  0  0  0  0  0  # atno 7974 bound_to 7965
  154.9363  140.3047  155.5142 H   0  0  0  0  0  0  0  0  0  0  0  0  # atno 8008 bound_to 7997
  156.2999  140.2344  156.4365 H   0  0  0  0  0  0  0  0  0  0  0  0  # atno 8009 bound_to 7997
  154.8188  140.0424  157.1385 H   0  0  0  0  0  0  0  0  0  0  0  0  # atno 8010 bound_to 7997
  139.5119  144.3223  152.0191 H   0  0  0  0  0  0  0  0  0  0  0  0  # atno 10167 bound_to 10162
  156.5384  130.8552  151.2740 H   0  0  0  0  0  0  0  0  0  0  0  0  # atno 10718 bound_to 10713
  154.7835  135.3182  154.7938 H   0  0  0  0  0  0  0  0  0  0  0  0  # atno 10763 bound_to 10752
  153.8644  135.6850  153.4784 H   0  0  0  0  0  0  0  0  0  0  0  0  # atno 10764 bound_to 10752
  153.1478  135.4712  154.9531 H   0  0  0  0  0  0  0  0  0  0  0  0  # atno 10765 bound_to 10752
  140.1197  134.4845  155.8607 H   0  0  0  0  0  0  0  0  0  0  0  0  # atno 11005 bound_to 11000
  145.5637  139.1480  143.3327 LP  0  0  0  0  0  0  0  0  0  0  0  0  # atno 17320 bound_to 7965
  146.2247  140.5772  142.9001 LP  0  0  0  0  0  0  0  0  0  0  0  0  # atno 17321 bound_to 7965
  140.2664  144.4011  150.6167 LP  0  0  0  0  0  0  0  0  0  0  0  0  # atno 17342 bound_to 10162
  140.6120  143.2170  151.6867 LP  0  0  0  0  0  0  0  0  0  0  0  0  # atno 17343 bound_to 10162
  157.7410  130.9860  150.2413 LP  0  0  0  0  0  0  0  0  0  0  0  0  # atno 17370 bound_to 10713
  156.2995  130.3756  149.7764 LP  0  0  0  0  0  0  0  0  0  0  0  0  # atno 17371 bound_to 10713
  141.2149  133.6756  156.6865 LP  0  0  0  0  0  0  0  0  0  0  0  0  # atno 17394 bound_to 11000
  140.2981  134.8186  157.4074 LP  0  0  0  0  0  0  0  0  0  0  0  0  # atno 17395 bound_to 11000

$$$$
