AV-unprocessed.smi:2332|AV-procd|sdf|9318|dock7
  -GOLD-   2272012543D 1   1.00000     0.00000
 Structure written by MMmdl.
 32 33  0  0  0  0  0  0  0  0  1 V2000
  150.6658  135.8761  155.1290 C   0  0  0  0  0  0  0  0  0  0  0  0
  150.8019  137.2823  155.4756 N   0  0  0  0  0  0  0  0  0  0  0  0
  151.9280  137.8422  155.9433 C   0  0  0  0  0  0  0  0  0  0  0  0
  152.9673  137.2041  156.1143 O   0  0  0  0  0  0  0  0  0  0  0  0
  151.8846  139.3480  156.2460 C   0  0  2  0  0  0  0  0  0  0  0  0
  152.1169  139.6461  157.7452 C   0  0  0  0  0  0  0  0  0  0  0  0
  151.9532  141.0714  158.0224 N   0  0  0  0  0  0  0  0  0  0  0  0
  152.3941  141.4981  159.2941 C   0  0  0  0  0  0  0  0  0  0  0  0
  151.7937  142.6192  159.9164 C   0  0  0  0  0  0  0  0  0  0  0  0
  152.2518  143.0306  161.1831 C   0  0  0  0  0  0  0  0  0  0  0  0
  153.2953  142.3103  161.7946 C   0  0  0  0  0  0  0  0  0  0  0  0
  153.8028  142.6952  163.1002 C   0  0  0  0  0  0  0  0  0  0  0  0
  154.2066  143.0020  164.1402 N   0  0  0  0  0  0  0  0  0  0  0  0
  153.8316  141.2038  161.1079 C   0  0  0  0  0  0  0  0  0  0  0  0
  153.3945  140.8052  159.8939 N   0  0  0  0  0  0  0  0  0  0  0  0
  150.6997  141.6232  157.5137 C   0  0  0  0  0  0  0  0  0  0  0  0
  150.5305  141.2782  156.0265 C   0  0  0  0  0  0  0  0  0  0  0  0
  150.6133  139.8684  155.8545 O   0  0  0  0  0  0  0  0  0  0  0  0
  149.6427  135.6676  154.8165 H   0  0  0  0  0  0  0  0  0  0  0  0
  150.8975  135.2400  155.9842 H   0  0  0  0  0  0  0  0  0  0  0  0
  151.3340  135.6133  154.3080 H   0  0  0  0  0  0  0  0  0  0  0  0
  149.9886  137.8701  155.3611 H   0  0  0  0  0  0  0  0  0  0  0  0
  152.6648  139.8237  155.6492 H   0  0  0  0  0  0  0  0  0  0  0  0
  151.4049  139.0888  158.3559 H   0  0  0  0  0  0  0  0  0  0  0  0
  153.1113  139.3030  158.0277 H   0  0  0  0  0  0  0  0  0  0  0  0
  150.9825  143.1559  159.4473 H   0  0  0  0  0  0  0  0  0  0  0  0
  151.8031  143.8830  161.6727 H   0  0  0  0  0  0  0  0  0  0  0  0
  154.6315  140.6185  161.5382 H   0  0  0  0  0  0  0  0  0  0  0  0
  149.8657  141.2178  158.0884 H   0  0  0  0  0  0  0  0  0  0  0  0
  150.6867  142.7071  157.6366 H   0  0  0  0  0  0  0  0  0  0  0  0
  149.5601  141.6229  155.6691 H   0  0  0  0  0  0  0  0  0  0  0  0
  151.2890  141.7765  155.4207 H   0  0  0  0  0  0  0  0  0  0  0  0
  1  2  1  0  0  0  0
  1 19  1  0  0  0  0
  1 20  1  0  0  0  0
  1 21  1  0  0  0  0
  2  3  1  0  0  0  0
  2 22  1  0  0  0  0
  3  4  2  0  0  0  0
  3  5  1  0  0  0  0
  5 18  1  0  0  0  0
  5  6  1  0  0  0  0
  5 23  1  0  0  0  0
  6  7  1  0  0  0  0
  6 24  1  0  0  0  0
  6 25  1  0  0  0  0
  7  8  1  0  0  0  0
  7 16  1  0  0  0  0
  8 15  1  0  0  0  0
  8  9  2  0  0  0  0
  9 10  1  0  0  0  0
  9 26  1  0  0  0  0
 10 11  2  0  0  0  0
 10 27  1  0  0  0  0
 11 12  1  0  0  0  0
 11 14  1  0  0  0  0
 12 13  3  0  0  0  0
 14 15  2  0  0  0  0
 14 28  1  0  0  0  0
 16 17  1  0  0  0  0
 16 29  1  0  0  0  0
 16 30  1  0  0  0  0
 17 18  1  0  0  0  0
 17 31  1  0  0  0  0
 17 32  1  0  0  0  0
M  END
> <s_m_source_file>
AV-unprocessed.smi

> <i_m_source_file_index>
2332

> <i_lp_mmshare_version>
43012

> <i_f3d_flags>
0

> <s_epik_input>
W0NIM11bTkhdQyg9TylbQ0BASF0xW0NIMl1OKFtDSDJdW0NIMl1PMSljMltjSF1bY0hdYyhDI04pW2NIXW4y

> <s_epik_cmdline>
J2VwaWtfcHl0aG9uJywgJy1waCcsICc3LjAnLCAnLXRuJywgJzgnLCAnLW1hJywgJzIwMCcsICctbWV0YWxfYmluZGluZycsICctaW1hZScsICc8aW5maWxlLm1hZT4nLCAnLW9tYWUnLCAnPG91dGZpbGUubWFlPic=

> <r_lp_tautomer_probability>
1

> <r_epik_Ionization_Penalty>
6.95229e-08

> <r_epik_Ionization_Penalty_Charging>
0

> <r_epik_Ionization_Penalty_Neutral>
6.95229e-08

> <r_epik_State_Penalty>
-0

> <r_epik_Charging_Adjusted_Penalty>
0

> <i_epik_Tot_Q>
0

> <i_epik_Tot_abs_Q>
0

> <r_epik_Metal_State_Penalty>
-0

> <b_epik_Metal_Only>
0

> <s_lp_Force_Field>
OPLS_2005

> <r_lp_Energy>
17.7289

> <b_lp_Chiralities_Consistent>
1

> <s_lp_Variant>
AV-unprocessed.smi:2332-1

> <Gold.Version>
5.8.1

> <Gold.Id.Protein>
6NUR|6NUR_protein|mol2

> <Gold.PLP.Fitness>
37.2169

> <Gold.PLP.PLP>
-35.5690

> <Gold.PLP.part.hbond>
-1.0466

> <Gold.PLP.part.metal>
0.0000

> <Gold.PLP.part.buried>
-6.0335

> <Gold.PLP.part.nonpolar>
-27.9935

> <Gold.PLP.part.repulsive>
0.1120

> <Gold.PLP.ligand.clash>
0.0000

> <Gold.PLP.ligand.torsion>
0.5567

> <Gold.PLP.Chemscore.Hbond>
0.8089

> <Gold.PLP.Chemscore.CHOScore>
0.0000

> <Gold.PLP.Chemscore.Metal>
0.0000

> <Gold.Chemscore.Hbonds>
donor molecule, donor type, donor heavy atom, donor atom, acceptor molecule, acceptor atom, score
      P1  H 10752 10764       L1     4  0.64

> <Gold.PLP.Chemscore.Internal.Correction>
0.3348

> <Gold.Rescore>
     Score         DG    S(hbond)    S(metal)    S(lipo)     H(rot)  DE(clash)    DE(int)     intcor
     13.10     -13.52       0.90        0.00      72.42       1.35       0.15       0.27       ----

> <Gold.Chemscore.Fitness>
13.0961

> <Gold.Chemscore.DG>
-13.5156

> <Gold.Chemscore.ZeroCoef>
-5.4800

> <Gold.Chemscore.Hbond>
0.9036

> <Gold.Chemscore.Metal>
0.0000

> <Gold.Chemscore.Lipo>
72.4198

> <Gold.Chemscore.Internal_Hbond>
0.0000

> <Gold.Chemscore.DEClash>
0.1485

> <Gold.Chemscore.DEInternal>
0.2710

> <Gold.Chemscore.Rot>
1.3498

> <Gold.Chemscore.Internal.Correction>
   9.000000E+99

> <Gold.Chemscore.Hbonds>
donor molecule, donor type, donor heavy atom, donor atom, acceptor molecule, acceptor atom, score
      P1  H 10752 10764       L1     4  0.58

> <Gold.Chemscore.Hbond.Weighted>
-3.0181

> <Gold.Chemscore.Metal.Weighted>
-0.0000

> <Gold.Chemscore.Lipo.Weighted>
-8.4731

> <Gold.Chemscore.Internal_Hbond.Weighted>
0.0000

> <Gold.Chemscore.DEClash.Weighted>
0.1485

> <Gold.Chemscore.DEInternal.Weighted>
0.2710

> <Gold.Chemscore.Rot.Weighted>
3.4556

> <Gold.Chemscore.Internal.Correction.Weighted>
   9.000000E+99

> <Gold.Protein.RotatedTorsions>
[ 6907 6896 6895 6894 ] final   -6.88 input  -60.11 | X-H torsion
[ 7974 7965 7964 7962 ] final  -93.33 input  175.53 | X-H torsion
[ 8008 7997 7996 7995 ] final   39.51 input   59.86 | X-H torsion
[ 10167 10162 10161 10158 ] final  -56.75 input  -65.29 | X-H torsion
[ 10718 10713 10712 10709 ] final   46.27 input   66.30 | X-H torsion
[ 10763 10752 10751 10750 ] final  -27.51 input  -60.55 | X-H torsion
[ 11005 11000 10999 10996 ] final  101.73 input  -57.11 | X-H torsion

> <Gold.Protein.ActiveResidues>
 VAL166  LYS551  ARG553  GLY616  TRP617  ASP618  TYR619  PRO620  LYS621  CYS622 
 ASP623  PHE694  ASN695  SER759  ASP760  ASP761  ALA762  ILE779  LEU786  VAL792 
 PHE793  MET794  SER795  GLU796  ALA797  LYS798  CYS799  TRP800  GLU811  SER814 

> <Gold.Protein.RotatedAtoms>
  151.4584  135.1036  159.9717 H   0  0  0  0  0  0  0  0  0  0  0  0  # atno 6907 bound_to 6896
  152.4862  133.8375  159.7146 H   0  0  0  0  0  0  0  0  0  0  0  0  # atno 6908 bound_to 6896
  150.8973  133.7103  159.2915 H   0  0  0  0  0  0  0  0  0  0  0  0  # atno 6909 bound_to 6896
  145.3879  140.9525  143.2357 H   0  0  0  0  0  0  0  0  0  0  0  0  # atno 7974 bound_to 7965
  155.2377  140.3343  155.4296 H   0  0  0  0  0  0  0  0  0  0  0  0  # atno 8008 bound_to 7997
  156.2268  140.1833  156.7387 H   0  0  0  0  0  0  0  0  0  0  0  0  # atno 8009 bound_to 7997
  154.5913  140.0637  156.9227 H   0  0  0  0  0  0  0  0  0  0  0  0  # atno 8010 bound_to 7997
  140.6299  143.2454  151.5269 H   0  0  0  0  0  0  0  0  0  0  0  0  # atno 10167 bound_to 10162
  157.4464  130.8112  149.7744 H   0  0  0  0  0  0  0  0  0  0  0  0  # atno 10718 bound_to 10713
  153.7333  135.6937  153.4984 H   0  0  0  0  0  0  0  0  0  0  0  0  # atno 10763 bound_to 10752
  153.2121  135.4399  155.0390 H   0  0  0  0  0  0  0  0  0  0  0  0  # atno 10764 bound_to 10752
  154.8246  135.3439  154.6862 H   0  0  0  0  0  0  0  0  0  0  0  0  # atno 10765 bound_to 10752
  139.8774  134.9195  156.4952 H   0  0  0  0  0  0  0  0  0  0  0  0  # atno 11005 bound_to 11000
  144.8461  139.5395  143.6878 LP  0  0  0  0  0  0  0  0  0  0  0  0  # atno 17320 bound_to 7965
  146.2811  139.6881  142.9228 LP  0  0  0  0  0  0  0  0  0  0  0  0  # atno 17321 bound_to 7965
  139.5514  144.2386  152.1537 LP  0  0  0  0  0  0  0  0  0  0  0  0  # atno 17342 bound_to 10162
  140.1627  144.5011  150.6623 LP  0  0  0  0  0  0  0  0  0  0  0  0  # atno 17343 bound_to 10162
  155.9969  130.3903  150.2761 LP  0  0  0  0  0  0  0  0  0  0  0  0  # atno 17370 bound_to 10713
  157.0930  131.0175  151.3114 LP  0  0  0  0  0  0  0  0  0  0  0  0  # atno 17371 bound_to 10713
  140.8630  133.8045  155.9284 LP  0  0  0  0  0  0  0  0  0  0  0  0  # atno 17394 bound_to 11000
  140.9030  134.2354  157.5030 LP  0  0  0  0  0  0  0  0  0  0  0  0  # atno 17395 bound_to 11000

$$$$
