AV-unprocessed.smi:1983|AV-procd|sdf|8030|dock5
  -GOLD-   2272010223D 1   1.00000     0.00000
 Structure written by MMmdl.
 49 50  0  0  0  0  0  0  0  0  1 V2000
  149.0276  134.9351  157.8790 C   0  0  0  0  0  0  0  0  0  0  0  0
  149.4116  134.2245  156.5680 C   0  0  2  0  0  0  0  0  0  0  0  0
  150.6288  133.2920  156.7098 C   0  0  0  0  0  0  0  0  0  0  0  0
  150.4716  132.3942  157.7901 O   0  0  0  0  0  0  0  0  0  0  0  0
  149.6421  135.1779  155.4859 N   0  0  0  0  0  0  0  0  0  0  0  0
  150.5697  136.1449  155.4859 C   0  0  0  0  0  0  0  0  0  0  0  0
  151.3469  136.3577  156.4171 O   0  0  0  0  0  0  0  0  0  0  0  0
  150.5573  136.8457  154.3434 N   0  0  0  0  0  0  0  0  0  0  0  0
  151.4853  137.9245  154.0233 C   0  0  0  0  0  0  0  0  0  0  0  0
  151.6007  138.9618  155.1282 C   0  0  0  0  0  0  0  0  0  0  0  0
  150.6538  139.9972  155.2632 C   0  0  0  0  0  0  0  0  0  0  0  0
  150.8119  140.9354  156.3006 C   0  0  0  0  0  0  0  0  0  0  0  0
  151.9148  140.8132  157.1783 C   0  0  0  0  0  0  0  0  0  0  0  0
  152.0915  141.7465  158.2212 N   0  0  0  0  0  0  0  0  0  0  0  0
  152.6080  141.2620  159.4977 C   0  0  0  0  0  0  0  0  0  0  0  0
  153.0594  142.4440  160.3731 C   0  0  2  0  0  0  0  0  0  0  0  0
  153.4914  141.9879  161.7706 C   0  0  0  0  0  0  0  0  0  0  0  0
  151.9811  143.3672  160.5217 O   0  0  0  0  0  0  0  0  0  0  0  0
  151.4623  143.8851  159.2943 C   0  0  1  0  0  0  0  0  0  0  0  0
  152.4332  144.8729  158.6233 C   0  0  0  0  0  0  0  0  0  0  0  0
  151.0251  142.7322  158.3688 C   0  0  0  0  0  0  0  0  0  0  0  0
  152.8235  139.8157  157.0444 N   0  0  0  0  0  0  0  0  0  0  0  0
  152.6656  138.9170  156.0500 C   0  0  0  0  0  0  0  0  0  0  0  0
  148.8725  134.2142  158.6820 H   0  0  0  0  0  0  0  0  0  0  0  0
  148.1023  135.5008  157.7654 H   0  0  0  0  0  0  0  0  0  0  0  0
  149.8018  135.6320  158.2012 H   0  0  0  0  0  0  0  0  0  0  0  0
  148.5704  133.5934  156.2753 H   0  0  0  0  0  0  0  0  0  0  0  0
  150.7557  132.7063  155.7987 H   0  0  0  0  0  0  0  0  0  0  0  0
  151.5458  133.8665  156.8464 H   0  0  0  0  0  0  0  0  0  0  0  0
  149.5531  132.3436  158.0069 H   0  0  0  0  0  0  0  0  0  0  0  0
  149.0568  135.0801  154.6690 H   0  0  0  0  0  0  0  0  0  0  0  0
  149.8780  136.6001  153.6382 H   0  0  0  0  0  0  0  0  0  0  0  0
  152.4708  137.4897  153.8561 H   0  0  0  0  0  0  0  0  0  0  0  0
  151.1941  138.3998  153.0849 H   0  0  0  0  0  0  0  0  0  0  0  0
  149.8199  140.0766  154.5812 H   0  0  0  0  0  0  0  0  0  0  0  0
  150.1010  141.7418  156.4024 H   0  0  0  0  0  0  0  0  0  0  0  0
  151.8304  140.6901  160.0060 H   0  0  0  0  0  0  0  0  0  0  0  0
  153.4520  140.5911  159.3323 H   0  0  0  0  0  0  0  0  0  0  0  0
  153.9082  142.9426  159.9048 H   0  0  0  0  0  0  0  0  0  0  0  0
  154.3213  141.2829  161.7140 H   0  0  0  0  0  0  0  0  0  0  0  0
  152.6715  141.4988  162.2974 H   0  0  0  0  0  0  0  0  0  0  0  0
  153.8164  142.8358  162.3738 H   0  0  0  0  0  0  0  0  0  0  0  0
  150.5697  144.4529  159.5585 H   0  0  0  0  0  0  0  0  0  0  0  0
  151.9615  145.3547  157.7666 H   0  0  0  0  0  0  0  0  0  0  0  0
  153.3366  144.3834  158.2600 H   0  0  0  0  0  0  0  0  0  0  0  0
  152.7328  145.6569  159.3188 H   0  0  0  0  0  0  0  0  0  0  0  0
  150.7069  143.1367  157.4086 H   0  0  0  0  0  0  0  0  0  0  0  0
  150.1570  142.2299  158.7976 H   0  0  0  0  0  0  0  0  0  0  0  0
  153.4172  138.1439  155.9867 H   0  0  0  0  0  0  0  0  0  0  0  0
  1  2  1  0  0  0  0
  1 24  1  0  0  0  0
  1 25  1  0  0  0  0
  1 26  1  0  0  0  0
  2  3  1  0  0  0  0
  2  5  1  0  0  0  0
  2 27  1  0  0  0  0
  3  4  1  0  0  0  0
  3 28  1  0  0  0  0
  3 29  1  0  0  0  0
  4 30  1  0  0  0  0
  5  6  1  0  0  0  0
  5 31  1  0  0  0  0
  6  7  2  0  0  0  0
  6  8  1  0  0  0  0
  8  9  1  0  0  0  0
  8 32  1  0  0  0  0
  9 10  1  0  0  0  0
  9 33  1  0  0  0  0
  9 34  1  0  0  0  0
 10 23  1  0  0  0  0
 10 11  2  0  0  0  0
 11 12  1  0  0  0  0
 11 35  1  0  0  0  0
 12 13  2  0  0  0  0
 12 36  1  0  0  0  0
 13 14  1  0  0  0  0
 13 22  1  0  0  0  0
 14 21  1  0  0  0  0
 14 15  1  0  0  0  0
 15 16  1  0  0  0  0
 15 37  1  0  0  0  0
 15 38  1  0  0  0  0
 16 17  1  0  0  0  0
 16 18  1  0  0  0  0
 16 39  1  0  0  0  0
 17 40  1  0  0  0  0
 17 41  1  0  0  0  0
 17 42  1  0  0  0  0
 18 19  1  0  0  0  0
 19 20  1  0  0  0  0
 19 21  1  0  0  0  0
 19 43  1  0  0  0  0
 20 44  1  0  0  0  0
 20 45  1  0  0  0  0
 20 46  1  0  0  0  0
 21 47  1  0  0  0  0
 21 48  1  0  0  0  0
 22 23  2  0  0  0  0
 23 49  1  0  0  0  0
M  END
> <s_m_source_file>
AV-unprocessed.smi

> <i_m_source_file_index>
1983

> <i_lp_mmshare_version>
43012

> <i_f3d_flags>
0

> <s_epik_input>
W09IXVtDSDJdW0NAQEhdKFtDSDNdKVtOSF1DKD1PKVtOSF1bQ0gyXWMxW2NIXVtjSF1jKG5bY0hdMSlOMltDSDJdW0NAQEhdKFtDSDNdKU9bQ0BASF0oW0NIM10pW0NIMl0y

> <s_epik_cmdline>
J2VwaWtfcHl0aG9uJywgJy1waCcsICc3LjAnLCAnLXRuJywgJzgnLCAnLW1hJywgJzIwMCcsICctbWV0YWxfYmluZGluZycsICctaW1hZScsICc8aW5maWxlLm1hZT4nLCAnLW9tYWUnLCAnPG91dGZpbGUubWFlPic=

> <r_lp_tautomer_probability>
1

> <r_epik_Ionization_Penalty>
0.00801967

> <r_epik_Ionization_Penalty_Charging>
0

> <r_epik_Ionization_Penalty_Neutral>
0.00801967

> <r_epik_State_Penalty>
0.00598289

> <r_epik_Charging_Adjusted_Penalty>
0.00598289

> <i_epik_Tot_Q>
0

> <i_epik_Tot_abs_Q>
0

> <r_epik_Metal_State_Penalty>
0.00590297

> <b_epik_Metal_Only>
0

> <s_lp_Force_Field>
OPLS_2005

> <r_lp_Energy>
17.398

> <b_lp_Chiralities_Consistent>
1

> <s_lp_Variant>
AV-unprocessed.smi:1983-3

> <Gold.Version>
5.8.1

> <Gold.Id.Protein>
6NUR|6NUR_protein|mol2

> <Gold.PLP.Fitness>
51.4569

> <Gold.PLP.PLP>
-43.9960

> <Gold.PLP.part.hbond>
-3.6827

> <Gold.PLP.part.metal>
0.0000

> <Gold.PLP.part.buried>
-4.4983

> <Gold.PLP.part.nonpolar>
-35.6671

> <Gold.PLP.part.repulsive>
0.1511

> <Gold.PLP.ligand.clash>
0.0714

> <Gold.PLP.ligand.torsion>
0.7459

> <Gold.PLP.Chemscore.Hbond>
2.8800

> <Gold.PLP.Chemscore.CHOScore>
0.0000

> <Gold.PLP.Chemscore.Metal>
0.0000

> <Gold.Chemscore.Hbonds>
donor molecule, donor type, donor heavy atom, donor atom, acceptor molecule, acceptor atom, score
      L1  H     8    32       P1  7948  1.00
      P1  H  6896  6909       L1     4  1.00
      P1  H  7997  8010       L1    22  0.86

> <Gold.PLP.Chemscore.Internal.Correction>
0.3841

> <Gold.Rescore>
     Score         DG    S(hbond)    S(metal)    S(lipo)     H(rot)  DE(clash)    DE(int)     intcor
     13.82     -17.88       1.77        0.00     112.48       2.61       0.06       4.01       ----

> <Gold.Chemscore.Fitness>
13.8177

> <Gold.Chemscore.DG>
-17.8829

> <Gold.Chemscore.ZeroCoef>
-5.4800

> <Gold.Chemscore.Hbond>
1.7737

> <Gold.Chemscore.Metal>
0.0000

> <Gold.Chemscore.Lipo>
112.4754

> <Gold.Chemscore.Internal_Hbond>
0.0000

> <Gold.Chemscore.DEClash>
0.0552

> <Gold.Chemscore.DEInternal>
4.0100

> <Gold.Chemscore.Rot>
2.6097

> <Gold.Chemscore.Internal.Correction>
   9.000000E+99

> <Gold.Chemscore.Hbonds>
donor molecule, donor type, donor heavy atom, donor atom, acceptor molecule, acceptor atom, score
      L1  H     8    32       P1  7948  0.29
      P1  H  6896  6909       L1     4  0.21
      P1  H  7997  8010       L1    22  0.22

> <Gold.Chemscore.Hbond.Weighted>
-5.9242

> <Gold.Chemscore.Metal.Weighted>
-0.0000

> <Gold.Chemscore.Lipo.Weighted>
-13.1596

> <Gold.Chemscore.Internal_Hbond.Weighted>
0.0000

> <Gold.Chemscore.DEClash.Weighted>
0.0552

> <Gold.Chemscore.DEInternal.Weighted>
4.0100

> <Gold.Chemscore.Rot.Weighted>
6.6809

> <Gold.Chemscore.Internal.Correction.Weighted>
   9.000000E+99

> <Gold.Protein.RotatedTorsions>
[ 6907 6896 6895 6894 ] final  -42.48 input  -60.11 | X-H torsion
[ 7974 7965 7964 7962 ] final -157.11 input  175.53 | X-H torsion
[ 8008 7997 7996 7995 ] final   37.58 input   59.86 | X-H torsion
[ 10167 10162 10161 10158 ] final   36.09 input  -65.29 | X-H torsion
[ 10718 10713 10712 10709 ] final -155.33 input   66.30 | X-H torsion
[ 10763 10752 10751 10750 ] final -140.20 input  -60.55 | X-H torsion
[ 11005 11000 10999 10996 ] final  119.97 input  -57.11 | X-H torsion

> <Gold.Protein.ActiveResidues>
 VAL166  LYS551  ARG553  GLY616  TRP617  ASP618  TYR619  PRO620  LYS621  CYS622 
 ASP623  PHE694  ASN695  SER759  ASP760  ASP761  ALA762  ILE779  LEU786  VAL792 
 PHE793  MET794  SER795  GLU796  ALA797  LYS798  CYS799  TRP800  GLU811  SER814 

> <Gold.Protein.RotatedAtoms>
  150.9548  134.8943  159.7693 H   0  0  0  0  0  0  0  0  0  0  0  0  # atno 6907 bound_to 6896
  152.5133  134.3756  159.9343 H   0  0  0  0  0  0  0  0  0  0  0  0  # atno 6908 bound_to 6896
  151.3770  133.3794  159.2740 H   0  0  0  0  0  0  0  0  0  0  0  0  # atno 6909 bound_to 6896
  144.7563  140.4015  143.6010 H   0  0  0  0  0  0  0  0  0  0  0  0  # atno 7974 bound_to 7965
  155.2061  140.3319  155.4336 H   0  0  0  0  0  0  0  0  0  0  0  0  # atno 8008 bound_to 7997
  156.2388  140.1885  156.7095 H   0  0  0  0  0  0  0  0  0  0  0  0  # atno 8009 bound_to 7997
  154.6109  140.0609  156.9478 H   0  0  0  0  0  0  0  0  0  0  0  0  # atno 8010 bound_to 7997
  140.4161  144.1526  150.6143 H   0  0  0  0  0  0  0  0  0  0  0  0  # atno 10167 bound_to 10162
  156.5114  130.8436  151.2648 H   0  0  0  0  0  0  0  0  0  0  0  0  # atno 10718 bound_to 10713
  154.8586  135.3560  154.5670 H   0  0  0  0  0  0  0  0  0  0  0  0  # atno 10763 bound_to 10752
  153.6283  135.7003  153.5289 H   0  0  0  0  0  0  0  0  0  0  0  0  # atno 10764 bound_to 10752
  153.3070  135.4189  155.1263 H   0  0  0  0  0  0  0  0  0  0  0  0  # atno 10765 bound_to 10752
  139.9167  134.9632  156.7736 H   0  0  0  0  0  0  0  0  0  0  0  0  # atno 11005 bound_to 11000
  145.6769  139.1610  143.2723 LP  0  0  0  0  0  0  0  0  0  0  0  0  # atno 17320 bound_to 7965
  146.1576  140.6835  142.9292 LP  0  0  0  0  0  0  0  0  0  0  0  0  # atno 17321 bound_to 7965
  140.4585  143.2458  151.9251 LP  0  0  0  0  0  0  0  0  0  0  0  0  # atno 17342 bound_to 10162
  139.4782  144.5491  151.8413 LP  0  0  0  0  0  0  0  0  0  0  0  0  # atno 17343 bound_to 10162
  157.7450  130.9948  150.2722 LP  0  0  0  0  0  0  0  0  0  0  0  0  # atno 17370 bound_to 10713
  156.3237  130.3789  149.7552 LP  0  0  0  0  0  0  0  0  0  0  0  0  # atno 17371 bound_to 10713
  140.6601  133.9653  155.7800 LP  0  0  0  0  0  0  0  0  0  0  0  0  # atno 17394 bound_to 11000
  141.0649  134.0291  157.3607 LP  0  0  0  0  0  0  0  0  0  0  0  0  # atno 17395 bound_to 11000

$$$$
