AV-unprocessed.smi:1236|AV-procd|sdf|5180|dock8
  -GOLD-   22720 4263D 1   1.00000     0.00000
 Structure written by MMmdl.
 39 40  0  0  0  0  0  0  0  0  1 V2000
  149.7145  133.3657  156.0174 C   0  0  0  0  0  0  0  0  0  0  0  0
  149.4257  134.7730  155.4783 C   0  0  1  0  0  0  0  0  0  0  0  0
  150.7132  135.6228  155.4154 C   0  0  0  0  0  0  0  0  0  0  0  0
  150.5205  137.0723  155.4812 N   0  0  0  0  0  0  0  0  0  0  0  0
  151.7801  137.8127  155.4573 C   0  0  0  0  0  0  0  0  0  0  0  0
  151.5498  139.3323  155.5187 C   0  0  0  0  0  0  0  0  0  0  0  0
  150.7057  139.7322  154.4439 O   0  0  0  0  0  0  0  0  0  0  0  0
  149.4491  139.0625  154.4540 C   0  0  0  0  0  0  0  0  0  0  0  0
  149.6750  137.5423  154.3896 C   0  0  0  0  0  0  0  0  0  0  0  0
  148.8284  134.6618  154.1479 N   0  0  0  0  0  0  0  0  0  0  0  0
  147.8192  133.8469  153.8053 C   0  0  0  0  0  0  0  0  0  0  0  0
  147.2858  133.0557  154.5836 O   0  0  0  0  0  0  0  0  0  0  0  0
  147.4750  134.0187  152.5167 N   0  0  0  0  0  0  0  0  0  0  0  0
  146.4528  133.3574  151.7850 C   0  0  0  0  0  0  0  0  0  0  0  0
  146.0447  132.1138  152.3179 C   0  0  0  0  0  0  0  0  0  0  0  0
  145.0367  131.3775  151.6657 C   0  0  0  0  0  0  0  0  0  0  0  0
  144.4610  131.9051  150.4961 C   0  0  0  0  0  0  0  0  0  0  0  0
  144.9241  133.1504  150.0330 C   0  0  0  0  0  0  0  0  0  0  0  0
  145.8903  133.8573  150.6562 N   0  0  0  0  0  0  0  0  0  0  0  0
  150.1453  133.4110  157.0178 H   0  0  0  0  0  0  0  0  0  0  0  0
  150.4161  132.8295  155.3772 H   0  0  0  0  0  0  0  0  0  0  0  0
  148.8006  132.7741  156.0798 H   0  0  0  0  0  0  0  0  0  0  0  0
  148.7227  135.2340  156.1728 H   0  0  0  0  0  0  0  0  0  0  0  0
  151.3903  135.3112  156.2123 H   0  0  0  0  0  0  0  0  0  0  0  0
  151.2242  135.3799  154.4827 H   0  0  0  0  0  0  0  0  0  0  0  0
  152.4089  137.5242  156.2980 H   0  0  0  0  0  0  0  0  0  0  0  0
  152.3370  137.5677  154.5518 H   0  0  0  0  0  0  0  0  0  0  0  0
  151.0982  139.6148  156.4708 H   0  0  0  0  0  0  0  0  0  0  0  0
  152.4987  139.8636  155.4443 H   0  0  0  0  0  0  0  0  0  0  0  0
  148.8926  139.3320  155.3528 H   0  0  0  0  0  0  0  0  0  0  0  0
  148.8601  139.3958  153.5996 H   0  0  0  0  0  0  0  0  0  0  0  0
  150.1299  137.2855  153.4316 H   0  0  0  0  0  0  0  0  0  0  0  0
  148.7102  137.0345  154.4229 H   0  0  0  0  0  0  0  0  0  0  0  0
  149.1985  135.2764  153.4381 H   0  0  0  0  0  0  0  0  0  0  0  0
  148.0001  134.7091  152.0009 H   0  0  0  0  0  0  0  0  0  0  0  0
  146.4976  131.7233  153.2178 H   0  0  0  0  0  0  0  0  0  0  0  0
  144.7116  130.4249  152.0566 H   0  0  0  0  0  0  0  0  0  0  0  0
  143.6852  131.3706  149.9683 H   0  0  0  0  0  0  0  0  0  0  0  0
  144.5080  133.5912  149.1392 H   0  0  0  0  0  0  0  0  0  0  0  0
  1  2  1  0  0  0  0
  1 20  1  0  0  0  0
  1 21  1  0  0  0  0
  1 22  1  0  0  0  0
  2  3  1  0  0  0  0
  2 10  1  0  0  0  0
  2 23  1  0  0  0  0
  3  4  1  0  0  0  0
  3 24  1  0  0  0  0
  3 25  1  0  0  0  0
  4  9  1  0  0  0  0
  4  5  1  0  0  0  0
  5  6  1  0  0  0  0
  5 26  1  0  0  0  0
  5 27  1  0  0  0  0
  6  7  1  0  0  0  0
  6 28  1  0  0  0  0
  6 29  1  0  0  0  0
  7  8  1  0  0  0  0
  8  9  1  0  0  0  0
  8 30  1  0  0  0  0
  8 31  1  0  0  0  0
  9 32  1  0  0  0  0
  9 33  1  0  0  0  0
 10 11  1  0  0  0  0
 10 34  1  0  0  0  0
 11 12  2  0  0  0  0
 11 13  1  0  0  0  0
 13 14  1  0  0  0  0
 13 35  1  0  0  0  0
 14 19  1  0  0  0  0
 14 15  2  0  0  0  0
 15 16  1  0  0  0  0
 15 36  1  0  0  0  0
 16 17  2  0  0  0  0
 16 37  1  0  0  0  0
 17 18  1  0  0  0  0
 17 38  1  0  0  0  0
 18 19  2  0  0  0  0
 18 39  1  0  0  0  0
M  END
> <s_m_source_file>
AV-unprocessed.smi

> <i_m_source_file_index>
1236

> <i_lp_mmshare_version>
43012

> <i_f3d_flags>
0

> <s_epik_input>
W0NIMl0xW0NIMl1PW0NIMl1bQ0gyXU4xW0NIMl1bQ0BASF0oW0NIM10pW05IXUMoPU8pW05IXWMyW2NIXVtjSF1bY0hdW2NIXW4y

> <s_epik_cmdline>
J2VwaWtfcHl0aG9uJywgJy1waCcsICc3LjAnLCAnLXRuJywgJzgnLCAnLW1hJywgJzIwMCcsICctbWV0YWxfYmluZGluZycsICctaW1hZScsICc8aW5maWxlLm1hZT4nLCAnLW9tYWUnLCAnPG91dGZpbGUubWFlPic=

> <r_epik_Ionization_Penalty>
0.26604

> <r_epik_Ionization_Penalty_Charging>
0

> <r_epik_Ionization_Penalty_Neutral>
0.26604

> <r_epik_State_Penalty>
0.257924

> <r_epik_Charging_Adjusted_Penalty>
0.257924

> <i_epik_Tot_Q>
0

> <i_epik_Tot_abs_Q>
0

> <r_epik_Metal_State_Penalty>
0.257923

> <b_epik_Metal_Only>
0

> <s_lp_Force_Field>
OPLS_2005

> <r_lp_Energy>
27.6221

> <b_lp_Chiralities_Consistent>
1

> <s_lp_Variant>
AV-unprocessed.smi:1236-2

> <Gold.Version>
5.8.1

> <Gold.Id.Protein>
6NUR|6NUR_protein|mol2

> <Gold.PLP.Fitness>
38.8329

> <Gold.PLP.PLP>
-28.6567

> <Gold.PLP.part.hbond>
-3.0000

> <Gold.PLP.part.metal>
0.0000

> <Gold.PLP.part.buried>
-1.9133

> <Gold.PLP.part.nonpolar>
-23.6515

> <Gold.PLP.part.repulsive>
0.4503

> <Gold.PLP.ligand.clash>
0.0105

> <Gold.PLP.ligand.torsion>
0.4903

> <Gold.PLP.Chemscore.Hbond>
3.0000

> <Gold.PLP.Chemscore.CHOScore>
0.7119

> <Gold.PLP.Chemscore.Metal>
0.0000

> <Gold.Chemscore.Hbonds>
donor molecule, donor type, donor heavy atom, donor atom, acceptor molecule, acceptor atom, score
      L1  H    10    34       P1  7948  1.00
      L1  H    13    35       P1  7948  1.00
      P1  H  7989  7998       L1     7  1.00
      L1  C    18    39       P1  7921  0.73

> <Gold.PLP.Chemscore.Internal.Correction>
0.0317

> <Gold.Rescore>
     Score         DG    S(hbond)    S(metal)    S(lipo)     H(rot)  DE(clash)    DE(int)     intcor
     14.95     -18.43       2.71        0.00      66.44       1.51       0.09       3.40       ----

> <Gold.Chemscore.Fitness>
14.9460

> <Gold.Chemscore.DG>
-18.4300

> <Gold.Chemscore.ZeroCoef>
-5.4800

> <Gold.Chemscore.Hbond>
2.7075

> <Gold.Chemscore.Metal>
0.0000

> <Gold.Chemscore.Lipo>
66.4401

> <Gold.Chemscore.Internal_Hbond>
0.0000

> <Gold.Chemscore.DEClash>
0.0874

> <Gold.Chemscore.DEInternal>
3.3965

> <Gold.Chemscore.Rot>
1.5104

> <Gold.Chemscore.Internal.Correction>
   9.000000E+99

> <Gold.Chemscore.Hbonds>
donor molecule, donor type, donor heavy atom, donor atom, acceptor molecule, acceptor atom, score
      L1  H    10    34       P1  7948  0.28
      L1  H    13    35       P1  7948  0.25
      P1  H  7989  7998       L1     7  0.55

> <Gold.Chemscore.Hbond.Weighted>
-9.0430

> <Gold.Chemscore.Metal.Weighted>
-0.0000

> <Gold.Chemscore.Lipo.Weighted>
-7.7735

> <Gold.Chemscore.Internal_Hbond.Weighted>
0.0000

> <Gold.Chemscore.DEClash.Weighted>
0.0874

> <Gold.Chemscore.DEInternal.Weighted>
3.3965

> <Gold.Chemscore.Rot.Weighted>
3.8665

> <Gold.Chemscore.Internal.Correction.Weighted>
   9.000000E+99

> <Gold.Protein.RotatedTorsions>
[ 6907 6896 6895 6894 ] final  -28.87 input  -60.11 | X-H torsion
[ 7974 7965 7964 7962 ] final   70.08 input  175.53 | X-H torsion
[ 8008 7997 7996 7995 ] final  153.25 input   59.86 | X-H torsion
[ 10167 10162 10161 10158 ] final   34.86 input  -65.29 | X-H torsion
[ 10718 10713 10712 10709 ] final   -4.69 input   66.30 | X-H torsion
[ 10763 10752 10751 10750 ] final -134.89 input  -60.55 | X-H torsion
[ 11005 11000 10999 10996 ] final  -50.10 input  -57.11 | X-H torsion

> <Gold.Protein.ActiveResidues>
 VAL166  LYS551  ARG553  GLY616  TRP617  ASP618  TYR619  PRO620  LYS621  CYS622 
 ASP623  PHE694  ASN695  SER759  ASP760  ASP761  ALA762  ILE779  LEU786  VAL792 
 PHE793  MET794  SER795  GLU796  ALA797  LYS798  CYS799  TRP800  GLU811  SER814 

> <Gold.Protein.RotatedAtoms>
  151.1270  135.0110  159.8564 H   0  0  0  0  0  0  0  0  0  0  0  0  # atno 6907 bound_to 6896
  152.5450  134.1655  159.8585 H   0  0  0  0  0  0  0  0  0  0  0  0  # atno 6908 bound_to 6896
  151.1718  133.4734  159.2627 H   0  0  0  0  0  0  0  0  0  0  0  0  # atno 6909 bound_to 6896
  145.7825  139.2894  143.1257 H   0  0  0  0  0  0  0  0  0  0  0  0  # atno 7974 bound_to 7965
  156.2590  140.1999  156.6461 H   0  0  0  0  0  0  0  0  0  0  0  0  # atno 8008 bound_to 7997
  154.6572  140.0565  157.0047 H   0  0  0  0  0  0  0  0  0  0  0  0  # atno 8009 bound_to 7997
  155.1329  140.3235  155.4472 H   0  0  0  0  0  0  0  0  0  0  0  0  # atno 8010 bound_to 7997
  140.4276  144.1371  150.6155 H   0  0  0  0  0  0  0  0  0  0  0  0  # atno 10167 bound_to 10162
  156.7575  130.5259  149.5791 H   0  0  0  0  0  0  0  0  0  0  0  0  # atno 10718 bound_to 10713
  154.8712  135.3720  154.4809 H   0  0  0  0  0  0  0  0  0  0  0  0  # atno 10763 bound_to 10752
  153.5463  135.7025  153.5617 H   0  0  0  0  0  0  0  0  0  0  0  0  # atno 10764 bound_to 10752
  153.3756  135.4010  155.1785 H   0  0  0  0  0  0  0  0  0  0  0  0  # atno 10765 bound_to 10752
  141.0797  133.6656  156.3682 H   0  0  0  0  0  0  0  0  0  0  0  0  # atno 11005 bound_to 11000
  146.0060  140.8478  142.9995 LP  0  0  0  0  0  0  0  0  0  0  0  0  # atno 17320 bound_to 7965
  144.6794  140.2420  143.7342 LP  0  0  0  0  0  0  0  0  0  0  0  0  # atno 17321 bound_to 7965
  140.4464  143.2505  151.9406 LP  0  0  0  0  0  0  0  0  0  0  0  0  # atno 17342 bound_to 10162
  139.4784  144.5605  151.8246 LP  0  0  0  0  0  0  0  0  0  0  0  0  # atno 17343 bound_to 10162
  156.1360  130.6212  151.0401 LP  0  0  0  0  0  0  0  0  0  0  0  0  # atno 17370 bound_to 10713
  157.6749  131.0852  150.7519 LP  0  0  0  0  0  0  0  0  0  0  0  0  # atno 17371 bound_to 10713
  140.5495  134.6041  157.5403 LP  0  0  0  0  0  0  0  0  0  0  0  0  # atno 17394 bound_to 11000
  139.9610  134.7452  156.0237 LP  0  0  0  0  0  0  0  0  0  0  0  0  # atno 17395 bound_to 11000

$$$$
