AV-unprocessed.smi:16|AV-procd|sdf|90|dock5
  -GOLD-   2262015233D 1   1.00000     0.00000
 Structure written by MMmdl.
 60 64  0  0  0  0  0  0  0  0  2 V2000
  151.5421  138.2141  158.6129 C   0  0  0  0  0  0  0  0  0  0  0  0
  150.4192  138.4246  157.5875 C   0  0  0  0  0  0  0  0  0  0  0  0
  150.9408  138.7138  156.2247 N   0  3  2  0  0  0  0  0  0  0  0  0
  151.5934  140.0443  156.0778 C   0  0  0  0  0  0  0  0  0  0  0  0
  150.5690  141.1932  156.0081 C   0  0  0  0  0  0  0  0  0  0  0  0
  149.5455  140.9389  154.8944 C   0  0  2  0  0  0  0  0  0  0  0  0
  148.5656  141.9706  154.9003 O   0  0  0  0  0  0  0  0  0  0  0  0
  147.6330  141.8171  153.8353 C   0  0  0  0  0  0  0  0  0  0  0  0
  146.8993  140.4747  153.9870 C   0  0  0  0  0  0  0  0  0  0  0  0
  147.8573  139.3736  154.0539 N   0  0  0  0  0  0  0  0  0  0  0  0
  147.2589  138.1609  154.0647 C   0  0  0  0  0  0  0  0  0  0  0  0
  147.2957  137.3898  155.1834 N   0  0  0  0  0  0  0  0  0  0  0  0
  146.7187  136.1839  155.1800 C   0  0  0  0  0  0  0  0  0  0  0  0
  146.0809  135.5666  154.1826 N   0  0  0  0  0  0  0  0  0  0  0  0
  146.0560  136.3356  153.0560 C   0  0  0  0  0  0  0  0  0  0  0  0
  146.6113  137.6374  152.9161 C   0  0  0  0  0  0  0  0  0  0  0  0
  146.3894  138.1187  151.6328 N   0  0  0  0  0  0  0  0  0  0  0  0
  145.7286  137.1569  151.0472 C   0  0  0  0  0  0  0  0  0  0  0  0
  145.5139  136.0358  151.8184 N   0  0  0  0  0  0  0  0  0  0  0  0
  144.7938  134.8575  151.4349 C   0  0  0  0  0  0  0  0  0  0  0  0
  145.0133  133.5247  152.1547 C   0  0  0  0  0  0  0  0  0  0  0  0
  144.7412  132.7733  150.8319 C   0  0  0  0  0  0  0  0  0  0  0  0
  145.6692  131.5817  150.5451 C   0  0  0  0  0  0  0  0  0  0  0  0
  146.4249  131.7932  149.3699 O   0  0  0  0  0  0  0  0  0  0  0  0
  143.2778  132.3413  150.6087 C   0  0  0  0  0  0  0  0  0  0  0  0
  142.9803  132.2127  149.2330 O   0  0  0  0  0  0  0  0  0  0  0  0
  145.1443  134.1003  150.1515 C   0  0  0  0  0  0  0  0  0  0  0  0
  148.8595  139.5716  155.1039 C   0  0  1  0  0  0  0  0  0  0  0  0
  149.9444  138.4653  155.1488 C   0  0  0  0  0  0  0  0  0  0  0  0
  150.0663  140.9504  153.9344 H   0  0  0  0  0  0  0  0  0  0  0  0
  148.3332  139.5876  156.0598 H   0  0  0  0  0  0  0  0  0  0  0  0
  151.1292  137.9010  159.5720 H   0  0  0  0  0  0  0  0  0  0  0  0
  152.1120  139.1256  158.7905 H   0  0  0  0  0  0  0  0  0  0  0  0
  152.2356  137.4393  158.2846 H   0  0  0  0  0  0  0  0  0  0  0  0
  149.8288  137.5081  157.5551 H   0  0  0  0  0  0  0  0  0  0  0  0
  149.7413  139.2100  157.9213 H   0  0  0  0  0  0  0  0  0  0  0  0
  152.3082  140.2198  156.8805 H   0  0  0  0  0  0  0  0  0  0  0  0
  152.1779  140.0317  155.1568 H   0  0  0  0  0  0  0  0  0  0  0  0
  150.0589  141.3054  156.9651 H   0  0  0  0  0  0  0  0  0  0  0  0
  151.0853  142.1364  155.8269 H   0  0  0  0  0  0  0  0  0  0  0  0
  146.9198  142.6408  153.8655 H   0  0  0  0  0  0  0  0  0  0  0  0
  148.1459  141.8744  152.8738 H   0  0  0  0  0  0  0  0  0  0  0  0
  146.2911  140.4953  154.8928 H   0  0  0  0  0  0  0  0  0  0  0  0
  146.2203  140.3253  153.1464 H   0  0  0  0  0  0  0  0  0  0  0  0
  146.7795  135.6329  156.1070 H   0  0  0  0  0  0  0  0  0  0  0  0
  145.3857  137.2365  150.0256 H   0  0  0  0  0  0  0  0  0  0  0  0
  143.7378  135.1325  151.4467 H   0  0  0  0  0  0  0  0  0  0  0  0
  146.0390  133.4087  152.5096 H   0  0  0  0  0  0  0  0  0  0  0  0
  144.3015  133.3252  152.9563 H   0  0  0  0  0  0  0  0  0  0  0  0
  146.3697  131.4307  151.3670 H   0  0  0  0  0  0  0  0  0  0  0  0
  145.1108  130.6505  150.4465 H   0  0  0  0  0  0  0  0  0  0  0  0
  147.3092  131.4987  149.5255 H   0  0  0  0  0  0  0  0  0  0  0  0
  143.0739  131.3813  151.0832 H   0  0  0  0  0  0  0  0  0  0  0  0
  142.5801  133.0511  151.0535 H   0  0  0  0  0  0  0  0  0  0  0  0
  142.3699  132.8933  148.9934 H   0  0  0  0  0  0  0  0  0  0  0  0
  144.5407  134.3742  149.2856 H   0  0  0  0  0  0  0  0  0  0  0  0
  146.2091  134.1482  149.9155 H   0  0  0  0  0  0  0  0  0  0  0  0
  150.4684  138.4258  154.1925 H   0  0  0  0  0  0  0  0  0  0  0  0
  149.5071  137.4768  155.2935 H   0  0  0  0  0  0  0  0  0  0  0  0
  151.6678  138.0284  156.0767 H   0  0  0  0  0  0  0  0  0  0  0  0
  1  2  1  0  0  0  0
  1 32  1  0  0  0  0
  1 33  1  0  0  0  0
  1 34  1  0  0  0  0
  2  3  1  0  0  0  0
  2 35  1  0  0  0  0
  2 36  1  0  0  0  0
  3 29  1  0  0  0  0
  3  4  1  0  0  0  0
  3 60  1  0  0  0  0
  4  5  1  0  0  0  0
  4 37  1  0  0  0  0
  4 38  1  0  0  0  0
  5  6  1  0  0  0  0
  5 39  1  0  0  0  0
  5 40  1  0  0  0  0
  6 30  1  0  0  0  0
  6 28  1  0  0  0  0
  6  7  1  0  0  0  0
  7  8  1  0  0  0  0
  8  9  1  0  0  0  0
  8 41  1  0  0  0  0
  8 42  1  0  0  0  0
  9 10  1  0  0  0  0
  9 43  1  0  0  0  0
  9 44  1  0  0  0  0
 10 11  1  0  0  0  0
 10 28  1  0  0  0  0
 11 16  1  0  0  0  0
 11 12  2  0  0  0  0
 12 13  1  0  0  0  0
 13 14  2  0  0  0  0
 13 45  1  0  0  0  0
 14 15  1  0  0  0  0
 15 19  1  0  0  0  0
 15 16  2  0  0  0  0
 16 17  1  0  0  0  0
 17 18  2  0  0  0  0
 18 19  1  0  0  0  0
 18 46  1  0  0  0  0
 19 20  1  0  0  0  0
 20 27  1  0  0  0  0
 20 21  1  0  0  0  0
 20 47  1  0  0  0  0
 21 22  1  0  0  0  0
 21 48  1  0  0  0  0
 21 49  1  0  0  0  0
 22 23  1  0  0  0  0
 22 25  1  0  0  0  0
 22 27  1  0  0  0  0
 23 24  1  0  0  0  0
 23 50  1  0  0  0  0
 23 51  1  0  0  0  0
 24 52  1  0  0  0  0
 25 26  1  0  0  0  0
 25 53  1  0  0  0  0
 25 54  1  0  0  0  0
 26 55  1  0  0  0  0
 27 56  1  0  0  0  0
 27 57  1  0  0  0  0
 28 31  1  0  0  0  0
 28 29  1  0  0  0  0
 29 58  1  0  0  0  0
 29 59  1  0  0  0  0
M  CHG  1   3   1
M  END
> <s_m_source_file>
AV-unprocessed.smi

> <i_m_source_file_index>
16

> <i_lp_mmshare_version>
43012

> <i_f3d_flags>
0

> <s_epik_input>
W0NIM11bQ0gyXU4oW0NIMl1bQ0gyXTEpW0NIMl1bQ0BASF0oW0NAQEhdMTIpTihbQ0gyXVtDSDJdTzIpYyhuW2NIXW4zKWMoYzM0KW5bY0hdbjRbQ0hdKFtDSDJdNSlbQ0gyXUM1KFtDSDJdW09IXSlbQ0gyXVtPSF0=

> <s_epik_cmdline>
J2VwaWtfcHl0aG9uJywgJy1waCcsICc3LjAnLCAnLXRuJywgJzgnLCAnLW1hJywgJzIwMCcsICctbWV0YWxfYmluZGluZycsICctaW1hZScsICc8aW5maWxlLm1hZT4nLCAnLW9tYWUnLCAnPG91dGZpbGUubWFlPic=

> <r_lp_tautomer_probability>
1

> <r_epik_Ionization_Penalty>
0.0135603

> <r_epik_Ionization_Penalty_Charging>
0.0131385

> <r_epik_Ionization_Penalty_Neutral>
0.000421734

> <r_epik_State_Penalty>
0.0102091

> <r_epik_Charging_Adjusted_Penalty>
0.0233476

> <i_epik_Tot_Q>
1

> <i_epik_Tot_abs_Q>
1

> <r_epik_Metal_State_Penalty>
0.0103746

> <b_epik_Metal_Only>
0

> <s_lp_Force_Field>
OPLS_2005

> <r_lp_Energy>
56.2472

> <b_lp_Chiralities_Consistent>
1

> <s_lp_Variant>
AV-unprocessed.smi:16-4

> <Gold.Version>
5.8.1

> <Gold.Id.Protein>
6NUR|6NUR_protein|mol2

> <Gold.PLP.Fitness>
44.5786

> <Gold.PLP.PLP>
-37.8586

> <Gold.PLP.part.hbond>
-3.7646

> <Gold.PLP.part.metal>
0.0000

> <Gold.PLP.part.buried>
-1.4946

> <Gold.PLP.part.nonpolar>
-36.8851

> <Gold.PLP.part.repulsive>
2.2257

> <Gold.PLP.ligand.clash>
0.0000

> <Gold.PLP.ligand.torsion>
2.0912

> <Gold.PLP.Chemscore.Hbond>
2.6900

> <Gold.PLP.Chemscore.CHOScore>
0.7204

> <Gold.PLP.Chemscore.Metal>
0.0000

> <Gold.Chemscore.Hbonds>
donor molecule, donor type, donor heavy atom, donor atom, acceptor molecule, acceptor atom, score
      L1  H    24    52       P1 10747  1.00
      L1  H    26    55       P1 10186  0.80
      P1  H 10785 10796       L1    26  0.73
      L1  C    18    46       P1 10171  0.67

> <Gold.PLP.Chemscore.Internal.Correction>
0.6712

> <Gold.Rescore>
     Score         DG    S(hbond)    S(metal)    S(lipo)     H(rot)  DE(clash)    DE(int)     intcor
      9.81     -16.92       2.61        0.00      96.12       3.33       3.04       4.07       ----

> <Gold.Chemscore.Fitness>
9.8092

> <Gold.Chemscore.DG>
-16.9198

> <Gold.Chemscore.ZeroCoef>
-5.4800

> <Gold.Chemscore.Hbond>
2.6065

> <Gold.Chemscore.Metal>
0.0000

> <Gold.Chemscore.Lipo>
96.1222

> <Gold.Chemscore.Internal_Hbond>
0.0000

> <Gold.Chemscore.DEClash>
3.0435

> <Gold.Chemscore.DEInternal>
4.0671

> <Gold.Chemscore.Rot>
3.3251

> <Gold.Chemscore.Internal.Correction>
   9.000000E+99

> <Gold.Chemscore.Hbonds>
donor molecule, donor type, donor heavy atom, donor atom, acceptor molecule, acceptor atom, score
      L1  H    24    52       P1 10747  1.00
      L1  H    26    55       P1 10186  0.75
      P1  H 10785 10796       L1    26  0.44

> <Gold.Chemscore.Hbond.Weighted>
-8.7056

> <Gold.Chemscore.Metal.Weighted>
-0.0000

> <Gold.Chemscore.Lipo.Weighted>
-11.2463

> <Gold.Chemscore.Internal_Hbond.Weighted>
0.0000

> <Gold.Chemscore.DEClash.Weighted>
3.0435

> <Gold.Chemscore.DEInternal.Weighted>
4.0671

> <Gold.Chemscore.Rot.Weighted>
8.5122

> <Gold.Chemscore.Internal.Correction.Weighted>
   9.000000E+99

> <Gold.Protein.RotatedTorsions>
[ 6907 6896 6895 6894 ] final   -1.53 input  -60.11 | X-H torsion
[ 7974 7965 7964 7962 ] final -111.32 input  175.53 | X-H torsion
[ 8008 7997 7996 7995 ] final   43.83 input   59.86 | X-H torsion
[ 10167 10162 10161 10158 ] final  175.82 input  -65.29 | X-H torsion
[ 10718 10713 10712 10709 ] final   88.75 input   66.30 | X-H torsion
[ 10763 10752 10751 10750 ] final -111.73 input  -60.55 | X-H torsion
[ 11005 11000 10999 10996 ] final  102.47 input  -57.11 | X-H torsion

> <Gold.Protein.ActiveResidues>
 VAL166  LYS551  ARG553  GLY616  TRP617  ASP618  TYR619  PRO620  LYS621  CYS622 
 ASP623  PHE694  ASN695  SER759  ASP760  ASP761  ALA762  ILE779  LEU786  VAL792 
 PHE793  MET794  SER795  GLU796  ALA797  LYS798  CYS799  TRP800  GLU811  SER814 

> <Gold.Protein.RotatedAtoms>
  151.5446  135.1068  159.9934 H   0  0  0  0  0  0  0  0  0  0  0  0  # atno 6907 bound_to 6896
  152.4519  133.7643  159.6774 H   0  0  0  0  0  0  0  0  0  0  0  0  # atno 6908 bound_to 6896
  150.8451  133.7808  159.3070 H   0  0  0  0  0  0  0  0  0  0  0  0  # atno 6909 bound_to 6896
  145.1575  140.8861  143.3610 H   0  0  0  0  0  0  0  0  0  0  0  0  # atno 7974 bound_to 7965
  155.3093  140.3390  155.4244 H   0  0  0  0  0  0  0  0  0  0  0  0  # atno 8008 bound_to 7997
  156.1963  140.1716  156.8029 H   0  0  0  0  0  0  0  0  0  0  0  0  # atno 8009 bound_to 7997
  154.5503  140.0707  156.8641 H   0  0  0  0  0  0  0  0  0  0  0  0  # atno 8010 bound_to 7997
  139.5191  144.2987  152.0398 H   0  0  0  0  0  0  0  0  0  0  0  0  # atno 10167 bound_to 10162
  157.6951  131.0306  150.3321 H   0  0  0  0  0  0  0  0  0  0  0  0  # atno 10718 bound_to 10713
  154.8314  135.4517  154.1084 H   0  0  0  0  0  0  0  0  0  0  0  0  # atno 10763 bound_to 10752
  153.2353  135.6910  153.7850 H   0  0  0  0  0  0  0  0  0  0  0  0  # atno 10764 bound_to 10752
  153.7218  135.3340  155.3244 H   0  0  0  0  0  0  0  0  0  0  0  0  # atno 10765 bound_to 10752
  139.8778  134.9225  156.5063 H   0  0  0  0  0  0  0  0  0  0  0  0  # atno 11005 bound_to 11000
  145.0366  139.3296  143.5998 LP  0  0  0  0  0  0  0  0  0  0  0  0  # atno 17320 bound_to 7965
  146.3487  139.9723  142.8705 LP  0  0  0  0  0  0  0  0  0  0  0  0  # atno 17321 bound_to 7965
  140.2436  144.4244  150.6250 LP  0  0  0  0  0  0  0  0  0  0  0  0  # atno 17342 bound_to 10162
  140.6274  143.2183  151.6568 LP  0  0  0  0  0  0  0  0  0  0  0  0  # atno 17343 bound_to 10162
  156.3793  130.3877  149.7114 LP  0  0  0  0  0  0  0  0  0  0  0  0  # atno 17370 bound_to 10713
  156.4501  130.7903  151.2924 LP  0  0  0  0  0  0  0  0  0  0  0  0  # atno 17371 bound_to 10713
  140.8553  133.8101  155.9210 LP  0  0  0  0  0  0  0  0  0  0  0  0  # atno 17394 bound_to 11000
  140.9104  134.2268  157.4989 LP  0  0  0  0  0  0  0  0  0  0  0  0  # atno 17395 bound_to 11000

$$$$
