AV-unprocessed.smi:699|AV-procd|sdf|3403|dock5
  -GOLD-   22720 0383D 1   1.00000     0.00000
 Structure written by MMmdl.
 35 36  0  0  0  0  0  0  0  0  2 V2000
  150.6705  145.7348  160.9675 N   0  0  0  0  0  0  0  0  0  0  0  0
  150.1328  144.5684  160.6026 C   0  0  0  0  0  0  0  0  0  0  0  0
  148.9957  144.2410  160.9365 O   0  0  0  0  0  0  0  0  0  0  0  0
  150.9998  143.6373  159.7410 C   0  0  2  0  0  0  0  0  0  0  0  0
  152.3096  143.2356  160.4400 C   0  0  0  0  0  0  0  0  0  0  0  0
  153.2998  142.9994  159.3041 C   0  0  0  0  0  0  0  0  0  0  0  0
  152.9474  144.0693  158.2740 C   0  0  0  0  0  0  0  0  0  0  0  0
  151.4287  144.2825  158.3945 C   0  0  1  0  0  0  0  0  0  0  0  0
  150.7322  143.6846  157.2563 N   0  0  0  0  0  0  0  0  0  0  0  0
  150.8612  142.4132  156.8507 C   0  0  0  0  0  0  0  0  0  0  0  0
  151.6119  141.6011  157.3904 O   0  0  0  0  0  0  0  0  0  0  0  0
  150.0870  142.1620  155.7807 N   0  0  0  0  0  0  0  0  0  0  0  0
  149.9204  140.9383  155.0763 C   0  0  0  0  0  0  0  0  0  0  0  0
  148.7258  140.7627  154.3429 C   0  0  0  0  0  0  0  0  0  0  0  0
  148.5091  139.5581  153.6430 C   0  0  0  0  0  0  0  0  0  0  0  0
  149.4381  138.5792  153.6860 N   0  3  0  0  0  0  0  0  0  0  0  0
  150.5881  138.6947  154.3840 C   0  0  0  0  0  0  0  0  0  0  0  0
  150.8597  139.8758  155.1041 C   0  0  0  0  0  0  0  0  0  0  0  0
  150.1363  146.3750  161.5368 H   0  0  0  0  0  0  0  0  0  0  0  0
  151.6078  145.9725  160.6776 H   0  0  0  0  0  0  0  0  0  0  0  0
  150.4436  142.7196  159.5385 H   0  0  0  0  0  0  0  0  0  0  0  0
  152.6805  144.0369  161.0812 H   0  0  0  0  0  0  0  0  0  0  0  0
  152.1885  142.3482  161.0621 H   0  0  0  0  0  0  0  0  0  0  0  0
  154.3379  143.0582  159.6325 H   0  0  0  0  0  0  0  0  0  0  0  0
  153.1394  142.0091  158.8761 H   0  0  0  0  0  0  0  0  0  0  0  0
  153.4607  144.9960  158.5351 H   0  0  0  0  0  0  0  0  0  0  0  0
  153.2709  143.7978  157.2682 H   0  0  0  0  0  0  0  0  0  0  0  0
  151.2387  145.3582  158.3808 H   0  0  0  0  0  0  0  0  0  0  0  0
  150.0979  144.2850  156.7501 H   0  0  0  0  0  0  0  0  0  0  0  0
  149.5927  142.9542  155.3970 H   0  0  0  0  0  0  0  0  0  0  0  0
  147.9809  141.5449  154.3105 H   0  0  0  0  0  0  0  0  0  0  0  0
  147.6260  139.3492  153.0570 H   0  0  0  0  0  0  0  0  0  0  0  0
  151.2503  137.8415  154.3522 H   0  0  0  0  0  0  0  0  0  0  0  0
  151.7753  139.9371  155.6723 H   0  0  0  0  0  0  0  0  0  0  0  0
  149.2616  137.7139  153.1745 H   0  0  0  0  0  0  0  0  0  0  0  0
  1  2  1  0  0  0  0
  1 19  1  0  0  0  0
  1 20  1  0  0  0  0
  2  3  2  0  0  0  0
  2  4  1  0  0  0  0
  4  8  1  0  0  0  0
  4  5  1  0  0  0  0
  4 21  1  0  0  0  0
  5  6  1  0  0  0  0
  5 22  1  0  0  0  0
  5 23  1  0  0  0  0
  6  7  1  0  0  0  0
  6 24  1  0  0  0  0
  6 25  1  0  0  0  0
  7  8  1  0  0  0  0
  7 26  1  0  0  0  0
  7 27  1  0  0  0  0
  8  9  1  0  0  0  0
  8 28  1  0  0  0  0
  9 10  1  0  0  0  0
  9 29  1  0  0  0  0
 10 11  2  0  0  0  0
 10 12  1  0  0  0  0
 12 13  1  0  0  0  0
 12 30  1  0  0  0  0
 13 18  1  0  0  0  0
 13 14  2  0  0  0  0
 14 15  1  0  0  0  0
 14 31  1  0  0  0  0
 15 16  2  0  0  0  0
 15 32  1  0  0  0  0
 16 17  1  0  0  0  0
 16 35  1  0  0  0  0
 17 18  2  0  0  0  0
 17 33  1  0  0  0  0
 18 34  1  0  0  0  0
M  CHG  1  16   1
M  END
> <s_m_source_file>
AV-unprocessed.smi

> <i_m_source_file_index>
699

> <i_lp_mmshare_version>
43012

> <i_f3d_flags>
0

> <s_epik_input>
W05IMl1DKD1PKVtDQEBIXTFbQ0gyXVtDSDJdW0NIMl1bQ0BIXTFbTkhdQyg9TylbTkhdYzJbY0hdW2NIXW5bY0hdW2NIXTI=

> <s_epik_cmdline>
J2VwaWtfcHl0aG9uJywgJy1waCcsICc3LjAnLCAnLXRuJywgJzgnLCAnLW1hJywgJzIwMCcsICctbWV0YWxfYmluZGluZycsICctaW1hZScsICc8aW5maWxlLm1hZT4nLCAnLW9tYWUnLCAnPG91dGZpbGUubWFlPic=

> <r_epik_Ionization_Penalty>
1.0332

> <r_epik_Ionization_Penalty_Charging>
1.03318

> <r_epik_Ionization_Penalty_Neutral>
1.91967e-05

> <r_epik_State_Penalty>
1.08452

> <r_epik_Charging_Adjusted_Penalty>
2.11769

> <i_epik_Tot_Q>
1

> <i_epik_Tot_abs_Q>
1

> <r_epik_Metal_State_Penalty>
1.18144

> <b_epik_Metal_Only>
0

> <s_lp_Force_Field>
OPLS_2005

> <r_lp_Energy>
26.3794

> <b_lp_Chiralities_Consistent>
1

> <s_lp_Variant>
AV-unprocessed.smi:699-5

> <Gold.Version>
5.8.1

> <Gold.Id.Protein>
6NUR|6NUR_protein|mol2

> <Gold.PLP.Fitness>
50.5170

> <Gold.PLP.PLP>
-36.9589

> <Gold.PLP.part.hbond>
-5.7994

> <Gold.PLP.part.metal>
0.0000

> <Gold.PLP.part.buried>
-0.0385

> <Gold.PLP.part.nonpolar>
-33.5876

> <Gold.PLP.part.repulsive>
1.4716

> <Gold.PLP.ligand.clash>
0.0000

> <Gold.PLP.ligand.torsion>
0.1455

> <Gold.PLP.Chemscore.Hbond>
4.6156

> <Gold.PLP.Chemscore.CHOScore>
0.0000

> <Gold.PLP.Chemscore.Metal>
0.0000

> <Gold.Chemscore.Hbonds>
donor molecule, donor type, donor heavy atom, donor atom, acceptor molecule, acceptor atom, score
      L1  H     9    29       P1  8028  1.00
      L1  H    12    30       P1  8028  0.98
      L1  H    16    35       P1  7948  2.00
      P1  H  6933  6944       L1     3  0.66

> <Gold.PLP.Chemscore.Internal.Correction>
0.0024

> <Gold.Rescore>
     Score         DG    S(hbond)    S(metal)    S(lipo)     H(rot)  DE(clash)    DE(int)     intcor
     17.89     -24.70       3.55        0.00      95.84       1.50       3.24       3.57       ----

> <Gold.Chemscore.Fitness>
17.8883

> <Gold.Chemscore.DG>
-24.6991

> <Gold.Chemscore.ZeroCoef>
-5.4800

> <Gold.Chemscore.Hbond>
3.5496

> <Gold.Chemscore.Metal>
0.0000

> <Gold.Chemscore.Lipo>
95.8388

> <Gold.Chemscore.Internal_Hbond>
0.0000

> <Gold.Chemscore.DEClash>
3.2371

> <Gold.Chemscore.DEInternal>
3.5737

> <Gold.Chemscore.Rot>
1.5038

> <Gold.Chemscore.Internal.Correction>
   9.000000E+99

> <Gold.Chemscore.Hbonds>
donor molecule, donor type, donor heavy atom, donor atom, acceptor molecule, acceptor atom, score
      L1  H     9    29       P1  8028  0.95
      L1  H    12    30       P1  8028  0.93
      L1  H    16    35       P1  7948  0.96
      P1  H  6933  6944       L1     3  0.62

> <Gold.Chemscore.Hbond.Weighted>
-11.8556

> <Gold.Chemscore.Metal.Weighted>
-0.0000

> <Gold.Chemscore.Lipo.Weighted>
-11.2131

> <Gold.Chemscore.Internal_Hbond.Weighted>
0.0000

> <Gold.Chemscore.DEClash.Weighted>
3.2371

> <Gold.Chemscore.DEInternal.Weighted>
3.5737

> <Gold.Chemscore.Rot.Weighted>
3.8496

> <Gold.Chemscore.Internal.Correction.Weighted>
   9.000000E+99

> <Gold.Protein.RotatedTorsions>
[ 6907 6896 6895 6894 ] final -177.07 input  -60.11 | X-H torsion
[ 7974 7965 7964 7962 ] final  -28.43 input  175.53 | X-H torsion
[ 8008 7997 7996 7995 ] final   48.69 input   59.86 | X-H torsion
[ 10167 10162 10161 10158 ] final -150.54 input  -65.29 | X-H torsion
[ 10718 10713 10712 10709 ] final   15.88 input   66.30 | X-H torsion
[ 10763 10752 10751 10750 ] final   49.66 input  -60.55 | X-H torsion
[ 11005 11000 10999 10996 ] final -147.17 input  -57.11 | X-H torsion

> <Gold.Protein.ActiveResidues>
 VAL166  LYS551  ARG553  GLY616  TRP617  ASP618  TYR619  PRO620  LYS621  CYS622 
 ASP623  PHE694  ASN695  SER759  ASP760  ASP761  ALA762  ILE779  LEU786  VAL792 
 PHE793  MET794  SER795  GLU796  ALA797  LYS798  CYS799  TRP800  GLU811  SER814 

> <Gold.Protein.RotatedAtoms>
  151.6151  133.3344  159.3075 H   0  0  0  0  0  0  0  0  0  0  0  0  # atno 6907 bound_to 6896
  150.8136  134.7308  159.6721 H   0  0  0  0  0  0  0  0  0  0  0  0  # atno 6908 bound_to 6896
  152.4232  134.5922  160.0029 H   0  0  0  0  0  0  0  0  0  0  0  0  # atno 6909 bound_to 6896
  146.1288  140.5282  142.8702 H   0  0  0  0  0  0  0  0  0  0  0  0  # atno 7974 bound_to 7965
  155.3899  140.3433  155.4251 H   0  0  0  0  0  0  0  0  0  0  0  0  # atno 8008 bound_to 7997
  156.1563  140.1587  156.8719 H   0  0  0  0  0  0  0  0  0  0  0  0  # atno 8009 bound_to 7997
  154.5098  140.0793  156.7949 H   0  0  0  0  0  0  0  0  0  0  0  0  # atno 8010 bound_to 7997
  139.7345  143.8756  152.2545 H   0  0  0  0  0  0  0  0  0  0  0  0  # atno 10167 bound_to 10162
  157.0599  130.6304  149.5784 H   0  0  0  0  0  0  0  0  0  0  0  0  # atno 10718 bound_to 10713
  152.9786  135.5904  154.4125 H   0  0  0  0  0  0  0  0  0  0  0  0  # atno 10763 bound_to 10752
  154.3759  135.2767  155.2241 H   0  0  0  0  0  0  0  0  0  0  0  0  # atno 10764 bound_to 10752
  154.4176  135.6066  153.6045 H   0  0  0  0  0  0  0  0  0  0  0  0  # atno 10765 bound_to 10752
  140.7745  134.3151  157.5065 H   0  0  0  0  0  0  0  0  0  0  0  0  # atno 11005 bound_to 11000
  144.7670  140.5552  143.6696 LP  0  0  0  0  0  0  0  0  0  0  0  0  # atno 17320 bound_to 7965
  145.5306  139.1475  143.3502 LP  0  0  0  0  0  0  0  0  0  0  0  0  # atno 17321 bound_to 7965
  139.8689  144.7078  150.9011 LP  0  0  0  0  0  0  0  0  0  0  0  0  # atno 17342 bound_to 10162
  140.7776  143.3755  151.1572 LP  0  0  0  0  0  0  0  0  0  0  0  0  # atno 17343 bound_to 10162
  155.9981  130.5055  150.7560 LP  0  0  0  0  0  0  0  0  0  0  0  0  # atno 17370 bound_to 10713
  157.4963  131.0915  151.0368 LP  0  0  0  0  0  0  0  0  0  0  0  0  # atno 17371 bound_to 10713
  139.8751  134.9281  156.3441 LP  0  0  0  0  0  0  0  0  0  0  0  0  # atno 17394 bound_to 11000
  140.9542  133.7431  156.0313 LP  0  0  0  0  0  0  0  0  0  0  0  0  # atno 17395 bound_to 11000

$$$$
