AV-unprocessed.smi:2855|AV-procd|sdf|10980|dock1
  -GOLD-   2272015433D 1   1.00000     0.00000
 Structure written by MMmdl.
 47 48  0  0  0  0  0  0  0  0  1 V2000
  152.1971  145.0738  159.1511 C   0  0  0  0  0  0  0  0  0  0  0  0
  152.4870  143.5996  158.8353 C   0  0  1  0  0  0  0  0  0  0  0  0
  152.7423  142.7882  160.1167 C   0  0  0  0  0  0  0  0  0  0  0  0
  153.0416  141.3145  159.8012 C   0  0  0  0  0  0  0  0  0  0  0  0
  151.9044  140.6553  158.9853 C   0  0  2  0  0  0  0  0  0  0  0  0
  152.1323  139.1354  158.7237 C   0  0  0  0  0  0  0  0  0  0  0  0
  150.8146  138.3708  158.5098 C   0  0  0  0  0  0  0  0  0  0  0  0
  152.9996  138.4366  159.7869 C   0  0  0  0  0  0  0  0  0  0  0  0
  151.6355  141.4814  157.6976 C   0  0  1  0  0  0  0  0  0  0  0  0
  150.5101  140.9246  156.9503 N   0  0  0  0  0  0  0  0  0  0  0  0
  150.5838  140.3417  155.7442 C   0  0  0  0  0  0  0  0  0  0  0  0
  151.6259  140.2608  155.0926 O   0  0  0  0  0  0  0  0  0  0  0  0
  149.2707  139.7765  155.1860 C   0  0  0  0  0  0  0  0  0  0  0  0
  148.2514  140.8155  154.9791 N   0  0  0  0  0  0  0  0  0  0  0  0
  147.8102  141.1229  153.6998 C   0  0  0  0  0  0  0  0  0  0  0  0
  146.8654  142.0581  153.4419 C   0  0  0  0  0  0  0  0  0  0  0  0
  146.2499  142.8070  154.5323 C   0  0  0  0  0  0  0  0  0  0  0  0
  145.3873  143.6724  154.4002 O   0  0  0  0  0  0  0  0  0  0  0  0
  146.7197  142.4689  155.8042 N   0  0  0  0  0  0  0  0  0  0  0  0
  147.6927  141.5060  156.0773 C   0  0  0  0  0  0  0  0  0  0  0  0
  148.0336  141.2831  157.2387 O   0  0  0  0  0  0  0  0  0  0  0  0
  151.3465  142.9599  158.0248 C   0  0  0  0  0  0  0  0  0  0  0  0
  146.3203  142.9598  156.5910 H   0  0  0  0  0  0  0  0  0  0  0  0
  151.2962  145.1807  159.7562 H   0  0  0  0  0  0  0  0  0  0  0  0
  152.0549  145.6508  158.2370 H   0  0  0  0  0  0  0  0  0  0  0  0
  153.0231  145.5266  159.7004 H   0  0  0  0  0  0  0  0  0  0  0  0
  153.3927  143.5660  158.2278 H   0  0  0  0  0  0  0  0  0  0  0  0
  153.5786  143.2180  160.6693 H   0  0  0  0  0  0  0  0  0  0  0  0
  151.8741  142.8510  160.7744 H   0  0  0  0  0  0  0  0  0  0  0  0
  153.9816  141.2543  159.2525 H   0  0  0  0  0  0  0  0  0  0  0  0
  153.1979  140.7853  160.7404 H   0  0  0  0  0  0  0  0  0  0  0  0
  151.0010  140.7283  159.5934 H   0  0  0  0  0  0  0  0  0  0  0  0
  152.6697  139.0419  157.7798 H   0  0  0  0  0  0  0  0  0  0  0  0
  150.2264  138.3075  159.4250 H   0  0  0  0  0  0  0  0  0  0  0  0
  151.0079  137.3497  158.1799 H   0  0  0  0  0  0  0  0  0  0  0  0
  150.1989  138.8482  157.7469 H   0  0  0  0  0  0  0  0  0  0  0  0
  152.5223  138.4410  160.7665 H   0  0  0  0  0  0  0  0  0  0  0  0
  153.9778  138.9065  159.8853 H   0  0  0  0  0  0  0  0  0  0  0  0
  153.1748  137.3948  159.5170 H   0  0  0  0  0  0  0  0  0  0  0  0
  152.5353  141.4510  157.0814 H   0  0  0  0  0  0  0  0  0  0  0  0
  149.6083  140.9545  157.4037 H   0  0  0  0  0  0  0  0  0  0  0  0
  149.4554  139.2482  154.2481 H   0  0  0  0  0  0  0  0  0  0  0  0
  148.9091  139.0164  155.8799 H   0  0  0  0  0  0  0  0  0  0  0  0
  148.2347  140.5906  152.8604 H   0  0  0  0  0  0  0  0  0  0  0  0
  146.5617  142.2519  152.4232 H   0  0  0  0  0  0  0  0  0  0  0  0
  150.4121  143.0378  158.5830 H   0  0  0  0  0  0  0  0  0  0  0  0
  151.1991  143.5181  157.0991 H   0  0  0  0  0  0  0  0  0  0  0  0
  1  2  1  0  0  0  0
  1 24  1  0  0  0  0
  1 25  1  0  0  0  0
  1 26  1  0  0  0  0
  2 22  1  0  0  0  0
  2  3  1  0  0  0  0
  2 27  1  0  0  0  0
  3  4  1  0  0  0  0
  3 28  1  0  0  0  0
  3 29  1  0  0  0  0
  4  5  1  0  0  0  0
  4 30  1  0  0  0  0
  4 31  1  0  0  0  0
  5  6  1  0  0  0  0
  5  9  1  0  0  0  0
  5 32  1  0  0  0  0
  6  7  1  0  0  0  0
  6  8  1  0  0  0  0
  6 33  1  0  0  0  0
  7 34  1  0  0  0  0
  7 35  1  0  0  0  0
  7 36  1  0  0  0  0
  8 37  1  0  0  0  0
  8 38  1  0  0  0  0
  8 39  1  0  0  0  0
  9 10  1  0  0  0  0
  9 22  1  0  0  0  0
  9 40  1  0  0  0  0
 10 11  1  0  0  0  0
 10 41  1  0  0  0  0
 11 12  2  0  0  0  0
 11 13  1  0  0  0  0
 13 14  1  0  0  0  0
 13 42  1  0  0  0  0
 13 43  1  0  0  0  0
 14 20  1  0  0  0  0
 14 15  1  0  0  0  0
 15 16  2  0  0  0  0
 15 44  1  0  0  0  0
 16 17  1  0  0  0  0
 16 45  1  0  0  0  0
 17 18  2  0  0  0  0
 17 19  1  0  0  0  0
 19 23  1  0  0  0  0
 19 20  1  0  0  0  0
 20 21  2  0  0  0  0
 22 46  1  0  0  0  0
 22 47  1  0  0  0  0
M  END
> <s_m_source_file>
AV-unprocessed.smi

> <i_m_source_file_index>
2855

> <i_lp_mmshare_version>
43012

> <i_f3d_flags>
0

> <s_epik_input>
W0NIM11bQ0BASF0xW0NIMl1bQ0gyXVtDQEBIXShbQ0hdKFtDSDNdKVtDSDNdKVtDQEhdKFtDSDJdMSlbTkhdQyg9TylbQ0gyXW4yW2NIXVtjSF1jKD1PKVtuSF1jMj1P

> <s_epik_cmdline>
J2VwaWtfcHl0aG9uJywgJy1waCcsICc3LjAnLCAnLXRuJywgJzgnLCAnLW1hJywgJzIwMCcsICctbWV0YWxfYmluZGluZycsICctaW1hZScsICc8aW5maWxlLm1hZT4nLCAnLW9tYWUnLCAnPG91dGZpbGUubWFlPic=

> <r_lp_tautomer_probability>
0.999537

> <r_epik_Ionization_Penalty>
0.00306256

> <r_epik_Ionization_Penalty_Charging>
0.00306254

> <r_epik_Ionization_Penalty_Neutral>
2.0223e-08

> <r_epik_State_Penalty>
0.0021533

> <r_epik_Charging_Adjusted_Penalty>
0.00521583

> <i_epik_Tot_Q>
0

> <i_epik_Tot_abs_Q>
0

> <r_epik_Metal_State_Penalty>
0.362116

> <b_epik_Metal_Only>
0

> <s_lp_Force_Field>
OPLS_2005

> <r_lp_Energy>
14.1485

> <b_lp_Chiralities_Consistent>
1

> <s_lp_Variant>
AV-unprocessed.smi:2855-4

> <Gold.Version>
5.8.1

> <Gold.Id.Protein>
6NUR|6NUR_protein|mol2

> <Gold.PLP.Fitness>
48.3571

> <Gold.PLP.PLP>
-43.7611

> <Gold.PLP.part.hbond>
-1.7345

> <Gold.PLP.part.metal>
0.0000

> <Gold.PLP.part.buried>
-7.7214

> <Gold.PLP.part.nonpolar>
-35.4086

> <Gold.PLP.part.repulsive>
0.3796

> <Gold.PLP.ligand.clash>
0.0000

> <Gold.PLP.ligand.torsion>
0.6795

> <Gold.PLP.Chemscore.Hbond>
0.9600

> <Gold.PLP.Chemscore.CHOScore>
1.0000

> <Gold.PLP.Chemscore.Metal>
0.0000

> <Gold.Chemscore.Hbonds>
donor molecule, donor type, donor heavy atom, donor atom, acceptor molecule, acceptor atom, score
      P1  H  7989  7998       L1    12  0.94
      L1  C    15    44       P1  7957  1.00

> <Gold.PLP.Chemscore.Internal.Correction>
0.0749

> <Gold.Rescore>
     Score         DG    S(hbond)    S(metal)    S(lipo)     H(rot)  DE(clash)    DE(int)     intcor
     15.39     -16.83       0.96        0.00     110.21       1.85       0.09       1.35       ----

> <Gold.Chemscore.Fitness>
15.3910

> <Gold.Chemscore.DG>
-16.8337

> <Gold.Chemscore.ZeroCoef>
-5.4800

> <Gold.Chemscore.Hbond>
0.9597

> <Gold.Chemscore.Metal>
0.0000

> <Gold.Chemscore.Lipo>
110.2077

> <Gold.Chemscore.Internal_Hbond>
0.0000

> <Gold.Chemscore.DEClash>
0.0884

> <Gold.Chemscore.DEInternal>
1.3543

> <Gold.Chemscore.Rot>
1.8539

> <Gold.Chemscore.Internal.Correction>
   9.000000E+99

> <Gold.Chemscore.Hbonds>
donor molecule, donor type, donor heavy atom, donor atom, acceptor molecule, acceptor atom, score
      P1  H  7989  7998       L1    12  0.88

> <Gold.Chemscore.Hbond.Weighted>
-3.2054

> <Gold.Chemscore.Metal.Weighted>
-0.0000

> <Gold.Chemscore.Lipo.Weighted>
-12.8943

> <Gold.Chemscore.Internal_Hbond.Weighted>
0.0000

> <Gold.Chemscore.DEClash.Weighted>
0.0884

> <Gold.Chemscore.DEInternal.Weighted>
1.3543

> <Gold.Chemscore.Rot.Weighted>
4.7460

> <Gold.Chemscore.Internal.Correction.Weighted>
   9.000000E+99

> <Gold.Protein.RotatedTorsions>
[ 6907 6896 6895 6894 ] final  153.86 input  -60.11 | X-H torsion
[ 7974 7965 7964 7962 ] final -101.57 input  175.53 | X-H torsion
[ 8008 7997 7996 7995 ] final   10.95 input   59.86 | X-H torsion
[ 10167 10162 10161 10158 ] final -167.65 input  -65.29 | X-H torsion
[ 10718 10713 10712 10709 ] final   28.22 input   66.30 | X-H torsion
[ 10763 10752 10751 10750 ] final  -76.56 input  -60.55 | X-H torsion
[ 11005 11000 10999 10996 ] final -161.32 input  -57.11 | X-H torsion

> <Gold.Protein.ActiveResidues>
 VAL166  LYS551  ARG553  GLY616  TRP617  ASP618  TYR619  PRO620  LYS621  CYS622 
 ASP623  PHE694  ASN695  SER759  ASP760  ASP761  ALA762  ILE779  LEU786  VAL792 
 PHE793  MET794  SER795  GLU796  ALA797  LYS798  CYS799  TRP800  GLU811  SER814 

> <Gold.Protein.RotatedAtoms>
  152.0667  133.4087  159.4441 H   0  0  0  0  0  0  0  0  0  0  0  0  # atno 6907 bound_to 6896
  150.6864  134.3138  159.4767 H   0  0  0  0  0  0  0  0  0  0  0  0  # atno 6908 bound_to 6896
  152.0965  134.9371  160.0621 H   0  0  0  0  0  0  0  0  0  0  0  0  # atno 6909 bound_to 6896
  145.2800  140.9323  143.2938 H   0  0  0  0  0  0  0  0  0  0  0  0  # atno 7974 bound_to 7965
  154.8003  140.2851  155.5926 H   0  0  0  0  0  0  0  0  0  0  0  0  # atno 8008 bound_to 7997
  156.2976  140.2587  156.2799 H   0  0  0  0  0  0  0  0  0  0  0  0  # atno 8009 bound_to 7997
  154.9566  140.0378  157.2159 H   0  0  0  0  0  0  0  0  0  0  0  0  # atno 8010 bound_to 7997
  139.6035  144.0960  152.1769 H   0  0  0  0  0  0  0  0  0  0  0  0  # atno 10167 bound_to 10162
  157.2305  130.7021  149.6311 H   0  0  0  0  0  0  0  0  0  0  0  0  # atno 10718 bound_to 10713
  154.5014  135.5793  153.6534 H   0  0  0  0  0  0  0  0  0  0  0  0  # atno 10763 bound_to 10752
  152.9879  135.6136  154.2997 H   0  0  0  0  0  0  0  0  0  0  0  0  # atno 10764 bound_to 10752
  154.2905  135.2849  155.2636 H   0  0  0  0  0  0  0  0  0  0  0  0  # atno 10765 bound_to 10752
  140.6217  134.4744  157.5224 H   0  0  0  0  0  0  0  0  0  0  0  0  # atno 11005 bound_to 11000
  144.9262  139.4353  143.6517 LP  0  0  0  0  0  0  0  0  0  0  0  0  # atno 17320 bound_to 7965
  146.3219  139.8148  142.8938 LP  0  0  0  0  0  0  0  0  0  0  0  0  # atno 17321 bound_to 7965
  140.0562  144.5893  150.7298 LP  0  0  0  0  0  0  0  0  0  0  0  0  # atno 17342 bound_to 10162
  140.7268  143.2645  151.4093 LP  0  0  0  0  0  0  0  0  0  0  0  0  # atno 17343 bound_to 10162
  155.9676  130.4490  150.5642 LP  0  0  0  0  0  0  0  0  0  0  0  0  # atno 17370 bound_to 10713
  157.3483  131.0729  151.1734 LP  0  0  0  0  0  0  0  0  0  0  0  0  # atno 17371 bound_to 10713
  139.9151  134.8263  156.1394 LP  0  0  0  0  0  0  0  0  0  0  0  0  # atno 17394 bound_to 11000
  141.0738  133.6785  156.2194 LP  0  0  0  0  0  0  0  0  0  0  0  0  # atno 17395 bound_to 11000

$$$$
