AV-unprocessed.smi:559|AV-procd|sdf|2925|dock5
  -GOLD-   2262023413D 1   1.00000     0.00000
 Structure written by MMmdl.
 41 42  0  0  0  0  0  0  0  0  1 V2000
  151.3043  145.6497  160.0413 C   0  0  0  0  0  0  0  0  0  0  0  0
  151.9328  144.2909  160.1617 C   0  0  0  0  0  0  0  0  0  0  0  0
  152.4074  143.8961  161.3308 N   0  0  0  0  0  0  0  0  0  0  0  0
  152.8944  142.6597  161.1069 N   0  0  0  0  0  0  0  0  0  0  0  0
  153.4946  141.9404  162.2145 C   0  0  0  0  0  0  0  0  0  0  0  0
  152.7242  142.2701  159.7908 C   0  0  0  0  0  0  0  0  0  0  0  0
  153.1789  140.9399  159.2807 C   0  0  0  0  0  0  0  0  0  0  0  0
  152.1023  143.3063  159.1448 C   0  0  0  0  0  0  0  0  0  0  0  0
  151.6838  143.4081  157.6990 C   0  0  0  0  0  0  0  0  0  0  0  0
  150.8140  142.2090  157.3182 C   0  0  0  0  0  0  0  0  0  0  0  0
  149.8454  141.9064  158.0140 O   0  0  0  0  0  0  0  0  0  0  0  0
  151.1768  141.5310  156.2178 N   0  0  0  0  0  0  0  0  0  0  0  0
  150.4882  140.3676  155.6685 C   0  0  0  0  0  0  0  0  0  0  0  0
  149.3156  140.7663  154.7517 C   0  0  1  0  0  0  0  0  0  0  0  0
  148.5848  139.5667  154.1109 C   0  0  0  0  0  0  0  0  0  0  0  0
  147.2832  140.0648  153.4748 C   0  0  0  0  0  0  0  0  0  0  0  0
  146.7066  141.4390  154.5382 S   0  0  0  0  0  0  0  0  0  0  0  0
  146.5056  142.6353  153.7066 O   0  0  0  0  0  0  0  0  0  0  0  0
  145.6481  140.9548  155.4372 O   0  0  0  0  0  0  0  0  0  0  0  0
  148.2638  141.6091  155.4899 C   0  0  0  0  0  0  0  0  0  0  0  0
  151.6871  146.1811  159.1700 H   0  0  0  0  0  0  0  0  0  0  0  0
  151.5047  146.2679  160.9171 H   0  0  0  0  0  0  0  0  0  0  0  0
  150.2229  145.5689  159.9319 H   0  0  0  0  0  0  0  0  0  0  0  0
  153.9794  141.0282  161.8682 H   0  0  0  0  0  0  0  0  0  0  0  0
  152.7244  141.6773  162.9398 H   0  0  0  0  0  0  0  0  0  0  0  0
  154.2419  142.5684  162.7010 H   0  0  0  0  0  0  0  0  0  0  0  0
  152.9683  140.8279  158.2176 H   0  0  0  0  0  0  0  0  0  0  0  0
  152.6745  140.1298  159.8077 H   0  0  0  0  0  0  0  0  0  0  0  0
  154.2535  140.8187  159.4190 H   0  0  0  0  0  0  0  0  0  0  0  0
  151.1287  144.3253  157.5016 H   0  0  0  0  0  0  0  0  0  0  0  0
  152.5531  143.4393  157.0410 H   0  0  0  0  0  0  0  0  0  0  0  0
  151.9876  141.8577  155.7124 H   0  0  0  0  0  0  0  0  0  0  0  0
  151.1842  139.7143  155.1393 H   0  0  0  0  0  0  0  0  0  0  0  0
  150.1100  139.7870  156.5104 H   0  0  0  0  0  0  0  0  0  0  0  0
  149.7067  141.3799  153.9385 H   0  0  0  0  0  0  0  0  0  0  0  0
  149.2062  139.0536  153.3769 H   0  0  0  0  0  0  0  0  0  0  0  0
  148.3427  138.8395  154.8871 H   0  0  0  0  0  0  0  0  0  0  0  0
  147.4677  140.4644  152.4774 H   0  0  0  0  0  0  0  0  0  0  0  0
  146.5178  139.2917  153.4063 H   0  0  0  0  0  0  0  0  0  0  0  0
  148.0824  141.2211  156.4928 H   0  0  0  0  0  0  0  0  0  0  0  0
  148.5417  142.6600  155.5710 H   0  0  0  0  0  0  0  0  0  0  0  0
  1  2  1  0  0  0  0
  1 21  1  0  0  0  0
  1 22  1  0  0  0  0
  1 23  1  0  0  0  0
  2  8  1  0  0  0  0
  2  3  2  0  0  0  0
  3  4  1  0  0  0  0
  4  5  1  0  0  0  0
  4  6  1  0  0  0  0
  5 24  1  0  0  0  0
  5 25  1  0  0  0  0
  5 26  1  0  0  0  0
  6  7  1  0  0  0  0
  6  8  2  0  0  0  0
  7 27  1  0  0  0  0
  7 28  1  0  0  0  0
  7 29  1  0  0  0  0
  8  9  1  0  0  0  0
  9 10  1  0  0  0  0
  9 30  1  0  0  0  0
  9 31  1  0  0  0  0
 10 11  2  0  0  0  0
 10 12  1  0  0  0  0
 12 13  1  0  0  0  0
 12 32  1  0  0  0  0
 13 14  1  0  0  0  0
 13 33  1  0  0  0  0
 13 34  1  0  0  0  0
 14 20  1  0  0  0  0
 14 15  1  0  0  0  0
 14 35  1  0  0  0  0
 15 16  1  0  0  0  0
 15 36  1  0  0  0  0
 15 37  1  0  0  0  0
 16 17  1  0  0  0  0
 16 38  1  0  0  0  0
 16 39  1  0  0  0  0
 17 18  2  0  0  0  0
 17 19  2  0  0  0  0
 17 20  1  0  0  0  0
 20 40  1  0  0  0  0
 20 41  1  0  0  0  0
M  END
> <s_m_source_file>
AV-unprocessed.smi

> <i_m_source_file_index>
559

> <i_lp_mmshare_version>
43012

> <i_f3d_flags>
0

> <s_epik_input>
W0NIM11jMW5uKFtDSDNdKWMoW0NIM10pYzFbQ0gyXUMoPU8pW05IXVtDSDJdW0NAQEhdKFtDSDJdMilbQ0gyXVtDSDJdUzIoPU8pPU8=

> <s_epik_cmdline>
J2VwaWtfcHl0aG9uJywgJy1waCcsICc3LjAnLCAnLXRuJywgJzgnLCAnLW1hJywgJzIwMCcsICctbWV0YWxfYmluZGluZycsICctaW1hZScsICc8aW5maWxlLm1hZT4nLCAnLW9tYWUnLCAnPG91dGZpbGUubWFlPic=

> <r_lp_tautomer_probability>
1

> <r_epik_Ionization_Penalty>
0.00301269

> <r_epik_Ionization_Penalty_Charging>
0

> <r_epik_Ionization_Penalty_Neutral>
0.00301269

> <r_epik_State_Penalty>
0.00211587

> <r_epik_Charging_Adjusted_Penalty>
0.00211587

> <i_epik_Tot_Q>
0

> <i_epik_Tot_abs_Q>
0

> <r_epik_Metal_State_Penalty>
-0

> <b_epik_Metal_Only>
0

> <s_lp_Force_Field>
OPLS_2005

> <r_lp_Energy>
-1.18315

> <b_lp_Chiralities_Consistent>
1

> <s_lp_Variant>
AV-unprocessed.smi:559-2

> <Gold.Version>
5.8.1

> <Gold.Id.Protein>
6NUR|6NUR_protein|mol2

> <Gold.PLP.Fitness>
43.0342

> <Gold.PLP.PLP>
-43.6039

> <Gold.PLP.part.hbond>
0.0000

> <Gold.PLP.part.metal>
0.0000

> <Gold.PLP.part.buried>
-3.3030

> <Gold.PLP.part.nonpolar>
-40.4302

> <Gold.PLP.part.repulsive>
0.6121

> <Gold.PLP.ligand.clash>
0.0000

> <Gold.PLP.ligand.torsion>
0.2872

> <Gold.PLP.Chemscore.Hbond>
0.0000

> <Gold.PLP.Chemscore.CHOScore>
0.0000

> <Gold.PLP.Chemscore.Metal>
0.0000

> <Gold.PLP.Chemscore.Internal.Correction>
0.0047

> <Gold.Rescore>
     Score         DG    S(hbond)    S(metal)    S(lipo)     H(rot)  DE(clash)    DE(int)     intcor
     12.89     -14.22       0.00        0.00     110.55       1.64       0.09       1.24       ----

> <Gold.Chemscore.Fitness>
12.8862

> <Gold.Chemscore.DG>
-14.2170

> <Gold.Chemscore.ZeroCoef>
-5.4800

> <Gold.Chemscore.Hbond>
0.0000

> <Gold.Chemscore.Metal>
0.0000

> <Gold.Chemscore.Lipo>
110.5503

> <Gold.Chemscore.Internal_Hbond>
0.0000

> <Gold.Chemscore.DEClash>
0.0887

> <Gold.Chemscore.DEInternal>
1.2421

> <Gold.Chemscore.Rot>
1.6396

> <Gold.Chemscore.Internal.Correction>
   9.000000E+99

> <Gold.Chemscore.Hbond.Weighted>
-0.0000

> <Gold.Chemscore.Metal.Weighted>
-0.0000

> <Gold.Chemscore.Lipo.Weighted>
-12.9344

> <Gold.Chemscore.Internal_Hbond.Weighted>
0.0000

> <Gold.Chemscore.DEClash.Weighted>
0.0887

> <Gold.Chemscore.DEInternal.Weighted>
1.2421

> <Gold.Chemscore.Rot.Weighted>
4.1974

> <Gold.Chemscore.Internal.Correction.Weighted>
   9.000000E+99

> <Gold.Protein.RotatedTorsions>
[ 6907 6896 6895 6894 ] final  139.65 input  -60.11 | X-H torsion
[ 7974 7965 7964 7962 ] final   19.42 input  175.53 | X-H torsion
[ 8008 7997 7996 7995 ] final  113.47 input   59.86 | X-H torsion
[ 10167 10162 10161 10158 ] final  148.99 input  -65.29 | X-H torsion
[ 10718 10713 10712 10709 ] final    8.60 input   66.30 | X-H torsion
[ 10763 10752 10751 10750 ] final -137.51 input  -60.55 | X-H torsion
[ 11005 11000 10999 10996 ] final  -21.26 input  -57.11 | X-H torsion

> <Gold.Protein.ActiveResidues>
 VAL166  LYS551  ARG553  GLY616  TRP617  ASP618  TYR619  PRO620  LYS621  CYS622 
 ASP623  PHE694  ASN695  SER759  ASP760  ASP761  ALA762  ILE779  LEU786  VAL792 
 PHE793  MET794  SER795  GLU796  ALA797  LYS798  CYS799  TRP800  GLU811  SER814 

> <Gold.Protein.RotatedAtoms>
  152.2524  133.5226  159.5332 H   0  0  0  0  0  0  0  0  0  0  0  0  # atno 6907 bound_to 6896
  150.7098  134.0942  159.3951 H   0  0  0  0  0  0  0  0  0  0  0  0  # atno 6908 bound_to 6896
  151.8861  135.0434  160.0544 H   0  0  0  0  0  0  0  0  0  0  0  0  # atno 6909 bound_to 6896
  146.2150  139.8315  142.8659 H   0  0  0  0  0  0  0  0  0  0  0  0  # atno 7974 bound_to 7965
  156.2260  140.2979  156.0068 H   0  0  0  0  0  0  0  0  0  0  0  0  # atno 8008 bound_to 7997
  155.2356  140.0420  157.2985 H   0  0  0  0  0  0  0  0  0  0  0  0  # atno 8009 bound_to 7997
  154.5916  140.2403  155.7921 H   0  0  0  0  0  0  0  0  0  0  0  0  # atno 8010 bound_to 7997
  139.4867  144.5637  151.7185 H   0  0  0  0  0  0  0  0  0  0  0  0  # atno 10167 bound_to 10162
  156.9539  130.5907  149.5658 H   0  0  0  0  0  0  0  0  0  0  0  0  # atno 10718 bound_to 10713
  154.8660  135.3640  154.5235 H   0  0  0  0  0  0  0  0  0  0  0  0  # atno 10763 bound_to 10752
  153.5864  135.7017  153.5446 H   0  0  0  0  0  0  0  0  0  0  0  0  # atno 10764 bound_to 10752
  153.3412  135.4097  155.1535 H   0  0  0  0  0  0  0  0  0  0  0  0  # atno 10765 bound_to 10752
  140.8544  133.7833  156.0002 H   0  0  0  0  0  0  0  0  0  0  0  0  # atno 11005 bound_to 11000
  145.2992  141.0189  143.3618 LP  0  0  0  0  0  0  0  0  0  0  0  0  # atno 17320 bound_to 7965
  144.9019  139.4639  143.6628 LP  0  0  0  0  0  0  0  0  0  0  0  0  # atno 17321 bound_to 7965
  140.5211  144.0878  150.6023 LP  0  0  0  0  0  0  0  0  0  0  0  0  # atno 17342 bound_to 10162
  140.3836  143.2789  152.0142 LP  0  0  0  0  0  0  0  0  0  0  0  0  # atno 17343 bound_to 10162
  156.0351  130.5439  150.8632 LP  0  0  0  0  0  0  0  0  0  0  0  0  # atno 17370 bound_to 10713
  157.5703  131.0946  150.9428 LP  0  0  0  0  0  0  0  0  0  0  0  0  # atno 17371 bound_to 10713
  140.8754  134.2676  157.5170 LP  0  0  0  0  0  0  0  0  0  0  0  0  # atno 17394 bound_to 11000
  139.8705  134.9588  156.4313 LP  0  0  0  0  0  0  0  0  0  0  0  0  # atno 17395 bound_to 11000

$$$$
