AV-unprocessed.smi:114|AV-procd|sdf|1108|dock5
  -GOLD-   2262018223D 1   1.00000     0.00000
 Structure written by MMmdl.
 32 34  0  0  0  0  0  0  0  0  1 V2000
  148.1536  136.0494  159.7458 N   0  0  0  0  0  0  0  0  0  0  0  0
  148.8407  136.7615  158.8417 C   0  0  0  0  0  0  0  0  0  0  0  0
  150.1866  136.8350  158.9664 N   0  0  0  0  0  0  0  0  0  0  0  0
  150.9107  137.5339  158.0831 C   0  0  0  0  0  0  0  0  0  0  0  0
  152.2493  137.5517  158.2833 F   0  0  0  0  0  0  0  0  0  0  0  0
  150.4611  138.2175  157.0248 N   0  0  0  0  0  0  0  0  0  0  0  0
  149.1042  138.1476  156.8998 C   0  0  0  0  0  0  0  0  0  0  0  0
  148.2255  137.4398  157.7611 C   0  0  0  0  0  0  0  0  0  0  0  0
  146.9170  137.5818  157.3203 N   0  0  0  0  0  0  0  0  0  0  0  0
  147.0235  138.3302  156.2542 C   0  0  0  0  0  0  0  0  0  0  0  0
  148.3063  138.7326  155.9404 N   0  0  0  0  0  0  0  0  0  0  0  0
  148.7944  139.5682  154.7948 C   0  0  1  0  0  0  0  0  0  0  0  0
  148.3765  138.9814  153.6020 O   0  0  0  0  0  0  0  0  0  0  0  0
  147.1142  139.5207  153.2331 C   0  0  2  0  0  0  0  0  0  0  0  0
  146.8575  139.2743  151.7392 C   0  0  0  0  0  0  0  0  0  0  0  0
  147.0044  137.9016  151.4452 O   0  0  0  0  0  0  0  0  0  0  0  0
  147.2812  140.9999  153.5927 C   0  0  1  0  0  0  0  0  0  0  0  0
  146.0242  141.5798  153.8787 O   0  0  0  0  0  0  0  0  0  0  0  0
  148.1587  140.9711  154.8435 C   0  0  2  0  0  0  0  0  0  0  0  0
  149.1390  141.9867  154.7839 O   0  0  0  0  0  0  0  0  0  0  0  0
  149.8807  139.5511  154.8928 H   0  0  0  0  0  0  0  0  0  0  0  0
  146.3264  139.0768  153.8452 H   0  0  0  0  0  0  0  0  0  0  0  0
  147.7737  141.5344  152.7781 H   0  0  0  0  0  0  0  0  0  0  0  0
  147.5689  141.0863  155.7548 H   0  0  0  0  0  0  0  0  0  0  0  0
  147.1486  135.9801  159.6717 H   0  0  0  0  0  0  0  0  0  0  0  0
  148.6403  135.5855  160.4992 H   0  0  0  0  0  0  0  0  0  0  0  0
  146.1586  138.6070  155.6689 H   0  0  0  0  0  0  0  0  0  0  0  0
  145.8359  139.5562  151.4828 H   0  0  0  0  0  0  0  0  0  0  0  0
  147.5251  139.8708  151.1166 H   0  0  0  0  0  0  0  0  0  0  0  0
  147.5561  137.5101  152.1051 H   0  0  0  0  0  0  0  0  0  0  0  0
  145.3529  141.0506  153.4752 H   0  0  0  0  0  0  0  0  0  0  0  0
  148.7285  142.8102  155.0007 H   0  0  0  0  0  0  0  0  0  0  0  0
  1  2  1  0  0  0  0
  1 25  1  0  0  0  0
  1 26  1  0  0  0  0
  2  8  1  0  0  0  0
  2  3  2  0  0  0  0
  3  4  1  0  0  0  0
  4  5  1  0  0  0  0
  4  6  2  0  0  0  0
  6  7  1  0  0  0  0
  7 11  1  0  0  0  0
  7  8  2  0  0  0  0
  8  9  1  0  0  0  0
  9 10  2  0  0  0  0
 10 11  1  0  0  0  0
 10 27  1  0  0  0  0
 11 12  1  0  0  0  0
 12 21  1  0  0  0  0
 12 19  1  0  0  0  0
 12 13  1  0  0  0  0
 13 14  1  0  0  0  0
 14 22  1  0  0  0  0
 14 15  1  0  0  0  0
 14 17  1  0  0  0  0
 15 16  1  0  0  0  0
 15 28  1  0  0  0  0
 15 29  1  0  0  0  0
 16 30  1  0  0  0  0
 17 23  1  0  0  0  0
 17 18  1  0  0  0  0
 17 19  1  0  0  0  0
 18 31  1  0  0  0  0
 19 24  1  0  0  0  0
 19 20  1  0  0  0  0
 20 32  1  0  0  0  0
M  END
> <s_m_source_file>
AV-unprocessed.smi

> <i_m_source_file_index>
114

> <i_lp_mmshare_version>
43012

> <i_f3d_flags>
0

> <s_epik_input>
RmMobjEpbmMoW05IMl0pYyhjMTIpbltjSF1uMltDQEBIXTNPW0NASF0oW0NIMl1bT0hdKVtDQEBIXShbT0hdKVtDQEBIXTNbT0hd

> <s_epik_cmdline>
J2VwaWtfcHl0aG9uJywgJy1waCcsICc3LjAnLCAnLXRuJywgJzgnLCAnLW1hJywgJzIwMCcsICctbWV0YWxfYmluZGluZycsICctaW1hZScsICc8aW5maWxlLm1hZT4nLCAnLW9tYWUnLCAnPG91dGZpbGUubWFlPic=

> <r_lp_tautomer_probability>
1

> <r_epik_Ionization_Penalty>
1.13199e-05

> <r_epik_Ionization_Penalty_Charging>
0

> <r_epik_Ionization_Penalty_Neutral>
1.13199e-05

> <r_epik_State_Penalty>
-0

> <r_epik_Charging_Adjusted_Penalty>
0

> <i_epik_Tot_Q>
0

> <i_epik_Tot_abs_Q>
0

> <r_epik_Metal_State_Penalty>
-0

> <b_epik_Metal_Only>
0

> <s_epik_Chemistry_Notes>
This compound contains an acetal/aminal-like group ( X-CH(R)-Y where X, Y are N, S, or O) that may be acid/base labile, releasing an aldehyde.

> <s_lp_Force_Field>
OPLS_2005

> <r_lp_Energy>
32.1203

> <b_lp_Chiralities_Consistent>
1

> <s_lp_Variant>
AV-unprocessed.smi:114-2

> <Gold.Version>
5.8.1

> <Gold.Id.Protein>
6NUR|6NUR_protein|mol2

> <Gold.PLP.Fitness>
35.4387

> <Gold.PLP.PLP>
-22.1553

> <Gold.PLP.part.hbond>
-5.4858

> <Gold.PLP.part.metal>
0.0000

> <Gold.PLP.part.buried>
-4.0335

> <Gold.PLP.part.nonpolar>
-14.9614

> <Gold.PLP.part.repulsive>
1.7749

> <Gold.PLP.ligand.clash>
0.0000

> <Gold.PLP.ligand.torsion>
0.0644

> <Gold.PLP.Chemscore.Hbond>
4.4608

> <Gold.PLP.Chemscore.CHOScore>
0.0000

> <Gold.PLP.Chemscore.Metal>
0.0000

> <Gold.Chemscore.Hbonds>
donor molecule, donor type, donor heavy atom, donor atom, acceptor molecule, acceptor atom, score
      L1  H    16    30       P1  7948  0.53
      L1  H    18    31       P1 10175  1.00
      L1  H    20    32       P1  8028  1.00
      P1  H  6896  6909       L1     3  0.68
      P1  H  7954  7966       L1    16  1.00

> <Gold.PLP.Chemscore.Internal.Correction>
0.0299

> <Gold.Rescore>
     Score         DG    S(hbond)    S(metal)    S(lipo)     H(rot)  DE(clash)    DE(int)     intcor
      8.18      -9.21       3.20        0.00      28.51       4.03       0.94       0.09       ----

> <Gold.Chemscore.Fitness>
8.1837

> <Gold.Chemscore.DG>
-9.2091

> <Gold.Chemscore.ZeroCoef>
-5.4800

> <Gold.Chemscore.Hbond>
3.2050

> <Gold.Chemscore.Metal>
0.0000

> <Gold.Chemscore.Lipo>
28.5079

> <Gold.Chemscore.Internal_Hbond>
0.0000

> <Gold.Chemscore.DEClash>
0.9384

> <Gold.Chemscore.DEInternal>
0.0870

> <Gold.Chemscore.Rot>
4.0277

> <Gold.Chemscore.Internal.Correction>
   9.000000E+99

> <Gold.Chemscore.Hbonds>
donor molecule, donor type, donor heavy atom, donor atom, acceptor molecule, acceptor atom, score
      L1  H    16    30       P1  7948  0.54
      L1  H    18    31       P1 10175  0.52
      L1  H    20    32       P1  8028  0.90
      P1  H  6896  6909       L1     3  0.51
      P1  H  7954  7966       L1    16  0.13

> <Gold.Chemscore.Hbond.Weighted>
-10.7047

> <Gold.Chemscore.Metal.Weighted>
-0.0000

> <Gold.Chemscore.Lipo.Weighted>
-3.3354

> <Gold.Chemscore.Internal_Hbond.Weighted>
0.0000

> <Gold.Chemscore.DEClash.Weighted>
0.9384

> <Gold.Chemscore.DEInternal.Weighted>
0.0870

> <Gold.Chemscore.Rot.Weighted>
10.3110

> <Gold.Chemscore.Internal.Correction.Weighted>
   9.000000E+99

> <Gold.Protein.RotatedTorsions>
[ 6907 6896 6895 6894 ] final   81.78 input  -60.11 | X-H torsion
[ 7974 7965 7964 7962 ] final   34.77 input  175.53 | X-H torsion
[ 8008 7997 7996 7995 ] final -131.41 input   59.86 | X-H torsion
[ 10167 10162 10161 10158 ] final  -47.22 input  -65.29 | X-H torsion
[ 10718 10713 10712 10709 ] final  -57.38 input   66.30 | X-H torsion
[ 10763 10752 10751 10750 ] final -122.63 input  -60.55 | X-H torsion
[ 11005 11000 10999 10996 ] final    6.82 input  -57.11 | X-H torsion

> <Gold.Protein.ActiveResidues>
 VAL166  LYS551  ARG553  GLY616  TRP617  ASP618  TYR619  PRO620  LYS621  CYS622 
 ASP623  PHE694  ASN695  SER759  ASP760  ASP761  ALA762  ILE779  LEU786  VAL792 
 PHE793  MET794  SER795  GLU796  ALA797  LYS798  CYS799  TRP800  GLU811  SER814 

> <Gold.Protein.RotatedAtoms>
  152.5279  134.3151  159.9127 H   0  0  0  0  0  0  0  0  0  0  0  0  # atno 6907 bound_to 6896
  151.3101  133.4078  159.2654 H   0  0  0  0  0  0  0  0  0  0  0  0  # atno 6908 bound_to 6896
  151.0046  134.9366  159.8030 H   0  0  0  0  0  0  0  0  0  0  0  0  # atno 6909 bound_to 6896
  146.1329  139.6226  142.9214 H   0  0  0  0  0  0  0  0  0  0  0  0  # atno 7974 bound_to 7965
  155.3119  140.0458  157.3035 H   0  0  0  0  0  0  0  0  0  0  0  0  # atno 8008 bound_to 7997
  154.5428  140.2293  155.8579 H   0  0  0  0  0  0  0  0  0  0  0  0  # atno 8009 bound_to 7997
  156.1896  140.3054  155.9313 H   0  0  0  0  0  0  0  0  0  0  0  0  # atno 8010 bound_to 7997
  140.6784  143.2794  151.3895 H   0  0  0  0  0  0  0  0  0  0  0  0  # atno 10167 bound_to 10162
  156.1215  130.4166  150.0432 H   0  0  0  0  0  0  0  0  0  0  0  0  # atno 10718 bound_to 10713
  154.8693  135.4126  154.2813 H   0  0  0  0  0  0  0  0  0  0  0  0  # atno 10763 bound_to 10752
  153.3705  135.7007  153.6647 H   0  0  0  0  0  0  0  0  0  0  0  0  # atno 10764 bound_to 10752
  153.5511  135.3628  155.2732 H   0  0  0  0  0  0  0  0  0  0  0  0  # atno 10765 bound_to 10752
  140.5552  134.0245  155.7951 H   0  0  0  0  0  0  0  0  0  0  0  0  # atno 11005 bound_to 11000
  145.5220  141.0431  143.2430 LP  0  0  0  0  0  0  0  0  0  0  0  0  # atno 17320 bound_to 7965
  144.7710  139.6736  143.7195 LP  0  0  0  0  0  0  0  0  0  0  0  0  # atno 17321 bound_to 7965
  139.6091  144.1135  152.2280 LP  0  0  0  0  0  0  0  0  0  0  0  0  # atno 17342 bound_to 10162
  140.0544  144.5907  150.7311 LP  0  0  0  0  0  0  0  0  0  0  0  0  # atno 17343 bound_to 10162
  156.8369  130.9412  151.3634 LP  0  0  0  0  0  0  0  0  0  0  0  0  # atno 17370 bound_to 10713
  157.6398  130.8797  149.9428 LP  0  0  0  0  0  0  0  0  0  0  0  0  # atno 17371 bound_to 10713
  141.1148  133.9558  157.2843 LP  0  0  0  0  0  0  0  0  0  0  0  0  # atno 17394 bound_to 11000
  139.9435  135.0187  156.8782 LP  0  0  0  0  0  0  0  0  0  0  0  0  # atno 17395 bound_to 11000

$$$$
