AV-unprocessed.smi:713|AV-procd|sdf|3478|dock7
  -GOLD-   22720 0473D 1   1.00000     0.00000
 Structure written by MMmdl.
 41 42  0  0  0  0  0  0  0  0  1 V2000
  145.3395  130.6576  151.5351 C   0  0  0  0  0  0  0  0  0  0  0  0
  146.2668  131.8891  151.4916 C   0  0  2  0  0  0  0  0  0  0  0  0
  147.1345  132.0095  152.7536 C   0  0  0  0  0  0  0  0  0  0  0  0
  146.6207  132.2514  153.8465 O   0  0  0  0  0  0  0  0  0  0  0  0
  148.4558  131.8393  152.5860 N   0  0  0  0  0  0  0  0  0  0  0  0
  149.4591  131.9209  153.6431 C   0  0  2  0  0  0  0  0  0  0  0  0
  149.1966  130.8195  154.6865 C   0  0  0  0  0  0  0  0  0  0  0  0
  150.1951  130.9008  155.8515 C   0  0  0  0  0  0  0  0  0  0  0  0
  150.1775  132.2913  156.5044 C   0  0  0  0  0  0  0  0  0  0  0  0
  150.4507  133.3992  155.4712 C   0  0  2  0  0  0  0  0  0  0  0  0
  150.3841  135.0554  156.2937 S   0  0  0  0  0  0  0  0  0  0  0  0
  149.0459  135.9159  155.3667 C   0  0  0  0  0  0  0  0  0  0  0  0
  149.9286  134.8730  157.6805 O   0  0  0  0  0  0  0  0  0  0  0  0
  151.6525  135.7526  156.0323 O   0  0  0  0  0  0  0  0  0  0  0  0
  149.4468  133.3150  154.3045 C   0  0  0  0  0  0  0  0  0  0  0  0
  145.5360  133.1309  151.2636 N   0  0  0  0  0  0  0  0  0  0  0  0
  146.0371  134.4169  151.2455 C   0  0  0  0  0  0  0  0  0  0  0  0
  144.9871  135.2653  151.0403 C   0  0  0  0  0  0  0  0  0  0  0  0
  143.8633  134.3976  150.9580 C   0  0  0  0  0  0  0  0  0  0  0  0
  144.1919  133.1246  151.1013 N   0  0  0  0  0  0  0  0  0  0  0  0
  145.9151  129.7377  151.6436 H   0  0  0  0  0  0  0  0  0  0  0  0
  144.7624  130.5743  150.6138 H   0  0  0  0  0  0  0  0  0  0  0  0
  144.6320  130.7022  152.3642 H   0  0  0  0  0  0  0  0  0  0  0  0
  146.9361  131.7536  150.6402 H   0  0  0  0  0  0  0  0  0  0  0  0
  148.7924  131.6433  151.6545 H   0  0  0  0  0  0  0  0  0  0  0  0
  150.4438  131.7462  153.2048 H   0  0  0  0  0  0  0  0  0  0  0  0
  148.1815  130.9122  155.0758 H   0  0  0  0  0  0  0  0  0  0  0  0
  149.2592  129.8365  154.2177 H   0  0  0  0  0  0  0  0  0  0  0  0
  149.9611  130.1387  156.5954 H   0  0  0  0  0  0  0  0  0  0  0  0
  151.1996  130.6798  155.4886 H   0  0  0  0  0  0  0  0  0  0  0  0
  149.2091  132.4603  156.9771 H   0  0  0  0  0  0  0  0  0  0  0  0
  150.9208  132.3306  157.3011 H   0  0  0  0  0  0  0  0  0  0  0  0
  151.4631  133.2779  155.0842 H   0  0  0  0  0  0  0  0  0  0  0  0
  148.9795  136.9482  155.7091 H   0  0  0  0  0  0  0  0  0  0  0  0
  148.0910  135.4226  155.5435 H   0  0  0  0  0  0  0  0  0  0  0  0
  149.2727  135.9045  154.3007 H   0  0  0  0  0  0  0  0  0  0  0  0
  149.6799  134.0749  153.5597 H   0  0  0  0  0  0  0  0  0  0  0  0
  148.4424  133.5365  154.6678 H   0  0  0  0  0  0  0  0  0  0  0  0
  147.0895  134.6199  151.3787 H   0  0  0  0  0  0  0  0  0  0  0  0
  145.0163  136.3421  150.9659 H   0  0  0  0  0  0  0  0  0  0  0  0
  142.8250  134.6529  150.8045 H   0  0  0  0  0  0  0  0  0  0  0  0
  1  2  1  0  0  0  0
  1 21  1  0  0  0  0
  1 22  1  0  0  0  0
  1 23  1  0  0  0  0
  2  3  1  0  0  0  0
  2 16  1  0  0  0  0
  2 24  1  0  0  0  0
  3  4  2  0  0  0  0
  3  5  1  0  0  0  0
  5  6  1  0  0  0  0
  5 25  1  0  0  0  0
  6 15  1  0  0  0  0
  6  7  1  0  0  0  0
  6 26  1  0  0  0  0
  7  8  1  0  0  0  0
  7 27  1  0  0  0  0
  7 28  1  0  0  0  0
  8  9  1  0  0  0  0
  8 29  1  0  0  0  0
  8 30  1  0  0  0  0
  9 10  1  0  0  0  0
  9 31  1  0  0  0  0
  9 32  1  0  0  0  0
 10 11  1  0  0  0  0
 10 15  1  0  0  0  0
 10 33  1  0  0  0  0
 11 12  1  0  0  0  0
 11 13  2  0  0  0  0
 11 14  2  0  0  0  0
 12 34  1  0  0  0  0
 12 35  1  0  0  0  0
 12 36  1  0  0  0  0
 15 37  1  0  0  0  0
 15 38  1  0  0  0  0
 16 20  1  0  0  0  0
 16 17  1  0  0  0  0
 17 18  2  0  0  0  0
 17 39  1  0  0  0  0
 18 19  1  0  0  0  0
 18 40  1  0  0  0  0
 19 20  2  0  0  0  0
 19 41  1  0  0  0  0
M  END
> <s_m_source_file>
AV-unprocessed.smi

> <i_m_source_file_index>
713

> <i_lp_mmshare_version>
43012

> <i_f3d_flags>
0

> <s_epik_input>
bjFbY0hdW2NIXVtjSF1uMVtDQEhdKFtDSDNdKUMoPU8pW05IXVtDQEBIXTJbQ0gyXVtDSDJdW0NIMl1bQ0BIXShbQ0gyXTIpUyg9TykoPU8pW0NIM10=

> <s_epik_cmdline>
J2VwaWtfcHl0aG9uJywgJy1waCcsICc3LjAnLCAnLXRuJywgJzgnLCAnLW1hJywgJzIwMCcsICctbWV0YWxfYmluZGluZycsICctaW1hZScsICc8aW5maWxlLm1hZT4nLCAnLW9tYWUnLCAnPG91dGZpbGUubWFlPic=

> <r_lp_tautomer_probability>
1

> <r_epik_Ionization_Penalty>
4.07816e-05

> <r_epik_Ionization_Penalty_Charging>
0

> <r_epik_Ionization_Penalty_Neutral>
4.07816e-05

> <r_epik_State_Penalty>
-0

> <r_epik_Charging_Adjusted_Penalty>
0

> <i_epik_Tot_Q>
0

> <i_epik_Tot_abs_Q>
0

> <r_epik_Metal_State_Penalty>
-0

> <b_epik_Metal_Only>
0

> <s_lp_Force_Field>
OPLS_2005

> <r_lp_Energy>
7.47495

> <b_lp_Chiralities_Consistent>
1

> <s_lp_Variant>
AV-unprocessed.smi:713-5

> <Gold.Version>
5.8.1

> <Gold.Id.Protein>
6NUR|6NUR_protein|mol2

> <Gold.PLP.Fitness>
46.5602

> <Gold.PLP.PLP>
-32.2168

> <Gold.PLP.part.hbond>
-3.0000

> <Gold.PLP.part.metal>
0.0000

> <Gold.PLP.part.buried>
-4.5782

> <Gold.PLP.part.nonpolar>
-25.6244

> <Gold.PLP.part.repulsive>
0.2754

> <Gold.PLP.ligand.clash>
0.0000

> <Gold.PLP.ligand.torsion>
0.2005

> <Gold.PLP.Chemscore.Hbond>
2.8960

> <Gold.PLP.Chemscore.CHOScore>
1.9401

> <Gold.PLP.Chemscore.Metal>
0.0000

> <Gold.Chemscore.Hbonds>
donor molecule, donor type, donor heavy atom, donor atom, acceptor molecule, acceptor atom, score
      L1  H     5    25       P1 10747  1.00
      P1  H  6896  6908       L1    13  0.88
      P1  H 10752 10763       L1    14  1.00
      L1  C    17    39       P1  7948  1.00
      L1  C    19    41       P1 10186  0.87

> <Gold.PLP.Chemscore.Internal.Correction>
0.2361

> <Gold.Rescore>
     Score         DG    S(hbond)    S(metal)    S(lipo)     H(rot)  DE(clash)    DE(int)     intcor
     17.49     -18.67       2.90        0.00      67.70       1.72       0.03       1.15       ----

> <Gold.Chemscore.Fitness>
17.4935

> <Gold.Chemscore.DG>
-18.6693

> <Gold.Chemscore.ZeroCoef>
-5.4800

> <Gold.Chemscore.Hbond>
2.8993

> <Gold.Chemscore.Metal>
0.0000

> <Gold.Chemscore.Lipo>
67.7030

> <Gold.Chemscore.Internal_Hbond>
0.0000

> <Gold.Chemscore.DEClash>
0.0301

> <Gold.Chemscore.DEInternal>
1.1456

> <Gold.Chemscore.Rot>
1.7249

> <Gold.Chemscore.Internal.Correction>
   9.000000E+99

> <Gold.Chemscore.Hbonds>
donor molecule, donor type, donor heavy atom, donor atom, acceptor molecule, acceptor atom, score
      L1  H     5    25       P1 10747  0.94
      P1  H  6896  6908       L1    13  0.85
      P1  H 10752 10763       L1    14  0.99

> <Gold.Chemscore.Hbond.Weighted>
-9.6838

> <Gold.Chemscore.Metal.Weighted>
-0.0000

> <Gold.Chemscore.Lipo.Weighted>
-7.9213

> <Gold.Chemscore.Internal_Hbond.Weighted>
0.0000

> <Gold.Chemscore.DEClash.Weighted>
0.0301

> <Gold.Chemscore.DEInternal.Weighted>
1.1456

> <Gold.Chemscore.Rot.Weighted>
4.4157

> <Gold.Chemscore.Internal.Correction.Weighted>
   9.000000E+99

> <Gold.Protein.RotatedTorsions>
[ 6907 6896 6895 6894 ] final  150.15 input  -60.11 | X-H torsion
[ 7974 7965 7964 7962 ] final  -32.45 input  175.53 | X-H torsion
[ 8008 7997 7996 7995 ] final  -59.81 input   59.86 | X-H torsion
[ 10167 10162 10161 10158 ] final   64.35 input  -65.29 | X-H torsion
[ 10718 10713 10712 10709 ] final   37.79 input   66.30 | X-H torsion
[ 10763 10752 10751 10750 ] final   97.07 input  -60.55 | X-H torsion
[ 11005 11000 10999 10996 ] final  -81.74 input  -57.11 | X-H torsion

> <Gold.Protein.ActiveResidues>
 VAL166  LYS551  ARG553  GLY616  TRP617  ASP618  TYR619  PRO620  LYS621  CYS622 
 ASP623  PHE694  ASN695  SER759  ASP760  ASP761  ALA762  ILE779  LEU786  VAL792 
 PHE793  MET794  SER795  GLU796  ALA797  LYS798  CYS799  TRP800  GLU811  SER814 

> <Gold.Protein.RotatedAtoms>
  152.1183  133.4339  159.4663 H   0  0  0  0  0  0  0  0  0  0  0  0  # atno 6907 bound_to 6896
  150.6870  134.2565  159.4541 H   0  0  0  0  0  0  0  0  0  0  0  0  # atno 6908 bound_to 6896
  152.0440  134.9694  160.0625 H   0  0  0  0  0  0  0  0  0  0  0  0  # atno 6909 bound_to 6896
  146.0989  140.5793  142.8830 H   0  0  0  0  0  0  0  0  0  0  0  0  # atno 7974 bound_to 7965
  154.4369  140.1053  156.6175 H   0  0  0  0  0  0  0  0  0  0  0  0  # atno 8008 bound_to 7997
  155.5743  140.3489  155.4505 H   0  0  0  0  0  0  0  0  0  0  0  0  # atno 8009 bound_to 7997
  156.0366  140.1272  157.0190 H   0  0  0  0  0  0  0  0  0  0  0  0  # atno 8010 bound_to 7997
  140.1231  144.4712  150.6908 H   0  0  0  0  0  0  0  0  0  0  0  0  # atno 10167 bound_to 10162
  157.3512  130.7599  149.6980 H   0  0  0  0  0  0  0  0  0  0  0  0  # atno 10718 bound_to 10713
  153.2725  135.4196  155.1001 H   0  0  0  0  0  0  0  0  0  0  0  0  # atno 10763 bound_to 10752
  154.8461  135.3475  154.6225 H   0  0  0  0  0  0  0  0  0  0  0  0  # atno 10764 bound_to 10752
  153.6645  135.7046  153.5224 H   0  0  0  0  0  0  0  0  0  0  0  0  # atno 10765 bound_to 10752
  141.1665  133.7211  156.8467 H   0  0  0  0  0  0  0  0  0  0  0  0  # atno 11005 bound_to 11000
  144.7417  140.4960  143.6864 LP  0  0  0  0  0  0  0  0  0  0  0  0  # atno 17320 bound_to 7965
  145.5893  139.1494  143.3191 LP  0  0  0  0  0  0  0  0  0  0  0  0  # atno 17321 bound_to 7965
  140.6860  143.2350  151.5258 LP  0  0  0  0  0  0  0  0  0  0  0  0  # atno 17342 bound_to 10162
  139.5558  144.2279  152.1609 LP  0  0  0  0  0  0  0  0  0  0  0  0  # atno 17343 bound_to 10162
  155.9722  130.4140  150.4110 LP  0  0  0  0  0  0  0  0  0  0  0  0  # atno 17370 bound_to 10713
  157.2173  131.0474  151.2566 LP  0  0  0  0  0  0  0  0  0  0  0  0  # atno 17371 bound_to 10713
  140.1944  134.8942  157.3098 LP  0  0  0  0  0  0  0  0  0  0  0  0  # atno 17394 bound_to 11000
  140.2254  134.3972  155.7546 LP  0  0  0  0  0  0  0  0  0  0  0  0  # atno 17395 bound_to 11000

$$$$
