AV-unprocessed.smi:3113|AV-procd|sdf|11854|dock9
  -GOLD-   2272017233D 1   1.00000     0.00000
 Structure written by MMmdl.
 34 35  0  0  0  0  0  0  0  0  1 V2000
  147.2277  141.7506  154.0508 C   0  0  0  0  0  0  0  0  0  0  0  0
  146.9760  140.4754  153.4716 C   0  0  0  0  0  0  0  0  0  0  0  0
  147.9638  139.6187  153.6749 N   0  0  0  0  0  0  0  0  0  0  0  0
  148.8757  140.3162  154.3866 N   0  0  0  0  0  0  0  0  0  0  0  0
  150.1146  139.6800  154.7897 C   0  0  0  0  0  0  0  0  0  0  0  0
  150.2288  139.5882  156.3177 C   0  0  0  0  0  0  0  0  0  0  0  0
  151.0773  140.6507  156.8456 N   0  0  0  0  0  0  0  0  0  0  0  0
  150.3324  141.8465  157.2256 C   0  0  0  0  0  0  0  0  0  0  0  0
  151.2717  142.9405  157.7533 C   0  0  2  0  0  0  0  0  0  0  0  0
  152.1647  142.4187  158.8957 C   0  0  0  0  0  0  0  0  0  0  0  0
  153.0274  143.5502  159.4661 C   0  0  0  0  0  0  0  0  0  0  0  0
  152.1348  144.7316  159.8606 C   0  0  0  0  0  0  0  0  0  0  0  0
  151.2319  145.1348  158.6840 C   0  0  0  0  0  0  0  0  0  0  0  0
  150.4707  144.0118  158.2497 O   0  0  0  0  0  0  0  0  0  0  0  0
  148.4563  141.6070  154.6297 C   0  0  0  0  0  0  0  0  0  0  0  0
  146.6036  142.6319  154.0422 H   0  0  0  0  0  0  0  0  0  0  0  0
  146.1110  140.1495  152.9131 H   0  0  0  0  0  0  0  0  0  0  0  0
  150.1536  138.6848  154.3448 H   0  0  0  0  0  0  0  0  0  0  0  0
  150.9493  140.2468  154.3741 H   0  0  0  0  0  0  0  0  0  0  0  0
  149.2344  139.6528  156.7616 H   0  0  0  0  0  0  0  0  0  0  0  0
  150.6346  138.6151  156.5970 H   0  0  0  0  0  0  0  0  0  0  0  0
  151.7842  140.8970  156.1599 H   0  0  0  0  0  0  0  0  0  0  0  0
  149.7591  142.2276  156.3795 H   0  0  0  0  0  0  0  0  0  0  0  0
  149.6096  141.5861  157.9998 H   0  0  0  0  0  0  0  0  0  0  0  0
  151.9042  143.2989  156.9386 H   0  0  0  0  0  0  0  0  0  0  0  0
  151.5425  141.9993  159.6876 H   0  0  0  0  0  0  0  0  0  0  0  0
  152.8031  141.6100  158.5382 H   0  0  0  0  0  0  0  0  0  0  0  0
  153.5973  143.1985  160.3263 H   0  0  0  0  0  0  0  0  0  0  0  0
  153.7532  143.8712  158.7179 H   0  0  0  0  0  0  0  0  0  0  0  0
  151.5163  144.4543  160.7150 H   0  0  0  0  0  0  0  0  0  0  0  0
  152.7457  145.5775  160.1766 H   0  0  0  0  0  0  0  0  0  0  0  0
  150.5479  145.9261  158.9909 H   0  0  0  0  0  0  0  0  0  0  0  0
  151.8231  145.5288  157.8560 H   0  0  0  0  0  0  0  0  0  0  0  0
  149.0606  142.3082  155.1863 H   0  0  0  0  0  0  0  0  0  0  0  0
  1 15  2  0  0  0  0
  1  2  1  0  0  0  0
  1 16  1  0  0  0  0
  2  3  2  0  0  0  0
  2 17  1  0  0  0  0
  3  4  1  0  0  0  0
  4  5  1  0  0  0  0
  4 15  1  0  0  0  0
  5  6  1  0  0  0  0
  5 18  1  0  0  0  0
  5 19  1  0  0  0  0
  6  7  1  0  0  0  0
  6 20  1  0  0  0  0
  6 21  1  0  0  0  0
  7  8  1  0  0  0  0
  7 22  1  0  0  0  0
  8  9  1  0  0  0  0
  8 23  1  0  0  0  0
  8 24  1  0  0  0  0
  9 14  1  0  0  0  0
  9 10  1  0  0  0  0
  9 25  1  0  0  0  0
 10 11  1  0  0  0  0
 10 26  1  0  0  0  0
 10 27  1  0  0  0  0
 11 12  1  0  0  0  0
 11 28  1  0  0  0  0
 11 29  1  0  0  0  0
 12 13  1  0  0  0  0
 12 30  1  0  0  0  0
 12 31  1  0  0  0  0
 13 14  1  0  0  0  0
 13 32  1  0  0  0  0
 13 33  1  0  0  0  0
 15 34  1  0  0  0  0
M  END
> <s_m_source_file>
AV-unprocessed.smi

> <i_m_source_file_index>
3113

> <i_lp_mmshare_version>
43012

> <i_f3d_flags>
0

> <s_epik_input>
W2NIXTFbY0hdW2NIXW5uMVtDSDJdW0NIMl1bTkhdW0NIMl1bQ0BASF0yW0NIMl1bQ0gyXVtDSDJdW0NIMl1PMg==

> <s_epik_cmdline>
J2VwaWtfcHl0aG9uJywgJy1waCcsICc3LjAnLCAnLXRuJywgJzgnLCAnLW1hJywgJzIwMCcsICctbWV0YWxfYmluZGluZycsICctaW1hZScsICc8aW5maWxlLm1hZT4nLCAnLW9tYWUnLCAnPG91dGZpbGUubWFlPic=

> <r_lp_tautomer_probability>
1

> <r_epik_Ionization_Penalty>
2.521

> <r_epik_Ionization_Penalty_Charging>
0

> <r_epik_Ionization_Penalty_Neutral>
2.521

> <r_epik_State_Penalty>
2.68614

> <r_epik_Charging_Adjusted_Penalty>
2.68614

> <i_epik_Tot_Q>
0

> <i_epik_Tot_abs_Q>
0

> <r_epik_Metal_State_Penalty>
2.68493

> <b_epik_Metal_Only>
0

> <s_lp_Force_Field>
OPLS_2005

> <r_lp_Energy>
11.6104

> <b_lp_Chiralities_Consistent>
1

> <s_lp_Variant>
AV-unprocessed.smi:3113-3

> <Gold.Version>
5.8.1

> <Gold.Id.Protein>
6NUR|6NUR_protein|mol2

> <Gold.PLP.Fitness>
38.8075

> <Gold.PLP.PLP>
-33.8243

> <Gold.PLP.part.hbond>
0.0000

> <Gold.PLP.part.metal>
0.0000

> <Gold.PLP.part.buried>
-4.7625

> <Gold.PLP.part.nonpolar>
-30.9883

> <Gold.PLP.part.repulsive>
1.3429

> <Gold.PLP.ligand.clash>
0.0000

> <Gold.PLP.ligand.torsion>
0.5198

> <Gold.PLP.Chemscore.Hbond>
0.0000

> <Gold.PLP.Chemscore.CHOScore>
1.9994

> <Gold.PLP.Chemscore.Metal>
0.0000

> <Gold.Chemscore.Hbonds>
donor molecule, donor type, donor heavy atom, donor atom, acceptor molecule, acceptor atom, score
      L1  C     2    17       P1 10175  1.00
      L1  C    15    34       P1  8028  1.00

> <Gold.PLP.Chemscore.Internal.Correction>
0.0246

> <Gold.Rescore>
     Score         DG    S(hbond)    S(metal)    S(lipo)     H(rot)  DE(clash)    DE(int)     intcor
     12.10     -12.80       0.00        0.00      98.01       1.62       0.11       0.59       ----

> <Gold.Chemscore.Fitness>
12.0968

> <Gold.Chemscore.DG>
-12.7971

> <Gold.Chemscore.ZeroCoef>
-5.4800

> <Gold.Chemscore.Hbond>
0.0000

> <Gold.Chemscore.Metal>
0.0000

> <Gold.Chemscore.Lipo>
98.0139

> <Gold.Chemscore.Internal_Hbond>
0.0000

> <Gold.Chemscore.DEClash>
0.1125

> <Gold.Chemscore.DEInternal>
0.5878

> <Gold.Chemscore.Rot>
1.6213

> <Gold.Chemscore.Internal.Correction>
   9.000000E+99

> <Gold.Chemscore.Hbond.Weighted>
-0.0000

> <Gold.Chemscore.Metal.Weighted>
-0.0000

> <Gold.Chemscore.Lipo.Weighted>
-11.4676

> <Gold.Chemscore.Internal_Hbond.Weighted>
0.0000

> <Gold.Chemscore.DEClash.Weighted>
0.1125

> <Gold.Chemscore.DEInternal.Weighted>
0.5878

> <Gold.Chemscore.Rot.Weighted>
4.1505

> <Gold.Chemscore.Internal.Correction.Weighted>
   9.000000E+99

> <Gold.Protein.RotatedTorsions>
[ 6907 6896 6895 6894 ] final   75.90 input  -60.11 | X-H torsion
[ 7974 7965 7964 7962 ] final   78.38 input  175.53 | X-H torsion
[ 8008 7997 7996 7995 ] final -176.36 input   59.86 | X-H torsion
[ 10167 10162 10161 10158 ] final -153.73 input  -65.29 | X-H torsion
[ 10718 10713 10712 10709 ] final  -42.76 input   66.30 | X-H torsion
[ 10763 10752 10751 10750 ] final   36.80 input  -60.55 | X-H torsion
[ 11005 11000 10999 10996 ] final  -87.80 input  -57.11 | X-H torsion

> <Gold.Protein.ActiveResidues>
 VAL166  LYS551  ARG553  GLY616  TRP617  ASP618  TYR619  PRO620  LYS621  CYS622 
 ASP623  PHE694  ASN695  SER759  ASP760  ASP761  ALA762  ILE779  LEU786  VAL792 
 PHE793  MET794  SER795  GLU796  ALA797  LYS798  CYS799  TRP800  GLU811  SER814 

> <Gold.Protein.RotatedAtoms>
  152.5048  134.4051  159.9429 H   0  0  0  0  0  0  0  0  0  0  0  0  # atno 6907 bound_to 6896
  151.4016  133.3749  159.2740 H   0  0  0  0  0  0  0  0  0  0  0  0  # atno 6908 bound_to 6896
  150.9357  134.8791  159.7639 H   0  0  0  0  0  0  0  0  0  0  0  0  # atno 6909 bound_to 6896
  145.6779  139.2515  143.1831 H   0  0  0  0  0  0  0  0  0  0  0  0  # atno 7974 bound_to 7965
  155.9939  140.1206  157.0612 H   0  0  0  0  0  0  0  0  0  0  0  0  # atno 8008 bound_to 7997
  154.4220  140.1120  156.5672 H   0  0  0  0  0  0  0  0  0  0  0  0  # atno 8009 bound_to 7997
  155.6305  140.3473  155.4683 H   0  0  0  0  0  0  0  0  0  0  0  0  # atno 8010 bound_to 7997
  139.7072  143.9167  152.2453 H   0  0  0  0  0  0  0  0  0  0  0  0  # atno 10167 bound_to 10162
  156.2561  130.4192  149.8594 H   0  0  0  0  0  0  0  0  0  0  0  0  # atno 10718 bound_to 10713
  153.0062  135.6296  154.2042 H   0  0  0  0  0  0  0  0  0  0  0  0  # atno 10763 bound_to 10752
  154.1786  135.2814  155.3061 H   0  0  0  0  0  0  0  0  0  0  0  0  # atno 10764 bound_to 10752
  154.5853  135.5635  153.7284 H   0  0  0  0  0  0  0  0  0  0  0  0  # atno 10765 bound_to 10752
  141.1611  133.7532  156.9359 H   0  0  0  0  0  0  0  0  0  0  0  0  # atno 11005 bound_to 11000
  146.0990  140.7567  142.9558 LP  0  0  0  0  0  0  0  0  0  0  0  0  # atno 17320 bound_to 7965
  144.7035  140.3757  143.7136 LP  0  0  0  0  0  0  0  0  0  0  0  0  # atno 17321 bound_to 7965
  139.9026  144.6903  150.8649 LP  0  0  0  0  0  0  0  0  0  0  0  0  # atno 17342 bound_to 10162
  140.7724  143.3502  151.2029 LP  0  0  0  0  0  0  0  0  0  0  0  0  # atno 17343 bound_to 10162
  156.6126  130.8593  151.3457 LP  0  0  0  0  0  0  0  0  0  0  0  0  # atno 17370 bound_to 10713
  157.7233  130.9588  150.1529 LP  0  0  0  0  0  0  0  0  0  0  0  0  # atno 17371 bound_to 10713
  140.1355  134.9328  157.2395 LP  0  0  0  0  0  0  0  0  0  0  0  0  # atno 17394 bound_to 11000
  140.2901  134.3250  155.7318 LP  0  0  0  0  0  0  0  0  0  0  0  0  # atno 17395 bound_to 11000

$$$$
