AV-unprocessed.smi:3185|AV-procd|sdf|12169|dock8
  -GOLD-   2272018 03D 1   1.00000     0.00000
 Structure written by MMmdl.
 37 38  0  0  0  0  0  0  0  0  1 V2000
  150.7459  139.5392  154.6930 N   0  0  0  0  0  0  0  0  0  0  0  0
  150.9287  140.0338  155.7227 C   0  0  0  0  0  0  0  0  0  0  0  0
  151.1609  140.6620  157.0317 C   0  0  0  0  0  0  0  0  0  0  0  0
  151.3932  139.6338  158.1471 C   0  0  0  0  0  0  0  0  0  0  0  0
  151.9565  140.2678  159.4251 C   0  0  0  0  0  0  0  0  0  0  0  0
  153.3001  140.7643  159.1709 N   0  0  0  0  0  0  0  0  0  0  0  0
  153.8915  141.4057  160.3412 C   0  0  2  0  0  0  0  0  0  0  0  0
  154.3296  140.3306  161.3607 C   0  0  0  0  0  0  0  0  0  0  0  0
  154.8449  140.9611  162.6633 C   0  0  0  0  0  0  0  0  0  0  0  0
  153.7953  141.8959  163.2805 C   0  0  0  0  0  0  0  0  0  0  0  0
  153.3738  142.9824  162.2811 C   0  0  0  0  0  0  0  0  0  0  0  0
  152.8481  142.3686  160.9660 C   0  0  1  0  0  0  0  0  0  0  0  0
  152.4421  143.4137  160.0323 N   0  0  0  0  0  0  0  0  0  0  0  0
  151.5222  144.4223  160.2329 C   0  0  0  0  0  0  0  0  0  0  0  0
  151.4564  145.1521  159.0809 C   0  0  0  0  0  0  0  0  0  0  0  0
  152.3855  144.5066  158.2187 C   0  0  0  0  0  0  0  0  0  0  0  0
  152.9734  143.4680  158.7893 N   0  0  0  0  0  0  0  0  0  0  0  0
  152.0223  141.3234  156.9374 H   0  0  0  0  0  0  0  0  0  0  0  0
  150.2965  141.2872  157.2565 H   0  0  0  0  0  0  0  0  0  0  0  0
  150.4667  139.1014  158.3662 H   0  0  0  0  0  0  0  0  0  0  0  0
  152.0975  138.8827  157.7880 H   0  0  0  0  0  0  0  0  0  0  0  0
  151.3153  141.0905  159.7413 H   0  0  0  0  0  0  0  0  0  0  0  0
  151.9683  139.5328  160.2309 H   0  0  0  0  0  0  0  0  0  0  0  0
  153.3067  141.3940  158.3814 H   0  0  0  0  0  0  0  0  0  0  0  0
  154.7612  141.9899  160.0360 H   0  0  0  0  0  0  0  0  0  0  0  0
  153.4902  139.6723  161.5897 H   0  0  0  0  0  0  0  0  0  0  0  0
  155.1117  139.6980  160.9401 H   0  0  0  0  0  0  0  0  0  0  0  0
  155.1097  140.1791  163.3754 H   0  0  0  0  0  0  0  0  0  0  0  0
  155.7600  141.5195  162.4623 H   0  0  0  0  0  0  0  0  0  0  0  0
  152.9221  141.3182  163.5861 H   0  0  0  0  0  0  0  0  0  0  0  0
  154.1936  142.3574  164.1846 H   0  0  0  0  0  0  0  0  0  0  0  0
  152.6068  143.6148  162.7297 H   0  0  0  0  0  0  0  0  0  0  0  0
  154.2281  143.6301  162.0786 H   0  0  0  0  0  0  0  0  0  0  0  0
  151.9536  141.7919  161.2092 H   0  0  0  0  0  0  0  0  0  0  0  0
  150.9936  144.5335  161.1682 H   0  0  0  0  0  0  0  0  0  0  0  0
  150.8380  146.0151  158.8839 H   0  0  0  0  0  0  0  0  0  0  0  0
  152.6479  144.7596  157.2022 H   0  0  0  0  0  0  0  0  0  0  0  0
  1  2  3  0  0  0  0
  2  3  1  0  0  0  0
  3  4  1  0  0  0  0
  3 18  1  0  0  0  0
  3 19  1  0  0  0  0
  4  5  1  0  0  0  0
  4 20  1  0  0  0  0
  4 21  1  0  0  0  0
  5  6  1  0  0  0  0
  5 22  1  0  0  0  0
  5 23  1  0  0  0  0
  6  7  1  0  0  0  0
  6 24  1  0  0  0  0
  7 12  1  0  0  0  0
  7  8  1  0  0  0  0
  7 25  1  0  0  0  0
  8  9  1  0  0  0  0
  8 26  1  0  0  0  0
  8 27  1  0  0  0  0
  9 10  1  0  0  0  0
  9 28  1  0  0  0  0
  9 29  1  0  0  0  0
 10 11  1  0  0  0  0
 10 30  1  0  0  0  0
 10 31  1  0  0  0  0
 11 12  1  0  0  0  0
 11 32  1  0  0  0  0
 11 33  1  0  0  0  0
 12 13  1  0  0  0  0
 12 34  1  0  0  0  0
 13 17  1  0  0  0  0
 13 14  1  0  0  0  0
 14 15  2  0  0  0  0
 14 35  1  0  0  0  0
 15 16  1  0  0  0  0
 15 36  1  0  0  0  0
 16 17  2  0  0  0  0
 16 37  1  0  0  0  0
M  END
> <s_m_source_file>
AV-unprocessed.smi

> <i_m_source_file_index>
3185

> <i_lp_mmshare_version>
43012

> <i_f3d_flags>
0

> <s_epik_input>
TiNDW0NIMl1bQ0gyXVtDSDJdW05IXVtDQEBIXTFbQ0gyXVtDSDJdW0NIMl1bQ0gyXVtDQEhdMW4yW2NIXVtjSF1bY0hdbjI=

> <s_epik_cmdline>
J2VwaWtfcHl0aG9uJywgJy1waCcsICc3LjAnLCAnLXRuJywgJzgnLCAnLW1hJywgJzIwMCcsICctbWV0YWxfYmluZGluZycsICctaW1hZScsICc8aW5maWxlLm1hZT4nLCAnLW9tYWUnLCAnPG91dGZpbGUubWFlPic=

> <r_lp_tautomer_probability>
1

> <r_epik_Ionization_Penalty>
2.21326

> <r_epik_Ionization_Penalty_Charging>
0

> <r_epik_Ionization_Penalty_Neutral>
2.21326

> <r_epik_State_Penalty>
2.35651

> <r_epik_Charging_Adjusted_Penalty>
2.35651

> <i_epik_Tot_Q>
0

> <i_epik_Tot_abs_Q>
0

> <r_epik_Metal_State_Penalty>
2.3555

> <b_epik_Metal_Only>
0

> <s_lp_Force_Field>
OPLS_2005

> <r_lp_Energy>
16.739

> <b_lp_Chiralities_Consistent>
1

> <s_lp_Variant>
AV-unprocessed.smi:3185-5

> <Gold.Version>
5.8.1

> <Gold.Id.Protein>
6NUR|6NUR_protein|mol2

> <Gold.PLP.Fitness>
46.0096

> <Gold.PLP.PLP>
-43.3170

> <Gold.PLP.part.hbond>
-1.0173

> <Gold.PLP.part.metal>
0.0000

> <Gold.PLP.part.buried>
-4.0420

> <Gold.PLP.part.nonpolar>
-37.8878

> <Gold.PLP.part.repulsive>
0.0905

> <Gold.PLP.ligand.clash>
0.0000

> <Gold.PLP.ligand.torsion>
0.1760

> <Gold.PLP.Chemscore.Hbond>
1.0000

> <Gold.PLP.Chemscore.CHOScore>
0.0000

> <Gold.PLP.Chemscore.Metal>
0.0000

> <Gold.Chemscore.Hbonds>
donor molecule, donor type, donor heavy atom, donor atom, acceptor molecule, acceptor atom, score
      P1  H  7989  7998       L1     1  1.00

> <Gold.PLP.Chemscore.Internal.Correction>
0.0446

> <Gold.Rescore>
     Score         DG    S(hbond)    S(metal)    S(lipo)     H(rot)  DE(clash)    DE(int)     intcor
     14.12     -17.26       0.94        0.00     113.36       1.81       1.58       1.56       ----

> <Gold.Chemscore.Fitness>
14.1187

> <Gold.Chemscore.DG>
-17.2600

> <Gold.Chemscore.ZeroCoef>
-5.4800

> <Gold.Chemscore.Hbond>
0.9440

> <Gold.Chemscore.Metal>
0.0000

> <Gold.Chemscore.Lipo>
113.3606

> <Gold.Chemscore.Internal_Hbond>
0.0000

> <Gold.Chemscore.DEClash>
1.5768

> <Gold.Chemscore.DEInternal>
1.5646

> <Gold.Chemscore.Rot>
1.8110

> <Gold.Chemscore.Internal.Correction>
   9.000000E+99

> <Gold.Chemscore.Hbonds>
donor molecule, donor type, donor heavy atom, donor atom, acceptor molecule, acceptor atom, score
      P1  H  7989  7998       L1     1  0.29

> <Gold.Chemscore.Hbond.Weighted>
-3.1531

> <Gold.Chemscore.Metal.Weighted>
-0.0000

> <Gold.Chemscore.Lipo.Weighted>
-13.2632

> <Gold.Chemscore.Internal_Hbond.Weighted>
0.0000

> <Gold.Chemscore.DEClash.Weighted>
1.5768

> <Gold.Chemscore.DEInternal.Weighted>
1.5646

> <Gold.Chemscore.Rot.Weighted>
4.6362

> <Gold.Chemscore.Internal.Correction.Weighted>
   9.000000E+99

> <Gold.Protein.RotatedTorsions>
[ 6907 6896 6895 6894 ] final -108.22 input  -60.11 | X-H torsion
[ 7974 7965 7964 7962 ] final   63.73 input  175.53 | X-H torsion
[ 8008 7997 7996 7995 ] final   -8.64 input   59.86 | X-H torsion
[ 10167 10162 10161 10158 ] final -170.71 input  -65.29 | X-H torsion
[ 10718 10713 10712 10709 ] final   39.56 input   66.30 | X-H torsion
[ 10763 10752 10751 10750 ] final    6.54 input  -60.55 | X-H torsion
[ 11005 11000 10999 10996 ] final   10.79 input  -57.11 | X-H torsion

> <Gold.Protein.ActiveResidues>
 VAL166  LYS551  ARG553  GLY616  TRP617  ASP618  TYR619  PRO620  LYS621  CYS622 
 ASP623  PHE694  ASN695  SER759  ASP760  ASP761  ALA762  ILE779  LEU786  VAL792 
 PHE793  MET794  SER795  GLU796  ALA797  LYS798  CYS799  TRP800  GLU811  SER814 

> <Gold.Protein.RotatedAtoms>
  150.7489  133.9709  159.3545 H   0  0  0  0  0  0  0  0  0  0  0  0  # atno 6907 bound_to 6896
  151.7643  135.0800  160.0359 H   0  0  0  0  0  0  0  0  0  0  0  0  # atno 6908 bound_to 6896
  152.3382  133.5999  159.5894 H   0  0  0  0  0  0  0  0  0  0  0  0  # atno 6909 bound_to 6896
  145.8584  139.3299  143.0833 H   0  0  0  0  0  0  0  0  0  0  0  0  # atno 7974 bound_to 7965
  154.5722  140.2376  155.8175 H   0  0  0  0  0  0  0  0  0  0  0  0  # atno 8008 bound_to 7997
  156.2115  140.3024  155.9701 H   0  0  0  0  0  0  0  0  0  0  0  0  # atno 8009 bound_to 7997
  155.2692  140.0417  157.2996 H   0  0  0  0  0  0  0  0  0  0  0  0  # atno 8010 bound_to 7997
  139.5846  144.1348  152.1558 H   0  0  0  0  0  0  0  0  0  0  0  0  # atno 10167 bound_to 10162
  157.3719  130.7706  149.7126 H   0  0  0  0  0  0  0  0  0  0  0  0  # atno 10718 bound_to 10713
  153.2465  135.6909  153.7725 H   0  0  0  0  0  0  0  0  0  0  0  0  # atno 10763 bound_to 10752
  153.6836  135.3324  155.3185 H   0  0  0  0  0  0  0  0  0  0  0  0  # atno 10764 bound_to 10752
  154.8377  135.4528  154.1406 H   0  0  0  0  0  0  0  0  0  0  0  0  # atno 10765 bound_to 10752
  140.5105  134.0657  155.7817 H   0  0  0  0  0  0  0  0  0  0  0  0  # atno 11005 bound_to 11000
  145.9276  140.9071  143.0372 LP  0  0  0  0  0  0  0  0  0  0  0  0  # atno 17320 bound_to 7965
  144.6727  140.1375  143.7439 LP  0  0  0  0  0  0  0  0  0  0  0  0  # atno 17321 bound_to 7965
  140.0908  144.5622  150.7056 LP  0  0  0  0  0  0  0  0  0  0  0  0  # atno 17342 bound_to 10162
  140.7119  143.2512  151.4554 LP  0  0  0  0  0  0  0  0  0  0  0  0  # atno 17343 bound_to 10162
  155.9757  130.4085  150.3829 LP  0  0  0  0  0  0  0  0  0  0  0  0  # atno 17370 bound_to 10713
  157.1921  131.0418  151.2695 LP  0  0  0  0  0  0  0  0  0  0  0  0  # atno 17371 bound_to 10713
  141.1388  133.9175  157.2373 LP  0  0  0  0  0  0  0  0  0  0  0  0  # atno 17394 bound_to 11000
  139.9662  135.0141  156.9392 LP  0  0  0  0  0  0  0  0  0  0  0  0  # atno 17395 bound_to 11000

$$$$
