AV-unprocessed.smi:1046|AV-procd|sdf|4550|dock7
  -GOLD-   22720 2573D 1   1.00000     0.00000
 Structure written by MMmdl.
 53 55  0  0  0  0  0  0  0  0  2 V2000
  153.2636  142.9528  161.4257 C   0  0  0  0  0  0  0  0  0  0  0  0
  152.5664  142.5030  160.1538 C   0  0  0  0  0  0  0  0  0  0  0  0
  153.0025  141.3218  159.5122 C   0  0  0  0  0  0  0  0  0  0  0  0
  152.3821  140.8703  158.3267 C   0  0  0  0  0  0  0  0  0  0  0  0
  152.6418  139.7592  157.5428 N   0  0  0  0  0  0  0  0  0  0  0  0
  151.7302  139.8894  156.5831 C   0  0  0  0  0  0  0  0  0  0  0  0
  150.9100  140.9559  156.6523 N   0  0  0  0  0  0  0  0  0  0  0  0
  149.8469  141.3081  155.7291 C   0  0  0  0  0  0  0  0  0  0  0  0
  149.7005  140.2760  154.5945 C   0  0  2  0  0  0  0  0  0  0  0  0
  149.7960  140.9072  153.3333 O   0  0  0  0  0  0  0  0  0  0  0  0
  148.4371  139.3867  154.6267 C   0  0  0  0  0  0  0  0  0  0  0  0
  147.1429  140.0670  154.4630 N   0  0  0  0  0  0  0  0  0  0  0  0
  146.7960  140.2834  153.0575 C   0  0  0  0  0  0  0  0  0  0  0  0
  146.4236  138.9851  152.3149 C   0  0  0  0  0  0  0  0  0  0  0  0
  145.2762  138.3239  152.9857 N   0  3  0  0  0  0  0  0  0  0  0  0
  144.8151  137.1137  152.2595 C   0  0  0  0  0  0  0  0  0  0  0  0
  145.9750  136.3111  151.6453 C   0  0  0  0  0  0  0  0  0  0  0  0
  146.6297  135.5623  152.6477 O   0  0  0  0  0  0  0  0  0  0  0  0
  145.5800  138.0844  154.4209 C   0  0  0  0  0  0  0  0  0  0  0  0
  146.0062  139.3989  155.1091 C   0  0  0  0  0  0  0  0  0  0  0  0
  151.3053  141.6393  157.7966 C   0  0  0  0  0  0  0  0  0  0  0  0
  150.8612  142.8153  158.4261 C   0  0  0  0  0  0  0  0  0  0  0  0
  151.4911  143.2515  159.6106 C   0  0  0  0  0  0  0  0  0  0  0  0
  151.0035  144.5220  160.2840 C   0  0  0  0  0  0  0  0  0  0  0  0
  154.1020  142.3009  161.6724 H   0  0  0  0  0  0  0  0  0  0  0  0
  152.5689  142.9381  162.2659 H   0  0  0  0  0  0  0  0  0  0  0  0
  153.6509  143.9656  161.3129 H   0  0  0  0  0  0  0  0  0  0  0  0
  153.8198  140.7502  159.9267 H   0  0  0  0  0  0  0  0  0  0  0  0
  151.6525  139.1668  155.7839 H   0  0  0  0  0  0  0  0  0  0  0  0
  148.9179  141.3848  156.2954 H   0  0  0  0  0  0  0  0  0  0  0  0
  150.0665  142.2973  155.3277 H   0  0  0  0  0  0  0  0  0  0  0  0
  150.5524  139.5975  154.6572 H   0  0  0  0  0  0  0  0  0  0  0  0
  149.5661  140.2784  152.6661 H   0  0  0  0  0  0  0  0  0  0  0  0
  148.5576  138.6651  153.8171 H   0  0  0  0  0  0  0  0  0  0  0  0
  148.4408  138.7860  155.5354 H   0  0  0  0  0  0  0  0  0  0  0  0
  145.9550  140.9760  153.0007 H   0  0  0  0  0  0  0  0  0  0  0  0
  147.6194  140.7810  152.5436 H   0  0  0  0  0  0  0  0  0  0  0  0
  146.1561  139.2253  151.2851 H   0  0  0  0  0  0  0  0  0  0  0  0
  147.2746  138.3037  152.2709 H   0  0  0  0  0  0  0  0  0  0  0  0
  144.2711  136.4615  152.9446 H   0  0  0  0  0  0  0  0  0  0  0  0
  144.1034  137.4036  151.4852 H   0  0  0  0  0  0  0  0  0  0  0  0
  145.5866  135.6159  150.9005 H   0  0  0  0  0  0  0  0  0  0  0  0
  146.6930  136.9500  151.1325 H   0  0  0  0  0  0  0  0  0  0  0  0
  147.5621  135.6959  152.5640 H   0  0  0  0  0  0  0  0  0  0  0  0
  144.6984  137.6968  154.9299 H   0  0  0  0  0  0  0  0  0  0  0  0
  146.3533  137.3218  154.5178 H   0  0  0  0  0  0  0  0  0  0  0  0
  146.2099  139.2011  156.1570 H   0  0  0  0  0  0  0  0  0  0  0  0
  145.1547  140.0808  155.1072 H   0  0  0  0  0  0  0  0  0  0  0  0
  150.0417  143.3754  158.0009 H   0  0  0  0  0  0  0  0  0  0  0  0
  150.1329  144.9338  159.7728 H   0  0  0  0  0  0  0  0  0  0  0  0
  151.7864  145.2805  160.2780 H   0  0  0  0  0  0  0  0  0  0  0  0
  150.7199  144.3241  161.3179 H   0  0  0  0  0  0  0  0  0  0  0  0
  144.5123  138.9841  152.9512 H   0  0  0  0  0  0  0  0  0  0  0  0
  1  2  1  0  0  0  0
  1 25  1  0  0  0  0
  1 26  1  0  0  0  0
  1 27  1  0  0  0  0
  2 23  1  0  0  0  0
  2  3  2  0  0  0  0
  3  4  1  0  0  0  0
  3 28  1  0  0  0  0
  4 21  2  0  0  0  0
  4  5  1  0  0  0  0
  5  6  2  0  0  0  0
  6  7  1  0  0  0  0
  6 29  1  0  0  0  0
  7  8  1  0  0  0  0
  7 21  1  0  0  0  0
  8  9  1  0  0  0  0
  8 30  1  0  0  0  0
  8 31  1  0  0  0  0
  9 10  1  0  0  0  0
  9 11  1  0  0  0  0
  9 32  1  0  0  0  0
 10 33  1  0  0  0  0
 11 12  1  0  0  0  0
 11 34  1  0  0  0  0
 11 35  1  0  0  0  0
 12 20  1  0  0  0  0
 12 13  1  0  0  0  0
 13 14  1  0  0  0  0
 13 36  1  0  0  0  0
 13 37  1  0  0  0  0
 14 15  1  0  0  0  0
 14 38  1  0  0  0  0
 14 39  1  0  0  0  0
 15 16  1  0  0  0  0
 15 19  1  0  0  0  0
 15 53  1  0  0  0  0
 16 17  1  0  0  0  0
 16 40  1  0  0  0  0
 16 41  1  0  0  0  0
 17 18  1  0  0  0  0
 17 42  1  0  0  0  0
 17 43  1  0  0  0  0
 18 44  1  0  0  0  0
 19 20  1  0  0  0  0
 19 45  1  0  0  0  0
 19 46  1  0  0  0  0
 20 47  1  0  0  0  0
 20 48  1  0  0  0  0
 21 22  1  0  0  0  0
 22 23  2  0  0  0  0
 22 49  1  0  0  0  0
 23 24  1  0  0  0  0
 24 50  1  0  0  0  0
 24 51  1  0  0  0  0
 24 52  1  0  0  0  0
M  CHG  1  15   1
M  END
> <s_m_source_file>
AV-unprocessed.smi

> <i_m_source_file_index>
1046

> <i_lp_mmshare_version>
43012

> <i_f3d_flags>
0

> <s_epik_input>
W0NIM11jKFtjSF0xKWMoW0NIM10pW2NIXWMoYzEyKW4oW2NIXW4yKVtDSDJdW0NASF0oW09IXSlbQ0gyXU4zW0NIMl1bQ0gyXU4oW0NIMl1bQ0gyXTMpW0NIMl1bQ0gyXVtPSF0=

> <s_epik_cmdline>
J2VwaWtfcHl0aG9uJywgJy1waCcsICc3LjAnLCAnLXRuJywgJzgnLCAnLW1hJywgJzIwMCcsICctbWV0YWxfYmluZGluZycsICctaW1hZScsICc8aW5maWxlLm1hZT4nLCAnLW9tYWUnLCAnPG91dGZpbGUubWFlPic=

> <r_epik_Ionization_Penalty>
0.218081

> <r_epik_Ionization_Penalty_Charging>
0.0909554

> <r_epik_Ionization_Penalty_Neutral>
0.127126

> <r_epik_State_Penalty>
0.825642

> <r_epik_Charging_Adjusted_Penalty>
0.916597

> <i_epik_Tot_Q>
1

> <i_epik_Tot_abs_Q>
1

> <r_epik_Metal_State_Penalty>
0.740189

> <b_epik_Metal_Only>
0

> <s_lp_Force_Field>
OPLS_2005

> <r_lp_Energy>
40.3597

> <b_lp_Chiralities_Consistent>
1

> <s_lp_Variant>
AV-unprocessed.smi:1046-3

> <Gold.Version>
5.8.1

> <Gold.Id.Protein>
6NUR|6NUR_protein|mol2

> <Gold.PLP.Fitness>
56.6802

> <Gold.PLP.PLP>
-41.3823

> <Gold.PLP.part.hbond>
-4.8213

> <Gold.PLP.part.metal>
0.0000

> <Gold.PLP.part.buried>
-0.8284

> <Gold.PLP.part.nonpolar>
-35.7671

> <Gold.PLP.part.repulsive>
0.0987

> <Gold.PLP.ligand.clash>
0.0000

> <Gold.PLP.ligand.torsion>
1.3938

> <Gold.PLP.Chemscore.Hbond>
5.9496

> <Gold.PLP.Chemscore.CHOScore>
0.0000

> <Gold.PLP.Chemscore.Metal>
0.0000

> <Gold.Chemscore.Hbonds>
donor molecule, donor type, donor heavy atom, donor atom, acceptor molecule, acceptor atom, score
      L1  H    10    33       P1  7957  0.81
      L1  H    15    53       P1 10175  2.00
      L1  H    18    44       P1  7948  1.00
      P1  H  7989  7998       L1    10  0.12
      P1  H  7997  8009       L1     5  1.00
      P1  H  8011  8017       L1    10  0.95

> <Gold.PLP.Chemscore.Internal.Correction>
0.2367

> <Gold.Rescore>
     Score         DG    S(hbond)    S(metal)    S(lipo)     H(rot)  DE(clash)    DE(int)     intcor
     21.15     -23.03       3.63        0.00     116.47       3.21       0.46       1.42       ----

> <Gold.Chemscore.Fitness>
21.1471

> <Gold.Chemscore.DG>
-23.0333

> <Gold.Chemscore.ZeroCoef>
-5.4800

> <Gold.Chemscore.Hbond>
3.6325

> <Gold.Chemscore.Metal>
0.0000

> <Gold.Chemscore.Lipo>
116.4747

> <Gold.Chemscore.Internal_Hbond>
0.0000

> <Gold.Chemscore.DEClash>
0.4637

> <Gold.Chemscore.DEInternal>
1.4225

> <Gold.Chemscore.Rot>
3.2058

> <Gold.Chemscore.Internal.Correction>
   9.000000E+99

> <Gold.Chemscore.Hbonds>
donor molecule, donor type, donor heavy atom, donor atom, acceptor molecule, acceptor atom, score
      L1  H    10    33       P1  7957  0.77
      L1  H    15    53       P1 10175  0.99
      L1  H    18    44       P1  7948  0.98
      P1  H  7997  8009       L1     5  0.37
      P1  H  8011  8017       L1    10  0.21

> <Gold.Chemscore.Hbond.Weighted>
-12.1325

> <Gold.Chemscore.Metal.Weighted>
-0.0000

> <Gold.Chemscore.Lipo.Weighted>
-13.6275

> <Gold.Chemscore.Internal_Hbond.Weighted>
0.0000

> <Gold.Chemscore.DEClash.Weighted>
0.4637

> <Gold.Chemscore.DEInternal.Weighted>
1.4225

> <Gold.Chemscore.Rot.Weighted>
8.2067

> <Gold.Chemscore.Internal.Correction.Weighted>
   9.000000E+99

> <Gold.Protein.RotatedTorsions>
[ 6907 6896 6895 6894 ] final  165.19 input  -60.11 | X-H torsion
[ 7974 7965 7964 7962 ] final  -70.22 input  175.53 | X-H torsion
[ 8008 7997 7996 7995 ] final  163.34 input   59.86 | X-H torsion
[ 10167 10162 10161 10158 ] final   91.86 input  -65.29 | X-H torsion
[ 10718 10713 10712 10709 ] final   91.97 input   66.30 | X-H torsion
[ 10763 10752 10751 10750 ] final  120.17 input  -60.55 | X-H torsion
[ 11005 11000 10999 10996 ] final  -33.47 input  -57.11 | X-H torsion

> <Gold.Protein.ActiveResidues>
 VAL166  LYS551  ARG553  GLY616  TRP617  ASP618  TYR619  PRO620  LYS621  CYS622 
 ASP623  PHE694  ASN695  SER759  ASP760  ASP761  ALA762  ILE779  LEU786  VAL792 
 PHE793  MET794  SER795  GLU796  ALA797  LYS798  CYS799  TRP800  GLU811  SER814 

> <Gold.Protein.RotatedAtoms>
  151.8982  133.3532  159.3821 H   0  0  0  0  0  0  0  0  0  0  0  0  # atno 6907 bound_to 6896
  150.7086  134.4855  159.5500 H   0  0  0  0  0  0  0  0  0  0  0  0  # atno 6908 bound_to 6896
  152.2438  134.8202  160.0507 H   0  0  0  0  0  0  0  0  0  0  0  0  # atno 6909 bound_to 6896
  145.6938  140.9143  143.0768 H   0  0  0  0  0  0  0  0  0  0  0  0  # atno 7974 bound_to 7965
  156.1964  140.1726  156.7989 H   0  0  0  0  0  0  0  0  0  0  0  0  # atno 8008 bound_to 7997
  154.5535  140.0713  156.8737 H   0  0  0  0  0  0  0  0  0  0  0  0  # atno 8009 bound_to 7997
  155.2983  140.3360  155.4251 H   0  0  0  0  0  0  0  0  0  0  0  0  # atno 8010 bound_to 7997
  139.8333  144.6676  150.9373 H   0  0  0  0  0  0  0  0  0  0  0  0  # atno 10167 bound_to 10162
  157.6959  131.0426  150.3810 H   0  0  0  0  0  0  0  0  0  0  0  0  # atno 10718 bound_to 10713
  153.5943  135.3460  155.2922 H   0  0  0  0  0  0  0  0  0  0  0  0  # atno 10763 bound_to 10752
  154.8647  135.4212  154.2482 H   0  0  0  0  0  0  0  0  0  0  0  0  # atno 10764 bound_to 10752
  153.3296  135.7043  153.7030 H   0  0  0  0  0  0  0  0  0  0  0  0  # atno 10765 bound_to 10752
  140.9637  133.7149  156.1411 H   0  0  0  0  0  0  0  0  0  0  0  0  # atno 11005 bound_to 11000
  144.6989  139.8856  143.7450 LP  0  0  0  0  0  0  0  0  0  0  0  0  # atno 17320 bound_to 7965
  146.0859  139.3847  143.0436 LP  0  0  0  0  0  0  0  0  0  0  0  0  # atno 17321 bound_to 7965
  140.7805  143.3980  151.1196 LP  0  0  0  0  0  0  0  0  0  0  0  0  # atno 17342 bound_to 10162
  139.7632  143.8604  152.3105 LP  0  0  0  0  0  0  0  0  0  0  0  0  # atno 17343 bound_to 10162
  156.4224  130.3955  149.6816 LP  0  0  0  0  0  0  0  0  0  0  0  0  # atno 17370 bound_to 10713
  156.4062  130.7699  151.2710 LP  0  0  0  0  0  0  0  0  0  0  0  0  # atno 17371 bound_to 10713
  140.7430  134.4129  157.5552 LP  0  0  0  0  0  0  0  0  0  0  0  0  # atno 17394 bound_to 11000
  139.8887  134.8849  156.2460 LP  0  0  0  0  0  0  0  0  0  0  0  0  # atno 17395 bound_to 11000

$$$$
