AV-unprocessed.smi:1983|AV-procd|sdf|8034|dock4
  -GOLD-   2272010233D 1   1.00000     0.00000
 Structure written by MMmdl.
 50 51  0  0  0  0  0  0  0  0  2 V2000
  145.8107  138.6857  153.8839 C   0  0  0  0  0  0  0  0  0  0  0  0
  147.0685  139.1236  153.1135 C   0  0  2  0  0  0  0  0  0  0  0  0
  146.8488  139.1299  151.5906 C   0  0  0  0  0  0  0  0  0  0  0  0
  146.8831  137.8137  151.0813 O   0  0  0  0  0  0  0  0  0  0  0  0
  148.1900  138.2441  153.4326 N   0  0  0  0  0  0  0  0  0  0  0  0
  148.6615  138.0066  154.6647 C   0  0  0  0  0  0  0  0  0  0  0  0
  148.1858  138.4887  155.6929 O   0  0  0  0  0  0  0  0  0  0  0  0
  149.7162  137.1796  154.6449 N   0  0  0  0  0  0  0  0  0  0  0  0
  150.4561  136.7552  155.8278 C   0  0  0  0  0  0  0  0  0  0  0  0
  150.9973  137.9168  156.6438 C   0  0  0  0  0  0  0  0  0  0  0  0
  150.7474  138.0051  158.0305 C   0  0  0  0  0  0  0  0  0  0  0  0
  151.2657  139.0944  158.7607 C   0  0  0  0  0  0  0  0  0  0  0  0
  152.0264  140.0804  158.0893 C   0  0  0  0  0  0  0  0  0  0  0  0
  152.5805  141.2001  158.7243 N   0  0  0  0  0  0  0  0  0  0  0  0
  152.0249  142.4551  158.2378 C   0  0  0  0  0  0  0  0  0  0  0  0
  152.7754  143.6465  158.8643 C   0  0  1  0  0  0  0  0  0  0  0  0
  152.1497  144.9904  158.4763 C   0  0  0  0  0  0  0  0  0  0  0  0
  152.7374  143.5283  160.2853 O   0  0  0  0  0  0  0  0  0  0  0  0
  153.3596  142.3345  160.7556 C   0  0  1  0  0  0  0  0  0  0  0  0
  153.3417  142.3498  162.2876 C   0  0  0  0  0  0  0  0  0  0  0  0
  152.6051  141.1224  160.1791 C   0  0  0  0  0  0  0  0  0  0  0  0
  152.2311  139.9618  156.7584 N   0  3  0  0  0  0  0  0  0  0  0  0
  151.7557  138.9324  156.0245 C   0  0  0  0  0  0  0  0  0  0  0  0
  144.9700  139.3467  153.6712 H   0  0  0  0  0  0  0  0  0  0  0  0
  145.9776  138.7103  154.9612 H   0  0  0  0  0  0  0  0  0  0  0  0
  145.5125  137.6718  153.6157 H   0  0  0  0  0  0  0  0  0  0  0  0
  147.3316  140.1384  153.4193 H   0  0  0  0  0  0  0  0  0  0  0  0
  145.8730  139.5527  151.3480 H   0  0  0  0  0  0  0  0  0  0  0  0
  147.5989  139.7401  151.0863 H   0  0  0  0  0  0  0  0  0  0  0  0
  147.2436  137.2439  151.7434 H   0  0  0  0  0  0  0  0  0  0  0  0
  148.6493  137.7958  152.6532 H   0  0  0  0  0  0  0  0  0  0  0  0
  150.0405  136.8366  153.7523 H   0  0  0  0  0  0  0  0  0  0  0  0
  149.7861  136.1704  156.4587 H   0  0  0  0  0  0  0  0  0  0  0  0
  151.2675  136.0853  155.5371 H   0  0  0  0  0  0  0  0  0  0  0  0
  150.1640  137.2458  158.5307 H   0  0  0  0  0  0  0  0  0  0  0  0
  151.0719  139.1684  159.8207 H   0  0  0  0  0  0  0  0  0  0  0  0
  152.0995  142.4953  157.1501 H   0  0  0  0  0  0  0  0  0  0  0  0
  150.9647  142.5039  158.4910 H   0  0  0  0  0  0  0  0  0  0  0  0
  153.8158  143.6395  158.5344 H   0  0  0  0  0  0  0  0  0  0  0  0
  152.1665  145.1346  157.3959 H   0  0  0  0  0  0  0  0  0  0  0  0
  152.6937  145.8193  158.9299 H   0  0  0  0  0  0  0  0  0  0  0  0
  151.1126  145.0531  158.8068 H   0  0  0  0  0  0  0  0  0  0  0  0
  154.3985  142.3161  160.4211 H   0  0  0  0  0  0  0  0  0  0  0  0
  153.8172  141.4568  162.6946 H   0  0  0  0  0  0  0  0  0  0  0  0
  152.3216  142.3905  162.6705 H   0  0  0  0  0  0  0  0  0  0  0  0
  153.8778  143.2167  162.6747 H   0  0  0  0  0  0  0  0  0  0  0  0
  151.5871  141.1034  160.5701 H   0  0  0  0  0  0  0  0  0  0  0  0
  153.0900  140.1954  160.4880 H   0  0  0  0  0  0  0  0  0  0  0  0
  151.9912  138.9562  154.9704 H   0  0  0  0  0  0  0  0  0  0  0  0
  152.7760  140.6830  156.2850 H   0  0  0  0  0  0  0  0  0  0  0  0
  1  2  1  0  0  0  0
  1 24  1  0  0  0  0
  1 25  1  0  0  0  0
  1 26  1  0  0  0  0
  2  3  1  0  0  0  0
  2  5  1  0  0  0  0
  2 27  1  0  0  0  0
  3  4  1  0  0  0  0
  3 28  1  0  0  0  0
  3 29  1  0  0  0  0
  4 30  1  0  0  0  0
  5  6  1  0  0  0  0
  5 31  1  0  0  0  0
  6  7  2  0  0  0  0
  6  8  1  0  0  0  0
  8  9  1  0  0  0  0
  8 32  1  0  0  0  0
  9 10  1  0  0  0  0
  9 33  1  0  0  0  0
  9 34  1  0  0  0  0
 10 23  1  0  0  0  0
 10 11  2  0  0  0  0
 11 12  1  0  0  0  0
 11 35  1  0  0  0  0
 12 13  2  0  0  0  0
 12 36  1  0  0  0  0
 13 14  1  0  0  0  0
 13 22  1  0  0  0  0
 14 21  1  0  0  0  0
 14 15  1  0  0  0  0
 15 16  1  0  0  0  0
 15 37  1  0  0  0  0
 15 38  1  0  0  0  0
 16 17  1  0  0  0  0
 16 18  1  0  0  0  0
 16 39  1  0  0  0  0
 17 40  1  0  0  0  0
 17 41  1  0  0  0  0
 17 42  1  0  0  0  0
 18 19  1  0  0  0  0
 19 20  1  0  0  0  0
 19 21  1  0  0  0  0
 19 43  1  0  0  0  0
 20 44  1  0  0  0  0
 20 45  1  0  0  0  0
 20 46  1  0  0  0  0
 21 47  1  0  0  0  0
 21 48  1  0  0  0  0
 22 23  2  0  0  0  0
 22 50  1  0  0  0  0
 23 49  1  0  0  0  0
M  CHG  1  22   1
M  END
> <s_m_source_file>
AV-unprocessed.smi

> <i_m_source_file_index>
1983

> <i_lp_mmshare_version>
43012

> <i_f3d_flags>
0

> <s_epik_input>
W09IXVtDSDJdW0NAQEhdKFtDSDNdKVtOSF1DKD1PKVtOSF1bQ0gyXWMxW2NIXVtjSF1jKG5bY0hdMSlOMltDSDJdW0NAQEhdKFtDSDNdKU9bQ0BASF0oW0NIM10pW0NIMl0y

> <s_epik_cmdline>
J2VwaWtfcHl0aG9uJywgJy1waCcsICc3LjAnLCAnLXRuJywgJzgnLCAnLW1hJywgJzIwMCcsICctbWV0YWxfYmluZGluZycsICctaW1hZScsICc8aW5maWxlLm1hZT4nLCAnLW9tYWUnLCAnPG91dGZpbGUubWFlPic=

> <r_lp_tautomer_probability>
0.999994

> <r_epik_Ionization_Penalty>
2.55677

> <r_epik_Ionization_Penalty_Charging>
2.55673

> <r_epik_Ionization_Penalty_Neutral>
3.71772e-05

> <r_epik_State_Penalty>
2.72571

> <r_epik_Charging_Adjusted_Penalty>
5.28244

> <i_epik_Tot_Q>
1

> <i_epik_Tot_abs_Q>
1

> <r_epik_Metal_State_Penalty>
2.73364

> <b_epik_Metal_Only>
0

> <s_lp_Force_Field>
OPLS_2005

> <r_lp_Energy>
19.4893

> <b_lp_Chiralities_Consistent>
1

> <s_lp_Variant>
AV-unprocessed.smi:1983-7

> <Gold.Version>
5.8.1

> <Gold.Id.Protein>
6NUR|6NUR_protein|mol2

> <Gold.PLP.Fitness>
50.4744

> <Gold.PLP.PLP>
-42.2977

> <Gold.PLP.part.hbond>
-4.4603

> <Gold.PLP.part.metal>
0.0000

> <Gold.PLP.part.buried>
-5.1478

> <Gold.PLP.part.nonpolar>
-33.8022

> <Gold.PLP.part.repulsive>
0.5612

> <Gold.PLP.ligand.clash>
0.0000

> <Gold.PLP.ligand.torsion>
0.3797

> <Gold.PLP.Chemscore.Hbond>
2.9182

> <Gold.PLP.Chemscore.CHOScore>
0.0000

> <Gold.PLP.Chemscore.Metal>
0.0000

> <Gold.Chemscore.Hbonds>
donor molecule, donor type, donor heavy atom, donor atom, acceptor molecule, acceptor atom, score
      L1  H     4    30       P1  7948  0.62
      L1  H     5    31       P1  7948  0.91
      L1  H     8    32       P1  7948  0.36
      P1  H  7954  7966       L1     4  1.00

> <Gold.PLP.Chemscore.Internal.Correction>
0.1814

> <Gold.Rescore>
     Score         DG    S(hbond)    S(metal)    S(lipo)     H(rot)  DE(clash)    DE(int)     intcor
     17.86     -19.25       2.35        0.00     108.90       2.66       0.09       1.30       ----

> <Gold.Chemscore.Fitness>
17.8607

> <Gold.Chemscore.DG>
-19.2499

> <Gold.Chemscore.ZeroCoef>
-5.4800

> <Gold.Chemscore.Hbond>
2.3497

> <Gold.Chemscore.Metal>
0.0000

> <Gold.Chemscore.Lipo>
108.8977

> <Gold.Chemscore.Internal_Hbond>
0.0000

> <Gold.Chemscore.DEClash>
0.0935

> <Gold.Chemscore.DEInternal>
1.2957

> <Gold.Chemscore.Rot>
2.6637

> <Gold.Chemscore.Internal.Correction>
   9.000000E+99

> <Gold.Chemscore.Hbonds>
donor molecule, donor type, donor heavy atom, donor atom, acceptor molecule, acceptor atom, score
      L1  H     4    30       P1  7948  0.61
      L1  H     5    31       P1  7948  0.90
      L1  H     8    32       P1  7948  0.11
      P1  H  7954  7966       L1     4  0.16

> <Gold.Chemscore.Hbond.Weighted>
-7.8480

> <Gold.Chemscore.Metal.Weighted>
-0.0000

> <Gold.Chemscore.Lipo.Weighted>
-12.7410

> <Gold.Chemscore.Internal_Hbond.Weighted>
0.0000

> <Gold.Chemscore.DEClash.Weighted>
0.0935

> <Gold.Chemscore.DEInternal.Weighted>
1.2957

> <Gold.Chemscore.Rot.Weighted>
6.8191

> <Gold.Chemscore.Internal.Correction.Weighted>
   9.000000E+99

> <Gold.Protein.RotatedTorsions>
[ 6907 6896 6895 6894 ] final  -66.18 input  -60.11 | X-H torsion
[ 7974 7965 7964 7962 ] final -166.52 input  175.53 | X-H torsion
[ 8008 7997 7996 7995 ] final  136.04 input   59.86 | X-H torsion
[ 10167 10162 10161 10158 ] final -161.87 input  -65.29 | X-H torsion
[ 10718 10713 10712 10709 ] final -172.48 input   66.30 | X-H torsion
[ 10763 10752 10751 10750 ] final   75.05 input  -60.55 | X-H torsion
[ 11005 11000 10999 10996 ] final   86.84 input  -57.11 | X-H torsion

> <Gold.Protein.ActiveResidues>
 VAL166  LYS551  ARG553  GLY616  TRP617  ASP618  TYR619  PRO620  LYS621  CYS622 
 ASP623  PHE694  ASN695  SER759  ASP760  ASP761  ALA762  ILE779  LEU786  VAL792 
 PHE793  MET794  SER795  GLU796  ALA797  LYS798  CYS799  TRP800  GLU811  SER814 

> <Gold.Protein.RotatedAtoms>
  150.7480  134.6057  159.6059 H   0  0  0  0  0  0  0  0  0  0  0  0  # atno 6907 bound_to 6896
  152.3406  134.7137  160.0274 H   0  0  0  0  0  0  0  0  0  0  0  0  # atno 6908 bound_to 6896
  151.7590  133.3296  159.3449 H   0  0  0  0  0  0  0  0  0  0  0  0  # atno 6909 bound_to 6896
  144.7243  140.2654  143.6258 H   0  0  0  0  0  0  0  0  0  0  0  0  # atno 7974 bound_to 7965
  156.3004  140.2455  156.3680 H   0  0  0  0  0  0  0  0  0  0  0  0  # atno 8008 bound_to 7997
  154.8815  140.0412  157.1805 H   0  0  0  0  0  0  0  0  0  0  0  0  # atno 8009 bound_to 7997
  154.8691  140.2932  155.5496 H   0  0  0  0  0  0  0  0  0  0  0  0  # atno 8010 bound_to 7997
  139.6434  144.0218  152.2109 H   0  0  0  0  0  0  0  0  0  0  0  0  # atno 10167 bound_to 10162
  156.7562  130.9396  151.3116 H   0  0  0  0  0  0  0  0  0  0  0  0  # atno 10718 bound_to 10713
  153.0628  135.5003  154.8132 H   0  0  0  0  0  0  0  0  0  0  0  0  # atno 10763 bound_to 10752
  154.6909  135.2984  154.9484 H   0  0  0  0  0  0  0  0  0  0  0  0  # atno 10764 bound_to 10752
  154.0239  135.6738  153.4827 H   0  0  0  0  0  0  0  0  0  0  0  0  # atno 10765 bound_to 10752
  139.8934  134.8382  156.2776 H   0  0  0  0  0  0  0  0  0  0  0  0  # atno 11005 bound_to 11000
  145.8095  139.1997  143.2001 LP  0  0  0  0  0  0  0  0  0  0  0  0  # atno 17320 bound_to 7965
  146.0608  140.7973  142.9736 LP  0  0  0  0  0  0  0  0  0  0  0  0  # atno 17321 bound_to 7965
  139.9913  144.6359  150.7811 LP  0  0  0  0  0  0  0  0  0  0  0  0  # atno 17342 bound_to 10162
  140.7502  143.2951  151.3225 LP  0  0  0  0  0  0  0  0  0  0  0  0  # atno 17343 bound_to 10162
  157.6755  130.9090  150.0140 LP  0  0  0  0  0  0  0  0  0  0  0  0  # atno 17370 bound_to 10713
  156.1369  130.3642  149.9643 LP  0  0  0  0  0  0  0  0  0  0  0  0  # atno 17371 bound_to 10713
  141.0059  133.7124  156.1035 LP  0  0  0  0  0  0  0  0  0  0  0  0  # atno 17394 bound_to 11000
  140.7433  134.4125  157.5552 LP  0  0  0  0  0  0  0  0  0  0  0  0  # atno 17395 bound_to 11000

$$$$
