AV-unprocessed.smi:21|AV-procd|sdf|154|dock7
  -GOLD-   2262015383D 1   1.00000     0.00000
 Structure written by MMmdl.
 61 64  0  0  0  0  0  0  0  0  1 V2000
  150.9462  145.1820  158.9244 C   0  0  0  0  0  0  0  0  0  0  0  0
  150.9961  143.8094  158.5695 O   0  0  0  0  0  0  0  0  0  0  0  0
  152.2154  143.1778  158.9323 C   0  0  2  0  0  0  0  0  0  0  0  0
  152.2237  141.6668  158.6347 C   0  0  0  0  0  0  0  0  0  0  0  0
  152.4374  141.0012  160.0040 C   0  0  1  0  0  0  0  0  0  0  0  0
  153.2005  139.6600  159.9266 C   0  0  0  0  0  0  0  0  0  0  0  0
  152.3174  138.4939  159.9492 N   0  0  0  0  0  0  0  0  0  0  0  0
  152.7086  137.3558  160.7795 C   0  0  0  0  0  0  0  0  0  0  0  0
  151.3899  138.3038  158.9641 C   0  0  0  0  0  0  0  0  0  0  0  0
  150.2324  137.6626  159.2840 N   0  0  0  0  0  0  0  0  0  0  0  0
  149.2921  137.4358  158.3640 C   0  0  0  0  0  0  0  0  0  0  0  0
  149.2954  137.7632  157.0728 N   0  0  0  0  0  0  0  0  0  0  0  0
  150.4437  138.4143  156.7351 C   0  0  0  0  0  0  0  0  0  0  0  0
  151.5312  138.7263  157.6044 C   0  0  0  0  0  0  0  0  0  0  0  0
  152.5099  139.4050  156.8833 N   0  0  0  0  0  0  0  0  0  0  0  0
  152.0359  139.4832  155.6713 C   0  0  0  0  0  0  0  0  0  0  0  0
  150.7963  138.9174  155.4952 N   0  0  0  0  0  0  0  0  0  0  0  0
  150.0363  138.8685  154.2591 C   0  0  0  0  0  0  0  0  0  0  0  0
  149.4508  140.2383  153.8255 C   0  0  2  0  0  0  0  0  0  0  0  0
  149.7240  141.3555  154.8655 C   0  0  0  0  0  0  0  0  0  0  0  0
  149.3746  142.6323  154.3705 O   0  0  0  0  0  0  0  0  0  0  0  0
  147.9324  140.1105  153.5361 C   0  0  2  0  0  0  0  0  0  0  0  0
  147.1044  139.5444  154.6781 C   0  0  0  0  0  0  0  0  0  0  0  0
  145.8337  139.1045  153.9640 C   0  0  0  0  0  0  0  0  0  0  0  0
  146.2706  138.6231  152.7008 O   0  0  0  0  0  0  0  0  0  0  0  0
  147.5716  139.1283  152.4117 C   0  0  0  0  0  0  0  0  0  0  0  0
  153.0843  142.0177  160.8178 N   0  0  0  0  0  0  0  0  0  0  0  0
  153.0120  141.7565  162.2494 C   0  0  0  0  0  0  0  0  0  0  0  0
  152.3993  143.2409  160.4505 C   0  0  0  0  0  0  0  0  0  0  0  0
  153.0655  143.6631  158.4493 H   0  0  0  0  0  0  0  0  0  0  0  0
  151.4481  140.8172  160.4264 H   0  0  0  0  0  0  0  0  0  0  0  0
  149.9868  145.6016  158.6229 H   0  0  0  0  0  0  0  0  0  0  0  0
  151.7315  145.7556  158.4311 H   0  0  0  0  0  0  0  0  0  0  0  0
  151.0447  145.3122  160.0028 H   0  0  0  0  0  0  0  0  0  0  0  0
  151.2976  141.3198  158.1750 H   0  0  0  0  0  0  0  0  0  0  0  0
  153.0405  141.4344  157.9504 H   0  0  0  0  0  0  0  0  0  0  0  0
  153.7903  139.6417  159.0095 H   0  0  0  0  0  0  0  0  0  0  0  0
  153.9368  139.5714  160.7223 H   0  0  0  0  0  0  0  0  0  0  0  0
  151.8358  136.9079  161.2560 H   0  0  0  0  0  0  0  0  0  0  0  0
  153.3929  137.6601  161.5715 H   0  0  0  0  0  0  0  0  0  0  0  0
  153.2080  136.5931  160.1808 H   0  0  0  0  0  0  0  0  0  0  0  0
  148.4122  136.9159  158.7128 H   0  0  0  0  0  0  0  0  0  0  0  0
  152.5762  139.9655  154.8698 H   0  0  0  0  0  0  0  0  0  0  0  0
  150.7015  138.4747  153.4907 H   0  0  0  0  0  0  0  0  0  0  0  0
  149.2347  138.1379  154.3727 H   0  0  0  0  0  0  0  0  0  0  0  0
  149.9322  140.5270  152.8894 H   0  0  0  0  0  0  0  0  0  0  0  0
  149.1369  141.2086  155.7708 H   0  0  0  0  0  0  0  0  0  0  0  0
  150.7709  141.3540  155.1705 H   0  0  0  0  0  0  0  0  0  0  0  0
  149.6242  143.2822  155.0098 H   0  0  0  0  0  0  0  0  0  0  0  0
  147.5306  141.0925  153.2802 H   0  0  0  0  0  0  0  0  0  0  0  0
  147.6020  138.6812  155.1226 H   0  0  0  0  0  0  0  0  0  0  0  0
  146.9036  140.2693  155.4676 H   0  0  0  0  0  0  0  0  0  0  0  0
  145.2825  138.3428  154.5159 H   0  0  0  0  0  0  0  0  0  0  0  0
  145.1714  139.9565  153.8050 H   0  0  0  0  0  0  0  0  0  0  0  0
  147.5883  139.6013  151.4298 H   0  0  0  0  0  0  0  0  0  0  0  0
  148.2642  138.2860  152.3903 H   0  0  0  0  0  0  0  0  0  0  0  0
  153.4587  142.5772  162.8115 H   0  0  0  0  0  0  0  0  0  0  0  0
  153.5536  140.8474  162.5097 H   0  0  0  0  0  0  0  0  0  0  0  0
  151.9786  141.6428  162.5797 H   0  0  0  0  0  0  0  0  0  0  0  0
  152.9543  144.1251  160.7654 H   0  0  0  0  0  0  0  0  0  0  0  0
  151.4208  143.2748  160.9331 H   0  0  0  0  0  0  0  0  0  0  0  0
  1  2  1  0  0  0  0
  1 32  1  0  0  0  0
  1 33  1  0  0  0  0
  1 34  1  0  0  0  0
  2  3  1  0  0  0  0
  3 30  1  0  0  0  0
  3 29  1  0  0  0  0
  3  4  1  0  0  0  0
  4  5  1  0  0  0  0
  4 35  1  0  0  0  0
  4 36  1  0  0  0  0
  5 31  1  0  0  0  0
  5  6  1  0  0  0  0
  5 27  1  0  0  0  0
  6  7  1  0  0  0  0
  6 37  1  0  0  0  0
  6 38  1  0  0  0  0
  7  8  1  0  0  0  0
  7  9  1  0  0  0  0
  8 39  1  0  0  0  0
  8 40  1  0  0  0  0
  8 41  1  0  0  0  0
  9 14  1  0  0  0  0
  9 10  2  0  0  0  0
 10 11  1  0  0  0  0
 11 12  2  0  0  0  0
 11 42  1  0  0  0  0
 12 13  1  0  0  0  0
 13 17  1  0  0  0  0
 13 14  2  0  0  0  0
 14 15  1  0  0  0  0
 15 16  2  0  0  0  0
 16 17  1  0  0  0  0
 16 43  1  0  0  0  0
 17 18  1  0  0  0  0
 18 19  1  0  0  0  0
 18 44  1  0  0  0  0
 18 45  1  0  0  0  0
 19 20  1  0  0  0  0
 19 22  1  0  0  0  0
 19 46  1  0  0  0  0
 20 21  1  0  0  0  0
 20 47  1  0  0  0  0
 20 48  1  0  0  0  0
 21 49  1  0  0  0  0
 22 26  1  0  0  0  0
 22 23  1  0  0  0  0
 22 50  1  0  0  0  0
 23 24  1  0  0  0  0
 23 51  1  0  0  0  0
 23 52  1  0  0  0  0
 24 25  1  0  0  0  0
 24 53  1  0  0  0  0
 24 54  1  0  0  0  0
 25 26  1  0  0  0  0
 26 55  1  0  0  0  0
 26 56  1  0  0  0  0
 27 28  1  0  0  0  0
 27 29  1  0  0  0  0
 28 57  1  0  0  0  0
 28 58  1  0  0  0  0
 28 59  1  0  0  0  0
 29 60  1  0  0  0  0
 29 61  1  0  0  0  0
M  END
> <s_m_source_file>
AV-unprocessed.smi

> <i_m_source_file_index>
21

> <i_lp_mmshare_version>
43012

> <i_f3d_flags>
0

> <s_epik_input>
W0NIM11PW0NASF0xW0NIMl1bQ0BIXShOKFtDSDNdKVtDSDJdMSlbQ0gyXU4oW0NIM10pYyhuW2NIXW4yKWMoYzIzKW5bY0hdbjNbQ0gyXVtDQEhdKFtDSDJdW09IXSlbQ0BASF00W0NIMl1bQ0gyXU9bQ0gyXTQ=

> <s_epik_cmdline>
J2VwaWtfcHl0aG9uJywgJy1waCcsICc3LjAnLCAnLXRuJywgJzgnLCAnLW1hJywgJzIwMCcsICctbWV0YWxfYmluZGluZycsICctaW1hZScsICc8aW5maWxlLm1hZT4nLCAnLW9tYWUnLCAnPG91dGZpbGUubWFlPic=

> <r_lp_tautomer_probability>
1

> <r_epik_Ionization_Penalty>
2.17574

> <r_epik_Ionization_Penalty_Charging>
0

> <r_epik_Ionization_Penalty_Neutral>
2.17574

> <r_epik_State_Penalty>
2.31336

> <r_epik_Charging_Adjusted_Penalty>
2.31336

> <i_epik_Tot_Q>
0

> <i_epik_Tot_abs_Q>
0

> <r_epik_Metal_State_Penalty>
2.31025

> <b_epik_Metal_Only>
0

> <s_lp_Force_Field>
OPLS_2005

> <r_lp_Energy>
69.0307

> <b_lp_Chiralities_Consistent>
1

> <s_lp_Variant>
AV-unprocessed.smi:21-34

> <Gold.Version>
5.8.1

> <Gold.Id.Protein>
6NUR|6NUR_protein|mol2

> <Gold.PLP.Fitness>
51.7870

> <Gold.PLP.PLP>
-50.8713

> <Gold.PLP.part.hbond>
-2.8430

> <Gold.PLP.part.metal>
0.0000

> <Gold.PLP.part.buried>
-5.2825

> <Gold.PLP.part.nonpolar>
-41.7044

> <Gold.PLP.part.repulsive>
0.3188

> <Gold.PLP.ligand.clash>
0.0000

> <Gold.PLP.ligand.torsion>
2.2052

> <Gold.PLP.Chemscore.Hbond>
1.6560

> <Gold.PLP.Chemscore.CHOScore>
0.0000

> <Gold.PLP.Chemscore.Metal>
0.0000

> <Gold.Chemscore.Hbonds>
donor molecule, donor type, donor heavy atom, donor atom, acceptor molecule, acceptor atom, score
      L1  H    21    49       P1  8028  0.69
      P1  H  7997  8010       L1    15  0.99
      P1  H  8011  8017       L1    21  0.01

> <Gold.PLP.Chemscore.Internal.Correction>
0.3583

> <Gold.Rescore>
     Score         DG    S(hbond)    S(metal)    S(lipo)     H(rot)  DE(clash)    DE(int)     intcor
     12.13     -16.58       1.61        0.00     114.49       3.00       0.01       4.44       ----

> <Gold.Chemscore.Fitness>
12.1323

> <Gold.Chemscore.DG>
-16.5805

> <Gold.Chemscore.ZeroCoef>
-5.4800

> <Gold.Chemscore.Hbond>
1.6149

> <Gold.Chemscore.Metal>
0.0000

> <Gold.Chemscore.Lipo>
114.4855

> <Gold.Chemscore.Internal_Hbond>
0.0000

> <Gold.Chemscore.DEClash>
0.0106

> <Gold.Chemscore.DEInternal>
4.4377

> <Gold.Chemscore.Rot>
3.0031

> <Gold.Chemscore.Internal.Correction>
   9.000000E+99

> <Gold.Chemscore.Hbonds>
donor molecule, donor type, donor heavy atom, donor atom, acceptor molecule, acceptor atom, score
      L1  H    21    49       P1  8028  0.68
      P1  H  7997  8010       L1    15  0.51
      P1  H  8011  8017       L1    21  0.02

> <Gold.Chemscore.Hbond.Weighted>
-5.3937

> <Gold.Chemscore.Metal.Weighted>
-0.0000

> <Gold.Chemscore.Lipo.Weighted>
-13.3948

> <Gold.Chemscore.Internal_Hbond.Weighted>
0.0000

> <Gold.Chemscore.DEClash.Weighted>
0.0106

> <Gold.Chemscore.DEInternal.Weighted>
4.4377

> <Gold.Chemscore.Rot.Weighted>
7.6880

> <Gold.Chemscore.Internal.Correction.Weighted>
   9.000000E+99

> <Gold.Protein.RotatedTorsions>
[ 6907 6896 6895 6894 ] final  -26.33 input  -60.11 | X-H torsion
[ 7974 7965 7964 7962 ] final  165.43 input  175.53 | X-H torsion
[ 8008 7997 7996 7995 ] final   49.64 input   59.86 | X-H torsion
[ 10167 10162 10161 10158 ] final   46.00 input  -65.29 | X-H torsion
[ 10718 10713 10712 10709 ] final    9.87 input   66.30 | X-H torsion
[ 10763 10752 10751 10750 ] final   95.34 input  -60.55 | X-H torsion
[ 11005 11000 10999 10996 ] final -128.87 input  -57.11 | X-H torsion

> <Gold.Protein.ActiveResidues>
 VAL166  LYS551  ARG553  GLY616  TRP617  ASP618  TYR619  PRO620  LYS621  CYS622 
 ASP623  PHE694  ASN695  SER759  ASP760  ASP761  ALA762  ILE779  LEU786  VAL792 
 PHE793  MET794  SER795  GLU796  ALA797  LYS798  CYS799  TRP800  GLU811  SER814 

> <Gold.Protein.RotatedAtoms>
  151.1625  135.0280  159.8716 H   0  0  0  0  0  0  0  0  0  0  0  0  # atno 6907 bound_to 6896
  152.5451  134.1263  159.8430 H   0  0  0  0  0  0  0  0  0  0  0  0  # atno 6908 bound_to 6896
  151.1360  133.4958  159.2630 H   0  0  0  0  0  0  0  0  0  0  0  0  # atno 6909 bound_to 6896
  144.7503  139.8470  143.6368 H   0  0  0  0  0  0  0  0  0  0  0  0  # atno 7974 bound_to 7965
  155.4056  140.3440  155.4260 H   0  0  0  0  0  0  0  0  0  0  0  0  # atno 8008 bound_to 7997
  156.1478  140.1562  156.8850 H   0  0  0  0  0  0  0  0  0  0  0  0  # atno 8009 bound_to 7997
  154.5026  140.0810  156.7810 H   0  0  0  0  0  0  0  0  0  0  0  0  # atno 8010 bound_to 7997
  140.3184  144.2735  150.6187 H   0  0  0  0  0  0  0  0  0  0  0  0  # atno 10167 bound_to 10162
  156.9727  130.5975  149.5670 H   0  0  0  0  0  0  0  0  0  0  0  0  # atno 10718 bound_to 10713
  153.2520  135.4257  155.0807 H   0  0  0  0  0  0  0  0  0  0  0  0  # atno 10763 bound_to 10752
  154.8385  135.3428  154.6499 H   0  0  0  0  0  0  0  0  0  0  0  0  # atno 10764 bound_to 10752
  153.6920  135.7033  153.5144 H   0  0  0  0  0  0  0  0  0  0  0  0  # atno 10765 bound_to 10752
  140.9479  134.1105  157.4090 H   0  0  0  0  0  0  0  0  0  0  0  0  # atno 11005 bound_to 11000
  146.1443  139.4508  143.0089 LP  0  0  0  0  0  0  0  0  0  0  0  0  # atno 17320 bound_to 7965
  145.6970  141.0147  143.1525 LP  0  0  0  0  0  0  0  0  0  0  0  0  # atno 17321 bound_to 7965
  140.5506  143.2207  151.7934 LP  0  0  0  0  0  0  0  0  0  0  0  0  # atno 17342 bound_to 10162
  139.4879  144.4482  151.9685 LP  0  0  0  0  0  0  0  0  0  0  0  0  # atno 17343 bound_to 10162
  156.0276  130.5369  150.8449 LP  0  0  0  0  0  0  0  0  0  0  0  0  # atno 17370 bound_to 10713
  157.5581  131.0945  150.9598 LP  0  0  0  0  0  0  0  0  0  0  0  0  # atno 17371 bound_to 10713
  139.8839  135.0057  156.6331 LP  0  0  0  0  0  0  0  0  0  0  0  0  # atno 17394 bound_to 11000
  140.7643  133.8791  155.8442 LP  0  0  0  0  0  0  0  0  0  0  0  0  # atno 17395 bound_to 11000

$$$$
