AV-unprocessed.smi:414|AV-procd|sdf|2515|dock6
  -GOLD-   2262022463D 1   1.00000     0.00000
 Structure written by MMmdl.
 38 39  0  0  0  0  0  0  0  0  1 V2000
  152.6489  145.4596  158.5420 C   0  0  0  0  0  0  0  0  0  0  0  0
  152.0799  144.1521  159.1108 C   0  0  2  0  0  0  0  0  0  0  0  0
  153.1106  143.0098  159.0336 C   0  0  0  0  0  0  0  0  0  0  0  0
  152.5427  141.6951  159.5964 C   0  0  0  0  0  0  0  0  0  0  0  0
  151.2275  141.2828  158.9004 C   0  0  2  0  0  0  0  0  0  0  0  0
  151.4550  140.8775  157.5142 N   0  0  0  0  0  0  0  0  0  0  0  0
  152.3470  139.9638  157.1028 C   0  0  0  0  0  0  0  0  0  0  0  0
  153.0886  139.3521  157.8732 O   0  0  0  0  0  0  0  0  0  0  0  0
  152.4050  139.7259  155.5866 C   0  0  0  0  0  0  0  0  0  0  0  0
  151.1072  139.3592  155.0006 N   0  0  0  0  0  0  0  0  0  0  0  0
  150.0950  140.3034  154.9026 C   0  0  0  0  0  0  0  0  0  0  0  0
  148.8799  140.0415  154.3656 C   0  0  0  0  0  0  0  0  0  0  0  0
  148.5720  138.7125  153.8487 C   0  0  0  0  0  0  0  0  0  0  0  0
  147.5017  138.3775  153.3460 O   0  0  0  0  0  0  0  0  0  0  0  0
  149.6166  137.7911  153.9624 N   0  0  0  0  0  0  0  0  0  0  0  0
  150.8717  138.0550  154.5132 C   0  0  0  0  0  0  0  0  0  0  0  0
  151.7252  137.1699  154.5593 O   0  0  0  0  0  0  0  0  0  0  0  0
  150.2029  142.4323  158.9551 C   0  0  0  0  0  0  0  0  0  0  0  0
  150.7737  143.7499  158.3993 C   0  0  0  0  0  0  0  0  0  0  0  0
  149.4509  136.8578  153.6145 H   0  0  0  0  0  0  0  0  0  0  0  0
  152.9008  145.3563  157.4860 H   0  0  0  0  0  0  0  0  0  0  0  0
  153.5538  145.7576  159.0725 H   0  0  0  0  0  0  0  0  0  0  0  0
  151.9298  146.2739  158.6346 H   0  0  0  0  0  0  0  0  0  0  0  0
  151.8494  144.3251  160.1630 H   0  0  0  0  0  0  0  0  0  0  0  0
  153.4224  142.8610  157.9990 H   0  0  0  0  0  0  0  0  0  0  0  0
  154.0096  143.2821  159.5875 H   0  0  0  0  0  0  0  0  0  0  0  0
  153.2871  140.9025  159.5150 H   0  0  0  0  0  0  0  0  0  0  0  0
  152.3550  141.8192  160.6636 H   0  0  0  0  0  0  0  0  0  0  0  0
  150.8027  140.4298  159.4327 H   0  0  0  0  0  0  0  0  0  0  0  0
  150.8893  141.3324  156.8126 H   0  0  0  0  0  0  0  0  0  0  0  0
  152.8062  140.6177  155.1011 H   0  0  0  0  0  0  0  0  0  0  0  0
  153.1359  138.9398  155.3901 H   0  0  0  0  0  0  0  0  0  0  0  0
  150.2804  141.3032  155.2692 H   0  0  0  0  0  0  0  0  0  0  0  0
  148.1323  140.8200  154.3170 H   0  0  0  0  0  0  0  0  0  0  0  0
  149.2981  142.1582  158.4112 H   0  0  0  0  0  0  0  0  0  0  0  0
  149.8966  142.5876  159.9903 H   0  0  0  0  0  0  0  0  0  0  0  0
  150.0319  144.5415  158.5102 H   0  0  0  0  0  0  0  0  0  0  0  0
  150.9534  143.6488  157.3282 H   0  0  0  0  0  0  0  0  0  0  0  0
  1  2  1  0  0  0  0
  1 21  1  0  0  0  0
  1 22  1  0  0  0  0
  1 23  1  0  0  0  0
  2 19  1  0  0  0  0
  2  3  1  0  0  0  0
  2 24  1  0  0  0  0
  3  4  1  0  0  0  0
  3 25  1  0  0  0  0
  3 26  1  0  0  0  0
  4  5  1  0  0  0  0
  4 27  1  0  0  0  0
  4 28  1  0  0  0  0
  5  6  1  0  0  0  0
  5 18  1  0  0  0  0
  5 29  1  0  0  0  0
  6  7  1  0  0  0  0
  6 30  1  0  0  0  0
  7  8  2  0  0  0  0
  7  9  1  0  0  0  0
  9 10  1  0  0  0  0
  9 31  1  0  0  0  0
  9 32  1  0  0  0  0
 10 16  1  0  0  0  0
 10 11  1  0  0  0  0
 11 12  2  0  0  0  0
 11 33  1  0  0  0  0
 12 13  1  0  0  0  0
 12 34  1  0  0  0  0
 13 14  2  0  0  0  0
 13 15  1  0  0  0  0
 15 20  1  0  0  0  0
 15 16  1  0  0  0  0
 16 17  2  0  0  0  0
 18 19  1  0  0  0  0
 18 35  1  0  0  0  0
 18 36  1  0  0  0  0
 19 37  1  0  0  0  0
 19 38  1  0  0  0  0
M  END
> <s_m_source_file>
AV-unprocessed.smi

> <i_m_source_file_index>
414

> <i_lp_mmshare_version>
43012

> <i_f3d_flags>
0

> <s_epik_input>
W0NIM11bQ0BASF0xW0NIMl1bQ0gyXVtDQEhdKFtDSDJdW0NIMl0xKVtOSF1DKD1PKVtDSDJdbjJbY0hdW2NIXWMoPU8pW25IXWMyPU8=

> <s_epik_cmdline>
J2VwaWtfcHl0aG9uJywgJy1waCcsICc3LjAnLCAnLXRuJywgJzgnLCAnLW1hJywgJzIwMCcsICctbWV0YWxfYmluZGluZycsICctaW1hZScsICc8aW5maWxlLm1hZT4nLCAnLW9tYWUnLCAnPG91dGZpbGUubWFlPic=

> <r_lp_tautomer_probability>
0.999537

> <r_epik_Ionization_Penalty>
0.00309124

> <r_epik_Ionization_Penalty_Charging>
0.00309122

> <r_epik_Ionization_Penalty_Neutral>
1.90469e-08

> <r_epik_State_Penalty>
0.00217484

> <r_epik_Charging_Adjusted_Penalty>
0.00526606

> <i_epik_Tot_Q>
0

> <i_epik_Tot_abs_Q>
0

> <r_epik_Metal_State_Penalty>
0.362537

> <b_epik_Metal_Only>
0

> <s_lp_Force_Field>
OPLS_2005

> <r_lp_Energy>
7.68142

> <b_lp_Chiralities_Consistent>
1

> <s_lp_Variant>
AV-unprocessed.smi:414-2

> <Gold.Version>
5.8.1

> <Gold.Id.Protein>
6NUR|6NUR_protein|mol2

> <Gold.PLP.Fitness>
39.8548

> <Gold.PLP.PLP>
-32.5639

> <Gold.PLP.part.hbond>
-2.9530

> <Gold.PLP.part.metal>
0.0000

> <Gold.PLP.part.buried>
1.4937

> <Gold.PLP.part.nonpolar>
-30.3039

> <Gold.PLP.part.repulsive>
0.7702

> <Gold.PLP.ligand.clash>
0.0028

> <Gold.PLP.ligand.torsion>
0.1568

> <Gold.PLP.Chemscore.Hbond>
2.5333

> <Gold.PLP.Chemscore.CHOScore>
0.0000

> <Gold.PLP.Chemscore.Metal>
0.0000

> <Gold.Chemscore.Hbonds>
donor molecule, donor type, donor heavy atom, donor atom, acceptor molecule, acceptor atom, score
      L1  H    15    20       P1  7948  0.62
      P1  H  7997  8009       L1     8  0.65
      P1  H 10752 10764       L1    17  1.00

> <Gold.PLP.Chemscore.Internal.Correction>
0.0075

> <Gold.Rescore>
     Score         DG    S(hbond)    S(metal)    S(lipo)     H(rot)  DE(clash)    DE(int)     intcor
     13.42     -17.58       1.70        0.00      91.77       1.69       1.82       2.34       ----

> <Gold.Chemscore.Fitness>
13.4236

> <Gold.Chemscore.DG>
-17.5810

> <Gold.Chemscore.ZeroCoef>
-5.4800

> <Gold.Chemscore.Hbond>
1.7016

> <Gold.Chemscore.Metal>
0.0000

> <Gold.Chemscore.Lipo>
91.7717

> <Gold.Chemscore.Internal_Hbond>
0.0000

> <Gold.Chemscore.DEClash>
1.8219

> <Gold.Chemscore.DEInternal>
2.3355

> <Gold.Chemscore.Rot>
1.6874

> <Gold.Chemscore.Internal.Correction>
   9.000000E+99

> <Gold.Chemscore.Hbonds>
donor molecule, donor type, donor heavy atom, donor atom, acceptor molecule, acceptor atom, score
      L1  H    15    20       P1  7948  0.56
      P1  H  7997  8009       L1     8  0.06
      P1  H 10752 10764       L1    17  0.96

> <Gold.Chemscore.Hbond.Weighted>
-5.6835

> <Gold.Chemscore.Metal.Weighted>
-0.0000

> <Gold.Chemscore.Lipo.Weighted>
-10.7373

> <Gold.Chemscore.Internal_Hbond.Weighted>
0.0000

> <Gold.Chemscore.DEClash.Weighted>
1.8219

> <Gold.Chemscore.DEInternal.Weighted>
2.3355

> <Gold.Chemscore.Rot.Weighted>
4.3198

> <Gold.Chemscore.Internal.Correction.Weighted>
   9.000000E+99

> <Gold.Protein.RotatedTorsions>
[ 6907 6896 6895 6894 ] final  176.92 input  -60.11 | X-H torsion
[ 7974 7965 7964 7962 ] final -100.61 input  175.53 | X-H torsion
[ 8008 7997 7996 7995 ] final  149.65 input   59.86 | X-H torsion
[ 10167 10162 10161 10158 ] final  147.62 input  -65.29 | X-H torsion
[ 10718 10713 10712 10709 ] final   49.61 input   66.30 | X-H torsion
[ 10763 10752 10751 10750 ] final  -78.00 input  -60.55 | X-H torsion
[ 11005 11000 10999 10996 ] final  -52.54 input  -57.11 | X-H torsion

> <Gold.Protein.ActiveResidues>
 VAL166  LYS551  ARG553  GLY616  TRP617  ASP618  TYR619  PRO620  LYS621  CYS622 
 ASP623  PHE694  ASN695  SER759  ASP760  ASP761  ALA762  ILE779  LEU786  VAL792 
 PHE793  MET794  SER795  GLU796  ALA797  LYS798  CYS799  TRP800  GLU811  SER814 

> <Gold.Protein.RotatedAtoms>
  151.7123  133.3312  159.3293 H   0  0  0  0  0  0  0  0  0  0  0  0  # atno 6907 bound_to 6896
  150.7688  134.6521  159.6303 H   0  0  0  0  0  0  0  0  0  0  0  0  # atno 6908 bound_to 6896
  152.3704  134.6745  160.0230 H   0  0  0  0  0  0  0  0  0  0  0  0  # atno 6909 bound_to 6896
  145.2923  140.9356  143.2871 H   0  0  0  0  0  0  0  0  0  0  0  0  # atno 7974 bound_to 7965
  156.2747  140.2096  156.5891 H   0  0  0  0  0  0  0  0  0  0  0  0  # atno 8008 bound_to 7997
  154.6996  140.0522  157.0468 H   0  0  0  0  0  0  0  0  0  0  0  0  # atno 8009 bound_to 7997
  155.0753  140.3181  155.4621 H   0  0  0  0  0  0  0  0  0  0  0  0  # atno 8010 bound_to 7997
  139.4887  144.5741  151.6999 H   0  0  0  0  0  0  0  0  0  0  0  0  # atno 10167 bound_to 10162
  157.4803  130.8311  149.8086 H   0  0  0  0  0  0  0  0  0  0  0  0  # atno 10718 bound_to 10713
  154.5202  135.5745  153.6675 H   0  0  0  0  0  0  0  0  0  0  0  0  # atno 10763 bound_to 10752
  152.9915  135.6180  154.2764 H   0  0  0  0  0  0  0  0  0  0  0  0  # atno 10764 bound_to 10752
  154.2685  135.2854  155.2728 H   0  0  0  0  0  0  0  0  0  0  0  0  # atno 10765 bound_to 10752
  141.0930  133.6629  156.4040 H   0  0  0  0  0  0  0  0  0  0  0  0  # atno 11005 bound_to 11000
  144.9162  139.4467  143.6563 LP  0  0  0  0  0  0  0  0  0  0  0  0  # atno 17320 bound_to 7965
  146.3180  139.7998  142.8968 LP  0  0  0  0  0  0  0  0  0  0  0  0  # atno 17321 bound_to 7965
  140.5334  144.0694  150.6061 LP  0  0  0  0  0  0  0  0  0  0  0  0  # atno 17342 bound_to 10162
  140.3692  143.2864  152.0297 LP  0  0  0  0  0  0  0  0  0  0  0  0  # atno 17343 bound_to 10162
  156.0118  130.3830  150.2239 LP  0  0  0  0  0  0  0  0  0  0  0  0  # atno 17370 bound_to 10713
  157.0425  131.0039  151.3279 LP  0  0  0  0  0  0  0  0  0  0  0  0  # atno 17371 bound_to 10713
  140.5208  134.6306  157.5317 LP  0  0  0  0  0  0  0  0  0  0  0  0  # atno 17394 bound_to 11000
  139.9760  134.7215  155.9950 LP  0  0  0  0  0  0  0  0  0  0  0  0  # atno 17395 bound_to 11000

$$$$
