AV-unprocessed.smi:1351|AV-procd|sdf|5525|dock2
  -GOLD-   22720 5113D 1   1.00000     0.00000
 Structure written by MMmdl.
 34 35  0  0  0  0  0  0  0  0  1 V2000
  152.8117  143.9680  162.1627 C   0  0  0  0  0  0  0  0  0  0  0  0
  152.9537  142.8118  161.2862 N   0  0  0  0  0  0  0  0  0  0  0  0
  153.7475  141.6655  161.7172 C   0  0  0  0  0  0  0  0  0  0  0  0
  152.2964  142.7821  160.0349 C   0  0  0  0  0  0  0  0  0  0  0  0
  152.0175  143.9716  159.3168 C   0  0  0  0  0  0  0  0  0  0  0  0
  151.3618  143.8907  158.0732 C   0  0  0  0  0  0  0  0  0  0  0  0
  151.0039  142.6202  157.5672 C   0  0  0  0  0  0  0  0  0  0  0  0
  150.3235  142.4063  156.3381 N   0  0  0  0  0  0  0  0  0  0  0  0
  149.9413  141.2447  155.7740 C   0  0  0  0  0  0  0  0  0  0  0  0
  150.1406  140.1350  156.2677 O   0  0  0  0  0  0  0  0  0  0  0  0
  149.2142  141.3466  154.4239 C   0  0  1  0  0  0  0  0  0  0  0  0
  148.8440  139.9884  153.7959 C   0  0  0  0  0  0  0  0  0  0  0  0
  147.3459  140.0836  153.5572 C   0  0  0  0  0  0  0  0  0  0  0  0
  147.0952  141.5849  153.5625 C   0  0  0  0  0  0  0  0  0  0  0  0
  147.9741  142.0356  154.5781 O   0  0  0  0  0  0  0  0  0  0  0  0
  151.3093  141.4955  158.3578 C   0  0  0  0  0  0  0  0  0  0  0  0
  151.9382  141.5684  159.5490 N   0  0  0  0  0  0  0  0  0  0  0  0
  151.7639  144.1287  162.4187 H   0  0  0  0  0  0  0  0  0  0  0  0
  153.1954  144.8659  161.6775 H   0  0  0  0  0  0  0  0  0  0  0  0
  153.3632  143.8319  163.0930 H   0  0  0  0  0  0  0  0  0  0  0  0
  153.1223  140.7756  161.7979 H   0  0  0  0  0  0  0  0  0  0  0  0
  154.2057  141.8415  162.6905 H   0  0  0  0  0  0  0  0  0  0  0  0
  154.5479  141.4631  161.0047 H   0  0  0  0  0  0  0  0  0  0  0  0
  152.2897  144.9451  159.6953 H   0  0  0  0  0  0  0  0  0  0  0  0
  151.1365  144.8035  157.5445 H   0  0  0  0  0  0  0  0  0  0  0  0
  150.0282  143.2423  155.8540 H   0  0  0  0  0  0  0  0  0  0  0  0
  149.8382  141.9135  153.7315 H   0  0  0  0  0  0  0  0  0  0  0  0
  149.3745  139.8596  152.8516 H   0  0  0  0  0  0  0  0  0  0  0  0
  149.0817  139.1296  154.4251 H   0  0  0  0  0  0  0  0  0  0  0  0
  147.0283  139.6016  152.6321 H   0  0  0  0  0  0  0  0  0  0  0  0
  146.8088  139.6183  154.3848 H   0  0  0  0  0  0  0  0  0  0  0  0
  147.3705  142.0345  152.6071 H   0  0  0  0  0  0  0  0  0  0  0  0
  146.0585  141.8398  153.7828 H   0  0  0  0  0  0  0  0  0  0  0  0
  151.0463  140.5025  158.0234 H   0  0  0  0  0  0  0  0  0  0  0  0
  1  2  1  0  0  0  0
  1 18  1  0  0  0  0
  1 19  1  0  0  0  0
  1 20  1  0  0  0  0
  2  3  1  0  0  0  0
  2  4  1  0  0  0  0
  3 21  1  0  0  0  0
  3 22  1  0  0  0  0
  3 23  1  0  0  0  0
  4 17  1  0  0  0  0
  4  5  2  0  0  0  0
  5  6  1  0  0  0  0
  5 24  1  0  0  0  0
  6  7  2  0  0  0  0
  6 25  1  0  0  0  0
  7  8  1  0  0  0  0
  7 16  1  0  0  0  0
  8  9  1  0  0  0  0
  8 26  1  0  0  0  0
  9 10  2  0  0  0  0
  9 11  1  0  0  0  0
 11 15  1  0  0  0  0
 11 12  1  0  0  0  0
 11 27  1  0  0  0  0
 12 13  1  0  0  0  0
 12 28  1  0  0  0  0
 12 29  1  0  0  0  0
 13 14  1  0  0  0  0
 13 30  1  0  0  0  0
 13 31  1  0  0  0  0
 14 15  1  0  0  0  0
 14 32  1  0  0  0  0
 14 33  1  0  0  0  0
 16 17  2  0  0  0  0
 16 34  1  0  0  0  0
M  END
> <s_m_source_file>
AV-unprocessed.smi

> <i_m_source_file_index>
1351

> <i_lp_mmshare_version>
43012

> <i_f3d_flags>
0

> <s_epik_input>
W0NIM11OKFtDSDNdKWMxW2NIXVtjSF1jKFtjSF1uMSlbTkhdQyg9TylbQ0BASF0yW0NIMl1bQ0gyXVtDSDJdTzI=

> <s_epik_cmdline>
J2VwaWtfcHl0aG9uJywgJy1waCcsICc3LjAnLCAnLXRuJywgJzgnLCAnLW1hJywgJzIwMCcsICctbWV0YWxfYmluZGluZycsICctaW1hZScsICc8aW5maWxlLm1hZT4nLCAnLW9tYWUnLCAnPG91dGZpbGUubWFlPic=

> <r_lp_tautomer_probability>
1

> <r_epik_Ionization_Penalty>
0.225439

> <r_epik_Ionization_Penalty_Charging>
0

> <r_epik_Ionization_Penalty_Neutral>
0.225439

> <r_epik_State_Penalty>
0.21555

> <r_epik_Charging_Adjusted_Penalty>
0.21555

> <i_epik_Tot_Q>
0

> <i_epik_Tot_abs_Q>
0

> <r_epik_Metal_State_Penalty>
0.155168

> <b_epik_Metal_Only>
0

> <s_lp_Force_Field>
OPLS_2005

> <r_lp_Energy>
24.7621

> <b_lp_Chiralities_Consistent>
1

> <s_lp_Variant>
AV-unprocessed.smi:1351-2

> <Gold.Version>
5.8.1

> <Gold.Id.Protein>
6NUR|6NUR_protein|mol2

> <Gold.PLP.Fitness>
41.4464

> <Gold.PLP.PLP>
-39.1600

> <Gold.PLP.part.hbond>
-1.0000

> <Gold.PLP.part.metal>
0.0000

> <Gold.PLP.part.buried>
-1.8899

> <Gold.PLP.part.nonpolar>
-35.3908

> <Gold.PLP.part.repulsive>
0.7937

> <Gold.PLP.ligand.clash>
0.0000

> <Gold.PLP.ligand.torsion>
0.3601

> <Gold.PLP.Chemscore.Hbond>
1.0000

> <Gold.PLP.Chemscore.CHOScore>
0.0000

> <Gold.PLP.Chemscore.Metal>
0.0000

> <Gold.Chemscore.Hbonds>
donor molecule, donor type, donor heavy atom, donor atom, acceptor molecule, acceptor atom, score
      L1  H     8    26       P1  8028  1.00

> <Gold.PLP.Chemscore.Internal.Correction>
0.0066

> <Gold.Rescore>
     Score         DG    S(hbond)    S(metal)    S(lipo)     H(rot)  DE(clash)    DE(int)     intcor
     13.81     -17.02       1.00        0.00      92.05       1.00       1.65       1.56       ----

> <Gold.Chemscore.Fitness>
13.8089

> <Gold.Chemscore.DG>
-17.0196

> <Gold.Chemscore.ZeroCoef>
-5.4800

> <Gold.Chemscore.Hbond>
0.9968

> <Gold.Chemscore.Metal>
0.0000

> <Gold.Chemscore.Lipo>
92.0532

> <Gold.Chemscore.Internal_Hbond>
0.0000

> <Gold.Chemscore.DEClash>
1.6470

> <Gold.Chemscore.DEInternal>
1.5637

> <Gold.Chemscore.Rot>
1.0000

> <Gold.Chemscore.Internal.Correction>
   9.000000E+99

> <Gold.Chemscore.Hbonds>
donor molecule, donor type, donor heavy atom, donor atom, acceptor molecule, acceptor atom, score
      L1  H     8    26       P1  8028  0.96

> <Gold.Chemscore.Hbond.Weighted>
-3.3294

> <Gold.Chemscore.Metal.Weighted>
-0.0000

> <Gold.Chemscore.Lipo.Weighted>
-10.7702

> <Gold.Chemscore.Internal_Hbond.Weighted>
0.0000

> <Gold.Chemscore.DEClash.Weighted>
1.6470

> <Gold.Chemscore.DEInternal.Weighted>
1.5637

> <Gold.Chemscore.Rot.Weighted>
2.5600

> <Gold.Chemscore.Internal.Correction.Weighted>
   9.000000E+99

> <Gold.Protein.RotatedTorsions>
[ 6907 6896 6895 6894 ] final   72.98 input  -60.11 | X-H torsion
[ 7974 7965 7964 7962 ] final  152.14 input  175.53 | X-H torsion
[ 8008 7997 7996 7995 ] final   62.46 input   59.86 | X-H torsion
[ 10167 10162 10161 10158 ] final  -84.50 input  -65.29 | X-H torsion
[ 10718 10713 10712 10709 ] final  -26.11 input   66.30 | X-H torsion
[ 10763 10752 10751 10750 ] final  -91.66 input  -60.55 | X-H torsion
[ 11005 11000 10999 10996 ] final   76.91 input  -57.11 | X-H torsion

> <Gold.Protein.ActiveResidues>
 VAL166  LYS551  ARG553  GLY616  TRP617  ASP618  TYR619  PRO620  LYS621  CYS622 
 ASP623  PHE694  ASN695  SER759  ASP760  ASP761  ALA762  ILE779  LEU786  VAL792 
 PHE793  MET794  SER795  GLU796  ALA797  LYS798  CYS799  TRP800  GLU811  SER814 

> <Gold.Protein.RotatedAtoms>
  152.4898  134.4490  159.9568 H   0  0  0  0  0  0  0  0  0  0  0  0  # atno 6907 bound_to 6896
  151.4480  133.3619  159.2799 H   0  0  0  0  0  0  0  0  0  0  0  0  # atno 6908 bound_to 6896
  150.9041  134.8480  159.7441 H   0  0  0  0  0  0  0  0  0  0  0  0  # atno 6909 bound_to 6896
  144.8243  139.6629  143.6087 H   0  0  0  0  0  0  0  0  0  0  0  0  # atno 7974 bound_to 7965
  155.6147  140.3495  155.4633 H   0  0  0  0  0  0  0  0  0  0  0  0  # atno 8008 bound_to 7997
  156.0127  140.1236  157.0462 H   0  0  0  0  0  0  0  0  0  0  0  0  # atno 8009 bound_to 7997
  154.4286  140.1078  156.5838 H   0  0  0  0  0  0  0  0  0  0  0  0  # atno 8010 bound_to 7997
  140.4127  143.2616  151.8996 H   0  0  0  0  0  0  0  0  0  0  0  0  # atno 10167 bound_to 10162
  156.4556  130.4493  149.6962 H   0  0  0  0  0  0  0  0  0  0  0  0  # atno 10718 bound_to 10713
  154.6783  135.5259  153.8229 H   0  0  0  0  0  0  0  0  0  0  0  0  # atno 10763 bound_to 10752
  153.0547  135.6546  154.0616 H   0  0  0  0  0  0  0  0  0  0  0  0  # atno 10764 bound_to 10752
  154.0506  135.2969  155.3321 H   0  0  0  0  0  0  0  0  0  0  0  0  # atno 10765 bound_to 10752
  139.9277  134.7639  156.1455 H   0  0  0  0  0  0  0  0  0  0  0  0  # atno 11005 bound_to 11000
  146.2549  139.6279  142.9402 LP  0  0  0  0  0  0  0  0  0  0  0  0  # atno 17320 bound_to 7965
  145.5035  141.0437  143.2527 LP  0  0  0  0  0  0  0  0  0  0  0  0  # atno 17321 bound_to 7965
  139.4782  144.5520  151.8371 LP  0  0  0  0  0  0  0  0  0  0  0  0  # atno 17342 bound_to 10162
  140.4620  144.1708  150.5907 LP  0  0  0  0  0  0  0  0  0  0  0  0  # atno 17343 bound_to 10162
  156.3770  130.7560  151.2549 LP  0  0  0  0  0  0  0  0  0  0  0  0  # atno 17370 bound_to 10713
  157.7500  131.0306  150.4146 LP  0  0  0  0  0  0  0  0  0  0  0  0  # atno 17371 bound_to 10713
  141.0846  133.6739  156.2409 LP  0  0  0  0  0  0  0  0  0  0  0  0  # atno 17394 bound_to 11000
  140.6288  134.5285  157.5557 LP  0  0  0  0  0  0  0  0  0  0  0  0  # atno 17395 bound_to 11000

$$$$
