AV-unprocessed.smi:1490|AV-procd|sdf|6030|dock7
  -GOLD-   22720 6133D 1   1.00000     0.00000
 Structure written by MMmdl.
 38 39  0  0  0  0  0  0  0  0  2 V2000
  151.1082  137.8913  154.3542 C   0  0  0  0  0  0  0  0  0  0  0  0
  151.9907  138.9912  154.4858 O   0  0  0  0  0  0  0  0  0  0  0  0
  152.6838  138.9904  155.7233 C   0  0  0  0  0  0  0  0  0  0  0  0
  151.7010  139.3015  156.8608 C   0  0  0  0  0  0  0  0  0  0  0  0
  151.1947  140.6800  156.7961 N   0  0  0  0  0  0  0  0  0  0  0  0
  150.3561  141.2722  155.9004 C   0  0  0  0  0  0  0  0  0  0  0  0
  149.6138  140.4987  154.4991 S   0  0  0  0  0  0  0  0  0  0  0  0
  148.0948  139.7165  155.1113 C   0  0  0  0  0  0  0  0  0  0  0  0
  147.2391  139.1228  153.9942 C   0  0  0  0  0  0  0  0  0  0  0  0
  146.1248  138.6677  154.2484 O   0  0  0  0  0  0  0  0  0  0  0  0
  147.7583  139.1421  152.7580 N   0  0  0  0  0  0  0  0  0  0  0  0
  147.0784  138.6368  151.5742 C   0  0  0  0  0  0  0  0  0  0  0  0
  146.4014  137.3535  151.8189 C   0  0  0  0  0  0  0  0  0  0  0  0
  145.8686  136.3445  152.0102 N   0  0  0  0  0  0  0  0  0  0  0  0
  150.1873  142.5671  156.2871 N   0  3  0  0  0  0  0  0  0  0  0  0
  150.9227  142.8059  157.4498 C   0  0  0  0  0  0  0  0  0  0  0  0
  151.0663  143.9578  158.2168 C   0  0  0  0  0  0  0  0  0  0  0  0
  151.8922  143.8627  159.3566 C   0  0  0  0  0  0  0  0  0  0  0  0
  152.1167  145.2512  160.3556 Cl  0  0  0  0  0  0  0  0  0  0  0  0
  152.5359  142.6542  159.6953 C   0  0  0  0  0  0  0  0  0  0  0  0
  152.3842  141.4920  158.9105 C   0  0  0  0  0  0  0  0  0  0  0  0
  151.5686  141.5968  157.7843 C   0  0  0  0  0  0  0  0  0  0  0  0
  150.5982  137.9445  153.3924 H   0  0  0  0  0  0  0  0  0  0  0  0
  150.3498  137.8975  155.1381 H   0  0  0  0  0  0  0  0  0  0  0  0
  151.6492  136.9450  154.3962 H   0  0  0  0  0  0  0  0  0  0  0  0
  153.1513  138.0181  155.8867 H   0  0  0  0  0  0  0  0  0  0  0  0
  153.4794  139.7369  155.7092 H   0  0  0  0  0  0  0  0  0  0  0  0
  150.8581  138.6101  156.8526 H   0  0  0  0  0  0  0  0  0  0  0  0
  152.1938  139.1733  157.8248 H   0  0  0  0  0  0  0  0  0  0  0  0
  148.3652  138.9289  155.8157 H   0  0  0  0  0  0  0  0  0  0  0  0
  147.5077  140.4526  155.6613 H   0  0  0  0  0  0  0  0  0  0  0  0
  148.6800  139.5336  152.6289 H   0  0  0  0  0  0  0  0  0  0  0  0
  146.3277  139.3609  151.2575 H   0  0  0  0  0  0  0  0  0  0  0  0
  147.7796  138.5121  150.7477 H   0  0  0  0  0  0  0  0  0  0  0  0
  150.5718  144.8831  157.9594 H   0  0  0  0  0  0  0  0  0  0  0  0
  153.1599  142.6162  160.5765 H   0  0  0  0  0  0  0  0  0  0  0  0
  152.8807  140.5721  159.1817 H   0  0  0  0  0  0  0  0  0  0  0  0
  149.6074  143.2340  155.7942 H   0  0  0  0  0  0  0  0  0  0  0  0
  1  2  1  0  0  0  0
  1 23  1  0  0  0  0
  1 24  1  0  0  0  0
  1 25  1  0  0  0  0
  2  3  1  0  0  0  0
  3  4  1  0  0  0  0
  3 26  1  0  0  0  0
  3 27  1  0  0  0  0
  4  5  1  0  0  0  0
  4 28  1  0  0  0  0
  4 29  1  0  0  0  0
  5 22  1  0  0  0  0
  5  6  1  0  0  0  0
  6  7  1  0  0  0  0
  6 15  2  0  0  0  0
  7  8  1  0  0  0  0
  8  9  1  0  0  0  0
  8 30  1  0  0  0  0
  8 31  1  0  0  0  0
  9 10  2  0  0  0  0
  9 11  1  0  0  0  0
 11 12  1  0  0  0  0
 11 32  1  0  0  0  0
 12 13  1  0  0  0  0
 12 33  1  0  0  0  0
 12 34  1  0  0  0  0
 13 14  3  0  0  0  0
 15 16  1  0  0  0  0
 15 38  1  0  0  0  0
 16 22  2  0  0  0  0
 16 17  1  0  0  0  0
 17 18  2  0  0  0  0
 17 35  1  0  0  0  0
 18 19  1  0  0  0  0
 18 20  1  0  0  0  0
 20 21  2  0  0  0  0
 20 36  1  0  0  0  0
 21 22  1  0  0  0  0
 21 37  1  0  0  0  0
M  CHG  1  15   1
M  END
> <s_m_source_file>
AV-unprocessed.smi

> <i_m_source_file_index>
1490

> <i_lp_mmshare_version>
43012

> <i_f3d_flags>
0

> <s_epik_input>
W2NIXTFjKENsKVtjSF1bY0hdYyhjMTIpbihbQ0gyXVtDSDJdT1tDSDNdKWMobjIpU1tDSDJdQyg9TylbTkhdW0NIMl1DI04=

> <s_epik_cmdline>
J2VwaWtfcHl0aG9uJywgJy1waCcsICc3LjAnLCAnLXRuJywgJzgnLCAnLW1hJywgJzIwMCcsICctbWV0YWxfYmluZGluZycsICctaW1hZScsICc8aW5maWxlLm1hZT4nLCAnLW9tYWUnLCAnPG91dGZpbGUubWFlPic=

> <r_epik_Ionization_Penalty>
2.45232

> <r_epik_Ionization_Penalty_Charging>
2.45231

> <r_epik_Ionization_Penalty_Neutral>
6.97855e-06

> <r_epik_State_Penalty>
2.61389

> <r_epik_Charging_Adjusted_Penalty>
5.0662

> <i_epik_Tot_Q>
1

> <i_epik_Tot_abs_Q>
1

> <r_epik_Metal_State_Penalty>
2.62983

> <b_epik_Metal_Only>
0

> <s_lp_Force_Field>
OPLS_2005

> <r_lp_Energy>
5.53111

> <b_lp_Chiralities_Consistent>
1

> <s_lp_Variant>
AV-unprocessed.smi:1490-2

> <Gold.Version>
5.8.1

> <Gold.Id.Protein>
6NUR|6NUR_protein|mol2

> <Gold.PLP.Fitness>
54.3808

> <Gold.PLP.PLP>
-44.4976

> <Gold.PLP.part.hbond>
-2.8571

> <Gold.PLP.part.metal>
0.0000

> <Gold.PLP.part.buried>
-1.0342

> <Gold.PLP.part.nonpolar>
-41.7891

> <Gold.PLP.part.repulsive>
0.5961

> <Gold.PLP.ligand.clash>
0.0000

> <Gold.PLP.ligand.torsion>
0.6326

> <Gold.PLP.Chemscore.Hbond>
3.6960

> <Gold.PLP.Chemscore.CHOScore>
0.0000

> <Gold.PLP.Chemscore.Metal>
0.0000

> <Gold.Chemscore.Hbonds>
donor molecule, donor type, donor heavy atom, donor atom, acceptor molecule, acceptor atom, score
      L1  H    11    32       P1  7957  0.64
      L1  H    15    38       P1  8028  2.00
      P1  H  7989  7998       L1     2  0.66

> <Gold.PLP.Chemscore.Internal.Correction>
0.0604

> <Gold.Rescore>
     Score         DG    S(hbond)    S(metal)    S(lipo)     H(rot)  DE(clash)    DE(int)     intcor
     15.35     -19.06       2.36        0.00     110.94       2.84       1.63       2.08       ----

> <Gold.Chemscore.Fitness>
15.3520

> <Gold.Chemscore.DG>
-19.0634

> <Gold.Chemscore.ZeroCoef>
-5.4800

> <Gold.Chemscore.Hbond>
2.3558

> <Gold.Chemscore.Metal>
0.0000

> <Gold.Chemscore.Lipo>
110.9381

> <Gold.Chemscore.Internal_Hbond>
0.0000

> <Gold.Chemscore.DEClash>
1.6295

> <Gold.Chemscore.DEInternal>
2.0819

> <Gold.Chemscore.Rot>
2.8378

> <Gold.Chemscore.Internal.Correction>
   9.000000E+99

> <Gold.Chemscore.Hbonds>
donor molecule, donor type, donor heavy atom, donor atom, acceptor molecule, acceptor atom, score
      L1  H    11    32       P1  7957  0.64
      L1  H    15    38       P1  8028  0.96
      P1  H  7989  7998       L1     2  0.62

> <Gold.Chemscore.Hbond.Weighted>
-7.8685

> <Gold.Chemscore.Metal.Weighted>
-0.0000

> <Gold.Chemscore.Lipo.Weighted>
-12.9798

> <Gold.Chemscore.Internal_Hbond.Weighted>
0.0000

> <Gold.Chemscore.DEClash.Weighted>
1.6295

> <Gold.Chemscore.DEInternal.Weighted>
2.0819

> <Gold.Chemscore.Rot.Weighted>
7.2649

> <Gold.Chemscore.Internal.Correction.Weighted>
   9.000000E+99

> <Gold.Protein.RotatedTorsions>
[ 6907 6896 6895 6894 ] final  -12.51 input  -60.11 | X-H torsion
[ 7974 7965 7964 7962 ] final  151.39 input  175.53 | X-H torsion
[ 8008 7997 7996 7995 ] final  -72.87 input   59.86 | X-H torsion
[ 10167 10162 10161 10158 ] final    6.26 input  -65.29 | X-H torsion
[ 10718 10713 10712 10709 ] final -172.63 input   66.30 | X-H torsion
[ 10763 10752 10751 10750 ] final  -31.52 input  -60.55 | X-H torsion
[ 11005 11000 10999 10996 ] final  -13.92 input  -57.11 | X-H torsion

> <Gold.Protein.ActiveResidues>
 VAL166  LYS551  ARG553  GLY616  TRP617  ASP618  TYR619  PRO620  LYS621  CYS622 
 ASP623  PHE694  ASN695  SER759  ASP760  ASP761  ALA762  ILE779  LEU786  VAL792 
 PHE793  MET794  SER795  GLU796  ALA797  LYS798  CYS799  TRP800  GLU811  SER814 

> <Gold.Protein.RotatedAtoms>
  151.3694  135.0919  159.9460 H   0  0  0  0  0  0  0  0  0  0  0  0  # atno 6907 bound_to 6896
  152.5140  133.9180  159.7530 H   0  0  0  0  0  0  0  0  0  0  0  0  # atno 6908 bound_to 6896
  150.9590  133.6411  159.2787 H   0  0  0  0  0  0  0  0  0  0  0  0  # atno 6909 bound_to 6896
  144.8296  139.6531  143.6065 H   0  0  0  0  0  0  0  0  0  0  0  0  # atno 7974 bound_to 7965
  154.5201  140.0789  156.8155 H   0  0  0  0  0  0  0  0  0  0  0  0  # atno 8008 bound_to 7997
  155.3595  140.3417  155.4222 H   0  0  0  0  0  0  0  0  0  0  0  0  # atno 8009 bound_to 7997
  156.1671  140.1607  156.8499 H   0  0  0  0  0  0  0  0  0  0  0  0  # atno 8010 bound_to 7997
  140.6437  143.7713  150.7467 H   0  0  0  0  0  0  0  0  0  0  0  0  # atno 10167 bound_to 10162
  156.7584  130.9404  151.3117 H   0  0  0  0  0  0  0  0  0  0  0  0  # atno 10718 bound_to 10713
  153.7988  135.6892  153.4859 H   0  0  0  0  0  0  0  0  0  0  0  0  # atno 10763 bound_to 10752
  153.1702  135.4545  154.9890 H   0  0  0  0  0  0  0  0  0  0  0  0  # atno 10764 bound_to 10752
  154.8015  135.3339  154.7478 H   0  0  0  0  0  0  0  0  0  0  0  0  # atno 10765 bound_to 10752
  140.7811  133.8362  155.9293 H   0  0  0  0  0  0  0  0  0  0  0  0  # atno 11005 bound_to 11000
  146.2599  139.6388  142.9369 LP  0  0  0  0  0  0  0  0  0  0  0  0  # atno 17320 bound_to 7965
  145.4925  141.0438  143.2585 LP  0  0  0  0  0  0  0  0  0  0  0  0  # atno 17321 bound_to 7965
  140.1349  143.4492  152.2231 LP  0  0  0  0  0  0  0  0  0  0  0  0  # atno 17342 bound_to 10162
  139.5647  144.7428  151.4056 LP  0  0  0  0  0  0  0  0  0  0  0  0  # atno 17343 bound_to 10162
  157.6746  130.9082  150.0119 LP  0  0  0  0  0  0  0  0  0  0  0  0  # atno 17370 bound_to 10713
  156.1355  130.3643  149.9663 LP  0  0  0  0  0  0  0  0  0  0  0  0  # atno 17371 bound_to 10713
  140.9482  134.1813  157.4748 LP  0  0  0  0  0  0  0  0  0  0  0  0  # atno 17394 bound_to 11000
  139.8742  134.9898  156.5476 LP  0  0  0  0  0  0  0  0  0  0  0  0  # atno 17395 bound_to 11000

$$$$
