AV-unprocessed.smi:1263|AV-procd|sdf|5312|dock9
  -GOLD-   22720 4433D 1   1.00000     0.00000
 Structure written by MMmdl.
 43 45  0  0  0  0  0  0  0  0  1 V2000
  145.6764  133.2718  151.8741 C   0  0  0  0  0  0  0  0  0  0  0  0
  146.7819  133.6280  152.6972 O   0  0  0  0  0  0  0  0  0  0  0  0
  147.3813  132.6429  153.4591 C   0  0  0  0  0  0  0  0  0  0  0  0
  146.8565  131.3922  153.4240 N   0  0  0  0  0  0  0  0  0  0  0  0
  147.4438  130.4276  154.1614 C   0  0  0  0  0  0  0  0  0  0  0  0
  148.5788  130.6532  154.9613 C   0  0  0  0  0  0  0  0  0  0  0  0
  149.1245  131.9495  155.0004 C   0  0  0  0  0  0  0  0  0  0  0  0
  148.5103  132.9767  154.2434 C   0  0  0  0  0  0  0  0  0  0  0  0
  148.9925  134.3139  154.1942 N   0  0  0  0  0  0  0  0  0  0  0  0
  149.8476  134.9290  155.0289 C   0  0  0  0  0  0  0  0  0  0  0  0
  150.3394  134.4265  156.0393 O   0  0  0  0  0  0  0  0  0  0  0  0
  150.0869  136.1864  154.6300 N   0  0  0  0  0  0  0  0  0  0  0  0
  150.9565  137.1480  155.3027 C   0  0  0  0  0  0  0  0  0  0  0  0
  150.4694  137.3834  156.7413 C   0  0  0  0  0  0  0  0  0  0  0  0
  151.2654  138.5140  157.4165 C   0  0  0  0  0  0  0  0  0  0  0  0
  151.1446  139.7493  156.6417 N   0  0  0  0  0  0  0  0  0  0  0  0
  151.8664  140.8073  157.3296 C   0  0  0  0  0  0  0  0  0  0  0  0
  151.7290  140.8825  158.8331 C   0  0  0  0  0  0  0  0  0  0  0  0
  151.0521  141.9129  157.9616 C   0  0  0  0  0  0  0  0  0  0  0  0
  151.7293  139.5627  155.3135 C   0  0  0  0  0  0  0  0  0  0  0  0
  150.9541  138.4818  154.5397 C   0  0  0  0  0  0  0  0  0  0  0  0
  145.3225  134.1553  151.3429 H   0  0  0  0  0  0  0  0  0  0  0  0
  144.8450  132.8875  152.4669 H   0  0  0  0  0  0  0  0  0  0  0  0
  145.9582  132.5279  151.1275 H   0  0  0  0  0  0  0  0  0  0  0  0
  146.9996  129.4446  154.1060 H   0  0  0  0  0  0  0  0  0  0  0  0
  149.0242  129.8488  155.5277 H   0  0  0  0  0  0  0  0  0  0  0  0
  150.0079  132.1245  155.5945 H   0  0  0  0  0  0  0  0  0  0  0  0
  148.5963  134.8868  153.4632 H   0  0  0  0  0  0  0  0  0  0  0  0
  149.6291  136.5077  153.7896 H   0  0  0  0  0  0  0  0  0  0  0  0
  151.9834  136.7804  155.3431 H   0  0  0  0  0  0  0  0  0  0  0  0
  149.4087  137.6398  156.7403 H   0  0  0  0  0  0  0  0  0  0  0  0
  150.5657  136.4661  157.3232 H   0  0  0  0  0  0  0  0  0  0  0  0
  150.8804  138.6764  158.4239 H   0  0  0  0  0  0  0  0  0  0  0  0
  152.3147  138.2315  157.5165 H   0  0  0  0  0  0  0  0  0  0  0  0
  152.8353  141.1132  156.9380 H   0  0  0  0  0  0  0  0  0  0  0  0
  151.0949  140.1470  159.3245 H   0  0  0  0  0  0  0  0  0  0  0  0
  152.6019  141.1983  159.4008 H   0  0  0  0  0  0  0  0  0  0  0  0
  151.4735  142.9160  157.9488 H   0  0  0  0  0  0  0  0  0  0  0  0
  149.9683  141.8621  157.8745 H   0  0  0  0  0  0  0  0  0  0  0  0
  151.6886  140.5026  154.7619 H   0  0  0  0  0  0  0  0  0  0  0  0
  152.7819  139.2872  155.3988 H   0  0  0  0  0  0  0  0  0  0  0  0
  151.3959  138.3478  153.5518 H   0  0  0  0  0  0  0  0  0  0  0  0
  149.9291  138.8193  154.3773 H   0  0  0  0  0  0  0  0  0  0  0  0
  1  2  1  0  0  0  0
  1 22  1  0  0  0  0
  1 23  1  0  0  0  0
  1 24  1  0  0  0  0
  2  3  1  0  0  0  0
  3  8  1  0  0  0  0
  3  4  2  0  0  0  0
  4  5  1  0  0  0  0
  5  6  2  0  0  0  0
  5 25  1  0  0  0  0
  6  7  1  0  0  0  0
  6 26  1  0  0  0  0
  7  8  2  0  0  0  0
  7 27  1  0  0  0  0
  8  9  1  0  0  0  0
  9 10  1  0  0  0  0
  9 28  1  0  0  0  0
 10 11  2  0  0  0  0
 10 12  1  0  0  0  0
 12 13  1  0  0  0  0
 12 29  1  0  0  0  0
 13 21  1  0  0  0  0
 13 14  1  0  0  0  0
 13 30  1  0  0  0  0
 14 15  1  0  0  0  0
 14 31  1  0  0  0  0
 14 32  1  0  0  0  0
 15 16  1  0  0  0  0
 15 33  1  0  0  0  0
 15 34  1  0  0  0  0
 16 17  1  0  0  0  0
 16 20  1  0  0  0  0
 17 19  1  0  0  0  0
 17 18  1  0  0  0  0
 17 35  1  0  0  0  0
 18 19  1  0  0  0  0
 18 36  1  0  0  0  0
 18 37  1  0  0  0  0
 19 38  1  0  0  0  0
 19 39  1  0  0  0  0
 20 21  1  0  0  0  0
 20 40  1  0  0  0  0
 20 41  1  0  0  0  0
 21 42  1  0  0  0  0
 21 43  1  0  0  0  0
M  END
> <s_m_source_file>
AV-unprocessed.smi

> <i_m_source_file_index>
1263

> <i_lp_mmshare_version>
43012

> <i_f3d_flags>
0

> <s_epik_input>
W0NIM11PYzFuW2NIXVtjSF1bY0hdYzFbTkhdQyg9TylbTkhdW0NIXTJbQ0gyXVtDSDJdTihbQ0gyXVtDSDJdMilbQ0hdM1tDSDJdW0NIMl0z

> <s_epik_cmdline>
J2VwaWtfcHl0aG9uJywgJy1waCcsICc3LjAnLCAnLXRuJywgJzgnLCAnLW1hJywgJzIwMCcsICctbWV0YWxfYmluZGluZycsICctaW1hZScsICc8aW5maWxlLm1hZT4nLCAnLW9tYWUnLCAnPG91dGZpbGUubWFlPic=

> <r_lp_tautomer_probability>
1

> <r_epik_Ionization_Penalty>
1.02543

> <r_epik_Ionization_Penalty_Charging>
0

> <r_epik_Ionization_Penalty_Neutral>
1.02543

> <r_epik_State_Penalty>
1.07599

> <r_epik_Charging_Adjusted_Penalty>
1.07599

> <i_epik_Tot_Q>
0

> <i_epik_Tot_abs_Q>
0

> <r_epik_Metal_State_Penalty>
1.07599

> <b_epik_Metal_Only>
0

> <s_lp_Force_Field>
OPLS_2005

> <r_lp_Energy>
24.353

> <b_lp_Chiralities_Consistent>
1

> <s_lp_Variant>
AV-unprocessed.smi:1263-3

> <Gold.Version>
5.8.1

> <Gold.Id.Protein>
6NUR|6NUR_protein|mol2

> <Gold.PLP.Fitness>
39.0141

> <Gold.PLP.PLP>
-33.8654

> <Gold.PLP.part.hbond>
-3.0000

> <Gold.PLP.part.metal>
0.0000

> <Gold.PLP.part.buried>
-3.0992

> <Gold.PLP.part.nonpolar>
-27.7901

> <Gold.PLP.part.repulsive>
0.8163

> <Gold.PLP.ligand.clash>
0.0000

> <Gold.PLP.ligand.torsion>
0.9244

> <Gold.PLP.Chemscore.Hbond>
1.9420

> <Gold.PLP.Chemscore.CHOScore>
0.0000

> <Gold.PLP.Chemscore.Metal>
0.0000

> <Gold.Chemscore.Hbonds>
donor molecule, donor type, donor heavy atom, donor atom, acceptor molecule, acceptor atom, score
      L1  H     9    28       P1  7948  0.78
      L1  H    12    29       P1  7948  1.00

> <Gold.PLP.Chemscore.Internal.Correction>
1.1715

> <Gold.Rescore>
     Score         DG    S(hbond)    S(metal)    S(lipo)     H(rot)  DE(clash)    DE(int)     intcor
     12.21     -14.20       1.36        0.00      66.41       1.41       0.01       1.98       ----

> <Gold.Chemscore.Fitness>
12.2142

> <Gold.Chemscore.DG>
-14.2024

> <Gold.Chemscore.ZeroCoef>
-5.4800

> <Gold.Chemscore.Hbond>
1.3622

> <Gold.Chemscore.Metal>
0.0000

> <Gold.Chemscore.Lipo>
66.4125

> <Gold.Chemscore.Internal_Hbond>
0.0000

> <Gold.Chemscore.DEClash>
0.0089

> <Gold.Chemscore.DEInternal>
1.9794

> <Gold.Chemscore.Rot>
1.4053

> <Gold.Chemscore.Internal.Correction>
   9.000000E+99

> <Gold.Chemscore.Hbonds>
donor molecule, donor type, donor heavy atom, donor atom, acceptor molecule, acceptor atom, score
      L1  H     9    28       P1  7948  0.49
      L1  H    12    29       P1  7948  0.58

> <Gold.Chemscore.Hbond.Weighted>
-4.5498

> <Gold.Chemscore.Metal.Weighted>
-0.0000

> <Gold.Chemscore.Lipo.Weighted>
-7.7703

> <Gold.Chemscore.Internal_Hbond.Weighted>
0.0000

> <Gold.Chemscore.DEClash.Weighted>
0.0089

> <Gold.Chemscore.DEInternal.Weighted>
1.9794

> <Gold.Chemscore.Rot.Weighted>
3.5977

> <Gold.Chemscore.Internal.Correction.Weighted>
   9.000000E+99

> <Gold.Protein.RotatedTorsions>
[ 6907 6896 6895 6894 ] final  -86.29 input  -60.11 | X-H torsion
[ 7974 7965 7964 7962 ] final  172.77 input  175.53 | X-H torsion
[ 8008 7997 7996 7995 ] final  -88.62 input   59.86 | X-H torsion
[ 10167 10162 10161 10158 ] final -173.60 input  -65.29 | X-H torsion
[ 10718 10713 10712 10709 ] final -158.11 input   66.30 | X-H torsion
[ 10763 10752 10751 10750 ] final  -48.54 input  -60.55 | X-H torsion
[ 11005 11000 10999 10996 ] final -171.97 input  -57.11 | X-H torsion

> <Gold.Protein.ActiveResidues>
 VAL166  LYS551  ARG553  GLY616  TRP617  ASP618  TYR619  PRO620  LYS621  CYS622 
 ASP623  PHE694  ASN695  SER759  ASP760  ASP761  ALA762  ILE779  LEU786  VAL792 
 PHE793  MET794  SER795  GLU796  ALA797  LYS798  CYS799  TRP800  GLU811  SER814 

> <Gold.Protein.RotatedAtoms>
  150.6867  134.3073  159.4731 H   0  0  0  0  0  0  0  0  0  0  0  0  # atno 6907 bound_to 6896
  152.0962  134.9370  160.0580 H   0  0  0  0  0  0  0  0  0  0  0  0  # atno 6908 bound_to 6896
  152.0667  133.4052  159.4478 H   0  0  0  0  0  0  0  0  0  0  0  0  # atno 6909 bound_to 6896
  144.7260  139.9548  143.6433 H   0  0  0  0  0  0  0  0  0  0  0  0  # atno 7974 bound_to 7965
  154.6769  140.0551  157.0225 H   0  0  0  0  0  0  0  0  0  0  0  0  # atno 8008 bound_to 7997
  155.1007  140.3228  155.4529 H   0  0  0  0  0  0  0  0  0  0  0  0  # atno 8009 bound_to 7997
  156.2679  140.2031  156.6133 H   0  0  0  0  0  0  0  0  0  0  0  0  # atno 8010 bound_to 7997
  139.5680  144.1710  152.1341 H   0  0  0  0  0  0  0  0  0  0  0  0  # atno 10167 bound_to 10162
  156.5496  130.8599  151.2775 H   0  0  0  0  0  0  0  0  0  0  0  0  # atno 10718 bound_to 10713
  154.0794  135.6593  153.4835 H   0  0  0  0  0  0  0  0  0  0  0  0  # atno 10763 bound_to 10752
  153.0361  135.5176  154.7489 H   0  0  0  0  0  0  0  0  0  0  0  0  # atno 10764 bound_to 10752
  154.6579  135.3010  154.9872 H   0  0  0  0  0  0  0  0  0  0  0  0  # atno 10765 bound_to 10752
  140.5023  134.5882  157.4992 H   0  0  0  0  0  0  0  0  0  0  0  0  # atno 11005 bound_to 11000
  146.0683  139.3673  143.0539 LP  0  0  0  0  0  0  0  0  0  0  0  0  # atno 17320 bound_to 7965
  145.8002  140.9774  143.1003 LP  0  0  0  0  0  0  0  0  0  0  0  0  # atno 17321 bound_to 7965
  140.1237  144.5350  150.6846 LP  0  0  0  0  0  0  0  0  0  0  0  0  # atno 17342 bound_to 10162
  140.6964  143.2406  151.4990 LP  0  0  0  0  0  0  0  0  0  0  0  0  # atno 17343 bound_to 10162
  157.7390  130.9824  150.2287 LP  0  0  0  0  0  0  0  0  0  0  0  0  # atno 17370 bound_to 10713
  156.2897  130.3744  149.7854 LP  0  0  0  0  0  0  0  0  0  0  0  0  # atno 17371 bound_to 10713
  139.9706  134.7299  156.0049 LP  0  0  0  0  0  0  0  0  0  0  0  0  # atno 17394 bound_to 11000
  141.1429  133.6561  156.3782 LP  0  0  0  0  0  0  0  0  0  0  0  0  # atno 17395 bound_to 11000

$$$$
