AV-unprocessed.smi:2883|AV-procd|sdf|11082|dock3
  -GOLD-   2272015553D 1   1.00000     0.00000
 Structure written by MMmdl.
 39 41  0  0  0  0  0  0  0  0  1 V2000
  151.0927  137.2237  154.4164 C   0  0  0  0  0  0  0  0  0  0  0  0
  151.6989  138.4128  155.1837 C   0  0  0  0  0  0  0  0  0  0  0  0
  151.8879  138.0288  156.6705 C   0  0  0  0  0  0  0  0  0  0  0  0
  153.1135  138.7154  154.6360 C   0  0  0  0  0  0  0  0  0  0  0  0
  150.7768  139.6361  155.0438 C   0  0  0  0  0  0  0  0  0  0  0  0
  149.6731  139.4918  154.2984 N   0  0  0  0  0  0  0  0  0  0  0  0
  148.7972  140.5186  154.2754 C   0  0  0  0  0  0  0  0  0  0  0  0
  149.0069  141.6895  155.0290 C   0  0  0  0  0  0  0  0  0  0  0  0
  150.1762  141.7290  155.8138 C   0  0  0  0  0  0  0  0  0  0  0  0
  150.4422  142.8585  156.5999 N   0  0  0  0  0  0  0  0  0  0  0  0
  151.6118  142.9081  157.4707 C   0  0  1  0  0  0  0  0  0  0  0  0
  151.9628  144.3300  157.9277 C   0  0  0  0  0  0  0  0  0  0  0  0
  151.9567  144.1829  159.4540 C   0  0  2  0  0  0  0  0  0  0  0  0
  153.1226  143.3232  159.9614 C   0  0  0  0  0  0  0  0  0  0  0  0
  152.6826  141.9210  159.5411 C   0  0  0  0  0  0  0  0  0  0  0  0
  151.3604  142.2082  158.8170 C   0  0  1  0  0  0  0  0  0  0  0  0
  150.8765  143.2800  159.6104 O   0  0  0  0  0  0  0  0  0  0  0  0
  151.0427  140.6899  155.8263 N   0  0  0  0  0  0  0  0  0  0  0  0
  151.7202  136.3356  154.4977 H   0  0  0  0  0  0  0  0  0  0  0  0
  150.9806  137.4524  153.3560 H   0  0  0  0  0  0  0  0  0  0  0  0
  150.1058  136.9655  154.8021 H   0  0  0  0  0  0  0  0  0  0  0  0
  150.9502  137.7250  157.1375 H   0  0  0  0  0  0  0  0  0  0  0  0
  152.2890  138.8625  157.2482 H   0  0  0  0  0  0  0  0  0  0  0  0
  152.5789  137.1922  156.7796 H   0  0  0  0  0  0  0  0  0  0  0  0
  153.7835  137.8661  154.7756 H   0  0  0  0  0  0  0  0  0  0  0  0
  153.5606  139.5717  155.1422 H   0  0  0  0  0  0  0  0  0  0  0  0
  153.1005  138.9324  153.5674 H   0  0  0  0  0  0  0  0  0  0  0  0
  147.9200  140.4025  153.6563 H   0  0  0  0  0  0  0  0  0  0  0  0
  148.3022  142.5076  155.0083 H   0  0  0  0  0  0  0  0  0  0  0  0
  149.9187  143.7080  156.4458 H   0  0  0  0  0  0  0  0  0  0  0  0
  152.4531  142.4343  156.9627 H   0  0  0  0  0  0  0  0  0  0  0  0
  152.9260  144.6683  157.5441 H   0  0  0  0  0  0  0  0  0  0  0  0
  151.2046  145.0513  157.6187 H   0  0  0  0  0  0  0  0  0  0  0  0
  151.8354  145.1259  159.9876 H   0  0  0  0  0  0  0  0  0  0  0  0
  154.0754  143.6188  159.5210 H   0  0  0  0  0  0  0  0  0  0  0  0
  153.2113  143.3868  161.0464 H   0  0  0  0  0  0  0  0  0  0  0  0
  153.4105  141.4214  158.9009 H   0  0  0  0  0  0  0  0  0  0  0  0
  152.5139  141.2953  160.4183 H   0  0  0  0  0  0  0  0  0  0  0  0
  150.6968  141.3442  158.7629 H   0  0  0  0  0  0  0  0  0  0  0  0
  1  2  1  0  0  0  0
  1 19  1  0  0  0  0
  1 20  1  0  0  0  0
  1 21  1  0  0  0  0
  2  3  1  0  0  0  0
  2  4  1  0  0  0  0
  2  5  1  0  0  0  0
  3 22  1  0  0  0  0
  3 23  1  0  0  0  0
  3 24  1  0  0  0  0
  4 25  1  0  0  0  0
  4 26  1  0  0  0  0
  4 27  1  0  0  0  0
  5 18  1  0  0  0  0
  5  6  2  0  0  0  0
  6  7  1  0  0  0  0
  7  8  2  0  0  0  0
  7 28  1  0  0  0  0
  8  9  1  0  0  0  0
  8 29  1  0  0  0  0
  9 10  1  0  0  0  0
  9 18  2  0  0  0  0
 10 11  1  0  0  0  0
 10 30  1  0  0  0  0
 11 16  1  0  0  0  0
 11 12  1  0  0  0  0
 11 31  1  0  0  0  0
 12 13  1  0  0  0  0
 12 32  1  0  0  0  0
 12 33  1  0  0  0  0
 13 17  1  0  0  0  0
 13 14  1  0  0  0  0
 13 34  1  0  0  0  0
 14 15  1  0  0  0  0
 14 35  1  0  0  0  0
 14 36  1  0  0  0  0
 15 16  1  0  0  0  0
 15 37  1  0  0  0  0
 15 38  1  0  0  0  0
 16 17  1  0  0  0  0
 16 39  1  0  0  0  0
M  END
> <s_m_source_file>
AV-unprocessed.smi

> <i_m_source_file_index>
2883

> <i_lp_mmshare_version>
43012

> <i_f3d_flags>
0

> <s_epik_input>
W0NIM11DKFtDSDNdKShbQ0gzXSljMW5bY0hdW2NIXWMobjEpW05IXVtDQEhdKFtDSDJdW0NAQEhdMjMpW0NAQEhdKE8zKVtDSDJdW0NIMl0y

> <s_epik_cmdline>
J2VwaWtfcHl0aG9uJywgJy1waCcsICc3LjAnLCAnLXRuJywgJzgnLCAnLW1hJywgJzIwMCcsICctbWV0YWxfYmluZGluZycsICctaW1hZScsICc8aW5maWxlLm1hZT4nLCAnLW9tYWUnLCAnPG91dGZpbGUubWFlPic=

> <r_lp_tautomer_probability>
1

> <r_epik_Ionization_Penalty>
0.453006

> <r_epik_Ionization_Penalty_Charging>
0

> <r_epik_Ionization_Penalty_Neutral>
0.453006

> <r_epik_State_Penalty>
0.455155

> <r_epik_Charging_Adjusted_Penalty>
0.455155

> <i_epik_Tot_Q>
0

> <i_epik_Tot_abs_Q>
0

> <r_epik_Metal_State_Penalty>
0.255592

> <b_epik_Metal_Only>
0

> <s_lp_Force_Field>
OPLS_2005

> <r_lp_Energy>
33.3257

> <b_lp_Chiralities_Consistent>
1

> <s_lp_Variant>
AV-unprocessed.smi:2883-8

> <Gold.Version>
5.8.1

> <Gold.Id.Protein>
6NUR|6NUR_protein|mol2

> <Gold.PLP.Fitness>
43.9226

> <Gold.PLP.PLP>
-41.6347

> <Gold.PLP.part.hbond>
-1.8263

> <Gold.PLP.part.metal>
0.0000

> <Gold.PLP.part.buried>
-3.1156

> <Gold.PLP.part.nonpolar>
-37.2237

> <Gold.PLP.part.repulsive>
0.2749

> <Gold.PLP.ligand.clash>
0.0000

> <Gold.PLP.ligand.torsion>
0.4335

> <Gold.PLP.Chemscore.Hbond>
1.0000

> <Gold.PLP.Chemscore.CHOScore>
0.0000

> <Gold.PLP.Chemscore.Metal>
0.0000

> <Gold.Chemscore.Hbonds>
donor molecule, donor type, donor heavy atom, donor atom, acceptor molecule, acceptor atom, score
      L1  H    10    30       P1  8028  1.00

> <Gold.PLP.Chemscore.Internal.Correction>
0.1549

> <Gold.Rescore>
     Score         DG    S(hbond)    S(metal)    S(lipo)     H(rot)  DE(clash)    DE(int)     intcor
     17.98     -18.39       0.97        0.00     107.82       1.15       0.14       0.27       ----

> <Gold.Chemscore.Fitness>
17.9804

> <Gold.Chemscore.DG>
-18.3920

> <Gold.Chemscore.ZeroCoef>
-5.4800

> <Gold.Chemscore.Hbond>
0.9691

> <Gold.Chemscore.Metal>
0.0000

> <Gold.Chemscore.Lipo>
107.8156

> <Gold.Chemscore.Internal_Hbond>
0.0000

> <Gold.Chemscore.DEClash>
0.1415

> <Gold.Chemscore.DEInternal>
0.2702

> <Gold.Chemscore.Rot>
1.1482

> <Gold.Chemscore.Internal.Correction>
   9.000000E+99

> <Gold.Chemscore.Hbonds>
donor molecule, donor type, donor heavy atom, donor atom, acceptor molecule, acceptor atom, score
      L1  H    10    30       P1  8028  0.98

> <Gold.Chemscore.Hbond.Weighted>
-3.2369

> <Gold.Chemscore.Metal.Weighted>
-0.0000

> <Gold.Chemscore.Lipo.Weighted>
-12.6144

> <Gold.Chemscore.Internal_Hbond.Weighted>
0.0000

> <Gold.Chemscore.DEClash.Weighted>
0.1415

> <Gold.Chemscore.DEInternal.Weighted>
0.2702

> <Gold.Chemscore.Rot.Weighted>
2.9393

> <Gold.Chemscore.Internal.Correction.Weighted>
   9.000000E+99

> <Gold.Protein.RotatedTorsions>
[ 6907 6896 6895 6894 ] final   18.51 input  -60.11 | X-H torsion
[ 7974 7965 7964 7962 ] final   42.59 input  175.53 | X-H torsion
[ 8008 7997 7996 7995 ] final  -38.26 input   59.86 | X-H torsion
[ 10167 10162 10161 10158 ] final -159.69 input  -65.29 | X-H torsion
[ 10718 10713 10712 10709 ] final   30.12 input   66.30 | X-H torsion
[ 10763 10752 10751 10750 ] final -165.46 input  -60.55 | X-H torsion
[ 11005 11000 10999 10996 ] final   34.30 input  -57.11 | X-H torsion

> <Gold.Protein.ActiveResidues>
 VAL166  LYS551  ARG553  GLY616  TRP617  ASP618  TYR619  PRO620  LYS621  CYS622 
 ASP623  PHE694  ASN695  SER759  ASP760  ASP761  ALA762  ILE779  LEU786  VAL792 
 PHE793  MET794  SER795  GLU796  ALA797  LYS798  CYS799  TRP800  GLU811  SER814 

> <Gold.Protein.RotatedAtoms>
  151.8665  135.0505  160.0474 H   0  0  0  0  0  0  0  0  0  0  0  0  # atno 6907 bound_to 6896
  152.2622  133.5303  159.5397 H   0  0  0  0  0  0  0  0  0  0  0  0  # atno 6908 bound_to 6896
  150.7120  134.0730  159.3913 H   0  0  0  0  0  0  0  0  0  0  0  0  # atno 6909 bound_to 6896
  146.0728  139.5283  142.9587 H   0  0  0  0  0  0  0  0  0  0  0  0  # atno 7974 bound_to 7965
  154.4040  140.1582  156.2671 H   0  0  0  0  0  0  0  0  0  0  0  0  # atno 8008 bound_to 7997
  155.8986  140.3434  155.5987 H   0  0  0  0  0  0  0  0  0  0  0  0  # atno 8009 bound_to 7997
  155.7475  140.0800  157.2208 H   0  0  0  0  0  0  0  0  0  0  0  0  # atno 8010 bound_to 7997
  139.6596  143.9937  152.2216 H   0  0  0  0  0  0  0  0  0  0  0  0  # atno 10167 bound_to 10162
  157.2554  130.7135  149.6426 H   0  0  0  0  0  0  0  0  0  0  0  0  # atno 10718 bound_to 10713
  154.6930  135.2974  154.9453 H   0  0  0  0  0  0  0  0  0  0  0  0  # atno 10763 bound_to 10752
  154.0410  135.6657  153.4794 H   0  0  0  0  0  0  0  0  0  0  0  0  # atno 10764 bound_to 10752
  153.0625  135.5107  154.8032 H   0  0  0  0  0  0  0  0  0  0  0  0  # atno 10765 bound_to 10752
  140.2543  134.3267  155.7879 H   0  0  0  0  0  0  0  0  0  0  0  0  # atno 11005 bound_to 11000
  145.6361  141.0294  143.1837 LP  0  0  0  0  0  0  0  0  0  0  0  0  # atno 17320 bound_to 7965
  144.7242  139.7930  143.7371 LP  0  0  0  0  0  0  0  0  0  0  0  0  # atno 17321 bound_to 7965
  139.9672  144.6518  150.8023 LP  0  0  0  0  0  0  0  0  0  0  0  0  # atno 17342 bound_to 10162
  140.7574  143.3086  151.2901 LP  0  0  0  0  0  0  0  0  0  0  0  0  # atno 17343 bound_to 10162
  155.9665  130.4414  150.5340 LP  0  0  0  0  0  0  0  0  0  0  0  0  # atno 17370 bound_to 10713
  157.3233  131.0686  151.1916 LP  0  0  0  0  0  0  0  0  0  0  0  0  # atno 17371 bound_to 10713
  141.2198  133.7372  156.9086 LP  0  0  0  0  0  0  0  0  0  0  0  0  # atno 17394 bound_to 11000
  140.1527  134.9219  157.2614 LP  0  0  0  0  0  0  0  0  0  0  0  0  # atno 17395 bound_to 11000

$$$$
