AV-unprocessed.smi:1046|AV-procd|sdf|4555|dock3
  -GOLD-   22720 2593D 1   1.00000     0.00000
 Structure written by MMmdl.
 54 56  0  0  0  0  0  0  0  0  3 V2000
  153.0345  142.9537  160.6447 C   0  0  0  0  0  0  0  0  0  0  0  0
  152.3176  142.5225  159.3774 C   0  0  0  0  0  0  0  0  0  0  0  0
  152.7596  141.3648  158.6983 C   0  0  0  0  0  0  0  0  0  0  0  0
  152.1242  140.9332  157.5136 C   0  0  0  0  0  0  0  0  0  0  0  0
  152.3872  139.8471  156.6967 N   0  0  0  0  0  0  0  0  0  0  0  0
  151.4594  139.9879  155.7550 C   0  0  0  0  0  0  0  0  0  0  0  0
  150.6132  141.0294  155.8746 N   0  0  0  0  0  0  0  0  0  0  0  0
  149.5207  141.3774  154.9846 C   0  0  0  0  0  0  0  0  0  0  0  0
  148.3652  140.3581  155.0395 C   0  0  1  0  0  0  0  0  0  0  0  0
  148.1471  140.0239  156.3948 O   0  0  0  0  0  0  0  0  0  0  0  0
  147.0451  140.8931  154.4405 C   0  0  0  0  0  0  0  0  0  0  0  0
  146.4706  139.9864  153.4135 N   0  3  2  0  0  0  0  0  0  0  0  0
  146.3004  138.5879  153.8841 C   0  0  0  0  0  0  0  0  0  0  0  0
  145.6286  137.7184  152.8065 C   0  0  0  0  0  0  0  0  0  0  0  0
  146.3866  137.7587  151.5318 N   0  3  1  0  0  0  0  0  0  0  0  0
  145.8120  136.8519  150.5046 C   0  0  0  0  0  0  0  0  0  0  0  0
  145.6131  135.4171  151.0232 C   0  0  0  0  0  0  0  0  0  0  0  0
  145.0624  134.6076  150.0058 O   0  0  0  0  0  0  0  0  0  0  0  0
  146.5599  139.1567  151.0614 C   0  0  0  0  0  0  0  0  0  0  0  0
  147.2301  140.0268  152.1398 C   0  0  0  0  0  0  0  0  0  0  0  0
  151.0229  141.6950  157.0250 C   0  0  0  0  0  0  0  0  0  0  0  0
  150.5732  142.8483  157.6920 C   0  0  0  0  0  0  0  0  0  0  0  0
  151.2209  143.2669  158.8731 C   0  0  0  0  0  0  0  0  0  0  0  0
  150.7314  144.5164  159.5838 C   0  0  0  0  0  0  0  0  0  0  0  0
  153.8750  142.2967  160.8703 H   0  0  0  0  0  0  0  0  0  0  0  0
  152.3532  142.9298  161.4954 H   0  0  0  0  0  0  0  0  0  0  0  0
  153.4228  143.9669  160.5390 H   0  0  0  0  0  0  0  0  0  0  0  0
  153.5958  140.7988  159.0817 H   0  0  0  0  0  0  0  0  0  0  0  0
  151.3842  139.2870  154.9363 H   0  0  0  0  0  0  0  0  0  0  0  0
  149.1650  142.3722  155.2565 H   0  0  0  0  0  0  0  0  0  0  0  0
  149.9127  141.4523  153.9690 H   0  0  0  0  0  0  0  0  0  0  0  0
  148.6808  139.4550  154.5190 H   0  0  0  0  0  0  0  0  0  0  0  0
  148.1301  140.8211  156.9037 H   0  0  0  0  0  0  0  0  0  0  0  0
  146.3304  141.0261  155.2543 H   0  0  0  0  0  0  0  0  0  0  0  0
  147.1845  141.8793  153.9959 H   0  0  0  0  0  0  0  0  0  0  0  0
  147.2739  138.1701  154.1459 H   0  0  0  0  0  0  0  0  0  0  0  0
  145.6933  138.5595  154.7880 H   0  0  0  0  0  0  0  0  0  0  0  0
  145.5640  136.6900  153.1644 H   0  0  0  0  0  0  0  0  0  0  0  0
  144.6064  138.0591  152.6334 H   0  0  0  0  0  0  0  0  0  0  0  0
  144.8429  137.2332  150.1780 H   0  0  0  0  0  0  0  0  0  0  0  0
  146.4513  136.8503  149.6205 H   0  0  0  0  0  0  0  0  0  0  0  0
  146.5756  134.9941  151.3119 H   0  0  0  0  0  0  0  0  0  0  0  0
  144.9779  135.3816  151.9076 H   0  0  0  0  0  0  0  0  0  0  0  0
  145.5498  134.7516  149.2077 H   0  0  0  0  0  0  0  0  0  0  0  0
  147.1690  139.1815  150.1585 H   0  0  0  0  0  0  0  0  0  0  0  0
  145.5873  139.5758  150.7976 H   0  0  0  0  0  0  0  0  0  0  0  0
  147.2954  141.0550  151.7816 H   0  0  0  0  0  0  0  0  0  0  0  0
  148.2520  139.6861  152.3153 H   0  0  0  0  0  0  0  0  0  0  0  0
  149.7400  143.4094  157.2957 H   0  0  0  0  0  0  0  0  0  0  0  0
  149.8587  144.9410  159.0869 H   0  0  0  0  0  0  0  0  0  0  0  0
  151.5118  145.2776  159.5974 H   0  0  0  0  0  0  0  0  0  0  0  0
  150.4522  144.2880  160.6126 H   0  0  0  0  0  0  0  0  0  0  0  0
  145.5496  140.3479  153.2073 H   0  0  0  0  0  0  0  0  0  0  0  0
  147.3074  137.3964  151.7376 H   0  0  0  0  0  0  0  0  0  0  0  0
  1  2  1  0  0  0  0
  1 25  1  0  0  0  0
  1 26  1  0  0  0  0
  1 27  1  0  0  0  0
  2 23  1  0  0  0  0
  2  3  2  0  0  0  0
  3  4  1  0  0  0  0
  3 28  1  0  0  0  0
  4 21  2  0  0  0  0
  4  5  1  0  0  0  0
  5  6  2  0  0  0  0
  6  7  1  0  0  0  0
  6 29  1  0  0  0  0
  7  8  1  0  0  0  0
  7 21  1  0  0  0  0
  8  9  1  0  0  0  0
  8 30  1  0  0  0  0
  8 31  1  0  0  0  0
  9 10  1  0  0  0  0
  9 11  1  0  0  0  0
  9 32  1  0  0  0  0
 10 33  1  0  0  0  0
 11 12  1  0  0  0  0
 11 34  1  0  0  0  0
 11 35  1  0  0  0  0
 12 20  1  0  0  0  0
 12 13  1  0  0  0  0
 12 53  1  0  0  0  0
 13 14  1  0  0  0  0
 13 36  1  0  0  0  0
 13 37  1  0  0  0  0
 14 15  1  0  0  0  0
 14 38  1  0  0  0  0
 14 39  1  0  0  0  0
 15 16  1  0  0  0  0
 15 19  1  0  0  0  0
 15 54  1  0  0  0  0
 16 17  1  0  0  0  0
 16 40  1  0  0  0  0
 16 41  1  0  0  0  0
 17 18  1  0  0  0  0
 17 42  1  0  0  0  0
 17 43  1  0  0  0  0
 18 44  1  0  0  0  0
 19 20  1  0  0  0  0
 19 45  1  0  0  0  0
 19 46  1  0  0  0  0
 20 47  1  0  0  0  0
 20 48  1  0  0  0  0
 21 22  1  0  0  0  0
 22 23  2  0  0  0  0
 22 49  1  0  0  0  0
 23 24  1  0  0  0  0
 24 50  1  0  0  0  0
 24 51  1  0  0  0  0
 24 52  1  0  0  0  0
M  CHG  1  12   1
M  CHG  1  15   1
M  END
> <s_m_source_file>
AV-unprocessed.smi

> <i_m_source_file_index>
1046

> <i_lp_mmshare_version>
43012

> <i_f3d_flags>
0

> <s_epik_input>
W0NIM11jKFtjSF0xKWMoW0NIM10pW2NIXWMoYzEyKW4oW2NIXW4yKVtDSDJdW0NASF0oW09IXSlbQ0gyXU4zW0NIMl1bQ0gyXU4oW0NIMl1bQ0gyXTMpW0NIMl1bQ0gyXVtPSF0=

> <s_epik_cmdline>
J2VwaWtfcHl0aG9uJywgJy1waCcsICc3LjAnLCAnLXRuJywgJzgnLCAnLW1hJywgJzIwMCcsICctbWV0YWxfYmluZGluZycsICctaW1hZScsICc8aW5maWxlLm1hZT4nLCAnLW9tYWUnLCAnPG91dGZpbGUubWFlPic=

> <r_epik_Ionization_Penalty>
3.17398

> <r_epik_Ionization_Penalty_Charging>
3.09061

> <r_epik_Ionization_Penalty_Neutral>
0.0833726

> <r_epik_State_Penalty>
2.17606

> <r_epik_Charging_Adjusted_Penalty>
5.26667

> <i_epik_Tot_Q>
2

> <i_epik_Tot_abs_Q>
2

> <r_epik_Metal_State_Penalty>
2.08587

> <b_epik_Metal_Only>
0

> <s_lp_Force_Field>
OPLS_2005

> <r_lp_Energy>
27.7872

> <b_lp_Chiralities_Consistent>
1

> <s_lp_Variant>
AV-unprocessed.smi:1046-8

> <Gold.Version>
5.8.1

> <Gold.Id.Protein>
6NUR|6NUR_protein|mol2

> <Gold.PLP.Fitness>
60.9969

> <Gold.PLP.PLP>
-44.8828

> <Gold.PLP.part.hbond>
-4.5939

> <Gold.PLP.part.metal>
0.0000

> <Gold.PLP.part.buried>
2.7653

> <Gold.PLP.part.nonpolar>
-42.7027

> <Gold.PLP.part.repulsive>
0.0805

> <Gold.PLP.ligand.clash>
0.0000

> <Gold.PLP.ligand.torsion>
1.0033

> <Gold.PLP.Chemscore.Hbond>
6.0000

> <Gold.PLP.Chemscore.CHOScore>
0.0000

> <Gold.PLP.Chemscore.Metal>
0.0000

> <Gold.Chemscore.Hbonds>
donor molecule, donor type, donor heavy atom, donor atom, acceptor molecule, acceptor atom, score
      L1  H    12    53       P1 10175  2.00
      L1  H    15    54       P1  7948  2.00
      L1  H    18    44       P1  7921  1.00
      P1  H  7997  8009       L1     5  1.00

> <Gold.PLP.Chemscore.Internal.Correction>
0.1207

> <Gold.Rescore>
     Score         DG    S(hbond)    S(metal)    S(lipo)     H(rot)  DE(clash)    DE(int)     intcor
     20.94     -24.85       3.69        0.00     132.20       3.28       2.81       1.10       ----

> <Gold.Chemscore.Fitness>
20.9415

> <Gold.Chemscore.DG>
-24.8538

> <Gold.Chemscore.ZeroCoef>
-5.4800

> <Gold.Chemscore.Hbond>
3.6856

> <Gold.Chemscore.Metal>
0.0000

> <Gold.Chemscore.Lipo>
132.2043

> <Gold.Chemscore.Internal_Hbond>
0.0000

> <Gold.Chemscore.DEClash>
2.8093

> <Gold.Chemscore.DEInternal>
1.1030

> <Gold.Chemscore.Rot>
3.2828

> <Gold.Chemscore.Internal.Correction>
   9.000000E+99

> <Gold.Chemscore.Hbonds>
donor molecule, donor type, donor heavy atom, donor atom, acceptor molecule, acceptor atom, score
      L1  H    12    53       P1 10175  0.93
      L1  H    15    54       P1  7948  0.97
      L1  H    18    44       P1  7921  0.99
      P1  H  7997  8009       L1     5  0.27

> <Gold.Chemscore.Hbond.Weighted>
-12.3098

> <Gold.Chemscore.Metal.Weighted>
-0.0000

> <Gold.Chemscore.Lipo.Weighted>
-15.4679

> <Gold.Chemscore.Internal_Hbond.Weighted>
0.0000

> <Gold.Chemscore.DEClash.Weighted>
2.8093

> <Gold.Chemscore.DEInternal.Weighted>
1.1030

> <Gold.Chemscore.Rot.Weighted>
8.4039

> <Gold.Chemscore.Internal.Correction.Weighted>
   9.000000E+99

> <Gold.Protein.RotatedTorsions>
[ 6907 6896 6895 6894 ] final   24.81 input  -60.11 | X-H torsion
[ 7974 7965 7964 7962 ] final  -18.66 input  175.53 | X-H torsion
[ 8008 7997 7996 7995 ] final -156.77 input   59.86 | X-H torsion
[ 10167 10162 10161 10158 ] final   93.09 input  -65.29 | X-H torsion
[ 10718 10713 10712 10709 ] final -155.24 input   66.30 | X-H torsion
[ 10763 10752 10751 10750 ] final    8.17 input  -60.55 | X-H torsion
[ 11005 11000 10999 10996 ] final   86.40 input  -57.11 | X-H torsion

> <Gold.Protein.ActiveResidues>
 VAL166  LYS551  ARG553  GLY616  TRP617  ASP618  TYR619  PRO620  LYS621  CYS622 
 ASP623  PHE694  ASN695  SER759  ASP760  ASP761  ALA762  ILE779  LEU786  VAL792 
 PHE793  MET794  SER795  GLU796  ALA797  LYS798  CYS799  TRP800  GLU811  SER814 

> <Gold.Protein.RotatedAtoms>
  151.9631  135.0114  160.0548 H   0  0  0  0  0  0  0  0  0  0  0  0  # atno 6907 bound_to 6896
  152.1851  133.4729  159.4987 H   0  0  0  0  0  0  0  0  0  0  0  0  # atno 6908 bound_to 6896
  150.6924  134.1701  159.4252 H   0  0  0  0  0  0  0  0  0  0  0  0  # atno 6909 bound_to 6896
  146.1881  140.3952  142.8468 H   0  0  0  0  0  0  0  0  0  0  0  0  # atno 7974 bound_to 7965
  155.7222  140.0791  157.2326 H   0  0  0  0  0  0  0  0  0  0  0  0  # atno 8008 bound_to 7997
  154.4043  140.1610  156.2469 H   0  0  0  0  0  0  0  0  0  0  0  0  # atno 8009 bound_to 7997
  155.9186  140.3399  155.6158 H   0  0  0  0  0  0  0  0  0  0  0  0  # atno 8010 bound_to 7997
  139.8214  144.6729  150.9514 H   0  0  0  0  0  0  0  0  0  0  0  0  # atno 10167 bound_to 10162
  156.5102  130.8431  151.2643 H   0  0  0  0  0  0  0  0  0  0  0  0  # atno 10718 bound_to 10713
  153.2280  135.6889  153.7923 H   0  0  0  0  0  0  0  0  0  0  0  0  # atno 10763 bound_to 10752
  153.7098  135.3284  155.3244 H   0  0  0  0  0  0  0  0  0  0  0  0  # atno 10764 bound_to 10752
  154.8301  135.4587  154.1154 H   0  0  0  0  0  0  0  0  0  0  0  0  # atno 10765 bound_to 10752
  139.8945  134.8352  156.2715 H   0  0  0  0  0  0  0  0  0  0  0  0  # atno 11005 bound_to 11000
  144.8435  140.6893  143.6214 LP  0  0  0  0  0  0  0  0  0  0  0  0  # atno 17320 bound_to 7965
  145.3877  139.1623  143.4246 LP  0  0  0  0  0  0  0  0  0  0  0  0  # atno 17321 bound_to 7965
  140.7813  143.4088  151.1027 LP  0  0  0  0  0  0  0  0  0  0  0  0  # atno 17342 bound_to 10162
  139.7748  143.8441  152.3127 LP  0  0  0  0  0  0  0  0  0  0  0  0  # atno 17343 bound_to 10162
  157.7451  130.9952  150.2735 LP  0  0  0  0  0  0  0  0  0  0  0  0  # atno 17370 bound_to 10713
  156.3248  130.3791  149.7543 LP  0  0  0  0  0  0  0  0  0  0  0  0  # atno 17371 bound_to 10713
  141.0097  133.7102  156.1092 LP  0  0  0  0  0  0  0  0  0  0  0  0  # atno 17394 bound_to 11000
  140.7384  134.4177  157.5558 LP  0  0  0  0  0  0  0  0  0  0  0  0  # atno 17395 bound_to 11000

$$$$
