AV-unprocessed.smi:1006|AV-procd|sdf|4397|dock10
  -GOLD-   22720 2333D 1   1.00000     0.00000
 Structure written by MMmdl.
 47 49  0  0  0  0  0  0  0  0  3 V2000
  145.6777  137.6608  152.6375 C   0  0  0  0  0  0  0  0  0  0  0  0
  146.4879  138.0423  153.8584 C   0  0  0  0  0  0  0  0  0  0  0  0
  146.0378  139.0065  154.7833 C   0  0  0  0  0  0  0  0  0  0  0  0
  146.8790  139.2784  155.8763 C   0  0  0  0  0  0  0  0  0  0  0  0
  146.5177  140.2153  156.8410 N   0  0  0  0  0  0  0  0  0  0  0  0
  148.0597  138.6472  156.0304 N   0  0  0  0  0  0  0  0  0  0  0  0
  148.4287  137.7427  155.1135 C   0  0  0  0  0  0  0  0  0  0  0  0
  149.9871  136.8908  155.2891 S   0  0  0  0  0  0  0  0  0  0  0  0
  151.1684  138.0465  154.5248 C   0  0  0  0  0  0  0  0  0  0  0  0
  152.1895  138.5837  155.5412 C   0  0  1  0  0  0  0  0  0  0  0  0
  152.9317  139.6310  154.9461 O   0  0  0  0  0  0  0  0  0  0  0  0
  151.5107  139.0873  156.8300 C   0  0  0  0  0  0  0  0  0  0  0  0
  151.1141  140.5011  156.7503 N   0  0  0  0  0  0  0  0  0  0  0  0
  150.3212  141.1285  155.8393 C   0  0  0  0  0  0  0  0  0  0  0  0
  150.2512  142.4422  156.1899 N   0  3  0  0  0  0  0  0  0  0  0  0
  151.0099  142.6581  157.3419 C   0  0  0  0  0  0  0  0  0  0  0  0
  151.2440  143.8173  158.0721 C   0  0  0  0  0  0  0  0  0  0  0  0
  152.0690  143.7051  159.2136 C   0  0  0  0  0  0  0  0  0  0  0  0
  152.3444  144.9531  160.0353 C   0  0  0  0  0  0  0  0  0  0  0  0
  152.6289  142.4566  159.5894 C   0  0  0  0  0  0  0  0  0  0  0  0
  153.5108  142.3464  160.8218 C   0  0  0  0  0  0  0  0  0  0  0  0
  152.3805  141.2894  158.8321 C   0  0  0  0  0  0  0  0  0  0  0  0
  151.5661  141.4169  157.7088 C   0  0  0  0  0  0  0  0  0  0  0  0
  147.6827  137.4273  154.0448 N   0  3  0  0  0  0  0  0  0  0  0  0
  144.6498  138.0147  152.7238 H   0  0  0  0  0  0  0  0  0  0  0  0
  145.6535  136.5775  152.5149 H   0  0  0  0  0  0  0  0  0  0  0  0
  146.1161  138.0998  151.7410 H   0  0  0  0  0  0  0  0  0  0  0  0
  145.0910  139.5124  154.6575 H   0  0  0  0  0  0  0  0  0  0  0  0
  145.6472  140.7247  156.7863 H   0  0  0  0  0  0  0  0  0  0  0  0
  147.1188  140.4215  157.6261 H   0  0  0  0  0  0  0  0  0  0  0  0
  151.6827  137.5492  153.7012 H   0  0  0  0  0  0  0  0  0  0  0  0
  150.6050  138.8773  154.0985 H   0  0  0  0  0  0  0  0  0  0  0  0
  152.8867  137.7858  155.8006 H   0  0  0  0  0  0  0  0  0  0  0  0
  152.9299  139.5084  154.0093 H   0  0  0  0  0  0  0  0  0  0  0  0
  150.6422  138.4801  157.0864 H   0  0  0  0  0  0  0  0  0  0  0  0
  152.2012  138.9983  157.6697 H   0  0  0  0  0  0  0  0  0  0  0  0
  149.8344  140.6679  154.9918 H   0  0  0  0  0  0  0  0  0  0  0  0
  150.8124  144.7639  157.7808 H   0  0  0  0  0  0  0  0  0  0  0  0
  153.4148  145.1564  160.0772 H   0  0  0  0  0  0  0  0  0  0  0  0
  151.9740  144.8301  161.0534 H   0  0  0  0  0  0  0  0  0  0  0  0
  151.8563  145.8287  159.6064 H   0  0  0  0  0  0  0  0  0  0  0  0
  153.8543  141.3232  160.9772 H   0  0  0  0  0  0  0  0  0  0  0  0
  152.9627  142.6519  161.7134 H   0  0  0  0  0  0  0  0  0  0  0  0
  154.3912  142.9815  160.7209 H   0  0  0  0  0  0  0  0  0  0  0  0
  152.8054  140.3405  159.1227 H   0  0  0  0  0  0  0  0  0  0  0  0
  148.0053  136.7310  153.3723 H   0  0  0  0  0  0  0  0  0  0  0  0
  149.7221  143.1377  155.6796 H   0  0  0  0  0  0  0  0  0  0  0  0
  1  2  1  0  0  0  0
  1 25  1  0  0  0  0
  1 26  1  0  0  0  0
  1 27  1  0  0  0  0
  2 24  1  0  0  0  0
  2  3  2  0  0  0  0
  3  4  1  0  0  0  0
  3 28  1  0  0  0  0
  4  5  1  0  0  0  0
  4  6  2  0  0  0  0
  5 29  1  0  0  0  0
  5 30  1  0  0  0  0
  6  7  1  0  0  0  0
  7  8  1  0  0  0  0
  7 24  2  0  0  0  0
  8  9  1  0  0  0  0
  9 10  1  0  0  0  0
  9 31  1  0  0  0  0
  9 32  1  0  0  0  0
 10 11  1  0  0  0  0
 10 12  1  0  0  0  0
 10 33  1  0  0  0  0
 11 34  1  0  0  0  0
 12 13  1  0  0  0  0
 12 35  1  0  0  0  0
 12 36  1  0  0  0  0
 13 23  1  0  0  0  0
 13 14  1  0  0  0  0
 14 15  2  0  0  0  0
 14 37  1  0  0  0  0
 15 16  1  0  0  0  0
 15 47  1  0  0  0  0
 16 23  2  0  0  0  0
 16 17  1  0  0  0  0
 17 18  2  0  0  0  0
 17 38  1  0  0  0  0
 18 19  1  0  0  0  0
 18 20  1  0  0  0  0
 19 39  1  0  0  0  0
 19 40  1  0  0  0  0
 19 41  1  0  0  0  0
 20 21  1  0  0  0  0
 20 22  2  0  0  0  0
 21 42  1  0  0  0  0
 21 43  1  0  0  0  0
 21 44  1  0  0  0  0
 22 23  1  0  0  0  0
 22 45  1  0  0  0  0
 24 46  1  0  0  0  0
M  CHG  1  15   1
M  CHG  1  24   1
M  END
> <s_m_source_file>
AV-unprocessed.smi

> <i_m_source_file_index>
1006

> <i_lp_mmshare_version>
43012

> <i_f3d_flags>
0

> <s_epik_input>
W0NIM11jMVtjSF1jKFtOSDJdKW5jKG4xKVNbQ0gyXVtDQEhdKFtPSF0pW0NIMl1uKFtjSF1uMiljKGMyMylbY0hdYyhbQ0gzXSljKFtjSF0zKVtDSDNd

> <s_epik_cmdline>
J2VwaWtfcHl0aG9uJywgJy1waCcsICc3LjAnLCAnLXRuJywgJzgnLCAnLW1hJywgJzIwMCcsICctbWV0YWxfYmluZGluZycsICctaW1hZScsICc8aW5maWxlLm1hZT4nLCAnLW9tYWUnLCAnPG91dGZpbGUubWFlPic=

> <r_lp_tautomer_probability>
0.999762

> <r_epik_Ionization_Penalty>
1.50932

> <r_epik_Ionization_Penalty_Charging>
1.50929

> <r_epik_Ionization_Penalty_Neutral>
3.48853e-05

> <r_epik_State_Penalty>
1.56619

> <r_epik_Charging_Adjusted_Penalty>
3.07548

> <i_epik_Tot_Q>
2

> <i_epik_Tot_abs_Q>
2

> <r_epik_Metal_State_Penalty>
1.82892

> <b_epik_Metal_Only>
0

> <s_lp_Force_Field>
OPLS_2005

> <r_lp_Energy>
17.0634

> <b_lp_Chiralities_Consistent>
1

> <s_lp_Variant>
AV-unprocessed.smi:1006-8

> <Gold.Version>
5.8.1

> <Gold.Id.Protein>
6NUR|6NUR_protein|mol2

> <Gold.PLP.Fitness>
58.9685

> <Gold.PLP.PLP>
-46.1821

> <Gold.PLP.part.hbond>
-4.0000

> <Gold.PLP.part.metal>
0.0000

> <Gold.PLP.part.buried>
-5.1663

> <Gold.PLP.part.nonpolar>
-38.0500

> <Gold.PLP.part.repulsive>
0.1613

> <Gold.PLP.ligand.clash>
0.0000

> <Gold.PLP.ligand.torsion>
1.1236

> <Gold.PLP.Chemscore.Hbond>
5.0000

> <Gold.PLP.Chemscore.CHOScore>
0.0000

> <Gold.PLP.Chemscore.Metal>
0.0000

> <Gold.Chemscore.Hbonds>
donor molecule, donor type, donor heavy atom, donor atom, acceptor molecule, acceptor atom, score
      L1  H    15    47       P1  8028  1.98
      L1  H    24    46       P1  7948  2.00
      P1  H  7997  8009       L1    11  1.00

> <Gold.PLP.Chemscore.Internal.Correction>
0.0335

> <Gold.Rescore>
     Score         DG    S(hbond)    S(metal)    S(lipo)     H(rot)  DE(clash)    DE(int)     intcor
     19.87     -21.00       2.90        0.00     114.70       2.96       0.16       0.97       ----

> <Gold.Chemscore.Fitness>
19.8691

> <Gold.Chemscore.DG>
-20.9954

> <Gold.Chemscore.ZeroCoef>
-5.4800

> <Gold.Chemscore.Hbond>
2.8961

> <Gold.Chemscore.Metal>
0.0000

> <Gold.Chemscore.Lipo>
114.6968

> <Gold.Chemscore.Internal_Hbond>
0.0000

> <Gold.Chemscore.DEClash>
0.1583

> <Gold.Chemscore.DEInternal>
0.9680

> <Gold.Chemscore.Rot>
2.9599

> <Gold.Chemscore.Internal.Correction>
   9.000000E+99

> <Gold.Chemscore.Hbonds>
donor molecule, donor type, donor heavy atom, donor atom, acceptor molecule, acceptor atom, score
      L1  H    15    47       P1  8028  0.93
      L1  H    24    46       P1  7948  0.96
      P1  H  7997  8009       L1    11  0.89

> <Gold.Chemscore.Hbond.Weighted>
-9.6731

> <Gold.Chemscore.Metal.Weighted>
-0.0000

> <Gold.Chemscore.Lipo.Weighted>
-13.4195

> <Gold.Chemscore.Internal_Hbond.Weighted>
0.0000

> <Gold.Chemscore.DEClash.Weighted>
0.1583

> <Gold.Chemscore.DEInternal.Weighted>
0.9680

> <Gold.Chemscore.Rot.Weighted>
7.5772

> <Gold.Chemscore.Internal.Correction.Weighted>
   9.000000E+99

> <Gold.Protein.RotatedTorsions>
[ 6907 6896 6895 6894 ] final   10.37 input  -60.11 | X-H torsion
[ 7974 7965 7964 7962 ] final  -98.12 input  175.53 | X-H torsion
[ 8008 7997 7996 7995 ] final -120.23 input   59.86 | X-H torsion
[ 10167 10162 10161 10158 ] final  108.05 input  -65.29 | X-H torsion
[ 10718 10713 10712 10709 ] final  -30.72 input   66.30 | X-H torsion
[ 10763 10752 10751 10750 ] final   27.14 input  -60.55 | X-H torsion
[ 11005 11000 10999 10996 ] final   60.05 input  -57.11 | X-H torsion

> <Gold.Protein.ActiveResidues>
 VAL166  LYS551  ARG553  GLY616  TRP617  ASP618  TYR619  PRO620  LYS621  CYS622 
 ASP623  PHE694  ASN695  SER759  ASP760  ASP761  ALA762  ILE779  LEU786  VAL792 
 PHE793  MET794  SER795  GLU796  ALA797  LYS798  CYS799  TRP800  GLU811  SER814 

> <Gold.Protein.RotatedAtoms>
  151.7372  135.0862  160.0309 H   0  0  0  0  0  0  0  0  0  0  0  0  # atno 6907 bound_to 6896
  152.3503  133.6167  159.5948 H   0  0  0  0  0  0  0  0  0  0  0  0  # atno 6908 bound_to 6896
  150.7535  133.9501  159.3524 H   0  0  0  0  0  0  0  0  0  0  0  0  # atno 6909 bound_to 6896
  145.3248  140.9429  143.2695 H   0  0  0  0  0  0  0  0  0  0  0  0  # atno 7974 bound_to 7965
  155.1284  140.0400  157.2768 H   0  0  0  0  0  0  0  0  0  0  0  0  # atno 8008 bound_to 7997
  154.6561  140.2580  155.7134 H   0  0  0  0  0  0  0  0  0  0  0  0  # atno 8009 bound_to 7997
  156.2599  140.2826  156.1014 H   0  0  0  0  0  0  0  0  0  0  0  0  # atno 8010 bound_to 7997
  139.6877  144.7111  151.1402 H   0  0  0  0  0  0  0  0  0  0  0  0  # atno 10167 bound_to 10162
  156.3963  130.4382  149.7356 H   0  0  0  0  0  0  0  0  0  0  0  0  # atno 10718 bound_to 10713
  153.0575  135.6544  154.0541 H   0  0  0  0  0  0  0  0  0  0  0  0  # atno 10763 bound_to 10752
  154.0216  135.2919  155.3381 H   0  0  0  0  0  0  0  0  0  0  0  0  # atno 10764 bound_to 10752
  154.6898  135.5287  153.8444 H   0  0  0  0  0  0  0  0  0  0  0  0  # atno 10765 bound_to 10752
  140.0260  134.6082  155.9573 H   0  0  0  0  0  0  0  0  0  0  0  0  # atno 11005 bound_to 11000
  144.8910  139.4774  143.6678 LP  0  0  0  0  0  0  0  0  0  0  0  0  # atno 17320 bound_to 7965
  146.3068  139.7608  142.9050 LP  0  0  0  0  0  0  0  0  0  0  0  0  # atno 17321 bound_to 7965
  140.7673  143.5604  150.9105 LP  0  0  0  0  0  0  0  0  0  0  0  0  # atno 17342 bound_to 10162
  139.9280  143.6527  152.3082 LP  0  0  0  0  0  0  0  0  0  0  0  0  # atno 17343 bound_to 10162
  156.4390  130.7852  151.2873 LP  0  0  0  0  0  0  0  0  0  0  0  0  # atno 17370 bound_to 10713
  157.7502  131.0130  150.3409 LP  0  0  0  0  0  0  0  0  0  0  0  0  # atno 17371 bound_to 10713
  141.1803  133.6545  156.4992 LP  0  0  0  0  0  0  0  0  0  0  0  0  # atno 17394 bound_to 11000
  140.4306  134.7105  157.4940 LP  0  0  0  0  0  0  0  0  0  0  0  0  # atno 17395 bound_to 11000

$$$$
