AV-unprocessed.smi:1038|AV-procd|sdf|4521|dock5
  -GOLD-   22720 2533D 1   1.00000     0.00000
 Structure written by MMmdl.
 57 58  0  0  0  0  0  0  0  0  2 V2000
  152.6885  142.2254  159.3727 C   0  0  0  0  0  0  0  0  0  0  0  0
  151.9375  142.4067  158.1856 O   0  0  0  0  0  0  0  0  0  0  0  0
  151.6700  141.1841  157.5187 C   0  0  0  0  0  0  0  0  0  0  0  0
  151.0193  141.4639  156.1543 C   0  0  0  0  0  0  0  0  0  0  0  0
  150.6741  140.2220  155.4474 N   0  0  0  0  0  0  0  0  0  0  0  0
  149.3040  139.9741  155.2348 C   0  0  0  0  0  0  0  0  0  0  0  0
  148.8597  138.8720  154.6000 C   0  0  0  0  0  0  0  0  0  0  0  0
  147.4206  138.6739  154.4124 C   0  0  0  0  0  0  0  0  0  0  0  0
  146.5442  139.3785  154.9155 O   0  0  0  0  0  0  0  0  0  0  0  0
  147.1189  137.6290  153.6256 N   0  0  0  0  0  0  0  0  0  0  0  0
  145.7656  137.2065  153.2764 C   0  0  0  0  0  0  0  0  0  0  0  0
  145.6675  135.6825  152.9472 C   0  0  0  0  0  0  0  0  0  0  0  0
  144.2568  135.2015  153.1816 N   0  3  0  0  0  0  0  0  0  0  0  0
  143.2067  135.8385  152.3428 C   0  0  0  0  0  0  0  0  0  0  0  0
  143.8175  135.1806  154.6023 C   0  0  0  0  0  0  0  0  0  0  0  0
  146.1097  135.4964  151.4577 C   0  0  0  0  0  0  0  0  0  0  0  0
  145.9740  134.0967  150.8299 C   0  0  0  0  0  0  0  0  0  0  0  0
  146.7908  132.9949  151.5168 C   0  0  0  0  0  0  0  0  0  0  0  0
  146.1595  132.5468  152.8388 C   0  0  0  0  0  0  0  0  0  0  0  0
  146.5350  133.3985  154.0604 C   0  0  0  0  0  0  0  0  0  0  0  0
  146.6842  134.9252  153.8615 C   0  0  0  0  0  0  0  0  0  0  0  0
  149.8601  137.9264  154.1268 C   0  0  0  0  0  0  0  0  0  0  0  0
  151.1721  138.1616  154.3232 C   0  0  0  0  0  0  0  0  0  0  0  0
  151.6463  139.3638  155.0147 C   0  0  0  0  0  0  0  0  0  0  0  0
  152.8448  139.5821  155.1920 O   0  0  0  0  0  0  0  0  0  0  0  0
  152.8590  143.1905  159.8497 H   0  0  0  0  0  0  0  0  0  0  0  0
  153.6606  141.7785  159.1599 H   0  0  0  0  0  0  0  0  0  0  0  0
  152.1579  141.5885  160.0816 H   0  0  0  0  0  0  0  0  0  0  0  0
  152.6059  140.6438  157.3685 H   0  0  0  0  0  0  0  0  0  0  0  0
  151.0236  140.5492  158.1271 H   0  0  0  0  0  0  0  0  0  0  0  0
  150.1517  142.1139  156.2794 H   0  0  0  0  0  0  0  0  0  0  0  0
  151.7129  142.0413  155.5413 H   0  0  0  0  0  0  0  0  0  0  0  0
  148.6501  140.7434  155.6219 H   0  0  0  0  0  0  0  0  0  0  0  0
  147.8819  137.0888  153.2440 H   0  0  0  0  0  0  0  0  0  0  0  0
  145.1186  137.4688  154.1140 H   0  0  0  0  0  0  0  0  0  0  0  0
  145.4361  137.8071  152.4279 H   0  0  0  0  0  0  0  0  0  0  0  0
  143.0858  136.8948  152.5825 H   0  0  0  0  0  0  0  0  0  0  0  0
  142.2454  135.3546  152.5188 H   0  0  0  0  0  0  0  0  0  0  0  0
  143.3997  135.7510  151.2758 H   0  0  0  0  0  0  0  0  0  0  0  0
  143.6267  136.1865  154.9770 H   0  0  0  0  0  0  0  0  0  0  0  0
  144.5355  134.7057  155.2673 H   0  0  0  0  0  0  0  0  0  0  0  0
  142.8865  134.6204  154.6943 H   0  0  0  0  0  0  0  0  0  0  0  0
  145.5693  136.2017  150.8256 H   0  0  0  0  0  0  0  0  0  0  0  0
  147.1538  135.7913  151.3475 H   0  0  0  0  0  0  0  0  0  0  0  0
  144.9284  133.7966  150.7708 H   0  0  0  0  0  0  0  0  0  0  0  0
  146.3084  134.1668  149.7940 H   0  0  0  0  0  0  0  0  0  0  0  0
  146.8174  132.1344  150.8472 H   0  0  0  0  0  0  0  0  0  0  0  0
  147.8295  133.2974  151.6558 H   0  0  0  0  0  0  0  0  0  0  0  0
  145.0749  132.5081  152.7321 H   0  0  0  0  0  0  0  0  0  0  0  0
  146.4602  131.5185  153.0428 H   0  0  0  0  0  0  0  0  0  0  0  0
  145.8090  133.1960  154.8472 H   0  0  0  0  0  0  0  0  0  0  0  0
  147.4820  133.0297  154.4566 H   0  0  0  0  0  0  0  0  0  0  0  0
  147.6936  135.1101  153.4915 H   0  0  0  0  0  0  0  0  0  0  0  0
  146.6843  135.3748  154.8552 H   0  0  0  0  0  0  0  0  0  0  0  0
  149.5796  137.0213  153.6087 H   0  0  0  0  0  0  0  0  0  0  0  0
  151.8964  137.4461  153.9620 H   0  0  0  0  0  0  0  0  0  0  0  0
  144.2711  134.2329  152.8948 H   0  0  0  0  0  0  0  0  0  0  0  0
  1  2  1  0  0  0  0
  1 26  1  0  0  0  0
  1 27  1  0  0  0  0
  1 28  1  0  0  0  0
  2  3  1  0  0  0  0
  3  4  1  0  0  0  0
  3 29  1  0  0  0  0
  3 30  1  0  0  0  0
  4  5  1  0  0  0  0
  4 31  1  0  0  0  0
  4 32  1  0  0  0  0
  5 24  1  0  0  0  0
  5  6  1  0  0  0  0
  6  7  2  0  0  0  0
  6 33  1  0  0  0  0
  7  8  1  0  0  0  0
  7 22  1  0  0  0  0
  8  9  2  0  0  0  0
  8 10  1  0  0  0  0
 10 11  1  0  0  0  0
 10 34  1  0  0  0  0
 11 12  1  0  0  0  0
 11 35  1  0  0  0  0
 11 36  1  0  0  0  0
 12 21  1  0  0  0  0
 12 13  1  0  0  0  0
 12 16  1  0  0  0  0
 13 14  1  0  0  0  0
 13 15  1  0  0  0  0
 13 57  1  0  0  0  0
 14 37  1  0  0  0  0
 14 38  1  0  0  0  0
 14 39  1  0  0  0  0
 15 40  1  0  0  0  0
 15 41  1  0  0  0  0
 15 42  1  0  0  0  0
 16 17  1  0  0  0  0
 16 43  1  0  0  0  0
 16 44  1  0  0  0  0
 17 18  1  0  0  0  0
 17 45  1  0  0  0  0
 17 46  1  0  0  0  0
 18 19  1  0  0  0  0
 18 47  1  0  0  0  0
 18 48  1  0  0  0  0
 19 20  1  0  0  0  0
 19 49  1  0  0  0  0
 19 50  1  0  0  0  0
 20 21  1  0  0  0  0
 20 51  1  0  0  0  0
 20 52  1  0  0  0  0
 21 53  1  0  0  0  0
 21 54  1  0  0  0  0
 22 23  2  0  0  0  0
 22 55  1  0  0  0  0
 23 24  1  0  0  0  0
 23 56  1  0  0  0  0
 24 25  2  0  0  0  0
M  CHG  1  13   1
M  END
> <s_m_source_file>
AV-unprocessed.smi

> <i_m_source_file_index>
1038

> <i_lp_mmshare_version>
43012

> <i_f3d_flags>
0

> <s_epik_input>
W0NIM11PW0NIMl1bQ0gyXW4xW2NIXWMoW2NIXVtjSF1jMT1PKUMoPU8pW05IXVtDSDJdQzIoTihbQ0gzXSlbQ0gzXSlbQ0gyXVtDSDJdW0NIMl1bQ0gyXVtDSDJdW0NIMl0y

> <s_epik_cmdline>
J2VwaWtfcHl0aG9uJywgJy1waCcsICc3LjAnLCAnLXRuJywgJzgnLCAnLW1hJywgJzIwMCcsICctbWV0YWxfYmluZGluZycsICctaW1hZScsICc8aW5maWxlLm1hZT4nLCAnLW9tYWUnLCAnPG91dGZpbGUubWFlPic=

> <r_lp_tautomer_probability>
1

> <r_epik_Ionization_Penalty>
0.00379096

> <r_epik_Ionization_Penalty_Charging>
0.0037899

> <r_epik_Ionization_Penalty_Neutral>
1.06849e-06

> <r_epik_State_Penalty>
0.00270348

> <r_epik_Charging_Adjusted_Penalty>
0.00649338

> <i_epik_Tot_Q>
1

> <i_epik_Tot_abs_Q>
1

> <r_epik_Metal_State_Penalty>
-0

> <b_epik_Metal_Only>
0

> <s_lp_Force_Field>
OPLS_2005

> <r_lp_Energy>
50.9414

> <b_lp_Chiralities_Consistent>
1

> <s_lp_Variant>
AV-unprocessed.smi:1038-1

> <Gold.Version>
5.8.1

> <Gold.Id.Protein>
6NUR|6NUR_protein|mol2

> <Gold.PLP.Fitness>
39.9581

> <Gold.PLP.PLP>
-35.1597

> <Gold.PLP.part.hbond>
-2.5870

> <Gold.PLP.part.metal>
0.0000

> <Gold.PLP.part.buried>
-0.3674

> <Gold.PLP.part.nonpolar>
-31.5299

> <Gold.PLP.part.repulsive>
0.0894

> <Gold.PLP.ligand.clash>
0.0482

> <Gold.PLP.ligand.torsion>
0.7029

> <Gold.PLP.Chemscore.Hbond>
2.0000

> <Gold.PLP.Chemscore.CHOScore>
0.0000

> <Gold.PLP.Chemscore.Metal>
0.0000

> <Gold.Chemscore.Hbonds>
donor molecule, donor type, donor heavy atom, donor atom, acceptor molecule, acceptor atom, score
      L1  H    10    34       P1  7948  1.00
      P1  H  7997  8010       L1    25  1.00

> <Gold.PLP.Chemscore.Internal.Correction>
0.2524

> <Gold.Rescore>
     Score         DG    S(hbond)    S(metal)    S(lipo)     H(rot)  DE(clash)    DE(int)     intcor
     15.69     -17.63       1.96        0.00      88.77       1.86       1.24       0.69       ----

> <Gold.Chemscore.Fitness>
15.6900

> <Gold.Chemscore.DG>
-17.6252

> <Gold.Chemscore.ZeroCoef>
-5.4800

> <Gold.Chemscore.Hbond>
1.9560

> <Gold.Chemscore.Metal>
0.0000

> <Gold.Chemscore.Lipo>
88.7711

> <Gold.Chemscore.Internal_Hbond>
0.0000

> <Gold.Chemscore.DEClash>
1.2431

> <Gold.Chemscore.DEInternal>
0.6921

> <Gold.Chemscore.Rot>
1.8649

> <Gold.Chemscore.Internal.Correction>
   9.000000E+99

> <Gold.Chemscore.Hbonds>
donor molecule, donor type, donor heavy atom, donor atom, acceptor molecule, acceptor atom, score
      L1  H    10    34       P1  7948  0.98
      P1  H  7997  8010       L1    25  1.00

> <Gold.Chemscore.Hbond.Weighted>
-6.5331

> <Gold.Chemscore.Metal.Weighted>
-0.0000

> <Gold.Chemscore.Lipo.Weighted>
-10.3862

> <Gold.Chemscore.Internal_Hbond.Weighted>
0.0000

> <Gold.Chemscore.DEClash.Weighted>
1.2431

> <Gold.Chemscore.DEInternal.Weighted>
0.6921

> <Gold.Chemscore.Rot.Weighted>
4.7741

> <Gold.Chemscore.Internal.Correction.Weighted>
   9.000000E+99

> <Gold.Protein.RotatedTorsions>
[ 6907 6896 6895 6894 ] final  108.28 input  -60.11 | X-H torsion
[ 7974 7965 7964 7962 ] final  112.28 input  175.53 | X-H torsion
[ 8008 7997 7996 7995 ] final  103.18 input   59.86 | X-H torsion
[ 10167 10162 10161 10158 ] final   15.89 input  -65.29 | X-H torsion
[ 10718 10713 10712 10709 ] final -169.05 input   66.30 | X-H torsion
[ 10763 10752 10751 10750 ] final   97.68 input  -60.55 | X-H torsion
[ 11005 11000 10999 10996 ] final  -11.57 input  -57.11 | X-H torsion

> <Gold.Protein.ActiveResidues>
 VAL166  LYS551  ARG553  GLY616  TRP617  ASP618  TYR619  PRO620  LYS621  CYS622 
 ASP623  PHE694  ASN695  SER759  ASP760  ASP761  ALA762  ILE779  LEU786  VAL792 
 PHE793  MET794  SER795  GLU796  ALA797  LYS798  CYS799  TRP800  GLU811  SER814 

> <Gold.Protein.RotatedAtoms>
  152.5119  133.9112  159.7488 H   0  0  0  0  0  0  0  0  0  0  0  0  # atno 6907 bound_to 6896
  150.9505  133.6546  159.2780 H   0  0  0  0  0  0  0  0  0  0  0  0  # atno 6908 bound_to 6896
  151.3826  135.0947  159.9553 H   0  0  0  0  0  0  0  0  0  0  0  0  # atno 6909 bound_to 6896
  145.2315  139.2817  143.4165 H   0  0  0  0  0  0  0  0  0  0  0  0  # atno 7974 bound_to 7965
  156.1460  140.3169  155.8571 H   0  0  0  0  0  0  0  0  0  0  0  0  # atno 8008 bound_to 7997
  155.4062  140.0503  157.3051 H   0  0  0  0  0  0  0  0  0  0  0  0  # atno 8009 bound_to 7997
  154.5017  140.2132  155.9345 H   0  0  0  0  0  0  0  0  0  0  0  0  # atno 8010 bound_to 7997
  140.5835  143.8934  150.6810 H   0  0  0  0  0  0  0  0  0  0  0  0  # atno 10167 bound_to 10162
  156.7059  130.9214  151.3084 H   0  0  0  0  0  0  0  0  0  0  0  0  # atno 10718 bound_to 10713
  153.2798  135.4175  155.1068 H   0  0  0  0  0  0  0  0  0  0  0  0  # atno 10763 bound_to 10752
  154.8485  135.3492  154.6127 H   0  0  0  0  0  0  0  0  0  0  0  0  # atno 10764 bound_to 10752
  153.6548  135.7051  153.5254 H   0  0  0  0  0  0  0  0  0  0  0  0  # atno 10765 bound_to 10752
  140.7566  133.8548  155.9090 H   0  0  0  0  0  0  0  0  0  0  0  0  # atno 11005 bound_to 11000
  146.3351  140.2652  142.8603 LP  0  0  0  0  0  0  0  0  0  0  0  0  # atno 17320 bound_to 7965
  144.9672  140.8333  143.5477 LP  0  0  0  0  0  0  0  0  0  0  0  0  # atno 17321 bound_to 7965
  140.2439  143.3643  152.1463 LP  0  0  0  0  0  0  0  0  0  0  0  0  # atno 17342 bound_to 10162
  139.5184  144.7005  151.5507 LP  0  0  0  0  0  0  0  0  0  0  0  0  # atno 17343 bound_to 10162
  157.6955  130.9277  150.0633 LP  0  0  0  0  0  0  0  0  0  0  0  0  # atno 17370 bound_to 10713
  156.1696  130.3646  149.9184 LP  0  0  0  0  0  0  0  0  0  0  0  0  # atno 17371 bound_to 10713
  140.9701  134.1542  157.4583 LP  0  0  0  0  0  0  0  0  0  0  0  0  # atno 17394 bound_to 11000
  139.8778  134.9975  156.5853 LP  0  0  0  0  0  0  0  0  0  0  0  0  # atno 17395 bound_to 11000

$$$$
