AV-unprocessed.smi:1643|AV-procd|sdf|6572|dock8
  -GOLD-   22720 7253D 1   1.00000     0.00000
 Structure written by MMmdl.
 54 56  0  0  0  0  0  0  0  0  2 V2000
  153.3689  141.6974  160.7583 C   0  0  0  0  0  0  0  0  0  0  0  0
  152.7388  143.0924  160.7273 C   0  0  0  0  0  0  0  0  0  0  0  0
  152.5606  143.6700  161.7998 O   0  0  0  0  0  0  0  0  0  0  0  0
  152.4105  143.6465  159.5340 N   0  0  0  0  0  0  0  0  0  0  0  0
  151.9078  145.0255  159.4451 C   0  0  0  0  0  0  0  0  0  0  0  0
  150.3724  145.0818  159.2806 C   0  0  0  0  0  0  0  0  0  0  0  0
  149.6869  143.7534  158.8878 C   0  0  0  0  0  0  0  0  0  0  0  0
  150.0705  143.2106  157.5516 N   0  3  2  0  0  0  0  0  0  0  0  0
  149.5865  141.8199  157.3327 C   0  0  0  0  0  0  0  0  0  0  0  0
  149.6240  141.3779  155.8548 C   0  0  2  0  0  0  0  0  0  0  0  0
  149.4357  142.5314  155.0600 O   0  0  0  0  0  0  0  0  0  0  0  0
  148.5384  140.3374  155.5104 C   0  0  0  0  0  0  0  0  0  0  0  0
  147.2509  140.6646  156.0964 N   0  0  0  0  0  0  0  0  0  0  0  0
  146.6941  140.1085  157.1895 C   0  0  0  0  0  0  0  0  0  0  0  0
  145.4971  140.5547  157.5574 N   0  0  0  0  0  0  0  0  0  0  0  0
  145.2477  141.5146  156.5915 C   0  0  0  0  0  0  0  0  0  0  0  0
  144.1343  142.3632  156.4082 C   0  0  0  0  0  0  0  0  0  0  0  0
  144.0911  143.2800  155.3338 C   0  0  0  0  0  0  0  0  0  0  0  0
  142.8730  144.1727  155.1730 C   0  0  0  0  0  0  0  0  0  0  0  0
  145.1745  143.3580  154.4222 C   0  0  0  0  0  0  0  0  0  0  0  0
  145.1498  144.3354  153.2604 C   0  0  0  0  0  0  0  0  0  0  0  0
  146.2948  142.5176  154.5909 C   0  0  0  0  0  0  0  0  0  0  0  0
  146.3258  141.6090  155.6635 C   0  0  0  0  0  0  0  0  0  0  0  0
  151.5032  143.3737  157.1671 C   0  0  0  0  0  0  0  0  0  0  0  0
  152.5296  142.9374  158.2458 C   0  0  0  0  0  0  0  0  0  0  0  0
  154.2054  141.6288  160.0623 H   0  0  0  0  0  0  0  0  0  0  0  0
  152.6316  140.9356  160.5042 H   0  0  0  0  0  0  0  0  0  0  0  0
  153.7500  141.4720  161.7550 H   0  0  0  0  0  0  0  0  0  0  0  0
  152.2026  145.6256  160.3076 H   0  0  0  0  0  0  0  0  0  0  0  0
  152.3971  145.5273  158.6100 H   0  0  0  0  0  0  0  0  0  0  0  0
  149.9442  145.4022  160.2311 H   0  0  0  0  0  0  0  0  0  0  0  0
  150.1104  145.8632  158.5663 H   0  0  0  0  0  0  0  0  0  0  0  0
  149.8643  143.0024  159.6592 H   0  0  0  0  0  0  0  0  0  0  0  0
  148.6108  143.9249  158.8885 H   0  0  0  0  0  0  0  0  0  0  0  0
  150.1978  141.1230  157.9081 H   0  0  0  0  0  0  0  0  0  0  0  0
  148.5729  141.7318  157.7279 H   0  0  0  0  0  0  0  0  0  0  0  0
  150.6072  140.9828  155.6011 H   0  0  0  0  0  0  0  0  0  0  0  0
  149.1757  143.2462  155.6218 H   0  0  0  0  0  0  0  0  0  0  0  0
  148.4072  140.2678  154.4301 H   0  0  0  0  0  0  0  0  0  0  0  0
  148.8357  139.3446  155.8509 H   0  0  0  0  0  0  0  0  0  0  0  0
  147.1952  139.3295  157.7456 H   0  0  0  0  0  0  0  0  0  0  0  0
  143.3091  142.3028  157.1025 H   0  0  0  0  0  0  0  0  0  0  0  0
  143.1587  145.2233  155.2281 H   0  0  0  0  0  0  0  0  0  0  0  0
  142.1357  143.9849  155.9542 H   0  0  0  0  0  0  0  0  0  0  0  0
  142.3927  143.9937  154.2107 H   0  0  0  0  0  0  0  0  0  0  0  0
  146.0500  144.2514  152.6509 H   0  0  0  0  0  0  0  0  0  0  0  0
  145.0872  145.3609  153.6251 H   0  0  0  0  0  0  0  0  0  0  0  0
  144.2915  144.1430  152.6163 H   0  0  0  0  0  0  0  0  0  0  0  0
  147.1254  142.5657  153.9024 H   0  0  0  0  0  0  0  0  0  0  0  0
  151.6999  142.8191  156.2489 H   0  0  0  0  0  0  0  0  0  0  0  0
  151.6621  144.4113  156.8758 H   0  0  0  0  0  0  0  0  0  0  0  0
  153.5401  143.0935  157.8664 H   0  0  0  0  0  0  0  0  0  0  0  0
  152.4164  141.8615  158.3772 H   0  0  0  0  0  0  0  0  0  0  0  0
  149.5705  143.7717  156.8769 H   0  0  0  0  0  0  0  0  0  0  0  0
  1  2  1  0  0  0  0
  1 26  1  0  0  0  0
  1 27  1  0  0  0  0
  1 28  1  0  0  0  0
  2  3  2  0  0  0  0
  2  4  1  0  0  0  0
  4 25  1  0  0  0  0
  4  5  1  0  0  0  0
  5  6  1  0  0  0  0
  5 29  1  0  0  0  0
  5 30  1  0  0  0  0
  6  7  1  0  0  0  0
  6 31  1  0  0  0  0
  6 32  1  0  0  0  0
  7  8  1  0  0  0  0
  7 33  1  0  0  0  0
  7 34  1  0  0  0  0
  8  9  1  0  0  0  0
  8 24  1  0  0  0  0
  8 54  1  0  0  0  0
  9 10  1  0  0  0  0
  9 35  1  0  0  0  0
  9 36  1  0  0  0  0
 10 11  1  0  0  0  0
 10 12  1  0  0  0  0
 10 37  1  0  0  0  0
 11 38  1  0  0  0  0
 12 13  1  0  0  0  0
 12 39  1  0  0  0  0
 12 40  1  0  0  0  0
 13 23  1  0  0  0  0
 13 14  1  0  0  0  0
 14 15  2  0  0  0  0
 14 41  1  0  0  0  0
 15 16  1  0  0  0  0
 16 23  2  0  0  0  0
 16 17  1  0  0  0  0
 17 18  2  0  0  0  0
 17 42  1  0  0  0  0
 18 19  1  0  0  0  0
 18 20  1  0  0  0  0
 19 43  1  0  0  0  0
 19 44  1  0  0  0  0
 19 45  1  0  0  0  0
 20 21  1  0  0  0  0
 20 22  2  0  0  0  0
 21 46  1  0  0  0  0
 21 47  1  0  0  0  0
 21 48  1  0  0  0  0
 22 23  1  0  0  0  0
 22 49  1  0  0  0  0
 24 25  1  0  0  0  0
 24 50  1  0  0  0  0
 24 51  1  0  0  0  0
 25 52  1  0  0  0  0
 25 53  1  0  0  0  0
M  CHG  1   8   1
M  END
> <s_m_source_file>
AV-unprocessed.smi

> <i_m_source_file_index>
1643

> <i_lp_mmshare_version>
43012

> <i_f3d_flags>
0

> <s_epik_input>
W0NIM11DKD1PKU4xW0NIMl1bQ0gyXVtDSDJdTihbQ0gyXVtDSDJdMSlbQ0gyXVtDQEhdKFtPSF0pW0NIMl1uKFtjSF1uMiljKGMyMylbY0hdYyhbQ0gzXSljKFtjSF0zKVtDSDNd

> <s_epik_cmdline>
J2VwaWtfcHl0aG9uJywgJy1waCcsICc3LjAnLCAnLXRuJywgJzgnLCAnLW1hJywgJzIwMCcsICctbWV0YWxfYmluZGluZycsICctaW1hZScsICc8aW5maWxlLm1hZT4nLCAnLW9tYWUnLCAnPG91dGZpbGUubWFlPic=

> <r_epik_Ionization_Penalty>
0.189467

> <r_epik_Ionization_Penalty_Charging>
0.101761

> <r_epik_Ionization_Penalty_Neutral>
0.0877056

> <r_epik_State_Penalty>
0.170758

> <r_epik_Charging_Adjusted_Penalty>
0.272519

> <i_epik_Tot_Q>
1

> <i_epik_Tot_abs_Q>
1

> <r_epik_Metal_State_Penalty>
0.0948013

> <b_epik_Metal_Only>
0

> <s_lp_Force_Field>
OPLS_2005

> <r_lp_Energy>
49.989

> <b_lp_Chiralities_Consistent>
1

> <s_lp_Variant>
AV-unprocessed.smi:1643-1

> <Gold.Version>
5.8.1

> <Gold.Id.Protein>
6NUR|6NUR_protein|mol2

> <Gold.PLP.Fitness>
53.6553

> <Gold.PLP.PLP>
-46.5191

> <Gold.PLP.part.hbond>
-2.1595

> <Gold.PLP.part.metal>
0.0000

> <Gold.PLP.part.buried>
-7.4977

> <Gold.PLP.part.nonpolar>
-37.7111

> <Gold.PLP.part.repulsive>
0.1666

> <Gold.PLP.ligand.clash>
0.0000

> <Gold.PLP.ligand.torsion>
0.8169

> <Gold.PLP.Chemscore.Hbond>
2.8892

> <Gold.PLP.Chemscore.CHOScore>
0.0000

> <Gold.PLP.Chemscore.Metal>
0.0000

> <Gold.Chemscore.Hbonds>
donor molecule, donor type, donor heavy atom, donor atom, acceptor molecule, acceptor atom, score
      L1  H     8    54       P1  8028  2.00
      L1  H    11    38       P1  8028  0.80

> <Gold.PLP.Chemscore.Internal.Correction>
0.1023

> <Gold.Rescore>
     Score         DG    S(hbond)    S(metal)    S(lipo)     H(rot)  DE(clash)    DE(int)     intcor
     18.25     -19.24       1.95        0.00     108.33       2.12       0.23       0.75       ----

> <Gold.Chemscore.Fitness>
18.2498

> <Gold.Chemscore.DG>
-19.2358

> <Gold.Chemscore.ZeroCoef>
-5.4800

> <Gold.Chemscore.Hbond>
1.9470

> <Gold.Chemscore.Metal>
0.0000

> <Gold.Chemscore.Lipo>
108.3284

> <Gold.Chemscore.Internal_Hbond>
0.0000

> <Gold.Chemscore.DEClash>
0.2329

> <Gold.Chemscore.DEInternal>
0.7530

> <Gold.Chemscore.Rot>
2.1178

> <Gold.Chemscore.Internal.Correction>
   9.000000E+99

> <Gold.Chemscore.Hbonds>
donor molecule, donor type, donor heavy atom, donor atom, acceptor molecule, acceptor atom, score
      L1  H     8    54       P1  8028  0.94
      L1  H    11    38       P1  8028  0.75

> <Gold.Chemscore.Hbond.Weighted>
-6.5028

> <Gold.Chemscore.Metal.Weighted>
-0.0000

> <Gold.Chemscore.Lipo.Weighted>
-12.6744

> <Gold.Chemscore.Internal_Hbond.Weighted>
0.0000

> <Gold.Chemscore.DEClash.Weighted>
0.2329

> <Gold.Chemscore.DEInternal.Weighted>
0.7530

> <Gold.Chemscore.Rot.Weighted>
5.4215

> <Gold.Chemscore.Internal.Correction.Weighted>
   9.000000E+99

> <Gold.Protein.RotatedTorsions>
[ 6907 6896 6895 6894 ] final   57.63 input  -60.11 | X-H torsion
[ 7974 7965 7964 7962 ] final -164.94 input  175.53 | X-H torsion
[ 8008 7997 7996 7995 ] final -106.24 input   59.86 | X-H torsion
[ 10167 10162 10161 10158 ] final   63.78 input  -65.29 | X-H torsion
[ 10718 10713 10712 10709 ] final -127.16 input   66.30 | X-H torsion
[ 10763 10752 10751 10750 ] final  158.17 input  -60.55 | X-H torsion
[ 11005 11000 10999 10996 ] final   38.98 input  -57.11 | X-H torsion

> <Gold.Protein.ActiveResidues>
 VAL166  LYS551  ARG553  GLY616  TRP617  ASP618  TYR619  PRO620  LYS621  CYS622 
 ASP623  PHE694  ASN695  SER759  ASP760  ASP761  ALA762  ILE779  LEU786  VAL792 
 PHE793  MET794  SER795  GLU796  ALA797  LYS798  CYS799  TRP800  GLU811  SER814 

> <Gold.Protein.RotatedAtoms>
  152.3749  134.6678  160.0163 H   0  0  0  0  0  0  0  0  0  0  0  0  # atno 6907 bound_to 6896
  151.6959  133.3305  159.3262 H   0  0  0  0  0  0  0  0  0  0  0  0  # atno 6908 bound_to 6896
  150.7702  134.6593  159.6375 H   0  0  0  0  0  0  0  0  0  0  0  0  # atno 6909 bound_to 6896
  144.7283  140.2887  143.6224 H   0  0  0  0  0  0  0  0  0  0  0  0  # atno 7974 bound_to 7965
  154.9116  140.0410  157.1949 H   0  0  0  0  0  0  0  0  0  0  0  0  # atno 8008 bound_to 7997
  154.8342  140.2904  155.5680 H   0  0  0  0  0  0  0  0  0  0  0  0  # atno 8009 bound_to 7997
  156.2988  140.2495  156.3273 H   0  0  0  0  0  0  0  0  0  0  0  0  # atno 8010 bound_to 7997
  140.1293  144.4658  150.6874 H   0  0  0  0  0  0  0  0  0  0  0  0  # atno 10167 bound_to 10162
  156.1832  130.6746  151.0331 H   0  0  0  0  0  0  0  0  0  0  0  0  # atno 10718 bound_to 10713
  154.2118  135.2786  155.2955 H   0  0  0  0  0  0  0  0  0  0  0  0  # atno 10763 bound_to 10752
  154.5772  135.5600  153.7154 H   0  0  0  0  0  0  0  0  0  0  0  0  # atno 10764 bound_to 10752
  153.0062  135.6336  154.2258 H   0  0  0  0  0  0  0  0  0  0  0  0  # atno 10765 bound_to 10752
  140.2073  134.3798  155.8066 H   0  0  0  0  0  0  0  0  0  0  0  0  # atno 11005 bound_to 11000
  145.7877  139.1915  143.2121 LP  0  0  0  0  0  0  0  0  0  0  0  0  # atno 17320 bound_to 7965
  146.0782  140.7794  142.9654 LP  0  0  0  0  0  0  0  0  0  0  0  0  # atno 17321 bound_to 7965
  140.6826  143.2334  151.5344 LP  0  0  0  0  0  0  0  0  0  0  0  0  # atno 17342 bound_to 10162
  139.5528  144.2353  152.1560 LP  0  0  0  0  0  0  0  0  0  0  0  0  # atno 17343 bound_to 10162
  157.6881  131.0818  150.7184 LP  0  0  0  0  0  0  0  0  0  0  0  0  # atno 17370 bound_to 10713
  156.7241  130.4689  149.5515 LP  0  0  0  0  0  0  0  0  0  0  0  0  # atno 17371 bound_to 10713
  141.2227  133.7124  156.8358 LP  0  0  0  0  0  0  0  0  0  0  0  0  # atno 17394 bound_to 11000
  140.1989  134.8911  157.3146 LP  0  0  0  0  0  0  0  0  0  0  0  0  # atno 17395 bound_to 11000

$$$$
