AV-unprocessed.smi:1784|AV-procd|sdf|7196|dock2
  -GOLD-   22720 8433D 1   1.00000     0.00000
 Structure written by MMmdl.
 43 45  0  0  0  0  0  0  0  0  1 V2000
  145.0413  138.1662  152.7210 O   0  0  0  0  0  0  0  0  0  0  0  0
  146.1150  137.6047  152.5034 C   0  0  0  0  0  0  0  0  0  0  0  0
  146.2135  136.3935  151.9421 N   0  0  0  0  0  0  0  0  0  0  0  0
  145.0767  135.5784  151.5385 C   0  0  0  0  0  0  0  0  0  0  0  0
  145.5527  134.3086  150.8203 C   0  0  2  0  0  0  0  0  0  0  0  0
  144.4163  133.4502  150.2698 C   0  0  0  0  0  0  0  0  0  0  0  0
  145.0768  132.0933  150.1861 C   0  0  0  0  0  0  0  0  0  0  0  0
  145.9393  132.0859  151.4453 C   0  0  0  0  0  0  0  0  0  0  0  0
  146.2514  133.4501  151.7193 O   0  0  0  0  0  0  0  0  0  0  0  0
  147.3292  138.1137  152.7707 N   0  0  0  0  0  0  0  0  0  0  0  0
  147.6575  139.3658  153.3650 C   0  0  0  0  0  0  0  0  0  0  0  0
  146.8841  140.5365  153.1710 C   0  0  0  0  0  0  0  0  0  0  0  0
  147.2686  141.7270  153.8144 C   0  0  0  0  0  0  0  0  0  0  0  0
  148.4090  141.7043  154.6368 C   0  0  0  0  0  0  0  0  0  0  0  0
  149.1470  140.5950  154.8449 N   0  0  0  0  0  0  0  0  0  0  0  0
  148.7810  139.4451  154.2276 C   0  0  0  0  0  0  0  0  0  0  0  0
  149.5608  138.2994  154.4681 N   0  0  0  0  0  0  0  0  0  0  0  0
  150.9587  138.3927  154.0810 C   0  0  0  0  0  0  0  0  0  0  0  0
  151.6481  137.2121  154.7687 C   0  0  0  0  0  0  0  0  0  0  0  0
  150.7346  136.8554  155.9478 C   0  0  0  0  0  0  0  0  0  0  0  0
  149.5537  137.8248  155.8417 C   0  0  0  0  0  0  0  0  0  0  0  0
  147.1328  136.0031  151.7951 H   0  0  0  0  0  0  0  0  0  0  0  0
  144.4798  135.3178  152.4140 H   0  0  0  0  0  0  0  0  0  0  0  0
  144.4381  136.1622  150.8737 H   0  0  0  0  0  0  0  0  0  0  0  0
  146.2301  134.5662  150.0044 H   0  0  0  0  0  0  0  0  0  0  0  0
  143.5826  133.4160  150.9728 H   0  0  0  0  0  0  0  0  0  0  0  0
  144.0416  133.8049  149.3093 H   0  0  0  0  0  0  0  0  0  0  0  0
  144.3648  131.2682  150.1511 H   0  0  0  0  0  0  0  0  0  0  0  0
  145.7077  132.0404  149.2978 H   0  0  0  0  0  0  0  0  0  0  0  0
  145.3788  131.6839  152.2899 H   0  0  0  0  0  0  0  0  0  0  0  0
  146.8427  131.4879  151.3236 H   0  0  0  0  0  0  0  0  0  0  0  0
  148.1175  137.5733  152.4457 H   0  0  0  0  0  0  0  0  0  0  0  0
  145.9976  140.5410  152.5558 H   0  0  0  0  0  0  0  0  0  0  0  0
  146.6993  142.6352  153.6839 H   0  0  0  0  0  0  0  0  0  0  0  0
  148.7340  142.5991  155.1465 H   0  0  0  0  0  0  0  0  0  0  0  0
  151.0704  138.3483  152.9972 H   0  0  0  0  0  0  0  0  0  0  0  0
  151.3935  139.3315  154.4266 H   0  0  0  0  0  0  0  0  0  0  0  0
  151.7168  136.3649  154.0852 H   0  0  0  0  0  0  0  0  0  0  0  0
  152.6597  137.4657  155.0867 H   0  0  0  0  0  0  0  0  0  0  0  0
  150.3917  135.8242  155.8544 H   0  0  0  0  0  0  0  0  0  0  0  0
  151.2430  136.9507  156.9077 H   0  0  0  0  0  0  0  0  0  0  0  0
  149.6875  138.6566  156.5349 H   0  0  0  0  0  0  0  0  0  0  0  0
  148.6097  137.3350  156.0824 H   0  0  0  0  0  0  0  0  0  0  0  0
  1  2  2  0  0  0  0
  2  3  1  0  0  0  0
  2 10  1  0  0  0  0
  3  4  1  0  0  0  0
  3 22  1  0  0  0  0
  4  5  1  0  0  0  0
  4 23  1  0  0  0  0
  4 24  1  0  0  0  0
  5  9  1  0  0  0  0
  5  6  1  0  0  0  0
  5 25  1  0  0  0  0
  6  7  1  0  0  0  0
  6 26  1  0  0  0  0
  6 27  1  0  0  0  0
  7  8  1  0  0  0  0
  7 28  1  0  0  0  0
  7 29  1  0  0  0  0
  8  9  1  0  0  0  0
  8 30  1  0  0  0  0
  8 31  1  0  0  0  0
 10 11  1  0  0  0  0
 10 32  1  0  0  0  0
 11 16  1  0  0  0  0
 11 12  2  0  0  0  0
 12 13  1  0  0  0  0
 12 33  1  0  0  0  0
 13 14  2  0  0  0  0
 13 34  1  0  0  0  0
 14 15  1  0  0  0  0
 14 35  1  0  0  0  0
 15 16  2  0  0  0  0
 16 17  1  0  0  0  0
 17 21  1  0  0  0  0
 17 18  1  0  0  0  0
 18 19  1  0  0  0  0
 18 36  1  0  0  0  0
 18 37  1  0  0  0  0
 19 20  1  0  0  0  0
 19 38  1  0  0  0  0
 19 39  1  0  0  0  0
 20 21  1  0  0  0  0
 20 40  1  0  0  0  0
 20 41  1  0  0  0  0
 21 42  1  0  0  0  0
 21 43  1  0  0  0  0
M  END
> <s_m_source_file>
AV-unprocessed.smi

> <i_m_source_file_index>
1784

> <i_lp_mmshare_version>
43012

> <i_f3d_flags>
0

> <s_epik_input>
TzFbQ0gyXVtDSDJdW0NIMl1bQ0BIXTFbQ0gyXVtOSF1DKD1PKVtOSF1jMltjSF1bY0hdW2NIXW5jMk4zW0NIMl1bQ0gyXVtDSDJdW0NIMl0z

> <s_epik_cmdline>
J2VwaWtfcHl0aG9uJywgJy1waCcsICc3LjAnLCAnLXRuJywgJzgnLCAnLW1hJywgJzIwMCcsICctbWV0YWxfYmluZGluZycsICctaW1hZScsICc8aW5maWxlLm1hZT4nLCAnLW9tYWUnLCAnPG91dGZpbGUubWFlPic=

> <r_lp_tautomer_probability>
1

> <r_epik_Ionization_Penalty>
0.0982482

> <r_epik_Ionization_Penalty_Charging>
0

> <r_epik_Ionization_Penalty_Neutral>
0.0982482

> <r_epik_State_Penalty>
0.0877864

> <r_epik_Charging_Adjusted_Penalty>
0.0877864

> <i_epik_Tot_Q>
0

> <i_epik_Tot_abs_Q>
0

> <r_epik_Metal_State_Penalty>
0.0752567

> <b_epik_Metal_Only>
0

> <s_lp_Force_Field>
OPLS_2005

> <r_lp_Energy>
47.4963

> <b_lp_Chiralities_Consistent>
1

> <s_lp_Variant>
AV-unprocessed.smi:1784-1

> <Gold.Version>
5.8.1

> <Gold.Id.Protein>
6NUR|6NUR_protein|mol2

> <Gold.PLP.Fitness>
40.3027

> <Gold.PLP.PLP>
-31.8595

> <Gold.PLP.part.hbond>
-2.0000

> <Gold.PLP.part.metal>
0.0000

> <Gold.PLP.part.buried>
-2.7214

> <Gold.PLP.part.nonpolar>
-30.1912

> <Gold.PLP.part.repulsive>
3.8072

> <Gold.PLP.ligand.clash>
0.0000

> <Gold.PLP.ligand.torsion>
0.2888

> <Gold.PLP.Chemscore.Hbond>
1.9920

> <Gold.PLP.Chemscore.CHOScore>
1.0000

> <Gold.PLP.Chemscore.Metal>
0.0000

> <Gold.Chemscore.Hbonds>
donor molecule, donor type, donor heavy atom, donor atom, acceptor molecule, acceptor atom, score
      L1  H     3    22       P1  7948  0.99
      L1  H    10    32       P1  7948  1.00
      L1  C    14    35       P1  8028  1.00

> <Gold.PLP.Chemscore.Internal.Correction>
0.0448

> <Gold.Rescore>
     Score         DG    S(hbond)    S(metal)    S(lipo)     H(rot)  DE(clash)    DE(int)     intcor
     16.06     -18.75       1.93        0.00      88.47       1.38       1.48       1.21       ----

> <Gold.Chemscore.Fitness>
16.0634

> <Gold.Chemscore.DG>
-18.7508

> <Gold.Chemscore.ZeroCoef>
-5.4800

> <Gold.Chemscore.Hbond>
1.9317

> <Gold.Chemscore.Metal>
0.0000

> <Gold.Chemscore.Lipo>
88.4651

> <Gold.Chemscore.Internal_Hbond>
0.0000

> <Gold.Chemscore.DEClash>
1.4816

> <Gold.Chemscore.DEInternal>
1.2057

> <Gold.Chemscore.Rot>
1.3796

> <Gold.Chemscore.Internal.Correction>
   9.000000E+99

> <Gold.Chemscore.Hbonds>
donor molecule, donor type, donor heavy atom, donor atom, acceptor molecule, acceptor atom, score
      L1  H     3    22       P1  7948  0.93
      L1  H    10    32       P1  7948  0.99

> <Gold.Chemscore.Hbond.Weighted>
-6.4520

> <Gold.Chemscore.Metal.Weighted>
-0.0000

> <Gold.Chemscore.Lipo.Weighted>
-10.3504

> <Gold.Chemscore.Internal_Hbond.Weighted>
0.0000

> <Gold.Chemscore.DEClash.Weighted>
1.4816

> <Gold.Chemscore.DEInternal.Weighted>
1.2057

> <Gold.Chemscore.Rot.Weighted>
3.5317

> <Gold.Chemscore.Internal.Correction.Weighted>
   9.000000E+99

> <Gold.Protein.RotatedTorsions>
[ 6907 6896 6895 6894 ] final  -46.67 input  -60.11 | X-H torsion
[ 7974 7965 7964 7962 ] final   70.12 input  175.53 | X-H torsion
[ 8008 7997 7996 7995 ] final -169.98 input   59.86 | X-H torsion
[ 10167 10162 10161 10158 ] final  -62.77 input  -65.29 | X-H torsion
[ 10718 10713 10712 10709 ] final  141.16 input   66.30 | X-H torsion
[ 10763 10752 10751 10750 ] final   99.05 input  -60.55 | X-H torsion
[ 11005 11000 10999 10996 ] final  164.52 input  -57.11 | X-H torsion

> <Gold.Protein.ActiveResidues>
 VAL166  LYS551  ARG553  GLY616  TRP617  ASP618  TYR619  PRO620  LYS621  CYS622 
 ASP623  PHE694  ASN695  SER759  ASP760  ASP761  ALA762  ILE779  LEU786  VAL792 
 PHE793  MET794  SER795  GLU796  ALA797  LYS798  CYS799  TRP800  GLU811  SER814 

> <Gold.Protein.RotatedAtoms>
  150.9088  134.8504  159.7410 H   0  0  0  0  0  0  0  0  0  0  0  0  # atno 6907 bound_to 6896
  152.4933  134.4391  159.9547 H   0  0  0  0  0  0  0  0  0  0  0  0  # atno 6908 bound_to 6896
  151.4435  133.3597  159.2820 H   0  0  0  0  0  0  0  0  0  0  0  0  # atno 6909 bound_to 6896
  145.7821  139.2892  143.1260 H   0  0  0  0  0  0  0  0  0  0  0  0  # atno 7974 bound_to 7965
  155.9123  140.1059  157.1270 H   0  0  0  0  0  0  0  0  0  0  0  0  # atno 8008 bound_to 7997
  154.4041  140.1272  156.4637 H   0  0  0  0  0  0  0  0  0  0  0  0  # atno 8009 bound_to 7997
  155.7296  140.3468  155.5055 H   0  0  0  0  0  0  0  0  0  0  0  0  # atno 8010 bound_to 7997
  140.5916  143.2343  151.6126 H   0  0  0  0  0  0  0  0  0  0  0  0  # atno 10167 bound_to 10162
  157.3952  131.1010  151.0607 H   0  0  0  0  0  0  0  0  0  0  0  0  # atno 10718 bound_to 10713
  153.2965  135.4127  155.1214 H   0  0  0  0  0  0  0  0  0  0  0  0  # atno 10763 bound_to 10752
  154.8536  135.3531  154.5909 H   0  0  0  0  0  0  0  0  0  0  0  0  # atno 10764 bound_to 10752
  153.6333  135.7060  153.5326 H   0  0  0  0  0  0  0  0  0  0  0  0  # atno 10765 bound_to 10752
  140.2468  134.8008  157.3463 H   0  0  0  0  0  0  0  0  0  0  0  0  # atno 11005 bound_to 11000
  146.0064  140.8475  142.9993 LP  0  0  0  0  0  0  0  0  0  0  0  0  # atno 17320 bound_to 7965
  144.6795  140.2426  143.7342 LP  0  0  0  0  0  0  0  0  0  0  0  0  # atno 17321 bound_to 7965
  139.5231  144.3142  152.0966 LP  0  0  0  0  0  0  0  0  0  0  0  0  # atno 17342 bound_to 10162
  140.2308  144.4370  150.6301 LP  0  0  0  0  0  0  0  0  0  0  0  0  # atno 17343 bound_to 10162
  157.1626  130.6232  149.5615 LP  0  0  0  0  0  0  0  0  0  0  0  0  # atno 17370 bound_to 10713
  155.9808  130.4812  150.6795 LP  0  0  0  0  0  0  0  0  0  0  0  0  # atno 17371 bound_to 10713
  140.1598  134.4743  155.7902 LP  0  0  0  0  0  0  0  0  0  0  0  0  # atno 17394 bound_to 11000
  141.2205  133.6896  156.7524 LP  0  0  0  0  0  0  0  0  0  0  0  0  # atno 17395 bound_to 11000

$$$$
