AV-unprocessed.smi:1487|AV-procd|sdf|6008|dock7
  -GOLD-   22720 6103D 1   1.00000     0.00000
 Structure written by MMmdl.
 48 50  0  0  0  0  0  0  0  0  2 V2000
  152.0946  143.2761  160.5247 C   0  0  0  0  0  0  0  0  0  0  0  0
  152.0431  142.2904  159.3710 C   0  0  0  0  0  0  0  0  0  0  0  0
  151.1900  142.5581  158.2768 C   0  0  0  0  0  0  0  0  0  0  0  0
  151.1106  141.6660  157.1853 C   0  0  0  0  0  0  0  0  0  0  0  0
  150.3558  141.7281  156.0264 N   0  0  0  0  0  0  0  0  0  0  0  0
  150.7176  140.6070  155.4097 C   0  0  0  0  0  0  0  0  0  0  0  0
  151.6234  139.8266  156.0304 N   0  0  0  0  0  0  0  0  0  0  0  0
  152.1647  138.5661  155.5535 C   0  0  0  0  0  0  0  0  0  0  0  0
  151.1694  137.7899  154.6695 C   0  0  1  0  0  0  0  0  0  0  0  0
  151.8816  136.9120  153.8185 O   0  0  0  0  0  0  0  0  0  0  0  0
  150.1869  136.9578  155.5170 C   0  0  0  0  0  0  0  0  0  0  0  0
  149.4670  135.9355  154.7145 N   0  3  1  0  0  0  0  0  0  0  0  0
  150.1500  134.6155  154.7354 C   0  0  0  0  0  0  0  0  0  0  0  0
  149.4657  133.6179  153.7854 C   0  0  0  0  0  0  0  0  0  0  0  0
  147.9771  133.4660  154.1234 C   0  0  0  0  0  0  0  0  0  0  0  0
  147.3010  134.8446  154.1239 C   0  0  1  0  0  0  0  0  0  0  0  0
  145.9538  134.7082  154.5237 O   0  0  0  0  0  0  0  0  0  0  0  0
  148.0283  135.8143  155.0734 C   0  0  0  0  0  0  0  0  0  0  0  0
  151.9148  140.4892  157.2182 C   0  0  0  0  0  0  0  0  0  0  0  0
  152.7685  140.2126  158.3009 C   0  0  0  0  0  0  0  0  0  0  0  0
  152.8348  141.1139  159.3837 C   0  0  0  0  0  0  0  0  0  0  0  0
  153.7572  140.8045  160.5495 C   0  0  0  0  0  0  0  0  0  0  0  0
  151.4750  144.1515  160.3282 H   0  0  0  0  0  0  0  0  0  0  0  0
  153.1153  143.6216  160.6900 H   0  0  0  0  0  0  0  0  0  0  0  0
  151.7337  142.8080  161.4408 H   0  0  0  0  0  0  0  0  0  0  0  0
  150.5862  143.4536  158.2675 H   0  0  0  0  0  0  0  0  0  0  0  0
  150.3010  140.3375  154.4501 H   0  0  0  0  0  0  0  0  0  0  0  0
  153.0866  138.7678  155.0062 H   0  0  0  0  0  0  0  0  0  0  0  0
  152.4448  137.9665  156.4205 H   0  0  0  0  0  0  0  0  0  0  0  0
  150.6298  138.5031  154.0467 H   0  0  0  0  0  0  0  0  0  0  0  0
  151.4475  136.8892  152.9786 H   0  0  0  0  0  0  0  0  0  0  0  0
  150.7498  136.4736  156.3170 H   0  0  0  0  0  0  0  0  0  0  0  0
  149.4602  137.6051  156.0105 H   0  0  0  0  0  0  0  0  0  0  0  0
  151.1916  134.7346  154.4336 H   0  0  0  0  0  0  0  0  0  0  0  0
  150.1572  134.2234  155.7537 H   0  0  0  0  0  0  0  0  0  0  0  0
  149.5743  133.9597  152.7552 H   0  0  0  0  0  0  0  0  0  0  0  0
  149.9609  132.6480  153.8428 H   0  0  0  0  0  0  0  0  0  0  0  0
  147.4942  132.8046  153.4027 H   0  0  0  0  0  0  0  0  0  0  0  0
  147.8712  132.9947  155.1017 H   0  0  0  0  0  0  0  0  0  0  0  0
  147.3097  135.2546  153.1129 H   0  0  0  0  0  0  0  0  0  0  0  0
  145.4475  134.3957  153.7893 H   0  0  0  0  0  0  0  0  0  0  0  0
  147.9421  135.4689  156.1053 H   0  0  0  0  0  0  0  0  0  0  0  0
  147.5446  136.7897  155.0271 H   0  0  0  0  0  0  0  0  0  0  0  0
  153.3675  139.3139  158.2990 H   0  0  0  0  0  0  0  0  0  0  0  0
  154.2680  139.8510  160.4116 H   0  0  0  0  0  0  0  0  0  0  0  0
  153.1919  140.7490  161.4803 H   0  0  0  0  0  0  0  0  0  0  0  0
  154.5170  141.5797  160.6509 H   0  0  0  0  0  0  0  0  0  0  0  0
  149.5079  136.2547  153.7566 H   0  0  0  0  0  0  0  0  0  0  0  0
  1  2  1  0  0  0  0
  1 23  1  0  0  0  0
  1 24  1  0  0  0  0
  1 25  1  0  0  0  0
  2 21  1  0  0  0  0
  2  3  2  0  0  0  0
  3  4  1  0  0  0  0
  3 26  1  0  0  0  0
  4 19  2  0  0  0  0
  4  5  1  0  0  0  0
  5  6  2  0  0  0  0
  6  7  1  0  0  0  0
  6 27  1  0  0  0  0
  7  8  1  0  0  0  0
  7 19  1  0  0  0  0
  8  9  1  0  0  0  0
  8 28  1  0  0  0  0
  8 29  1  0  0  0  0
  9 10  1  0  0  0  0
  9 11  1  0  0  0  0
  9 30  1  0  0  0  0
 10 31  1  0  0  0  0
 11 12  1  0  0  0  0
 11 32  1  0  0  0  0
 11 33  1  0  0  0  0
 12 18  1  0  0  0  0
 12 13  1  0  0  0  0
 12 48  1  0  0  0  0
 13 14  1  0  0  0  0
 13 34  1  0  0  0  0
 13 35  1  0  0  0  0
 14 15  1  0  0  0  0
 14 36  1  0  0  0  0
 14 37  1  0  0  0  0
 15 16  1  0  0  0  0
 15 38  1  0  0  0  0
 15 39  1  0  0  0  0
 16 17  1  0  0  0  0
 16 18  1  0  0  0  0
 16 40  1  0  0  0  0
 17 41  1  0  0  0  0
 18 42  1  0  0  0  0
 18 43  1  0  0  0  0
 19 20  1  0  0  0  0
 20 21  2  0  0  0  0
 20 44  1  0  0  0  0
 21 22  1  0  0  0  0
 22 45  1  0  0  0  0
 22 46  1  0  0  0  0
 22 47  1  0  0  0  0
M  CHG  1  12   1
M  END
> <s_m_source_file>
AV-unprocessed.smi

> <i_m_source_file_index>
1487

> <i_lp_mmshare_version>
43012

> <i_f3d_flags>
0

> <s_epik_input>
W0NIM11jKFtjSF0xKWMoW0NIM10pW2NIXWMoYzEyKW4oW2NIXW4yKVtDSDJdW0NASF0oW09IXSlbQ0gyXU4zW0NIMl1bQ0gyXVtDSDJdW0NAQEhdKFtPSF0pW0NIMl0z

> <s_epik_cmdline>
J2VwaWtfcHl0aG9uJywgJy1waCcsICc3LjAnLCAnLXRuJywgJzgnLCAnLW1hJywgJzIwMCcsICctbWV0YWxfYmluZGluZycsICctaW1hZScsICc8aW5maWxlLm1hZT4nLCAnLW9tYWUnLCAnPG91dGZpbGUubWFlPic=

> <r_epik_Ionization_Penalty>
0.0940186

> <r_epik_Ionization_Penalty_Charging>
0.00679686

> <r_epik_Ionization_Penalty_Neutral>
0.0872218

> <r_epik_State_Penalty>
0.0799311

> <r_epik_Charging_Adjusted_Penalty>
0.086728

> <i_epik_Tot_Q>
1

> <i_epik_Tot_abs_Q>
1

> <r_epik_Metal_State_Penalty>
7.95545e-05

> <b_epik_Metal_Only>
0

> <s_lp_Force_Field>
OPLS_2005

> <r_lp_Energy>
21.5016

> <b_lp_Chiralities_Consistent>
1

> <s_lp_Variant>
AV-unprocessed.smi:1487-2

> <Gold.Version>
5.8.1

> <Gold.Id.Protein>
6NUR|6NUR_protein|mol2

> <Gold.PLP.Fitness>
50.6684

> <Gold.PLP.PLP>
-41.3605

> <Gold.PLP.part.hbond>
-3.0000

> <Gold.PLP.part.metal>
0.0000

> <Gold.PLP.part.buried>
-2.5859

> <Gold.PLP.part.nonpolar>
-34.5405

> <Gold.PLP.part.repulsive>
0.1155

> <Gold.PLP.ligand.clash>
0.0000

> <Gold.PLP.ligand.torsion>
1.2562

> <Gold.PLP.Chemscore.Hbond>
3.9280

> <Gold.PLP.Chemscore.CHOScore>
0.0000

> <Gold.PLP.Chemscore.Metal>
0.0000

> <Gold.Chemscore.Hbonds>
donor molecule, donor type, donor heavy atom, donor atom, acceptor molecule, acceptor atom, score
      L1  H    10    31       P1  7949  0.93
      L1  H    12    48       P1  7948  2.00
      P1  H 10752 10763       L1    10  1.00

> <Gold.PLP.Chemscore.Internal.Correction>
0.0362

> <Gold.Rescore>
     Score         DG    S(hbond)    S(metal)    S(lipo)     H(rot)  DE(clash)    DE(int)     intcor
     16.56     -18.86       2.41        0.00     104.05       2.67       0.03       2.27       ----

> <Gold.Chemscore.Fitness>
16.5569

> <Gold.Chemscore.DG>
-18.8600

> <Gold.Chemscore.ZeroCoef>
-5.4800

> <Gold.Chemscore.Hbond>
2.4085

> <Gold.Chemscore.Metal>
0.0000

> <Gold.Chemscore.Lipo>
104.0494

> <Gold.Chemscore.Internal_Hbond>
0.0000

> <Gold.Chemscore.DEClash>
0.0322

> <Gold.Chemscore.DEInternal>
2.2708

> <Gold.Chemscore.Rot>
2.6712

> <Gold.Chemscore.Internal.Correction>
   9.000000E+99

> <Gold.Chemscore.Hbonds>
donor molecule, donor type, donor heavy atom, donor atom, acceptor molecule, acceptor atom, score
      L1  H    10    31       P1  7949  0.79
      L1  H    12    48       P1  7948  0.63
      P1  H 10752 10763       L1    10  0.88

> <Gold.Chemscore.Hbond.Weighted>
-8.0445

> <Gold.Chemscore.Metal.Weighted>
-0.0000

> <Gold.Chemscore.Lipo.Weighted>
-12.1738

> <Gold.Chemscore.Internal_Hbond.Weighted>
0.0000

> <Gold.Chemscore.DEClash.Weighted>
0.0322

> <Gold.Chemscore.DEInternal.Weighted>
2.2708

> <Gold.Chemscore.Rot.Weighted>
6.8383

> <Gold.Chemscore.Internal.Correction.Weighted>
   9.000000E+99

> <Gold.Protein.RotatedTorsions>
[ 6907 6896 6895 6894 ] final -161.87 input  -60.11 | X-H torsion
[ 7974 7965 7964 7962 ] final   95.41 input  175.53 | X-H torsion
[ 8008 7997 7996 7995 ] final -138.67 input   59.86 | X-H torsion
[ 10167 10162 10161 10158 ] final  119.18 input  -65.29 | X-H torsion
[ 10718 10713 10712 10709 ] final  166.95 input   66.30 | X-H torsion
[ 10763 10752 10751 10750 ] final   26.51 input  -60.55 | X-H torsion
[ 11005 11000 10999 10996 ] final    1.01 input  -57.11 | X-H torsion

> <Gold.Protein.ActiveResidues>
 VAL166  LYS551  ARG553  GLY616  TRP617  ASP618  TYR619  PRO620  LYS621  CYS622 
 ASP623  PHE694  ASN695  SER759  ASP760  ASP761  ALA762  ILE779  LEU786  VAL792 
 PHE793  MET794  SER795  GLU796  ALA797  LYS798  CYS799  TRP800  GLU811  SER814 

> <Gold.Protein.RotatedAtoms>
  151.3715  133.3853  159.2699 H   0  0  0  0  0  0  0  0  0  0  0  0  # atno 6907 bound_to 6896
  150.9647  134.9031  159.7762 H   0  0  0  0  0  0  0  0  0  0  0  0  # atno 6908 bound_to 6896
  152.5163  134.3675  159.9359 H   0  0  0  0  0  0  0  0  0  0  0  0  # atno 6909 bound_to 6896
  145.4526  139.2292  143.3031 H   0  0  0  0  0  0  0  0  0  0  0  0  # atno 7974 bound_to 7965
  155.4322  140.0526  157.3017 H   0  0  0  0  0  0  0  0  0  0  0  0  # atno 8008 bound_to 7997
  154.4855  140.2099  155.9624 H   0  0  0  0  0  0  0  0  0  0  0  0  # atno 8009 bound_to 7997
  156.1268  140.3179  155.8294 H   0  0  0  0  0  0  0  0  0  0  0  0  # atno 8010 bound_to 7997
  139.6062  144.7070  151.2947 H   0  0  0  0  0  0  0  0  0  0  0  0  # atno 10167 bound_to 10162
  157.0585  131.0333  151.2655 H   0  0  0  0  0  0  0  0  0  0  0  0  # atno 10718 bound_to 10713
  153.0617  135.6558  154.0447 H   0  0  0  0  0  0  0  0  0  0  0  0  # atno 10763 bound_to 10752
  154.0113  135.2928  155.3393 H   0  0  0  0  0  0  0  0  0  0  0  0  # atno 10764 bound_to 10752
  154.6959  135.5264  153.8525 H   0  0  0  0  0  0  0  0  0  0  0  0  # atno 10765 bound_to 10752
  140.6202  133.9668  155.8221 H   0  0  0  0  0  0  0  0  0  0  0  0  # atno 11005 bound_to 11000
  146.2496  140.5286  142.8899 LP  0  0  0  0  0  0  0  0  0  0  0  0  # atno 17320 bound_to 7965
  144.8052  140.6287  143.6451 LP  0  0  0  0  0  0  0  0  0  0  0  0  # atno 17321 bound_to 7965
  140.7287  143.6929  150.7907 LP  0  0  0  0  0  0  0  0  0  0  0  0  # atno 17342 bound_to 10162
  140.0515  143.5245  152.2671 LP  0  0  0  0  0  0  0  0  0  0  0  0  # atno 17343 bound_to 10162
  157.4973  130.7858  149.7569 LP  0  0  0  0  0  0  0  0  0  0  0  0  # atno 17370 bound_to 10713
  155.9985  130.3893  150.2697 LP  0  0  0  0  0  0  0  0  0  0  0  0  # atno 17371 bound_to 10713
  141.0748  134.0152  157.3474 LP  0  0  0  0  0  0  0  0  0  0  0  0  # atno 17394 bound_to 11000
  139.9156  135.0196  156.7869 LP  0  0  0  0  0  0  0  0  0  0  0  0  # atno 17395 bound_to 11000

$$$$
