AV-unprocessed.smi:1778|AV-procd|sdf|7179|dock10
  -GOLD-   22720 8413D 1   1.00000     0.00000
 Structure written by MMmdl.
 34 35  0  0  0  0  0  0  0  0  1 V2000
  152.8614  142.5206  160.3373 C   0  0  0  0  0  0  0  0  0  0  0  0
  152.7447  141.5045  159.2372 C   0  0  0  0  0  0  0  0  0  0  0  0
  153.5317  140.4422  159.2546 N   0  0  0  0  0  0  0  0  0  0  0  0
  153.1848  139.6883  158.1296 O   0  0  0  0  0  0  0  0  0  0  0  0
  152.1883  140.3335  157.4719 C   0  0  0  0  0  0  0  0  0  0  0  0
  151.6654  139.6817  156.2365 C   0  0  0  0  0  0  0  0  0  0  0  0
  151.8604  141.4928  158.1190 C   0  0  0  0  0  0  0  0  0  0  0  0
  150.8107  142.5071  157.7428 C   0  0  0  0  0  0  0  0  0  0  0  0
  149.4755  141.8024  157.5051 C   0  0  0  0  0  0  0  0  0  0  0  0
  149.3420  140.6165  157.8056 O   0  0  0  0  0  0  0  0  0  0  0  0
  148.4961  142.5454  156.9677 N   0  0  0  0  0  0  0  0  0  0  0  0
  147.1450  142.0760  156.6832 C   0  0  2  0  0  0  0  0  0  0  0  0
  146.7713  142.2489  155.1970 C   0  0  0  0  0  0  0  0  0  0  0  0
  145.2518  142.1011  155.0523 C   0  0  0  0  0  0  0  0  0  0  0  0
  144.5288  142.7061  156.6246 S   0  0  0  0  0  0  0  0  0  0  0  0
  143.9700  144.0519  156.4257 O   0  0  0  0  0  0  0  0  0  0  0  0
  143.7218  141.6317  157.2224 O   0  0  0  0  0  0  0  0  0  0  0  0
  146.1186  142.8473  157.5242 C   0  0  0  0  0  0  0  0  0  0  0  0
  152.3403  142.1838  161.2337 H   0  0  0  0  0  0  0  0  0  0  0  0
  152.4309  143.4777  160.0444 H   0  0  0  0  0  0  0  0  0  0  0  0
  153.9035  142.6983  160.6041 H   0  0  0  0  0  0  0  0  0  0  0  0
  150.6122  139.4257  156.3541 H   0  0  0  0  0  0  0  0  0  0  0  0
  152.2129  138.7663  156.0113 H   0  0  0  0  0  0  0  0  0  0  0  0
  151.7568  140.3490  155.3797 H   0  0  0  0  0  0  0  0  0  0  0  0
  150.6846  143.2639  158.5175 H   0  0  0  0  0  0  0  0  0  0  0  0
  151.0907  143.0492  156.8386 H   0  0  0  0  0  0  0  0  0  0  0  0
  148.6989  143.5110  156.7541 H   0  0  0  0  0  0  0  0  0  0  0  0
  147.0625  141.0181  156.9401 H   0  0  0  0  0  0  0  0  0  0  0  0
  147.0563  143.2498  154.8694 H   0  0  0  0  0  0  0  0  0  0  0  0
  147.3029  141.5423  154.5585 H   0  0  0  0  0  0  0  0  0  0  0  0
  144.8476  142.6618  154.2092 H   0  0  0  0  0  0  0  0  0  0  0  0
  144.9755  141.0525  154.9378 H   0  0  0  0  0  0  0  0  0  0  0  0
  146.0146  142.4548  158.5361 H   0  0  0  0  0  0  0  0  0  0  0  0
  146.3703  143.9067  157.5857 H   0  0  0  0  0  0  0  0  0  0  0  0
  1  2  1  0  0  0  0
  1 19  1  0  0  0  0
  1 20  1  0  0  0  0
  1 21  1  0  0  0  0
  2  7  1  0  0  0  0
  2  3  2  0  0  0  0
  3  4  1  0  0  0  0
  4  5  1  0  0  0  0
  5  6  1  0  0  0  0
  5  7  2  0  0  0  0
  6 22  1  0  0  0  0
  6 23  1  0  0  0  0
  6 24  1  0  0  0  0
  7  8  1  0  0  0  0
  8  9  1  0  0  0  0
  8 25  1  0  0  0  0
  8 26  1  0  0  0  0
  9 10  2  0  0  0  0
  9 11  1  0  0  0  0
 11 12  1  0  0  0  0
 11 27  1  0  0  0  0
 12 18  1  0  0  0  0
 12 13  1  0  0  0  0
 12 28  1  0  0  0  0
 13 14  1  0  0  0  0
 13 29  1  0  0  0  0
 13 30  1  0  0  0  0
 14 15  1  0  0  0  0
 14 31  1  0  0  0  0
 14 32  1  0  0  0  0
 15 16  2  0  0  0  0
 15 17  2  0  0  0  0
 15 18  1  0  0  0  0
 18 33  1  0  0  0  0
 18 34  1  0  0  0  0
M  END
> <s_m_source_file>
AV-unprocessed.smi

> <i_m_source_file_index>
1778

> <i_lp_mmshare_version>
43012

> <i_f3d_flags>
0

> <s_epik_input>
W0NIM11jMW5vYyhbQ0gzXSljMVtDSDJdQyg9TylbTkhdW0NAQEhdKFtDSDJdMilbQ0gyXVtDSDJdUzIoPU8pPU8=

> <s_epik_cmdline>
J2VwaWtfcHl0aG9uJywgJy1waCcsICc3LjAnLCAnLXRuJywgJzgnLCAnLW1hJywgJzIwMCcsICctbWV0YWxfYmluZGluZycsICctaW1hZScsICc8aW5maWxlLm1hZT4nLCAnLW9tYWUnLCAnPG91dGZpbGUubWFlPic=

> <r_lp_tautomer_probability>
1

> <r_epik_Ionization_Penalty>
1.26334e-07

> <r_epik_Ionization_Penalty_Charging>
0

> <r_epik_Ionization_Penalty_Neutral>
1.26334e-07

> <r_epik_State_Penalty>
-0

> <r_epik_Charging_Adjusted_Penalty>
0

> <i_epik_Tot_Q>
0

> <i_epik_Tot_abs_Q>
0

> <r_epik_Metal_State_Penalty>
-0

> <b_epik_Metal_Only>
0

> <s_lp_Force_Field>
OPLS_2005

> <r_lp_Energy>
-2.84912

> <b_lp_Chiralities_Consistent>
1

> <s_lp_Variant>
AV-unprocessed.smi:1778-1

> <Gold.Version>
5.8.1

> <Gold.Id.Protein>
6NUR|6NUR_protein|mol2

> <Gold.PLP.Fitness>
30.6744

> <Gold.PLP.PLP>
-25.0378

> <Gold.PLP.part.hbond>
-2.1951

> <Gold.PLP.part.metal>
0.0000

> <Gold.PLP.part.buried>
-2.2306

> <Gold.PLP.part.nonpolar>
-20.1737

> <Gold.PLP.part.repulsive>
0.0730

> <Gold.PLP.ligand.clash>
0.0000

> <Gold.PLP.ligand.torsion>
0.1707

> <Gold.PLP.Chemscore.Hbond>
1.9920

> <Gold.PLP.Chemscore.CHOScore>
0.0000

> <Gold.PLP.Chemscore.Metal>
0.0000

> <Gold.Chemscore.Hbonds>
donor molecule, donor type, donor heavy atom, donor atom, acceptor molecule, acceptor atom, score
      L1  H    11    27       P1  8028  1.00
      P1  H  7997  8009       L1     4  1.00

> <Gold.PLP.Chemscore.Internal.Correction>
0.0021

> <Gold.Rescore>
     Score         DG    S(hbond)    S(metal)    S(lipo)     H(rot)  DE(clash)    DE(int)     intcor
     10.70     -13.35       0.98        0.00      72.16       1.51       0.00       2.65       ----

> <Gold.Chemscore.Fitness>
10.6973

> <Gold.Chemscore.DG>
-13.3529

> <Gold.Chemscore.ZeroCoef>
-5.4800

> <Gold.Chemscore.Hbond>
0.9830

> <Gold.Chemscore.Metal>
0.0000

> <Gold.Chemscore.Lipo>
72.1591

> <Gold.Chemscore.Internal_Hbond>
0.0000

> <Gold.Chemscore.DEClash>
0.0021

> <Gold.Chemscore.DEInternal>
2.6534

> <Gold.Chemscore.Rot>
1.5051

> <Gold.Chemscore.Internal.Correction>
   9.000000E+99

> <Gold.Chemscore.Hbonds>
donor molecule, donor type, donor heavy atom, donor atom, acceptor molecule, acceptor atom, score
      L1  H    11    27       P1  8028  0.47
      P1  H  7997  8009       L1     4  0.09

> <Gold.Chemscore.Hbond.Weighted>
-3.2833

> <Gold.Chemscore.Metal.Weighted>
-0.0000

> <Gold.Chemscore.Lipo.Weighted>
-8.4426

> <Gold.Chemscore.Internal_Hbond.Weighted>
0.0000

> <Gold.Chemscore.DEClash.Weighted>
0.0021

> <Gold.Chemscore.DEInternal.Weighted>
2.6534

> <Gold.Chemscore.Rot.Weighted>
3.8531

> <Gold.Chemscore.Internal.Correction.Weighted>
   9.000000E+99

> <Gold.Protein.RotatedTorsions>
[ 6907 6896 6895 6894 ] final  157.44 input  -60.11 | X-H torsion
[ 7974 7965 7964 7962 ] final  -58.56 input  175.53 | X-H torsion
[ 8008 7997 7996 7995 ] final  151.26 input   59.86 | X-H torsion
[ 10167 10162 10161 10158 ] final  -30.08 input  -65.29 | X-H torsion
[ 10718 10713 10712 10709 ] final  -97.13 input   66.30 | X-H torsion
[ 10763 10752 10751 10750 ] final -114.40 input  -60.55 | X-H torsion
[ 11005 11000 10999 10996 ] final  151.26 input  -57.11 | X-H torsion

> <Gold.Protein.ActiveResidues>
 VAL166  LYS551  ARG553  GLY616  TRP617  ASP618  TYR619  PRO620  LYS621  CYS622 
 ASP623  PHE694  ASN695  SER759  ASP760  ASP761  ALA762  ILE779  LEU786  VAL792 
 PHE793  MET794  SER795  GLU796  ALA797  LYS798  CYS799  TRP800  GLU811  SER814 

> <Gold.Protein.RotatedAtoms>
  152.0151  133.3876  159.4235 H   0  0  0  0  0  0  0  0  0  0  0  0  # atno 6907 bound_to 6896
  150.6895  134.3688  159.4992 H   0  0  0  0  0  0  0  0  0  0  0  0  # atno 6908 bound_to 6896
  152.1454  134.9030  160.0602 H   0  0  0  0  0  0  0  0  0  0  0  0  # atno 6909 bound_to 6896
  145.8379  140.8436  143.0049 H   0  0  0  0  0  0  0  0  0  0  0  0  # atno 7974 bound_to 7965
  156.2681  140.2052  156.6147 H   0  0  0  0  0  0  0  0  0  0  0  0  # atno 8008 bound_to 7997
  154.6803  140.0540  157.0283 H   0  0  0  0  0  0  0  0  0  0  0  0  # atno 8009 bound_to 7997
  155.1009  140.3206  155.4550 H   0  0  0  0  0  0  0  0  0  0  0  0  # atno 8010 bound_to 7997
  140.7253  143.3877  151.1485 H   0  0  0  0  0  0  0  0  0  0  0  0  # atno 10167 bound_to 10162
  156.0077  130.5181  150.6329 H   0  0  0  0  0  0  0  0  0  0  0  0  # atno 10718 bound_to 10713
  154.8438  135.4419  154.1499 H   0  0  0  0  0  0  0  0  0  0  0  0  # atno 10763 bound_to 10752
  153.2663  135.6941  153.7533 H   0  0  0  0  0  0  0  0  0  0  0  0  # atno 10764 bound_to 10752
  153.6790  135.3406  155.3149 H   0  0  0  0  0  0  0  0  0  0  0  0  # atno 10765 bound_to 10752
  140.1203  134.8868  157.2063 H   0  0  0  0  0  0  0  0  0  0  0  0  # atno 11005 bound_to 11000
  144.6735  140.0769  143.7471 LP  0  0  0  0  0  0  0  0  0  0  0  0  # atno 17320 bound_to 7965
  145.9498  139.2726  143.1219 LP  0  0  0  0  0  0  0  0  0  0  0  0  # atno 17321 bound_to 7965
  139.7477  143.8827  152.3068 LP  0  0  0  0  0  0  0  0  0  0  0  0  # atno 17342 bound_to 10162
  139.8669  144.7088  150.9033 LP  0  0  0  0  0  0  0  0  0  0  0  0  # atno 17343 bound_to 10162
  157.4123  131.0825  151.1209 LP  0  0  0  0  0  0  0  0  0  0  0  0  # atno 17370 bound_to 10713
  157.1836  130.6320  149.5680 LP  0  0  0  0  0  0  0  0  0  0  0  0  # atno 17371 bound_to 10713
  140.2974  134.3171  155.7299 LP  0  0  0  0  0  0  0  0  0  0  0  0  # atno 17394 bound_to 11000
  141.2150  133.7571  156.9591 LP  0  0  0  0  0  0  0  0  0  0  0  0  # atno 17395 bound_to 11000

$$$$
