AV-unprocessed.smi:363|AV-procd|sdf|2423|dock7
  -GOLD-   2262022363D 1   1.00000     0.00000
 Structure written by MMmdl.
 39 40  0  0  0  0  0  0  0  0  1 V2000
  149.8401  135.6667  154.9793 C   0  0  0  0  0  0  0  0  0  0  0  0
  150.0742  137.1589  155.1806 C   0  0  0  0  0  0  0  0  0  0  0  0
  151.4333  137.6126  155.3633 C   0  0  0  0  0  0  0  0  0  0  0  0
  151.7091  138.9063  155.5927 C   0  0  0  0  0  0  0  0  0  0  0  0
  153.1474  139.3692  155.8007 C   0  0  0  0  0  0  0  0  0  0  0  0
  150.6638  139.8698  155.6392 N   0  0  0  0  0  0  0  0  0  0  0  0
  150.9919  141.2925  155.8935 C   0  0  0  0  0  0  0  0  0  0  0  0
  150.5999  141.7363  157.3228 C   0  0  2  0  0  0  0  0  0  0  0  0
  150.3127  143.1206  157.3162 O   0  0  0  0  0  0  0  0  0  0  0  0
  151.7063  141.4188  158.3177 C   0  0  0  0  0  0  0  0  0  0  0  0
  152.0536  140.0769  158.5842 C   0  0  0  0  0  0  0  0  0  0  0  0
  153.0801  139.7774  159.5010 C   0  0  0  0  0  0  0  0  0  0  0  0
  153.7669  140.8181  160.1557 C   0  0  0  0  0  0  0  0  0  0  0  0
  155.0233  140.4503  161.2797 Cl  0  0  0  0  0  0  0  0  0  0  0  0
  153.4271  142.1589  159.8916 C   0  0  0  0  0  0  0  0  0  0  0  0
  152.4007  142.4585  158.9749 C   0  0  0  0  0  0  0  0  0  0  0  0
  149.3497  139.5293  155.4411 C   0  0  0  0  0  0  0  0  0  0  0  0
  148.4753  140.4017  155.4235 O   0  0  0  0  0  0  0  0  0  0  0  0
  149.0753  138.0807  155.2336 C   0  0  0  0  0  0  0  0  0  0  0  0
  147.6615  137.6952  155.0571 C   0  0  0  0  0  0  0  0  0  0  0  0
  147.3883  137.0362  153.9226 N   0  0  0  0  0  0  0  0  0  0  0  0
  146.7492  138.0019  155.8230 O   0  0  0  0  0  0  0  0  0  0  0  0
  150.7487  135.0962  155.1727 H   0  0  0  0  0  0  0  0  0  0  0  0
  149.5324  135.4628  153.9534 H   0  0  0  0  0  0  0  0  0  0  0  0
  149.0718  135.2936  155.6571 H   0  0  0  0  0  0  0  0  0  0  0  0
  152.2404  136.8952  155.3251 H   0  0  0  0  0  0  0  0  0  0  0  0
  153.8046  138.5166  155.9746 H   0  0  0  0  0  0  0  0  0  0  0  0
  153.2540  140.0249  156.6630 H   0  0  0  0  0  0  0  0  0  0  0  0
  153.5133  139.8872  154.9137 H   0  0  0  0  0  0  0  0  0  0  0  0
  152.0591  141.4468  155.7414 H   0  0  0  0  0  0  0  0  0  0  0  0
  150.5574  141.9684  155.1546 H   0  0  0  0  0  0  0  0  0  0  0  0
  149.6928  141.2206  157.6396 H   0  0  0  0  0  0  0  0  0  0  0  0
  149.7387  143.3036  156.5882 H   0  0  0  0  0  0  0  0  0  0  0  0
  151.5348  139.2703  158.0869 H   0  0  0  0  0  0  0  0  0  0  0  0
  153.3395  138.7482  159.7012 H   0  0  0  0  0  0  0  0  0  0  0  0
  153.9529  142.9594  160.3908 H   0  0  0  0  0  0  0  0  0  0  0  0
  152.1483  143.4900  158.7768 H   0  0  0  0  0  0  0  0  0  0  0  0
  146.4409  136.7520  153.7197 H   0  0  0  0  0  0  0  0  0  0  0  0
  148.1301  136.8406  153.2661 H   0  0  0  0  0  0  0  0  0  0  0  0
  1  2  1  0  0  0  0
  1 23  1  0  0  0  0
  1 24  1  0  0  0  0
  1 25  1  0  0  0  0
  2 19  2  0  0  0  0
  2  3  1  0  0  0  0
  3  4  2  0  0  0  0
  3 26  1  0  0  0  0
  4  5  1  0  0  0  0
  4  6  1  0  0  0  0
  5 27  1  0  0  0  0
  5 28  1  0  0  0  0
  5 29  1  0  0  0  0
  6  7  1  0  0  0  0
  6 17  1  0  0  0  0
  7  8  1  0  0  0  0
  7 30  1  0  0  0  0
  7 31  1  0  0  0  0
  8  9  1  0  0  0  0
  8 10  1  0  0  0  0
  8 32  1  0  0  0  0
  9 33  1  0  0  0  0
 10 16  1  0  0  0  0
 10 11  2  0  0  0  0
 11 12  1  0  0  0  0
 11 34  1  0  0  0  0
 12 13  2  0  0  0  0
 12 35  1  0  0  0  0
 13 14  1  0  0  0  0
 13 15  1  0  0  0  0
 15 16  2  0  0  0  0
 15 36  1  0  0  0  0
 16 37  1  0  0  0  0
 17 18  2  0  0  0  0
 17 19  1  0  0  0  0
 19 20  1  0  0  0  0
 20 21  1  0  0  0  0
 20 22  2  0  0  0  0
 21 38  1  0  0  0  0
 21 39  1  0  0  0  0
M  END
> <s_m_source_file>
AV-unprocessed.smi

> <i_m_source_file_index>
363

> <i_lp_mmshare_version>
43012

> <i_f3d_flags>
0

> <s_epik_input>
W0NIM11jMVtjSF1jKFtDSDNdKW4oYyg9TyljMUMoPU8pW05IMl0pW0NIMl1bQ0BIXShbT0hdKWMyW2NIXVtjSF1jKENsKVtjSF1bY0hdMg==

> <s_epik_cmdline>
J2VwaWtfcHl0aG9uJywgJy1waCcsICc3LjAnLCAnLXRuJywgJzgnLCAnLW1hJywgJzIwMCcsICctbWV0YWxfYmluZGluZycsICctaW1hZScsICc8aW5maWxlLm1hZT4nLCAnLW9tYWUnLCAnPG91dGZpbGUubWFlPic=

> <r_lp_tautomer_probability>
1

> <r_epik_Ionization_Penalty>
3.91973e-07

> <r_epik_Ionization_Penalty_Charging>
1.35363e-07

> <r_epik_Ionization_Penalty_Neutral>
2.5661e-07

> <r_epik_State_Penalty>
-0

> <r_epik_Charging_Adjusted_Penalty>
1.35363e-07

> <i_epik_Tot_Q>
0

> <i_epik_Tot_abs_Q>
0

> <r_epik_Metal_State_Penalty>
-0

> <b_epik_Metal_Only>
0

> <s_lp_Force_Field>
OPLS_2005

> <r_lp_Energy>
39.7948

> <b_lp_Chiralities_Consistent>
1

> <s_lp_Variant>
AV-unprocessed.smi:363-1

> <Gold.Version>
5.8.1

> <Gold.Id.Protein>
6NUR|6NUR_protein|mol2

> <Gold.PLP.Fitness>
36.9801

> <Gold.PLP.PLP>
-34.2018

> <Gold.PLP.part.hbond>
-2.0000

> <Gold.PLP.part.metal>
0.0000

> <Gold.PLP.part.buried>
-0.0677

> <Gold.PLP.part.nonpolar>
-32.0113

> <Gold.PLP.part.repulsive>
0.0700

> <Gold.PLP.ligand.clash>
0.0879

> <Gold.PLP.ligand.torsion>
1.5392

> <Gold.PLP.Chemscore.Hbond>
1.8640

> <Gold.PLP.Chemscore.CHOScore>
0.0000

> <Gold.PLP.Chemscore.Metal>
0.0000

> <Gold.Chemscore.Hbonds>
donor molecule, donor type, donor heavy atom, donor atom, acceptor molecule, acceptor atom, score
      L1  H     9    33       P1  8028  0.85
      L1  H    21    39       P1  7948  1.00

> <Gold.PLP.Chemscore.Internal.Correction>
0.3528

> <Gold.Rescore>
     Score         DG    S(hbond)    S(metal)    S(lipo)     H(rot)  DE(clash)    DE(int)     intcor
     13.58     -18.56       1.91        0.00     100.03       1.95       1.53       3.46       ----

> <Gold.Chemscore.Fitness>
13.5761

> <Gold.Chemscore.DG>
-18.5624

> <Gold.Chemscore.ZeroCoef>
-5.4800

> <Gold.Chemscore.Hbond>
1.9070

> <Gold.Chemscore.Metal>
0.0000

> <Gold.Chemscore.Lipo>
100.0313

> <Gold.Chemscore.Internal_Hbond>
0.0000

> <Gold.Chemscore.DEClash>
1.5279

> <Gold.Chemscore.DEInternal>
3.4584

> <Gold.Chemscore.Rot>
1.9495

> <Gold.Chemscore.Internal.Correction>
   9.000000E+99

> <Gold.Chemscore.Hbonds>
donor molecule, donor type, donor heavy atom, donor atom, acceptor molecule, acceptor atom, score
      L1  H     9    33       P1  8028  0.83
      L1  H    21    39       P1  7948  1.00

> <Gold.Chemscore.Hbond.Weighted>
-6.3695

> <Gold.Chemscore.Metal.Weighted>
-0.0000

> <Gold.Chemscore.Lipo.Weighted>
-11.7037

> <Gold.Chemscore.Internal_Hbond.Weighted>
0.0000

> <Gold.Chemscore.DEClash.Weighted>
1.5279

> <Gold.Chemscore.DEInternal.Weighted>
3.4584

> <Gold.Chemscore.Rot.Weighted>
4.9908

> <Gold.Chemscore.Internal.Correction.Weighted>
   9.000000E+99

> <Gold.Protein.RotatedTorsions>
[ 6907 6896 6895 6894 ] final   74.41 input  -60.11 | X-H torsion
[ 7974 7965 7964 7962 ] final -170.51 input  175.53 | X-H torsion
[ 8008 7997 7996 7995 ] final  -81.77 input   59.86 | X-H torsion
[ 10167 10162 10161 10158 ] final   33.20 input  -65.29 | X-H torsion
[ 10718 10713 10712 10709 ] final  -30.49 input   66.30 | X-H torsion
[ 10763 10752 10751 10750 ] final  -37.53 input  -60.55 | X-H torsion
[ 11005 11000 10999 10996 ] final   76.40 input  -57.11 | X-H torsion

> <Gold.Protein.ActiveResidues>
 VAL166  LYS551  ARG553  GLY616  TRP617  ASP618  TYR619  PRO620  LYS621  CYS622 
 ASP623  PHE694  ASN695  SER759  ASP760  ASP761  ALA762  ILE779  LEU786  VAL792 
 PHE793  MET794  SER795  GLU796  ALA797  LYS798  CYS799  TRP800  GLU811  SER814 

> <Gold.Protein.RotatedAtoms>
  152.4974  134.4276  159.9501 H   0  0  0  0  0  0  0  0  0  0  0  0  # atno 6907 bound_to 6896
  151.4252  133.3680  159.2769 H   0  0  0  0  0  0  0  0  0  0  0  0  # atno 6908 bound_to 6896
  150.9194  134.8634  159.7538 H   0  0  0  0  0  0  0  0  0  0  0  0  # atno 6909 bound_to 6896
  144.7169  140.2061  143.6333 H   0  0  0  0  0  0  0  0  0  0  0  0  # atno 7974 bound_to 7965
  154.6017  140.0643  156.9377 H   0  0  0  0  0  0  0  0  0  0  0  0  # atno 8008 bound_to 7997
  155.2121  140.3323  155.4309 H   0  0  0  0  0  0  0  0  0  0  0  0  # atno 8009 bound_to 7997
  156.2322  140.1846  156.7196 H   0  0  0  0  0  0  0  0  0  0  0  0  # atno 8010 bound_to 7997
  140.4429  144.1161  150.6177 H   0  0  0  0  0  0  0  0  0  0  0  0  # atno 10167 bound_to 10162
  156.3992  130.4387  149.7335 H   0  0  0  0  0  0  0  0  0  0  0  0  # atno 10718 bound_to 10713
  153.8979  135.6805  153.4757 H   0  0  0  0  0  0  0  0  0  0  0  0  # atno 10763 bound_to 10752
  153.1145  135.4767  154.9090 H   0  0  0  0  0  0  0  0  0  0  0  0  # atno 10764 bound_to 10752
  154.7590  135.3205  154.8369 H   0  0  0  0  0  0  0  0  0  0  0  0  # atno 10765 bound_to 10752
  139.9300  134.7597  156.1390 H   0  0  0  0  0  0  0  0  0  0  0  0  # atno 11005 bound_to 11000
  145.8635  139.2235  143.1703 LP  0  0  0  0  0  0  0  0  0  0  0  0  # atno 17320 bound_to 7965
  146.0152  140.8399  142.9951 LP  0  0  0  0  0  0  0  0  0  0  0  0  # atno 17321 bound_to 7965
  140.4297  143.2573  151.9611 LP  0  0  0  0  0  0  0  0  0  0  0  0  # atno 17342 bound_to 10162
  139.4791  144.5755  151.8019 LP  0  0  0  0  0  0  0  0  0  0  0  0  # atno 17343 bound_to 10162
  156.4358  130.7837  151.2858 LP  0  0  0  0  0  0  0  0  0  0  0  0  # atno 17370 bound_to 10713
  157.7503  131.0140  150.3446 LP  0  0  0  0  0  0  0  0  0  0  0  0  # atno 17371 bound_to 10713
  141.0883  133.6725  156.2484 LP  0  0  0  0  0  0  0  0  0  0  0  0  # atno 17394 bound_to 11000
  140.6228  134.5344  157.5550 LP  0  0  0  0  0  0  0  0  0  0  0  0  # atno 17395 bound_to 11000

$$$$
