AV-unprocessed.smi:283|AV-procd|sdf|2148|dock9
  -GOLD-   2262021483D 1   1.00000     0.00000
 Structure written by MMmdl.
 48 51  0  0  0  0  0  0  0  0  1 V2000
  146.8882  133.5623  161.5950 C   0  0  0  0  0  0  0  0  0  0  0  0
  146.3993  135.0004  161.3454 C   0  0  1  0  0  0  0  0  0  0  0  0
  146.4341  135.3301  159.9208 N   0  0  0  0  0  0  0  0  0  0  0  0
  147.5487  135.1555  159.1764 C   0  0  0  0  0  0  0  0  0  0  0  0
  147.8965  133.9324  158.6982 N   0  0  0  0  0  0  0  0  0  0  0  0
  149.0046  133.7919  157.9649 C   0  0  0  0  0  0  0  0  0  0  0  0
  149.8920  134.7227  157.6071 N   0  0  0  0  0  0  0  0  0  0  0  0
  149.5547  135.9512  158.0965 C   0  0  0  0  0  0  0  0  0  0  0  0
  148.4023  136.2481  158.8753 C   0  0  0  0  0  0  0  0  0  0  0  0
  148.3705  137.6044  159.1686 N   0  0  0  0  0  0  0  0  0  0  0  0
  149.4396  138.0776  158.5871 C   0  0  0  0  0  0  0  0  0  0  0  0
  150.2334  137.1444  157.9524 N   0  0  0  0  0  0  0  0  0  0  0  0
  151.5001  137.3569  157.1763 C   0  0  1  0  0  0  0  0  0  0  0  0
  151.3921  136.6760  155.9586 O   0  0  0  0  0  0  0  0  0  0  0  0
  151.0937  137.5795  154.8982 C   0  0  1  0  0  0  0  0  0  0  0  0
  149.5630  137.7193  154.7353 C   0  0  0  0  0  0  0  0  0  0  0  0
  149.2440  138.3855  153.5313 O   0  0  0  0  0  0  0  0  0  0  0  0
  151.8506  138.8442  155.3254 C   0  0  1  0  0  0  0  0  0  0  0  0
  151.3235  140.0258  154.7543 O   0  0  0  0  0  0  0  0  0  0  0  0
  151.7164  138.8487  156.8440 C   0  0  2  0  0  0  0  0  0  0  0  0
  152.9043  139.3470  157.4269 O   0  0  0  0  0  0  0  0  0  0  0  0
  145.0144  135.1960  161.9611 C   0  0  0  0  0  0  0  0  0  0  0  0
  144.3218  134.0918  162.5123 C   0  0  0  0  0  0  0  0  0  0  0  0
  143.0479  134.2571  163.0880 C   0  0  0  0  0  0  0  0  0  0  0  0
  142.4536  135.5309  163.1263 C   0  0  0  0  0  0  0  0  0  0  0  0
  143.1378  136.6387  162.5935 C   0  0  0  0  0  0  0  0  0  0  0  0
  144.4133  136.4796  162.0156 C   0  0  0  0  0  0  0  0  0  0  0  0
  145.2127  137.8814  161.3935 Cl  0  0  0  0  0  0  0  0  0  0  0  0
  152.2749  136.9142  157.8038 H   0  0  0  0  0  0  0  0  0  0  0  0
  151.5125  137.1716  153.9772 H   0  0  0  0  0  0  0  0  0  0  0  0
  152.8972  138.7378  155.0343 H   0  0  0  0  0  0  0  0  0  0  0  0
  150.8535  139.4381  157.1582 H   0  0  0  0  0  0  0  0  0  0  0  0
  146.9076  133.3367  162.6616 H   0  0  0  0  0  0  0  0  0  0  0  0
  147.8970  133.4038  161.2138 H   0  0  0  0  0  0  0  0  0  0  0  0
  146.2348  132.8338  161.1141 H   0  0  0  0  0  0  0  0  0  0  0  0
  147.0775  135.6904  161.8457 H   0  0  0  0  0  0  0  0  0  0  0  0
  145.5564  135.6305  159.5224 H   0  0  0  0  0  0  0  0  0  0  0  0
  149.2112  132.7906  157.6166 H   0  0  0  0  0  0  0  0  0  0  0  0
  149.6758  139.1310  158.6121 H   0  0  0  0  0  0  0  0  0  0  0  0
  149.1043  136.7324  154.6808 H   0  0  0  0  0  0  0  0  0  0  0  0
  149.1108  138.2396  155.5800 H   0  0  0  0  0  0  0  0  0  0  0  0
  149.0449  137.7373  152.8730 H   0  0  0  0  0  0  0  0  0  0  0  0
  150.6654  140.3732  155.3370 H   0  0  0  0  0  0  0  0  0  0  0  0
  152.9697  139.0129  158.3081 H   0  0  0  0  0  0  0  0  0  0  0  0
  144.7638  133.1064  162.5029 H   0  0  0  0  0  0  0  0  0  0  0  0
  142.5282  133.4063  163.5031 H   0  0  0  0  0  0  0  0  0  0  0  0
  141.4767  135.6598  163.5683 H   0  0  0  0  0  0  0  0  0  0  0  0
  142.6818  137.6170  162.6319 H   0  0  0  0  0  0  0  0  0  0  0  0
  1  2  1  0  0  0  0
  1 33  1  0  0  0  0
  1 34  1  0  0  0  0
  1 35  1  0  0  0  0
  2  3  1  0  0  0  0
  2 22  1  0  0  0  0
  2 36  1  0  0  0  0
  3  4  1  0  0  0  0
  3 37  1  0  0  0  0
  4  9  1  0  0  0  0
  4  5  2  0  0  0  0
  5  6  1  0  0  0  0
  6  7  2  0  0  0  0
  6 38  1  0  0  0  0
  7  8  1  0  0  0  0
  8 12  1  0  0  0  0
  8  9  2  0  0  0  0
  9 10  1  0  0  0  0
 10 11  2  0  0  0  0
 11 12  1  0  0  0  0
 11 39  1  0  0  0  0
 12 13  1  0  0  0  0
 13 29  1  0  0  0  0
 13 20  1  0  0  0  0
 13 14  1  0  0  0  0
 14 15  1  0  0  0  0
 15 30  1  0  0  0  0
 15 16  1  0  0  0  0
 15 18  1  0  0  0  0
 16 17  1  0  0  0  0
 16 40  1  0  0  0  0
 16 41  1  0  0  0  0
 17 42  1  0  0  0  0
 18 31  1  0  0  0  0
 18 19  1  0  0  0  0
 18 20  1  0  0  0  0
 19 43  1  0  0  0  0
 20 32  1  0  0  0  0
 20 21  1  0  0  0  0
 21 44  1  0  0  0  0
 22 27  1  0  0  0  0
 22 23  2  0  0  0  0
 23 24  1  0  0  0  0
 23 45  1  0  0  0  0
 24 25  2  0  0  0  0
 24 46  1  0  0  0  0
 25 26  1  0  0  0  0
 25 47  1  0  0  0  0
 26 27  2  0  0  0  0
 26 48  1  0  0  0  0
 27 28  1  0  0  0  0
M  END
> <s_m_source_file>
AV-unprocessed.smi

> <i_m_source_file_index>
283

> <i_lp_mmshare_version>
43012

> <i_f3d_flags>
0

> <s_epik_input>
Q2xjMVtjSF1bY0hdW2NIXVtjSF1jMVtDQEhdKFtDSDNdKVtOSF1jKG5bY0hdbjIpYyhjMjMpbltjSF1uM1tDQEBIXTRPW0NASF0oW0NIMl1bT0hdKVtDQEBIXShbT0hdKVtDQEhdNFtPSF0=

> <s_epik_cmdline>
J2VwaWtfcHl0aG9uJywgJy1waCcsICc3LjAnLCAnLXRuJywgJzgnLCAnLW1hJywgJzIwMCcsICctbWV0YWxfYmluZGluZycsICctaW1hZScsICc8aW5maWxlLm1hZT4nLCAnLW9tYWUnLCAnPG91dGZpbGUubWFlPic=

> <r_lp_tautomer_probability>
1

> <r_epik_Ionization_Penalty>
0.000266407

> <r_epik_Ionization_Penalty_Charging>
0

> <r_epik_Ionization_Penalty_Neutral>
0.000266407

> <r_epik_State_Penalty>
-0

> <r_epik_Charging_Adjusted_Penalty>
0

> <i_epik_Tot_Q>
0

> <i_epik_Tot_abs_Q>
0

> <r_epik_Metal_State_Penalty>
-0

> <b_epik_Metal_Only>
0

> <s_epik_Chemistry_Notes>
This compound contains an acetal/aminal-like group ( X-CH(R)-Y where X, Y are N, S, or O) that may be acid/base labile, releasing an aldehyde.

> <s_lp_Force_Field>
OPLS_2005

> <r_lp_Energy>
43.8521

> <b_lp_Chiralities_Consistent>
1

> <s_lp_Variant>
AV-unprocessed.smi:283-24

> <Gold.Version>
5.8.1

> <Gold.Id.Protein>
6NUR|6NUR_protein|mol2

> <Gold.PLP.Fitness>
45.2941

> <Gold.PLP.PLP>
-37.7266

> <Gold.PLP.part.hbond>
-5.6724

> <Gold.PLP.part.metal>
0.0000

> <Gold.PLP.part.buried>
-5.3960

> <Gold.PLP.part.nonpolar>
-27.0168

> <Gold.PLP.part.repulsive>
0.0415

> <Gold.PLP.ligand.clash>
0.0000

> <Gold.PLP.ligand.torsion>
1.3044

> <Gold.PLP.Chemscore.Hbond>
3.3575

> <Gold.PLP.Chemscore.CHOScore>
0.0000

> <Gold.PLP.Chemscore.Metal>
0.0000

> <Gold.Chemscore.Hbonds>
donor molecule, donor type, donor heavy atom, donor atom, acceptor molecule, acceptor atom, score
      L1  H    17    42       P1  7948  1.00
      P1  H  7989  7998       L1    19  1.00
      P1  H  7997  8008       L1    21  1.00
      P1  H 10752 10763       L1    14  0.33

> <Gold.PLP.Chemscore.Internal.Correction>
0.1039

> <Gold.Rescore>
     Score         DG    S(hbond)    S(metal)    S(lipo)     H(rot)  DE(clash)    DE(int)     intcor
     11.97     -14.42       3.03        0.00      79.64       4.10       0.03       2.42       ----

> <Gold.Chemscore.Fitness>
11.9673

> <Gold.Chemscore.DG>
-14.4169

> <Gold.Chemscore.ZeroCoef>
-5.4800

> <Gold.Chemscore.Hbond>
3.0261

> <Gold.Chemscore.Metal>
0.0000

> <Gold.Chemscore.Lipo>
79.6373

> <Gold.Chemscore.Internal_Hbond>
0.0000

> <Gold.Chemscore.DEClash>
0.0285

> <Gold.Chemscore.DEInternal>
2.4211

> <Gold.Chemscore.Rot>
4.0968

> <Gold.Chemscore.Internal.Correction>
   9.000000E+99

> <Gold.Chemscore.Hbonds>
donor molecule, donor type, donor heavy atom, donor atom, acceptor molecule, acceptor atom, score
      L1  H    17    42       P1  7948  1.00
      P1  H  7989  7998       L1    19  0.89
      P1  H  7997  8008       L1    21  0.94
      P1  H 10752 10763       L1    14  0.06

> <Gold.Chemscore.Hbond.Weighted>
-10.1072

> <Gold.Chemscore.Metal.Weighted>
-0.0000

> <Gold.Chemscore.Lipo.Weighted>
-9.3176

> <Gold.Chemscore.Internal_Hbond.Weighted>
0.0000

> <Gold.Chemscore.DEClash.Weighted>
0.0285

> <Gold.Chemscore.DEInternal.Weighted>
2.4211

> <Gold.Chemscore.Rot.Weighted>
10.4879

> <Gold.Chemscore.Internal.Correction.Weighted>
   9.000000E+99

> <Gold.Protein.RotatedTorsions>
[ 6907 6896 6895 6894 ] final  -43.43 input  -60.11 | X-H torsion
[ 7974 7965 7964 7962 ] final   33.80 input  175.53 | X-H torsion
[ 8008 7997 7996 7995 ] final  -64.45 input   59.86 | X-H torsion
[ 10167 10162 10161 10158 ] final   45.76 input  -65.29 | X-H torsion
[ 10718 10713 10712 10709 ] final  -33.49 input   66.30 | X-H torsion
[ 10763 10752 10751 10750 ] final   77.09 input  -60.55 | X-H torsion
[ 11005 11000 10999 10996 ] final -169.68 input  -57.11 | X-H torsion

> <Gold.Protein.ActiveResidues>
 VAL166  LYS551  ARG553  GLY616  TRP617  ASP618  TYR619  PRO620  LYS621  CYS622 
 ASP623  PHE694  ASN695  SER759  ASP760  ASP761  ALA762  ILE779  LEU786  VAL792 
 PHE793  MET794  SER795  GLU796  ALA797  LYS798  CYS799  TRP800  GLU811  SER814 

> <Gold.Protein.RotatedAtoms>
  150.9440  134.8847  159.7630 H   0  0  0  0  0  0  0  0  0  0  0  0  # atno 6907 bound_to 6896
  152.5092  134.3900  159.9391 H   0  0  0  0  0  0  0  0  0  0  0  0  # atno 6908 bound_to 6896
  151.3920  133.3745  159.2757 H   0  0  0  0  0  0  0  0  0  0  0  0  # atno 6909 bound_to 6896
  146.1396  139.6351  142.9172 H   0  0  0  0  0  0  0  0  0  0  0  0  # atno 7974 bound_to 7965
  154.4612  140.0953  156.6899 H   0  0  0  0  0  0  0  0  0  0  0  0  # atno 8008 bound_to 7997
  155.4988  140.3473  155.4349 H   0  0  0  0  0  0  0  0  0  0  0  0  # atno 8009 bound_to 7997
  156.0874  140.1388  156.9624 H   0  0  0  0  0  0  0  0  0  0  0  0  # atno 8010 bound_to 7997
  140.3208  144.2707  150.6183 H   0  0  0  0  0  0  0  0  0  0  0  0  # atno 10167 bound_to 10162
  156.3620  130.4325  149.7616 H   0  0  0  0  0  0  0  0  0  0  0  0  # atno 10718 bound_to 10713
  153.0773  135.4927  154.8430 H   0  0  0  0  0  0  0  0  0  0  0  0  # atno 10763 bound_to 10752
  154.7104  135.3019  154.9208 H   0  0  0  0  0  0  0  0  0  0  0  0  # atno 10764 bound_to 10752
  153.9904  135.6779  153.4807 H   0  0  0  0  0  0  0  0  0  0  0  0  # atno 10765 bound_to 10752
  140.5281  134.5643  157.5067 H   0  0  0  0  0  0  0  0  0  0  0  0  # atno 11005 bound_to 11000
  145.5076  141.0436  143.2505 LP  0  0  0  0  0  0  0  0  0  0  0  0  # atno 17320 bound_to 7965
  144.7778  139.6592  143.7167 LP  0  0  0  0  0  0  0  0  0  0  0  0  # atno 17321 bound_to 7965
  140.5485  143.2210  151.7967 LP  0  0  0  0  0  0  0  0  0  0  0  0  # atno 17342 bound_to 10162
  139.4874  144.4508  151.9657 LP  0  0  0  0  0  0  0  0  0  0  0  0  # atno 17343 bound_to 10162
  156.4776  130.8026  151.3041 LP  0  0  0  0  0  0  0  0  0  0  0  0  # atno 17370 bound_to 10713
  157.7474  131.0016  150.2969 LP  0  0  0  0  0  0  0  0  0  0  0  0  # atno 17371 bound_to 10713
  139.9569  134.7519  156.0321 LP  0  0  0  0  0  0  0  0  0  0  0  0  # atno 17394 bound_to 11000
  141.1297  133.6590  156.3431 LP  0  0  0  0  0  0  0  0  0  0  0  0  # atno 17395 bound_to 11000

$$$$
