AV-unprocessed.smi:2226|AV-procd|sdf|9018|dock3
  -GOLD-   2272012223D 1   1.00000     0.00000
 Structure written by MMmdl.
 39 41  0  0  0  0  0  0  0  0  3 V2000
  146.0853  143.2466  153.8046 C   0  0  0  0  0  0  0  0  0  0  0  0
  147.1126  142.6178  154.6686 N   0  3  2  0  0  0  0  0  0  0  0  0
  148.0467  141.7074  153.9631 C   0  0  1  0  0  0  0  0  0  0  0  0
  149.2898  141.4767  154.8541 C   0  0  0  0  0  0  0  0  0  0  0  0
  148.9521  140.9903  156.2780 C   0  0  0  0  0  0  0  0  0  0  0  0
  147.7478  141.7396  156.8841 C   0  0  0  0  0  0  0  0  0  0  0  0
  146.5842  141.9609  155.8892 C   0  0  2  0  0  0  0  0  0  0  0  0
  145.7805  140.6849  155.5373 C   0  0  0  0  0  0  0  0  0  0  0  0
  146.5171  139.6946  154.6066 C   0  0  1  0  0  0  0  0  0  0  0  0
  145.5365  138.7946  154.0035 N   0  0  0  0  0  0  0  0  0  0  0  0
  145.4724  137.4650  154.1703 C   0  0  0  0  0  0  0  0  0  0  0  0
  146.3017  136.9024  154.8879 O   0  0  0  0  0  0  0  0  0  0  0  0
  144.4502  136.8926  153.4881 N   0  5  0  0  0  0  0  0  0  0  0  0
  144.6057  136.0491  152.4452 C   0  0  0  0  0  0  0  0  0  0  0  0
  145.7003  135.7869  151.7197 N   0  0  0  0  0  0  0  0  0  0  0  0
  145.3278  134.8487  150.7708 C   0  0  0  0  0  0  0  0  0  0  0  0
  144.0024  134.5729  150.9579 C   0  0  0  0  0  0  0  0  0  0  0  0
  143.5402  135.3204  152.0052 O   0  0  0  0  0  0  0  0  0  0  0  0
  147.3309  140.4142  153.5019 C   0  0  0  0  0  0  0  0  0  0  0  0
  145.4010  142.5157  153.3744 H   0  0  0  0  0  0  0  0  0  0  0  0
  146.5594  143.7877  152.9851 H   0  0  0  0  0  0  0  0  0  0  0  0
  145.4965  143.9646  154.3762 H   0  0  0  0  0  0  0  0  0  0  0  0
  148.4001  142.2199  153.0672 H   0  0  0  0  0  0  0  0  0  0  0  0
  149.9792  140.7812  154.3744 H   0  0  0  0  0  0  0  0  0  0  0  0
  149.8298  142.4210  154.9367 H   0  0  0  0  0  0  0  0  0  0  0  0
  148.7721  139.9187  156.2791 H   0  0  0  0  0  0  0  0  0  0  0  0
  149.8223  141.1206  156.9220 H   0  0  0  0  0  0  0  0  0  0  0  0
  147.3941  141.2210  157.7757 H   0  0  0  0  0  0  0  0  0  0  0  0
  148.0932  142.7160  157.2261 H   0  0  0  0  0  0  0  0  0  0  0  0
  145.8948  142.6563  156.3699 H   0  0  0  0  0  0  0  0  0  0  0  0
  145.4736  140.1737  156.4506 H   0  0  0  0  0  0  0  0  0  0  0  0
  144.8505  140.9944  155.0582 H   0  0  0  0  0  0  0  0  0  0  0  0
  147.1841  139.0843  155.2109 H   0  0  0  0  0  0  0  0  0  0  0  0
  144.8354  139.2151  153.4112 H   0  0  0  0  0  0  0  0  0  0  0  0
  146.0273  134.4568  150.0475 H   0  0  0  0  0  0  0  0  0  0  0  0
  143.2925  133.9208  150.4717 H   0  0  0  0  0  0  0  0  0  0  0  0
  146.6582  140.6736  152.6835 H   0  0  0  0  0  0  0  0  0  0  0  0
  148.0562  139.7258  153.0668 H   0  0  0  0  0  0  0  0  0  0  0  0
  147.6779  143.3879  154.9965 H   0  0  0  0  0  0  0  0  0  0  0  0
  1  2  1  0  0  0  0
  1 20  1  0  0  0  0
  1 21  1  0  0  0  0
  1 22  1  0  0  0  0
  2  7  1  0  0  0  0
  2  3  1  0  0  0  0
  2 39  1  0  0  0  0
  3 19  1  0  0  0  0
  3  4  1  0  0  0  0
  3 23  1  0  0  0  0
  4  5  1  0  0  0  0
  4 24  1  0  0  0  0
  4 25  1  0  0  0  0
  5  6  1  0  0  0  0
  5 26  1  0  0  0  0
  5 27  1  0  0  0  0
  6  7  1  0  0  0  0
  6 28  1  0  0  0  0
  6 29  1  0  0  0  0
  7  8  1  0  0  0  0
  7 30  1  0  0  0  0
  8  9  1  0  0  0  0
  8 31  1  0  0  0  0
  8 32  1  0  0  0  0
  9 10  1  0  0  0  0
  9 19  1  0  0  0  0
  9 33  1  0  0  0  0
 10 34  1  0  0  0  0
 10 11  1  0  0  0  0
 11 13  1  0  0  0  0
 11 12  2  0  0  0  0
 13 14  1  0  0  0  0
 14 18  1  0  0  0  0
 14 15  2  0  0  0  0
 15 16  1  0  0  0  0
 16 35  1  0  0  0  0
 16 17  2  0  0  0  0
 17 36  1  0  0  0  0
 17 18  1  0  0  0  0
 19 37  1  0  0  0  0
 19 38  1  0  0  0  0
M  CHG  1   2   1
M  CHG  1  13  -1
M  END
> <s_m_source_file>
AV-unprocessed.smi

> <i_m_source_file_index>
2226

> <i_lp_mmshare_version>
43012

> <i_f3d_flags>
0

> <s_epik_input>
W0NIMl0xW0NIMl1bQ0gyXVtDQEhdKE4oW0NIM10pW0NIXTEyKVtDSDJdW0NASF0oW0NIMl0yKVtOSF1DKD1PKVtOSF1jM25bY0hdW2NIXW8z

> <s_epik_cmdline>
J2VwaWtfcHl0aG9uJywgJy1waCcsICc3LjAnLCAnLXRuJywgJzgnLCAnLW1hJywgJzIwMCcsICctbWV0YWxfYmluZGluZycsICctaW1hZScsICc8aW5maWxlLm1hZT4nLCAnLW9tYWUnLCAnPG91dGZpbGUubWFlPic=

> <r_lp_tautomer_probability>
0.107061

> <r_epik_Ionization_Penalty>
10.5612

> <r_epik_Ionization_Penalty_Charging>
7.48913

> <r_epik_Ionization_Penalty_Neutral>
3.07202

> <r_epik_State_Penalty>
5.6431

> <r_epik_Charging_Adjusted_Penalty>
13.1322

> <i_epik_Tot_Q>
0

> <i_epik_Tot_abs_Q>
2

> <r_epik_Metal_State_Penalty>
1.58163

> <b_epik_Metal_Only>
1

> <s_lp_Force_Field>
OPLS_2005

> <r_lp_Energy>
28.9751

> <b_lp_Chiralities_Consistent>
1

> <s_lp_Variant>
AV-unprocessed.smi:2226-18

> <Gold.Version>
5.8.1

> <Gold.Id.Protein>
6NUR|6NUR_protein|mol2

> <Gold.PLP.Fitness>
39.4875

> <Gold.PLP.PLP>
-25.8678

> <Gold.PLP.part.hbond>
-2.0000

> <Gold.PLP.part.metal>
0.0000

> <Gold.PLP.part.buried>
-4.7344

> <Gold.PLP.part.nonpolar>
-20.4759

> <Gold.PLP.part.repulsive>
0.6586

> <Gold.PLP.ligand.clash>
0.0000

> <Gold.PLP.ligand.torsion>
0.6803

> <Gold.PLP.Chemscore.Hbond>
3.0000

> <Gold.PLP.Chemscore.CHOScore>
1.9897

> <Gold.PLP.Chemscore.Metal>
0.0000

> <Gold.Chemscore.Hbonds>
donor molecule, donor type, donor heavy atom, donor atom, acceptor molecule, acceptor atom, score
      L1  H     2    39       P1  8028  2.00
      L1  H    10    34       P1 10175  1.00
      L1  C    16    35       P1  7921  1.00
      L1  C    17    36       P1 10186  0.99

> <Gold.PLP.Chemscore.Internal.Correction>
0.0112

> <Gold.Rescore>
     Score         DG    S(hbond)    S(metal)    S(lipo)     H(rot)  DE(clash)    DE(int)     intcor
     14.83     -15.85       1.90        0.00      56.28       1.00       0.41       0.61       ----

> <Gold.Chemscore.Fitness>
14.8295

> <Gold.Chemscore.DG>
-15.8476

> <Gold.Chemscore.ZeroCoef>
-5.4800

> <Gold.Chemscore.Hbond>
1.8990

> <Gold.Chemscore.Metal>
0.0000

> <Gold.Chemscore.Lipo>
56.2826

> <Gold.Chemscore.Internal_Hbond>
0.0000

> <Gold.Chemscore.DEClash>
0.4095

> <Gold.Chemscore.DEInternal>
0.6087

> <Gold.Chemscore.Rot>
1.0000

> <Gold.Chemscore.Internal.Correction>
   9.000000E+99

> <Gold.Chemscore.Hbonds>
donor molecule, donor type, donor heavy atom, donor atom, acceptor molecule, acceptor atom, score
      L1  H     2    39       P1  8028  0.35
      L1  H    10    34       P1 10175  0.99

> <Gold.Chemscore.Hbond.Weighted>
-6.3426

> <Gold.Chemscore.Metal.Weighted>
-0.0000

> <Gold.Chemscore.Lipo.Weighted>
-6.5851

> <Gold.Chemscore.Internal_Hbond.Weighted>
0.0000

> <Gold.Chemscore.DEClash.Weighted>
0.4095

> <Gold.Chemscore.DEInternal.Weighted>
0.6087

> <Gold.Chemscore.Rot.Weighted>
2.5600

> <Gold.Chemscore.Internal.Correction.Weighted>
   9.000000E+99

> <Gold.Protein.RotatedTorsions>
[ 6907 6896 6895 6894 ] final  137.34 input  -60.11 | X-H torsion
[ 7974 7965 7964 7962 ] final  -96.86 input  175.53 | X-H torsion
[ 8008 7997 7996 7995 ] final   62.20 input   59.86 | X-H torsion
[ 10167 10162 10161 10158 ] final -158.09 input  -65.29 | X-H torsion
[ 10718 10713 10712 10709 ] final   52.86 input   66.30 | X-H torsion
[ 10763 10752 10751 10750 ] final  -86.49 input  -60.55 | X-H torsion
[ 11005 11000 10999 10996 ] final -140.49 input  -57.11 | X-H torsion

> <Gold.Protein.ActiveResidues>
 VAL166  LYS551  ARG553  GLY616  TRP617  ASP618  TYR619  PRO620  LYS621  CYS622 
 ASP623  PHE694  ASN695  SER759  ASP760  ASP761  ALA762  ILE779  LEU786  VAL792 
 PHE793  MET794  SER795  GLU796  ALA797  LYS798  CYS799  TRP800  GLU811  SER814 

> <Gold.Protein.RotatedAtoms>
  152.2792  133.5454  159.5486 H   0  0  0  0  0  0  0  0  0  0  0  0  # atno 6907 bound_to 6896
  150.7189  134.0588  159.3833 H   0  0  0  0  0  0  0  0  0  0  0  0  # atno 6908 bound_to 6896
  151.8500  135.0561  160.0508 H   0  0  0  0  0  0  0  0  0  0  0  0  # atno 6909 bound_to 6896
  145.3413  140.9460  143.2606 H   0  0  0  0  0  0  0  0  0  0  0  0  # atno 7974 bound_to 7965
  155.6106  140.3495  155.4621 H   0  0  0  0  0  0  0  0  0  0  0  0  # atno 8008 bound_to 7997
  156.0157  140.1243  157.0433 H   0  0  0  0  0  0  0  0  0  0  0  0  # atno 8009 bound_to 7997
  154.4297  140.1072  156.5879 H   0  0  0  0  0  0  0  0  0  0  0  0  # atno 8010 bound_to 7997
  139.6719  143.9730  152.2288 H   0  0  0  0  0  0  0  0  0  0  0  0  # atno 10167 bound_to 10162
  157.5114  130.8503  149.8440 H   0  0  0  0  0  0  0  0  0  0  0  0  # atno 10718 bound_to 10713
  154.6230  135.5447  153.7596 H   0  0  0  0  0  0  0  0  0  0  0  0  # atno 10763 bound_to 10752
  153.0247  135.6417  154.1412 H   0  0  0  0  0  0  0  0  0  0  0  0  # atno 10764 bound_to 10752
  154.1346  135.2912  155.3156 H   0  0  0  0  0  0  0  0  0  0  0  0  # atno 10765 bound_to 10752
  140.8417  134.2394  157.4806 H   0  0  0  0  0  0  0  0  0  0  0  0  # atno 11005 bound_to 11000
  144.8788  139.4933  143.6733 LP  0  0  0  0  0  0  0  0  0  0  0  0  # atno 17320 bound_to 7965
  146.3006  139.7415  142.9094 LP  0  0  0  0  0  0  0  0  0  0  0  0  # atno 17321 bound_to 7965
  139.9497  144.6628  150.8184 LP  0  0  0  0  0  0  0  0  0  0  0  0  # atno 17342 bound_to 10162
  140.7621  143.3190  151.2665 LP  0  0  0  0  0  0  0  0  0  0  0  0  # atno 17343 bound_to 10162
  156.0291  130.3770  150.1737 LP  0  0  0  0  0  0  0  0  0  0  0  0  # atno 17370 bound_to 10713
  156.9926  130.9898  151.3411 LP  0  0  0  0  0  0  0  0  0  0  0  0  # atno 17371 bound_to 10713
  139.8703  134.9639  156.4476 LP  0  0  0  0  0  0  0  0  0  0  0  0  # atno 17394 bound_to 11000
  140.8888  133.7864  155.9548 LP  0  0  0  0  0  0  0  0  0  0  0  0  # atno 17395 bound_to 11000

$$$$
