AV-unprocessed.smi:697|AV-procd|sdf|3393|dock5
  -GOLD-   22720 0373D 1   1.00000     0.00000
 Structure written by MMmdl.
 43 44  0  0  0  0  0  0  0  0  2 V2000
  146.7088  130.6741  153.1272 C   0  0  0  0  0  0  0  0  0  0  0  0
  147.5181  131.2096  154.1663 O   0  0  0  0  0  0  0  0  0  0  0  0
  148.8184  131.6626  153.7863 C   0  0  1  0  0  0  0  0  0  0  0  0
  149.7144  130.4604  153.4491 C   0  0  0  0  0  0  0  0  0  0  0  0
  148.7606  132.8243  152.7770 C   0  0  0  0  0  0  0  0  0  0  0  0
  149.8572  133.4843  153.6094 C   0  0  1  0  0  0  0  0  0  0  0  0
  149.7103  134.9334  153.6859 N   0  0  0  0  0  0  0  0  0  0  0  0
  150.5753  135.7507  154.3008 C   0  0  0  0  0  0  0  0  0  0  0  0
  151.5960  135.3506  154.8603 O   0  0  0  0  0  0  0  0  0  0  0  0
  150.1737  137.0308  154.2023 N   0  0  0  0  0  0  0  0  0  0  0  0
  150.7659  138.1974  154.7160 C   0  0  0  0  0  0  0  0  0  0  0  0
  150.2181  138.9918  155.6773 C   0  0  0  0  0  0  0  0  0  0  0  0
  150.8779  140.1972  156.1629 C   0  0  0  0  0  0  0  0  0  0  0  0
  150.3454  141.0508  157.3001 C   0  0  0  0  0  0  0  0  0  0  0  0
  150.0905  142.2929  156.8883 F   0  0  0  0  0  0  0  0  0  0  0  0
  149.2129  140.5281  157.7680 F   0  0  0  0  0  0  0  0  0  0  0  0
  151.2209  141.1118  158.3035 F   0  0  0  0  0  0  0  0  0  0  0  0
  152.0949  140.4131  155.5465 C   0  0  0  0  0  0  0  0  0  0  0  0
  152.6939  139.6953  154.5713 N   0  5  0  0  0  0  0  0  0  0  0  0
  152.0666  138.5715  154.1225 C   0  0  0  0  0  0  0  0  0  0  0  0
  152.5586  137.8691  153.2383 O   0  0  0  0  0  0  0  0  0  0  0  0
  149.3178  132.7067  154.8376 C   0  0  0  0  0  0  0  0  0  0  0  0
  148.2261  133.4022  155.6764 C   0  0  0  0  0  0  0  0  0  0  0  0
  150.3732  132.2293  155.8399 C   0  0  0  0  0  0  0  0  0  0  0  0
  145.7201  130.4488  153.5262 H   0  0  0  0  0  0  0  0  0  0  0  0
  147.1164  129.7445  152.7315 H   0  0  0  0  0  0  0  0  0  0  0  0
  146.5789  131.3791  152.3059 H   0  0  0  0  0  0  0  0  0  0  0  0
  150.7501  130.7580  153.2868 H   0  0  0  0  0  0  0  0  0  0  0  0
  149.3951  129.9582  152.5364 H   0  0  0  0  0  0  0  0  0  0  0  0
  149.7088  129.7242  154.2531 H   0  0  0  0  0  0  0  0  0  0  0  0
  149.0610  132.5649  151.7615 H   0  0  0  0  0  0  0  0  0  0  0  0
  147.8144  133.3687  152.7868 H   0  0  0  0  0  0  0  0  0  0  0  0
  150.8524  133.1576  153.2990 H   0  0  0  0  0  0  0  0  0  0  0  0
  148.8975  135.3386  153.2452 H   0  0  0  0  0  0  0  0  0  0  0  0
  149.3416  137.1978  153.6553 H   0  0  0  0  0  0  0  0  0  0  0  0
  149.2562  138.7624  156.1045 H   0  0  0  0  0  0  0  0  0  0  0  0
  152.6767  141.2943  155.8919 H   0  0  0  0  0  0  0  0  0  0  0  0
  148.6273  134.2443  156.2414 H   0  0  0  0  0  0  0  0  0  0  0  0
  147.7803  132.7159  156.3972 H   0  0  0  0  0  0  0  0  0  0  0  0
  147.4137  133.7894  155.0615 H   0  0  0  0  0  0  0  0  0  0  0  0
  150.7238  133.0463  156.4713 H   0  0  0  0  0  0  0  0  0  0  0  0
  151.2531  131.8209  155.3436 H   0  0  0  0  0  0  0  0  0  0  0  0
  149.9782  131.4525  156.4954 H   0  0  0  0  0  0  0  0  0  0  0  0
  1  2  1  0  0  0  0
  1 25  1  0  0  0  0
  1 26  1  0  0  0  0
  1 27  1  0  0  0  0
  2  3  1  0  0  0  0
  3 22  1  0  0  0  0
  3  4  1  0  0  0  0
  3  5  1  0  0  0  0
  4 28  1  0  0  0  0
  4 29  1  0  0  0  0
  4 30  1  0  0  0  0
  5  6  1  0  0  0  0
  5 31  1  0  0  0  0
  5 32  1  0  0  0  0
  6  7  1  0  0  0  0
  6 22  1  0  0  0  0
  6 33  1  0  0  0  0
  7  8  1  0  0  0  0
  7 34  1  0  0  0  0
  8  9  2  0  0  0  0
  8 10  1  0  0  0  0
 10 11  1  0  0  0  0
 10 35  1  0  0  0  0
 11 20  1  0  0  0  0
 11 12  2  0  0  0  0
 12 13  1  0  0  0  0
 12 36  1  0  0  0  0
 13 14  1  0  0  0  0
 13 18  2  0  0  0  0
 14 15  1  0  0  0  0
 14 16  1  0  0  0  0
 14 17  1  0  0  0  0
 18 19  1  0  0  0  0
 18 37  1  0  0  0  0
 19 20  1  0  0  0  0
 20 21  2  0  0  0  0
 22 23  1  0  0  0  0
 22 24  1  0  0  0  0
 23 38  1  0  0  0  0
 23 39  1  0  0  0  0
 23 40  1  0  0  0  0
 24 41  1  0  0  0  0
 24 42  1  0  0  0  0
 24 43  1  0  0  0  0
M  CHG  1  19  -1
M  END
> <s_m_source_file>
AV-unprocessed.smi

> <i_m_source_file_index>
697

> <i_lp_mmshare_version>
43012

> <i_f3d_flags>
0

> <s_epik_input>
W0NIM11PW0NAQF0xKFtDSDNdKVtDSDJdW0NASF0oQzEoW0NIM10pW0NIM10pW05IXUMoPU8pW05IXWMyW2NIXWMoQyhGKShGKUYpW2NIXVtuSF1jMj1P

> <s_epik_cmdline>
J2VwaWtfcHl0aG9uJywgJy1waCcsICc3LjAnLCAnLXRuJywgJzgnLCAnLW1hJywgJzIwMCcsICctbWV0YWxfYmluZGluZycsICctaW1hZScsICc8aW5maWxlLm1hZT4nLCAnLW9tYWUnLCAnPG91dGZpbGUubWFlPic=

> <r_lp_tautomer_probability>
1

> <r_epik_Ionization_Penalty>
3.20094

> <r_epik_Ionization_Penalty_Charging>
0.180017

> <r_epik_Ionization_Penalty_Neutral>
3.02092

> <r_epik_State_Penalty>
3.01726

> <r_epik_Charging_Adjusted_Penalty>
3.19727

> <i_epik_Tot_Q>
-1

> <i_epik_Tot_abs_Q>
1

> <r_epik_Metal_State_Penalty>
0.455096

> <b_epik_Metal_Only>
1

> <s_lp_Force_Field>
OPLS_2005

> <r_lp_Energy>
36.1164

> <b_lp_Chiralities_Consistent>
1

> <s_lp_Variant>
AV-unprocessed.smi:697-5

> <Gold.Version>
5.8.1

> <Gold.Id.Protein>
6NUR|6NUR_protein|mol2

> <Gold.PLP.Fitness>
44.5640

> <Gold.PLP.PLP>
-31.6760

> <Gold.PLP.part.hbond>
-6.1584

> <Gold.PLP.part.metal>
0.0000

> <Gold.PLP.part.buried>
-0.3425

> <Gold.PLP.part.nonpolar>
-27.0521

> <Gold.PLP.part.repulsive>
0.3409

> <Gold.PLP.ligand.clash>
0.0000

> <Gold.PLP.ligand.torsion>
1.0069

> <Gold.PLP.Chemscore.Hbond>
4.8240

> <Gold.PLP.Chemscore.CHOScore>
0.0000

> <Gold.PLP.Chemscore.Metal>
0.0000

> <Gold.Chemscore.Hbonds>
donor molecule, donor type, donor heavy atom, donor atom, acceptor molecule, acceptor atom, score
      L1  H     7    34       P1  7948  0.45
      L1  H    10    35       P1  7948  0.41
      P1  H  7989  7998       L1    19  0.03
      P1  H  7997  8009       L1    19  0.09
      P1  H 10752 10764       L1     9  0.59

> <Gold.PLP.Chemscore.Internal.Correction>
0.4298

> <Gold.Rescore>
     Score         DG    S(hbond)    S(metal)    S(lipo)     H(rot)  DE(clash)    DE(int)     intcor
     12.57     -14.28       1.52        0.00      60.27       1.30       0.52       1.19       ----

> <Gold.Chemscore.Fitness>
12.5735

> <Gold.Chemscore.DG>
-14.2762

> <Gold.Chemscore.ZeroCoef>
-5.4800

> <Gold.Chemscore.Hbond>
1.5166

> <Gold.Chemscore.Metal>
0.0000

> <Gold.Chemscore.Lipo>
60.2716

> <Gold.Chemscore.Internal_Hbond>
0.0000

> <Gold.Chemscore.DEClash>
0.5153

> <Gold.Chemscore.DEInternal>
1.1874

> <Gold.Chemscore.Rot>
1.2973

> <Gold.Chemscore.Internal.Correction>
   9.000000E+99

> <Gold.Chemscore.Hbonds>
donor molecule, donor type, donor heavy atom, donor atom, acceptor molecule, acceptor atom, score
      L1  H     7    34       P1  7948  0.26
      L1  H    10    35       P1  7948  0.39
      P1  H 10752 10764       L1     9  0.58

> <Gold.Chemscore.Hbond.Weighted>
-5.0654

> <Gold.Chemscore.Metal.Weighted>
-0.0000

> <Gold.Chemscore.Lipo.Weighted>
-7.0518

> <Gold.Chemscore.Internal_Hbond.Weighted>
0.0000

> <Gold.Chemscore.DEClash.Weighted>
0.5153

> <Gold.Chemscore.DEInternal.Weighted>
1.1874

> <Gold.Chemscore.Rot.Weighted>
3.3210

> <Gold.Chemscore.Internal.Correction.Weighted>
   9.000000E+99

> <Gold.Protein.RotatedTorsions>
[ 6907 6896 6895 6894 ] final  107.80 input  -60.11 | X-H torsion
[ 7974 7965 7964 7962 ] final  137.47 input  175.53 | X-H torsion
[ 8008 7997 7996 7995 ] final -127.32 input   59.86 | X-H torsion
[ 10167 10162 10161 10158 ] final -140.69 input  -65.29 | X-H torsion
[ 10718 10713 10712 10709 ] final   76.95 input   66.30 | X-H torsion
[ 10763 10752 10751 10750 ] final  -42.49 input  -60.55 | X-H torsion
[ 11005 11000 10999 10996 ] final  147.16 input  -57.11 | X-H torsion

> <Gold.Protein.ActiveResidues>
 VAL166  LYS551  ARG553  GLY616  TRP617  ASP618  TYR619  PRO620  LYS621  CYS622 
 ASP623  PHE694  ASN695  SER759  ASP760  ASP761  ALA762  ILE779  LEU786  VAL792 
 PHE793  MET794  SER795  GLU796  ALA797  LYS798  CYS799  TRP800  GLU811  SER814 

> <Gold.Protein.RotatedAtoms>
  152.5139  133.9181  159.7520 H   0  0  0  0  0  0  0  0  0  0  0  0  # atno 6907 bound_to 6896
  150.9559  133.6489  159.2770 H   0  0  0  0  0  0  0  0  0  0  0  0  # atno 6908 bound_to 6896
  151.3751  135.0935  159.9531 H   0  0  0  0  0  0  0  0  0  0  0  0  # atno 6909 bound_to 6896
  144.9465  139.4869  143.5546 H   0  0  0  0  0  0  0  0  0  0  0  0  # atno 7974 bound_to 7965
  155.2442  140.0430  157.2979 H   0  0  0  0  0  0  0  0  0  0  0  0  # atno 8008 bound_to 7997
  154.5809  140.2400  155.8025 H   0  0  0  0  0  0  0  0  0  0  0  0  # atno 8009 bound_to 7997
  156.2192  140.2975  155.9920 H   0  0  0  0  0  0  0  0  0  0  0  0  # atno 8010 bound_to 7997
  139.8257  143.7514  152.2666 H   0  0  0  0  0  0  0  0  0  0  0  0  # atno 10167 bound_to 10162
  157.6692  130.9798  150.1571 H   0  0  0  0  0  0  0  0  0  0  0  0  # atno 10718 bound_to 10713
  153.9799  135.6718  153.4750 H   0  0  0  0  0  0  0  0  0  0  0  0  # atno 10763 bound_to 10752
  153.0753  135.4952  154.8388 H   0  0  0  0  0  0  0  0  0  0  0  0  # atno 10764 bound_to 10752
  154.7170  135.3109  154.9069 H   0  0  0  0  0  0  0  0  0  0  0  0  # atno 10765 bound_to 10752
  140.0853  134.9073  157.1565 H   0  0  0  0  0  0  0  0  0  0  0  0  # atno 11005 bound_to 11000
  146.3305  139.8521  142.8871 LP  0  0  0  0  0  0  0  0  0  0  0  0  # atno 17320 bound_to 7965
  145.2910  141.0167  143.3663 LP  0  0  0  0  0  0  0  0  0  0  0  0  # atno 17321 bound_to 7965
  139.7706  144.7478  151.0230 LP  0  0  0  0  0  0  0  0  0  0  0  0  # atno 17342 bound_to 10162
  140.7810  143.4649  151.0226 LP  0  0  0  0  0  0  0  0  0  0  0  0  # atno 17343 bound_to 10162
  156.2356  130.3686  149.8395 LP  0  0  0  0  0  0  0  0  0  0  0  0  # atno 17370 bound_to 10713
  156.6209  130.8626  151.3475 LP  0  0  0  0  0  0  0  0  0  0  0  0  # atno 17371 bound_to 10713
  140.3429  134.2683  155.7209 LP  0  0  0  0  0  0  0  0  0  0  0  0  # atno 17394 bound_to 11000
  141.2060  133.7844  157.0199 LP  0  0  0  0  0  0  0  0  0  0  0  0  # atno 17395 bound_to 11000

$$$$
