AV-unprocessed.smi:2482|AV-procd|sdf|9784|dock2
  -GOLD-   2272013423D 1   1.00000     0.00000
 Structure written by MMmdl.
 34 35  0  0  0  0  0  0  0  0  3 V2000
  153.1057  143.1578  162.7586 C   0  0  0  0  0  0  0  0  0  0  0  0
  152.5752  143.4445  161.3662 C   0  0  0  0  0  0  0  0  0  0  0  0
  152.0167  144.6622  161.1954 N   0  0  0  0  0  0  0  0  0  0  0  0
  151.5344  144.9658  159.9742 C   0  0  0  0  0  0  0  0  0  0  0  0
  151.5841  144.0798  158.8816 C   0  0  0  0  0  0  0  0  0  0  0  0
  152.1578  142.7996  159.0473 C   0  0  0  0  0  0  0  0  0  0  0  0
  152.2180  141.9447  158.0129 N   0  5  0  0  0  0  0  0  0  0  0  0
  151.2109  141.0611  157.8070 C   0  0  0  0  0  0  0  0  0  0  0  0
  151.2043  139.8441  158.0024 O   0  0  0  0  0  0  0  0  0  0  0  0
  149.9598  141.7603  157.2540 C   0  0  1  0  0  0  0  0  0  0  0  0
  149.5622  141.2635  155.8454 C   0  0  0  0  0  0  0  0  0  0  0  0
  148.3188  141.9321  155.3999 N   0  3  1  0  0  0  0  0  0  0  0  0
  147.9172  141.5376  154.0333 C   0  0  0  0  0  0  0  0  0  0  0  0
  147.2357  141.7438  156.3916 C   0  0  0  0  0  0  0  0  0  0  0  0
  147.6990  142.2111  157.7813 C   0  0  0  0  0  0  0  0  0  0  0  0
  148.8803  141.5118  158.1510 O   0  0  0  0  0  0  0  0  0  0  0  0
  152.6728  142.4835  160.3315 C   0  0  0  0  0  0  0  0  0  0  0  0
  153.4124  140.9453  160.6386 Cl  0  0  0  0  0  0  0  0  0  0  0  0
  152.6075  142.2853  163.1818 H   0  0  0  0  0  0  0  0  0  0  0  0
  152.9407  143.9995  163.4324 H   0  0  0  0  0  0  0  0  0  0  0  0
  154.1773  142.9601  162.7221 H   0  0  0  0  0  0  0  0  0  0  0  0
  151.0953  145.9461  159.8630 H   0  0  0  0  0  0  0  0  0  0  0  0
  151.1809  144.3816  157.9259 H   0  0  0  0  0  0  0  0  0  0  0  0
  150.1506  142.8353  157.2076 H   0  0  0  0  0  0  0  0  0  0  0  0
  150.3628  141.4746  155.1347 H   0  0  0  0  0  0  0  0  0  0  0  0
  149.4063  140.1830  155.8453 H   0  0  0  0  0  0  0  0  0  0  0  0
  147.6895  140.4719  153.9842 H   0  0  0  0  0  0  0  0  0  0  0  0
  148.7161  141.7501  153.3220 H   0  0  0  0  0  0  0  0  0  0  0  0
  147.0331  142.0919  153.7174 H   0  0  0  0  0  0  0  0  0  0  0  0
  146.3527  142.3060  156.0855 H   0  0  0  0  0  0  0  0  0  0  0  0
  146.9504  140.6912  156.4284 H   0  0  0  0  0  0  0  0  0  0  0  0
  147.8804  143.2870  157.7918 H   0  0  0  0  0  0  0  0  0  0  0  0
  146.9245  142.0119  158.5223 H   0  0  0  0  0  0  0  0  0  0  0  0
  148.5188  142.9219  155.3717 H   0  0  0  0  0  0  0  0  0  0  0  0
  1  2  1  0  0  0  0
  1 19  1  0  0  0  0
  1 20  1  0  0  0  0
  1 21  1  0  0  0  0
  2 17  1  0  0  0  0
  2  3  2  0  0  0  0
  3  4  1  0  0  0  0
  4  5  2  0  0  0  0
  4 22  1  0  0  0  0
  5  6  1  0  0  0  0
  5 23  1  0  0  0  0
  6  7  1  0  0  0  0
  6 17  2  0  0  0  0
  7  8  1  0  0  0  0
  8  9  2  0  0  0  0
  8 10  1  0  0  0  0
 10 16  1  0  0  0  0
 10 11  1  0  0  0  0
 10 24  1  0  0  0  0
 11 12  1  0  0  0  0
 11 25  1  0  0  0  0
 11 26  1  0  0  0  0
 12 13  1  0  0  0  0
 12 14  1  0  0  0  0
 12 34  1  0  0  0  0
 13 27  1  0  0  0  0
 13 28  1  0  0  0  0
 13 29  1  0  0  0  0
 14 15  1  0  0  0  0
 14 30  1  0  0  0  0
 14 31  1  0  0  0  0
 15 16  1  0  0  0  0
 15 32  1  0  0  0  0
 15 33  1  0  0  0  0
 17 18  1  0  0  0  0
M  CHG  1   7  -1
M  CHG  1  12   1
M  END
> <s_m_source_file>
AV-unprocessed.smi

> <i_m_source_file_index>
2482

> <i_lp_mmshare_version>
43012

> <i_f3d_flags>
0

> <s_epik_input>
W0NIM11jMW5bY0hdW2NIXWMoYzFDbClbTkhdQyg9TylbQ0BASF0yW0NIMl1OKFtDSDNdKVtDSDJdW0NIMl1PMg==

> <s_epik_cmdline>
J2VwaWtfcHl0aG9uJywgJy1waCcsICc3LjAnLCAnLXRuJywgJzgnLCAnLW1hJywgJzIwMCcsICctbWV0YWxfYmluZGluZycsICctaW1hZScsICc8aW5maWxlLm1hZT4nLCAnLW9tYWUnLCAnPG91dGZpbGUubWFlPic=

> <r_epik_Ionization_Penalty>
6.9249

> <r_epik_Ionization_Penalty_Charging>
6.74596

> <r_epik_Ionization_Penalty_Neutral>
0.178941

> <r_epik_State_Penalty>
6.78185

> <r_epik_Charging_Adjusted_Penalty>
13.5278

> <i_epik_Tot_Q>
0

> <i_epik_Tot_abs_Q>
2

> <r_epik_Metal_State_Penalty>
2.70608

> <b_epik_Metal_Only>
1

> <s_lp_Force_Field>
OPLS_2005

> <r_lp_Energy>
14.2833

> <b_lp_Chiralities_Consistent>
1

> <s_lp_Variant>
AV-unprocessed.smi:2482-10

> <Gold.Version>
5.8.1

> <Gold.Id.Protein>
6NUR|6NUR_protein|mol2

> <Gold.PLP.Fitness>
42.7866

> <Gold.PLP.PLP>
-39.2295

> <Gold.PLP.part.hbond>
-1.0000

> <Gold.PLP.part.metal>
0.0000

> <Gold.PLP.part.buried>
-5.5603

> <Gold.PLP.part.nonpolar>
-33.6782

> <Gold.PLP.part.repulsive>
0.3616

> <Gold.PLP.ligand.clash>
0.0000

> <Gold.PLP.ligand.torsion>
1.4475

> <Gold.PLP.Chemscore.Hbond>
2.0000

> <Gold.PLP.Chemscore.CHOScore>
0.0000

> <Gold.PLP.Chemscore.Metal>
0.0000

> <Gold.Chemscore.Hbonds>
donor molecule, donor type, donor heavy atom, donor atom, acceptor molecule, acceptor atom, score
      L1  H    12    34       P1  8028  2.00

> <Gold.PLP.Chemscore.Internal.Correction>
0.4521

> <Gold.Rescore>
     Score         DG    S(hbond)    S(metal)    S(lipo)     H(rot)  DE(clash)    DE(int)     intcor
     16.37     -17.90       1.00        0.00      99.59       1.00       0.11       1.43       ----

> <Gold.Chemscore.Fitness>
16.3663

> <Gold.Chemscore.DG>
-17.9009

> <Gold.Chemscore.ZeroCoef>
-5.4800

> <Gold.Chemscore.Hbond>
0.9967

> <Gold.Chemscore.Metal>
0.0000

> <Gold.Chemscore.Lipo>
99.5896

> <Gold.Chemscore.Internal_Hbond>
0.0000

> <Gold.Chemscore.DEClash>
0.1071

> <Gold.Chemscore.DEInternal>
1.4274

> <Gold.Chemscore.Rot>
1.0000

> <Gold.Chemscore.Internal.Correction>
   9.000000E+99

> <Gold.Chemscore.Hbonds>
donor molecule, donor type, donor heavy atom, donor atom, acceptor molecule, acceptor atom, score
      L1  H    12    34       P1  8028  1.00

> <Gold.Chemscore.Hbond.Weighted>
-3.3289

> <Gold.Chemscore.Metal.Weighted>
-0.0000

> <Gold.Chemscore.Lipo.Weighted>
-11.6520

> <Gold.Chemscore.Internal_Hbond.Weighted>
0.0000

> <Gold.Chemscore.DEClash.Weighted>
0.1071

> <Gold.Chemscore.DEInternal.Weighted>
1.4274

> <Gold.Chemscore.Rot.Weighted>
2.5600

> <Gold.Chemscore.Internal.Correction.Weighted>
   9.000000E+99

> <Gold.Protein.RotatedTorsions>
[ 6907 6896 6895 6894 ] final  130.96 input  -60.11 | X-H torsion
[ 7974 7965 7964 7962 ] final   98.93 input  175.53 | X-H torsion
[ 8008 7997 7996 7995 ] final -178.38 input   59.86 | X-H torsion
[ 10167 10162 10161 10158 ] final  -19.81 input  -65.29 | X-H torsion
[ 10718 10713 10712 10709 ] final -118.70 input   66.30 | X-H torsion
[ 10763 10752 10751 10750 ] final   64.94 input  -60.55 | X-H torsion
[ 11005 11000 10999 10996 ] final   -1.85 input  -57.11 | X-H torsion

> <Gold.Protein.ActiveResidues>
 VAL166  LYS551  ARG553  GLY616  TRP617  ASP618  TYR619  PRO620  LYS621  CYS622 
 ASP623  PHE694  ASN695  SER759  ASP760  ASP761  ALA762  ILE779  LEU786  VAL792 
 PHE793  MET794  SER795  GLU796  ALA797  LYS798  CYS799  TRP800  GLU811  SER814 

> <Gold.Protein.RotatedAtoms>
  152.3474  133.6138  159.5919 H   0  0  0  0  0  0  0  0  0  0  0  0  # atno 6907 bound_to 6896
  150.7516  133.9628  159.3530 H   0  0  0  0  0  0  0  0  0  0  0  0  # atno 6908 bound_to 6896
  151.7484  135.0839  160.0378 H   0  0  0  0  0  0  0  0  0  0  0  0  # atno 6909 bound_to 6896
  145.4056  139.2341  143.3276 H   0  0  0  0  0  0  0  0  0  0  0  0  # atno 7974 bound_to 7965
  156.0181  140.1255  157.0385 H   0  0  0  0  0  0  0  0  0  0  0  0  # atno 8008 bound_to 7997
  154.4301  140.1074  156.5995 H   0  0  0  0  0  0  0  0  0  0  0  0  # atno 8009 bound_to 7997
  155.5983  140.3470  155.4588 H   0  0  0  0  0  0  0  0  0  0  0  0  # atno 8010 bound_to 7997
  140.7271  143.4783  151.0152 H   0  0  0  0  0  0  0  0  0  0  0  0  # atno 10167 bound_to 10162
  156.1125  130.6260  150.9323 H   0  0  0  0  0  0  0  0  0  0  0  0  # atno 10718 bound_to 10713
  153.0076  135.5375  154.6589 H   0  0  0  0  0  0  0  0  0  0  0  0  # atno 10763 bound_to 10752
  154.5803  135.2849  155.0742 H   0  0  0  0  0  0  0  0  0  0  0  0  # atno 10764 bound_to 10752
  154.1874  135.6506  153.5103 H   0  0  0  0  0  0  0  0  0  0  0  0  # atno 10765 bound_to 10752
  140.6519  133.9397  155.8385 H   0  0  0  0  0  0  0  0  0  0  0  0  # atno 11005 bound_to 11000
  146.2730  140.4761  142.8807 LP  0  0  0  0  0  0  0  0  0  0  0  0  # atno 17320 bound_to 7965
  144.8344  140.6758  143.6270 LP  0  0  0  0  0  0  0  0  0  0  0  0  # atno 17321 bound_to 7965
  139.8480  143.7476  152.3179 LP  0  0  0  0  0  0  0  0  0  0  0  0  # atno 17342 bound_to 10162
  139.7648  144.7495  151.0311 LP  0  0  0  0  0  0  0  0  0  0  0  0  # atno 17343 bound_to 10162
  157.6307  131.0921  150.8446 LP  0  0  0  0  0  0  0  0  0  0  0  0  # atno 17370 bound_to 10713
  156.8555  130.5095  149.5308 LP  0  0  0  0  0  0  0  0  0  0  0  0  # atno 17371 bound_to 10713
  141.0530  134.0457  157.3759 LP  0  0  0  0  0  0  0  0  0  0  0  0  # atno 17394 bound_to 11000
  139.9043  135.0175  156.7413 LP  0  0  0  0  0  0  0  0  0  0  0  0  # atno 17395 bound_to 11000

$$$$
