AV-unprocessed.smi:2153|AV-procd|sdf|8768|dock6
  -GOLD-   2272011543D 1   1.00000     0.00000
 Structure written by MMmdl.
 48 49  0  0  0  0  0  0  0  0  1 V2000
  153.3561  142.3543  160.7985 C   0  0  0  0  0  0  0  0  0  0  0  0
  152.8256  143.5812  160.0406 C   0  0  2  0  0  0  0  0  0  0  0  0
  151.7428  144.3281  160.8477 C   0  0  0  0  0  0  0  0  0  0  0  0
  151.2422  145.5752  160.1028 C   0  0  0  0  0  0  0  0  0  0  0  0
  150.7458  145.2203  158.6941 C   0  0  0  0  0  0  0  0  0  0  0  0
  151.8265  144.4811  157.8899 C   0  0  0  0  0  0  0  0  0  0  0  0
  152.3140  143.2156  158.6286 C   0  0  2  0  0  0  0  0  0  0  0  0
  151.2565  142.2767  158.7804 O   0  0  0  0  0  0  0  0  0  0  0  0
  151.1901  141.2550  157.7973 C   0  0  0  0  0  0  0  0  0  0  0  0
  151.1137  141.9075  156.4077 C   0  0  0  0  0  0  0  0  0  0  0  0
  149.7416  141.9604  155.9111 N   0  0  0  0  0  0  0  0  0  0  0  0
  149.2137  141.1164  155.0109 C   0  0  0  0  0  0  0  0  0  0  0  0
  149.8615  140.2266  154.4600 O   0  0  0  0  0  0  0  0  0  0  0  0
  147.7336  141.3185  154.6641 C   0  0  0  0  0  0  0  0  0  0  0  0
  146.9727  140.0668  154.7706 N   0  0  0  0  0  0  0  0  0  0  0  0
  147.2760  139.0198  153.9190 C   0  0  0  0  0  0  0  0  0  0  0  0
  146.6169  137.8407  153.9209 C   0  0  0  0  0  0  0  0  0  0  0  0
  145.5113  137.6044  154.8403 C   0  0  0  0  0  0  0  0  0  0  0  0
  144.8858  136.5444  154.8843 O   0  0  0  0  0  0  0  0  0  0  0  0
  145.2135  138.6927  155.6932 N   0  0  0  0  0  0  0  0  0  0  0  0
  144.1274  138.5241  156.6364 C   0  0  0  0  0  0  0  0  0  0  0  0
  145.9282  139.9125  155.7094 C   0  0  0  0  0  0  0  0  0  0  0  0
  145.6644  140.8150  156.5070 O   0  0  0  0  0  0  0  0  0  0  0  0
  152.5645  141.6287  160.9883 H   0  0  0  0  0  0  0  0  0  0  0  0
  153.7782  142.6420  161.7616 H   0  0  0  0  0  0  0  0  0  0  0  0
  154.1404  141.8521  160.2318 H   0  0  0  0  0  0  0  0  0  0  0  0
  153.6678  144.2632  159.9156 H   0  0  0  0  0  0  0  0  0  0  0  0
  150.9016  143.6631  161.0480 H   0  0  0  0  0  0  0  0  0  0  0  0
  152.1386  144.6213  161.8205 H   0  0  0  0  0  0  0  0  0  0  0  0
  150.4424  146.0505  160.6708 H   0  0  0  0  0  0  0  0  0  0  0  0
  152.0480  146.3066  160.0322 H   0  0  0  0  0  0  0  0  0  0  0  0
  149.8602  144.5904  158.7702 H   0  0  0  0  0  0  0  0  0  0  0  0
  150.4401  146.1249  158.1681 H   0  0  0  0  0  0  0  0  0  0  0  0
  151.4506  144.2381  156.8968 H   0  0  0  0  0  0  0  0  0  0  0  0
  152.6728  145.1502  157.7299 H   0  0  0  0  0  0  0  0  0  0  0  0
  153.1299  142.7561  158.0676 H   0  0  0  0  0  0  0  0  0  0  0  0
  152.0525  140.5909  157.8487 H   0  0  0  0  0  0  0  0  0  0  0  0
  150.3000  140.6481  157.9683 H   0  0  0  0  0  0  0  0  0  0  0  0
  151.4811  142.9317  156.4691 H   0  0  0  0  0  0  0  0  0  0  0  0
  151.7636  141.3880  155.7013 H   0  0  0  0  0  0  0  0  0  0  0  0
  149.1424  142.6723  156.3027 H   0  0  0  0  0  0  0  0  0  0  0  0
  147.2980  142.0774  155.3165 H   0  0  0  0  0  0  0  0  0  0  0  0
  147.6591  141.7264  153.6546 H   0  0  0  0  0  0  0  0  0  0  0  0
  148.0806  139.1498  153.2098 H   0  0  0  0  0  0  0  0  0  0  0  0
  146.9064  137.0645  153.2279 H   0  0  0  0  0  0  0  0  0  0  0  0
  143.6997  139.4945  156.8906 H   0  0  0  0  0  0  0  0  0  0  0  0
  144.5443  138.0298  157.5148 H   0  0  0  0  0  0  0  0  0  0  0  0
  143.3419  137.9242  156.1739 H   0  0  0  0  0  0  0  0  0  0  0  0
  1  2  1  0  0  0  0
  1 24  1  0  0  0  0
  1 25  1  0  0  0  0
  1 26  1  0  0  0  0
  2  7  1  0  0  0  0
  2  3  1  0  0  0  0
  2 27  1  0  0  0  0
  3  4  1  0  0  0  0
  3 28  1  0  0  0  0
  3 29  1  0  0  0  0
  4  5  1  0  0  0  0
  4 30  1  0  0  0  0
  4 31  1  0  0  0  0
  5  6  1  0  0  0  0
  5 32  1  0  0  0  0
  5 33  1  0  0  0  0
  6  7  1  0  0  0  0
  6 34  1  0  0  0  0
  6 35  1  0  0  0  0
  7  8  1  0  0  0  0
  7 36  1  0  0  0  0
  8  9  1  0  0  0  0
  9 10  1  0  0  0  0
  9 37  1  0  0  0  0
  9 38  1  0  0  0  0
 10 11  1  0  0  0  0
 10 39  1  0  0  0  0
 10 40  1  0  0  0  0
 11 12  1  0  0  0  0
 11 41  1  0  0  0  0
 12 13  2  0  0  0  0
 12 14  1  0  0  0  0
 14 15  1  0  0  0  0
 14 42  1  0  0  0  0
 14 43  1  0  0  0  0
 15 22  1  0  0  0  0
 15 16  1  0  0  0  0
 16 17  2  0  0  0  0
 16 44  1  0  0  0  0
 17 18  1  0  0  0  0
 17 45  1  0  0  0  0
 18 19  2  0  0  0  0
 18 20  1  0  0  0  0
 20 21  1  0  0  0  0
 20 22  1  0  0  0  0
 21 46  1  0  0  0  0
 21 47  1  0  0  0  0
 21 48  1  0  0  0  0
 22 23  2  0  0  0  0
M  END
> <s_m_source_file>
AV-unprocessed.smi

> <i_m_source_file_index>
2153

> <i_lp_mmshare_version>
43012

> <i_f3d_flags>
0

> <s_epik_input>
W0NIM11bQ0BASF0xW0NIMl1bQ0gyXVtDSDJdW0NIMl1bQ0BIXTFPW0NIMl1bQ0gyXVtOSF1DKD1PKVtDSDJdbjJbY0hdW2NIXWMoPU8pbihbQ0gzXSljMj1P

> <s_epik_cmdline>
J2VwaWtfcHl0aG9uJywgJy1waCcsICc3LjAnLCAnLXRuJywgJzgnLCAnLW1hJywgJzIwMCcsICctbWV0YWxfYmluZGluZycsICctaW1hZScsICc8aW5maWxlLm1hZT4nLCAnLW9tYWUnLCAnPG91dGZpbGUubWFlPic=

> <r_lp_tautomer_probability>
1

> <r_epik_Ionization_Penalty>
4.02205e-08

> <r_epik_Ionization_Penalty_Charging>
1.23606e-08

> <r_epik_Ionization_Penalty_Neutral>
2.78599e-08

> <r_epik_State_Penalty>
-0

> <r_epik_Charging_Adjusted_Penalty>
1.23606e-08

> <i_epik_Tot_Q>
0

> <i_epik_Tot_abs_Q>
0

> <r_epik_Metal_State_Penalty>
-0

> <b_epik_Metal_Only>
0

> <s_lp_Force_Field>
OPLS_2005

> <r_lp_Energy>
17.534

> <b_lp_Chiralities_Consistent>
1

> <s_lp_Variant>
AV-unprocessed.smi:2153-3

> <Gold.Version>
5.8.1

> <Gold.Id.Protein>
6NUR|6NUR_protein|mol2

> <Gold.PLP.Fitness>
52.8873

> <Gold.PLP.PLP>
-46.4689

> <Gold.PLP.part.hbond>
-2.0000

> <Gold.PLP.part.metal>
0.0000

> <Gold.PLP.part.buried>
-6.6724

> <Gold.PLP.part.nonpolar>
-37.8529

> <Gold.PLP.part.repulsive>
0.4114

> <Gold.PLP.ligand.clash>
0.0000

> <Gold.PLP.ligand.torsion>
0.9947

> <Gold.PLP.Chemscore.Hbond>
1.7760

> <Gold.PLP.Chemscore.CHOScore>
1.0000

> <Gold.PLP.Chemscore.Metal>
0.0000

> <Gold.Chemscore.Hbonds>
donor molecule, donor type, donor heavy atom, donor atom, acceptor molecule, acceptor atom, score
      L1  H    11    41       P1  8028  0.39
      P1  H  7989  7998       L1    13  0.77
      L1  C    16    44       P1  7957  0.58

> <Gold.PLP.Chemscore.Internal.Correction>
0.0798

> <Gold.Rescore>
     Score         DG    S(hbond)    S(metal)    S(lipo)     H(rot)  DE(clash)    DE(int)     intcor
     15.89     -19.37       1.69        0.00     118.59       2.20       1.13       2.35       ----

> <Gold.Chemscore.Fitness>
15.8934

> <Gold.Chemscore.DG>
-19.3671

> <Gold.Chemscore.ZeroCoef>
-5.4800

> <Gold.Chemscore.Hbond>
1.6875

> <Gold.Chemscore.Metal>
0.0000

> <Gold.Chemscore.Lipo>
118.5858

> <Gold.Chemscore.Internal_Hbond>
0.0000

> <Gold.Chemscore.DEClash>
1.1267

> <Gold.Chemscore.DEInternal>
2.3470

> <Gold.Chemscore.Rot>
2.1968

> <Gold.Chemscore.Internal.Correction>
   9.000000E+99

> <Gold.Chemscore.Hbonds>
donor molecule, donor type, donor heavy atom, donor atom, acceptor molecule, acceptor atom, score
      L1  H    11    41       P1  8028  0.39
      P1  H  7989  7998       L1    13  0.66

> <Gold.Chemscore.Hbond.Weighted>
-5.6364

> <Gold.Chemscore.Metal.Weighted>
-0.0000

> <Gold.Chemscore.Lipo.Weighted>
-13.8745

> <Gold.Chemscore.Internal_Hbond.Weighted>
0.0000

> <Gold.Chemscore.DEClash.Weighted>
1.1267

> <Gold.Chemscore.DEInternal.Weighted>
2.3470

> <Gold.Chemscore.Rot.Weighted>
5.6238

> <Gold.Chemscore.Internal.Correction.Weighted>
   9.000000E+99

> <Gold.Protein.RotatedTorsions>
[ 6907 6896 6895 6894 ] final  110.63 input  -60.11 | X-H torsion
[ 7974 7965 7964 7962 ] final  -56.08 input  175.53 | X-H torsion
[ 8008 7997 7996 7995 ] final -156.87 input   59.86 | X-H torsion
[ 10167 10162 10161 10158 ] final  -58.42 input  -65.29 | X-H torsion
[ 10718 10713 10712 10709 ] final  -25.11 input   66.30 | X-H torsion
[ 10763 10752 10751 10750 ] final  131.78 input  -60.55 | X-H torsion
[ 11005 11000 10999 10996 ] final -147.12 input  -57.11 | X-H torsion

> <Gold.Protein.ActiveResidues>
 VAL166  LYS551  ARG553  GLY616  TRP617  ASP618  TYR619  PRO620  LYS621  CYS622 
 ASP623  PHE694  ASN695  SER759  ASP760  ASP761  ALA762  ILE779  LEU786  VAL792 
 PHE793  MET794  SER795  GLU796  ALA797  LYS798  CYS799  TRP800  GLU811  SER814 

> <Gold.Protein.RotatedAtoms>
  152.5010  133.8773  159.7328 H   0  0  0  0  0  0  0  0  0  0  0  0  # atno 6907 bound_to 6896
  150.9244  133.6833  159.2831 H   0  0  0  0  0  0  0  0  0  0  0  0  # atno 6908 bound_to 6896
  151.4199  135.1001  159.9663 H   0  0  0  0  0  0  0  0  0  0  0  0  # atno 6909 bound_to 6896
  145.8668  140.8245  142.9908 H   0  0  0  0  0  0  0  0  0  0  0  0  # atno 7974 bound_to 7965
  155.7238  140.0793  157.2319 H   0  0  0  0  0  0  0  0  0  0  0  0  # atno 8008 bound_to 7997
  154.4041  140.1608  156.2486 H   0  0  0  0  0  0  0  0  0  0  0  0  # atno 8009 bound_to 7997
  155.9172  140.3400  155.6147 H   0  0  0  0  0  0  0  0  0  0  0  0  # atno 8010 bound_to 7997
  140.6198  143.2415  151.5508 H   0  0  0  0  0  0  0  0  0  0  0  0  # atno 10167 bound_to 10162
  156.4687  130.4519  149.6883 H   0  0  0  0  0  0  0  0  0  0  0  0  # atno 10718 bound_to 10713
  153.7799  135.3170  155.3364 H   0  0  0  0  0  0  0  0  0  0  0  0  # atno 10763 bound_to 10752
  154.8165  135.4632  154.0661 H   0  0  0  0  0  0  0  0  0  0  0  0  # atno 10764 bound_to 10752
  153.1947  135.6913  153.8393 H   0  0  0  0  0  0  0  0  0  0  0  0  # atno 10765 bound_to 10752
  140.7750  134.3145  157.5063 H   0  0  0  0  0  0  0  0  0  0  0  0  # atno 11005 bound_to 11000
  144.6726  140.1179  143.7451 LP  0  0  0  0  0  0  0  0  0  0  0  0  # atno 17320 bound_to 7965
  145.9183  139.2530  143.1396 LP  0  0  0  0  0  0  0  0  0  0  0  0  # atno 17321 bound_to 7965
  139.5429  144.2598  152.1386 LP  0  0  0  0  0  0  0  0  0  0  0  0  # atno 17342 bound_to 10162
  140.1816  144.4839  150.6525 LP  0  0  0  0  0  0  0  0  0  0  0  0  # atno 17343 bound_to 10162
  156.3641  130.7496  151.2472 LP  0  0  0  0  0  0  0  0  0  0  0  0  # atno 17370 bound_to 10713
  157.7493  131.0342  150.4306 LP  0  0  0  0  0  0  0  0  0  0  0  0  # atno 17371 bound_to 10713
  139.8750  134.9284  156.3449 LP  0  0  0  0  0  0  0  0  0  0  0  0  # atno 17394 bound_to 11000
  140.9538  133.7434  156.0307 LP  0  0  0  0  0  0  0  0  0  0  0  0  # atno 17395 bound_to 11000

$$$$
