AV-unprocessed.smi:1389|AV-procd|sdf|5650|dock3
  -GOLD-   22720 5273D 1   1.00000     0.00000
 Structure written by MMmdl.
 52 54  0  0  0  0  0  0  0  0  2 V2000
  151.1981  138.6795  157.3495 C   0  0  0  0  0  0  0  0  0  0  0  0
  150.2840  138.3808  156.1387 C   0  0  2  0  0  0  0  0  0  0  0  0
  151.1573  137.7558  155.0187 C   0  0  0  0  0  0  0  0  0  0  0  0
  150.4650  136.6595  154.3446 N   0  0  0  0  0  0  0  0  0  0  0  0
  150.5296  135.3655  154.6864 C   0  0  0  0  0  0  0  0  0  0  0  0
  151.2728  134.9201  155.5607 O   0  0  0  0  0  0  0  0  0  0  0  0
  149.6581  134.6345  153.9736 N   0  0  0  0  0  0  0  0  0  0  0  0
  149.3510  133.2553  154.1375 C   0  0  0  0  0  0  0  0  0  0  0  0
  150.1814  132.3923  154.8961 C   0  0  0  0  0  0  0  0  0  0  0  0
  149.8398  131.0327  155.0291 C   0  0  0  0  0  0  0  0  0  0  0  0
  148.6792  130.5557  154.3940 C   0  0  0  0  0  0  0  0  0  0  0  0
  147.9191  131.4001  153.6658 N   0  3  0  0  0  0  0  0  0  0  0  0
  148.1974  132.7175  153.5047 C   0  0  0  0  0  0  0  0  0  0  0  0
  147.3426  133.5043  152.7046 N   0  0  0  0  0  0  0  0  0  0  0  0
  147.2840  133.0944  151.3045 C   0  0  0  0  0  0  0  0  0  0  0  0
  145.8525  133.3626  150.8366 C   0  0  0  0  0  0  0  0  0  0  0  0
  145.0418  133.2398  152.1207 C   0  0  0  0  0  0  0  0  0  0  0  0
  145.9916  133.8148  153.1698 C   0  0  0  0  0  0  0  0  0  0  0  0
  149.4862  139.5444  155.6943 N   0  0  0  0  0  0  0  0  0  0  0  0
  148.7827  139.3075  154.4305 C   0  0  0  0  0  0  0  0  0  0  0  0
  147.9621  140.5276  153.9761 C   0  0  0  0  0  0  0  0  0  0  0  0
  148.8088  141.6643  153.8658 O   0  0  0  0  0  0  0  0  0  0  0  0
  149.4685  141.9663  155.0884 C   0  0  0  0  0  0  0  0  0  0  0  0
  150.3007  140.7532  155.5360 C   0  0  0  0  0  0  0  0  0  0  0  0
  151.8518  137.8350  157.5697 H   0  0  0  0  0  0  0  0  0  0  0  0
  150.6241  138.8618  158.2576 H   0  0  0  0  0  0  0  0  0  0  0  0
  151.8313  139.5494  157.1713 H   0  0  0  0  0  0  0  0  0  0  0  0
  149.5898  137.6035  156.4614 H   0  0  0  0  0  0  0  0  0  0  0  0
  151.3779  138.5127  154.2653 H   0  0  0  0  0  0  0  0  0  0  0  0
  152.1351  137.4502  155.3907 H   0  0  0  0  0  0  0  0  0  0  0  0
  149.8284  136.9215  153.6065 H   0  0  0  0  0  0  0  0  0  0  0  0
  149.0478  135.1497  153.3565 H   0  0  0  0  0  0  0  0  0  0  0  0
  151.0814  132.7534  155.3707 H   0  0  0  0  0  0  0  0  0  0  0  0
  150.4623  130.3658  155.6076 H   0  0  0  0  0  0  0  0  0  0  0  0
  148.3418  129.5303  154.4391 H   0  0  0  0  0  0  0  0  0  0  0  0
  148.0057  133.6446  150.7003 H   0  0  0  0  0  0  0  0  0  0  0  0
  147.5131  132.0309  151.2162 H   0  0  0  0  0  0  0  0  0  0  0  0
  145.7730  134.3787  150.4476 H   0  0  0  0  0  0  0  0  0  0  0  0
  145.5247  132.6755  150.0563 H   0  0  0  0  0  0  0  0  0  0  0  0
  144.0883  133.7665  152.0768 H   0  0  0  0  0  0  0  0  0  0  0  0
  144.8415  132.1891  152.3350 H   0  0  0  0  0  0  0  0  0  0  0  0
  145.7575  133.4481  154.1689 H   0  0  0  0  0  0  0  0  0  0  0  0
  145.8946  134.9005  153.2013 H   0  0  0  0  0  0  0  0  0  0  0  0
  149.4985  139.0395  153.6519 H   0  0  0  0  0  0  0  0  0  0  0  0
  148.0934  138.4700  154.5279 H   0  0  0  0  0  0  0  0  0  0  0  0
  147.4996  140.3334  153.0082 H   0  0  0  0  0  0  0  0  0  0  0  0
  147.1550  140.7339  154.6807 H   0  0  0  0  0  0  0  0  0  0  0  0
  150.1116  142.8339  154.9413 H   0  0  0  0  0  0  0  0  0  0  0  0
  148.7365  142.2348  155.8520 H   0  0  0  0  0  0  0  0  0  0  0  0
  150.7908  141.0180  156.4696 H   0  0  0  0  0  0  0  0  0  0  0  0
  151.0938  140.5722  154.8090 H   0  0  0  0  0  0  0  0  0  0  0  0
  147.0885  131.0240  153.2084 H   0  0  0  0  0  0  0  0  0  0  0  0
  1  2  1  0  0  0  0
  1 25  1  0  0  0  0
  1 26  1  0  0  0  0
  1 27  1  0  0  0  0
  2  3  1  0  0  0  0
  2 19  1  0  0  0  0
  2 28  1  0  0  0  0
  3  4  1  0  0  0  0
  3 29  1  0  0  0  0
  3 30  1  0  0  0  0
  4  5  1  0  0  0  0
  4 31  1  0  0  0  0
  5  6  2  0  0  0  0
  5  7  1  0  0  0  0
  7  8  1  0  0  0  0
  7 32  1  0  0  0  0
  8 13  1  0  0  0  0
  8  9  2  0  0  0  0
  9 10  1  0  0  0  0
  9 33  1  0  0  0  0
 10 11  2  0  0  0  0
 10 34  1  0  0  0  0
 11 12  1  0  0  0  0
 11 35  1  0  0  0  0
 12 13  2  0  0  0  0
 12 52  1  0  0  0  0
 13 14  1  0  0  0  0
 14 18  1  0  0  0  0
 14 15  1  0  0  0  0
 15 16  1  0  0  0  0
 15 36  1  0  0  0  0
 15 37  1  0  0  0  0
 16 17  1  0  0  0  0
 16 38  1  0  0  0  0
 16 39  1  0  0  0  0
 17 18  1  0  0  0  0
 17 40  1  0  0  0  0
 17 41  1  0  0  0  0
 18 42  1  0  0  0  0
 18 43  1  0  0  0  0
 19 24  1  0  0  0  0
 19 20  1  0  0  0  0
 20 21  1  0  0  0  0
 20 44  1  0  0  0  0
 20 45  1  0  0  0  0
 21 22  1  0  0  0  0
 21 46  1  0  0  0  0
 21 47  1  0  0  0  0
 22 23  1  0  0  0  0
 23 24  1  0  0  0  0
 23 48  1  0  0  0  0
 23 49  1  0  0  0  0
 24 50  1  0  0  0  0
 24 51  1  0  0  0  0
M  CHG  1  12   1
M  END
> <s_m_source_file>
AV-unprocessed.smi

> <i_m_source_file_index>
1389

> <i_lp_mmshare_version>
43012

> <i_f3d_flags>
0

> <s_epik_input>
W0NIMl0xW0NIMl1PW0NIMl1bQ0gyXU4xW0NASF0oW0NIM10pW0NIMl1bTkhdQyg9TylbTkhdYzJbY0hdW2NIXVtjSF1uYzJOM1tDSDJdW0NIMl1bQ0gyXVtDSDJdMw==

> <s_epik_cmdline>
J2VwaWtfcHl0aG9uJywgJy1waCcsICc3LjAnLCAnLXRuJywgJzgnLCAnLW1hJywgJzIwMCcsICctbWV0YWxfYmluZGluZycsICctaW1hZScsICc8aW5maWxlLm1hZT4nLCAnLW9tYWUnLCAnPG91dGZpbGUubWFlPic=

> <r_epik_Ionization_Penalty>
1.37675

> <r_epik_Ionization_Penalty_Charging>
1.11074

> <r_epik_Ionization_Penalty_Neutral>
0.26601

> <r_epik_State_Penalty>
1.46015

> <r_epik_Charging_Adjusted_Penalty>
2.57089

> <i_epik_Tot_Q>
1

> <i_epik_Tot_abs_Q>
1

> <r_epik_Metal_State_Penalty>
1.54223

> <b_epik_Metal_Only>
0

> <s_lp_Force_Field>
OPLS_2005

> <r_lp_Energy>
66.6842

> <b_lp_Chiralities_Consistent>
1

> <s_lp_Variant>
AV-unprocessed.smi:1389-5

> <Gold.Version>
5.8.1

> <Gold.Id.Protein>
6NUR|6NUR_protein|mol2

> <Gold.PLP.Fitness>
41.4457

> <Gold.PLP.PLP>
-33.6313

> <Gold.PLP.part.hbond>
-5.2220

> <Gold.PLP.part.metal>
0.0000

> <Gold.PLP.part.buried>
1.0633

> <Gold.PLP.part.nonpolar>
-29.6173

> <Gold.PLP.part.repulsive>
0.5278

> <Gold.PLP.ligand.clash>
0.0000

> <Gold.PLP.ligand.torsion>
0.9835

> <Gold.PLP.Chemscore.Hbond>
3.1840

> <Gold.PLP.Chemscore.CHOScore>
0.0000

> <Gold.PLP.Chemscore.Metal>
0.0000

> <Gold.Chemscore.Hbonds>
donor molecule, donor type, donor heavy atom, donor atom, acceptor molecule, acceptor atom, score
      L1  H     4    31       P1  7948  0.82
      L1  H     7    32       P1  7948  0.88
      P1  H  8011  8017       L1    22  0.62
      P1  H 10752 10764       L1     6  0.86

> <Gold.PLP.Chemscore.Internal.Correction>
0.2293

> <Gold.Rescore>
     Score         DG    S(hbond)    S(metal)    S(lipo)     H(rot)  DE(clash)    DE(int)     intcor
     13.60     -18.22       2.09        0.00      84.34       1.60       2.16       2.46       ----

> <Gold.Chemscore.Fitness>
13.6036

> <Gold.Chemscore.DG>
-18.2226

> <Gold.Chemscore.ZeroCoef>
-5.4800

> <Gold.Chemscore.Hbond>
2.0896

> <Gold.Chemscore.Metal>
0.0000

> <Gold.Chemscore.Lipo>
84.3433

> <Gold.Chemscore.Internal_Hbond>
0.0000

> <Gold.Chemscore.DEClash>
2.1558

> <Gold.Chemscore.DEInternal>
2.4632

> <Gold.Chemscore.Rot>
1.6035

> <Gold.Chemscore.Internal.Correction>
   9.000000E+99

> <Gold.Chemscore.Hbonds>
donor molecule, donor type, donor heavy atom, donor atom, acceptor molecule, acceptor atom, score
      L1  H     4    31       P1  7948  0.38
      L1  H     7    32       P1  7948  0.26
      P1  H  8011  8017       L1    22  0.48
      P1  H 10752 10764       L1     6  0.25

> <Gold.Chemscore.Hbond.Weighted>
-6.9794

> <Gold.Chemscore.Metal.Weighted>
-0.0000

> <Gold.Chemscore.Lipo.Weighted>
-9.8682

> <Gold.Chemscore.Internal_Hbond.Weighted>
0.0000

> <Gold.Chemscore.DEClash.Weighted>
2.1558

> <Gold.Chemscore.DEInternal.Weighted>
2.4632

> <Gold.Chemscore.Rot.Weighted>
4.1049

> <Gold.Chemscore.Internal.Correction.Weighted>
   9.000000E+99

> <Gold.Protein.RotatedTorsions>
[ 6907 6896 6895 6894 ] final   33.49 input  -60.11 | X-H torsion
[ 7974 7965 7964 7962 ] final  -51.00 input  175.53 | X-H torsion
[ 8008 7997 7996 7995 ] final -133.77 input   59.86 | X-H torsion
[ 10167 10162 10161 10158 ] final -161.52 input  -65.29 | X-H torsion
[ 10718 10713 10712 10709 ] final  -67.04 input   66.30 | X-H torsion
[ 10763 10752 10751 10750 ] final  -41.99 input  -60.55 | X-H torsion
[ 11005 11000 10999 10996 ] final -104.60 input  -57.11 | X-H torsion

> <Gold.Protein.ActiveResidues>
 VAL166  LYS551  ARG553  GLY616  TRP617  ASP618  TYR619  PRO620  LYS621  CYS622 
 ASP623  PHE694  ASN695  SER759  ASP760  ASP761  ALA762  ILE779  LEU786  VAL792 
 PHE793  MET794  SER795  GLU796  ALA797  LYS798  CYS799  TRP800  GLU811  SER814 

> <Gold.Protein.RotatedAtoms>
  152.0892  134.9419  160.0571 H   0  0  0  0  0  0  0  0  0  0  0  0  # atno 6907 bound_to 6896
  152.0677  133.4087  159.4453 H   0  0  0  0  0  0  0  0  0  0  0  0  # atno 6908 bound_to 6896
  150.6836  134.3048  159.4765 H   0  0  0  0  0  0  0  0  0  0  0  0  # atno 6909 bound_to 6896
  145.9237  140.7811  142.9634 H   0  0  0  0  0  0  0  0  0  0  0  0  # atno 7974 bound_to 7965
  155.3511  140.0477  157.3046 H   0  0  0  0  0  0  0  0  0  0  0  0  # atno 8008 bound_to 7997
  154.5227  140.2230  155.8911 H   0  0  0  0  0  0  0  0  0  0  0  0  # atno 8009 bound_to 7997
  156.1706  140.3096  155.8973 H   0  0  0  0  0  0  0  0  0  0  0  0  # atno 8010 bound_to 7997
  139.6459  144.0173  152.2127 H   0  0  0  0  0  0  0  0  0  0  0  0  # atno 10167 bound_to 10162
  156.0579  130.4271  150.1796 H   0  0  0  0  0  0  0  0  0  0  0  0  # atno 10718 bound_to 10713
  153.9716  135.6727  153.4747 H   0  0  0  0  0  0  0  0  0  0  0  0  # atno 10763 bound_to 10752
  153.0790  135.4933  154.8461 H   0  0  0  0  0  0  0  0  0  0  0  0  # atno 10764 bound_to 10752
  154.7216  135.3118  154.8999 H   0  0  0  0  0  0  0  0  0  0  0  0  # atno 10765 bound_to 10752
  141.1093  133.8737  157.1631 H   0  0  0  0  0  0  0  0  0  0  0  0  # atno 11005 bound_to 11000
  144.6756  140.2017  143.7386 LP  0  0  0  0  0  0  0  0  0  0  0  0  # atno 17320 bound_to 7965
  145.8516  139.2178  143.1768 LP  0  0  0  0  0  0  0  0  0  0  0  0  # atno 17321 bound_to 7965
  139.9874  144.6385  150.7845 LP  0  0  0  0  0  0  0  0  0  0  0  0  # atno 17342 bound_to 10162
  140.7514  143.2972  151.3173 LP  0  0  0  0  0  0  0  0  0  0  0  0  # atno 17343 bound_to 10162
  156.9869  130.9881  151.3424 LP  0  0  0  0  0  0  0  0  0  0  0  0  # atno 17370 bound_to 10713
  157.5565  130.8217  149.8210 LP  0  0  0  0  0  0  0  0  0  0  0  0  # atno 17371 bound_to 10713
  139.9978  135.0040  157.0122 LP  0  0  0  0  0  0  0  0  0  0  0  0  # atno 17394 bound_to 11000
  140.4819  134.1281  155.7218 LP  0  0  0  0  0  0  0  0  0  0  0  0  # atno 17395 bound_to 11000

$$$$
