AV-unprocessed.smi:544|AV-procd|sdf|2880|dock1
  -GOLD-   2262023373D 1   1.00000     0.00000
 Structure written by MMmdl.
 48 50  0  0  0  0  0  0  0  0  2 V2000
  149.2014  140.5308  154.6904 C   0  0  0  0  0  0  0  0  0  0  0  0
  148.3245  139.6152  155.5474 C   0  0  0  0  0  0  0  0  0  0  0  0
  148.9435  138.3439  155.6245 O   0  0  0  0  0  0  0  0  0  0  0  0
  148.2316  137.4179  156.4261 C   0  0  0  0  0  0  0  0  0  0  0  0
  149.1145  136.2021  156.7796 C   0  0  0  0  0  0  0  0  0  0  0  0
  148.5544  135.3749  157.8489 N   0  0  0  0  0  0  0  0  0  0  0  0
  148.2300  134.0452  157.8376 C   0  0  0  0  0  0  0  0  0  0  0  0
  148.4223  133.1812  156.7442 N   0  0  0  0  0  0  0  0  0  0  0  0
  147.6653  133.0718  155.4945 C   0  0  0  0  0  0  0  0  0  0  0  0
  148.5695  133.2443  154.2611 C   0  0  0  0  0  0  0  0  0  0  0  0
  149.6811  132.1880  154.2615 C   0  0  0  0  0  0  0  0  0  0  0  0
  150.4141  132.1925  155.6130 C   0  0  2  0  0  0  0  0  0  0  0  0
  151.4661  131.0777  155.6857 C   0  0  0  0  0  0  0  0  0  0  0  0
  149.3948  132.0828  156.7657 C   0  0  0  0  0  0  0  0  0  0  0  0
  147.7452  133.5990  158.9996 N   0  0  0  0  0  0  0  0  0  0  0  0
  147.7731  134.7120  159.8188 C   0  0  0  0  0  0  0  0  0  0  0  0
  148.2841  135.7871  159.1641 C   0  0  0  0  0  0  0  0  0  0  0  0
  148.5006  137.1051  159.8116 C   0  0  0  0  0  0  0  0  0  0  0  0
  149.0327  138.0355  159.2101 O   0  0  0  0  0  0  0  0  0  0  0  0
  148.0595  137.1266  161.1090 N   0  5  0  0  0  0  0  0  0  0  0  0
  147.5179  136.0641  161.7980 C   0  0  0  0  0  0  0  0  0  0  0  0
  147.1461  136.1689  162.9677 O   0  0  0  0  0  0  0  0  0  0  0  0
  147.3835  134.8505  161.1786 N   0  0  0  0  0  0  0  0  0  0  0  0
  146.8275  133.6970  161.8919 C   0  0  0  0  0  0  0  0  0  0  0  0
  148.7614  141.5244  154.6038 H   0  0  0  0  0  0  0  0  0  0  0  0
  149.3195  140.1268  153.6842 H   0  0  0  0  0  0  0  0  0  0  0  0
  150.1951  140.6402  155.1258 H   0  0  0  0  0  0  0  0  0  0  0  0
  148.2057  140.0384  156.5460 H   0  0  0  0  0  0  0  0  0  0  0  0
  147.3321  139.5251  155.1033 H   0  0  0  0  0  0  0  0  0  0  0  0
  147.8910  137.9311  157.3237 H   0  0  0  0  0  0  0  0  0  0  0  0
  147.3430  137.0766  155.8935 H   0  0  0  0  0  0  0  0  0  0  0  0
  149.2992  135.5905  155.9008 H   0  0  0  0  0  0  0  0  0  0  0  0
  150.1069  136.5376  157.0758 H   0  0  0  0  0  0  0  0  0  0  0  0
  147.1888  132.0908  155.4612 H   0  0  0  0  0  0  0  0  0  0  0  0
  146.8472  133.7799  155.4597 H   0  0  0  0  0  0  0  0  0  0  0  0
  147.9776  133.1613  153.3495 H   0  0  0  0  0  0  0  0  0  0  0  0
  149.0111  134.2411  154.2556 H   0  0  0  0  0  0  0  0  0  0  0  0
  149.2452  131.2047  154.0811 H   0  0  0  0  0  0  0  0  0  0  0  0
  150.3797  132.3756  153.4457 H   0  0  0  0  0  0  0  0  0  0  0  0
  150.9354  133.1457  155.7152 H   0  0  0  0  0  0  0  0  0  0  0  0
  151.0079  130.0932  155.5857 H   0  0  0  0  0  0  0  0  0  0  0  0
  151.9973  131.1018  156.6373 H   0  0  0  0  0  0  0  0  0  0  0  0
  152.2058  131.1835  154.8919 H   0  0  0  0  0  0  0  0  0  0  0  0
  149.9364  132.0781  157.7117 H   0  0  0  0  0  0  0  0  0  0  0  0
  148.8657  131.1299  156.7168 H   0  0  0  0  0  0  0  0  0  0  0  0
  147.4204  133.4740  162.7800 H   0  0  0  0  0  0  0  0  0  0  0  0
  146.8059  132.7940  161.2823 H   0  0  0  0  0  0  0  0  0  0  0  0
  145.8038  133.9019  162.2075 H   0  0  0  0  0  0  0  0  0  0  0  0
  1  2  1  0  0  0  0
  1 25  1  0  0  0  0
  1 26  1  0  0  0  0
  1 27  1  0  0  0  0
  2  3  1  0  0  0  0
  2 28  1  0  0  0  0
  2 29  1  0  0  0  0
  3  4  1  0  0  0  0
  4  5  1  0  0  0  0
  4 30  1  0  0  0  0
  4 31  1  0  0  0  0
  5  6  1  0  0  0  0
  5 32  1  0  0  0  0
  5 33  1  0  0  0  0
  6 17  1  0  0  0  0
  6  7  1  0  0  0  0
  7  8  1  0  0  0  0
  7 15  2  0  0  0  0
  8 14  1  0  0  0  0
  8  9  1  0  0  0  0
  9 10  1  0  0  0  0
  9 34  1  0  0  0  0
  9 35  1  0  0  0  0
 10 11  1  0  0  0  0
 10 36  1  0  0  0  0
 10 37  1  0  0  0  0
 11 12  1  0  0  0  0
 11 38  1  0  0  0  0
 11 39  1  0  0  0  0
 12 13  1  0  0  0  0
 12 14  1  0  0  0  0
 12 40  1  0  0  0  0
 13 41  1  0  0  0  0
 13 42  1  0  0  0  0
 13 43  1  0  0  0  0
 14 44  1  0  0  0  0
 14 45  1  0  0  0  0
 15 16  1  0  0  0  0
 16 23  1  0  0  0  0
 16 17  2  0  0  0  0
 17 18  1  0  0  0  0
 18 19  2  0  0  0  0
 18 20  1  0  0  0  0
 20 21  1  0  0  0  0
 21 22  2  0  0  0  0
 21 23  1  0  0  0  0
 23 24  1  0  0  0  0
 24 46  1  0  0  0  0
 24 47  1  0  0  0  0
 24 48  1  0  0  0  0
M  CHG  1  20  -1
M  END
> <s_m_source_file>
AV-unprocessed.smi

> <i_m_source_file_index>
544

> <i_lp_mmshare_version>
43012

> <i_f3d_flags>
0

> <s_epik_input>
W0NIM11uMWMoPU8pW25IXWMoPU8pYyhjMTIpbihbQ0gyXVtDSDJdT1tDSDJdW0NIM10pYyhuMilOM1tDSDJdW0NIMl1bQ0gyXVtDQEBIXShbQ0gzXSlbQ0gyXTM=

> <s_epik_cmdline>
J2VwaWtfcHl0aG9uJywgJy1waCcsICc3LjAnLCAnLXRuJywgJzgnLCAnLW1hJywgJzIwMCcsICctbWV0YWxfYmluZGluZycsICctaW1hZScsICc8aW5maWxlLm1hZT4nLCAnLW9tYWUnLCAnPG91dGZpbGUubWFlPic=

> <r_lp_tautomer_probability>
1

> <r_epik_Ionization_Penalty>
5.1213

> <r_epik_Ionization_Penalty_Charging>
0.0741877

> <r_epik_Ionization_Penalty_Neutral>
5.04711

> <r_epik_State_Penalty>
5.04142

> <r_epik_Charging_Adjusted_Penalty>
5.11561

> <i_epik_Tot_Q>
-1

> <i_epik_Tot_abs_Q>
1

> <r_epik_Metal_State_Penalty>
1.14934

> <b_epik_Metal_Only>
1

> <s_lp_Force_Field>
OPLS_2005

> <r_lp_Energy>
42.4298

> <b_lp_Chiralities_Consistent>
1

> <s_lp_Variant>
AV-unprocessed.smi:544-4

> <Gold.Version>
5.8.1

> <Gold.Id.Protein>
6NUR|6NUR_protein|mol2

> <Gold.PLP.Fitness>
35.7441

> <Gold.PLP.PLP>
-28.4312

> <Gold.PLP.part.hbond>
-2.9635

> <Gold.PLP.part.metal>
0.0000

> <Gold.PLP.part.buried>
-3.5321

> <Gold.PLP.part.nonpolar>
-22.2141

> <Gold.PLP.part.repulsive>
0.0620

> <Gold.PLP.ligand.clash>
0.0000

> <Gold.PLP.ligand.torsion>
1.4263

> <Gold.PLP.Chemscore.Hbond>
3.3600

> <Gold.PLP.Chemscore.CHOScore>
0.0000

> <Gold.PLP.Chemscore.Metal>
0.0000

> <Gold.Chemscore.Hbonds>
donor molecule, donor type, donor heavy atom, donor atom, acceptor molecule, acceptor atom, score
      P1  H  6931  6943       L1    20  2.00
      P1  H  6934  6947       L1    20  0.83

> <Gold.PLP.Chemscore.Internal.Correction>
0.0854

> <Gold.Rescore>
     Score         DG    S(hbond)    S(metal)    S(lipo)     H(rot)  DE(clash)    DE(int)     intcor
      9.35     -10.90       1.01        0.00      51.39       1.55       0.01       1.54       ----

> <Gold.Chemscore.Fitness>
9.3491

> <Gold.Chemscore.DG>
-10.8988

> <Gold.Chemscore.ZeroCoef>
-5.4800

> <Gold.Chemscore.Hbond>
1.0128

> <Gold.Chemscore.Metal>
0.0000

> <Gold.Chemscore.Lipo>
51.3911

> <Gold.Chemscore.Internal_Hbond>
0.0000

> <Gold.Chemscore.DEClash>
0.0089

> <Gold.Chemscore.DEInternal>
1.5408

> <Gold.Chemscore.Rot>
1.5534

> <Gold.Chemscore.Internal.Correction>
   9.000000E+99

> <Gold.Chemscore.Hbonds>
donor molecule, donor type, donor heavy atom, donor atom, acceptor molecule, acceptor atom, score
      P1  H  6931  6943       L1    20  0.47
      P1  H  6934  6947       L1    20  0.04

> <Gold.Chemscore.Hbond.Weighted>
-3.3828

> <Gold.Chemscore.Metal.Weighted>
-0.0000

> <Gold.Chemscore.Lipo.Weighted>
-6.0128

> <Gold.Chemscore.Internal_Hbond.Weighted>
0.0000

> <Gold.Chemscore.DEClash.Weighted>
0.0089

> <Gold.Chemscore.DEInternal.Weighted>
1.5408

> <Gold.Chemscore.Rot.Weighted>
3.9768

> <Gold.Chemscore.Internal.Correction.Weighted>
   9.000000E+99

> <Gold.Protein.RotatedTorsions>
[ 6907 6896 6895 6894 ] final -120.46 input  -60.11 | X-H torsion
[ 7974 7965 7964 7962 ] final    0.08 input  175.53 | X-H torsion
[ 8008 7997 7996 7995 ] final  -34.69 input   59.86 | X-H torsion
[ 10167 10162 10161 10158 ] final  -44.25 input  -65.29 | X-H torsion
[ 10718 10713 10712 10709 ] final   15.94 input   66.30 | X-H torsion
[ 10763 10752 10751 10750 ] final   47.74 input  -60.55 | X-H torsion
[ 11005 11000 10999 10996 ] final -162.29 input  -57.11 | X-H torsion

> <Gold.Protein.ActiveResidues>
 VAL166  LYS551  ARG553  GLY616  TRP617  ASP618  TYR619  PRO620  LYS621  CYS622 
 ASP623  PHE694  ASN695  SER759  ASP760  ASP761  ALA762  ILE779  LEU786  VAL792 
 PHE793  MET794  SER795  GLU796  ALA797  LYS798  CYS799  TRP800  GLU811  SER814 

> <Gold.Protein.RotatedAtoms>
  150.8395  133.7959  159.3066 H   0  0  0  0  0  0  0  0  0  0  0  0  # atno 6907 bound_to 6896
  151.5665  135.1062  159.9994 H   0  0  0  0  0  0  0  0  0  0  0  0  # atno 6908 bound_to 6896
  152.4461  133.7497  159.6743 H   0  0  0  0  0  0  0  0  0  0  0  0  # atno 6909 bound_to 6896
  146.2431  140.1192  142.8341 H   0  0  0  0  0  0  0  0  0  0  0  0  # atno 7974 bound_to 7965
  154.4114  140.1677  156.2090 H   0  0  0  0  0  0  0  0  0  0  0  0  # atno 8008 bound_to 7997
  155.9460  140.3404  155.6344 H   0  0  0  0  0  0  0  0  0  0  0  0  # atno 8009 bound_to 7997
  155.6930  140.0736  157.2431 H   0  0  0  0  0  0  0  0  0  0  0  0  # atno 8010 bound_to 7997
  140.6904  143.2940  151.3468 H   0  0  0  0  0  0  0  0  0  0  0  0  # atno 10167 bound_to 10162
  157.0608  130.6308  149.5785 H   0  0  0  0  0  0  0  0  0  0  0  0  # atno 10718 bound_to 10713
  152.9797  135.5966  154.3813 H   0  0  0  0  0  0  0  0  0  0  0  0  # atno 10763 bound_to 10752
  154.3477  135.2767  155.2391 H   0  0  0  0  0  0  0  0  0  0  0  0  # atno 10764 bound_to 10752
  154.4444  135.6005  153.6205 H   0  0  0  0  0  0  0  0  0  0  0  0  # atno 10765 bound_to 10752
  140.6109  134.4851  157.5215 H   0  0  0  0  0  0  0  0  0  0  0  0  # atno 11005 bound_to 11000
  145.0421  140.8953  143.5046 LP  0  0  0  0  0  0  0  0  0  0  0  0  # atno 17320 bound_to 7965
  145.1275  139.2653  143.5557 LP  0  0  0  0  0  0  0  0  0  0  0  0  # atno 17321 bound_to 7965
  139.6301  144.0738  152.2468 LP  0  0  0  0  0  0  0  0  0  0  0  0  # atno 17342 bound_to 10162
  140.0210  144.6153  150.7567 LP  0  0  0  0  0  0  0  0  0  0  0  0  # atno 17343 bound_to 10162
  155.9979  130.5052  150.7551 LP  0  0  0  0  0  0  0  0  0  0  0  0  # atno 17370 bound_to 10713
  157.4956  131.0914  151.0375 LP  0  0  0  0  0  0  0  0  0  0  0  0  # atno 17371 bound_to 10713
  139.9193  134.8182  156.1264 LP  0  0  0  0  0  0  0  0  0  0  0  0  # atno 17394 bound_to 11000
  141.0809  133.6755  156.2334 LP  0  0  0  0  0  0  0  0  0  0  0  0  # atno 17395 bound_to 11000

$$$$
