AV-unprocessed.smi:3262|AV-procd|sdf|12485|dock7
  -GOLD-   2272018383D 1   1.00000     0.00000
 Structure written by MMmdl.
 40 41  0  0  0  0  0  0  0  0  2 V2000
  154.1075  139.8916  158.9466 O   0  0  0  0  0  0  0  0  0  0  0  0
  154.0730  140.8352  159.7387 C   0  0  0  0  0  0  0  0  0  0  0  0
  155.0680  141.0598  160.6157 N   0  0  0  0  0  0  0  0  0  0  0  0
  156.2890  140.2693  160.7248 C   0  0  0  0  0  0  0  0  0  0  0  0
  156.5443  139.8243  162.1780 C   0  0  0  0  0  0  0  0  0  0  0  0
  155.5872  138.7692  162.7172 C   0  0  0  0  0  0  0  0  0  0  0  0
  154.6018  138.1156  161.9391 C   0  0  0  0  0  0  0  0  0  0  0  0
  153.7708  137.1495  162.5442 C   0  0  0  0  0  0  0  0  0  0  0  0
  153.9373  136.8526  163.9121 C   0  0  0  0  0  0  0  0  0  0  0  0
  154.9333  137.5312  164.6421 C   0  0  0  0  0  0  0  0  0  0  0  0
  155.7094  138.4501  164.0267 N   0  3  0  0  0  0  0  0  0  0  0  0
  153.0185  141.6884  159.8356 N   0  0  0  0  0  0  0  0  0  0  0  0
  153.0830  143.0142  160.4888 C   0  0  0  0  0  0  0  0  0  0  0  0
  152.2225  144.1145  159.8311 C   0  0  0  0  0  0  0  0  0  0  0  0
  152.3229  144.1787  158.2958 C   0  0  0  0  0  0  0  0  0  0  0  0
  151.3363  143.2364  157.5860 C   0  0  0  0  0  0  0  0  0  0  0  0
  151.6264  141.7393  157.7759 C   0  0  0  0  0  0  0  0  0  0  0  0
  151.7218  141.3116  159.2516 C   0  0  0  0  0  0  0  0  0  0  0  0
  154.9664  141.8355  161.2544 H   0  0  0  0  0  0  0  0  0  0  0  0
  156.1787  139.3976  160.0791 H   0  0  0  0  0  0  0  0  0  0  0  0
  157.1330  140.8444  160.3399 H   0  0  0  0  0  0  0  0  0  0  0  0
  157.5570  139.4290  162.2679 H   0  0  0  0  0  0  0  0  0  0  0  0
  156.4944  140.6940  162.8348 H   0  0  0  0  0  0  0  0  0  0  0  0
  154.4713  138.3381  160.8908 H   0  0  0  0  0  0  0  0  0  0  0  0
  153.0141  136.6412  161.9646 H   0  0  0  0  0  0  0  0  0  0  0  0
  153.3113  136.1153  164.3933 H   0  0  0  0  0  0  0  0  0  0  0  0
  155.1319  137.3680  165.6911 H   0  0  0  0  0  0  0  0  0  0  0  0
  152.8027  142.9039  161.5370 H   0  0  0  0  0  0  0  0  0  0  0  0
  154.1040  143.3983  160.4860 H   0  0  0  0  0  0  0  0  0  0  0  0
  151.1788  144.0147  160.1314 H   0  0  0  0  0  0  0  0  0  0  0  0
  152.5419  145.0734  160.2413 H   0  0  0  0  0  0  0  0  0  0  0  0
  152.0912  145.1971  157.9820 H   0  0  0  0  0  0  0  0  0  0  0  0
  153.3457  143.9902  157.9669 H   0  0  0  0  0  0  0  0  0  0  0  0
  150.3233  143.4539  157.9266 H   0  0  0  0  0  0  0  0  0  0  0  0
  151.3422  143.4578  156.5182 H   0  0  0  0  0  0  0  0  0  0  0  0
  150.8256  141.1744  157.2979 H   0  0  0  0  0  0  0  0  0  0  0  0
  152.5387  141.4670  157.2436 H   0  0  0  0  0  0  0  0  0  0  0  0
  151.5784  140.2318  159.3218 H   0  0  0  0  0  0  0  0  0  0  0  0
  150.8981  141.7301  159.8306 H   0  0  0  0  0  0  0  0  0  0  0  0
  156.4246  138.9267  164.5766 H   0  0  0  0  0  0  0  0  0  0  0  0
  1  2  2  0  0  0  0
  2  3  1  0  0  0  0
  2 12  1  0  0  0  0
  3  4  1  0  0  0  0
  3 19  1  0  0  0  0
  4  5  1  0  0  0  0
  4 20  1  0  0  0  0
  4 21  1  0  0  0  0
  5  6  1  0  0  0  0
  5 22  1  0  0  0  0
  5 23  1  0  0  0  0
  6 11  1  0  0  0  0
  6  7  2  0  0  0  0
  7  8  1  0  0  0  0
  7 24  1  0  0  0  0
  8  9  2  0  0  0  0
  8 25  1  0  0  0  0
  9 10  1  0  0  0  0
  9 26  1  0  0  0  0
 10 11  2  0  0  0  0
 10 27  1  0  0  0  0
 11 40  1  0  0  0  0
 12 18  1  0  0  0  0
 12 13  1  0  0  0  0
 13 14  1  0  0  0  0
 13 28  1  0  0  0  0
 13 29  1  0  0  0  0
 14 15  1  0  0  0  0
 14 30  1  0  0  0  0
 14 31  1  0  0  0  0
 15 16  1  0  0  0  0
 15 32  1  0  0  0  0
 15 33  1  0  0  0  0
 16 17  1  0  0  0  0
 16 34  1  0  0  0  0
 16 35  1  0  0  0  0
 17 18  1  0  0  0  0
 17 36  1  0  0  0  0
 17 37  1  0  0  0  0
 18 38  1  0  0  0  0
 18 39  1  0  0  0  0
M  CHG  1  11   1
M  END
> <s_m_source_file>
AV-unprocessed.smi

> <i_m_source_file_index>
3262

> <i_lp_mmshare_version>
43012

> <i_f3d_flags>
0

> <s_epik_input>
W0NIMl0xW0NIMl1bQ0gyXVtDSDJdW0NIMl1bQ0gyXU4xQyg9TylbTkhdW0NIMl1bQ0gyXWMyW2NIXVtjSF1bY0hdW2NIXW4y

> <s_epik_cmdline>
J2VwaWtfcHl0aG9uJywgJy1waCcsICc3LjAnLCAnLXRuJywgJzgnLCAnLW1hJywgJzIwMCcsICctbWV0YWxfYmluZGluZycsICctaW1hZScsICc8aW5maWxlLm1hZT4nLCAnLW9tYWUnLCAnPG91dGZpbGUubWFlPic=

> <r_epik_Ionization_Penalty>
1.55113

> <r_epik_Ionization_Penalty_Charging>
1.55107

> <r_epik_Ionization_Penalty_Neutral>
5.98909e-05

> <r_epik_State_Penalty>
1.64529

> <r_epik_Charging_Adjusted_Penalty>
3.19637

> <i_epik_Tot_Q>
1

> <i_epik_Tot_abs_Q>
1

> <r_epik_Metal_State_Penalty>
1.68744

> <b_epik_Metal_Only>
0

> <s_lp_Force_Field>
OPLS_2005

> <r_lp_Energy>
39.791

> <b_lp_Chiralities_Consistent>
1

> <s_lp_Variant>
AV-unprocessed.smi:3262-2

> <Gold.Version>
5.8.1

> <Gold.Id.Protein>
6NUR|6NUR_protein|mol2

> <Gold.PLP.Fitness>
45.6456

> <Gold.PLP.PLP>
-43.1323

> <Gold.PLP.part.hbond>
-1.7882

> <Gold.PLP.part.metal>
0.0000

> <Gold.PLP.part.buried>
-3.4508

> <Gold.PLP.part.nonpolar>
-37.3564

> <Gold.PLP.part.repulsive>
0.0570

> <Gold.PLP.ligand.clash>
0.0000

> <Gold.PLP.ligand.torsion>
0.2469

> <Gold.PLP.Chemscore.Hbond>
1.0000

> <Gold.PLP.Chemscore.CHOScore>
0.0000

> <Gold.PLP.Chemscore.Metal>
0.0000

> <Gold.Chemscore.Hbonds>
donor molecule, donor type, donor heavy atom, donor atom, acceptor molecule, acceptor atom, score
      P1  H  7997  8010       L1     1  1.00

> <Gold.PLP.Chemscore.Internal.Correction>
0.0071

> <Gold.Rescore>
     Score         DG    S(hbond)    S(metal)    S(lipo)     H(rot)  DE(clash)    DE(int)     intcor
     18.46     -18.64       0.93        0.00     115.31       1.34       0.00       0.18       ----

> <Gold.Chemscore.Fitness>
18.4581

> <Gold.Chemscore.DG>
-18.6373

> <Gold.Chemscore.ZeroCoef>
-5.4800

> <Gold.Chemscore.Hbond>
0.9282

> <Gold.Chemscore.Metal>
0.0000

> <Gold.Chemscore.Lipo>
115.3105

> <Gold.Chemscore.Internal_Hbond>
0.0000

> <Gold.Chemscore.DEClash>
0.0033

> <Gold.Chemscore.DEInternal>
0.1759

> <Gold.Chemscore.Rot>
1.3415

> <Gold.Chemscore.Internal.Correction>
   9.000000E+99

> <Gold.Chemscore.Hbonds>
donor molecule, donor type, donor heavy atom, donor atom, acceptor molecule, acceptor atom, score
      P1  H  7997  8010       L1     1  0.92

> <Gold.Chemscore.Hbond.Weighted>
-3.1002

> <Gold.Chemscore.Metal.Weighted>
-0.0000

> <Gold.Chemscore.Lipo.Weighted>
-13.4913

> <Gold.Chemscore.Internal_Hbond.Weighted>
0.0000

> <Gold.Chemscore.DEClash.Weighted>
0.0033

> <Gold.Chemscore.DEInternal.Weighted>
0.1759

> <Gold.Chemscore.Rot.Weighted>
3.4342

> <Gold.Chemscore.Internal.Correction.Weighted>
   9.000000E+99

> <Gold.Protein.RotatedTorsions>
[ 6907 6896 6895 6894 ] final  110.09 input  -60.11 | X-H torsion
[ 7974 7965 7964 7962 ] final -158.67 input  175.53 | X-H torsion
[ 8008 7997 7996 7995 ] final    0.56 input   59.86 | X-H torsion
[ 10167 10162 10161 10158 ] final   29.68 input  -65.29 | X-H torsion
[ 10718 10713 10712 10709 ] final  128.38 input   66.30 | X-H torsion
[ 10763 10752 10751 10750 ] final  -75.57 input  -60.55 | X-H torsion
[ 11005 11000 10999 10996 ] final  101.76 input  -57.11 | X-H torsion

> <Gold.Protein.ActiveResidues>
 VAL166  LYS551  ARG553  GLY616  TRP617  ASP618  TYR619  PRO620  LYS621  CYS622 
 ASP623  PHE694  ASN695  SER759  ASP760  ASP761  ALA762  ILE779  LEU786  VAL792 
 PHE793  MET794  SER795  GLU796  ALA797  LYS798  CYS799  TRP800  GLU811  SER814 

> <Gold.Protein.RotatedAtoms>
  152.5036  133.8850  159.7365 H   0  0  0  0  0  0  0  0  0  0  0  0  # atno 6907 bound_to 6896
  150.9303  133.6766  159.2819 H   0  0  0  0  0  0  0  0  0  0  0  0  # atno 6908 bound_to 6896
  151.4112  135.0990  159.9638 H   0  0  0  0  0  0  0  0  0  0  0  0  # atno 6909 bound_to 6896
  144.7496  140.3794  143.6058 H   0  0  0  0  0  0  0  0  0  0  0  0  # atno 7974 bound_to 7965
  154.6695  140.2608  155.7022 H   0  0  0  0  0  0  0  0  0  0  0  0  # atno 8008 bound_to 7997
  156.2653  140.2832  156.1120 H   0  0  0  0  0  0  0  0  0  0  0  0  # atno 8009 bound_to 7997
  155.1190  140.0377  157.2735 H   0  0  0  0  0  0  0  0  0  0  0  0  # atno 8010 bound_to 7997
  140.4744  144.0713  150.6246 H   0  0  0  0  0  0  0  0  0  0  0  0  # atno 10167 bound_to 10162
  157.5250  131.1098  150.9097 H   0  0  0  0  0  0  0  0  0  0  0  0  # atno 10718 bound_to 10713
  154.4884  135.5826  153.6441 H   0  0  0  0  0  0  0  0  0  0  0  0  # atno 10763 bound_to 10752
  152.9858  135.6106  154.3157 H   0  0  0  0  0  0  0  0  0  0  0  0  # atno 10764 bound_to 10752
  154.3054  135.2846  155.2570 H   0  0  0  0  0  0  0  0  0  0  0  0  # atno 10765 bound_to 10752
  139.8774  134.9196  156.4956 H   0  0  0  0  0  0  0  0  0  0  0  0  # atno 11005 bound_to 11000
  145.6994  139.1657  143.2602 LP  0  0  0  0  0  0  0  0  0  0  0  0  # atno 17320 bound_to 7965
  146.1427  140.7036  142.9359 LP  0  0  0  0  0  0  0  0  0  0  0  0  # atno 17321 bound_to 7965
  140.3937  143.2739  152.0030 LP  0  0  0  0  0  0  0  0  0  0  0  0  # atno 17342 bound_to 10162
  139.4823  144.6056  151.7527 LP  0  0  0  0  0  0  0  0  0  0  0  0  # atno 17343 bound_to 10162
  156.9695  130.5486  149.5290 LP  0  0  0  0  0  0  0  0  0  0  0  0  # atno 17370 bound_to 10713
  156.0380  130.5466  150.8702 LP  0  0  0  0  0  0  0  0  0  0  0  0  # atno 17371 bound_to 10713
  140.8627  133.8048  155.9282 LP  0  0  0  0  0  0  0  0  0  0  0  0  # atno 17394 bound_to 11000
  140.9033  134.2351  157.5029 LP  0  0  0  0  0  0  0  0  0  0  0  0  # atno 17395 bound_to 11000

$$$$
