AV-unprocessed.smi:535|AV-procd|sdf|2860|dock10
  -GOLD-   2262023353D 1   1.00000     0.00000
 Structure written by MMmdl.
 45 47  0  0  0  0  0  0  0  0  2 V2000
  147.5037  141.1672  153.5360 C   0  0  0  0  0  0  0  0  0  0  0  0
  148.8563  141.4405  153.8555 O   0  0  0  0  0  0  0  0  0  0  0  0
  149.0753  141.5196  155.2535 C   0  0  0  0  0  0  0  0  0  0  0  0
  150.5470  141.8636  155.5082 C   0  0  0  0  0  0  0  0  0  0  0  0
  151.1544  140.9336  156.4576 N   0  0  0  0  0  0  0  0  0  0  0  0
  151.6653  141.2017  157.6915 C   0  0  0  0  0  0  0  0  0  0  0  0
  151.6549  142.4829  158.2484 N   0  0  0  0  0  0  0  0  0  0  0  0
  151.6063  143.7490  157.5177 C   0  0  0  0  0  0  0  0  0  0  0  0
  152.7060  144.7154  157.9913 C   0  0  0  0  0  0  0  0  0  0  0  0
  152.5705  144.9820  159.4964 C   0  0  0  0  0  0  0  0  0  0  0  0
  152.5072  143.6536  160.2707 C   0  0  1  0  0  0  0  0  0  0  0  0
  152.2781  143.8864  161.7700 C   0  0  0  0  0  0  0  0  0  0  0  0
  151.4190  142.7407  159.6684 C   0  0  0  0  0  0  0  0  0  0  0  0
  152.2251  140.1542  158.2997 N   0  0  0  0  0  0  0  0  0  0  0  0
  152.0426  139.1274  157.3873 C   0  0  0  0  0  0  0  0  0  0  0  0
  151.4162  139.5720  156.2647 C   0  0  0  0  0  0  0  0  0  0  0  0
  151.1337  138.7154  155.0901 C   0  0  0  0  0  0  0  0  0  0  0  0
  150.6006  139.1722  154.0813 O   0  0  0  0  0  0  0  0  0  0  0  0
  151.5407  137.4209  155.2833 N   0  5  0  0  0  0  0  0  0  0  0  0
  152.1674  136.9274  156.4070 C   0  0  0  0  0  0  0  0  0  0  0  0
  152.5047  135.7462  156.4974 O   0  0  0  0  0  0  0  0  0  0  0  0
  152.4308  137.7618  157.4610 N   0  0  0  0  0  0  0  0  0  0  0  0
  153.1051  137.2673  158.6649 C   0  0  0  0  0  0  0  0  0  0  0  0
  147.3864  141.1130  152.4538 H   0  0  0  0  0  0  0  0  0  0  0  0
  146.8443  141.9528  153.9077 H   0  0  0  0  0  0  0  0  0  0  0  0
  147.1843  140.2131  153.9572 H   0  0  0  0  0  0  0  0  0  0  0  0
  148.4291  142.2802  155.6948 H   0  0  0  0  0  0  0  0  0  0  0  0
  148.8290  140.5645  155.7206 H   0  0  0  0  0  0  0  0  0  0  0  0
  151.0962  141.8553  154.5731 H   0  0  0  0  0  0  0  0  0  0  0  0
  150.6485  142.8843  155.8706 H   0  0  0  0  0  0  0  0  0  0  0  0
  151.6764  143.5737  156.4448 H   0  0  0  0  0  0  0  0  0  0  0  0
  150.6272  144.2039  157.6736 H   0  0  0  0  0  0  0  0  0  0  0  0
  153.6900  144.2953  157.7815 H   0  0  0  0  0  0  0  0  0  0  0  0
  152.6442  145.6532  157.4392 H   0  0  0  0  0  0  0  0  0  0  0  0
  153.4061  145.5890  159.8463 H   0  0  0  0  0  0  0  0  0  0  0  0
  151.6643  145.5603  159.6811 H   0  0  0  0  0  0  0  0  0  0  0  0
  153.4686  143.1498  160.1579 H   0  0  0  0  0  0  0  0  0  0  0  0
  151.3242  144.3821  161.9527 H   0  0  0  0  0  0  0  0  0  0  0  0
  153.0646  144.5103  162.1955 H   0  0  0  0  0  0  0  0  0  0  0  0
  152.2732  142.9433  162.3168 H   0  0  0  0  0  0  0  0  0  0  0  0
  150.4313  143.1863  159.7957 H   0  0  0  0  0  0  0  0  0  0  0  0
  151.4021  141.7925  160.2075 H   0  0  0  0  0  0  0  0  0  0  0  0
  152.5385  136.4499  159.1128 H   0  0  0  0  0  0  0  0  0  0  0  0
  153.2223  138.0361  159.4282 H   0  0  0  0  0  0  0  0  0  0  0  0
  154.1013  136.8974  158.4182 H   0  0  0  0  0  0  0  0  0  0  0  0
  1  2  1  0  0  0  0
  1 24  1  0  0  0  0
  1 25  1  0  0  0  0
  1 26  1  0  0  0  0
  2  3  1  0  0  0  0
  3  4  1  0  0  0  0
  3 27  1  0  0  0  0
  3 28  1  0  0  0  0
  4  5  1  0  0  0  0
  4 29  1  0  0  0  0
  4 30  1  0  0  0  0
  5 16  1  0  0  0  0
  5  6  1  0  0  0  0
  6  7  1  0  0  0  0
  6 14  2  0  0  0  0
  7 13  1  0  0  0  0
  7  8  1  0  0  0  0
  8  9  1  0  0  0  0
  8 31  1  0  0  0  0
  8 32  1  0  0  0  0
  9 10  1  0  0  0  0
  9 33  1  0  0  0  0
  9 34  1  0  0  0  0
 10 11  1  0  0  0  0
 10 35  1  0  0  0  0
 10 36  1  0  0  0  0
 11 12  1  0  0  0  0
 11 13  1  0  0  0  0
 11 37  1  0  0  0  0
 12 38  1  0  0  0  0
 12 39  1  0  0  0  0
 12 40  1  0  0  0  0
 13 41  1  0  0  0  0
 13 42  1  0  0  0  0
 14 15  1  0  0  0  0
 15 22  1  0  0  0  0
 15 16  2  0  0  0  0
 16 17  1  0  0  0  0
 17 18  2  0  0  0  0
 17 19  1  0  0  0  0
 19 20  1  0  0  0  0
 20 21  2  0  0  0  0
 20 22  1  0  0  0  0
 22 23  1  0  0  0  0
 23 43  1  0  0  0  0
 23 44  1  0  0  0  0
 23 45  1  0  0  0  0
M  CHG  1  19  -1
M  END
> <s_m_source_file>
AV-unprocessed.smi

> <i_m_source_file_index>
535

> <i_lp_mmshare_version>
43012

> <i_f3d_flags>
0

> <s_epik_input>
W0NIM11uMWMoPU8pW25IXWMoPU8pYyhjMTIpbihbQ0gyXVtDSDJdT1tDSDNdKWMobjIpTjNbQ0gyXVtDSDJdW0NIMl1bQ0BASF0oW0NIM10pW0NIMl0z

> <s_epik_cmdline>
J2VwaWtfcHl0aG9uJywgJy1waCcsICc3LjAnLCAnLXRuJywgJzgnLCAnLW1hJywgJzIwMCcsICctbWV0YWxfYmluZGluZycsICctaW1hZScsICc8aW5maWxlLm1hZT4nLCAnLW9tYWUnLCAnPG91dGZpbGUubWFlPic=

> <r_lp_tautomer_probability>
1

> <r_epik_Ionization_Penalty>
5.11375

> <r_epik_Ionization_Penalty_Charging>
0.0788329

> <r_epik_Ionization_Penalty_Neutral>
5.03492

> <r_epik_State_Penalty>
5.02848

> <r_epik_Charging_Adjusted_Penalty>
5.10731

> <i_epik_Tot_Q>
-1

> <i_epik_Tot_abs_Q>
1

> <r_epik_Metal_State_Penalty>
1.14014

> <b_epik_Metal_Only>
1

> <s_lp_Force_Field>
OPLS_2005

> <r_lp_Energy>
43.1913

> <b_lp_Chiralities_Consistent>
1

> <s_lp_Variant>
AV-unprocessed.smi:535-3

> <Gold.Version>
5.8.1

> <Gold.Id.Protein>
6NUR|6NUR_protein|mol2

> <Gold.PLP.Fitness>
47.2158

> <Gold.PLP.PLP>
-41.8951

> <Gold.PLP.part.hbond>
-3.2609

> <Gold.PLP.part.metal>
0.0000

> <Gold.PLP.part.buried>
-3.5877

> <Gold.PLP.part.nonpolar>
-35.0948

> <Gold.PLP.part.repulsive>
0.7466

> <Gold.PLP.ligand.clash>
1.5840

> <Gold.PLP.ligand.torsion>
0.8331

> <Gold.PLP.Chemscore.Hbond>
2.6943

> <Gold.PLP.Chemscore.CHOScore>
0.0000

> <Gold.PLP.Chemscore.Metal>
0.0000

> <Gold.Chemscore.Hbonds>
donor molecule, donor type, donor heavy atom, donor atom, acceptor molecule, acceptor atom, score
      P1  H  7989  7998       L1    18  0.93
      P1  H  8011  8017       L1     2  0.73
      P1  H 10752 10763       L1    21  1.00

> <Gold.PLP.Chemscore.Internal.Correction>
0.4881

> <Gold.Rescore>
     Score         DG    S(hbond)    S(metal)    S(lipo)     H(rot)  DE(clash)    DE(int)     intcor
     16.66     -19.55       1.58        0.00     106.65       1.44       0.92       1.97       ----

> <Gold.Chemscore.Fitness>
16.6592

> <Gold.Chemscore.DG>
-19.5522

> <Gold.Chemscore.ZeroCoef>
-5.4800

> <Gold.Chemscore.Hbond>
1.5789

> <Gold.Chemscore.Metal>
0.0000

> <Gold.Chemscore.Lipo>
106.6492

> <Gold.Chemscore.Internal_Hbond>
0.0000

> <Gold.Chemscore.DEClash>
0.9238

> <Gold.Chemscore.DEInternal>
1.9692

> <Gold.Chemscore.Rot>
1.4372

> <Gold.Chemscore.Internal.Correction>
   9.000000E+99

> <Gold.Chemscore.Hbonds>
donor molecule, donor type, donor heavy atom, donor atom, acceptor molecule, acceptor atom, score
      P1  H  7989  7998       L1    18  0.61
      P1  H  8011  8017       L1     2  0.54
      P1  H 10752 10763       L1    21  0.29

> <Gold.Chemscore.Hbond.Weighted>
-5.2736

> <Gold.Chemscore.Metal.Weighted>
-0.0000

> <Gold.Chemscore.Lipo.Weighted>
-12.4780

> <Gold.Chemscore.Internal_Hbond.Weighted>
0.0000

> <Gold.Chemscore.DEClash.Weighted>
0.9238

> <Gold.Chemscore.DEInternal.Weighted>
1.9692

> <Gold.Chemscore.Rot.Weighted>
3.6793

> <Gold.Chemscore.Internal.Correction.Weighted>
   9.000000E+99

> <Gold.Protein.RotatedTorsions>
[ 6907 6896 6895 6894 ] final  148.04 input  -60.11 | X-H torsion
[ 7974 7965 7964 7962 ] final  -47.37 input  175.53 | X-H torsion
[ 8008 7997 7996 7995 ] final  145.82 input   59.86 | X-H torsion
[ 10167 10162 10161 10158 ] final   98.37 input  -65.29 | X-H torsion
[ 10718 10713 10712 10709 ] final  101.41 input   66.30 | X-H torsion
[ 10763 10752 10751 10750 ] final   85.36 input  -60.55 | X-H torsion
[ 11005 11000 10999 10996 ] final  -48.82 input  -57.11 | X-H torsion

> <Gold.Protein.ActiveResidues>
 VAL166  LYS551  ARG553  GLY616  TRP617  ASP618  TYR619  PRO620  LYS621  CYS622 
 ASP623  PHE694  ASN695  SER759  ASP760  ASP761  ALA762  ILE779  LEU786  VAL792 
 PHE793  MET794  SER795  GLU796  ALA797  LYS798  CYS799  TRP800  GLU811  SER814 

> <Gold.Protein.RotatedAtoms>
  152.1468  133.4497  159.4793 H   0  0  0  0  0  0  0  0  0  0  0  0  # atno 6907 bound_to 6896
  150.6891  134.2238  159.4416 H   0  0  0  0  0  0  0  0  0  0  0  0  # atno 6908 bound_to 6896
  152.0132  134.9864  160.0619 H   0  0  0  0  0  0  0  0  0  0  0  0  # atno 6909 bound_to 6896
  145.9623  140.7467  142.9451 H   0  0  0  0  0  0  0  0  0  0  0  0  # atno 7974 bound_to 7965
  156.2872  140.2199  156.5278 H   0  0  0  0  0  0  0  0  0  0  0  0  # atno 8008 bound_to 7997
  154.7475  140.0483  157.0886 H   0  0  0  0  0  0  0  0  0  0  0  0  # atno 8009 bound_to 7997
  155.0152  140.3117  155.4817 H   0  0  0  0  0  0  0  0  0  0  0  0  # atno 8010 bound_to 7997
  139.7715  144.6920  151.0149 H   0  0  0  0  0  0  0  0  0  0  0  0  # atno 10167 bound_to 10162
  157.6830  131.0725  150.5249 H   0  0  0  0  0  0  0  0  0  0  0  0  # atno 10718 bound_to 10713
  153.1468  135.4620  154.9577 H   0  0  0  0  0  0  0  0  0  0  0  0  # atno 10763 bound_to 10752
  154.7792  135.3183  154.8028 H   0  0  0  0  0  0  0  0  0  0  0  0  # atno 10764 bound_to 10752
  153.8541  135.6919  153.4843 H   0  0  0  0  0  0  0  0  0  0  0  0  # atno 10765 bound_to 10752
  141.0723  133.6675  156.3496 H   0  0  0  0  0  0  0  0  0  0  0  0  # atno 11005 bound_to 11000
  144.6818  140.2611  143.7319 LP  0  0  0  0  0  0  0  0  0  0  0  0  # atno 17320 bound_to 7965
  145.8022  139.1969  143.2041 LP  0  0  0  0  0  0  0  0  0  0  0  0  # atno 17321 bound_to 7965
  140.7814  143.4583  151.0314 LP  0  0  0  0  0  0  0  0  0  0  0  0  # atno 17342 bound_to 10162
  139.8266  143.7747  152.3179 LP  0  0  0  0  0  0  0  0  0  0  0  0  # atno 17343 bound_to 10162
  156.5561  130.4244  149.6085 LP  0  0  0  0  0  0  0  0  0  0  0  0  # atno 17370 bound_to 10713
  156.2861  130.7098  151.1935 LP  0  0  0  0  0  0  0  0  0  0  0  0  # atno 17371 bound_to 10713
  140.5647  134.5899  157.5442 LP  0  0  0  0  0  0  0  0  0  0  0  0  # atno 17394 bound_to 11000
  139.9536  134.7574  156.0392 LP  0  0  0  0  0  0  0  0  0  0  0  0  # atno 17395 bound_to 11000

$$$$
