AV-unprocessed.smi:2251|AV-procd|sdf|9102|dock5
  -GOLD-   2272012303D 1   1.00000     0.00000
 Structure written by MMmdl.
 45 46  0  0  0  0  0  0  0  0  2 V2000
  147.6187  132.7559  153.1740 C   0  0  0  0  0  0  0  0  0  0  0  0
  148.9141  132.8541  153.9720 C   0  0  0  0  0  0  0  0  0  0  0  0
  149.2836  131.9097  154.6696 O   0  0  0  0  0  0  0  0  0  0  0  0
  149.5969  134.0040  153.8588 N   0  0  0  0  0  0  0  0  0  0  0  0
  150.8654  134.2940  154.5217 C   0  0  0  0  0  0  0  0  0  0  0  0
  150.8099  135.5742  155.3629 C   0  0  0  0  0  0  0  0  0  0  0  0
  151.0108  135.5369  156.5773 O   0  0  0  0  0  0  0  0  0  0  0  0
  150.5589  136.7094  154.6968 N   0  0  0  0  0  0  0  0  0  0  0  0
  150.4639  138.0270  155.3177 C   0  0  0  0  0  0  0  0  0  0  0  0
  150.4395  139.1773  154.2702 C   0  0  0  0  0  0  0  0  0  0  0  0
  148.9846  139.3666  153.7823 C   0  0  0  0  0  0  0  0  0  0  0  0
  148.2726  138.2616  153.2502 C   0  0  0  0  0  0  0  0  0  0  0  0
  146.9423  138.4193  152.8138 C   0  0  0  0  0  0  0  0  0  0  0  0
  146.3438  139.6243  152.9068 N   0  3  0  0  0  0  0  0  0  0  0  0
  146.9688  140.7085  153.4101 C   0  0  0  0  0  0  0  0  0  0  0  0
  148.3002  140.6087  153.8626 C   0  0  0  0  0  0  0  0  0  0  0  0
  151.0186  140.4872  154.8930 C   0  0  0  0  0  0  0  0  0  0  0  0
  152.5216  140.4244  155.2196 C   0  0  0  0  0  0  0  0  0  0  0  0
  153.3421  140.0521  153.9796 C   0  0  0  0  0  0  0  0  0  0  0  0
  152.8391  138.7418  153.3638 C   0  0  0  0  0  0  0  0  0  0  0  0
  151.3325  138.8055  153.0502 C   0  0  0  0  0  0  0  0  0  0  0  0
  146.9700  133.6053  153.3902 H   0  0  0  0  0  0  0  0  0  0  0  0
  147.0784  131.8421  153.4236 H   0  0  0  0  0  0  0  0  0  0  0  0
  147.8320  132.7456  152.1048 H   0  0  0  0  0  0  0  0  0  0  0  0
  149.2215  134.7229  153.2570 H   0  0  0  0  0  0  0  0  0  0  0  0
  151.1084  133.4591  155.1790 H   0  0  0  0  0  0  0  0  0  0  0  0
  151.6684  134.3563  153.7846 H   0  0  0  0  0  0  0  0  0  0  0  0
  150.4058  136.6553  153.7004 H   0  0  0  0  0  0  0  0  0  0  0  0
  149.5798  138.0437  155.9539 H   0  0  0  0  0  0  0  0  0  0  0  0
  151.3130  138.1529  155.9912 H   0  0  0  0  0  0  0  0  0  0  0  0
  148.7340  137.2880  153.1780 H   0  0  0  0  0  0  0  0  0  0  0  0
  146.3430  137.6218  152.3993 H   0  0  0  0  0  0  0  0  0  0  0  0
  146.3883  141.6191  153.4391 H   0  0  0  0  0  0  0  0  0  0  0  0
  148.7634  141.4955  154.2660 H   0  0  0  0  0  0  0  0  0  0  0  0
  150.8839  141.3104  154.1898 H   0  0  0  0  0  0  0  0  0  0  0  0
  150.4730  140.7640  155.7959 H   0  0  0  0  0  0  0  0  0  0  0  0
  152.8532  141.3920  155.5977 H   0  0  0  0  0  0  0  0  0  0  0  0
  152.7100  139.7107  156.0212 H   0  0  0  0  0  0  0  0  0  0  0  0
  153.2734  140.8524  153.2416 H   0  0  0  0  0  0  0  0  0  0  0  0
  154.3968  139.9621  154.2416 H   0  0  0  0  0  0  0  0  0  0  0  0
  153.3944  138.5322  152.4490 H   0  0  0  0  0  0  0  0  0  0  0  0
  153.0499  137.9119  154.0384 H   0  0  0  0  0  0  0  0  0  0  0  0
  151.0309  137.8486  152.6243 H   0  0  0  0  0  0  0  0  0  0  0  0
  151.1808  139.5437  152.2612 H   0  0  0  0  0  0  0  0  0  0  0  0
  145.3796  139.7185  152.5861 H   0  0  0  0  0  0  0  0  0  0  0  0
  1  2  1  0  0  0  0
  1 22  1  0  0  0  0
  1 23  1  0  0  0  0
  1 24  1  0  0  0  0
  2  3  2  0  0  0  0
  2  4  1  0  0  0  0
  4  5  1  0  0  0  0
  4 25  1  0  0  0  0
  5  6  1  0  0  0  0
  5 26  1  0  0  0  0
  5 27  1  0  0  0  0
  6  7  2  0  0  0  0
  6  8  1  0  0  0  0
  8  9  1  0  0  0  0
  8 28  1  0  0  0  0
  9 10  1  0  0  0  0
  9 29  1  0  0  0  0
  9 30  1  0  0  0  0
 10 21  1  0  0  0  0
 10 11  1  0  0  0  0
 10 17  1  0  0  0  0
 11 16  1  0  0  0  0
 11 12  2  0  0  0  0
 12 13  1  0  0  0  0
 12 31  1  0  0  0  0
 13 14  2  0  0  0  0
 13 32  1  0  0  0  0
 14 15  1  0  0  0  0
 14 45  1  0  0  0  0
 15 16  2  0  0  0  0
 15 33  1  0  0  0  0
 16 34  1  0  0  0  0
 17 18  1  0  0  0  0
 17 35  1  0  0  0  0
 17 36  1  0  0  0  0
 18 19  1  0  0  0  0
 18 37  1  0  0  0  0
 18 38  1  0  0  0  0
 19 20  1  0  0  0  0
 19 39  1  0  0  0  0
 19 40  1  0  0  0  0
 20 21  1  0  0  0  0
 20 41  1  0  0  0  0
 20 42  1  0  0  0  0
 21 43  1  0  0  0  0
 21 44  1  0  0  0  0
M  CHG  1  14   1
M  END
> <s_m_source_file>
AV-unprocessed.smi

> <i_m_source_file_index>
2251

> <i_lp_mmshare_version>
43012

> <i_f3d_flags>
0

> <s_epik_input>
W0NIM11DKD1PKVtOSF1bQ0gyXUMoPU8pW05IXVtDSDJdQzEoW0NIMl1bQ0gyXVtDSDJdW0NIMl1bQ0gyXTEpYzJbY0hdW2NIXW5bY0hdW2NIXTI=

> <s_epik_cmdline>
J2VwaWtfcHl0aG9uJywgJy1waCcsICc3LjAnLCAnLXRuJywgJzgnLCAnLW1hJywgJzIwMCcsICctbWV0YWxfYmluZGluZycsICctaW1hZScsICc8aW5maWxlLm1hZT4nLCAnLW9tYWUnLCAnPG91dGZpbGUubWFlPic=

> <r_epik_Ionization_Penalty>
1.36815

> <r_epik_Ionization_Penalty_Charging>
1.36815

> <r_epik_Ionization_Penalty_Neutral>
3.04412e-07

> <r_epik_State_Penalty>
1.44763

> <r_epik_Charging_Adjusted_Penalty>
2.81578

> <i_epik_Tot_Q>
1

> <i_epik_Tot_abs_Q>
1

> <r_epik_Metal_State_Penalty>
1.50443

> <b_epik_Metal_Only>
0

> <s_lp_Force_Field>
OPLS_2005

> <r_lp_Energy>
22.2864

> <b_lp_Chiralities_Consistent>
1

> <s_lp_Variant>
AV-unprocessed.smi:2251-2

> <Gold.Version>
5.8.1

> <Gold.Id.Protein>
6NUR|6NUR_protein|mol2

> <Gold.PLP.Fitness>
41.8085

> <Gold.PLP.PLP>
-30.8552

> <Gold.PLP.part.hbond>
-3.0000

> <Gold.PLP.part.metal>
0.0000

> <Gold.PLP.part.buried>
0.7528

> <Gold.PLP.part.nonpolar>
-29.5773

> <Gold.PLP.part.repulsive>
0.1183

> <Gold.PLP.ligand.clash>
0.0000

> <Gold.PLP.ligand.torsion>
0.5555

> <Gold.PLP.Chemscore.Hbond>
4.0000

> <Gold.PLP.Chemscore.CHOScore>
0.0000

> <Gold.PLP.Chemscore.Metal>
0.0000

> <Gold.Chemscore.Hbonds>
donor molecule, donor type, donor heavy atom, donor atom, acceptor molecule, acceptor atom, score
      L1  H     4    25       P1  7948  0.55
      L1  H     8    28       P1  7948  0.13
      L1  H    14    45       P1 10175  2.00

> <Gold.PLP.Chemscore.Internal.Correction>
0.0643

> <Gold.Rescore>
     Score         DG    S(hbond)    S(metal)    S(lipo)     H(rot)  DE(clash)    DE(int)     intcor
     15.95     -19.29       2.71        0.00      86.45       2.10       1.78       1.57       ----

> <Gold.Chemscore.Fitness>
15.9491

> <Gold.Chemscore.DG>
-19.2947

> <Gold.Chemscore.ZeroCoef>
-5.4800

> <Gold.Chemscore.Hbond>
2.7137

> <Gold.Chemscore.Metal>
0.0000

> <Gold.Chemscore.Lipo>
86.4504

> <Gold.Chemscore.Internal_Hbond>
0.0000

> <Gold.Chemscore.DEClash>
1.7788

> <Gold.Chemscore.DEInternal>
1.5668

> <Gold.Chemscore.Rot>
2.0952

> <Gold.Chemscore.Internal.Correction>
   9.000000E+99

> <Gold.Chemscore.Hbonds>
donor molecule, donor type, donor heavy atom, donor atom, acceptor molecule, acceptor atom, score
      L1  H     4    25       P1  7948  0.03
      L1  H     8    28       P1  7948  0.01
      L1  H    14    45       P1 10175  0.99

> <Gold.Chemscore.Hbond.Weighted>
-9.0636

> <Gold.Chemscore.Metal.Weighted>
-0.0000

> <Gold.Chemscore.Lipo.Weighted>
-10.1147

> <Gold.Chemscore.Internal_Hbond.Weighted>
0.0000

> <Gold.Chemscore.DEClash.Weighted>
1.7788

> <Gold.Chemscore.DEInternal.Weighted>
1.5668

> <Gold.Chemscore.Rot.Weighted>
5.3636

> <Gold.Chemscore.Internal.Correction.Weighted>
   9.000000E+99

> <Gold.Protein.RotatedTorsions>
[ 6907 6896 6895 6894 ] final   18.77 input  -60.11 | X-H torsion
[ 7974 7965 7964 7962 ] final   41.57 input  175.53 | X-H torsion
[ 8008 7997 7996 7995 ] final   43.60 input   59.86 | X-H torsion
[ 10167 10162 10161 10158 ] final  -29.81 input  -65.29 | X-H torsion
[ 10718 10713 10712 10709 ] final  128.58 input   66.30 | X-H torsion
[ 10763 10752 10751 10750 ] final  111.32 input  -60.55 | X-H torsion
[ 11005 11000 10999 10996 ] final  123.22 input  -57.11 | X-H torsion

> <Gold.Protein.ActiveResidues>
 VAL166  LYS551  ARG553  GLY616  TRP617  ASP618  TYR619  PRO620  LYS621  CYS622 
 ASP623  PHE694  ASN695  SER759  ASP760  ASP761  ALA762  ILE779  LEU786  VAL792 
 PHE793  MET794  SER795  GLU796  ALA797  LYS798  CYS799  TRP800  GLU811  SER814 

> <Gold.Protein.RotatedAtoms>
  151.8704  135.0491  160.0478 H   0  0  0  0  0  0  0  0  0  0  0  0  # atno 6907 bound_to 6896
  152.2593  133.5278  159.5380 H   0  0  0  0  0  0  0  0  0  0  0  0  # atno 6908 bound_to 6896
  150.7111  134.0768  159.3926 H   0  0  0  0  0  0  0  0  0  0  0  0  # atno 6909 bound_to 6896
  146.0812  139.5400  142.9536 H   0  0  0  0  0  0  0  0  0  0  0  0  # atno 7974 bound_to 7965
  155.3055  140.3387  155.4246 H   0  0  0  0  0  0  0  0  0  0  0  0  # atno 8008 bound_to 7997
  156.1981  140.1722  156.7995 H   0  0  0  0  0  0  0  0  0  0  0  0  # atno 8009 bound_to 7997
  154.5524  140.0703  156.8673 H   0  0  0  0  0  0  0  0  0  0  0  0  # atno 8010 bound_to 7997
  140.7256  143.3898  151.1450 H   0  0  0  0  0  0  0  0  0  0  0  0  # atno 10167 bound_to 10162
  157.5232  131.1098  150.9122 H   0  0  0  0  0  0  0  0  0  0  0  0  # atno 10718 bound_to 10713
  153.4616  135.3721  155.2341 H   0  0  0  0  0  0  0  0  0  0  0  0  # atno 10763 bound_to 10752
  154.8757  135.3910  154.3918 H   0  0  0  0  0  0  0  0  0  0  0  0  # atno 10764 bound_to 10752
  153.4492  135.7085  153.6184 H   0  0  0  0  0  0  0  0  0  0  0  0  # atno 10765 bound_to 10752
  139.9303  134.9641  156.8226 H   0  0  0  0  0  0  0  0  0  0  0  0  # atno 11005 bound_to 11000
  145.6214  141.0322  143.1913 LP  0  0  0  0  0  0  0  0  0  0  0  0  # atno 17320 bound_to 7965
  144.7295  139.7771  143.7352 LP  0  0  0  0  0  0  0  0  0  0  0  0  # atno 17321 bound_to 7965
  139.7501  143.8791  152.3074 LP  0  0  0  0  0  0  0  0  0  0  0  0  # atno 17342 bound_to 10162
  139.8642  144.7102  150.9064 LP  0  0  0  0  0  0  0  0  0  0  0  0  # atno 17343 bound_to 10162
  156.9726  130.5497  149.5291 LP  0  0  0  0  0  0  0  0  0  0  0  0  # atno 17370 bound_to 10713
  156.0368  130.5455  150.8673 LP  0  0  0  0  0  0  0  0  0  0  0  0  # atno 17371 bound_to 10713
  140.6221  133.9984  155.7623 LP  0  0  0  0  0  0  0  0  0  0  0  0  # atno 17394 bound_to 11000
  141.0887  133.9951  157.3272 LP  0  0  0  0  0  0  0  0  0  0  0  0  # atno 17395 bound_to 11000

$$$$
