AV-unprocessed.smi:625|AV-procd|sdf|3107|dock9
  -GOLD-   22720 0 33D 1   1.00000     0.00000
 Structure written by MMmdl.
 49 51  0  0  0  0  0  0  0  0  1 V2000
  144.5928  135.9988  151.7719 C   0  0  0  0  0  0  0  0  0  0  0  0
  144.9830  137.0454  152.7045 N   0  0  0  0  0  0  0  0  0  0  0  0
  145.8151  138.0576  152.4087 C   0  0  0  0  0  0  0  0  0  0  0  0
  146.3229  138.1718  151.2918 O   0  0  0  0  0  0  0  0  0  0  0  0
  146.0449  138.9803  153.5233 C   0  0  0  0  0  0  0  0  0  0  0  0
  145.1976  139.0264  154.7060 C   0  0  0  0  0  0  0  0  0  0  0  0
  145.4510  139.9035  155.6971 C   0  0  0  0  0  0  0  0  0  0  0  0
  146.5782  140.8377  155.6319 C   0  0  0  0  0  0  0  0  0  0  0  0
  146.8116  141.6439  156.5333 O   0  0  0  0  0  0  0  0  0  0  0  0
  147.3527  140.7571  154.5068 N   0  0  0  0  0  0  0  0  0  0  0  0
  148.5098  141.6500  154.3287 C   0  0  0  0  0  0  0  0  0  0  0  0
  149.6391  141.3496  155.3223 C   0  0  0  0  0  0  0  0  0  0  0  0
  150.4225  140.4228  155.1127 O   0  0  0  0  0  0  0  0  0  0  0  0
  149.7015  142.1453  156.4010 N   0  0  0  0  0  0  0  0  0  0  0  0
  150.7341  142.1094  157.4341 C   0  0  2  0  0  0  0  0  0  0  0  0
  150.1681  141.4205  158.6855 C   0  0  0  0  0  0  0  0  0  0  0  0
  151.2244  143.5468  157.7289 C   0  0  1  0  0  0  0  0  0  0  0  0
  150.3749  144.3263  158.7577 C   0  0  0  0  0  0  0  0  0  0  0  0
  151.4317  144.8770  159.7339 C   0  0  1  0  0  0  0  0  0  0  0  0
  151.9509  143.7263  160.6152 C   0  0  0  0  0  0  0  0  0  0  0  0
  152.8159  142.9144  159.6344 C   0  0  0  0  0  0  0  0  0  0  0  0
  152.6542  143.6909  158.3111 C   0  0  2  0  0  0  0  0  0  0  0  0
  152.6218  145.1300  158.8154 C   0  0  0  0  0  0  0  0  0  0  0  0
  147.0808  139.8406  153.4722 C   0  0  0  0  0  0  0  0  0  0  0  0
  143.9215  135.2951  152.2639 H   0  0  0  0  0  0  0  0  0  0  0  0
  145.4650  135.4477  151.4183 H   0  0  0  0  0  0  0  0  0  0  0  0
  144.0734  136.4205  150.9105 H   0  0  0  0  0  0  0  0  0  0  0  0
  144.5952  137.0014  153.6356 H   0  0  0  0  0  0  0  0  0  0  0  0
  144.3511  138.3650  154.8176 H   0  0  0  0  0  0  0  0  0  0  0  0
  144.8075  139.9201  156.5644 H   0  0  0  0  0  0  0  0  0  0  0  0
  148.8823  141.5730  153.3050 H   0  0  0  0  0  0  0  0  0  0  0  0
  148.2206  142.6947  154.4498 H   0  0  0  0  0  0  0  0  0  0  0  0
  149.0044  142.8707  156.4876 H   0  0  0  0  0  0  0  0  0  0  0  0
  151.5846  141.5165  157.0952 H   0  0  0  0  0  0  0  0  0  0  0  0
  150.9183  141.3496  159.4732 H   0  0  0  0  0  0  0  0  0  0  0  0
  149.8381  140.4063  158.4581 H   0  0  0  0  0  0  0  0  0  0  0  0
  149.3136  141.9655  159.0884 H   0  0  0  0  0  0  0  0  0  0  0  0
  151.2057  144.1003  156.7881 H   0  0  0  0  0  0  0  0  0  0  0  0
  149.8326  145.1365  158.2689 H   0  0  0  0  0  0  0  0  0  0  0  0
  149.6421  143.7012  159.2695 H   0  0  0  0  0  0  0  0  0  0  0  0
  151.0931  145.7438  160.3023 H   0  0  0  0  0  0  0  0  0  0  0  0
  152.5590  144.1077  161.4366 H   0  0  0  0  0  0  0  0  0  0  0  0
  151.1416  143.1346  161.0446 H   0  0  0  0  0  0  0  0  0  0  0  0
  153.8587  142.9228  159.9537 H   0  0  0  0  0  0  0  0  0  0  0  0
  152.5090  141.8717  159.5668 H   0  0  0  0  0  0  0  0  0  0  0  0
  153.4441  143.4852  157.5878 H   0  0  0  0  0  0  0  0  0  0  0  0
  152.4168  145.8620  158.0324 H   0  0  0  0  0  0  0  0  0  0  0  0
  153.5272  145.4233  159.3499 H   0  0  0  0  0  0  0  0  0  0  0  0
  147.7660  139.8947  152.6376 H   0  0  0  0  0  0  0  0  0  0  0  0
  1  2  1  0  0  0  0
  1 25  1  0  0  0  0
  1 26  1  0  0  0  0
  1 27  1  0  0  0  0
  2  3  1  0  0  0  0
  2 28  1  0  0  0  0
  3  4  2  0  0  0  0
  3  5  1  0  0  0  0
  5 24  2  0  0  0  0
  5  6  1  0  0  0  0
  6  7  2  0  0  0  0
  6 29  1  0  0  0  0
  7  8  1  0  0  0  0
  7 30  1  0  0  0  0
  8  9  2  0  0  0  0
  8 10  1  0  0  0  0
 10 11  1  0  0  0  0
 10 24  1  0  0  0  0
 11 12  1  0  0  0  0
 11 31  1  0  0  0  0
 11 32  1  0  0  0  0
 12 13  2  0  0  0  0
 12 14  1  0  0  0  0
 14 15  1  0  0  0  0
 14 33  1  0  0  0  0
 15 16  1  0  0  0  0
 15 17  1  0  0  0  0
 15 34  1  0  0  0  0
 16 35  1  0  0  0  0
 16 36  1  0  0  0  0
 16 37  1  0  0  0  0
 17 22  1  0  0  0  0
 17 18  1  0  0  0  0
 17 38  1  0  0  0  0
 18 19  1  0  0  0  0
 18 39  1  0  0  0  0
 18 40  1  0  0  0  0
 19 23  1  0  0  0  0
 19 20  1  0  0  0  0
 19 41  1  0  0  0  0
 20 21  1  0  0  0  0
 20 42  1  0  0  0  0
 20 43  1  0  0  0  0
 21 22  1  0  0  0  0
 21 44  1  0  0  0  0
 21 45  1  0  0  0  0
 22 23  1  0  0  0  0
 22 46  1  0  0  0  0
 23 47  1  0  0  0  0
 23 48  1  0  0  0  0
 24 49  1  0  0  0  0
M  END
> <s_m_source_file>
AV-unprocessed.smi

> <i_m_source_file_index>
625

> <i_lp_mmshare_version>
43012

> <i_f3d_flags>
0

> <s_epik_input>
W0NIM11bTkhdQyg9TyljMVtjSF1bY0hdYyg9TyluKFtjSF0xKVtDSDJdQyg9TylbTkhdW0NASF0oW0NIM10pW0NASF0oW0NIMl1bQ0BIXTIzKVtDQEhdKFtDSDJdMylbQ0gyXVtDSDJdMg==

> <s_epik_cmdline>
J2VwaWtfcHl0aG9uJywgJy1waCcsICc3LjAnLCAnLXRuJywgJzgnLCAnLW1hJywgJzIwMCcsICctbWV0YWxfYmluZGluZycsICctaW1hZScsICc8aW5maWxlLm1hZT4nLCAnLW9tYWUnLCAnPG91dGZpbGUubWFlPic=

> <r_lp_tautomer_probability>
1

> <r_epik_Ionization_Penalty>
3.7129e-07

> <r_epik_Ionization_Penalty_Charging>
5.04114e-08

> <r_epik_Ionization_Penalty_Neutral>
3.20879e-07

> <r_epik_State_Penalty>
-0

> <r_epik_Charging_Adjusted_Penalty>
5.04114e-08

> <i_epik_Tot_Q>
0

> <i_epik_Tot_abs_Q>
0

> <r_epik_Metal_State_Penalty>
-0

> <b_epik_Metal_Only>
0

> <s_lp_Force_Field>
OPLS_2005

> <r_lp_Energy>
63.4891

> <b_lp_Chiralities_Consistent>
1

> <s_lp_Variant>
AV-unprocessed.smi:625-7

> <Gold.Version>
5.8.1

> <Gold.Id.Protein>
6NUR|6NUR_protein|mol2

> <Gold.PLP.Fitness>
54.5446

> <Gold.PLP.PLP>
-47.6464

> <Gold.PLP.part.hbond>
-3.1472

> <Gold.PLP.part.metal>
0.0000

> <Gold.PLP.part.buried>
-3.9842

> <Gold.PLP.part.nonpolar>
-43.2134

> <Gold.PLP.part.repulsive>
0.7302

> <Gold.PLP.ligand.clash>
0.0000

> <Gold.PLP.ligand.torsion>
1.1715

> <Gold.PLP.Chemscore.Hbond>
2.0676

> <Gold.PLP.Chemscore.CHOScore>
0.9927

> <Gold.PLP.Chemscore.Metal>
0.0000

> <Gold.Chemscore.Hbonds>
donor molecule, donor type, donor heavy atom, donor atom, acceptor molecule, acceptor atom, score
      L1  H    14    33       P1  8028  0.64
      P1  H  7954  7966       L1     4  0.24
      P1  H  7989  7998       L1    13  0.93
      L1  C    24    49       P1  7957  1.00

> <Gold.PLP.Chemscore.Internal.Correction>
0.0604

> <Gold.Rescore>
     Score         DG    S(hbond)    S(metal)    S(lipo)     H(rot)  DE(clash)    DE(int)     intcor
     17.89     -20.53       1.96        0.00     109.30       1.67       0.88       1.76       ----

> <Gold.Chemscore.Fitness>
17.8903

> <Gold.Chemscore.DG>
-20.5274

> <Gold.Chemscore.ZeroCoef>
-5.4800

> <Gold.Chemscore.Hbond>
1.9571

> <Gold.Chemscore.Metal>
0.0000

> <Gold.Chemscore.Lipo>
109.2998

> <Gold.Chemscore.Internal_Hbond>
0.0000

> <Gold.Chemscore.DEClash>
0.8811

> <Gold.Chemscore.DEInternal>
1.7560

> <Gold.Chemscore.Rot>
1.6709

> <Gold.Chemscore.Internal.Correction>
   9.000000E+99

> <Gold.Chemscore.Hbonds>
donor molecule, donor type, donor heavy atom, donor atom, acceptor molecule, acceptor atom, score
      L1  H    14    33       P1  8028  0.60
      P1  H  7954  7966       L1     4  0.25
      P1  H  7989  7998       L1    13  0.60

> <Gold.Chemscore.Hbond.Weighted>
-6.5367

> <Gold.Chemscore.Metal.Weighted>
-0.0000

> <Gold.Chemscore.Lipo.Weighted>
-12.7881

> <Gold.Chemscore.Internal_Hbond.Weighted>
0.0000

> <Gold.Chemscore.DEClash.Weighted>
0.8811

> <Gold.Chemscore.DEInternal.Weighted>
1.7560

> <Gold.Chemscore.Rot.Weighted>
4.2774

> <Gold.Chemscore.Internal.Correction.Weighted>
   9.000000E+99

> <Gold.Protein.RotatedTorsions>
[ 6907 6896 6895 6894 ] final   19.46 input  -60.11 | X-H torsion
[ 7974 7965 7964 7962 ] final  117.78 input  175.53 | X-H torsion
[ 8008 7997 7996 7995 ] final  -66.96 input   59.86 | X-H torsion
[ 10167 10162 10161 10158 ] final   66.01 input  -65.29 | X-H torsion
[ 10718 10713 10712 10709 ] final  142.00 input   66.30 | X-H torsion
[ 10763 10752 10751 10750 ] final  176.92 input  -60.55 | X-H torsion
[ 11005 11000 10999 10996 ] final  -44.97 input  -57.11 | X-H torsion

> <Gold.Protein.ActiveResidues>
 VAL166  LYS551  ARG553  GLY616  TRP617  ASP618  TYR619  PRO620  LYS621  CYS622 
 ASP623  PHE694  ASN695  SER759  ASP760  ASP761  ALA762  ILE779  LEU786  VAL792 
 PHE793  MET794  SER795  GLU796  ALA797  LYS798  CYS799  TRP800  GLU811  SER814 

> <Gold.Protein.RotatedAtoms>
  151.8812  135.0452  160.0488 H   0  0  0  0  0  0  0  0  0  0  0  0  # atno 6907 bound_to 6896
  152.2511  133.5211  159.5334 H   0  0  0  0  0  0  0  0  0  0  0  0  # atno 6908 bound_to 6896
  150.7084  134.0875  159.3962 H   0  0  0  0  0  0  0  0  0  0  0  0  # atno 6909 bound_to 6896
  145.1632  139.3143  143.4506 H   0  0  0  0  0  0  0  0  0  0  0  0  # atno 7974 bound_to 7965
  154.4768  140.0902  156.7282 H   0  0  0  0  0  0  0  0  0  0  0  0  # atno 8008 bound_to 7997
  155.4575  140.3460  155.4290 H   0  0  0  0  0  0  0  0  0  0  0  0  # atno 8009 bound_to 7997
  156.1129  140.1453  156.9301 H   0  0  0  0  0  0  0  0  0  0  0  0  # atno 8010 bound_to 7997
  140.1050  144.4869  150.7013 H   0  0  0  0  0  0  0  0  0  0  0  0  # atno 10167 bound_to 10162
  157.3856  131.0998  151.0696 H   0  0  0  0  0  0  0  0  0  0  0  0  # atno 10718 bound_to 10713
  154.4876  135.2777  155.1522 H   0  0  0  0  0  0  0  0  0  0  0  0  # atno 10763 bound_to 10752
  154.3206  135.6210  153.5510 H   0  0  0  0  0  0  0  0  0  0  0  0  # atno 10764 bound_to 10752
  152.9883  135.5742  154.5290 H   0  0  0  0  0  0  0  0  0  0  0  0  # atno 10765 bound_to 10752
  141.0485  133.6752  156.2947 H   0  0  0  0  0  0  0  0  0  0  0  0  # atno 11005 bound_to 11000
  146.3479  140.1750  142.8589 LP  0  0  0  0  0  0  0  0  0  0  0  0  # atno 17320 bound_to 7965
  145.0309  140.8870  143.5110 LP  0  0  0  0  0  0  0  0  0  0  0  0  # atno 17321 bound_to 7965
  140.6957  143.2402  151.5008 LP  0  0  0  0  0  0  0  0  0  0  0  0  # atno 17342 bound_to 10162
  139.5650  144.2064  152.1751 LP  0  0  0  0  0  0  0  0  0  0  0  0  # atno 17343 bound_to 10162
  157.1749  130.6283  149.5652 LP  0  0  0  0  0  0  0  0  0  0  0  0  # atno 17370 bound_to 10713
  155.9786  130.4773  150.6665 LP  0  0  0  0  0  0  0  0  0  0  0  0  # atno 17371 bound_to 10713
  140.6100  134.5468  157.5532 LP  0  0  0  0  0  0  0  0  0  0  0  0  # atno 17394 bound_to 11000
  139.9331  134.7926  156.0876 LP  0  0  0  0  0  0  0  0  0  0  0  0  # atno 17395 bound_to 11000

$$$$
