AV-unprocessed.smi:1946|AV-procd|sdf|7862|dock4
  -GOLD-   2272010 13D 1   1.00000     0.00000
 Structure written by MMmdl.
 38 40  0  0  0  0  0  0  0  0  1 V2000
  150.1328  133.6437  153.3740 C   0  0  0  0  0  0  0  0  0  0  0  0
  149.8424  134.2634  155.0806 S   0  0  0  0  0  0  0  0  0  0  0  0
  148.4496  133.9605  155.4448 O   0  0  0  0  0  0  0  0  0  0  0  0
  150.9391  133.7804  155.9342 O   0  0  0  0  0  0  0  0  0  0  0  0
  150.0037  136.0379  154.9195 C   0  0  0  0  0  0  0  0  0  0  0  0
  151.2303  136.5909  154.5021 C   0  0  0  0  0  0  0  0  0  0  0  0
  151.3491  137.9859  154.3491 C   0  0  0  0  0  0  0  0  0  0  0  0
  150.2441  138.8287  154.6047 C   0  0  0  0  0  0  0  0  0  0  0  0
  150.3697  140.3355  154.4392 C   0  0  1  0  0  0  0  0  0  0  0  0
  149.5437  140.8258  153.4003 O   0  0  0  0  0  0  0  0  0  0  0  0
  150.0544  141.0736  155.7555 C   0  0  0  0  0  0  0  0  0  0  0  0
  151.0934  140.9017  156.7559 N   0  0  0  0  0  0  0  0  0  0  0  0
  151.9692  139.8827  156.8476 C   0  0  0  0  0  0  0  0  0  0  0  0
  152.8459  139.9199  157.8470 N   0  0  0  0  0  0  0  0  0  0  0  0
  152.4993  141.1024  158.4782 C   0  0  0  0  0  0  0  0  0  0  0  0
  153.0497  141.7276  159.6199 C   0  0  0  0  0  0  0  0  0  0  0  0
  152.5251  142.9507  160.0873 C   0  0  0  0  0  0  0  0  0  0  0  0
  151.4453  143.5668  159.4219 C   0  0  0  0  0  0  0  0  0  0  0  0
  150.8800  142.9624  158.2827 C   0  0  0  0  0  0  0  0  0  0  0  0
  151.4054  141.7413  157.8199 C   0  0  0  0  0  0  0  0  0  0  0  0
  149.0138  138.2618  155.0035 C   0  0  0  0  0  0  0  0  0  0  0  0
  148.8896  136.8671  155.1571 C   0  0  0  0  0  0  0  0  0  0  0  0
  150.0561  132.5567  153.3658 H   0  0  0  0  0  0  0  0  0  0  0  0
  151.1283  133.9393  153.0431 H   0  0  0  0  0  0  0  0  0  0  0  0
  149.3862  134.0650  152.7012 H   0  0  0  0  0  0  0  0  0  0  0  0
  152.0786  135.9538  154.2993 H   0  0  0  0  0  0  0  0  0  0  0  0
  152.2917  138.4079  154.0321 H   0  0  0  0  0  0  0  0  0  0  0  0
  151.3967  140.5630  154.1506 H   0  0  0  0  0  0  0  0  0  0  0  0
  149.5972  140.2302  152.6685 H   0  0  0  0  0  0  0  0  0  0  0  0
  149.9190  142.1408  155.5749 H   0  0  0  0  0  0  0  0  0  0  0  0
  149.1160  140.7082  156.1746 H   0  0  0  0  0  0  0  0  0  0  0  0
  151.9635  139.0670  156.1393 H   0  0  0  0  0  0  0  0  0  0  0  0
  153.8780  141.2657  160.1365 H   0  0  0  0  0  0  0  0  0  0  0  0
  152.9547  143.4194  160.9606 H   0  0  0  0  0  0  0  0  0  0  0  0
  151.0517  144.5046  159.7858 H   0  0  0  0  0  0  0  0  0  0  0  0
  150.0552  143.4326  157.7682 H   0  0  0  0  0  0  0  0  0  0  0  0
  148.1587  138.8944  155.1918 H   0  0  0  0  0  0  0  0  0  0  0  0
  147.9433  136.4418  155.4574 H   0  0  0  0  0  0  0  0  0  0  0  0
  1  2  1  0  0  0  0
  1 23  1  0  0  0  0
  1 24  1  0  0  0  0
  1 25  1  0  0  0  0
  2  3  2  0  0  0  0
  2  4  2  0  0  0  0
  2  5  1  0  0  0  0
  5 22  1  0  0  0  0
  5  6  2  0  0  0  0
  6  7  1  0  0  0  0
  6 26  1  0  0  0  0
  7  8  2  0  0  0  0
  7 27  1  0  0  0  0
  8  9  1  0  0  0  0
  8 21  1  0  0  0  0
  9 10  1  0  0  0  0
  9 11  1  0  0  0  0
  9 28  1  0  0  0  0
 10 29  1  0  0  0  0
 11 12  1  0  0  0  0
 11 30  1  0  0  0  0
 11 31  1  0  0  0  0
 12 20  1  0  0  0  0
 12 13  1  0  0  0  0
 13 14  2  0  0  0  0
 13 32  1  0  0  0  0
 14 15  1  0  0  0  0
 15 20  2  0  0  0  0
 15 16  1  0  0  0  0
 16 17  2  0  0  0  0
 16 33  1  0  0  0  0
 17 18  1  0  0  0  0
 17 34  1  0  0  0  0
 18 19  2  0  0  0  0
 18 35  1  0  0  0  0
 19 20  1  0  0  0  0
 19 36  1  0  0  0  0
 21 22  2  0  0  0  0
 21 37  1  0  0  0  0
 22 38  1  0  0  0  0
M  END
> <s_m_source_file>
AV-unprocessed.smi

> <i_m_source_file_index>
1946

> <i_lp_mmshare_version>
43012

> <i_f3d_flags>
0

> <s_epik_input>
W0NIM11TKD1PKSg9TyljMVtjSF1bY0hdYyhbY0hdW2NIXTEpW0NASF0oW09IXSlbQ0gyXW4oW2NIXW4yKWMoYzIzKVtjSF1bY0hdW2NIXVtjSF0z

> <s_epik_cmdline>
J2VwaWtfcHl0aG9uJywgJy1waCcsICc3LjAnLCAnLXRuJywgJzgnLCAnLW1hJywgJzIwMCcsICctbWV0YWxfYmluZGluZycsICctaW1hZScsICc8aW5maWxlLm1hZT4nLCAnLW9tYWUnLCAnPG91dGZpbGUubWFlPic=

> <r_epik_Ionization_Penalty>
0.0696512

> <r_epik_Ionization_Penalty_Charging>
0

> <r_epik_Ionization_Penalty_Neutral>
0.0696512

> <r_epik_State_Penalty>
0.0610247

> <r_epik_Charging_Adjusted_Penalty>
0.0610247

> <i_epik_Tot_Q>
0

> <i_epik_Tot_abs_Q>
0

> <r_epik_Metal_State_Penalty>
6.42746e-05

> <b_epik_Metal_Only>
0

> <s_lp_Force_Field>
OPLS_2005

> <r_lp_Energy>
10.2228

> <b_lp_Chiralities_Consistent>
1

> <s_lp_Variant>
AV-unprocessed.smi:1946-2

> <Gold.Version>
5.8.1

> <Gold.Id.Protein>
6NUR|6NUR_protein|mol2

> <Gold.PLP.Fitness>
48.7419

> <Gold.PLP.PLP>
-41.2672

> <Gold.PLP.part.hbond>
-3.3635

> <Gold.PLP.part.metal>
0.0000

> <Gold.PLP.part.buried>
-1.7780

> <Gold.PLP.part.nonpolar>
-36.0042

> <Gold.PLP.part.repulsive>
0.0182

> <Gold.PLP.ligand.clash>
0.0000

> <Gold.PLP.ligand.torsion>
1.5225

> <Gold.PLP.Chemscore.Hbond>
2.8160

> <Gold.PLP.Chemscore.CHOScore>
0.0000

> <Gold.PLP.Chemscore.Metal>
0.0000

> <Gold.Chemscore.Hbonds>
donor molecule, donor type, donor heavy atom, donor atom, acceptor molecule, acceptor atom, score
      L1  H    10    29       P1  7957  0.94
      P1  H  7997  8010       L1    14  1.00
      P1  H  8011  8017       L1    10  0.70

> <Gold.PLP.Chemscore.Internal.Correction>
2.0717

> <Gold.Rescore>
     Score         DG    S(hbond)    S(metal)    S(lipo)     H(rot)  DE(clash)    DE(int)     intcor
     16.38     -19.60       1.99        0.00     107.44       1.98       1.76       1.46       ----

> <Gold.Chemscore.Fitness>
16.3828

> <Gold.Chemscore.DG>
-19.6023

> <Gold.Chemscore.ZeroCoef>
-5.4800

> <Gold.Chemscore.Hbond>
1.9852

> <Gold.Chemscore.Metal>
0.0000

> <Gold.Chemscore.Lipo>
107.4420

> <Gold.Chemscore.Internal_Hbond>
0.0000

> <Gold.Chemscore.DEClash>
1.7605

> <Gold.Chemscore.DEInternal>
1.4590

> <Gold.Chemscore.Rot>
1.9840

> <Gold.Chemscore.Internal.Correction>
   9.000000E+99

> <Gold.Chemscore.Hbonds>
donor molecule, donor type, donor heavy atom, donor atom, acceptor molecule, acceptor atom, score
      L1  H    10    29       P1  7957  0.84
      P1  H  7997  8010       L1    14  0.41
      P1  H  8011  8017       L1    10  0.07

> <Gold.Chemscore.Hbond.Weighted>
-6.6307

> <Gold.Chemscore.Metal.Weighted>
-0.0000

> <Gold.Chemscore.Lipo.Weighted>
-12.5707

> <Gold.Chemscore.Internal_Hbond.Weighted>
0.0000

> <Gold.Chemscore.DEClash.Weighted>
1.7605

> <Gold.Chemscore.DEInternal.Weighted>
1.4590

> <Gold.Chemscore.Rot.Weighted>
5.0791

> <Gold.Chemscore.Internal.Correction.Weighted>
   9.000000E+99

> <Gold.Protein.RotatedTorsions>
[ 6907 6896 6895 6894 ] final  -12.04 input  -60.11 | X-H torsion
[ 7974 7965 7964 7962 ] final  143.23 input  175.53 | X-H torsion
[ 8008 7997 7996 7995 ] final   33.29 input   59.86 | X-H torsion
[ 10167 10162 10161 10158 ] final   -6.86 input  -65.29 | X-H torsion
[ 10718 10713 10712 10709 ] final -115.22 input   66.30 | X-H torsion
[ 10763 10752 10751 10750 ] final   38.55 input  -60.55 | X-H torsion
[ 11005 11000 10999 10996 ] final  115.25 input  -57.11 | X-H torsion

> <Gold.Protein.ActiveResidues>
 VAL166  LYS551  ARG553  GLY616  TRP617  ASP618  TYR619  PRO620  LYS621  CYS622 
 ASP623  PHE694  ASN695  SER759  ASP760  ASP761  ALA762  ILE779  LEU786  VAL792 
 PHE793  MET794  SER795  GLU796  ALA797  LYS798  CYS799  TRP800  GLU811  SER814 

> <Gold.Protein.RotatedAtoms>
  151.3768  135.0932  159.9482 H   0  0  0  0  0  0  0  0  0  0  0  0  # atno 6907 bound_to 6896
  152.5120  133.9111  159.7498 H   0  0  0  0  0  0  0  0  0  0  0  0  # atno 6908 bound_to 6896
  150.9536  133.6467  159.2796 H   0  0  0  0  0  0  0  0  0  0  0  0  # atno 6909 bound_to 6896
  144.8939  139.5519  143.5785 H   0  0  0  0  0  0  0  0  0  0  0  0  # atno 7974 bound_to 7965
  155.1362  140.3262  155.4462 H   0  0  0  0  0  0  0  0  0  0  0  0  # atno 8008 bound_to 7997
  156.2619  140.2002  156.6428 H   0  0  0  0  0  0  0  0  0  0  0  0  # atno 8009 bound_to 7997
  154.6576  140.0551  157.0013 H   0  0  0  0  0  0  0  0  0  0  0  0  # atno 8010 bound_to 7997
  140.7010  143.6146  150.8671 H   0  0  0  0  0  0  0  0  0  0  0  0  # atno 10167 bound_to 10162
  156.0881  130.6069  150.8877 H   0  0  0  0  0  0  0  0  0  0  0  0  # atno 10718 bound_to 10713
  152.9997  135.6246  154.2323 H   0  0  0  0  0  0  0  0  0  0  0  0  # atno 10763 bound_to 10752
  154.2065  135.2802  155.2975 H   0  0  0  0  0  0  0  0  0  0  0  0  # atno 10764 bound_to 10752
  154.5642  135.5696  153.7093 H   0  0  0  0  0  0  0  0  0  0  0  0  # atno 10765 bound_to 10752
  139.9004  134.9581  156.7017 H   0  0  0  0  0  0  0  0  0  0  0  0  # atno 11005 bound_to 11000
  146.3070  139.7613  142.9049 LP  0  0  0  0  0  0  0  0  0  0  0  0  # atno 17320 bound_to 7965
  145.3735  141.0346  143.3218 LP  0  0  0  0  0  0  0  0  0  0  0  0  # atno 17321 bound_to 7965
  139.9868  143.5890  152.2924 LP  0  0  0  0  0  0  0  0  0  0  0  0  # atno 17342 bound_to 10162
  139.6531  144.7661  151.2108 LP  0  0  0  0  0  0  0  0  0  0  0  0  # atno 17343 bound_to 10162
  157.6022  131.0940  150.8940 LP  0  0  0  0  0  0  0  0  0  0  0  0  # atno 17370 bound_to 10713
  156.9095  130.5276  149.5280 LP  0  0  0  0  0  0  0  0  0  0  0  0  # atno 17371 bound_to 10713
  140.7145  133.9194  155.8106 LP  0  0  0  0  0  0  0  0  0  0  0  0  # atno 17394 bound_to 11000
  141.0275  134.0803  157.4052 LP  0  0  0  0  0  0  0  0  0  0  0  0  # atno 17395 bound_to 11000

$$$$
