AV-unprocessed.smi:3210|AV-procd|sdf|12272|dock3
  -GOLD-   2272018103D 1   1.00000     0.00000
 Structure written by MMmdl.
 35 36  0  0  0  0  0  0  0  0  2 V2000
  146.4404  136.0953  153.3863 O   0  0  0  0  0  0  0  0  0  0  0  0
  145.9230  136.7974  152.5164 C   0  0  0  0  0  0  0  0  0  0  0  0
  146.3720  138.2453  152.3092 C   0  0  0  0  0  0  0  0  0  0  0  0
  147.7847  138.4557  152.6870 N   0  3  0  0  0  0  0  0  0  0  0  0
  148.0097  138.5659  154.1408 C   0  0  0  0  0  0  0  0  0  0  0  0
  148.9561  139.7308  154.4646 C   0  0  0  0  0  0  0  0  0  0  0  0
  150.3455  139.3157  154.4575 N   0  0  0  0  0  0  0  0  0  0  0  0
  150.8757  138.0948  154.0958 C   0  0  0  0  0  0  0  0  0  0  0  0
  152.2287  138.1751  154.2612 C   0  0  0  0  0  0  0  0  0  0  0  0
  152.4334  139.4997  154.7390 C   0  0  0  0  0  0  0  0  0  0  0  0
  151.3038  140.1794  154.8566 N   0  0  0  0  0  0  0  0  0  0  0  0
  144.9516  136.3611  151.7004 N   0  0  0  0  0  0  0  0  0  0  0  0
  144.3773  135.0216  151.7250 C   0  0  0  0  0  0  0  0  0  0  0  0
  144.7504  134.1425  150.5464 C   0  0  0  0  0  0  0  0  0  0  0  0
  144.5054  132.6528  150.5978 C   0  0  0  0  0  0  0  0  0  0  0  0
  145.9176  133.1864  150.6249 C   0  0  0  0  0  0  0  0  0  0  0  0
  146.2336  138.5124  151.2606 H   0  0  0  0  0  0  0  0  0  0  0  0
  145.7364  138.9040  152.9028 H   0  0  0  0  0  0  0  0  0  0  0  0
  148.3266  137.6802  152.3326 H   0  0  0  0  0  0  0  0  0  0  0  0
  147.0525  138.7126  154.6431 H   0  0  0  0  0  0  0  0  0  0  0  0
  148.4265  137.6268  154.5073 H   0  0  0  0  0  0  0  0  0  0  0  0
  148.8333  140.5377  153.7405 H   0  0  0  0  0  0  0  0  0  0  0  0
  148.7238  140.1467  155.4459 H   0  0  0  0  0  0  0  0  0  0  0  0
  150.2550  137.2796  153.7542 H   0  0  0  0  0  0  0  0  0  0  0  0
  152.9609  137.4041  154.0721 H   0  0  0  0  0  0  0  0  0  0  0  0
  153.3623  139.9837  155.0024 H   0  0  0  0  0  0  0  0  0  0  0  0
  144.5799  137.0019  151.0138 H   0  0  0  0  0  0  0  0  0  0  0  0
  144.6941  134.5356  152.6481 H   0  0  0  0  0  0  0  0  0  0  0  0
  143.2897  135.0909  151.7769 H   0  0  0  0  0  0  0  0  0  0  0  0
  144.5742  134.6072  149.5779 H   0  0  0  0  0  0  0  0  0  0  0  0
  144.1100  132.2341  151.5212 H   0  0  0  0  0  0  0  0  0  0  0  0
  144.1679  132.1678  149.6841 H   0  0  0  0  0  0  0  0  0  0  0  0
  146.5218  133.0567  149.7293 H   0  0  0  0  0  0  0  0  0  0  0  0
  146.4598  133.1221  151.5661 H   0  0  0  0  0  0  0  0  0  0  0  0
  148.1093  139.3026  152.2423 H   0  0  0  0  0  0  0  0  0  0  0  0
  1  2  2  0  0  0  0
  2  3  1  0  0  0  0
  2 12  1  0  0  0  0
  3  4  1  0  0  0  0
  3 17  1  0  0  0  0
  3 18  1  0  0  0  0
  4  5  1  0  0  0  0
  4 19  1  0  0  0  0
  4 35  1  0  0  0  0
  5  6  1  0  0  0  0
  5 20  1  0  0  0  0
  5 21  1  0  0  0  0
  6  7  1  0  0  0  0
  6 22  1  0  0  0  0
  6 23  1  0  0  0  0
  7 11  1  0  0  0  0
  7  8  1  0  0  0  0
  8  9  2  0  0  0  0
  8 24  1  0  0  0  0
  9 10  1  0  0  0  0
  9 25  1  0  0  0  0
 10 11  2  0  0  0  0
 10 26  1  0  0  0  0
 12 13  1  0  0  0  0
 12 27  1  0  0  0  0
 13 14  1  0  0  0  0
 13 28  1  0  0  0  0
 13 29  1  0  0  0  0
 14 16  1  0  0  0  0
 14 15  1  0  0  0  0
 14 30  1  0  0  0  0
 15 16  1  0  0  0  0
 15 31  1  0  0  0  0
 15 32  1  0  0  0  0
 16 33  1  0  0  0  0
 16 34  1  0  0  0  0
M  CHG  1   4   1
M  END
> <s_m_source_file>
AV-unprocessed.smi

> <i_m_source_file_index>
3210

> <i_lp_mmshare_version>
43012

> <i_f3d_flags>
0

> <s_epik_input>
W0NIMl0xW0NIMl1bQ0hdMVtDSDJdW05IXUMoPU8pW0NIMl1bTkhdW0NIMl1bQ0gyXW4yW2NIXVtjSF1bY0hdbjI=

> <s_epik_cmdline>
J2VwaWtfcHl0aG9uJywgJy1waCcsICc3LjAnLCAnLXRuJywgJzgnLCAnLW1hJywgJzIwMCcsICctbWV0YWxfYmluZGluZycsICctaW1hZScsICc8aW5maWxlLm1hZT4nLCAnLW9tYWUnLCAnPG91dGZpbGUubWFlPic=

> <r_lp_tautomer_probability>
1

> <r_epik_Ionization_Penalty>
0.20724

> <r_epik_Ionization_Penalty_Charging>
0.207237

> <r_epik_Ionization_Penalty_Neutral>
3.19342e-06

> <r_epik_State_Penalty>
0.197611

> <r_epik_Charging_Adjusted_Penalty>
0.404848

> <i_epik_Tot_Q>
1

> <i_epik_Tot_abs_Q>
1

> <r_epik_Metal_State_Penalty>
0.197786

> <b_epik_Metal_Only>
0

> <s_lp_Force_Field>
OPLS_2005

> <r_lp_Energy>
10.8837

> <b_lp_Chiralities_Consistent>
1

> <s_lp_Variant>
AV-unprocessed.smi:3210-1

> <Gold.Version>
5.8.1

> <Gold.Id.Protein>
6NUR|6NUR_protein|mol2

> <Gold.PLP.Fitness>
52.2481

> <Gold.PLP.PLP>
-36.2050

> <Gold.PLP.part.hbond>
-4.0000

> <Gold.PLP.part.metal>
0.0000

> <Gold.PLP.part.buried>
-3.3609

> <Gold.PLP.part.nonpolar>
-30.6259

> <Gold.PLP.part.repulsive>
0.3142

> <Gold.PLP.ligand.clash>
0.0000

> <Gold.PLP.ligand.torsion>
1.3297

> <Gold.PLP.Chemscore.Hbond>
5.0000

> <Gold.PLP.Chemscore.CHOScore>
1.0000

> <Gold.PLP.Chemscore.Metal>
0.0000

> <Gold.Chemscore.Hbonds>
donor molecule, donor type, donor heavy atom, donor atom, acceptor molecule, acceptor atom, score
      L1  H     4    19       P1  7948  2.00
      L1  H     4    35       P1  7957  0.85
      L1  H    12    27       P1 10171  0.80
      P1  H  7989  7998       L1    11  0.40
      L1  C     8    24       P1  7948  0.98
      L1  C     8    24       P1  7949  0.10

> <Gold.PLP.Chemscore.Internal.Correction>
0.7026

> <Gold.Rescore>
     Score         DG    S(hbond)    S(metal)    S(lipo)     H(rot)  DE(clash)    DE(int)     intcor
     18.77     -20.25       3.83        0.00      68.79       2.37       0.14       1.34       ----

> <Gold.Chemscore.Fitness>
18.7727

> <Gold.Chemscore.DG>
-20.2546

> <Gold.Chemscore.ZeroCoef>
-5.4800

> <Gold.Chemscore.Hbond>
3.8317

> <Gold.Chemscore.Metal>
0.0000

> <Gold.Chemscore.Lipo>
68.7852

> <Gold.Chemscore.Internal_Hbond>
0.0000

> <Gold.Chemscore.DEClash>
0.1388

> <Gold.Chemscore.DEInternal>
1.3430

> <Gold.Chemscore.Rot>
2.3715

> <Gold.Chemscore.Internal.Correction>
   9.000000E+99

> <Gold.Chemscore.Hbonds>
donor molecule, donor type, donor heavy atom, donor atom, acceptor molecule, acceptor atom, score
      L1  H     4    19       P1  7948  0.99
      L1  H     4    35       P1  7957  0.82
      L1  H    12    27       P1 10171  0.79

> <Gold.Chemscore.Hbond.Weighted>
-12.7979

> <Gold.Chemscore.Metal.Weighted>
-0.0000

> <Gold.Chemscore.Lipo.Weighted>
-8.0479

> <Gold.Chemscore.Internal_Hbond.Weighted>
0.0000

> <Gold.Chemscore.DEClash.Weighted>
0.1388

> <Gold.Chemscore.DEInternal.Weighted>
1.3430

> <Gold.Chemscore.Rot.Weighted>
6.0712

> <Gold.Chemscore.Internal.Correction.Weighted>
   9.000000E+99

> <Gold.Protein.RotatedTorsions>
[ 6907 6896 6895 6894 ] final   48.12 input  -60.11 | X-H torsion
[ 7974 7965 7964 7962 ] final  -33.52 input  175.53 | X-H torsion
[ 8008 7997 7996 7995 ] final   34.80 input   59.86 | X-H torsion
[ 10167 10162 10161 10158 ] final    0.17 input  -65.29 | X-H torsion
[ 10718 10713 10712 10709 ] final  129.40 input   66.30 | X-H torsion
[ 10763 10752 10751 10750 ] final   51.00 input  -60.55 | X-H torsion
[ 11005 11000 10999 10996 ] final -156.13 input  -57.11 | X-H torsion

> <Gold.Protein.ActiveResidues>
 VAL166  LYS551  ARG553  GLY616  TRP617  ASP618  TYR619  PRO620  LYS621  CYS622 
 ASP623  PHE694  ASN695  SER759  ASP760  ASP761  ALA762  ILE779  LEU786  VAL792 
 PHE793  MET794  SER795  GLU796  ALA797  LYS798  CYS799  TRP800  GLU811  SER814 

> <Gold.Protein.RotatedAtoms>
  152.2759  134.7882  160.0405 H   0  0  0  0  0  0  0  0  0  0  0  0  # atno 6907 bound_to 6896
  151.8479  133.3429  159.3672 H   0  0  0  0  0  0  0  0  0  0  0  0  # atno 6908 bound_to 6896
  150.7170  134.5256  159.5719 H   0  0  0  0  0  0  0  0  0  0  0  0  # atno 6909 bound_to 6896
  146.0903  140.5927  142.8867 H   0  0  0  0  0  0  0  0  0  0  0  0  # atno 7974 bound_to 7965
  155.1607  140.3283  155.4412 H   0  0  0  0  0  0  0  0  0  0  0  0  # atno 8008 bound_to 7997
  156.2543  140.1961  156.6665 H   0  0  0  0  0  0  0  0  0  0  0  0  # atno 8009 bound_to 7997
  154.6407  140.0570  156.9828 H   0  0  0  0  0  0  0  0  0  0  0  0  # atno 8010 bound_to 7997
  140.6741  143.6967  150.7984 H   0  0  0  0  0  0  0  0  0  0  0  0  # atno 10167 bound_to 10162
  157.5158  131.1097  150.9227 H   0  0  0  0  0  0  0  0  0  0  0  0  # atno 10718 bound_to 10713
  152.9785  135.5860  154.4344 H   0  0  0  0  0  0  0  0  0  0  0  0  # atno 10763 bound_to 10752
  154.3953  135.2768  155.2132 H   0  0  0  0  0  0  0  0  0  0  0  0  # atno 10764 bound_to 10752
  154.3986  135.6109  153.5938 H   0  0  0  0  0  0  0  0  0  0  0  0  # atno 10765 bound_to 10752
  140.6790  134.4166  157.5227 H   0  0  0  0  0  0  0  0  0  0  0  0  # atno 11005 bound_to 11000
  144.7356  140.4797  143.6906 LP  0  0  0  0  0  0  0  0  0  0  0  0  # atno 17320 bound_to 7965
  145.6051  139.1507  143.3107 LP  0  0  0  0  0  0  0  0  0  0  0  0  # atno 17321 bound_to 7965
  140.0657  143.5111  152.2605 LP  0  0  0  0  0  0  0  0  0  0  0  0  # atno 17342 bound_to 10162
  139.6023  144.7586  151.3142 LP  0  0  0  0  0  0  0  0  0  0  0  0  # atno 17343 bound_to 10162
  156.9853  130.5542  149.5299 LP  0  0  0  0  0  0  0  0  0  0  0  0  # atno 17370 bound_to 10713
  156.0319  130.5410  150.8556 LP  0  0  0  0  0  0  0  0  0  0  0  0  # atno 17371 bound_to 10713
  139.8958  134.8675  156.2117 LP  0  0  0  0  0  0  0  0  0  0  0  0  # atno 17394 bound_to 11000
  141.0333  133.6977  156.1468 LP  0  0  0  0  0  0  0  0  0  0  0  0  # atno 17395 bound_to 11000

$$$$
