AV-unprocessed.smi:946|AV-procd|sdf|4237|dock4
  -GOLD-   22720 2143D 1   1.00000     0.00000
 Structure written by MMmdl.
 42 43  0  0  0  0  0  0  0  0  1 V2000
  151.6418  137.5284  154.9474 C   0  0  0  0  0  0  0  0  0  0  0  0
  151.6417  139.0456  155.1874 C   0  0  1  0  0  0  0  0  0  0  0  0
  150.3060  139.4311  155.5027 O   0  0  0  0  0  0  0  0  0  0  0  0
  149.3865  139.4032  154.4166 C   0  0  0  0  0  0  0  0  0  0  0  0
  148.4003  140.5680  154.5715 C   0  0  1  0  0  0  0  0  0  0  0  0
  147.4960  140.7220  153.3328 C   0  0  0  0  0  0  0  0  0  0  0  0
  146.4611  141.8309  153.5544 C   0  0  0  0  0  0  0  0  0  0  0  0
  145.6980  141.5709  154.8572 C   0  0  0  0  0  0  0  0  0  0  0  0
  146.6816  141.3630  156.0194 C   0  0  0  0  0  0  0  0  0  0  0  0
  147.5806  140.3028  155.7084 O   0  0  0  0  0  0  0  0  0  0  0  0
  152.5993  139.4355  156.3252 C   0  0  0  0  0  0  0  0  0  0  0  0
  153.7829  139.1000  156.2695 O   0  0  0  0  0  0  0  0  0  0  0  0
  152.0468  140.1269  157.3398 N   0  0  0  0  0  0  0  0  0  0  0  0
  152.6708  140.6077  158.5208 C   0  0  0  0  0  0  0  0  0  0  0  0
  152.0193  141.6959  159.1418 C   0  0  0  0  0  0  0  0  0  0  0  0
  152.5588  142.2438  160.3208 C   0  0  0  0  0  0  0  0  0  0  0  0
  153.7379  141.6899  160.8500 C   0  0  0  0  0  0  0  0  0  0  0  0
  154.3308  140.6044  160.1706 C   0  0  0  0  0  0  0  0  0  0  0  0
  155.6099  139.9500  160.6742 C   0  0  0  0  0  0  0  0  0  0  0  0
  155.4109  139.4552  161.8960 F   0  0  0  0  0  0  0  0  0  0  0  0
  156.0025  138.9562  159.8765 F   0  0  0  0  0  0  0  0  0  0  0  0
  156.5865  140.8558  160.7308 F   0  0  0  0  0  0  0  0  0  0  0  0
  153.8078  140.0812  159.0385 N   0  0  0  0  0  0  0  0  0  0  0  0
  152.6433  137.1640  154.7158 H   0  0  0  0  0  0  0  0  0  0  0  0
  150.9962  137.2713  154.1074 H   0  0  0  0  0  0  0  0  0  0  0  0
  151.2787  136.9824  155.8191 H   0  0  0  0  0  0  0  0  0  0  0  0
  151.9485  139.5360  154.2614 H   0  0  0  0  0  0  0  0  0  0  0  0
  149.9254  139.5076  153.4742 H   0  0  0  0  0  0  0  0  0  0  0  0
  148.8488  138.4542  154.3838 H   0  0  0  0  0  0  0  0  0  0  0  0
  148.9616  141.4912  154.7272 H   0  0  0  0  0  0  0  0  0  0  0  0
  148.0964  140.9456  152.4505 H   0  0  0  0  0  0  0  0  0  0  0  0
  146.9833  139.7803  153.1319 H   0  0  0  0  0  0  0  0  0  0  0  0
  146.9640  142.7971  153.6087 H   0  0  0  0  0  0  0  0  0  0  0  0
  145.7705  141.8819  152.7123 H   0  0  0  0  0  0  0  0  0  0  0  0
  145.0256  142.4015  155.0734 H   0  0  0  0  0  0  0  0  0  0  0  0
  145.0742  140.6829  154.7464 H   0  0  0  0  0  0  0  0  0  0  0  0
  147.2383  142.2778  156.2290 H   0  0  0  0  0  0  0  0  0  0  0  0
  146.1375  141.1069  156.9286 H   0  0  0  0  0  0  0  0  0  0  0  0
  151.0615  140.3292  157.2557 H   0  0  0  0  0  0  0  0  0  0  0  0
  151.1141  142.1105  158.7223 H   0  0  0  0  0  0  0  0  0  0  0  0
  152.0756  143.0760  160.8108 H   0  0  0  0  0  0  0  0  0  0  0  0
  154.1694  142.0943  161.7536 H   0  0  0  0  0  0  0  0  0  0  0  0
  1  2  1  0  0  0  0
  1 24  1  0  0  0  0
  1 25  1  0  0  0  0
  1 26  1  0  0  0  0
  2  3  1  0  0  0  0
  2 11  1  0  0  0  0
  2 27  1  0  0  0  0
  3  4  1  0  0  0  0
  4  5  1  0  0  0  0
  4 28  1  0  0  0  0
  4 29  1  0  0  0  0
  5 10  1  0  0  0  0
  5  6  1  0  0  0  0
  5 30  1  0  0  0  0
  6  7  1  0  0  0  0
  6 31  1  0  0  0  0
  6 32  1  0  0  0  0
  7  8  1  0  0  0  0
  7 33  1  0  0  0  0
  7 34  1  0  0  0  0
  8  9  1  0  0  0  0
  8 35  1  0  0  0  0
  8 36  1  0  0  0  0
  9 10  1  0  0  0  0
  9 37  1  0  0  0  0
  9 38  1  0  0  0  0
 11 12  2  0  0  0  0
 11 13  1  0  0  0  0
 13 14  1  0  0  0  0
 13 39  1  0  0  0  0
 14 23  1  0  0  0  0
 14 15  2  0  0  0  0
 15 16  1  0  0  0  0
 15 40  1  0  0  0  0
 16 17  2  0  0  0  0
 16 41  1  0  0  0  0
 17 18  1  0  0  0  0
 17 42  1  0  0  0  0
 18 19  1  0  0  0  0
 18 23  2  0  0  0  0
 19 20  1  0  0  0  0
 19 21  1  0  0  0  0
 19 22  1  0  0  0  0
M  END
> <s_m_source_file>
AV-unprocessed.smi

> <i_m_source_file_index>
946

> <i_lp_mmshare_version>
43012

> <i_f3d_flags>
0

> <s_epik_input>
TzFbQ0gyXVtDSDJdW0NIMl1bQ0gyXVtDQEhdMVtDSDJdT1tDQEBIXShbQ0gzXSlDKD1PKVtOSF1jMltjSF1bY0hdW2NIXWMobjIpQyhGKShGKUY=

> <s_epik_cmdline>
J2VwaWtfcHl0aG9uJywgJy1waCcsICc3LjAnLCAnLXRuJywgJzgnLCAnLW1hJywgJzIwMCcsICctbWV0YWxfYmluZGluZycsICctaW1hZScsICc8aW5maWxlLm1hZT4nLCAnLW9tYWUnLCAnPG91dGZpbGUubWFlPic=

> <r_lp_tautomer_probability>
1

> <r_epik_Ionization_Penalty>
1.32683e-06

> <r_epik_Ionization_Penalty_Charging>
0

> <r_epik_Ionization_Penalty_Neutral>
1.32683e-06

> <r_epik_State_Penalty>
-0

> <r_epik_Charging_Adjusted_Penalty>
0

> <i_epik_Tot_Q>
0

> <i_epik_Tot_abs_Q>
0

> <r_epik_Metal_State_Penalty>
-0

> <b_epik_Metal_Only>
0

> <s_lp_Force_Field>
OPLS_2005

> <r_lp_Energy>
14.7702

> <b_lp_Chiralities_Consistent>
1

> <s_lp_Variant>
AV-unprocessed.smi:946-4

> <Gold.Version>
5.8.1

> <Gold.Id.Protein>
6NUR|6NUR_protein|mol2

> <Gold.PLP.Fitness>
46.4401

> <Gold.PLP.PLP>
-43.9159

> <Gold.PLP.part.hbond>
-2.0000

> <Gold.PLP.part.metal>
0.0000

> <Gold.PLP.part.buried>
-5.1135

> <Gold.PLP.part.nonpolar>
-36.8250

> <Gold.PLP.part.repulsive>
0.2296

> <Gold.PLP.ligand.clash>
0.0000

> <Gold.PLP.ligand.torsion>
0.5166

> <Gold.PLP.Chemscore.Hbond>
1.1491

> <Gold.PLP.Chemscore.CHOScore>
0.0000

> <Gold.PLP.Chemscore.Metal>
0.0000

> <Gold.Chemscore.Hbonds>
donor molecule, donor type, donor heavy atom, donor atom, acceptor molecule, acceptor atom, score
      P1  H  7997  8008       L1    23  0.66

> <Gold.PLP.Chemscore.Internal.Correction>
0.1099

> <Gold.Rescore>
     Score         DG    S(hbond)    S(metal)    S(lipo)     H(rot)  DE(clash)    DE(int)     intcor
     11.72     -13.43       0.54        0.00      90.96       1.76       0.04       1.68       ----

> <Gold.Chemscore.Fitness>
11.7152

> <Gold.Chemscore.DG>
-13.4350

> <Gold.Chemscore.ZeroCoef>
-5.4800

> <Gold.Chemscore.Hbond>
0.5412

> <Gold.Chemscore.Metal>
0.0000

> <Gold.Chemscore.Lipo>
90.9573

> <Gold.Chemscore.Internal_Hbond>
0.0000

> <Gold.Chemscore.DEClash>
0.0369

> <Gold.Chemscore.DEInternal>
1.6828

> <Gold.Chemscore.Rot>
1.7557

> <Gold.Chemscore.Internal.Correction>
   9.000000E+99

> <Gold.Chemscore.Hbonds>
donor molecule, donor type, donor heavy atom, donor atom, acceptor molecule, acceptor atom, score
      P1  H  7997  8008       L1    23  0.08
      P1  H  7997  8009       L1    12  0.02

> <Gold.Chemscore.Hbond.Weighted>
-1.8076

> <Gold.Chemscore.Metal.Weighted>
-0.0000

> <Gold.Chemscore.Lipo.Weighted>
-10.6420

> <Gold.Chemscore.Internal_Hbond.Weighted>
0.0000

> <Gold.Chemscore.DEClash.Weighted>
0.0369

> <Gold.Chemscore.DEInternal.Weighted>
1.6828

> <Gold.Chemscore.Rot.Weighted>
4.4946

> <Gold.Chemscore.Internal.Correction.Weighted>
   9.000000E+99

> <Gold.Protein.RotatedTorsions>
[ 6907 6896 6895 6894 ] final  179.58 input  -60.11 | X-H torsion
[ 7974 7965 7964 7962 ] final -143.73 input  175.53 | X-H torsion
[ 8008 7997 7996 7995 ] final -103.76 input   59.86 | X-H torsion
[ 10167 10162 10161 10158 ] final  173.87 input  -65.29 | X-H torsion
[ 10718 10713 10712 10709 ] final  -18.79 input   66.30 | X-H torsion
[ 10763 10752 10751 10750 ] final -138.81 input  -60.55 | X-H torsion
[ 11005 11000 10999 10996 ] final   95.04 input  -57.11 | X-H torsion

> <Gold.Protein.ActiveResidues>
 VAL166  LYS551  ARG553  GLY616  TRP617  ASP618  TYR619  PRO620  LYS621  CYS622 
 ASP623  PHE694  ASN695  SER759  ASP760  ASP761  ALA762  ILE779  LEU786  VAL792 
 PHE793  MET794  SER795  GLU796  ALA797  LYS798  CYS799  TRP800  GLU811  SER814 

> <Gold.Protein.RotatedAtoms>
  151.6694  133.3314  159.3192 H   0  0  0  0  0  0  0  0  0  0  0  0  # atno 6907 bound_to 6896
  150.7875  134.6876  159.6488 H   0  0  0  0  0  0  0  0  0  0  0  0  # atno 6908 bound_to 6896
  152.3948  134.6387  160.0145 H   0  0  0  0  0  0  0  0  0  0  0  0  # atno 6909 bound_to 6896
  144.8348  140.5798  143.5491 H   0  0  0  0  0  0  0  0  0  0  0  0  # atno 7974 bound_to 7965
  154.8756  140.0421  157.1751 H   0  0  0  0  0  0  0  0  0  0  0  0  # atno 8008 bound_to 7997
  154.8693  140.2956  155.5470 H   0  0  0  0  0  0  0  0  0  0  0  0  # atno 8009 bound_to 7997
  156.2999  140.2432  156.3679 H   0  0  0  0  0  0  0  0  0  0  0  0  # atno 8010 bound_to 7997
  139.5123  144.3211  152.0201 H   0  0  0  0  0  0  0  0  0  0  0  0  # atno 10167 bound_to 10162
  156.5546  130.4710  149.6435 H   0  0  0  0  0  0  0  0  0  0  0  0  # atno 10718 bound_to 10713
  154.8627  135.3601  154.5446 H   0  0  0  0  0  0  0  0  0  0  0  0  # atno 10763 bound_to 10752
  153.6066  135.7011  153.5368 H   0  0  0  0  0  0  0  0  0  0  0  0  # atno 10764 bound_to 10752
  153.3245  135.4142  155.1405 H   0  0  0  0  0  0  0  0  0  0  0  0  # atno 10765 bound_to 10752
  139.8792  134.8878  156.3953 H   0  0  0  0  0  0  0  0  0  0  0  0  # atno 11005 bound_to 11000
  145.4818  139.1495  143.3758 LP  0  0  0  0  0  0  0  0  0  0  0  0  # atno 17320 bound_to 7965
  146.2648  140.4954  142.8838 LP  0  0  0  0  0  0  0  0  0  0  0  0  # atno 17321 bound_to 7965
  140.2653  144.4023  150.6171 LP  0  0  0  0  0  0  0  0  0  0  0  0  # atno 17342 bound_to 10162
  140.6128  143.2170  151.6852 LP  0  0  0  0  0  0  0  0  0  0  0  0  # atno 17343 bound_to 10162
  156.2853  130.7094  151.1929 LP  0  0  0  0  0  0  0  0  0  0  0  0  # atno 17370 bound_to 10713
  157.7381  131.0545  150.5317 LP  0  0  0  0  0  0  0  0  0  0  0  0  # atno 17371 bound_to 10713
  140.9305  133.7583  156.0018 LP  0  0  0  0  0  0  0  0  0  0  0  0  # atno 17394 bound_to 11000
  140.8336  134.3149  157.5340 LP  0  0  0  0  0  0  0  0  0  0  0  0  # atno 17395 bound_to 11000

$$$$
