AV-unprocessed.smi:1875|AV-procd|sdf|7612|dock3
  -GOLD-   22720 9333D 1   1.00000     0.00000
 Structure written by MMmdl.
 48 50  0  0  0  0  0  0  0  0  2 V2000
  154.9315  141.7641  169.4685 C   0  0  0  0  0  0  0  0  0  0  0  0
  155.1772  141.4598  168.0053 C   0  0  0  0  0  0  0  0  0  0  0  0
  154.9254  142.4418  167.1345 N   0  0  0  0  0  0  0  0  0  0  0  0
  155.1502  142.1763  165.8293 C   0  0  0  0  0  0  0  0  0  0  0  0
  155.6289  140.9216  165.3999 C   0  0  0  0  0  0  0  0  0  0  0  0
  155.8631  139.9660  166.4108 C   0  0  0  0  0  0  0  0  0  0  0  0
  156.3593  138.5739  166.0822 C   0  0  0  0  0  0  0  0  0  0  0  0
  156.4879  138.4115  164.6224 N   0  3  0  0  0  0  0  0  0  0  0  0
  155.6477  137.3380  164.0559 C   0  0  0  0  0  0  0  0  0  0  0  0
  154.8383  137.8452  162.8514 C   0  0  2  0  0  0  0  0  0  0  0  0
  154.0492  136.7822  162.3514 O   0  0  0  0  0  0  0  0  0  0  0  0
  155.7457  138.3854  161.7294 C   0  0  0  0  0  0  0  0  0  0  0  0
  155.0012  139.1118  160.7161 N   0  0  0  0  0  0  0  0  0  0  0  0
  154.8680  138.7802  159.4175 C   0  0  0  0  0  0  0  0  0  0  0  0
  154.1400  139.5889  158.6538 N   0  0  0  0  0  0  0  0  0  0  0  0
  153.7547  140.5591  159.5629 C   0  0  0  0  0  0  0  0  0  0  0  0
  152.9618  141.7144  159.3893 C   0  0  0  0  0  0  0  0  0  0  0  0
  152.6941  142.5795  160.4740 C   0  0  0  0  0  0  0  0  0  0  0  0
  151.8385  143.8123  160.2411 C   0  0  0  0  0  0  0  0  0  0  0  0
  153.2221  142.2928  161.7587 C   0  0  0  0  0  0  0  0  0  0  0  0
  152.9462  143.2075  162.9389 C   0  0  0  0  0  0  0  0  0  0  0  0
  154.0162  141.1427  161.9499 C   0  0  0  0  0  0  0  0  0  0  0  0
  154.2761  140.2898  160.8624 C   0  0  0  0  0  0  0  0  0  0  0  0
  155.6319  140.2365  167.7145 N   0  0  0  0  0  0  0  0  0  0  0  0
  154.2159  142.5787  169.5874 H   0  0  0  0  0  0  0  0  0  0  0  0
  155.8643  142.0543  169.9524 H   0  0  0  0  0  0  0  0  0  0  0  0
  154.5339  140.8899  169.9855 H   0  0  0  0  0  0  0  0  0  0  0  0
  154.9445  142.9674  165.1235 H   0  0  0  0  0  0  0  0  0  0  0  0
  155.8057  140.7116  164.3553 H   0  0  0  0  0  0  0  0  0  0  0  0
  157.3247  138.4032  166.5606 H   0  0  0  0  0  0  0  0  0  0  0  0
  155.6640  137.8325  166.4790 H   0  0  0  0  0  0  0  0  0  0  0  0
  156.2314  139.2848  164.1834 H   0  0  0  0  0  0  0  0  0  0  0  0
  156.3013  136.5226  163.7431 H   0  0  0  0  0  0  0  0  0  0  0  0
  154.9842  136.9387  164.8246 H   0  0  0  0  0  0  0  0  0  0  0  0
  154.1686  138.6424  163.1780 H   0  0  0  0  0  0  0  0  0  0  0  0
  153.3700  136.5854  162.9788 H   0  0  0  0  0  0  0  0  0  0  0  0
  156.4964  139.0591  162.1449 H   0  0  0  0  0  0  0  0  0  0  0  0
  156.2911  137.5720  161.2490 H   0  0  0  0  0  0  0  0  0  0  0  0
  155.3340  137.8953  159.0090 H   0  0  0  0  0  0  0  0  0  0  0  0
  152.5594  141.9321  158.4109 H   0  0  0  0  0  0  0  0  0  0  0  0
  152.3908  144.7157  160.5007 H   0  0  0  0  0  0  0  0  0  0  0  0
  150.9347  143.7707  160.8497 H   0  0  0  0  0  0  0  0  0  0  0  0
  151.5355  143.8949  159.1968 H   0  0  0  0  0  0  0  0  0  0  0  0
  153.4138  142.8340  163.8505 H   0  0  0  0  0  0  0  0  0  0  0  0
  151.8738  143.2837  163.1205 H   0  0  0  0  0  0  0  0  0  0  0  0
  153.3374  144.2067  162.7471 H   0  0  0  0  0  0  0  0  0  0  0  0
  154.4252  140.9148  162.9228 H   0  0  0  0  0  0  0  0  0  0  0  0
  157.4547  138.2165  164.4055 H   0  0  0  0  0  0  0  0  0  0  0  0
  1  2  1  0  0  0  0
  1 25  1  0  0  0  0
  1 26  1  0  0  0  0
  1 27  1  0  0  0  0
  2 24  1  0  0  0  0
  2  3  2  0  0  0  0
  3  4  1  0  0  0  0
  4  5  2  0  0  0  0
  4 28  1  0  0  0  0
  5  6  1  0  0  0  0
  5 29  1  0  0  0  0
  6  7  1  0  0  0  0
  6 24  2  0  0  0  0
  7  8  1  0  0  0  0
  7 30  1  0  0  0  0
  7 31  1  0  0  0  0
  8  9  1  0  0  0  0
  8 32  1  0  0  0  0
  8 48  1  0  0  0  0
  9 10  1  0  0  0  0
  9 33  1  0  0  0  0
  9 34  1  0  0  0  0
 10 11  1  0  0  0  0
 10 12  1  0  0  0  0
 10 35  1  0  0  0  0
 11 36  1  0  0  0  0
 12 13  1  0  0  0  0
 12 37  1  0  0  0  0
 12 38  1  0  0  0  0
 13 23  1  0  0  0  0
 13 14  1  0  0  0  0
 14 15  2  0  0  0  0
 14 39  1  0  0  0  0
 15 16  1  0  0  0  0
 16 23  2  0  0  0  0
 16 17  1  0  0  0  0
 17 18  2  0  0  0  0
 17 40  1  0  0  0  0
 18 19  1  0  0  0  0
 18 20  1  0  0  0  0
 19 41  1  0  0  0  0
 19 42  1  0  0  0  0
 19 43  1  0  0  0  0
 20 21  1  0  0  0  0
 20 22  2  0  0  0  0
 21 44  1  0  0  0  0
 21 45  1  0  0  0  0
 21 46  1  0  0  0  0
 22 23  1  0  0  0  0
 22 47  1  0  0  0  0
M  CHG  1   8   1
M  END
> <s_m_source_file>
AV-unprocessed.smi

> <i_m_source_file_index>
1875

> <i_lp_mmshare_version>
43012

> <i_f3d_flags>
0

> <s_epik_input>
W0NIM11jMW5bY0hdW2NIXWMobjEpW0NIMl1bTkhdW0NIMl1bQ0BIXShbT0hdKVtDSDJdbihbY0hdbjIpYyhjMjMpW2NIXWMoW0NIM10pYyhbY0hdMylbQ0gzXQ==

> <s_epik_cmdline>
J2VwaWtfcHl0aG9uJywgJy1waCcsICc3LjAnLCAnLXRuJywgJzgnLCAnLW1hJywgJzIwMCcsICctbWV0YWxfYmluZGluZycsICctaW1hZScsICc8aW5maWxlLm1hZT4nLCAnLW9tYWUnLCAnPG91dGZpbGUubWFlPic=

> <r_lp_tautomer_probability>
1

> <r_epik_Ionization_Penalty>
0.192455

> <r_epik_Ionization_Penalty_Charging>
0.102343

> <r_epik_Ionization_Penalty_Neutral>
0.0901122

> <r_epik_State_Penalty>
0.175389

> <r_epik_Charging_Adjusted_Penalty>
0.277732

> <i_epik_Tot_Q>
1

> <i_epik_Tot_abs_Q>
1

> <r_epik_Metal_State_Penalty>
0.167659

> <b_epik_Metal_Only>
0

> <s_epik_Chemistry_Notes>
This compound contains an electron-poor aromatic ring that is susceptible to covalent hydrolysis at low pH, typically resulting in measured values for nitrogen ring protonation that are around two units higher than predicted values.

> <s_lp_Force_Field>
OPLS_2005

> <r_lp_Energy>
2.18652

> <b_lp_Chiralities_Consistent>
1

> <s_lp_Variant>
AV-unprocessed.smi:1875-1

> <Gold.Version>
5.8.1

> <Gold.Id.Protein>
6NUR|6NUR_protein|mol2

> <Gold.PLP.Fitness>
49.8239

> <Gold.PLP.PLP>
-48.3234

> <Gold.PLP.part.hbond>
-1.2824

> <Gold.PLP.part.metal>
0.0000

> <Gold.PLP.part.buried>
-7.0867

> <Gold.PLP.part.nonpolar>
-39.3820

> <Gold.PLP.part.repulsive>
0.1638

> <Gold.PLP.ligand.clash>
0.0000

> <Gold.PLP.ligand.torsion>
0.8099

> <Gold.PLP.Chemscore.Hbond>
1.0000

> <Gold.PLP.Chemscore.CHOScore>
0.0000

> <Gold.PLP.Chemscore.Metal>
0.0000

> <Gold.Chemscore.Hbonds>
donor molecule, donor type, donor heavy atom, donor atom, acceptor molecule, acceptor atom, score
      P1  H  7997  8008       L1    15  1.00

> <Gold.PLP.Chemscore.Internal.Correction>
0.1203

> <Gold.Rescore>
     Score         DG    S(hbond)    S(metal)    S(lipo)     H(rot)  DE(clash)    DE(int)     intcor
     15.63     -16.43       0.95        0.00     127.92       2.80       0.01       0.79       ----

> <Gold.Chemscore.Fitness>
15.6276

> <Gold.Chemscore.DG>
-16.4280

> <Gold.Chemscore.ZeroCoef>
-5.4800

> <Gold.Chemscore.Hbond>
0.9464

> <Gold.Chemscore.Metal>
0.0000

> <Gold.Chemscore.Lipo>
127.9227

> <Gold.Chemscore.Internal_Hbond>
0.0000

> <Gold.Chemscore.DEClash>
0.0103

> <Gold.Chemscore.DEInternal>
0.7901

> <Gold.Chemscore.Rot>
2.8047

> <Gold.Chemscore.Internal.Correction>
   9.000000E+99

> <Gold.Chemscore.Hbonds>
donor molecule, donor type, donor heavy atom, donor atom, acceptor molecule, acceptor atom, score
      P1  H  7997  8008       L1    15  0.63

> <Gold.Chemscore.Hbond.Weighted>
-3.1611

> <Gold.Chemscore.Metal.Weighted>
-0.0000

> <Gold.Chemscore.Lipo.Weighted>
-14.9670

> <Gold.Chemscore.Internal_Hbond.Weighted>
0.0000

> <Gold.Chemscore.DEClash.Weighted>
0.0103

> <Gold.Chemscore.DEInternal.Weighted>
0.7901

> <Gold.Chemscore.Rot.Weighted>
7.1801

> <Gold.Chemscore.Internal.Correction.Weighted>
   9.000000E+99

> <Gold.Protein.RotatedTorsions>
[ 6907 6896 6895 6894 ] final   79.48 input  -60.11 | X-H torsion
[ 7974 7965 7964 7962 ] final -168.08 input  175.53 | X-H torsion
[ 8008 7997 7996 7995 ] final -119.21 input   59.86 | X-H torsion
[ 10167 10162 10161 10158 ] final  127.41 input  -65.29 | X-H torsion
[ 10718 10713 10712 10709 ] final  -25.13 input   66.30 | X-H torsion
[ 10763 10752 10751 10750 ] final  -17.06 input  -60.55 | X-H torsion
[ 11005 11000 10999 10996 ] final  110.91 input  -57.11 | X-H torsion

> <Gold.Protein.ActiveResidues>
 VAL166  LYS551  ARG553  GLY616  TRP617  ASP618  TYR619  PRO620  LYS621  CYS622 
 ASP623  PHE694  ASN695  SER759  ASP760  ASP761  ALA762  ILE779  LEU786  VAL792 
 PHE793  MET794  SER795  GLU796  ALA797  LYS798  CYS799  TRP800  GLU811  SER814 

> <Gold.Protein.RotatedAtoms>
  152.5200  134.3504  159.9248 H   0  0  0  0  0  0  0  0  0  0  0  0  # atno 6907 bound_to 6896
  151.3455  133.3939  159.2683 H   0  0  0  0  0  0  0  0  0  0  0  0  # atno 6908 bound_to 6896
  150.9769  134.9150  159.7879 H   0  0  0  0  0  0  0  0  0  0  0  0  # atno 6909 bound_to 6896
  144.7210  140.2424  143.6290 H   0  0  0  0  0  0  0  0  0  0  0  0  # atno 7974 bound_to 7965
  155.1120  140.0397  157.2726 H   0  0  0  0  0  0  0  0  0  0  0  0  # atno 8008 bound_to 7997
  154.6678  140.2605  155.7014 H   0  0  0  0  0  0  0  0  0  0  0  0  # atno 8009 bound_to 7997
  156.2646  140.2804  156.1175 H   0  0  0  0  0  0  0  0  0  0  0  0  # atno 8010 bound_to 7997
  139.5580  144.6862  151.4126 H   0  0  0  0  0  0  0  0  0  0  0  0  # atno 10167 bound_to 10162
  156.4685  130.4519  149.6884 H   0  0  0  0  0  0  0  0  0  0  0  0  # atno 10718 bound_to 10713
  153.5680  135.7008  153.5517 H   0  0  0  0  0  0  0  0  0  0  0  0  # atno 10763 bound_to 10752
  153.3370  135.4031  155.1541 H   0  0  0  0  0  0  0  0  0  0  0  0  # atno 10764 bound_to 10752
  154.8637  135.3732  154.5201 H   0  0  0  0  0  0  0  0  0  0  0  0  # atno 10765 bound_to 10752
  139.8892  134.9495  156.6351 H   0  0  0  0  0  0  0  0  0  0  0  0  # atno 11005 bound_to 11000
  145.8307  139.2084  143.1884 LP  0  0  0  0  0  0  0  0  0  0  0  0  # atno 17320 bound_to 7965
  146.0433  140.8143  142.9818 LP  0  0  0  0  0  0  0  0  0  0  0  0  # atno 17321 bound_to 7965
  140.6856  143.7982  150.7181 LP  0  0  0  0  0  0  0  0  0  0  0  0  # atno 17342 bound_to 10162
  140.1449  143.4408  152.2169 LP  0  0  0  0  0  0  0  0  0  0  0  0  # atno 17343 bound_to 10162
  156.3643  130.7498  151.2473 LP  0  0  0  0  0  0  0  0  0  0  0  0  # atno 17370 bound_to 10713
  157.7493  131.0341  150.4303 LP  0  0  0  0  0  0  0  0  0  0  0  0  # atno 17371 bound_to 10713
  140.7636  133.8796  155.8437 LP  0  0  0  0  0  0  0  0  0  0  0  0  # atno 17394 bound_to 11000
  140.9901  134.1290  157.4416 LP  0  0  0  0  0  0  0  0  0  0  0  0  # atno 17395 bound_to 11000

$$$$
