AV-unprocessed.smi:1616|AV-procd|sdf|6483|dock6
  -GOLD-   22720 7143D 1   1.00000     0.00000
 Structure written by MMmdl.
 38 39  0  0  0  0  0  0  0  0  1 V2000
  151.9212  144.4203  160.9926 C   0  0  0  0  0  0  0  0  0  0  0  0
  152.1441  143.1967  160.1453 C   0  0  0  0  0  0  0  0  0  0  0  0
  151.5480  143.1678  158.9989 N   0  0  0  0  0  0  0  0  0  0  0  0
  151.6800  142.0887  158.1463 N   0  0  0  0  0  0  0  0  0  0  0  0
  150.9169  142.2146  156.8959 C   0  0  0  0  0  0  0  0  0  0  0  0
  149.5930  141.4365  156.9121 C   0  0  0  0  0  0  0  0  0  0  0  0
  149.5435  140.2865  157.3506 O   0  0  0  0  0  0  0  0  0  0  0  0
  148.5198  142.0940  156.4465 N   0  0  0  0  0  0  0  0  0  0  0  0
  147.1648  141.5578  156.3624 C   0  0  1  0  0  0  0  0  0  0  0  0
  146.2269  142.3699  157.2696 C   0  0  0  0  0  0  0  0  0  0  0  0
  146.6437  141.5233  154.9381 C   0  0  0  0  0  0  0  0  0  0  0  0
  147.5893  141.5477  153.7610 C   0  0  0  0  0  0  0  0  0  0  0  0
  146.7122  142.7447  154.0532 C   0  0  0  0  0  0  0  0  0  0  0  0
  152.4326  140.9808  158.4068 C   0  0  0  0  0  0  0  0  0  0  0  0
  152.5257  140.0422  157.6141 O   0  0  0  0  0  0  0  0  0  0  0  0
  153.1067  141.0215  159.7063 C   0  0  0  0  0  0  0  0  0  0  0  0
  153.9014  139.8782  160.0205 C   0  0  0  0  0  0  0  0  0  0  0  0
  154.5376  138.9506  160.2942 N   0  0  0  0  0  0  0  0  0  0  0  0
  152.9823  142.0739  160.5532 C   0  0  0  0  0  0  0  0  0  0  0  0
  153.6599  142.1643  161.9138 C   0  0  0  0  0  0  0  0  0  0  0  0
  152.8600  144.9460  161.1673 H   0  0  0  0  0  0  0  0  0  0  0  0
  151.4992  144.1493  161.9606 H   0  0  0  0  0  0  0  0  0  0  0  0
  151.2332  145.1228  160.5197 H   0  0  0  0  0  0  0  0  0  0  0  0
  150.6880  143.2631  156.6973 H   0  0  0  0  0  0  0  0  0  0  0  0
  151.5270  141.8844  156.0529 H   0  0  0  0  0  0  0  0  0  0  0  0
  148.6541  143.0371  156.1119 H   0  0  0  0  0  0  0  0  0  0  0  0
  147.1753  140.5285  156.7261 H   0  0  0  0  0  0  0  0  0  0  0  0
  145.2140  141.9669  157.2463 H   0  0  0  0  0  0  0  0  0  0  0  0
  146.1766  143.4132  156.9560 H   0  0  0  0  0  0  0  0  0  0  0  0
  146.5619  142.3496  158.3072 H   0  0  0  0  0  0  0  0  0  0  0  0
  145.7607  140.8988  154.8142 H   0  0  0  0  0  0  0  0  0  0  0  0
  148.6537  141.6440  153.9662 H   0  0  0  0  0  0  0  0  0  0  0  0
  147.3340  140.9355  152.8986 H   0  0  0  0  0  0  0  0  0  0  0  0
  145.8722  142.9291  153.3868 H   0  0  0  0  0  0  0  0  0  0  0  0
  147.1941  143.6350  154.4532 H   0  0  0  0  0  0  0  0  0  0  0  0
  154.3131  141.3139  162.1070 H   0  0  0  0  0  0  0  0  0  0  0  0
  152.9145  142.1942  162.7089 H   0  0  0  0  0  0  0  0  0  0  0  0
  154.2711  143.0648  161.9808 H   0  0  0  0  0  0  0  0  0  0  0  0
  1  2  1  0  0  0  0
  1 21  1  0  0  0  0
  1 22  1  0  0  0  0
  1 23  1  0  0  0  0
  2 19  1  0  0  0  0
  2  3  2  0  0  0  0
  3  4  1  0  0  0  0
  4  5  1  0  0  0  0
  4 14  1  0  0  0  0
  5  6  1  0  0  0  0
  5 24  1  0  0  0  0
  5 25  1  0  0  0  0
  6  7  2  0  0  0  0
  6  8  1  0  0  0  0
  8  9  1  0  0  0  0
  8 26  1  0  0  0  0
  9 10  1  0  0  0  0
  9 11  1  0  0  0  0
  9 27  1  0  0  0  0
 10 28  1  0  0  0  0
 10 29  1  0  0  0  0
 10 30  1  0  0  0  0
 11 13  1  0  0  0  0
 11 12  1  0  0  0  0
 11 31  1  0  0  0  0
 12 13  1  0  0  0  0
 12 32  1  0  0  0  0
 12 33  1  0  0  0  0
 13 34  1  0  0  0  0
 13 35  1  0  0  0  0
 14 15  2  0  0  0  0
 14 16  1  0  0  0  0
 16 17  1  0  0  0  0
 16 19  2  0  0  0  0
 17 18  3  0  0  0  0
 19 20  1  0  0  0  0
 20 36  1  0  0  0  0
 20 37  1  0  0  0  0
 20 38  1  0  0  0  0
M  END
> <s_m_source_file>
AV-unprocessed.smi

> <i_m_source_file_index>
1616

> <i_lp_mmshare_version>
43012

> <i_f3d_flags>
0

> <s_epik_input>
TiNDYyhjMVtDSDNdKWMoPU8pbihuYzFbQ0gzXSlbQ0gyXUMoPU8pW05IXVtDQEhdKFtDSDNdKVtDSF0yW0NIMl1bQ0gyXTI=

> <s_epik_cmdline>
J2VwaWtfcHl0aG9uJywgJy1waCcsICc3LjAnLCAnLXRuJywgJzgnLCAnLW1hJywgJzIwMCcsICctbWV0YWxfYmluZGluZycsICctaW1hZScsICc8aW5maWxlLm1hZT4nLCAnLW9tYWUnLCAnPG91dGZpbGUubWFlPic=

> <r_lp_tautomer_probability>
1

> <r_epik_Ionization_Penalty>
1.93246e-08

> <r_epik_Ionization_Penalty_Charging>
2.27031e-11

> <r_epik_Ionization_Penalty_Neutral>
1.93019e-08

> <r_epik_State_Penalty>
-0

> <r_epik_Charging_Adjusted_Penalty>
2.27031e-11

> <i_epik_Tot_Q>
0

> <i_epik_Tot_abs_Q>
0

> <r_epik_Metal_State_Penalty>
-0

> <b_epik_Metal_Only>
0

> <s_lp_Force_Field>
OPLS_2005

> <r_lp_Energy>
27.6916

> <b_lp_Chiralities_Consistent>
1

> <s_lp_Variant>
AV-unprocessed.smi:1616-2

> <Gold.Version>
5.8.1

> <Gold.Id.Protein>
6NUR|6NUR_protein|mol2

> <Gold.PLP.Fitness>
45.5532

> <Gold.PLP.PLP>
-40.6034

> <Gold.PLP.part.hbond>
-2.0000

> <Gold.PLP.part.metal>
0.0000

> <Gold.PLP.part.buried>
-6.1381

> <Gold.PLP.part.nonpolar>
-32.2524

> <Gold.PLP.part.repulsive>
0.0354

> <Gold.PLP.ligand.clash>
0.0000

> <Gold.PLP.ligand.torsion>
1.0493

> <Gold.PLP.Chemscore.Hbond>
1.9913

> <Gold.PLP.Chemscore.CHOScore>
0.0000

> <Gold.PLP.Chemscore.Metal>
0.0000

> <Gold.Chemscore.Hbonds>
donor molecule, donor type, donor heavy atom, donor atom, acceptor molecule, acceptor atom, score
      L1  H     8    26       P1  8028  1.00
      P1  H  7997  8010       L1    15  0.89

> <Gold.PLP.Chemscore.Internal.Correction>
1.0746

> <Gold.Rescore>
     Score         DG    S(hbond)    S(metal)    S(lipo)     H(rot)  DE(clash)    DE(int)     intcor
     16.20     -17.49       1.88        0.00      85.76       1.68       0.07       1.22       ----

> <Gold.Chemscore.Fitness>
16.1974

> <Gold.Chemscore.DG>
-17.4915

> <Gold.Chemscore.ZeroCoef>
-5.4800

> <Gold.Chemscore.Hbond>
1.8805

> <Gold.Chemscore.Metal>
0.0000

> <Gold.Chemscore.Lipo>
85.7579

> <Gold.Chemscore.Internal_Hbond>
0.0000

> <Gold.Chemscore.DEClash>
0.0737

> <Gold.Chemscore.DEInternal>
1.2204

> <Gold.Chemscore.Rot>
1.6809

> <Gold.Chemscore.Internal.Correction>
   9.000000E+99

> <Gold.Chemscore.Hbonds>
donor molecule, donor type, donor heavy atom, donor atom, acceptor molecule, acceptor atom, score
      L1  H     8    26       P1  8028  0.98
      P1  H  7997  8010       L1    15  0.55

> <Gold.Chemscore.Hbond.Weighted>
-6.2808

> <Gold.Chemscore.Metal.Weighted>
-0.0000

> <Gold.Chemscore.Lipo.Weighted>
-10.0337

> <Gold.Chemscore.Internal_Hbond.Weighted>
0.0000

> <Gold.Chemscore.DEClash.Weighted>
0.0737

> <Gold.Chemscore.DEInternal.Weighted>
1.2204

> <Gold.Chemscore.Rot.Weighted>
4.3030

> <Gold.Chemscore.Internal.Correction.Weighted>
   9.000000E+99

> <Gold.Protein.RotatedTorsions>
[ 6907 6896 6895 6894 ] final  -20.41 input  -60.11 | X-H torsion
[ 7974 7965 7964 7962 ] final  157.77 input  175.53 | X-H torsion
[ 8008 7997 7996 7995 ] final   49.75 input   59.86 | X-H torsion
[ 10167 10162 10161 10158 ] final   51.15 input  -65.29 | X-H torsion
[ 10718 10713 10712 10709 ] final  -97.56 input   66.30 | X-H torsion
[ 10763 10752 10751 10750 ] final   61.54 input  -60.55 | X-H torsion
[ 11005 11000 10999 10996 ] final -172.46 input  -57.11 | X-H torsion

> <Gold.Protein.ActiveResidues>
 VAL166  LYS551  ARG553  GLY616  TRP617  ASP618  TYR619  PRO620  LYS621  CYS622 
 ASP623  PHE694  ASN695  SER759  ASP760  ASP761  ALA762  ILE779  LEU786  VAL792 
 PHE793  MET794  SER795  GLU796  ALA797  LYS798  CYS799  TRP800  GLU811  SER814 

> <Gold.Protein.RotatedAtoms>
  151.2486  135.0614  159.9052 H   0  0  0  0  0  0  0  0  0  0  0  0  # atno 6907 bound_to 6896
  152.5383  134.0356  159.8055 H   0  0  0  0  0  0  0  0  0  0  0  0  # atno 6908 bound_to 6896
  151.0561  133.5534  159.2669 H   0  0  0  0  0  0  0  0  0  0  0  0  # atno 6909 bound_to 6896
  144.7884  139.7386  143.6231 H   0  0  0  0  0  0  0  0  0  0  0  0  # atno 7974 bound_to 7965
  155.4073  140.3440  155.4261 H   0  0  0  0  0  0  0  0  0  0  0  0  # atno 8008 bound_to 7997
  156.1469  140.1559  156.8864 H   0  0  0  0  0  0  0  0  0  0  0  0  # atno 8009 bound_to 7997
  154.5018  140.0812  156.7795 H   0  0  0  0  0  0  0  0  0  0  0  0  # atno 8010 bound_to 7997
  140.2649  144.3331  150.6307 H   0  0  0  0  0  0  0  0  0  0  0  0  # atno 10167 bound_to 10162
  156.0086  130.5200  150.6393 H   0  0  0  0  0  0  0  0  0  0  0  0  # atno 10718 bound_to 10713
  152.9954  135.5497  154.6051 H   0  0  0  0  0  0  0  0  0  0  0  0  # atno 10763 bound_to 10752
  154.5384  135.2818  155.1120 H   0  0  0  0  0  0  0  0  0  0  0  0  # atno 10764 bound_to 10752
  154.2407  135.6417  153.5259 H   0  0  0  0  0  0  0  0  0  0  0  0  # atno 10765 bound_to 10752
  140.4967  134.5933  157.4973 H   0  0  0  0  0  0  0  0  0  0  0  0  # atno 11005 bound_to 11000
  146.2126  139.5492  142.9671 LP  0  0  0  0  0  0  0  0  0  0  0  0  # atno 17320 bound_to 7965
  145.5860  141.0376  143.2096 LP  0  0  0  0  0  0  0  0  0  0  0  0  # atno 17321 bound_to 7965
  140.5936  143.2167  151.7206 LP  0  0  0  0  0  0  0  0  0  0  0  0  # atno 17342 bound_to 10162
  139.5006  144.3901  152.0288 LP  0  0  0  0  0  0  0  0  0  0  0  0  # atno 17343 bound_to 10162
  157.4176  131.0832  151.1162 LP  0  0  0  0  0  0  0  0  0  0  0  0  # atno 17370 bound_to 10713
  157.1774  130.6294  149.5660 LP  0  0  0  0  0  0  0  0  0  0  0  0  # atno 17371 bound_to 10713
  139.9737  134.7250  155.9991 LP  0  0  0  0  0  0  0  0  0  0  0  0  # atno 17394 bound_to 11000
  141.1456  133.6556  156.3859 LP  0  0  0  0  0  0  0  0  0  0  0  0  # atno 17395 bound_to 11000

$$$$
