AV-unprocessed.smi:261|AV-procd|sdf|1988|dock10
  -GOLD-   2262021173D 1   1.00000     0.00000
 Structure written by MMmdl.
 51 54  0  0  0  0  0  0  0  0  1 V2000
  151.8698  144.6834  158.8359 C   0  0  0  0  0  0  0  0  0  0  0  0
  151.4598  143.3495  159.0890 O   0  0  0  0  0  0  0  0  0  0  0  0
  151.3551  142.5563  157.9157 C   0  0  2  0  0  0  0  0  0  0  0  0
  149.9459  142.0070  157.6736 C   0  0  0  0  0  0  0  0  0  0  0  0
  150.1694  140.7471  156.8202 C   0  0  1  0  0  0  0  0  0  0  0  0
  150.1254  141.0612  155.3140 C   0  0  0  0  0  0  0  0  0  0  0  0
  149.5978  142.2358  154.9615 N   0  0  0  0  0  0  0  0  0  0  0  0
  150.5694  140.2700  154.4831 O   0  0  0  0  0  0  0  0  0  0  0  0
  151.4925  140.2827  157.2454 N   0  0  0  0  0  0  0  0  0  0  0  0
  151.9141  138.9939  157.1201 C   0  0  0  0  0  0  0  0  0  0  0  0
  153.1821  138.6892  157.5059 N   0  0  0  0  0  0  0  0  0  0  0  0
  153.6465  137.4412  157.4080 C   0  0  0  0  0  0  0  0  0  0  0  0
  153.0224  136.3536  156.9565 N   0  0  0  0  0  0  0  0  0  0  0  0
  151.7500  136.6446  156.5645 C   0  0  0  0  0  0  0  0  0  0  0  0
  151.1188  137.9223  156.6106 C   0  0  0  0  0  0  0  0  0  0  0  0
  149.8192  137.8108  156.1255 N   0  0  0  0  0  0  0  0  0  0  0  0
  149.6923  136.5511  155.8122 C   0  0  0  0  0  0  0  0  0  0  0  0
  150.8077  135.7796  156.0382 N   0  0  0  0  0  0  0  0  0  0  0  0
  150.9513  134.3587  155.7779 C   0  0  0  0  0  0  0  0  0  0  0  0
  149.6996  133.7299  155.1290 C   0  0  1  0  0  0  0  0  0  0  0  0
  149.7965  133.9473  153.7356 O   0  0  0  0  0  0  0  0  0  0  0  0
  149.5344  132.2169  155.3945 C   0  0  2  0  0  0  0  0  0  0  0  0
  150.8015  131.3905  155.1657 C   0  0  0  0  0  0  0  0  0  0  0  0
  150.2718  129.9884  154.9153 C   0  0  0  0  0  0  0  0  0  0  0  0
  148.8053  130.2109  154.5381 C   0  0  0  0  0  0  0  0  0  0  0  0
  148.6512  131.6206  154.4560 O   0  0  0  0  0  0  0  0  0  0  0  0
  152.1890  141.2809  158.0459 C   0  0  0  0  0  0  0  0  0  0  0  0
  151.6943  143.1141  157.0405 H   0  0  0  0  0  0  0  0  0  0  0  0
  149.4008  140.0106  157.0616 H   0  0  0  0  0  0  0  0  0  0  0  0
  151.9705  145.2184  159.7801 H   0  0  0  0  0  0  0  0  0  0  0  0
  151.1402  145.2182  158.2273 H   0  0  0  0  0  0  0  0  0  0  0  0
  152.8358  144.7110  158.3304 H   0  0  0  0  0  0  0  0  0  0  0  0
  149.4946  141.7222  158.6252 H   0  0  0  0  0  0  0  0  0  0  0  0
  149.2839  142.7368  157.2057 H   0  0  0  0  0  0  0  0  0  0  0  0
  149.5498  142.4946  153.9869 H   0  0  0  0  0  0  0  0  0  0  0  0
  149.2538  142.8634  155.6735 H   0  0  0  0  0  0  0  0  0  0  0  0
  154.6639  137.2933  157.7387 H   0  0  0  0  0  0  0  0  0  0  0  0
  148.7787  136.1506  155.3979 H   0  0  0  0  0  0  0  0  0  0  0  0
  151.8201  134.2207  155.1329 H   0  0  0  0  0  0  0  0  0  0  0  0
  151.1802  133.8581  156.7199 H   0  0  0  0  0  0  0  0  0  0  0  0
  148.8088  134.2532  155.4782 H   0  0  0  0  0  0  0  0  0  0  0  0
  149.3785  134.7695  153.5304 H   0  0  0  0  0  0  0  0  0  0  0  0
  149.1554  132.0445  156.4038 H   0  0  0  0  0  0  0  0  0  0  0  0
  151.3257  131.7466  154.2777 H   0  0  0  0  0  0  0  0  0  0  0  0
  151.4945  131.4360  156.0061 H   0  0  0  0  0  0  0  0  0  0  0  0
  150.8291  129.4911  154.1206 H   0  0  0  0  0  0  0  0  0  0  0  0
  150.3440  129.3732  155.8129 H   0  0  0  0  0  0  0  0  0  0  0  0
  148.5394  129.7374  153.5928 H   0  0  0  0  0  0  0  0  0  0  0  0
  148.1447  129.8207  155.3133 H   0  0  0  0  0  0  0  0  0  0  0  0
  153.2090  141.4475  157.6986 H   0  0  0  0  0  0  0  0  0  0  0  0
  152.2224  140.9443  159.0833 H   0  0  0  0  0  0  0  0  0  0  0  0
  1  2  1  0  0  0  0
  1 30  1  0  0  0  0
  1 31  1  0  0  0  0
  1 32  1  0  0  0  0
  2  3  1  0  0  0  0
  3 28  1  0  0  0  0
  3 27  1  0  0  0  0
  3  4  1  0  0  0  0
  4  5  1  0  0  0  0
  4 33  1  0  0  0  0
  4 34  1  0  0  0  0
  5 29  1  0  0  0  0
  5  6  1  0  0  0  0
  5  9  1  0  0  0  0
  6  7  1  0  0  0  0
  6  8  2  0  0  0  0
  7 35  1  0  0  0  0
  7 36  1  0  0  0  0
  9 10  1  0  0  0  0
  9 27  1  0  0  0  0
 10 15  1  0  0  0  0
 10 11  2  0  0  0  0
 11 12  1  0  0  0  0
 12 13  2  0  0  0  0
 12 37  1  0  0  0  0
 13 14  1  0  0  0  0
 14 18  1  0  0  0  0
 14 15  2  0  0  0  0
 15 16  1  0  0  0  0
 16 17  2  0  0  0  0
 17 18  1  0  0  0  0
 17 38  1  0  0  0  0
 18 19  1  0  0  0  0
 19 20  1  0  0  0  0
 19 39  1  0  0  0  0
 19 40  1  0  0  0  0
 20 21  1  0  0  0  0
 20 22  1  0  0  0  0
 20 41  1  0  0  0  0
 21 42  1  0  0  0  0
 22 26  1  0  0  0  0
 22 23  1  0  0  0  0
 22 43  1  0  0  0  0
 23 24  1  0  0  0  0
 23 44  1  0  0  0  0
 23 45  1  0  0  0  0
 24 25  1  0  0  0  0
 24 46  1  0  0  0  0
 24 47  1  0  0  0  0
 25 26  1  0  0  0  0
 25 48  1  0  0  0  0
 25 49  1  0  0  0  0
 27 50  1  0  0  0  0
 27 51  1  0  0  0  0
M  END
> <s_m_source_file>
AV-unprocessed.smi

> <i_m_source_file_index>
261

> <i_lp_mmshare_version>
43012

> <i_f3d_flags>
0

> <s_epik_input>
W0NIM11PW0NASF0xW0NIMl1bQ0BASF0oQyg9TylbTkgyXSlOKFtDSDJdMSljKG5bY0hdbjIpYyhjMjMpbltjSF1uM1tDSDJdW0NASF0oW09IXSlbQ0BASF00W0NIMl1bQ0gyXVtDSDJdTzQ=

> <s_epik_cmdline>
J2VwaWtfcHl0aG9uJywgJy1waCcsICc3LjAnLCAnLXRuJywgJzgnLCAnLW1hJywgJzIwMCcsICctbWV0YWxfYmluZGluZycsICctaW1hZScsICc8aW5maWxlLm1hZT4nLCAnLW9tYWUnLCAnPG91dGZpbGUubWFlPic=

> <r_lp_tautomer_probability>
1

> <r_epik_Ionization_Penalty>
0.000713824

> <r_epik_Ionization_Penalty_Charging>
0

> <r_epik_Ionization_Penalty_Neutral>
0.000713824

> <r_epik_State_Penalty>
0.000402132

> <r_epik_Charging_Adjusted_Penalty>
0.000402132

> <i_epik_Tot_Q>
0

> <i_epik_Tot_abs_Q>
0

> <r_epik_Metal_State_Penalty>
-0

> <b_epik_Metal_Only>
0

> <s_lp_Force_Field>
OPLS_2005

> <r_lp_Energy>
43.323

> <b_lp_Chiralities_Consistent>
1

> <s_lp_Variant>
AV-unprocessed.smi:261-6

> <Gold.Version>
5.8.1

> <Gold.Id.Protein>
6NUR|6NUR_protein|mol2

> <Gold.PLP.Fitness>
46.4755

> <Gold.PLP.PLP>
-37.1366

> <Gold.PLP.part.hbond>
-5.0767

> <Gold.PLP.part.metal>
0.0000

> <Gold.PLP.part.buried>
-5.2918

> <Gold.PLP.part.nonpolar>
-26.1228

> <Gold.PLP.part.repulsive>
0.4414

> <Gold.PLP.ligand.clash>
0.2204

> <Gold.PLP.ligand.torsion>
1.6507

> <Gold.PLP.Chemscore.Hbond>
4.2420

> <Gold.PLP.Chemscore.CHOScore>
0.0000

> <Gold.PLP.Chemscore.Metal>
0.0000

> <Gold.Chemscore.Hbonds>
donor molecule, donor type, donor heavy atom, donor atom, acceptor molecule, acceptor atom, score
      L1  H     7    36       P1  8028  0.64
      L1  H    21    42       P1  7948  0.28
      P1  H  7989  7998       L1     8  1.00
      P1  H  7997  8009       L1    11  1.00
      P1  H 10752 10763       L1    13  0.95

> <Gold.PLP.Chemscore.Internal.Correction>
0.1348

> <Gold.Rescore>
     Score         DG    S(hbond)    S(metal)    S(lipo)     H(rot)  DE(clash)    DE(int)     intcor
     13.87     -16.64       3.23        0.00      72.86       3.18       0.06       2.71       ----

> <Gold.Chemscore.Fitness>
13.8665

> <Gold.Chemscore.DG>
-16.6353

> <Gold.Chemscore.ZeroCoef>
-5.4800

> <Gold.Chemscore.Hbond>
3.2273

> <Gold.Chemscore.Metal>
0.0000

> <Gold.Chemscore.Lipo>
72.8622

> <Gold.Chemscore.Internal_Hbond>
0.0000

> <Gold.Chemscore.DEClash>
0.0582

> <Gold.Chemscore.DEInternal>
2.7106

> <Gold.Chemscore.Rot>
3.1831

> <Gold.Chemscore.Internal.Correction>
   9.000000E+99

> <Gold.Chemscore.Hbonds>
donor molecule, donor type, donor heavy atom, donor atom, acceptor molecule, acceptor atom, score
      L1  H     7    36       P1  8028  0.64
      L1  H    21    42       P1  7948  0.02
      P1  H  7989  7998       L1     8  0.87
      P1  H  7997  8009       L1    11  0.69
      P1  H 10752 10763       L1    13  0.21

> <Gold.Chemscore.Hbond.Weighted>
-10.7791

> <Gold.Chemscore.Metal.Weighted>
-0.0000

> <Gold.Chemscore.Lipo.Weighted>
-8.5249

> <Gold.Chemscore.Internal_Hbond.Weighted>
0.0000

> <Gold.Chemscore.DEClash.Weighted>
0.0582

> <Gold.Chemscore.DEInternal.Weighted>
2.7106

> <Gold.Chemscore.Rot.Weighted>
8.1486

> <Gold.Chemscore.Internal.Correction.Weighted>
   9.000000E+99

> <Gold.Protein.RotatedTorsions>
[ 6907 6896 6895 6894 ] final  139.83 input  -60.11 | X-H torsion
[ 7974 7965 7964 7962 ] final -162.31 input  175.53 | X-H torsion
[ 8008 7997 7996 7995 ] final  158.40 input   59.86 | X-H torsion
[ 10167 10162 10161 10158 ] final  -51.41 input  -65.29 | X-H torsion
[ 10718 10713 10712 10709 ] final -155.74 input   66.30 | X-H torsion
[ 10763 10752 10751 10750 ] final  122.46 input  -60.55 | X-H torsion
[ 11005 11000 10999 10996 ] final -153.81 input  -57.11 | X-H torsion

> <Gold.Protein.ActiveResidues>
 VAL166  LYS551  ARG553  GLY616  TRP617  ASP618  TYR619  PRO620  LYS621  CYS622 
 ASP623  PHE694  ASN695  SER759  ASP760  ASP761  ALA762  ILE779  LEU786  VAL792 
 PHE793  MET794  SER795  GLU796  ALA797  LYS798  CYS799  TRP800  GLU811  SER814 

> <Gold.Protein.RotatedAtoms>
  152.2503  133.5209  159.5321 H   0  0  0  0  0  0  0  0  0  0  0  0  # atno 6907 bound_to 6896
  150.7091  134.0969  159.3961 H   0  0  0  0  0  0  0  0  0  0  0  0  # atno 6908 bound_to 6896
  151.8889  135.0424  160.0546 H   0  0  0  0  0  0  0  0  0  0  0  0  # atno 6909 bound_to 6896
  144.7362  140.3272  143.6160 H   0  0  0  0  0  0  0  0  0  0  0  0  # atno 7974 bound_to 7965
  156.2305  140.1859  156.7254 H   0  0  0  0  0  0  0  0  0  0  0  0  # atno 8008 bound_to 7997
  154.6014  140.0635  156.9401 H   0  0  0  0  0  0  0  0  0  0  0  0  # atno 8009 bound_to 7997
  155.2167  140.3304  155.4323 H   0  0  0  0  0  0  0  0  0  0  0  0  # atno 8010 bound_to 7997
  140.6589  143.2621  151.4500 H   0  0  0  0  0  0  0  0  0  0  0  0  # atno 10167 bound_to 10162
  156.5170  130.8461  151.2668 H   0  0  0  0  0  0  0  0  0  0  0  0  # atno 10718 bound_to 10713
  153.6302  135.3397  155.3039 H   0  0  0  0  0  0  0  0  0  0  0  0  # atno 10763 bound_to 10752
  154.8582  135.4294  154.2114 H   0  0  0  0  0  0  0  0  0  0  0  0  # atno 10764 bound_to 10752
  153.3008  135.7024  153.7278 H   0  0  0  0  0  0  0  0  0  0  0  0  # atno 10765 bound_to 10752
  140.7042  134.3904  157.5206 H   0  0  0  0  0  0  0  0  0  0  0  0  # atno 11005 bound_to 11000
  145.7509  139.1793  143.2322 LP  0  0  0  0  0  0  0  0  0  0  0  0  # atno 17320 bound_to 7965
  146.1062  140.7485  142.9525 LP  0  0  0  0  0  0  0  0  0  0  0  0  # atno 17321 bound_to 7965
  139.5818  144.1692  152.1978 LP  0  0  0  0  0  0  0  0  0  0  0  0  # atno 17342 bound_to 10162
  140.1019  144.5532  150.6983 LP  0  0  0  0  0  0  0  0  0  0  0  0  # atno 17343 bound_to 10162
  157.7442  130.9930  150.2657 LP  0  0  0  0  0  0  0  0  0  0  0  0  # atno 17370 bound_to 10713
  156.3186  130.3782  149.7596 LP  0  0  0  0  0  0  0  0  0  0  0  0  # atno 17371 bound_to 10713
  139.8889  134.8845  156.2451 LP  0  0  0  0  0  0  0  0  0  0  0  0  # atno 17394 bound_to 11000
  141.0139  133.7080  156.1156 LP  0  0  0  0  0  0  0  0  0  0  0  0  # atno 17395 bound_to 11000

$$$$
