AV-unprocessed.smi:2331|AV-procd|sdf|9317|dock7
  -GOLD-   2272012533D 1   1.00000     0.00000
 Structure written by MMmdl.
 50 51  0  0  0  0  0  0  0  0  2 V2000
  145.6659  132.1188  156.5526 C   0  0  0  0  0  0  0  0  0  0  0  0
  146.2436  133.3908  155.8971 C   0  0  0  0  0  0  0  0  0  0  0  0
  145.0925  134.4225  155.8100 C   0  0  0  0  0  0  0  0  0  0  0  0
  147.3485  133.9747  156.8156 C   0  0  0  0  0  0  0  0  0  0  0  0
  146.9463  133.9685  158.2193 N   0  0  0  0  0  0  0  0  0  0  0  0
  147.6771  134.4255  159.2484 C   0  0  0  0  0  0  0  0  0  0  0  0
  148.7832  134.9450  159.0995 O   0  0  0  0  0  0  0  0  0  0  0  0
  147.0498  134.3281  160.4453 N   0  0  0  0  0  0  0  0  0  0  0  0
  145.9848  133.3533  160.7237 C   0  0  0  0  0  0  0  0  0  0  0  0
  145.8173  133.2995  162.2406 C   0  0  0  0  0  0  0  0  0  0  0  0
  147.1146  133.8797  162.7850 C   0  0  0  0  0  0  0  0  0  0  0  0
  147.5906  134.8689  161.7054 C   0  0  2  0  0  0  0  0  0  0  0  0
  147.2189  136.3685  161.9768 C   0  0  0  0  0  0  0  0  0  0  0  0
  145.6891  136.5577  161.9491 C   0  0  0  0  0  0  0  0  0  0  0  0
  147.7631  136.9370  163.3026 C   0  0  0  0  0  0  0  0  0  0  0  0
  147.7365  137.1889  160.9464 O   0  0  0  0  0  0  0  0  0  0  0  0
  146.8291  133.0376  154.5148 C   0  0  0  0  0  0  0  0  0  0  0  0
  146.0450  132.4822  153.4702 C   0  0  0  0  0  0  0  0  0  0  0  0
  146.6386  132.1989  152.2233 C   0  0  0  0  0  0  0  0  0  0  0  0
  147.9482  132.4562  152.0256 N   0  3  0  0  0  0  0  0  0  0  0  0
  148.7386  132.9829  152.9835 C   0  0  0  0  0  0  0  0  0  0  0  0
  148.1991  133.2862  154.2494 C   0  0  0  0  0  0  0  0  0  0  0  0
  145.2216  132.3400  157.5239 H   0  0  0  0  0  0  0  0  0  0  0  0
  146.4288  131.3580  156.7177 H   0  0  0  0  0  0  0  0  0  0  0  0
  144.8879  131.6730  155.9317 H   0  0  0  0  0  0  0  0  0  0  0  0
  144.6919  134.6492  156.7989 H   0  0  0  0  0  0  0  0  0  0  0  0
  144.2615  134.0492  155.2103 H   0  0  0  0  0  0  0  0  0  0  0  0
  145.4201  135.3690  155.3782 H   0  0  0  0  0  0  0  0  0  0  0  0
  148.2782  133.4193  156.6782 H   0  0  0  0  0  0  0  0  0  0  0  0
  147.5704  135.0067  156.5424 H   0  0  0  0  0  0  0  0  0  0  0  0
  146.0378  133.5823  158.4297 H   0  0  0  0  0  0  0  0  0  0  0  0
  145.0504  133.6344  160.2356 H   0  0  0  0  0  0  0  0  0  0  0  0
  146.2778  132.3696  160.3522 H   0  0  0  0  0  0  0  0  0  0  0  0
  144.9753  133.9234  162.5412 H   0  0  0  0  0  0  0  0  0  0  0  0
  145.6240  132.2908  162.6065 H   0  0  0  0  0  0  0  0  0  0  0  0
  146.9879  134.3182  163.7741 H   0  0  0  0  0  0  0  0  0  0  0  0
  147.8474  133.0774  162.8826 H   0  0  0  0  0  0  0  0  0  0  0  0
  148.6799  134.8070  161.6681 H   0  0  0  0  0  0  0  0  0  0  0  0
  145.2076  135.9659  162.7282 H   0  0  0  0  0  0  0  0  0  0  0  0
  145.2517  136.2602  160.9965 H   0  0  0  0  0  0  0  0  0  0  0  0
  145.4129  137.5997  162.1157 H   0  0  0  0  0  0  0  0  0  0  0  0
  147.4057  136.3601  164.1556 H   0  0  0  0  0  0  0  0  0  0  0  0
  147.4401  137.9679  163.4535 H   0  0  0  0  0  0  0  0  0  0  0  0
  148.8527  136.9420  163.3302 H   0  0  0  0  0  0  0  0  0  0  0  0
  148.1916  136.6400  160.3262 H   0  0  0  0  0  0  0  0  0  0  0  0
  144.9946  132.2684  153.5942 H   0  0  0  0  0  0  0  0  0  0  0  0
  146.1062  131.7782  151.3826 H   0  0  0  0  0  0  0  0  0  0  0  0
  149.7711  133.1465  152.7106 H   0  0  0  0  0  0  0  0  0  0  0  0
  148.8394  133.7131  155.0071 H   0  0  0  0  0  0  0  0  0  0  0  0
  148.3567  132.2444  151.1149 H   0  0  0  0  0  0  0  0  0  0  0  0
  1  2  1  0  0  0  0
  1 23  1  0  0  0  0
  1 24  1  0  0  0  0
  1 25  1  0  0  0  0
  2  3  1  0  0  0  0
  2  4  1  0  0  0  0
  2 17  1  0  0  0  0
  3 26  1  0  0  0  0
  3 27  1  0  0  0  0
  3 28  1  0  0  0  0
  4  5  1  0  0  0  0
  4 29  1  0  0  0  0
  4 30  1  0  0  0  0
  5  6  1  0  0  0  0
  5 31  1  0  0  0  0
  6  7  2  0  0  0  0
  6  8  1  0  0  0  0
  8 12  1  0  0  0  0
  8  9  1  0  0  0  0
  9 10  1  0  0  0  0
  9 32  1  0  0  0  0
  9 33  1  0  0  0  0
 10 11  1  0  0  0  0
 10 34  1  0  0  0  0
 10 35  1  0  0  0  0
 11 12  1  0  0  0  0
 11 36  1  0  0  0  0
 11 37  1  0  0  0  0
 12 13  1  0  0  0  0
 12 38  1  0  0  0  0
 13 14  1  0  0  0  0
 13 15  1  0  0  0  0
 13 16  1  0  0  0  0
 14 39  1  0  0  0  0
 14 40  1  0  0  0  0
 14 41  1  0  0  0  0
 15 42  1  0  0  0  0
 15 43  1  0  0  0  0
 15 44  1  0  0  0  0
 16 45  1  0  0  0  0
 17 22  1  0  0  0  0
 17 18  2  0  0  0  0
 18 19  1  0  0  0  0
 18 46  1  0  0  0  0
 19 20  2  0  0  0  0
 19 47  1  0  0  0  0
 20 21  1  0  0  0  0
 20 50  1  0  0  0  0
 21 22  2  0  0  0  0
 21 48  1  0  0  0  0
 22 49  1  0  0  0  0
M  CHG  1  20   1
M  END
> <s_m_source_file>
AV-unprocessed.smi

> <i_m_source_file_index>
2331

> <i_lp_mmshare_version>
43012

> <i_f3d_flags>
0

> <s_epik_input>
W2NIXTFbY0hdbltjSF1bY0hdYzFDKFtDSDNdKShbQ0gzXSlbQ0gyXVtOSF1DKD1PKU4yW0NIMl1bQ0gyXVtDSDJdW0NASF0yQyhbQ0gzXSkoW0NIM10pW09IXQ==

> <s_epik_cmdline>
J2VwaWtfcHl0aG9uJywgJy1waCcsICc3LjAnLCAnLXRuJywgJzgnLCAnLW1hJywgJzIwMCcsICctbWV0YWxfYmluZGluZycsICctaW1hZScsICc8aW5maWxlLm1hZT4nLCAnLW9tYWUnLCAnPG91dGZpbGUubWFlPic=

> <r_epik_Ionization_Penalty>
1.40501

> <r_epik_Ionization_Penalty_Charging>
1.40494

> <r_epik_Ionization_Penalty_Neutral>
7.00889e-05

> <r_epik_State_Penalty>
1.48741

> <r_epik_Charging_Adjusted_Penalty>
2.89235

> <i_epik_Tot_Q>
1

> <i_epik_Tot_abs_Q>
1

> <r_epik_Metal_State_Penalty>
1.54092

> <b_epik_Metal_Only>
0

> <s_lp_Force_Field>
OPLS_2005

> <r_lp_Energy>
57.0606

> <b_lp_Chiralities_Consistent>
1

> <s_lp_Variant>
AV-unprocessed.smi:2331-4

> <Gold.Version>
5.8.1

> <Gold.Id.Protein>
6NUR|6NUR_protein|mol2

> <Gold.PLP.Fitness>
43.8992

> <Gold.PLP.PLP>
-33.6047

> <Gold.PLP.part.hbond>
-4.0000

> <Gold.PLP.part.metal>
0.0000

> <Gold.PLP.part.buried>
-2.9922

> <Gold.PLP.part.nonpolar>
-27.4533

> <Gold.PLP.part.repulsive>
0.0314

> <Gold.PLP.ligand.clash>
0.0000

> <Gold.PLP.ligand.torsion>
0.3000

> <Gold.PLP.Chemscore.Hbond>
3.5440

> <Gold.PLP.Chemscore.CHOScore>
0.0000

> <Gold.PLP.Chemscore.Metal>
0.0000

> <Gold.Chemscore.Hbonds>
donor molecule, donor type, donor heavy atom, donor atom, acceptor molecule, acceptor atom, score
      L1  H    20    50       P1 10747  0.77
      P1  H  6896  6909       L1     7  1.00
      P1  H  6931  6943       L1    16  0.88
      P1  H  6934  6947       L1    16  0.88

> <Gold.PLP.Chemscore.Internal.Correction>
0.2624

> <Gold.Rescore>
     Score         DG    S(hbond)    S(metal)    S(lipo)     H(rot)  DE(clash)    DE(int)     intcor
     20.16     -20.84       3.16        0.00      85.25       2.02       0.35       0.32       ----

> <Gold.Chemscore.Fitness>
20.1622

> <Gold.Chemscore.DG>
-20.8411

> <Gold.Chemscore.ZeroCoef>
-5.4800

> <Gold.Chemscore.Hbond>
3.1605

> <Gold.Chemscore.Metal>
0.0000

> <Gold.Chemscore.Lipo>
85.2503

> <Gold.Chemscore.Internal_Hbond>
0.0000

> <Gold.Chemscore.DEClash>
0.3542

> <Gold.Chemscore.DEInternal>
0.3247

> <Gold.Chemscore.Rot>
2.0192

> <Gold.Chemscore.Internal.Correction>
   9.000000E+99

> <Gold.Chemscore.Hbonds>
donor molecule, donor type, donor heavy atom, donor atom, acceptor molecule, acceptor atom, score
      L1  H    20    50       P1 10747  0.78
      P1  H  6896  6909       L1     7  0.99
      P1  H  6931  6943       L1    16  0.21
      P1  H  6934  6947       L1    16  0.81

> <Gold.Chemscore.Hbond.Weighted>
-10.5559

> <Gold.Chemscore.Metal.Weighted>
-0.0000

> <Gold.Chemscore.Lipo.Weighted>
-9.9743

> <Gold.Chemscore.Internal_Hbond.Weighted>
0.0000

> <Gold.Chemscore.DEClash.Weighted>
0.3542

> <Gold.Chemscore.DEInternal.Weighted>
0.3247

> <Gold.Chemscore.Rot.Weighted>
5.1691

> <Gold.Chemscore.Internal.Correction.Weighted>
   9.000000E+99

> <Gold.Protein.RotatedTorsions>
[ 6907 6896 6895 6894 ] final   44.62 input  -60.11 | X-H torsion
[ 7974 7965 7964 7962 ] final   28.97 input  175.53 | X-H torsion
[ 8008 7997 7996 7995 ] final -166.23 input   59.86 | X-H torsion
[ 10167 10162 10161 10158 ] final  145.90 input  -65.29 | X-H torsion
[ 10718 10713 10712 10709 ] final -110.07 input   66.30 | X-H torsion
[ 10763 10752 10751 10750 ] final  -88.93 input  -60.55 | X-H torsion
[ 11005 11000 10999 10996 ] final  -80.27 input  -57.11 | X-H torsion

> <Gold.Protein.ActiveResidues>
 VAL166  LYS551  ARG553  GLY616  TRP617  ASP618  TYR619  PRO620  LYS621  CYS622 
 ASP623  PHE694  ASN695  SER759  ASP760  ASP761  ALA762  ILE779  LEU786  VAL792 
 PHE793  MET794  SER795  GLU796  ALA797  LYS798  CYS799  TRP800  GLU811  SER814 

> <Gold.Protein.RotatedAtoms>
  152.2347  134.8287  160.0468 H   0  0  0  0  0  0  0  0  0  0  0  0  # atno 6907 bound_to 6896
  151.9023  133.3536  159.3843 H   0  0  0  0  0  0  0  0  0  0  0  0  # atno 6908 bound_to 6896
  150.7036  134.4741  159.5483 H   0  0  0  0  0  0  0  0  0  0  0  0  # atno 6909 bound_to 6896
  146.1698  139.6984  142.8975 H   0  0  0  0  0  0  0  0  0  0  0  0  # atno 7974 bound_to 7965
  155.8609  140.0978  157.1614 H   0  0  0  0  0  0  0  0  0  0  0  0  # atno 8008 bound_to 7997
  154.3990  140.1365  156.4022 H   0  0  0  0  0  0  0  0  0  0  0  0  # atno 8009 bound_to 7997
  155.7858  140.3457  155.5324 H   0  0  0  0  0  0  0  0  0  0  0  0  # atno 8010 bound_to 7997
  139.4917  144.5869  151.6761 H   0  0  0  0  0  0  0  0  0  0  0  0  # atno 10167 bound_to 10162
  156.0571  130.5796  150.8187 H   0  0  0  0  0  0  0  0  0  0  0  0  # atno 10718 bound_to 10713
  154.6498  135.5359  153.7888 H   0  0  0  0  0  0  0  0  0  0  0  0  # atno 10763 bound_to 10752
  153.0380  135.6479  154.1034 H   0  0  0  0  0  0  0  0  0  0  0  0  # atno 10764 bound_to 10752
  154.0952  135.2937  155.3243 H   0  0  0  0  0  0  0  0  0  0  0  0  # atno 10765 bound_to 10752
  141.1668  133.7143  156.8248 H   0  0  0  0  0  0  0  0  0  0  0  0  # atno 11005 bound_to 11000
  145.4370  141.0419  143.2879 LP  0  0  0  0  0  0  0  0  0  0  0  0  # atno 17320 bound_to 7965
  144.8146  139.5900  143.7014 LP  0  0  0  0  0  0  0  0  0  0  0  0  # atno 17321 bound_to 7965
  140.5487  144.0461  150.6117 LP  0  0  0  0  0  0  0  0  0  0  0  0  # atno 17342 bound_to 10162
  140.3508  143.2964  152.0489 LP  0  0  0  0  0  0  0  0  0  0  0  0  # atno 17343 bound_to 10162
  157.5549  131.0945  150.9642 LP  0  0  0  0  0  0  0  0  0  0  0  0  # atno 17370 bound_to 10713
  156.9893  130.5557  149.5302 LP  0  0  0  0  0  0  0  0  0  0  0  0  # atno 17371 bound_to 10713
  140.2093  134.8839  157.3257 LP  0  0  0  0  0  0  0  0  0  0  0  0  # atno 17394 bound_to 11000
  140.2104  134.4146  155.7616 LP  0  0  0  0  0  0  0  0  0  0  0  0  # atno 17395 bound_to 11000

$$$$
