AV-unprocessed.smi:1994|AV-procd|sdf|8075|dock4
  -GOLD-   2272010283D 1   1.00000     0.00000
 Structure written by MMmdl.
 40 42  0  0  0  0  0  0  0  0  2 V2000
  149.8253  140.9658  155.4830 C   0  0  0  0  0  0  0  0  0  0  0  0
  150.4899  141.7296  156.5788 C   0  0  0  0  0  0  0  0  0  0  0  0
  150.5477  143.0871  156.6890 N   0  3  0  0  0  0  0  0  0  0  0  0
  151.2557  143.4380  157.8397 C   0  0  0  0  0  0  0  0  0  0  0  0
  151.5747  144.6843  158.3700 C   0  0  0  0  0  0  0  0  0  0  0  0
  152.3166  144.6902  159.5698 C   0  0  0  0  0  0  0  0  0  0  0  0
  152.7123  143.4897  160.1948 C   0  0  0  0  0  0  0  0  0  0  0  0
  152.3838  142.2319  159.6471 C   0  0  0  0  0  0  0  0  0  0  0  0
  151.6489  142.2357  158.4620 C   0  0  0  0  0  0  0  0  0  0  0  0
  151.1517  141.2093  157.6518 N   0  0  0  0  0  0  0  0  0  0  0  0
  151.4010  139.8110  158.0332 C   0  0  0  0  0  0  0  0  0  0  0  0
  152.1108  139.0022  156.9283 C   0  0  1  0  0  0  0  0  0  0  0  0
  152.8495  139.8742  156.0967 O   0  0  0  0  0  0  0  0  0  0  0  0
  153.0645  137.9447  157.5012 C   0  0  0  0  0  0  0  0  0  0  0  0
  154.0472  138.6000  158.2918 O   0  0  0  0  0  0  0  0  0  0  0  0
  154.0841  138.3340  159.6439 C   0  0  0  0  0  0  0  0  0  0  0  0
  153.6943  137.0991  160.2224 C   0  0  0  0  0  0  0  0  0  0  0  0
  153.7639  136.9109  161.6165 C   0  0  0  0  0  0  0  0  0  0  0  0
  154.2208  137.9499  162.4482 C   0  0  0  0  0  0  0  0  0  0  0  0
  154.6082  139.1788  161.8833 C   0  0  0  0  0  0  0  0  0  0  0  0
  154.5395  139.3682  160.4895 C   0  0  0  0  0  0  0  0  0  0  0  0
  154.9173  140.5556  159.9580 F   0  0  0  0  0  0  0  0  0  0  0  0
  149.2625  141.6374  154.8342 H   0  0  0  0  0  0  0  0  0  0  0  0
  149.1372  140.2291  155.8980 H   0  0  0  0  0  0  0  0  0  0  0  0
  150.5715  140.4460  154.8819 H   0  0  0  0  0  0  0  0  0  0  0  0
  151.2733  145.6052  157.8929 H   0  0  0  0  0  0  0  0  0  0  0  0
  152.5874  145.6345  160.0198 H   0  0  0  0  0  0  0  0  0  0  0  0
  153.2794  143.5339  161.1133 H   0  0  0  0  0  0  0  0  0  0  0  0
  152.6916  141.3172  160.1326 H   0  0  0  0  0  0  0  0  0  0  0  0
  152.0014  139.8162  158.9439 H   0  0  0  0  0  0  0  0  0  0  0  0
  150.4465  139.3553  158.2997 H   0  0  0  0  0  0  0  0  0  0  0  0
  151.3715  138.5039  156.3008 H   0  0  0  0  0  0  0  0  0  0  0  0
  153.7572  139.8366  156.3555 H   0  0  0  0  0  0  0  0  0  0  0  0
  152.5052  137.2435  158.1232 H   0  0  0  0  0  0  0  0  0  0  0  0
  153.5313  137.3826  156.6902 H   0  0  0  0  0  0  0  0  0  0  0  0
  153.3366  136.2796  159.6178 H   0  0  0  0  0  0  0  0  0  0  0  0
  153.4656  135.9670  162.0484 H   0  0  0  0  0  0  0  0  0  0  0  0
  154.2735  137.8045  163.5171 H   0  0  0  0  0  0  0  0  0  0  0  0
  154.9590  139.9779  162.5196 H   0  0  0  0  0  0  0  0  0  0  0  0
  150.1335  143.7254  156.0220 H   0  0  0  0  0  0  0  0  0  0  0  0
  1  2  1  0  0  0  0
  1 23  1  0  0  0  0
  1 24  1  0  0  0  0
  1 25  1  0  0  0  0
  2 10  1  0  0  0  0
  2  3  2  0  0  0  0
  3  4  1  0  0  0  0
  3 40  1  0  0  0  0
  4  9  2  0  0  0  0
  4  5  1  0  0  0  0
  5  6  2  0  0  0  0
  5 26  1  0  0  0  0
  6  7  1  0  0  0  0
  6 27  1  0  0  0  0
  7  8  2  0  0  0  0
  7 28  1  0  0  0  0
  8  9  1  0  0  0  0
  8 29  1  0  0  0  0
  9 10  1  0  0  0  0
 10 11  1  0  0  0  0
 11 12  1  0  0  0  0
 11 30  1  0  0  0  0
 11 31  1  0  0  0  0
 12 13  1  0  0  0  0
 12 14  1  0  0  0  0
 12 32  1  0  0  0  0
 13 33  1  0  0  0  0
 14 15  1  0  0  0  0
 14 34  1  0  0  0  0
 14 35  1  0  0  0  0
 15 16  1  0  0  0  0
 16 21  1  0  0  0  0
 16 17  2  0  0  0  0
 17 18  1  0  0  0  0
 17 36  1  0  0  0  0
 18 19  2  0  0  0  0
 18 37  1  0  0  0  0
 19 20  1  0  0  0  0
 19 38  1  0  0  0  0
 20 21  2  0  0  0  0
 20 39  1  0  0  0  0
 21 22  1  0  0  0  0
M  CHG  1   3   1
M  END
> <s_m_source_file>
AV-unprocessed.smi

> <i_m_source_file_index>
1994

> <i_lp_mmshare_version>
43012

> <i_f3d_flags>
0

> <s_epik_input>
W2NIXTFbY0hdW2NIXVtjSF1jKGMxMiluKGMobjIpW0NIM10pW0NIMl1bQ0BIXShbT0hdKVtDSDJdT2MzW2NIXVtjSF1bY0hdW2NIXWMzRg==

> <s_epik_cmdline>
J2VwaWtfcHl0aG9uJywgJy1waCcsICc3LjAnLCAnLXRuJywgJzgnLCAnLW1hJywgJzIwMCcsICctbWV0YWxfYmluZGluZycsICctaW1hZScsICc8aW5maWxlLm1hZT4nLCAnLW9tYWUnLCAnPG91dGZpbGUubWFlPic=

> <r_lp_tautomer_probability>
1

> <r_epik_Ionization_Penalty>
1.03916

> <r_epik_Ionization_Penalty_Charging>
1.03916

> <r_epik_Ionization_Penalty_Neutral>
2.3993e-06

> <r_epik_State_Penalty>
1.09101

> <r_epik_Charging_Adjusted_Penalty>
2.13018

> <i_epik_Tot_Q>
1

> <i_epik_Tot_abs_Q>
1

> <r_epik_Metal_State_Penalty>
5.08156

> <b_epik_Metal_Only>
0

> <s_lp_Force_Field>
OPLS_2005

> <r_lp_Energy>
18.0159

> <b_lp_Chiralities_Consistent>
1

> <s_lp_Variant>
AV-unprocessed.smi:1994-4

> <Gold.Version>
5.8.1

> <Gold.Id.Protein>
6NUR|6NUR_protein|mol2

> <Gold.PLP.Fitness>
51.9626

> <Gold.PLP.PLP>
-45.4127

> <Gold.PLP.part.hbond>
-3.0000

> <Gold.PLP.part.metal>
0.0000

> <Gold.PLP.part.buried>
-4.4172

> <Gold.PLP.part.nonpolar>
-37.9730

> <Gold.PLP.part.repulsive>
0.0493

> <Gold.PLP.ligand.clash>
0.0000

> <Gold.PLP.ligand.torsion>
1.2164

> <Gold.PLP.Chemscore.Hbond>
2.9840

> <Gold.PLP.Chemscore.CHOScore>
0.0000

> <Gold.PLP.Chemscore.Metal>
0.0000

> <Gold.Chemscore.Hbonds>
donor molecule, donor type, donor heavy atom, donor atom, acceptor molecule, acceptor atom, score
      L1  H     3    40       P1  8028  1.92
      P1  H  7997  8009       L1    15  0.95

> <Gold.PLP.Chemscore.Internal.Correction>
0.0307

> <Gold.Rescore>
     Score         DG    S(hbond)    S(metal)    S(lipo)     H(rot)  DE(clash)    DE(int)     intcor
     18.22     -20.07       1.86        0.00     121.36       2.27       0.09       1.76       ----

> <Gold.Chemscore.Fitness>
18.2196

> <Gold.Chemscore.DG>
-20.0693

> <Gold.Chemscore.ZeroCoef>
-5.4800

> <Gold.Chemscore.Hbond>
1.8571

> <Gold.Chemscore.Metal>
0.0000

> <Gold.Chemscore.Lipo>
121.3614

> <Gold.Chemscore.Internal_Hbond>
0.0000

> <Gold.Chemscore.DEClash>
0.0888

> <Gold.Chemscore.DEInternal>
1.7609

> <Gold.Chemscore.Rot>
2.2706

> <Gold.Chemscore.Internal.Correction>
   9.000000E+99

> <Gold.Chemscore.Hbonds>
donor molecule, donor type, donor heavy atom, donor atom, acceptor molecule, acceptor atom, score
      L1  H     3    40       P1  8028  0.92
      P1  H  7997  8009       L1    15  0.20

> <Gold.Chemscore.Hbond.Weighted>
-6.2028

> <Gold.Chemscore.Metal.Weighted>
-0.0000

> <Gold.Chemscore.Lipo.Weighted>
-14.1993

> <Gold.Chemscore.Internal_Hbond.Weighted>
0.0000

> <Gold.Chemscore.DEClash.Weighted>
0.0888

> <Gold.Chemscore.DEInternal.Weighted>
1.7609

> <Gold.Chemscore.Rot.Weighted>
5.8128

> <Gold.Chemscore.Internal.Correction.Weighted>
   9.000000E+99

> <Gold.Protein.RotatedTorsions>
[ 6907 6896 6895 6894 ] final   -0.15 input  -60.11 | X-H torsion
[ 7974 7965 7964 7962 ] final   30.06 input  175.53 | X-H torsion
[ 8008 7997 7996 7995 ] final  157.14 input   59.86 | X-H torsion
[ 10167 10162 10161 10158 ] final  168.97 input  -65.29 | X-H torsion
[ 10718 10713 10712 10709 ] final -157.56 input   66.30 | X-H torsion
[ 10763 10752 10751 10750 ] final   -8.14 input  -60.55 | X-H torsion
[ 11005 11000 10999 10996 ] final  -65.19 input  -57.11 | X-H torsion

> <Gold.Protein.ActiveResidues>
 VAL166  LYS551  ARG553  GLY616  TRP617  ASP618  TYR619  PRO620  LYS621  CYS622 
 ASP623  PHE694  ASN695  SER759  ASP760  ASP761  ALA762  ILE779  LEU786  VAL792 
 PHE793  MET794  SER795  GLU796  ALA797  LYS798  CYS799  TRP800  GLU811  SER814 

> <Gold.Protein.RotatedAtoms>
  151.5670  135.1064  159.9985 H   0  0  0  0  0  0  0  0  0  0  0  0  # atno 6907 bound_to 6896
  152.4419  133.7460  159.6678 H   0  0  0  0  0  0  0  0  0  0  0  0  # atno 6908 bound_to 6896
  150.8327  133.7996  159.3116 H   0  0  0  0  0  0  0  0  0  0  0  0  # atno 6909 bound_to 6896
  146.1634  139.6838  142.9018 H   0  0  0  0  0  0  0  0  0  0  0  0  # atno 7974 bound_to 7965
  156.2381  140.1893  156.7063 H   0  0  0  0  0  0  0  0  0  0  0  0  # atno 8008 bound_to 7997
  154.6145  140.0617  156.9564 H   0  0  0  0  0  0  0  0  0  0  0  0  # atno 8009 bound_to 7997
  155.1961  140.3288  155.4353 H   0  0  0  0  0  0  0  0  0  0  0  0  # atno 8010 bound_to 7997
  139.4981  144.3756  151.9677 H   0  0  0  0  0  0  0  0  0  0  0  0  # atno 10167 bound_to 10162
  156.5420  130.8567  151.2752 H   0  0  0  0  0  0  0  0  0  0  0  0  # atno 10718 bound_to 10713
  153.4363  135.7013  153.6198 H   0  0  0  0  0  0  0  0  0  0  0  0  # atno 10763 bound_to 10752
  153.4591  135.3740  155.2328 H   0  0  0  0  0  0  0  0  0  0  0  0  # atno 10764 bound_to 10752
  154.8727  135.4015  154.3755 H   0  0  0  0  0  0  0  0  0  0  0  0  # atno 10765 bound_to 10752
  141.1447  133.6677  156.5948 H   0  0  0  0  0  0  0  0  0  0  0  0  # atno 11005 bound_to 11000
  145.4529  141.0429  143.2794 LP  0  0  0  0  0  0  0  0  0  0  0  0  # atno 17320 bound_to 7965
  144.8059  139.6053  143.7051 LP  0  0  0  0  0  0  0  0  0  0  0  0  # atno 17321 bound_to 7965
  140.3193  144.3447  150.6014 LP  0  0  0  0  0  0  0  0  0  0  0  0  # atno 17342 bound_to 10162
  140.5736  143.2178  151.7555 LP  0  0  0  0  0  0  0  0  0  0  0  0  # atno 17343 bound_to 10162
  157.7403  130.9848  150.2372 LP  0  0  0  0  0  0  0  0  0  0  0  0  # atno 17370 bound_to 10713
  156.2963  130.3752  149.7793 LP  0  0  0  0  0  0  0  0  0  0  0  0  # atno 17371 bound_to 10713
  140.3735  134.7585  157.4614 LP  0  0  0  0  0  0  0  0  0  0  0  0  # atno 17394 bound_to 11000
  140.0692  134.5886  155.8661 LP  0  0  0  0  0  0  0  0  0  0  0  0  # atno 17395 bound_to 11000

$$$$
