AV-unprocessed.smi:50|AV-procd|sdf|492|dock1
  -GOLD-   2262016353D 1   1.00000     0.00000
 Structure written by MMmdl.
 44 45  0  0  0  0  0  0  0  0  2 V2000
  144.1563  132.4794  149.7926 C   0  0  0  0  0  0  0  0  0  0  0  0
  144.3454  133.4141  151.0036 C   0  0  0  0  0  0  0  0  0  0  0  0
  143.0237  133.5026  151.7897 C   0  0  0  0  0  0  0  0  0  0  0  0
  144.8695  134.8169  150.5903 C   0  0  1  0  0  0  0  0  0  0  0  0
  144.0645  135.4024  149.5020 N   0  3  0  0  0  0  0  0  0  0  0  0
  144.8496  135.8534  151.7253 C   0  0  0  0  0  0  0  0  0  0  0  0
  143.8396  136.1926  152.3440 O   0  0  0  0  0  0  0  0  0  0  0  0
  146.0798  136.3606  151.9142 O   0  0  0  0  0  0  0  0  0  0  0  0
  146.2270  137.6584  152.4690 C   0  0  0  0  0  0  0  0  0  0  0  0
  147.6928  137.8930  152.8441 C   0  0  0  0  0  0  0  0  0  0  0  0
  147.7429  138.7789  153.9508 O   0  0  0  0  0  0  0  0  0  0  0  0
  148.8068  139.6717  153.8931 C   0  0  0  0  0  0  0  0  0  0  0  0
  149.9408  139.0745  154.5765 N   0  0  0  0  0  0  0  0  0  0  0  0
  150.5107  137.8374  154.3945 C   0  0  0  0  0  0  0  0  0  0  0  0
  151.5236  137.5991  155.1803 N   0  0  0  0  0  0  0  0  0  0  0  0
  151.6349  138.7516  155.9523 C   0  0  0  0  0  0  0  0  0  0  0  0
  152.5626  139.0791  156.9978 C   0  0  0  0  0  0  0  0  0  0  0  0
  153.4838  138.3963  157.4407 O   0  0  0  0  0  0  0  0  0  0  0  0
  152.3264  140.3517  157.5335 N   0  0  0  0  0  0  0  0  0  0  0  0
  151.3119  141.2046  157.1052 C   0  0  0  0  0  0  0  0  0  0  0  0
  151.2179  142.3882  157.7252 N   0  0  0  0  0  0  0  0  0  0  0  0
  150.4609  140.9035  156.1399 N   0  0  0  0  0  0  0  0  0  0  0  0
  150.6629  139.6649  155.5919 C   0  0  0  0  0  0  0  0  0  0  0  0
  145.8913  134.7127  150.2233 H   0  0  0  0  0  0  0  0  0  0  0  0
  152.9383  140.6541  158.2771 H   0  0  0  0  0  0  0  0  0  0  0  0
  143.4513  132.9007  149.0752 H   0  0  0  0  0  0  0  0  0  0  0  0
  143.7696  131.5085  150.1038 H   0  0  0  0  0  0  0  0  0  0  0  0
  145.0921  132.2923  149.2665 H   0  0  0  0  0  0  0  0  0  0  0  0
  145.0799  132.9499  151.6642 H   0  0  0  0  0  0  0  0  0  0  0  0
  142.2463  133.9931  151.2028 H   0  0  0  0  0  0  0  0  0  0  0  0
  143.1396  134.0566  152.7212 H   0  0  0  0  0  0  0  0  0  0  0  0
  142.6588  132.5096  152.0552 H   0  0  0  0  0  0  0  0  0  0  0  0
  144.1231  136.4096  149.5476 H   0  0  0  0  0  0  0  0  0  0  0  0
  143.1015  135.1160  149.6070 H   0  0  0  0  0  0  0  0  0  0  0  0
  145.9124  138.3963  151.7298 H   0  0  0  0  0  0  0  0  0  0  0  0
  145.5888  137.7794  153.3457 H   0  0  0  0  0  0  0  0  0  0  0  0
  148.1902  136.9489  153.0722 H   0  0  0  0  0  0  0  0  0  0  0  0
  148.2122  138.3421  151.9964 H   0  0  0  0  0  0  0  0  0  0  0  0
  149.0794  139.8671  152.8540 H   0  0  0  0  0  0  0  0  0  0  0  0
  148.5580  140.6088  154.3936 H   0  0  0  0  0  0  0  0  0  0  0  0
  150.1582  137.1215  153.6662 H   0  0  0  0  0  0  0  0  0  0  0  0
  151.8673  142.6194  158.4634 H   0  0  0  0  0  0  0  0  0  0  0  0
  150.5036  143.0494  157.4568 H   0  0  0  0  0  0  0  0  0  0  0  0
  144.4168  135.0826  148.6111 H   0  0  0  0  0  0  0  0  0  0  0  0
  1  2  1  0  0  0  0
  1 26  1  0  0  0  0
  1 27  1  0  0  0  0
  1 28  1  0  0  0  0
  2  3  1  0  0  0  0
  2  4  1  0  0  0  0
  2 29  1  0  0  0  0
  3 30  1  0  0  0  0
  3 31  1  0  0  0  0
  3 32  1  0  0  0  0
  4 24  1  0  0  0  0
  4  5  1  0  0  0  0
  4  6  1  0  0  0  0
  5 33  1  0  0  0  0
  5 34  1  0  0  0  0
  5 44  1  0  0  0  0
  6  7  2  0  0  0  0
  6  8  1  0  0  0  0
  8  9  1  0  0  0  0
  9 10  1  0  0  0  0
  9 35  1  0  0  0  0
  9 36  1  0  0  0  0
 10 11  1  0  0  0  0
 10 37  1  0  0  0  0
 10 38  1  0  0  0  0
 11 12  1  0  0  0  0
 12 13  1  0  0  0  0
 12 39  1  0  0  0  0
 12 40  1  0  0  0  0
 13 23  1  0  0  0  0
 13 14  1  0  0  0  0
 14 15  2  0  0  0  0
 14 41  1  0  0  0  0
 15 16  1  0  0  0  0
 16 23  2  0  0  0  0
 16 17  1  0  0  0  0
 17 18  2  0  0  0  0
 17 19  1  0  0  0  0
 19 25  1  0  0  0  0
 19 20  1  0  0  0  0
 20 21  1  0  0  0  0
 20 22  2  0  0  0  0
 21 42  1  0  0  0  0
 21 43  1  0  0  0  0
 22 23  1  0  0  0  0
M  CHG  1   5   1
M  END
> <s_m_source_file>
AV-unprocessed.smi

> <i_m_source_file_index>
50

> <i_lp_mmshare_version>
43012

> <i_f3d_flags>
0

> <s_epik_input>
W0NIM11bQ0hdKFtDSDNdKVtDQEhdKFtOSDJdKUMoPU8pT1tDSDJdW0NIMl1PW0NIMl1uKFtjSF1uMSljKGMxMiluYyhbTkgyXSlbbkhdYzI9Tw==

> <s_epik_cmdline>
J2VwaWtfcHl0aG9uJywgJy1waCcsICc3LjAnLCAnLXRuJywgJzgnLCAnLW1hJywgJzIwMCcsICctbWV0YWxfYmluZGluZycsICctaW1hZScsICc8aW5maWxlLm1hZT4nLCAnLW9tYWUnLCAnPG91dGZpbGUubWFlPic=

> <r_lp_tautomer_probability>
0.99994

> <r_epik_Ionization_Penalty>
0.217551

> <r_epik_Ionization_Penalty_Charging>
0.217477

> <r_epik_Ionization_Penalty_Neutral>
7.42487e-05

> <r_epik_State_Penalty>
0.206211

> <r_epik_Charging_Adjusted_Penalty>
0.423688

> <i_epik_Tot_Q>
1

> <i_epik_Tot_abs_Q>
1

> <r_epik_Metal_State_Penalty>
0.526339

> <b_epik_Metal_Only>
0

> <s_epik_Chemistry_Notes>
This compound has an ester and may undergo hydrolysis at high or low pH. This compound contains an acetal/aminal-like group ( X-CH(R)-Y where X, Y are N, S, or O) that may be acid/base labile, releasing an aldehyde.

> <s_lp_Force_Field>
OPLS_2005

> <r_lp_Energy>
7.49642

> <b_lp_Chiralities_Consistent>
1

> <s_lp_Variant>
AV-unprocessed.smi:50-2

> <Gold.Version>
5.8.1

> <Gold.Id.Protein>
6NUR|6NUR_protein|mol2

> <Gold.PLP.Fitness>
49.6606

> <Gold.PLP.PLP>
-33.9234

> <Gold.PLP.part.hbond>
-4.3279

> <Gold.PLP.part.metal>
0.0000

> <Gold.PLP.part.buried>
1.7385

> <Gold.PLP.part.nonpolar>
-33.2660

> <Gold.PLP.part.repulsive>
1.2255

> <Gold.PLP.ligand.clash>
0.0000

> <Gold.PLP.ligand.torsion>
1.2431

> <Gold.PLP.Chemscore.Hbond>
4.9186

> <Gold.PLP.Chemscore.CHOScore>
1.0000

> <Gold.PLP.Chemscore.Metal>
0.0000

> <Gold.Chemscore.Hbonds>
donor molecule, donor type, donor heavy atom, donor atom, acceptor molecule, acceptor atom, score
      L1  H     5    33       P1 10171  0.65
      L1  H     5    34       P1 10186  1.20
      L1  H     5    44       P1  7921  0.83
      P1  H  7997  8010       L1    18  0.10
      L1  C    14    41       P1  7948  0.98
      L1  C    14    41       P1  7949  0.12

> <Gold.PLP.Chemscore.Internal.Correction>
0.4675

> <Gold.Rescore>
     Score         DG    S(hbond)    S(metal)    S(lipo)     H(rot)  DE(clash)    DE(int)     intcor
      4.95      -8.71       2.93        0.00      50.34       4.86       1.15       2.61       ----

> <Gold.Chemscore.Fitness>
4.9477

> <Gold.Chemscore.DG>
-8.7097

> <Gold.Chemscore.ZeroCoef>
-5.4800

> <Gold.Chemscore.Hbond>
2.9264

> <Gold.Chemscore.Metal>
0.0000

> <Gold.Chemscore.Lipo>
50.3390

> <Gold.Chemscore.Internal_Hbond>
0.0000

> <Gold.Chemscore.DEClash>
1.1508

> <Gold.Chemscore.DEInternal>
2.6112

> <Gold.Chemscore.Rot>
4.8571

> <Gold.Chemscore.Internal.Correction>
   9.000000E+99

> <Gold.Chemscore.Hbonds>
donor molecule, donor type, donor heavy atom, donor atom, acceptor molecule, acceptor atom, score
      L1  H     5    33       P1 10171  0.64
      L1  H     5    34       P1 10186  0.33
      L1  H     5    44       P1  7921  0.81

> <Gold.Chemscore.Hbond.Weighted>
-9.7743

> <Gold.Chemscore.Metal.Weighted>
-0.0000

> <Gold.Chemscore.Lipo.Weighted>
-5.8897

> <Gold.Chemscore.Internal_Hbond.Weighted>
0.0000

> <Gold.Chemscore.DEClash.Weighted>
1.1508

> <Gold.Chemscore.DEInternal.Weighted>
2.6112

> <Gold.Chemscore.Rot.Weighted>
12.4343

> <Gold.Chemscore.Internal.Correction.Weighted>
   9.000000E+99

> <Gold.Protein.RotatedTorsions>
[ 6907 6896 6895 6894 ] final  130.35 input  -60.11 | X-H torsion
[ 7974 7965 7964 7962 ] final  167.81 input  175.53 | X-H torsion
[ 8008 7997 7996 7995 ] final   40.21 input   59.86 | X-H torsion
[ 10167 10162 10161 10158 ] final  -48.47 input  -65.29 | X-H torsion
[ 10718 10713 10712 10709 ] final  137.95 input   66.30 | X-H torsion
[ 10763 10752 10751 10750 ] final -120.74 input  -60.55 | X-H torsion
[ 11005 11000 10999 10996 ] final -127.36 input  -57.11 | X-H torsion

> <Gold.Protein.ActiveResidues>
 VAL166  LYS551  ARG553  GLY616  TRP617  ASP618  TYR619  PRO620  LYS621  CYS622 
 ASP623  PHE694  ASN695  SER759  ASP760  ASP761  ALA762  ILE779  LEU786  VAL792 
 PHE793  MET794  SER795  GLU796  ALA797  LYS798  CYS799  TRP800  GLU811  SER814 

> <Gold.Protein.RotatedAtoms>
  152.3535  133.6208  159.5961 H   0  0  0  0  0  0  0  0  0  0  0  0  # atno 6907 bound_to 6896
  150.7553  133.9537  159.3502 H   0  0  0  0  0  0  0  0  0  0  0  0  # atno 6908 bound_to 6896
  151.7385  135.0860  160.0363 H   0  0  0  0  0  0  0  0  0  0  0  0  # atno 6909 bound_to 6896
  144.7411  139.8816  143.6396 H   0  0  0  0  0  0  0  0  0  0  0  0  # atno 7974 bound_to 7965
  155.2493  140.3351  155.4284 H   0  0  0  0  0  0  0  0  0  0  0  0  # atno 8008 bound_to 7997
  156.2222  140.1814  156.7493 H   0  0  0  0  0  0  0  0  0  0  0  0  # atno 8009 bound_to 7997
  154.5843  140.0648  156.9134 H   0  0  0  0  0  0  0  0  0  0  0  0  # atno 8010 bound_to 7997
  140.6729  143.2739  151.4075 H   0  0  0  0  0  0  0  0  0  0  0  0  # atno 10167 bound_to 10162
  157.4306  131.1048  151.0254 H   0  0  0  0  0  0  0  0  0  0  0  0  # atno 10718 bound_to 10713
  154.8651  135.4192  154.2507 H   0  0  0  0  0  0  0  0  0  0  0  0  # atno 10763 bound_to 10752
  153.3454  135.6996  153.6838 H   0  0  0  0  0  0  0  0  0  0  0  0  # atno 10764 bound_to 10752
  153.5799  135.3575  155.2843 H   0  0  0  0  0  0  0  0  0  0  0  0  # atno 10765 bound_to 10752
  140.9606  134.0941  157.3972 H   0  0  0  0  0  0  0  0  0  0  0  0  # atno 11005 bound_to 11000
  146.1207  139.4225  143.0230 LP  0  0  0  0  0  0  0  0  0  0  0  0  # atno 17320 bound_to 7965
  145.7308  141.0043  143.1352 LP  0  0  0  0  0  0  0  0  0  0  0  0  # atno 17321 bound_to 7965
  139.6007  144.1302  152.2195 LP  0  0  0  0  0  0  0  0  0  0  0  0  # atno 17342 bound_to 10162
  140.0685  144.5799  150.7209 LP  0  0  0  0  0  0  0  0  0  0  0  0  # atno 17343 bound_to 10162
  157.1152  130.6038  149.5491 LP  0  0  0  0  0  0  0  0  0  0  0  0  # atno 17370 bound_to 10713
  155.9912  130.4966  150.7289 LP  0  0  0  0  0  0  0  0  0  0  0  0  # atno 17371 bound_to 10713
  139.8877  135.0092  156.6575 LP  0  0  0  0  0  0  0  0  0  0  0  0  # atno 17394 bound_to 11000
  140.7473  133.8927  155.8321 LP  0  0  0  0  0  0  0  0  0  0  0  0  # atno 17395 bound_to 11000

$$$$
