AV-unprocessed.smi:2772|AV-procd|sdf|10667|dock3
  -GOLD-   2272015113D 1   1.00000     0.00000
 Structure written by MMmdl.
 55 57  0  0  0  0  0  0  0  0  3 V2000
  140.6298  145.6106  157.3028 C   0  0  0  0  0  0  0  0  0  0  0  0
  141.0143  144.2493  156.7626 C   0  0  0  0  0  0  0  0  0  0  0  0
  140.5141  143.0690  157.3495 C   0  0  0  0  0  0  0  0  0  0  0  0
  140.8993  141.8298  156.8025 C   0  0  0  0  0  0  0  0  0  0  0  0
  141.7647  141.8155  155.6819 C   0  0  0  0  0  0  0  0  0  0  0  0
  142.2326  140.6328  155.0473 N   0  0  0  0  0  0  0  0  0  0  0  0
  142.0179  139.3543  155.4029 C   0  0  0  0  0  0  0  0  0  0  0  0
  141.3583  138.9855  156.3743 O   0  0  0  0  0  0  0  0  0  0  0  0
  142.6005  138.5048  154.5439 N   0  0  0  0  0  0  0  0  0  0  0  0
  142.5451  137.0485  154.6399 C   0  0  2  0  0  0  0  0  0  0  0  0
  143.9494  136.4856  154.9249 C   0  0  0  0  0  0  0  0  0  0  0  0
  143.9443  134.9440  154.9036 C   0  0  0  0  0  0  0  0  0  0  0  0
  143.4330  134.4044  153.6102 N   0  3  2  0  0  0  0  0  0  0  0  0
  144.3626  134.5612  152.4365 C   0  0  2  0  0  0  0  0  0  0  0  0
  143.8743  133.8401  151.1562 C   0  0  0  0  0  0  0  0  0  0  0  0
  143.9015  132.3083  151.3137 C   0  0  0  0  0  0  0  0  0  0  0  0
  145.2669  131.8331  151.6502 N   0  3  2  0  0  0  0  0  0  0  0  0
  145.3486  130.3586  151.7285 C   0  0  0  0  0  0  0  0  0  0  0  0
  145.8125  132.4958  152.8614 C   0  0  0  0  0  0  0  0  0  0  0  0
  145.7902  134.0284  152.7107 C   0  0  0  0  0  0  0  0  0  0  0  0
  142.0401  134.8921  153.3957 C   0  0  0  0  0  0  0  0  0  0  0  0
  141.9716  136.4303  153.3482 C   0  0  0  0  0  0  0  0  0  0  0  0
  142.2195  143.0562  155.1874 C   0  0  0  0  0  0  0  0  0  0  0  0
  141.8542  144.2484  155.7052 N   0  0  0  0  0  0  0  0  0  0  0  0
  139.9139  145.5241  158.1206 H   0  0  0  0  0  0  0  0  0  0  0  0
  140.1759  146.2159  156.5177 H   0  0  0  0  0  0  0  0  0  0  0  0
  141.5110  146.1334  157.6751 H   0  0  0  0  0  0  0  0  0  0  0  0
  139.8519  143.1078  158.2021 H   0  0  0  0  0  0  0  0  0  0  0  0
  140.5348  140.9228  157.2588 H   0  0  0  0  0  0  0  0  0  0  0  0
  142.7297  140.7772  154.1807 H   0  0  0  0  0  0  0  0  0  0  0  0
  143.1219  138.8944  153.7720 H   0  0  0  0  0  0  0  0  0  0  0  0
  141.8984  136.7745  155.4760 H   0  0  0  0  0  0  0  0  0  0  0  0
  144.6656  136.8674  154.1967 H   0  0  0  0  0  0  0  0  0  0  0  0
  144.2947  136.8346  155.8988 H   0  0  0  0  0  0  0  0  0  0  0  0
  144.9249  134.5489  155.1578 H   0  0  0  0  0  0  0  0  0  0  0  0
  143.2902  134.5848  155.6997 H   0  0  0  0  0  0  0  0  0  0  0  0
  144.4405  135.6234  152.2064 H   0  0  0  0  0  0  0  0  0  0  0  0
  142.8922  134.1812  150.8336 H   0  0  0  0  0  0  0  0  0  0  0  0
  144.5350  134.1105  150.3308 H   0  0  0  0  0  0  0  0  0  0  0  0
  143.1985  131.9920  152.0858 H   0  0  0  0  0  0  0  0  0  0  0  0
  143.5774  131.8419  150.3824 H   0  0  0  0  0  0  0  0  0  0  0  0
  144.7317  129.9741  152.5417 H   0  0  0  0  0  0  0  0  0  0  0  0
  146.3772  130.0380  151.8980 H   0  0  0  0  0  0  0  0  0  0  0  0
  145.0093  129.9038  150.7971 H   0  0  0  0  0  0  0  0  0  0  0  0
  145.2405  132.1915  153.7394 H   0  0  0  0  0  0  0  0  0  0  0  0
  146.8384  132.1623  153.0230 H   0  0  0  0  0  0  0  0  0  0  0  0
  146.4306  134.2991  151.8701 H   0  0  0  0  0  0  0  0  0  0  0  0
  146.2573  134.5077  153.5685 H   0  0  0  0  0  0  0  0  0  0  0  0
  141.5776  134.4517  152.5154 H   0  0  0  0  0  0  0  0  0  0  0  0
  141.4280  134.5401  154.2273 H   0  0  0  0  0  0  0  0  0  0  0  0
  140.9345  136.7404  153.2153 H   0  0  0  0  0  0  0  0  0  0  0  0
  142.5119  136.8031  152.4773 H   0  0  0  0  0  0  0  0  0  0  0  0
  142.8925  143.0967  154.3435 H   0  0  0  0  0  0  0  0  0  0  0  0
  143.3487  133.4075  153.7479 H   0  0  0  0  0  0  0  0  0  0  0  0
  145.8625  132.1086  150.8817 H   0  0  0  0  0  0  0  0  0  0  0  0
  1  2  1  0  0  0  0
  1 25  1  0  0  0  0
  1 26  1  0  0  0  0
  1 27  1  0  0  0  0
  2 24  1  0  0  0  0
  2  3  2  0  0  0  0
  3  4  1  0  0  0  0
  3 28  1  0  0  0  0
  4  5  2  0  0  0  0
  4 29  1  0  0  0  0
  5  6  1  0  0  0  0
  5 23  1  0  0  0  0
  6  7  1  0  0  0  0
  6 30  1  0  0  0  0
  7  8  2  0  0  0  0
  7  9  1  0  0  0  0
  9 10  1  0  0  0  0
  9 31  1  0  0  0  0
 10 22  1  0  0  0  0
 10 11  1  0  0  0  0
 10 32  1  0  0  0  0
 11 12  1  0  0  0  0
 11 33  1  0  0  0  0
 11 34  1  0  0  0  0
 12 13  1  0  0  0  0
 12 35  1  0  0  0  0
 12 36  1  0  0  0  0
 13 14  1  0  0  0  0
 13 21  1  0  0  0  0
 13 54  1  0  0  0  0
 14 20  1  0  0  0  0
 14 15  1  0  0  0  0
 14 37  1  0  0  0  0
 15 16  1  0  0  0  0
 15 38  1  0  0  0  0
 15 39  1  0  0  0  0
 16 17  1  0  0  0  0
 16 40  1  0  0  0  0
 16 41  1  0  0  0  0
 17 18  1  0  0  0  0
 17 19  1  0  0  0  0
 17 55  1  0  0  0  0
 18 42  1  0  0  0  0
 18 43  1  0  0  0  0
 18 44  1  0  0  0  0
 19 20  1  0  0  0  0
 19 45  1  0  0  0  0
 19 46  1  0  0  0  0
 20 47  1  0  0  0  0
 20 48  1  0  0  0  0
 21 22  1  0  0  0  0
 21 49  1  0  0  0  0
 21 50  1  0  0  0  0
 22 51  1  0  0  0  0
 22 52  1  0  0  0  0
 23 24  2  0  0  0  0
 23 53  1  0  0  0  0
M  CHG  1  13   1
M  CHG  1  17   1
M  END
> <s_m_source_file>
AV-unprocessed.smi

> <i_m_source_file_index>
2772

> <i_lp_mmshare_version>
43012

> <i_f3d_flags>
0

> <s_epik_input>
W0NIM11jMVtjSF1bY0hdYyhbY0hdbjEpW05IXUMoPU8pW05IXVtDSF0yW0NIMl1bQ0gyXU4oW0NIMl1bQ0gyXTIpW0NIXTNbQ0gyXVtDSDJdTihbQ0gzXSlbQ0gyXVtDSDJdMw==

> <s_epik_cmdline>
J2VwaWtfcHl0aG9uJywgJy1waCcsICc3LjAnLCAnLXRuJywgJzgnLCAnLW1hJywgJzIwMCcsICctbWV0YWxfYmluZGluZycsICctaW1hZScsICc8aW5maWxlLm1hZT4nLCAnLW9tYWUnLCAnPG91dGZpbGUubWFlPic=

> <r_epik_Ionization_Penalty>
0.196786

> <r_epik_Ionization_Penalty_Charging>
0.180787

> <r_epik_Ionization_Penalty_Neutral>
0.0159988

> <r_epik_State_Penalty>
0.163322

> <r_epik_Charging_Adjusted_Penalty>
0.344109

> <i_epik_Tot_Q>
2

> <i_epik_Tot_abs_Q>
2

> <r_epik_Metal_State_Penalty>
0.163596

> <b_epik_Metal_Only>
0

> <s_lp_Force_Field>
OPLS_2005

> <r_lp_Energy>
49.9042

> <b_lp_Chiralities_Consistent>
1

> <s_lp_Variant>
AV-unprocessed.smi:2772-4

> <Gold.Version>
5.8.1

> <Gold.Id.Protein>
6NUR|6NUR_protein|mol2

> <Gold.PLP.Fitness>
37.2643

> <Gold.PLP.PLP>
-23.1020

> <Gold.PLP.part.hbond>
-3.0000

> <Gold.PLP.part.metal>
0.0000

> <Gold.PLP.part.buried>
-5.3015

> <Gold.PLP.part.nonpolar>
-16.4561

> <Gold.PLP.part.repulsive>
0.0819

> <Gold.PLP.ligand.clash>
0.0000

> <Gold.PLP.ligand.torsion>
0.0603

> <Gold.PLP.Chemscore.Hbond>
3.7463

> <Gold.PLP.Chemscore.CHOScore>
1.0000

> <Gold.PLP.Chemscore.Metal>
0.0000

> <Gold.Chemscore.Hbonds>
donor molecule, donor type, donor heavy atom, donor atom, acceptor molecule, acceptor atom, score
      L1  H     6    30       P1 10175  1.00
      L1  H     9    31       P1 10175  0.89
      L1  H    13    54       P1 10957  1.85
      L1  C    23    53       P1 10174  1.00

> <Gold.PLP.Chemscore.Internal.Correction>
0.0441

> <Gold.Rescore>
     Score         DG    S(hbond)    S(metal)    S(lipo)     H(rot)  DE(clash)    DE(int)     intcor
     16.73     -18.28       2.58        0.00      62.28       1.21       0.23       1.31       ----

> <Gold.Chemscore.Fitness>
16.7311

> <Gold.Chemscore.DG>
-18.2777

> <Gold.Chemscore.ZeroCoef>
-5.4800

> <Gold.Chemscore.Hbond>
2.5767

> <Gold.Chemscore.Metal>
0.0000

> <Gold.Chemscore.Lipo>
62.2825

> <Gold.Chemscore.Internal_Hbond>
0.0000

> <Gold.Chemscore.DEClash>
0.2319

> <Gold.Chemscore.DEInternal>
1.3148

> <Gold.Chemscore.Rot>
1.2092

> <Gold.Chemscore.Internal.Correction>
   9.000000E+99

> <Gold.Chemscore.Hbonds>
donor molecule, donor type, donor heavy atom, donor atom, acceptor molecule, acceptor atom, score
      L1  H     6    30       P1 10175  0.60
      L1  H     9    31       P1 10175  0.82
      L1  H    13    54       P1 10957  0.85

> <Gold.Chemscore.Hbond.Weighted>
-8.6061

> <Gold.Chemscore.Metal.Weighted>
-0.0000

> <Gold.Chemscore.Lipo.Weighted>
-7.2871

> <Gold.Chemscore.Internal_Hbond.Weighted>
0.0000

> <Gold.Chemscore.DEClash.Weighted>
0.2319

> <Gold.Chemscore.DEInternal.Weighted>
1.3148

> <Gold.Chemscore.Rot.Weighted>
3.0955

> <Gold.Chemscore.Internal.Correction.Weighted>
   9.000000E+99

> <Gold.Protein.RotatedTorsions>
[ 6907 6896 6895 6894 ] final  177.81 input  -60.11 | X-H torsion
[ 7974 7965 7964 7962 ] final  -47.98 input  175.53 | X-H torsion
[ 8008 7997 7996 7995 ] final -108.73 input   59.86 | X-H torsion
[ 10167 10162 10161 10158 ] final   73.23 input  -65.29 | X-H torsion
[ 10718 10713 10712 10709 ] final  102.69 input   66.30 | X-H torsion
[ 10763 10752 10751 10750 ] final -100.97 input  -60.55 | X-H torsion
[ 11005 11000 10999 10996 ] final  -73.98 input  -57.11 | X-H torsion

> <Gold.Protein.ActiveResidues>
 VAL166  LYS551  ARG553  GLY616  TRP617  ASP618  TYR619  PRO620  LYS621  CYS622 
 ASP623  PHE694  ASN695  SER759  ASP760  ASP761  ALA762  ILE779  LEU786  VAL792 
 PHE793  MET794  SER795  GLU796  ALA797  LYS798  CYS799  TRP800  GLU811  SER814 

> <Gold.Protein.RotatedAtoms>
  151.6979  133.3311  159.3258 H   0  0  0  0  0  0  0  0  0  0  0  0  # atno 6907 bound_to 6896
  150.7749  134.6641  159.6365 H   0  0  0  0  0  0  0  0  0  0  0  0  # atno 6908 bound_to 6896
  152.3787  134.6626  160.0202 H   0  0  0  0  0  0  0  0  0  0  0  0  # atno 6909 bound_to 6896
  145.9559  140.7527  142.9481 H   0  0  0  0  0  0  0  0  0  0  0  0  # atno 7974 bound_to 7965
  154.9486  140.0401  157.2133 H   0  0  0  0  0  0  0  0  0  0  0  0  # atno 8008 bound_to 7997
  154.8000  140.2850  155.5906 H   0  0  0  0  0  0  0  0  0  0  0  0  # atno 8009 bound_to 7997
  156.2960  140.2557  156.2866 H   0  0  0  0  0  0  0  0  0  0  0  0  # atno 8010 bound_to 7997
  140.0268  144.5497  150.7538 H   0  0  0  0  0  0  0  0  0  0  0  0  # atno 10167 bound_to 10162
  157.6795  131.0759  150.5442 H   0  0  0  0  0  0  0  0  0  0  0  0  # atno 10718 bound_to 10713
  154.7621  135.4915  153.9485 H   0  0  0  0  0  0  0  0  0  0  0  0  # atno 10763 bound_to 10752
  153.1264  135.6743  153.9258 H   0  0  0  0  0  0  0  0  0  0  0  0  # atno 10764 bound_to 10752
  153.8974  135.3114  155.3427 H   0  0  0  0  0  0  0  0  0  0  0  0  # atno 10765 bound_to 10752
  141.1629  133.6896  156.7295 H   0  0  0  0  0  0  0  0  0  0  0  0  # atno 11005 bound_to 11000
  144.6805  140.2511  143.7331 LP  0  0  0  0  0  0  0  0  0  0  0  0  # atno 17320 bound_to 7965
  145.8107  139.2002  143.1995 LP  0  0  0  0  0  0  0  0  0  0  0  0  # atno 17321 bound_to 7965
  140.7319  143.2700  151.3920 LP  0  0  0  0  0  0  0  0  0  0  0  0  # atno 17342 bound_to 10162
  139.6103  144.1112  152.2292 LP  0  0  0  0  0  0  0  0  0  0  0  0  # atno 17343 bound_to 10162
  156.5748  130.4289  149.6003 LP  0  0  0  0  0  0  0  0  0  0  0  0  # atno 17370 bound_to 10713
  156.2710  130.7017  151.1814 LP  0  0  0  0  0  0  0  0  0  0  0  0  # atno 17371 bound_to 10713
  140.2756  134.8358  157.3887 LP  0  0  0  0  0  0  0  0  0  0  0  0  # atno 17394 bound_to 11000
  140.1481  134.4885  155.7981 LP  0  0  0  0  0  0  0  0  0  0  0  0  # atno 17395 bound_to 11000

$$$$
