AV-unprocessed.smi:188|AV-procd|sdf|1472|dock4
  -GOLD-   2262019293D 1   1.00000     0.00000
 Structure written by MMmdl.
 49 53  0  0  0  0  0  0  0  0  1 V2000
  143.5592  131.7631  148.6404 O   0  0  0  0  0  0  0  0  0  0  0  0
  144.0679  132.4845  149.4951 C   0  0  0  0  0  0  0  0  0  0  0  0
  145.2507  132.2908  150.0857 N   0  0  0  0  0  0  0  0  0  0  0  0
  145.5394  133.2402  150.9737 C   0  0  0  0  0  0  0  0  0  0  0  0
  146.5574  133.3125  151.6598 O   0  0  0  0  0  0  0  0  0  0  0  0
  144.3811  134.2371  150.9998 C   0  0  0  0  0  0  0  0  0  0  0  0
  144.7922  135.6596  150.5541 C   0  0  0  0  0  0  0  0  0  0  0  0
  145.5712  136.4164  151.6465 C   0  0  0  0  0  0  0  0  0  0  0  0
  144.8409  136.4093  152.9140 N   0  0  0  0  0  0  0  0  0  0  0  0
  145.2769  137.3230  153.8185 C   0  0  0  0  0  0  0  0  0  0  0  0
  144.9710  137.1746  155.1356 N   0  0  0  0  0  0  0  0  0  0  0  0
  145.4079  138.0608  156.0349 C   0  0  0  0  0  0  0  0  0  0  0  0
  146.1480  139.1531  155.8380 N   0  0  0  0  0  0  0  0  0  0  0  0
  146.4478  139.3172  154.5182 C   0  0  0  0  0  0  0  0  0  0  0  0
  146.0589  138.4553  153.4531 C   0  0  0  0  0  0  0  0  0  0  0  0
  146.5447  138.9465  152.2471 N   0  0  0  0  0  0  0  0  0  0  0  0
  147.1915  140.0295  152.5812 C   0  0  0  0  0  0  0  0  0  0  0  0
  147.1763  140.3335  153.9241 N   0  0  0  0  0  0  0  0  0  0  0  0
  147.8109  141.4785  154.5607 C   0  0  0  0  0  0  0  0  0  0  0  0
  148.9227  141.1107  155.5663 C   0  0  0  0  0  0  0  0  0  0  0  0
  148.4043  141.1948  157.0129 C   0  0  0  0  0  0  0  0  0  0  0  0
  148.1320  142.5307  157.3866 O   0  0  0  0  0  0  0  0  0  0  0  0
  149.7189  139.8351  155.2535 C   0  0  0  0  0  0  0  0  0  0  0  0
  150.9800  140.5202  155.4027 O   0  0  0  0  0  0  0  0  0  0  0  0
  150.2832  141.7820  155.3316 C   0  0  0  0  0  0  0  0  0  0  0  0
  144.4745  135.0839  153.4172 C   0  0  0  0  0  0  0  0  0  0  0  0
  143.6652  134.2990  152.3685 C   0  0  0  0  0  0  0  0  0  0  0  0
  143.5342  133.6049  149.9999 N   0  0  0  0  0  0  0  0  0  0  0  0
  145.8584  131.5109  149.8815 H   0  0  0  0  0  0  0  0  0  0  0  0
  145.3903  135.6196  149.6425 H   0  0  0  0  0  0  0  0  0  0  0  0
  143.8970  136.2298  150.3014 H   0  0  0  0  0  0  0  0  0  0  0  0
  146.5488  135.9592  151.8022 H   0  0  0  0  0  0  0  0  0  0  0  0
  145.7614  137.4333  151.3048 H   0  0  0  0  0  0  0  0  0  0  0  0
  145.1233  137.8666  157.0585 H   0  0  0  0  0  0  0  0  0  0  0  0
  147.6935  140.6465  151.8501 H   0  0  0  0  0  0  0  0  0  0  0  0
  148.2044  142.1212  153.7723 H   0  0  0  0  0  0  0  0  0  0  0  0
  147.0348  142.0663  155.0523 H   0  0  0  0  0  0  0  0  0  0  0  0
  147.5079  140.5917  157.1568 H   0  0  0  0  0  0  0  0  0  0  0  0
  149.1456  140.7993  157.7083 H   0  0  0  0  0  0  0  0  0  0  0  0
  148.2663  143.0862  156.6338 H   0  0  0  0  0  0  0  0  0  0  0  0
  149.5833  139.0344  155.9814 H   0  0  0  0  0  0  0  0  0  0  0  0
  149.5889  139.4629  154.2366 H   0  0  0  0  0  0  0  0  0  0  0  0
  150.3855  142.2451  154.3487 H   0  0  0  0  0  0  0  0  0  0  0  0
  150.5829  142.4727  156.1206 H   0  0  0  0  0  0  0  0  0  0  0  0
  145.3780  134.5365  153.6879 H   0  0  0  0  0  0  0  0  0  0  0  0
  143.8792  135.1833  154.3261 H   0  0  0  0  0  0  0  0  0  0  0  0
  142.6922  134.7764  152.2439 H   0  0  0  0  0  0  0  0  0  0  0  0
  143.4616  133.2948  152.7432 H   0  0  0  0  0  0  0  0  0  0  0  0
  142.6390  133.9822  149.7248 H   0  0  0  0  0  0  0  0  0  0  0  0
  1  2  2  0  0  0  0
  2 28  1  0  0  0  0
  2  3  1  0  0  0  0
  3  4  1  0  0  0  0
  3 29  1  0  0  0  0
  4  5  2  0  0  0  0
  4  6  1  0  0  0  0
  6 27  1  0  0  0  0
  6  7  1  0  0  0  0
  6 28  1  0  0  0  0
  7  8  1  0  0  0  0
  7 30  1  0  0  0  0
  7 31  1  0  0  0  0
  8  9  1  0  0  0  0
  8 32  1  0  0  0  0
  8 33  1  0  0  0  0
  9 10  1  0  0  0  0
  9 26  1  0  0  0  0
 10 15  1  0  0  0  0
 10 11  2  0  0  0  0
 11 12  1  0  0  0  0
 12 13  2  0  0  0  0
 12 34  1  0  0  0  0
 13 14  1  0  0  0  0
 14 18  1  0  0  0  0
 14 15  2  0  0  0  0
 15 16  1  0  0  0  0
 16 17  2  0  0  0  0
 17 18  1  0  0  0  0
 17 35  1  0  0  0  0
 18 19  1  0  0  0  0
 19 20  1  0  0  0  0
 19 36  1  0  0  0  0
 19 37  1  0  0  0  0
 20 25  1  0  0  0  0
 20 21  1  0  0  0  0
 20 23  1  0  0  0  0
 21 22  1  0  0  0  0
 21 38  1  0  0  0  0
 21 39  1  0  0  0  0
 22 40  1  0  0  0  0
 23 24  1  0  0  0  0
 23 41  1  0  0  0  0
 23 42  1  0  0  0  0
 24 25  1  0  0  0  0
 25 43  1  0  0  0  0
 25 44  1  0  0  0  0
 26 27  1  0  0  0  0
 26 45  1  0  0  0  0
 26 46  1  0  0  0  0
 27 47  1  0  0  0  0
 27 48  1  0  0  0  0
 28 49  1  0  0  0  0
M  END
> <s_m_source_file>
AV-unprocessed.smi

> <i_m_source_file_index>
188

> <i_lp_mmshare_version>
43012

> <i_f3d_flags>
0

> <s_epik_input>
Tz1DKFtOSF0xKVtOSF1DKD1PKUMxMltDSDJdW0NIMl1OKFtDSDJdW0NIMl0yKWMobltjSF1uMyljKGMzNCluW2NIXW40W0NIMl1DNShbQ0gyXVtPSF0pW0NIMl1PW0NIMl01

> <s_epik_cmdline>
J2VwaWtfcHl0aG9uJywgJy1waCcsICc3LjAnLCAnLXRuJywgJzgnLCAnLW1hJywgJzIwMCcsICctbWV0YWxfYmluZGluZycsICctaW1hZScsICc8aW5maWxlLm1hZT4nLCAnLW9tYWUnLCAnPG91dGZpbGUubWFlPic=

> <r_lp_tautomer_probability>
1

> <r_epik_Ionization_Penalty>
0.00868263

> <r_epik_Ionization_Penalty_Charging>
0

> <r_epik_Ionization_Penalty_Neutral>
0.00868263

> <r_epik_State_Penalty>
0.00519311

> <r_epik_Charging_Adjusted_Penalty>
0.00519311

> <i_epik_Tot_Q>
0

> <i_epik_Tot_abs_Q>
0

> <r_epik_Metal_State_Penalty>
0.404007

> <b_epik_Metal_Only>
0

> <s_lp_Force_Field>
OPLS_2005

> <r_lp_Energy>
48.5208

> <b_lp_Chiralities_Consistent>
1

> <s_lp_Variant>
AV-unprocessed.smi:188-1

> <Gold.Version>
5.8.1

> <Gold.Id.Protein>
6NUR|6NUR_protein|mol2

> <Gold.PLP.Fitness>
42.9411

> <Gold.PLP.PLP>
-33.5510

> <Gold.PLP.part.hbond>
-3.9582

> <Gold.PLP.part.metal>
0.0000

> <Gold.PLP.part.buried>
-3.7094

> <Gold.PLP.part.nonpolar>
-27.3133

> <Gold.PLP.part.repulsive>
1.2049

> <Gold.PLP.ligand.clash>
0.0000

> <Gold.PLP.ligand.torsion>
1.5312

> <Gold.PLP.Chemscore.Hbond>
3.1824

> <Gold.PLP.Chemscore.CHOScore>
0.7253

> <Gold.PLP.Chemscore.Metal>
0.0000

> <Gold.Chemscore.Hbonds>
donor molecule, donor type, donor heavy atom, donor atom, acceptor molecule, acceptor atom, score
      L1  H    22    40       P1  8028  1.00
      L1  H    28    49       P1 10186  1.00
      P1  H  7989  7998       L1    24  0.32
      P1  H 10785 10796       L1     1  0.70
      L1  C    17    35       P1  7957  0.79

> <Gold.PLP.Chemscore.Internal.Correction>
0.7293

> <Gold.Rescore>
     Score         DG    S(hbond)    S(metal)    S(lipo)     H(rot)  DE(clash)    DE(int)     intcor
      8.80     -13.29       2.62        0.00      54.78       2.88       1.44       3.05       ----

> <Gold.Chemscore.Fitness>
8.7956

> <Gold.Chemscore.DG>
-13.2865

> <Gold.Chemscore.ZeroCoef>
-5.4800

> <Gold.Chemscore.Hbond>
2.6233

> <Gold.Chemscore.Metal>
0.0000

> <Gold.Chemscore.Lipo>
54.7841

> <Gold.Chemscore.Internal_Hbond>
0.0000

> <Gold.Chemscore.DEClash>
1.4404

> <Gold.Chemscore.DEInternal>
3.0505

> <Gold.Chemscore.Rot>
2.8770

> <Gold.Chemscore.Internal.Correction>
   9.000000E+99

> <Gold.Chemscore.Hbonds>
donor molecule, donor type, donor heavy atom, donor atom, acceptor molecule, acceptor atom, score
      L1  H    22    40       P1  8028  0.43
      L1  H    28    49       P1 10186  1.00
      P1  H 10785 10796       L1     1  0.70

> <Gold.Chemscore.Hbond.Weighted>
-8.7618

> <Gold.Chemscore.Metal.Weighted>
-0.0000

> <Gold.Chemscore.Lipo.Weighted>
-6.4097

> <Gold.Chemscore.Internal_Hbond.Weighted>
0.0000

> <Gold.Chemscore.DEClash.Weighted>
1.4404

> <Gold.Chemscore.DEInternal.Weighted>
3.0505

> <Gold.Chemscore.Rot.Weighted>
7.3651

> <Gold.Chemscore.Internal.Correction.Weighted>
   9.000000E+99

> <Gold.Protein.RotatedTorsions>
[ 6907 6896 6895 6894 ] final -120.27 input  -60.11 | X-H torsion
[ 7974 7965 7964 7962 ] final  171.10 input  175.53 | X-H torsion
[ 8008 7997 7996 7995 ] final -172.21 input   59.86 | X-H torsion
[ 10167 10162 10161 10158 ] final  146.63 input  -65.29 | X-H torsion
[ 10718 10713 10712 10709 ] final  126.07 input   66.30 | X-H torsion
[ 10763 10752 10751 10750 ] final -178.56 input  -60.55 | X-H torsion
[ 11005 11000 10999 10996 ] final -157.48 input  -57.11 | X-H torsion

> <Gold.Protein.ActiveResidues>
 VAL166  LYS551  ARG553  GLY616  TRP617  ASP618  TYR619  PRO620  LYS621  CYS622 
 ASP623  PHE694  ASN695  SER759  ASP760  ASP761  ALA762  ILE779  LEU786  VAL792 
 PHE793  MET794  SER795  GLU796  ALA797  LYS798  CYS799  TRP800  GLU811  SER814 

> <Gold.Protein.RotatedAtoms>
  150.8379  133.7984  159.3072 H   0  0  0  0  0  0  0  0  0  0  0  0  # atno 6907 bound_to 6896
  151.5694  135.1061  160.0001 H   0  0  0  0  0  0  0  0  0  0  0  0  # atno 6908 bound_to 6896
  152.4448  133.7473  159.6731 H   0  0  0  0  0  0  0  0  0  0  0  0  # atno 6909 bound_to 6896
  144.7304  139.9299  143.6424 H   0  0  0  0  0  0  0  0  0  0  0  0  # atno 7974 bound_to 7965
  155.9416  140.1110  157.1051 H   0  0  0  0  0  0  0  0  0  0  0  0  # atno 8008 bound_to 7997
  154.4090  140.1218  156.5001 H   0  0  0  0  0  0  0  0  0  0  0  0  # atno 8009 bound_to 7997
  155.6954  140.3472  155.4913 H   0  0  0  0  0  0  0  0  0  0  0  0  # atno 8010 bound_to 7997
  139.4904  144.5815  151.6862 H   0  0  0  0  0  0  0  0  0  0  0  0  # atno 10167 bound_to 10162
  157.5450  131.1096  150.8796 H   0  0  0  0  0  0  0  0  0  0  0  0  # atno 10718 bound_to 10713
  154.5461  135.2809  155.1051 H   0  0  0  0  0  0  0  0  0  0  0  0  # atno 10763 bound_to 10752
  154.2515  135.6338  153.5245 H   0  0  0  0  0  0  0  0  0  0  0  0  # atno 10764 bound_to 10752
  152.9991  135.5584  154.6014 H   0  0  0  0  0  0  0  0  0  0  0  0  # atno 10765 bound_to 10752
  140.6642  134.4317  157.5233 H   0  0  0  0  0  0  0  0  0  0  0  0  # atno 11005 bound_to 11000
  146.0865  139.3854  143.0432 LP  0  0  0  0  0  0  0  0  0  0  0  0  # atno 17320 bound_to 7965
  145.7770  140.9873  143.1119 LP  0  0  0  0  0  0  0  0  0  0  0  0  # atno 17321 bound_to 7965
  140.5422  144.0561  150.6093 LP  0  0  0  0  0  0  0  0  0  0  0  0  # atno 17342 bound_to 10162
  140.3587  143.2921  152.0408 LP  0  0  0  0  0  0  0  0  0  0  0  0  # atno 17343 bound_to 10162
  156.9338  130.5359  149.5279 LP  0  0  0  0  0  0  0  0  0  0  0  0  # atno 17370 bound_to 10713
  156.0528  130.5595  150.9027 LP  0  0  0  0  0  0  0  0  0  0  0  0  # atno 17371 bound_to 10713
  139.9003  134.8572  156.1926 LP  0  0  0  0  0  0  0  0  0  0  0  0  # atno 17394 bound_to 11000
  141.0442  133.6922  156.1653 LP  0  0  0  0  0  0  0  0  0  0  0  0  # atno 17395 bound_to 11000

$$$$
