AV-unprocessed.smi:3330|AV-procd|sdf|12804|dock1
  -GOLD-   2272019163D 1   1.00000     0.00000
 Structure written by MMmdl.
 39 40  0  0  0  0  0  0  0  0  2 V2000
  147.6701  135.5780  155.5640 C   0  0  0  0  0  0  0  0  0  0  0  0
  146.6354  135.6653  154.4297 C   0  0  1  0  0  0  0  0  0  0  0  0
  146.9392  136.8645  153.6131 N   0  3  0  0  0  0  0  0  0  0  0  0
  147.3009  138.0716  154.3836 C   0  0  0  0  0  0  0  0  0  0  0  0
  147.5200  139.2722  153.4523 C   0  0  0  0  0  0  0  0  0  0  0  0
  148.2838  140.3272  154.1224 N   0  0  0  0  0  0  0  0  0  0  0  0
  149.5108  140.1642  154.6332 C   0  0  0  0  0  0  0  0  0  0  0  0
  150.1937  139.1407  154.6265 O   0  0  0  0  0  0  0  0  0  0  0  0
  149.9463  141.4709  155.2596 C   0  0  0  0  0  0  0  0  0  0  0  0
  148.7647  142.2637  154.9935 N   0  0  0  0  0  0  0  0  0  0  0  0
  147.8224  141.5725  154.3397 C   0  0  0  0  0  0  0  0  0  0  0  0
  146.7212  142.0099  154.0093 O   0  0  0  0  0  0  0  0  0  0  0  0
  146.6106  134.3870  153.5456 C   0  0  1  0  0  0  0  0  0  0  0  0
  146.3472  133.0967  154.3453 C   0  0  0  0  0  0  0  0  0  0  0  0
  145.6401  134.5061  152.4621 N   0  0  0  0  0  0  0  0  0  0  0  0
  145.6599  135.3454  151.3648 C   0  0  0  0  0  0  0  0  0  0  0  0
  144.5644  135.0512  150.6050 C   0  0  0  0  0  0  0  0  0  0  0  0
  143.9289  133.9989  151.3205 C   0  0  0  0  0  0  0  0  0  0  0  0
  144.5786  133.6698  152.4249 N   0  0  0  0  0  0  0  0  0  0  0  0
  147.4313  134.7822  156.2695 H   0  0  0  0  0  0  0  0  0  0  0  0
  147.7016  136.5064  156.1355 H   0  0  0  0  0  0  0  0  0  0  0  0
  148.6723  135.3931  155.1759 H   0  0  0  0  0  0  0  0  0  0  0  0
  145.6562  135.7937  154.8948 H   0  0  0  0  0  0  0  0  0  0  0  0
  147.7101  136.6473  152.9979 H   0  0  0  0  0  0  0  0  0  0  0  0
  146.5116  138.3055  155.0972 H   0  0  0  0  0  0  0  0  0  0  0  0
  148.2025  137.8673  154.9623 H   0  0  0  0  0  0  0  0  0  0  0  0
  148.0348  138.9532  152.5443 H   0  0  0  0  0  0  0  0  0  0  0  0
  146.5572  139.6687  153.1243 H   0  0  0  0  0  0  0  0  0  0  0  0
  150.1279  141.3654  156.3295 H   0  0  0  0  0  0  0  0  0  0  0  0
  150.8270  141.8818  154.7652 H   0  0  0  0  0  0  0  0  0  0  0  0
  148.6720  143.2268  155.2830 H   0  0  0  0  0  0  0  0  0  0  0  0
  147.5947  134.2764  153.0855 H   0  0  0  0  0  0  0  0  0  0  0  0
  147.1670  132.8717  155.0268 H   0  0  0  0  0  0  0  0  0  0  0  0
  146.2455  132.2380  153.6806 H   0  0  0  0  0  0  0  0  0  0  0  0
  145.4336  133.1691  154.9360 H   0  0  0  0  0  0  0  0  0  0  0  0
  146.4452  136.0710  151.2125 H   0  0  0  0  0  0  0  0  0  0  0  0
  144.2645  135.5134  149.6762 H   0  0  0  0  0  0  0  0  0  0  0  0
  143.0255  133.4634  151.0685 H   0  0  0  0  0  0  0  0  0  0  0  0
  146.1271  137.0710  153.0484 H   0  0  0  0  0  0  0  0  0  0  0  0
  1  2  1  0  0  0  0
  1 20  1  0  0  0  0
  1 21  1  0  0  0  0
  1 22  1  0  0  0  0
  2  3  1  0  0  0  0
  2 13  1  0  0  0  0
  2 23  1  0  0  0  0
  3  4  1  0  0  0  0
  3 24  1  0  0  0  0
  3 39  1  0  0  0  0
  4  5  1  0  0  0  0
  4 25  1  0  0  0  0
  4 26  1  0  0  0  0
  5  6  1  0  0  0  0
  5 27  1  0  0  0  0
  5 28  1  0  0  0  0
  6 11  1  0  0  0  0
  6  7  1  0  0  0  0
  7  8  2  0  0  0  0
  7  9  1  0  0  0  0
  9 10  1  0  0  0  0
  9 29  1  0  0  0  0
  9 30  1  0  0  0  0
 10 11  1  0  0  0  0
 10 31  1  0  0  0  0
 11 12  2  0  0  0  0
 13 14  1  0  0  0  0
 13 15  1  0  0  0  0
 13 32  1  0  0  0  0
 14 33  1  0  0  0  0
 14 34  1  0  0  0  0
 14 35  1  0  0  0  0
 15 19  1  0  0  0  0
 15 16  1  0  0  0  0
 16 17  2  0  0  0  0
 16 36  1  0  0  0  0
 17 18  1  0  0  0  0
 17 37  1  0  0  0  0
 18 19  2  0  0  0  0
 18 38  1  0  0  0  0
M  CHG  1   3   1
M  END
> <s_m_source_file>
AV-unprocessed.smi

> <i_m_source_file_index>
3330

> <i_lp_mmshare_version>
43012

> <i_f3d_flags>
0

> <s_epik_input>
bjFbY0hdW2NIXVtjSF1uMVtDQEBIXShbQ0gzXSlbQ0BIXShbQ0gzXSlbTkhdW0NIMl1bQ0gyXU4yQyg9TylbQ0gyXVtOSF1DMj1P

> <s_epik_cmdline>
J2VwaWtfcHl0aG9uJywgJy1waCcsICc3LjAnLCAnLXRuJywgJzgnLCAnLW1hJywgJzIwMCcsICctbWV0YWxfYmluZGluZycsICctaW1hZScsICc8aW5maWxlLm1hZT4nLCAnLW9tYWUnLCAnPG91dGZpbGUubWFlPic=

> <r_lp_tautomer_probability>
1

> <r_epik_Ionization_Penalty>
0.0124905

> <r_epik_Ionization_Penalty_Charging>
0.0123685

> <r_epik_Ionization_Penalty_Neutral>
0.000122059

> <r_epik_State_Penalty>
0.00957041

> <r_epik_Charging_Adjusted_Penalty>
0.0219389

> <i_epik_Tot_Q>
1

> <i_epik_Tot_abs_Q>
1

> <r_epik_Metal_State_Penalty>
0.0858301

> <b_epik_Metal_Only>
0

> <s_lp_Force_Field>
OPLS_2005

> <r_lp_Energy>
25.1369

> <b_lp_Chiralities_Consistent>
1

> <s_lp_Variant>
AV-unprocessed.smi:3330-4

> <Gold.Version>
5.8.1

> <Gold.Id.Protein>
6NUR|6NUR_protein|mol2

> <Gold.PLP.Fitness>
41.6882

> <Gold.PLP.PLP>
-27.2487

> <Gold.PLP.part.hbond>
-1.9919

> <Gold.PLP.part.metal>
0.0000

> <Gold.PLP.part.buried>
-3.9310

> <Gold.PLP.part.nonpolar>
-22.2084

> <Gold.PLP.part.repulsive>
0.6127

> <Gold.PLP.ligand.clash>
0.0061

> <Gold.PLP.ligand.torsion>
0.3800

> <Gold.PLP.Chemscore.Hbond>
3.0000

> <Gold.PLP.Chemscore.CHOScore>
2.0000

> <Gold.PLP.Chemscore.Metal>
0.0000

> <Gold.Chemscore.Hbonds>
donor molecule, donor type, donor heavy atom, donor atom, acceptor molecule, acceptor atom, score
      L1  H     3    24       P1  7948  2.00
      L1  H    10    31       P1  8028  1.00
      L1  C    16    36       P1  7948  0.94
      L1  C    18    38       P1 10186  0.53

> <Gold.PLP.Chemscore.Internal.Correction>
0.2054

> <Gold.Rescore>
     Score         DG    S(hbond)    S(metal)    S(lipo)     H(rot)  DE(clash)    DE(int)     intcor
      9.99     -10.51       1.98        0.00      44.77       2.67       0.02       0.50       ----

> <Gold.Chemscore.Fitness>
9.9851

> <Gold.Chemscore.DG>
-10.5064

> <Gold.Chemscore.ZeroCoef>
-5.4800

> <Gold.Chemscore.Hbond>
1.9805

> <Gold.Chemscore.Metal>
0.0000

> <Gold.Chemscore.Lipo>
44.7682

> <Gold.Chemscore.Internal_Hbond>
0.0000

> <Gold.Chemscore.DEClash>
0.0166

> <Gold.Chemscore.DEInternal>
0.5047

> <Gold.Chemscore.Rot>
2.6666

> <Gold.Chemscore.Internal.Correction>
   9.000000E+99

> <Gold.Chemscore.Hbonds>
donor molecule, donor type, donor heavy atom, donor atom, acceptor molecule, acceptor atom, score
      L1  H     3    24       P1  7948  1.00
      L1  H    10    31       P1  8028  0.94

> <Gold.Chemscore.Hbond.Weighted>
-6.6150

> <Gold.Chemscore.Metal.Weighted>
-0.0000

> <Gold.Chemscore.Lipo.Weighted>
-5.2379

> <Gold.Chemscore.Internal_Hbond.Weighted>
0.0000

> <Gold.Chemscore.DEClash.Weighted>
0.0166

> <Gold.Chemscore.DEInternal.Weighted>
0.5047

> <Gold.Chemscore.Rot.Weighted>
6.8265

> <Gold.Chemscore.Internal.Correction.Weighted>
   9.000000E+99

> <Gold.Protein.RotatedTorsions>
[ 6907 6896 6895 6894 ] final   99.99 input  -60.11 | X-H torsion
[ 7974 7965 7964 7962 ] final -158.87 input  175.53 | X-H torsion
[ 8008 7997 7996 7995 ] final -124.52 input   59.86 | X-H torsion
[ 10167 10162 10161 10158 ] final   -2.41 input  -65.29 | X-H torsion
[ 10718 10713 10712 10709 ] final -160.57 input   66.30 | X-H torsion
[ 10763 10752 10751 10750 ] final  122.44 input  -60.55 | X-H torsion
[ 11005 11000 10999 10996 ] final  -19.44 input  -57.11 | X-H torsion

> <Gold.Protein.ActiveResidues>
 VAL166  LYS551  ARG553  GLY616  TRP617  ASP618  TYR619  PRO620  LYS621  CYS622 
 ASP623  PHE694  ASN695  SER759  ASP760  ASP761  ALA762  ILE779  LEU786  VAL792 
 PHE793  MET794  SER795  GLU796  ALA797  LYS798  CYS799  TRP800  GLU811  SER814 

> <Gold.Protein.RotatedAtoms>
  152.5381  134.0344  159.8039 H   0  0  0  0  0  0  0  0  0  0  0  0  # atno 6907 bound_to 6896
  151.0510  133.5616  159.2649 H   0  0  0  0  0  0  0  0  0  0  0  0  # atno 6908 bound_to 6896
  151.2550  135.0643  159.9130 H   0  0  0  0  0  0  0  0  0  0  0  0  # atno 6909 bound_to 6896
  144.7488  140.3766  143.6064 H   0  0  0  0  0  0  0  0  0  0  0  0  # atno 7974 bound_to 7965
  155.1982  140.0415  157.2912 H   0  0  0  0  0  0  0  0  0  0  0  0  # atno 8008 bound_to 7997
  154.6093  140.2472  155.7662 H   0  0  0  0  0  0  0  0  0  0  0  0  # atno 8009 bound_to 7997
  156.2369  140.2918  156.0346 H   0  0  0  0  0  0  0  0  0  0  0  0  # atno 8010 bound_to 7997
  140.6850  143.6661  150.8225 H   0  0  0  0  0  0  0  0  0  0  0  0  # atno 10167 bound_to 10162
  156.5839  130.8741  151.2872 H   0  0  0  0  0  0  0  0  0  0  0  0  # atno 10718 bound_to 10713
  153.6298  135.3398  155.3038 H   0  0  0  0  0  0  0  0  0  0  0  0  # atno 10763 bound_to 10752
  154.8582  135.4293  154.2117 H   0  0  0  0  0  0  0  0  0  0  0  0  # atno 10764 bound_to 10752
  153.3011  135.7024  153.7276 H   0  0  0  0  0  0  0  0  0  0  0  0  # atno 10765 bound_to 10752
  140.8367  133.7957  155.9816 H   0  0  0  0  0  0  0  0  0  0  0  0  # atno 11005 bound_to 11000
  145.7022  139.1664  143.2586 LP  0  0  0  0  0  0  0  0  0  0  0  0  # atno 17320 bound_to 7965
  146.1407  140.7061  142.9368 LP  0  0  0  0  0  0  0  0  0  0  0  0  # atno 17321 bound_to 7965
  140.0366  143.5389  152.2736 LP  0  0  0  0  0  0  0  0  0  0  0  0  # atno 17342 bound_to 10162
  139.6201  144.7627  151.2760 LP  0  0  0  0  0  0  0  0  0  0  0  0  # atno 17343 bound_to 10162
  157.7320  130.9708  150.1906 LP  0  0  0  0  0  0  0  0  0  0  0  0  # atno 17370 bound_to 10713
  156.2607  130.3710  149.8133 LP  0  0  0  0  0  0  0  0  0  0  0  0  # atno 17371 bound_to 10713
  140.8940  134.2460  157.5079 LP  0  0  0  0  0  0  0  0  0  0  0  0  # atno 17394 bound_to 11000
  139.8704  134.9675  156.4598 LP  0  0  0  0  0  0  0  0  0  0  0  0  # atno 17395 bound_to 11000

$$$$
