AV-unprocessed.smi:1679|AV-procd|sdf|6734|dock2
  -GOLD-   22720 7483D 1   1.00000     0.00000
 Structure written by MMmdl.
 44 45  0  0  0  0  0  0  0  0  2 V2000
  146.1205  130.1205  151.9013 C   0  0  0  0  0  0  0  0  0  0  0  0
  145.7187  131.3690  151.1022 C   0  0  1  0  0  0  0  0  0  0  0  0
  144.2306  131.7198  151.2952 C   0  0  0  0  0  0  0  0  0  0  0  0
  143.8218  132.9247  150.4337 C   0  0  0  0  0  0  0  0  0  0  0  0
  144.7088  134.1437  150.7279 C   0  0  0  0  0  0  0  0  0  0  0  0
  146.1996  133.8061  150.5546 C   0  0  0  0  0  0  0  0  0  0  0  0
  146.6189  132.5912  151.4036 C   0  0  1  0  0  0  0  0  0  0  0  0
  146.5086  132.9635  152.7738 O   0  0  0  0  0  0  0  0  0  0  0  0
  147.6278  133.6747  153.2800 C   0  0  0  0  0  0  0  0  0  0  0  0
  148.6860  132.6752  153.7728 C   0  0  0  0  0  0  0  0  0  0  0  0
  149.8414  133.3383  154.3691 N   0  0  0  0  0  0  0  0  0  0  0  0
  149.7967  134.2050  155.3920 C   0  0  0  0  0  0  0  0  0  0  0  0
  148.7514  134.5338  155.9537 O   0  0  0  0  0  0  0  0  0  0  0  0
  151.1405  134.7607  155.8783 C   0  0  0  0  0  0  0  0  0  0  0  0
  151.2220  136.2203  155.7157 N   0  0  0  0  0  0  0  0  0  0  0  0
  151.2201  136.7356  154.4075 C   0  0  0  0  0  0  0  0  0  0  0  0
  151.3157  138.0567  154.1642 C   0  0  0  0  0  0  0  0  0  0  0  0
  151.4234  138.9618  155.3017 C   0  0  0  0  0  0  0  0  0  0  0  0
  151.5145  140.1709  155.0988 O   0  0  0  0  0  0  0  0  0  0  0  0
  151.4171  138.4136  156.5518 N   0  5  0  0  0  0  0  0  0  0  0  0
  151.3181  137.0680  156.7836 C   0  0  0  0  0  0  0  0  0  0  0  0
  151.3145  136.5949  157.9202 O   0  0  0  0  0  0  0  0  0  0  0  0
  145.9918  130.2751  152.9715 H   0  0  0  0  0  0  0  0  0  0  0  0
  147.1637  129.8584  151.7252 H   0  0  0  0  0  0  0  0  0  0  0  0
  145.5113  129.2611  151.6198 H   0  0  0  0  0  0  0  0  0  0  0  0
  145.8570  131.1196  150.0491 H   0  0  0  0  0  0  0  0  0  0  0  0
  143.6076  130.8612  151.0430 H   0  0  0  0  0  0  0  0  0  0  0  0
  144.0363  131.9432  152.3446 H   0  0  0  0  0  0  0  0  0  0  0  0
  143.8984  132.6616  149.3781 H   0  0  0  0  0  0  0  0  0  0  0  0
  142.7760  133.1733  150.6157 H   0  0  0  0  0  0  0  0  0  0  0  0
  144.4361  134.9687  150.0696 H   0  0  0  0  0  0  0  0  0  0  0  0
  144.5266  134.4892  151.7462 H   0  0  0  0  0  0  0  0  0  0  0  0
  146.4002  133.5973  149.5031 H   0  0  0  0  0  0  0  0  0  0  0  0
  146.8095  134.6713  150.8162 H   0  0  0  0  0  0  0  0  0  0  0  0
  147.6526  132.3473  151.1499 H   0  0  0  0  0  0  0  0  0  0  0  0
  148.0470  134.3335  152.5192 H   0  0  0  0  0  0  0  0  0  0  0  0
  147.3082  134.3073  154.1091 H   0  0  0  0  0  0  0  0  0  0  0  0
  148.2447  131.9904  154.4984 H   0  0  0  0  0  0  0  0  0  0  0  0
  149.0333  132.0632  152.9401 H   0  0  0  0  0  0  0  0  0  0  0  0
  150.7436  133.1330  153.9647 H   0  0  0  0  0  0  0  0  0  0  0  0
  151.2571  134.4959  156.9299 H   0  0  0  0  0  0  0  0  0  0  0  0
  151.9669  134.2619  155.3685 H   0  0  0  0  0  0  0  0  0  0  0  0
  151.1451  135.9964  153.6235 H   0  0  0  0  0  0  0  0  0  0  0  0
  151.3166  138.4365  153.1532 H   0  0  0  0  0  0  0  0  0  0  0  0
  1  2  1  0  0  0  0
  1 23  1  0  0  0  0
  1 24  1  0  0  0  0
  1 25  1  0  0  0  0
  2  7  1  0  0  0  0
  2  3  1  0  0  0  0
  2 26  1  0  0  0  0
  3  4  1  0  0  0  0
  3 27  1  0  0  0  0
  3 28  1  0  0  0  0
  4  5  1  0  0  0  0
  4 29  1  0  0  0  0
  4 30  1  0  0  0  0
  5  6  1  0  0  0  0
  5 31  1  0  0  0  0
  5 32  1  0  0  0  0
  6  7  1  0  0  0  0
  6 33  1  0  0  0  0
  6 34  1  0  0  0  0
  7  8  1  0  0  0  0
  7 35  1  0  0  0  0
  8  9  1  0  0  0  0
  9 10  1  0  0  0  0
  9 36  1  0  0  0  0
  9 37  1  0  0  0  0
 10 11  1  0  0  0  0
 10 38  1  0  0  0  0
 10 39  1  0  0  0  0
 11 12  1  0  0  0  0
 11 40  1  0  0  0  0
 12 13  2  0  0  0  0
 12 14  1  0  0  0  0
 14 15  1  0  0  0  0
 14 41  1  0  0  0  0
 14 42  1  0  0  0  0
 15 21  1  0  0  0  0
 15 16  1  0  0  0  0
 16 17  2  0  0  0  0
 16 43  1  0  0  0  0
 17 18  1  0  0  0  0
 17 44  1  0  0  0  0
 18 19  2  0  0  0  0
 18 20  1  0  0  0  0
 20 21  1  0  0  0  0
 21 22  2  0  0  0  0
M  CHG  1  20  -1
M  END
> <s_m_source_file>
AV-unprocessed.smi

> <i_m_source_file_index>
1679

> <i_lp_mmshare_version>
43012

> <i_f3d_flags>
0

> <s_epik_input>
W0NIM11bQ0BASF0xW0NIMl1bQ0gyXVtDSDJdW0NIMl1bQ0BIXTFPW0NIMl1bQ0gyXVtOSF1DKD1PKVtDSDJdbjJbY0hdW2NIXWMoPU8pW25IXWMyPU8=

> <s_epik_cmdline>
J2VwaWtfcHl0aG9uJywgJy1waCcsICc3LjAnLCAnLXRuJywgJzgnLCAnLW1hJywgJzIwMCcsICctbWV0YWxfYmluZGluZycsICctaW1hZScsICc8aW5maWxlLm1hZT4nLCAnLW9tYWUnLCAnPG91dGZpbGUubWFlPic=

> <r_lp_tautomer_probability>
0.999537

> <r_epik_Ionization_Penalty>
3.07454

> <r_epik_Ionization_Penalty_Charging>
2.80088e-08

> <r_epik_Ionization_Penalty_Neutral>
3.07454

> <r_epik_State_Penalty>
3.07357

> <r_epik_Charging_Adjusted_Penalty>
3.07357

> <i_epik_Tot_Q>
-1

> <i_epik_Tot_abs_Q>
1

> <r_epik_Metal_State_Penalty>
0.45948

> <b_epik_Metal_Only>
1

> <s_lp_Force_Field>
OPLS_2005

> <r_lp_Energy>
19.3996

> <b_lp_Chiralities_Consistent>
1

> <s_lp_Variant>
AV-unprocessed.smi:1679-6

> <Gold.Version>
5.8.1

> <Gold.Id.Protein>
6NUR|6NUR_protein|mol2

> <Gold.PLP.Fitness>
41.5340

> <Gold.PLP.PLP>
-35.4154

> <Gold.PLP.part.hbond>
-1.9562

> <Gold.PLP.part.metal>
0.0000

> <Gold.PLP.part.buried>
-3.1950

> <Gold.PLP.part.nonpolar>
-30.6399

> <Gold.PLP.part.repulsive>
0.1790

> <Gold.PLP.ligand.clash>
0.0000

> <Gold.PLP.ligand.torsion>
0.4468

> <Gold.PLP.Chemscore.Hbond>
1.3318

> <Gold.PLP.Chemscore.CHOScore>
0.9757

> <Gold.PLP.Chemscore.Metal>
0.0000

> <Gold.Chemscore.Hbonds>
donor molecule, donor type, donor heavy atom, donor atom, acceptor molecule, acceptor atom, score
      P1  H  7989  7998       L1    19  1.00
      L1  C    16    43       P1  7949  1.00

> <Gold.PLP.Chemscore.Internal.Correction>
0.0898

> <Gold.Rescore>
     Score         DG    S(hbond)    S(metal)    S(lipo)     H(rot)  DE(clash)    DE(int)     intcor
     13.04     -13.60       1.25        0.00      87.30       2.45       0.04       0.52       ----

> <Gold.Chemscore.Fitness>
13.0409

> <Gold.Chemscore.DG>
-13.6045

> <Gold.Chemscore.ZeroCoef>
-5.4800

> <Gold.Chemscore.Hbond>
1.2514

> <Gold.Chemscore.Metal>
0.0000

> <Gold.Chemscore.Lipo>
87.3002

> <Gold.Chemscore.Internal_Hbond>
0.0000

> <Gold.Chemscore.DEClash>
0.0448

> <Gold.Chemscore.DEInternal>
0.5187

> <Gold.Chemscore.Rot>
2.4490

> <Gold.Chemscore.Internal.Correction>
   9.000000E+99

> <Gold.Chemscore.Hbonds>
donor molecule, donor type, donor heavy atom, donor atom, acceptor molecule, acceptor atom, score
      P1  H  6896  6907       L1    22  0.04
      P1  H  7989  7998       L1    19  0.95

> <Gold.Chemscore.Hbond.Weighted>
-4.1797

> <Gold.Chemscore.Metal.Weighted>
-0.0000

> <Gold.Chemscore.Lipo.Weighted>
-10.2141

> <Gold.Chemscore.Internal_Hbond.Weighted>
0.0000

> <Gold.Chemscore.DEClash.Weighted>
0.0448

> <Gold.Chemscore.DEInternal.Weighted>
0.5187

> <Gold.Chemscore.Rot.Weighted>
6.2694

> <Gold.Chemscore.Internal.Correction.Weighted>
   9.000000E+99

> <Gold.Protein.RotatedTorsions>
[ 6907 6896 6895 6894 ] final  -28.33 input  -60.11 | X-H torsion
[ 7974 7965 7964 7962 ] final -131.89 input  175.53 | X-H torsion
[ 8008 7997 7996 7995 ] final  146.27 input   59.86 | X-H torsion
[ 10167 10162 10161 10158 ] final  -60.34 input  -65.29 | X-H torsion
[ 10718 10713 10712 10709 ] final  -98.35 input   66.30 | X-H torsion
[ 10763 10752 10751 10750 ] final  115.57 input  -60.55 | X-H torsion
[ 11005 11000 10999 10996 ] final  147.41 input  -57.11 | X-H torsion

> <Gold.Protein.ActiveResidues>
 VAL166  LYS551  ARG553  GLY616  TRP617  ASP618  TYR619  PRO620  LYS621  CYS622 
 ASP623  PHE694  ASN695  SER759  ASP760  ASP761  ALA762  ILE779  LEU786  VAL792 
 PHE793  MET794  SER795  GLU796  ALA797  LYS798  CYS799  TRP800  GLU811  SER814 

> <Gold.Protein.RotatedAtoms>
  151.1345  135.0147  159.8597 H   0  0  0  0  0  0  0  0  0  0  0  0  # atno 6907 bound_to 6896
  152.5451  134.1572  159.8553 H   0  0  0  0  0  0  0  0  0  0  0  0  # atno 6908 bound_to 6896
  151.1641  133.4780  159.2627 H   0  0  0  0  0  0  0  0  0  0  0  0  # atno 6909 bound_to 6896
  144.9336  140.7157  143.4890 H   0  0  0  0  0  0  0  0  0  0  0  0  # atno 7974 bound_to 7965
  156.2860  140.2187  156.5349 H   0  0  0  0  0  0  0  0  0  0  0  0  # atno 8008 bound_to 7997
  154.7418  140.0487  157.0839 H   0  0  0  0  0  0  0  0  0  0  0  0  # atno 8009 bound_to 7997
  155.0221  140.3125  155.4792 H   0  0  0  0  0  0  0  0  0  0  0  0  # atno 8010 bound_to 7997
  140.6077  143.2378  151.5782 H   0  0  0  0  0  0  0  0  0  0  0  0  # atno 10167 bound_to 10162
  156.0105  130.5234  150.6510 H   0  0  0  0  0  0  0  0  0  0  0  0  # atno 10718 bound_to 10713
  153.5241  135.3591  155.2646 H   0  0  0  0  0  0  0  0  0  0  0  0  # atno 10763 bound_to 10752
  154.8732  135.4052  154.3226 H   0  0  0  0  0  0  0  0  0  0  0  0  # atno 10764 bound_to 10752
  153.3902  135.7071  153.6568 H   0  0  0  0  0  0  0  0  0  0  0  0  # atno 10765 bound_to 10752
  140.0874  134.9061  157.1597 H   0  0  0  0  0  0  0  0  0  0  0  0  # atno 11005 bound_to 11000
  145.3102  139.1821  143.4643 LP  0  0  0  0  0  0  0  0  0  0  0  0  # atno 17320 bound_to 7965
  146.3257  140.3105  142.8626 LP  0  0  0  0  0  0  0  0  0  0  0  0  # atno 17321 bound_to 7965
  139.5337  144.2841  152.1205 LP  0  0  0  0  0  0  0  0  0  0  0  0  # atno 17342 bound_to 10162
  140.2034  144.4635  150.6420 LP  0  0  0  0  0  0  0  0  0  0  0  0  # atno 17343 bound_to 10162
  157.4271  131.0844  151.1074 LP  0  0  0  0  0  0  0  0  0  0  0  0  # atno 17370 bound_to 10713
  157.1659  130.6246  149.5625 LP  0  0  0  0  0  0  0  0  0  0  0  0  # atno 17371 bound_to 10713
  140.3401  134.2713  155.7213 LP  0  0  0  0  0  0  0  0  0  0  0  0  # atno 17394 bound_to 11000
  141.2067  133.7826  157.0163 LP  0  0  0  0  0  0  0  0  0  0  0  0  # atno 17395 bound_to 11000

$$$$
