AV-unprocessed.smi:110|AV-procd|sdf|1071|dock10
  -GOLD-   2262018153D 1   1.00000     0.00000
 Structure written by MMmdl.
 46 50  0  0  0  0  0  0  0  0  1 V2000
  146.6507  143.1857  155.3570 O   0  0  0  0  0  0  0  0  0  0  0  0
  146.5873  141.7794  155.2543 C   0  0  0  0  0  0  0  0  0  0  0  0
  146.8908  141.3452  153.8004 C   0  0  1  0  0  0  0  0  0  0  0  0
  148.2399  141.6492  153.4601 O   0  0  0  0  0  0  0  0  0  0  0  0
  149.1043  140.6121  153.8253 C   0  0  1  0  0  0  0  0  0  0  0  0
  149.8085  140.9934  155.0989 N   0  0  0  0  0  0  0  0  0  0  0  0
  149.4892  141.9964  155.9908 C   0  0  0  0  0  0  0  0  0  0  0  0
  150.2625  142.0853  157.0375 N   0  0  0  0  0  0  0  0  0  0  0  0
  151.1644  141.0402  156.8865 C   0  0  0  0  0  0  0  0  0  0  0  0
  152.2565  140.5460  157.6559 C   0  0  0  0  0  0  0  0  0  0  0  0
  152.6873  141.0909  158.8173 N   0  0  0  0  0  0  0  0  0  0  0  0
  153.2745  140.2232  159.8480 C   0  0  0  0  0  0  0  0  0  0  0  0
  153.2608  141.0045  161.1756 C   0  0  0  0  0  0  0  0  0  0  0  0
  152.7364  142.3292  160.7228 C   0  0  0  0  0  0  0  0  0  0  0  0
  152.5636  143.4878  161.4997 C   0  0  0  0  0  0  0  0  0  0  0  0
  152.0741  144.6484  160.8633 C   0  0  0  0  0  0  0  0  0  0  0  0
  151.7801  144.6349  159.4800 C   0  0  0  0  0  0  0  0  0  0  0  0
  151.9637  143.4596  158.7189 C   0  0  0  0  0  0  0  0  0  0  0  0
  152.4317  142.2972  159.3658 C   0  0  0  0  0  0  0  0  0  0  0  0
  152.8749  139.4195  157.2200 N   0  0  0  0  0  0  0  0  0  0  0  0
  152.4813  138.8350  156.0860 C   0  0  0  0  0  0  0  0  0  0  0  0
  151.5031  139.2007  155.2566 N   0  0  0  0  0  0  0  0  0  0  0  0
  150.8602  140.3222  155.6951 C   0  0  0  0  0  0  0  0  0  0  0  0
  148.2258  139.3555  154.0111 C   0  0  2  0  0  0  0  0  0  0  0  0
  148.6668  138.2827  153.2040 O   0  0  0  0  0  0  0  0  0  0  0  0
  146.8589  139.8343  153.5361 C   0  0  1  0  0  0  0  0  0  0  0  0
  145.8062  139.1755  154.2131 O   0  0  0  0  0  0  0  0  0  0  0  0
  146.2081  141.8554  153.1195 H   0  0  0  0  0  0  0  0  0  0  0  0
  149.9082  140.5031  153.0963 H   0  0  0  0  0  0  0  0  0  0  0  0
  148.1778  139.0606  155.0593 H   0  0  0  0  0  0  0  0  0  0  0  0
  146.7521  139.6721  152.4620 H   0  0  0  0  0  0  0  0  0  0  0  0
  147.5569  143.4501  155.3107 H   0  0  0  0  0  0  0  0  0  0  0  0
  147.2526  141.3187  155.9824 H   0  0  0  0  0  0  0  0  0  0  0  0
  145.5733  141.4956  155.5345 H   0  0  0  0  0  0  0  0  0  0  0  0
  148.6609  142.6741  155.8457 H   0  0  0  0  0  0  0  0  0  0  0  0
  152.7112  139.2932  159.9365 H   0  0  0  0  0  0  0  0  0  0  0  0
  154.2967  139.9687  159.5654 H   0  0  0  0  0  0  0  0  0  0  0  0
  152.5866  140.5574  161.9065 H   0  0  0  0  0  0  0  0  0  0  0  0
  154.2561  141.1004  161.6099 H   0  0  0  0  0  0  0  0  0  0  0  0
  152.8039  143.4917  162.5524 H   0  0  0  0  0  0  0  0  0  0  0  0
  151.9316  145.5542  161.4339 H   0  0  0  0  0  0  0  0  0  0  0  0
  151.4169  145.5318  159.0005 H   0  0  0  0  0  0  0  0  0  0  0  0
  151.7519  143.4614  157.6601 H   0  0  0  0  0  0  0  0  0  0  0  0
  153.0289  137.9490  155.8008 H   0  0  0  0  0  0  0  0  0  0  0  0
  148.8571  138.6148  152.3399 H   0  0  0  0  0  0  0  0  0  0  0  0
  145.0033  139.3344  153.7403 H   0  0  0  0  0  0  0  0  0  0  0  0
  1  2  1  0  0  0  0
  1 32  1  0  0  0  0
  2  3  1  0  0  0  0
  2 33  1  0  0  0  0
  2 34  1  0  0  0  0
  3 28  1  0  0  0  0
  3 26  1  0  0  0  0
  3  4  1  0  0  0  0
  4  5  1  0  0  0  0
  5 29  1  0  0  0  0
  5  6  1  0  0  0  0
  5 24  1  0  0  0  0
  6 23  1  0  0  0  0
  6  7  1  0  0  0  0
  7  8  2  0  0  0  0
  7 35  1  0  0  0  0
  8  9  1  0  0  0  0
  9 23  2  0  0  0  0
  9 10  1  0  0  0  0
 10 11  1  0  0  0  0
 10 20  2  0  0  0  0
 11 19  1  0  0  0  0
 11 12  1  0  0  0  0
 12 13  1  0  0  0  0
 12 36  1  0  0  0  0
 12 37  1  0  0  0  0
 13 14  1  0  0  0  0
 13 38  1  0  0  0  0
 13 39  1  0  0  0  0
 14 19  2  0  0  0  0
 14 15  1  0  0  0  0
 15 16  2  0  0  0  0
 15 40  1  0  0  0  0
 16 17  1  0  0  0  0
 16 41  1  0  0  0  0
 17 18  2  0  0  0  0
 17 42  1  0  0  0  0
 18 19  1  0  0  0  0
 18 43  1  0  0  0  0
 20 21  1  0  0  0  0
 21 22  2  0  0  0  0
 21 44  1  0  0  0  0
 22 23  1  0  0  0  0
 24 30  1  0  0  0  0
 24 25  1  0  0  0  0
 24 26  1  0  0  0  0
 25 45  1  0  0  0  0
 26 31  1  0  0  0  0
 26 27  1  0  0  0  0
 27 46  1  0  0  0  0
M  END
> <s_m_source_file>
AV-unprocessed.smi

> <i_m_source_file_index>
110

> <i_lp_mmshare_version>
43012

> <i_f3d_flags>
0

> <s_epik_input>
W09IXVtDSDJdW0NASF0xT1tDQEhdKFtDQEhdKFtPSF0pW0NAQEhdMVtPSF0pbihbY0hdbjIpYyhjMjMpbltjSF1uYzNOKFtDSDJdW0NIMl00KWMoYzQ1KVtjSF1bY0hdW2NIXVtjSF01

> <s_epik_cmdline>
J2VwaWtfcHl0aG9uJywgJy1waCcsICc3LjAnLCAnLXRuJywgJzgnLCAnLW1hJywgJzIwMCcsICctbWV0YWxfYmluZGluZycsICctaW1hZScsICc8aW5maWxlLm1hZT4nLCAnLW9tYWUnLCAnPG91dGZpbGUubWFlPic=

> <r_lp_tautomer_probability>
1

> <r_epik_Ionization_Penalty>
0.00068475

> <r_epik_Ionization_Penalty_Charging>
0

> <r_epik_Ionization_Penalty_Neutral>
0.00068475

> <r_epik_State_Penalty>
0.000417442

> <r_epik_Charging_Adjusted_Penalty>
0.000417442

> <i_epik_Tot_Q>
0

> <i_epik_Tot_abs_Q>
0

> <r_epik_Metal_State_Penalty>
-0

> <b_epik_Metal_Only>
0

> <s_epik_Chemistry_Notes>
This compound contains an acetal/aminal-like group ( X-CH(R)-Y where X, Y are N, S, or O) that may be acid/base labile, releasing an aldehyde.

> <s_lp_Force_Field>
OPLS_2005

> <r_lp_Energy>
59.87

> <b_lp_Chiralities_Consistent>
1

> <s_lp_Variant>
AV-unprocessed.smi:110-9

> <Gold.Version>
5.8.1

> <Gold.Id.Protein>
6NUR|6NUR_protein|mol2

> <Gold.PLP.Fitness>
62.6101

> <Gold.PLP.PLP>
-49.7218

> <Gold.PLP.part.hbond>
-5.7608

> <Gold.PLP.part.metal>
0.0000

> <Gold.PLP.part.buried>
4.8630

> <Gold.PLP.part.nonpolar>
-48.4004

> <Gold.PLP.part.repulsive>
0.3538

> <Gold.PLP.ligand.clash>
0.0000

> <Gold.PLP.ligand.torsion>
0.5647

> <Gold.PLP.Chemscore.Hbond>
3.7515

> <Gold.PLP.Chemscore.CHOScore>
0.8806

> <Gold.PLP.Chemscore.Metal>
0.0000

> <Gold.Chemscore.Hbonds>
donor molecule, donor type, donor heavy atom, donor atom, acceptor molecule, acceptor atom, score
      L1  H     1    32       P1  8028  0.77
      L1  H    25    45       P1  7957  1.00
      L1  H    27    46       P1 10175  0.68
      P1  H  7997  8008       L1    20  1.00
      P1  H  8011  8017       L1     4  0.23
      L1  C     7    35       P1  8028  0.88

> <Gold.PLP.Chemscore.Internal.Correction>
0.1213

> <Gold.Rescore>
     Score         DG    S(hbond)    S(metal)    S(lipo)     H(rot)  DE(clash)    DE(int)     intcor
      9.29     -16.58       1.94        0.00     113.44       3.38       4.25       3.04       ----

> <Gold.Chemscore.Fitness>
9.2895

> <Gold.Chemscore.DG>
-16.5772

> <Gold.Chemscore.ZeroCoef>
-5.4800

> <Gold.Chemscore.Hbond>
1.9423

> <Gold.Chemscore.Metal>
0.0000

> <Gold.Chemscore.Lipo>
113.4352

> <Gold.Chemscore.Internal_Hbond>
0.0000

> <Gold.Chemscore.DEClash>
4.2512

> <Gold.Chemscore.DEInternal>
3.0365

> <Gold.Chemscore.Rot>
3.3837

> <Gold.Chemscore.Internal.Correction>
   9.000000E+99

> <Gold.Chemscore.Hbonds>
donor molecule, donor type, donor heavy atom, donor atom, acceptor molecule, acceptor atom, score
      L1  H     1    32       P1  8028  0.11
      L1  H    25    45       P1  7957  0.80
      L1  H    27    46       P1 10175  0.67
      P1  H  7997  8008       L1    20  0.10
      P1  H  8011  8017       L1     4  0.01

> <Gold.Chemscore.Hbond.Weighted>
-6.4874

> <Gold.Chemscore.Metal.Weighted>
-0.0000

> <Gold.Chemscore.Lipo.Weighted>
-13.2719

> <Gold.Chemscore.Internal_Hbond.Weighted>
0.0000

> <Gold.Chemscore.DEClash.Weighted>
4.2512

> <Gold.Chemscore.DEInternal.Weighted>
3.0365

> <Gold.Chemscore.Rot.Weighted>
8.6622

> <Gold.Chemscore.Internal.Correction.Weighted>
   9.000000E+99

> <Gold.Protein.RotatedTorsions>
[ 6907 6896 6895 6894 ] final  147.48 input  -60.11 | X-H torsion
[ 7974 7965 7964 7962 ] final   36.01 input  175.53 | X-H torsion
[ 8008 7997 7996 7995 ] final  -68.06 input   59.86 | X-H torsion
[ 10167 10162 10161 10158 ] final  -20.47 input  -65.29 | X-H torsion
[ 10718 10713 10712 10709 ] final  -85.90 input   66.30 | X-H torsion
[ 10763 10752 10751 10750 ] final   91.52 input  -60.55 | X-H torsion
[ 11005 11000 10999 10996 ] final    0.31 input  -57.11 | X-H torsion

> <Gold.Protein.ActiveResidues>
 VAL166  LYS551  ARG553  GLY616  TRP617  ASP618  TYR619  PRO620  LYS621  CYS622 
 ASP623  PHE694  ASN695  SER759  ASP760  ASP761  ALA762  ILE779  LEU786  VAL792 
 PHE793  MET794  SER795  GLU796  ALA797  LYS798  CYS799  TRP800  GLU811  SER814 

> <Gold.Protein.RotatedAtoms>
  152.1542  133.4541  159.4828 H   0  0  0  0  0  0  0  0  0  0  0  0  # atno 6907 bound_to 6896
  150.6899  134.2152  159.4384 H   0  0  0  0  0  0  0  0  0  0  0  0  # atno 6908 bound_to 6896
  152.0050  134.9907  160.0617 H   0  0  0  0  0  0  0  0  0  0  0  0  # atno 6909 bound_to 6896
  146.1242  139.6071  142.9270 H   0  0  0  0  0  0  0  0  0  0  0  0  # atno 7974 bound_to 7965
  154.4842  140.0880  156.7448 H   0  0  0  0  0  0  0  0  0  0  0  0  # atno 8008 bound_to 7997
  155.4392  140.3453  155.4270 H   0  0  0  0  0  0  0  0  0  0  0  0  # atno 8009 bound_to 7997
  156.1237  140.1481  156.9155 H   0  0  0  0  0  0  0  0  0  0  0  0  # atno 8010 bound_to 7997
  140.7276  143.4720  151.0234 H   0  0  0  0  0  0  0  0  0  0  0  0  # atno 10167 bound_to 10162
  155.9993  130.4746  150.4632 H   0  0  0  0  0  0  0  0  0  0  0  0  # atno 10718 bound_to 10713
  153.2092  135.4394  155.0359 H   0  0  0  0  0  0  0  0  0  0  0  0  # atno 10763 bound_to 10752
  154.8190  135.3329  154.7095 H   0  0  0  0  0  0  0  0  0  0  0  0  # atno 10764 bound_to 10752
  153.7534  135.6996  153.4996 H   0  0  0  0  0  0  0  0  0  0  0  0  # atno 10765 bound_to 10752
  140.6280  133.9601  155.8259 H   0  0  0  0  0  0  0  0  0  0  0  0  # atno 11005 bound_to 11000
  145.5401  141.0421  143.2335 LP  0  0  0  0  0  0  0  0  0  0  0  0  # atno 17320 bound_to 7965
  144.7626  139.6920  143.7228 LP  0  0  0  0  0  0  0  0  0  0  0  0  # atno 17321 bound_to 7965
  139.8412  143.7561  152.3180 LP  0  0  0  0  0  0  0  0  0  0  0  0  # atno 17342 bound_to 10162
  139.7710  144.7476  151.0224 LP  0  0  0  0  0  0  0  0  0  0  0  0  # atno 17343 bound_to 10162
  157.2654  131.0576  151.2294 LP  0  0  0  0  0  0  0  0  0  0  0  0  # atno 17370 bound_to 10713
  157.3393  130.7025  149.6372 LP  0  0  0  0  0  0  0  0  0  0  0  0  # atno 17371 bound_to 10713
  141.0696  134.0226  157.3545 LP  0  0  0  0  0  0  0  0  0  0  0  0  # atno 17394 bound_to 11000
  139.9127  135.0192  156.7758 LP  0  0  0  0  0  0  0  0  0  0  0  0  # atno 17395 bound_to 11000

$$$$
