AV-unprocessed.smi:2150|AV-procd|sdf|8757|dock6
  -GOLD-   2272011533D 1   1.00000     0.00000
 Structure written by MMmdl.
 35 36  0  0  0  0  0  0  0  0  1 V2000
  150.4505  141.3771  157.9923 O   0  0  0  0  0  0  0  0  0  0  0  0
  150.6214  142.2737  157.1651 C   0  0  0  0  0  0  0  0  0  0  0  0
  151.4819  143.5007  157.4985 C   0  0  0  0  0  0  0  0  0  0  0  0
  151.7912  143.6235  158.9323 N   0  0  0  0  0  0  0  0  0  0  0  0
  152.4209  142.5336  159.5563 C   0  0  0  0  0  0  0  0  0  0  0  0
  152.7302  142.5716  160.8603 C   0  0  0  0  0  0  0  0  0  0  0  0
  152.3756  143.8020  161.5797 C   0  0  0  0  0  0  0  0  0  0  0  0
  151.7978  144.7958  161.0148 N   0  0  0  0  0  0  0  0  0  0  0  0
  151.4696  144.7512  159.6463 C   0  0  0  0  0  0  0  0  0  0  0  0
  150.9077  145.6998  159.0983 O   0  0  0  0  0  0  0  0  0  0  0  0
  150.0997  142.2422  155.9284 N   0  0  0  0  0  0  0  0  0  0  0  0
  149.2699  141.1660  155.3820 C   0  0  1  0  0  0  0  0  0  0  0  0
  148.5246  141.7315  154.1512 C   0  0  0  0  0  0  0  0  0  0  0  0
  147.2484  140.9536  153.7863 C   0  0  0  0  0  0  0  0  0  0  0  0
  147.4787  139.5060  153.3265 C   0  0  0  0  0  0  0  0  0  0  0  0
  148.1132  138.6086  154.4025 C   0  0  0  0  0  0  0  0  0  0  0  0
  149.5457  138.8401  154.5345 N   0  0  0  0  0  0  0  0  0  0  0  0
  150.1457  139.9700  154.9396 C   0  0  0  0  0  0  0  0  0  0  0  0
  151.3740  140.0508  154.9525 O   0  0  0  0  0  0  0  0  0  0  0  0
  152.4012  143.4376  156.9146 H   0  0  0  0  0  0  0  0  0  0  0  0
  150.9804  144.4040  157.1464 H   0  0  0  0  0  0  0  0  0  0  0  0
  152.6231  141.6843  158.9197 H   0  0  0  0  0  0  0  0  0  0  0  0
  153.2101  141.7696  161.4011 H   0  0  0  0  0  0  0  0  0  0  0  0
  152.6386  143.8155  162.6404 H   0  0  0  0  0  0  0  0  0  0  0  0
  150.3036  143.0145  155.3111 H   0  0  0  0  0  0  0  0  0  0  0  0
  148.5538  140.8465  156.1414 H   0  0  0  0  0  0  0  0  0  0  0  0
  148.2209  142.7585  154.3614 H   0  0  0  0  0  0  0  0  0  0  0  0
  149.1881  141.7962  153.2869 H   0  0  0  0  0  0  0  0  0  0  0  0
  146.5660  140.9591  154.6371 H   0  0  0  0  0  0  0  0  0  0  0  0
  146.7316  141.4903  152.9901 H   0  0  0  0  0  0  0  0  0  0  0  0
  146.5127  139.0824  153.0496 H   0  0  0  0  0  0  0  0  0  0  0  0
  148.0826  139.4903  152.4181 H   0  0  0  0  0  0  0  0  0  0  0  0
  147.6147  138.7310  155.3652 H   0  0  0  0  0  0  0  0  0  0  0  0
  147.9829  137.5637  154.1204 H   0  0  0  0  0  0  0  0  0  0  0  0
  150.1468  138.0755  154.2628 H   0  0  0  0  0  0  0  0  0  0  0  0
  1  2  2  0  0  0  0
  2  3  1  0  0  0  0
  2 11  1  0  0  0  0
  3  4  1  0  0  0  0
  3 20  1  0  0  0  0
  3 21  1  0  0  0  0
  4  9  1  0  0  0  0
  4  5  1  0  0  0  0
  5  6  2  0  0  0  0
  5 22  1  0  0  0  0
  6  7  1  0  0  0  0
  6 23  1  0  0  0  0
  7  8  2  0  0  0  0
  7 24  1  0  0  0  0
  8  9  1  0  0  0  0
  9 10  2  0  0  0  0
 11 12  1  0  0  0  0
 11 25  1  0  0  0  0
 12 18  1  0  0  0  0
 12 13  1  0  0  0  0
 12 26  1  0  0  0  0
 13 14  1  0  0  0  0
 13 27  1  0  0  0  0
 13 28  1  0  0  0  0
 14 15  1  0  0  0  0
 14 29  1  0  0  0  0
 14 30  1  0  0  0  0
 15 16  1  0  0  0  0
 15 31  1  0  0  0  0
 15 32  1  0  0  0  0
 16 17  1  0  0  0  0
 16 33  1  0  0  0  0
 16 34  1  0  0  0  0
 17 18  1  0  0  0  0
 17 35  1  0  0  0  0
 18 19  2  0  0  0  0
M  END
> <s_m_source_file>
AV-unprocessed.smi

> <i_m_source_file_index>
2150

> <i_lp_mmshare_version>
43012

> <i_f3d_flags>
0

> <s_epik_input>
Tz1jMW5bY0hdW2NIXVtjSF1uMVtDSDJdQyg9TylbTkhdW0NAQEhdMltDSDJdW0NIMl1bQ0gyXVtDSDJdW05IXUMyPU8=

> <s_epik_cmdline>
J2VwaWtfcHl0aG9uJywgJy1waCcsICc3LjAnLCAnLXRuJywgJzgnLCAnLW1hJywgJzIwMCcsICctbWV0YWxfYmluZGluZycsICctaW1hZScsICc8aW5maWxlLm1hZT4nLCAnLW9tYWUnLCAnPG91dGZpbGUubWFlPic=

> <r_lp_tautomer_probability>
1

> <r_epik_Ionization_Penalty>
6.25431e-06

> <r_epik_Ionization_Penalty_Charging>
1.47848e-08

> <r_epik_Ionization_Penalty_Neutral>
6.23953e-06

> <r_epik_State_Penalty>
-0

> <r_epik_Charging_Adjusted_Penalty>
1.47848e-08

> <i_epik_Tot_Q>
0

> <i_epik_Tot_abs_Q>
0

> <r_epik_Metal_State_Penalty>
-0

> <b_epik_Metal_Only>
0

> <s_lp_Force_Field>
OPLS_2005

> <r_lp_Energy>
14.2725

> <b_lp_Chiralities_Consistent>
1

> <s_lp_Variant>
AV-unprocessed.smi:2150-2

> <Gold.Version>
5.8.1

> <Gold.Id.Protein>
6NUR|6NUR_protein|mol2

> <Gold.PLP.Fitness>
44.1997

> <Gold.PLP.PLP>
-41.5614

> <Gold.PLP.part.hbond>
-3.3699

> <Gold.PLP.part.metal>
0.0000

> <Gold.PLP.part.buried>
-4.1557

> <Gold.PLP.part.nonpolar>
-34.8275

> <Gold.PLP.part.repulsive>
0.6480

> <Gold.PLP.ligand.clash>
0.0000

> <Gold.PLP.ligand.torsion>
0.4134

> <Gold.PLP.Chemscore.Hbond>
1.1544

> <Gold.PLP.Chemscore.CHOScore>
0.0000

> <Gold.PLP.Chemscore.Metal>
0.0000

> <Gold.Chemscore.Hbonds>
donor molecule, donor type, donor heavy atom, donor atom, acceptor molecule, acceptor atom, score
      L1  H    11    25       P1  8028  0.12
      P1  H  7989  7998       L1    19  1.00

> <Gold.PLP.Chemscore.Internal.Correction>
0.0018

> <Gold.Rescore>
     Score         DG    S(hbond)    S(metal)    S(lipo)     H(rot)  DE(clash)    DE(int)     intcor
     13.74     -15.32       1.74        0.00      71.58       1.69       0.00       1.59       ----

> <Gold.Chemscore.Fitness>
13.7362

> <Gold.Chemscore.DG>
-15.3232

> <Gold.Chemscore.ZeroCoef>
-5.4800

> <Gold.Chemscore.Hbond>
1.7387

> <Gold.Chemscore.Metal>
0.0000

> <Gold.Chemscore.Lipo>
71.5752

> <Gold.Chemscore.Internal_Hbond>
0.0000

> <Gold.Chemscore.DEClash>
0.0000

> <Gold.Chemscore.DEInternal>
1.5870

> <Gold.Chemscore.Rot>
1.6947

> <Gold.Chemscore.Internal.Correction>
   9.000000E+99

> <Gold.Chemscore.Hbonds>
donor molecule, donor type, donor heavy atom, donor atom, acceptor molecule, acceptor atom, score
      L1  H    11    25       P1  8028  0.12
      P1  H  7989  7998       L1    19  0.30

> <Gold.Chemscore.Hbond.Weighted>
-5.8074

> <Gold.Chemscore.Metal.Weighted>
-0.0000

> <Gold.Chemscore.Lipo.Weighted>
-8.3743

> <Gold.Chemscore.Internal_Hbond.Weighted>
0.0000

> <Gold.Chemscore.DEClash.Weighted>
0.0000

> <Gold.Chemscore.DEInternal.Weighted>
1.5870

> <Gold.Chemscore.Rot.Weighted>
4.3385

> <Gold.Chemscore.Internal.Correction.Weighted>
   9.000000E+99

> <Gold.Protein.RotatedTorsions>
[ 6907 6896 6895 6894 ] final  -48.92 input  -60.11 | X-H torsion
[ 7974 7965 7964 7962 ] final   19.03 input  175.53 | X-H torsion
[ 8008 7997 7996 7995 ] final  166.82 input   59.86 | X-H torsion
[ 10167 10162 10161 10158 ] final    9.02 input  -65.29 | X-H torsion
[ 10718 10713 10712 10709 ] final  171.14 input   66.30 | X-H torsion
[ 10763 10752 10751 10750 ] final  -75.46 input  -60.55 | X-H torsion
[ 11005 11000 10999 10996 ] final   19.05 input  -57.11 | X-H torsion

> <Gold.Protein.ActiveResidues>
 VAL166  LYS551  ARG553  GLY616  TRP617  ASP618  TYR619  PRO620  LYS621  CYS622 
 ASP623  PHE694  ASN695  SER759  ASP760  ASP761  ALA762  ILE779  LEU786  VAL792 
 PHE793  MET794  SER795  GLU796  ALA797  LYS798  CYS799  TRP800  GLU811  SER814 

> <Gold.Protein.RotatedAtoms>
  150.8856  134.8254  159.7256 H   0  0  0  0  0  0  0  0  0  0  0  0  # atno 6907 bound_to 6896
  152.4806  134.4727  159.9650 H   0  0  0  0  0  0  0  0  0  0  0  0  # atno 6908 bound_to 6896
  151.4796  133.3511  159.2871 H   0  0  0  0  0  0  0  0  0  0  0  0  # atno 6909 bound_to 6896
  146.2164  139.8372  142.8648 H   0  0  0  0  0  0  0  0  0  0  0  0  # atno 7974 bound_to 7965
  156.1687  140.1633  156.8486 H   0  0  0  0  0  0  0  0  0  0  0  0  # atno 8008 bound_to 7997
  154.5234  140.0773  156.8248 H   0  0  0  0  0  0  0  0  0  0  0  0  # atno 8009 bound_to 7997
  155.3559  140.3392  155.4242 H   0  0  0  0  0  0  0  0  0  0  0  0  # atno 8010 bound_to 7997
  140.6280  143.8058  150.7258 H   0  0  0  0  0  0  0  0  0  0  0  0  # atno 10167 bound_to 10162
  156.9978  131.0167  151.2839 H   0  0  0  0  0  0  0  0  0  0  0  0  # atno 10718 bound_to 10713
  154.4869  135.5830  153.6430 H   0  0  0  0  0  0  0  0  0  0  0  0  # atno 10763 bound_to 10752
  152.9856  135.6103  154.3175 H   0  0  0  0  0  0  0  0  0  0  0  0  # atno 10764 bound_to 10752
  154.3071  135.2845  155.2563 H   0  0  0  0  0  0  0  0  0  0  0  0  # atno 10765 bound_to 10752
  140.4180  134.1548  155.7671 H   0  0  0  0  0  0  0  0  0  0  0  0  # atno 11005 bound_to 11000
  145.2936  141.0174  143.3649 LP  0  0  0  0  0  0  0  0  0  0  0  0  # atno 17320 bound_to 7965
  144.9059  139.4590  143.6610 LP  0  0  0  0  0  0  0  0  0  0  0  0  # atno 17321 bound_to 7965
  140.1663  143.4232  152.2032 LP  0  0  0  0  0  0  0  0  0  0  0  0  # atno 17342 bound_to 10162
  139.5497  144.7328  151.4472 LP  0  0  0  0  0  0  0  0  0  0  0  0  # atno 17343 bound_to 10162
  157.5412  130.8121  149.8031 LP  0  0  0  0  0  0  0  0  0  0  0  0  # atno 17370 bound_to 10713
  156.0182  130.3805  150.2043 LP  0  0  0  0  0  0  0  0  0  0  0  0  # atno 17371 bound_to 10713
  141.1795  133.8444  157.1307 LP  0  0  0  0  0  0  0  0  0  0  0  0  # atno 17394 bound_to 11000
  140.0220  134.9941  157.0610 LP  0  0  0  0  0  0  0  0  0  0  0  0  # atno 17395 bound_to 11000

$$$$
