AV-unprocessed.smi:2514|AV-procd|sdf|9893|dock1
  -GOLD-   2272013533D 1   1.00000     0.00000
 Structure written by MMmdl.
 25 26  0  0  0  0  0  0  0  0  2 V2000
  152.8168  138.8106  155.2535 C   0  0  0  0  0  0  0  0  0  0  0  0
  151.5037  138.0276  155.3710 C   0  0  2  0  0  0  0  0  0  0  0  0
  151.6397  136.7805  154.7194 O   0  0  0  0  0  0  0  0  0  0  0  0
  150.3486  138.7448  154.7283 C   0  0  0  0  0  0  0  0  0  0  0  0
  149.1040  138.2892  154.3883 C   0  0  0  0  0  0  0  0  0  0  0  0
  148.5072  139.3889  153.8098 N   0  0  0  0  0  0  0  0  0  0  0  0
  147.1612  139.5048  153.3336 C   0  0  0  0  0  0  0  0  0  0  0  0
  146.2483  138.2819  153.2727 C   0  0  0  0  0  0  0  0  0  0  0  0
  145.6361  138.8723  152.0889 N   0  3  0  0  0  0  0  0  0  0  0  0
  146.8509  139.6391  151.8425 C   0  0  0  0  0  0  0  0  0  0  0  0
  149.3216  140.4692  153.8346 N   0  0  0  0  0  0  0  0  0  0  0  0
  150.4425  140.0877  154.3608 N   0  0  0  0  0  0  0  0  0  0  0  0
  152.7400  139.7790  155.7484 H   0  0  0  0  0  0  0  0  0  0  0  0
  153.0804  138.9900  154.2106 H   0  0  0  0  0  0  0  0  0  0  0  0
  153.6402  138.2667  155.7176 H   0  0  0  0  0  0  0  0  0  0  0  0
  151.2907  137.8357  156.4233 H   0  0  0  0  0  0  0  0  0  0  0  0
  151.2357  136.8435  153.8674 H   0  0  0  0  0  0  0  0  0  0  0  0
  148.6226  137.3287  154.4997 H   0  0  0  0  0  0  0  0  0  0  0  0
  146.6974  140.3121  153.9048 H   0  0  0  0  0  0  0  0  0  0  0  0
  146.7757  137.3537  153.0440 H   0  0  0  0  0  0  0  0  0  0  0  0
  145.5680  138.1722  154.1179 H   0  0  0  0  0  0  0  0  0  0  0  0
  145.4156  138.2053  151.3629 H   0  0  0  0  0  0  0  0  0  0  0  0
  146.6717  140.6582  151.4987 H   0  0  0  0  0  0  0  0  0  0  0  0
  147.5499  139.1031  151.1973 H   0  0  0  0  0  0  0  0  0  0  0  0
  144.8622  139.4736  152.3339 H   0  0  0  0  0  0  0  0  0  0  0  0
  1  2  1  0  0  0  0
  1 13  1  0  0  0  0
  1 14  1  0  0  0  0
  1 15  1  0  0  0  0
  2  3  1  0  0  0  0
  2  4  1  0  0  0  0
  2 16  1  0  0  0  0
  3 17  1  0  0  0  0
  4 12  1  0  0  0  0
  4  5  2  0  0  0  0
  5  6  1  0  0  0  0
  5 18  1  0  0  0  0
  6  7  1  0  0  0  0
  6 11  1  0  0  0  0
  7 10  1  0  0  0  0
  7  8  1  0  0  0  0
  7 19  1  0  0  0  0
  8  9  1  0  0  0  0
  8 20  1  0  0  0  0
  8 21  1  0  0  0  0
  9 10  1  0  0  0  0
  9 22  1  0  0  0  0
  9 25  1  0  0  0  0
 10 23  1  0  0  0  0
 10 24  1  0  0  0  0
 11 12  2  0  0  0  0
M  CHG  1   9   1
M  END
> <s_m_source_file>
AV-unprocessed.smi

> <i_m_source_file_index>
2514

> <i_lp_mmshare_version>
43012

> <i_f3d_flags>
0

> <s_epik_input>
W0NIM11bQ0BIXShbT0hdKWMxW2NIXW4obm4xKVtDSF0yW0NIMl1bTkhdW0NIMl0y

> <s_epik_cmdline>
J2VwaWtfcHl0aG9uJywgJy1waCcsICc3LjAnLCAnLXRuJywgJzgnLCAnLW1hJywgJzIwMCcsICctbWV0YWxfYmluZGluZycsICctaW1hZScsICc8aW5maWxlLm1hZT4nLCAnLW9tYWUnLCAnPG91dGZpbGUubWFlPic=

> <r_lp_tautomer_probability>
1

> <r_epik_Ionization_Penalty>
0.215039

> <r_epik_Ionization_Penalty_Charging>
0.215038

> <r_epik_Ionization_Penalty_Neutral>
9.39085e-07

> <r_epik_State_Penalty>
0.20523

> <r_epik_Charging_Adjusted_Penalty>
0.420268

> <i_epik_Tot_Q>
1

> <i_epik_Tot_abs_Q>
1

> <r_epik_Metal_State_Penalty>
0.205259

> <b_epik_Metal_Only>
0

> <s_lp_Force_Field>
OPLS_2005

> <r_lp_Energy>
12.5086

> <b_lp_Chiralities_Consistent>
1

> <s_lp_Variant>
AV-unprocessed.smi:2514-1

> <Gold.Version>
5.8.1

> <Gold.Id.Protein>
6NUR|6NUR_protein|mol2

> <Gold.PLP.Fitness>
37.6659

> <Gold.PLP.PLP>
-20.5383

> <Gold.PLP.part.hbond>
-5.6410

> <Gold.PLP.part.metal>
0.0000

> <Gold.PLP.part.buried>
3.4341

> <Gold.PLP.part.nonpolar>
-21.6650

> <Gold.PLP.part.repulsive>
2.3127

> <Gold.PLP.ligand.clash>
0.0000

> <Gold.PLP.ligand.torsion>
0.4940

> <Gold.PLP.Chemscore.Hbond>
5.2328

> <Gold.PLP.Chemscore.CHOScore>
0.7131

> <Gold.PLP.Chemscore.Metal>
0.0000

> <Gold.Chemscore.Hbonds>
donor molecule, donor type, donor heavy atom, donor atom, acceptor molecule, acceptor atom, score
      L1  H     9    22       P1 10171  0.24
      L1  H     9    25       P1 10175  2.00
      P1  H  7989  7998       L1    12  1.00
      P1  H 10752 10765       L1     3  0.95
      L1  C     5    18       P1  7948  0.07

> <Gold.PLP.Chemscore.Internal.Correction>
0.2779

> <Gold.Rescore>
     Score         DG    S(hbond)    S(metal)    S(lipo)     H(rot)  DE(clash)    DE(int)     intcor
     15.14     -18.11       3.40        0.00      51.02       1.83       2.25       0.72       ----

> <Gold.Chemscore.Fitness>
15.1358

> <Gold.Chemscore.DG>
-18.1066

> <Gold.Chemscore.ZeroCoef>
-5.4800

> <Gold.Chemscore.Hbond>
3.3968

> <Gold.Chemscore.Metal>
0.0000

> <Gold.Chemscore.Lipo>
51.0181

> <Gold.Chemscore.Internal_Hbond>
0.0000

> <Gold.Chemscore.DEClash>
2.2549

> <Gold.Chemscore.DEInternal>
0.7158

> <Gold.Chemscore.Rot>
1.8312

> <Gold.Chemscore.Internal.Correction>
   9.000000E+99

> <Gold.Chemscore.Hbonds>
donor molecule, donor type, donor heavy atom, donor atom, acceptor molecule, acceptor atom, score
      L1  H     9    22       P1 10171  0.24
      L1  H     9    25       P1 10175  0.94
      P1  H  7989  7998       L1    12  0.50
      P1  H  8011  8017       L1    11  0.01
      P1  H 10752 10765       L1     3  0.21

> <Gold.Chemscore.Hbond.Weighted>
-11.3454

> <Gold.Chemscore.Metal.Weighted>
-0.0000

> <Gold.Chemscore.Lipo.Weighted>
-5.9691

> <Gold.Chemscore.Internal_Hbond.Weighted>
0.0000

> <Gold.Chemscore.DEClash.Weighted>
2.2549

> <Gold.Chemscore.DEInternal.Weighted>
0.7158

> <Gold.Chemscore.Rot.Weighted>
4.6879

> <Gold.Chemscore.Internal.Correction.Weighted>
   9.000000E+99

> <Gold.Protein.RotatedTorsions>
[ 6907 6896 6895 6894 ] final  -83.15 input  -60.11 | X-H torsion
[ 7974 7965 7964 7962 ] final   46.00 input  175.53 | X-H torsion
[ 8008 7997 7996 7995 ] final  169.59 input   59.86 | X-H torsion
[ 10167 10162 10161 10158 ] final   87.00 input  -65.29 | X-H torsion
[ 10718 10713 10712 10709 ] final  147.35 input   66.30 | X-H torsion
[ 10763 10752 10751 10750 ] final  163.62 input  -60.55 | X-H torsion
[ 11005 11000 10999 10996 ] final  174.96 input  -57.11 | X-H torsion

> <Gold.Protein.ActiveResidues>
 VAL166  LYS551  ARG553  GLY616  TRP617  ASP618  TYR619  PRO620  LYS621  CYS622 
 ASP623  PHE694  ASN695  SER759  ASP760  ASP761  ALA762  ILE779  LEU786  VAL792 
 PHE793  MET794  SER795  GLU796  ALA797  LYS798  CYS799  TRP800  GLU811  SER814 

> <Gold.Protein.RotatedAtoms>
  150.6889  134.3556  159.4927 H   0  0  0  0  0  0  0  0  0  0  0  0  # atno 6907 bound_to 6896
  152.1392  134.9073  160.0564 H   0  0  0  0  0  0  0  0  0  0  0  0  # atno 6908 bound_to 6896
  152.0213  133.3865  159.4296 H   0  0  0  0  0  0  0  0  0  0  0  0  # atno 6909 bound_to 6896
  146.0430  139.4904  142.9766 H   0  0  0  0  0  0  0  0  0  0  0  0  # atno 7974 bound_to 7965
  156.1443  140.1560  156.8872 H   0  0  0  0  0  0  0  0  0  0  0  0  # atno 8008 bound_to 7997
  154.5014  140.0824  156.7844 H   0  0  0  0  0  0  0  0  0  0  0  0  # atno 8009 bound_to 7997
  155.4019  140.3415  155.4260 H   0  0  0  0  0  0  0  0  0  0  0  0  # atno 8010 bound_to 7997
  139.8818  144.6436  150.8835 H   0  0  0  0  0  0  0  0  0  0  0  0  # atno 10167 bound_to 10162
  157.3221  131.0906  151.1232 H   0  0  0  0  0  0  0  0  0  0  0  0  # atno 10718 bound_to 10713
  154.2964  135.2760  155.2631 H   0  0  0  0  0  0  0  0  0  0  0  0  # atno 10763 bound_to 10752
  154.5087  135.5788  153.6591 H   0  0  0  0  0  0  0  0  0  0  0  0  # atno 10764 bound_to 10752
  152.9907  135.6176  154.3132 H   0  0  0  0  0  0  0  0  0  0  0  0  # atno 10765 bound_to 10752
  140.3570  134.7146  157.4306 H   0  0  0  0  0  0  0  0  0  0  0  0  # atno 11005 bound_to 11000
  145.6853  141.0179  143.1584 LP  0  0  0  0  0  0  0  0  0  0  0  0  # atno 17320 bound_to 7965
  144.7084  139.8469  143.7422 LP  0  0  0  0  0  0  0  0  0  0  0  0  # atno 17321 bound_to 7965
  140.7743  143.3580  151.1884 LP  0  0  0  0  0  0  0  0  0  0  0  0  # atno 17342 bound_to 10162
  139.7189  143.9255  152.2978 LP  0  0  0  0  0  0  0  0  0  0  0  0  # atno 17343 bound_to 10162
  157.2513  130.6615  149.5932 LP  0  0  0  0  0  0  0  0  0  0  0  0  # atno 17370 bound_to 10713
  155.9687  130.4537  150.5824 LP  0  0  0  0  0  0  0  0  0  0  0  0  # atno 17371 bound_to 10713
  140.0657  134.5933  155.8698 LP  0  0  0  0  0  0  0  0  0  0  0  0  # atno 17394 bound_to 11000
  141.1995  133.6607  156.5849 LP  0  0  0  0  0  0  0  0  0  0  0  0  # atno 17395 bound_to 11000

$$$$
