AV-unprocessed.smi:407|AV-procd|sdf|2502|dock7
  -GOLD-   2262022453D 1   1.00000     0.00000
 Structure written by MMmdl.
 45 47  0  0  0  0  0  0  0  0  1 V2000
  142.9674  146.8925  154.7333 C   0  0  0  0  0  0  0  0  0  0  0  0
  143.3925  145.7395  155.6410 C   0  0  0  0  0  0  0  0  0  0  0  0
  142.9265  145.6798  156.7784 O   0  0  0  0  0  0  0  0  0  0  0  0
  144.3579  144.7437  155.0947 C   0  0  0  0  0  0  0  0  0  0  0  0
  144.8204  144.8075  153.7600 C   0  0  0  0  0  0  0  0  0  0  0  0
  145.7342  143.8521  153.2751 C   0  0  0  0  0  0  0  0  0  0  0  0
  146.2085  142.8167  154.1040 C   0  0  0  0  0  0  0  0  0  0  0  0
  147.1041  141.9290  153.5476 O   0  0  0  0  0  0  0  0  0  0  0  0
  147.3353  140.6960  154.2167 C   0  0  0  0  0  0  0  0  0  0  0  0
  148.7748  140.6881  154.7576 C   0  0  1  0  0  0  0  0  0  0  0  0
  149.6315  140.9881  153.6732 O   0  0  0  0  0  0  0  0  0  0  0  0
  148.9902  141.7674  155.8390 C   0  0  0  0  0  0  0  0  0  0  0  0
  149.9611  141.3380  156.8448 N   0  0  0  0  0  0  0  0  0  0  0  0
  150.1882  140.0669  157.2535 C   0  0  0  0  0  0  0  0  0  0  0  0
  149.6040  139.0629  156.8457 O   0  0  0  0  0  0  0  0  0  0  0  0
  151.1747  140.0938  158.1795 N   0  0  0  0  0  0  0  0  0  0  0  0
  151.7494  138.9524  158.8813 C   0  0  0  0  0  0  0  0  0  0  0  0
  151.6014  141.4158  158.3583 C   0  0  0  0  0  0  0  0  0  0  0  0
  152.5980  141.9590  159.1871 C   0  0  0  0  0  0  0  0  0  0  0  0
  152.7916  143.3592  159.1310 C   0  0  0  0  0  0  0  0  0  0  0  0
  152.0067  144.1676  158.2681 C   0  0  0  0  0  0  0  0  0  0  0  0
  151.0108  143.5935  157.4435 C   0  0  0  0  0  0  0  0  0  0  0  0
  150.8376  142.2004  157.5197 C   0  0  0  0  0  0  0  0  0  0  0  0
  145.7436  142.7494  155.4402 C   0  0  0  0  0  0  0  0  0  0  0  0
  144.8289  143.7033  155.9267 C   0  0  0  0  0  0  0  0  0  0  0  0
  143.8329  147.4865  154.4394 H   0  0  0  0  0  0  0  0  0  0  0  0
  142.2655  147.5467  155.2510 H   0  0  0  0  0  0  0  0  0  0  0  0
  142.4798  146.5131  153.8351 H   0  0  0  0  0  0  0  0  0  0  0  0
  144.4883  145.5834  153.0866 H   0  0  0  0  0  0  0  0  0  0  0  0
  146.0776  143.9170  152.2529 H   0  0  0  0  0  0  0  0  0  0  0  0
  146.6165  140.5310  155.0216 H   0  0  0  0  0  0  0  0  0  0  0  0
  147.2156  139.8892  153.4918 H   0  0  0  0  0  0  0  0  0  0  0  0
  149.0077  139.6999  155.1569 H   0  0  0  0  0  0  0  0  0  0  0  0
  149.5690  140.2906  153.0389 H   0  0  0  0  0  0  0  0  0  0  0  0
  149.2797  142.7212  155.3958 H   0  0  0  0  0  0  0  0  0  0  0  0
  148.0499  141.9627  156.3571 H   0  0  0  0  0  0  0  0  0  0  0  0
  151.8409  139.1665  159.9468 H   0  0  0  0  0  0  0  0  0  0  0  0
  152.7431  138.7337  158.4895 H   0  0  0  0  0  0  0  0  0  0  0  0
  151.1362  138.0565  158.7732 H   0  0  0  0  0  0  0  0  0  0  0  0
  153.1927  141.3363  159.8389 H   0  0  0  0  0  0  0  0  0  0  0  0
  153.5469  143.8184  159.7517 H   0  0  0  0  0  0  0  0  0  0  0  0
  152.1727  145.2344  158.2392 H   0  0  0  0  0  0  0  0  0  0  0  0
  150.4139  144.2045  156.7828 H   0  0  0  0  0  0  0  0  0  0  0  0
  146.0727  141.9740  156.1149 H   0  0  0  0  0  0  0  0  0  0  0  0
  144.4946  143.6251  156.9512 H   0  0  0  0  0  0  0  0  0  0  0  0
  1  2  1  0  0  0  0
  1 26  1  0  0  0  0
  1 27  1  0  0  0  0
  1 28  1  0  0  0  0
  2  3  2  0  0  0  0
  2  4  1  0  0  0  0
  4 25  1  0  0  0  0
  4  5  2  0  0  0  0
  5  6  1  0  0  0  0
  5 29  1  0  0  0  0
  6  7  2  0  0  0  0
  6 30  1  0  0  0  0
  7  8  1  0  0  0  0
  7 24  1  0  0  0  0
  8  9  1  0  0  0  0
  9 10  1  0  0  0  0
  9 31  1  0  0  0  0
  9 32  1  0  0  0  0
 10 11  1  0  0  0  0
 10 12  1  0  0  0  0
 10 33  1  0  0  0  0
 11 34  1  0  0  0  0
 12 13  1  0  0  0  0
 12 35  1  0  0  0  0
 12 36  1  0  0  0  0
 13 23  1  0  0  0  0
 13 14  1  0  0  0  0
 14 15  2  0  0  0  0
 14 16  1  0  0  0  0
 16 17  1  0  0  0  0
 16 18  1  0  0  0  0
 17 37  1  0  0  0  0
 17 38  1  0  0  0  0
 17 39  1  0  0  0  0
 18 23  2  0  0  0  0
 18 19  1  0  0  0  0
 19 20  2  0  0  0  0
 19 40  1  0  0  0  0
 20 21  1  0  0  0  0
 20 41  1  0  0  0  0
 21 22  2  0  0  0  0
 21 42  1  0  0  0  0
 22 23  1  0  0  0  0
 22 43  1  0  0  0  0
 24 25  2  0  0  0  0
 24 44  1  0  0  0  0
 25 45  1  0  0  0  0
M  END
> <s_m_source_file>
AV-unprocessed.smi

> <i_m_source_file_index>
407

> <i_lp_mmshare_version>
43012

> <i_f3d_flags>
0

> <s_epik_input>
W0NIM11DKD1PKWMxW2NIXVtjSF1jKFtjSF1bY0hdMSlPW0NIMl1bQ0BIXShbT0hdKVtDSDJdbihjKD1PKW4yW0NIM10pYyhjMjMpW2NIXVtjSF1bY0hdW2NIXTM=

> <s_epik_cmdline>
J2VwaWtfcHl0aG9uJywgJy1waCcsICc3LjAnLCAnLXRuJywgJzgnLCAnLW1hJywgJzIwMCcsICctbWV0YWxfYmluZGluZycsICctaW1hZScsICc8aW5maWxlLm1hZT4nLCAnLW9tYWUnLCAnPG91dGZpbGUubWFlPic=

> <r_lp_tautomer_probability>
1

> <r_epik_Ionization_Penalty>
2.40123e-06

> <r_epik_Ionization_Penalty_Charging>
1.9356e-09

> <r_epik_Ionization_Penalty_Neutral>
2.3993e-06

> <r_epik_State_Penalty>
-0

> <r_epik_Charging_Adjusted_Penalty>
1.9356e-09

> <i_epik_Tot_Q>
0

> <i_epik_Tot_abs_Q>
0

> <r_epik_Metal_State_Penalty>
-0

> <b_epik_Metal_Only>
0

> <s_lp_Force_Field>
OPLS_2005

> <r_lp_Energy>
53.7359

> <b_lp_Chiralities_Consistent>
1

> <s_lp_Variant>
AV-unprocessed.smi:407-2

> <Gold.Version>
5.8.1

> <Gold.Id.Protein>
6NUR|6NUR_protein|mol2

> <Gold.PLP.Fitness>
53.0511

> <Gold.PLP.PLP>
-50.2375

> <Gold.PLP.part.hbond>
-3.0000

> <Gold.PLP.part.metal>
0.0000

> <Gold.PLP.part.buried>
-1.2676

> <Gold.PLP.part.nonpolar>
-45.6812

> <Gold.PLP.part.repulsive>
0.1927

> <Gold.PLP.ligand.clash>
0.0000

> <Gold.PLP.ligand.torsion>
1.4107

> <Gold.PLP.Chemscore.Hbond>
1.8140

> <Gold.PLP.Chemscore.CHOScore>
0.0000

> <Gold.PLP.Chemscore.Metal>
0.0000

> <Gold.Chemscore.Hbonds>
donor molecule, donor type, donor heavy atom, donor atom, acceptor molecule, acceptor atom, score
      L1  H    11    34       P1  7957  0.78
      P1  H  7989  7998       L1    11  0.13
      P1  H  8011  8017       L1    11  0.74

> <Gold.PLP.Chemscore.Internal.Correction>
0.1930

> <Gold.Rescore>
     Score         DG    S(hbond)    S(metal)    S(lipo)     H(rot)  DE(clash)    DE(int)     intcor
     14.54     -17.59       1.12        0.00     121.91       2.30       0.13       2.92       ----

> <Gold.Chemscore.Fitness>
14.5441

> <Gold.Chemscore.DG>
-17.5918

> <Gold.Chemscore.ZeroCoef>
-5.4800

> <Gold.Chemscore.Hbond>
1.1173

> <Gold.Chemscore.Metal>
0.0000

> <Gold.Chemscore.Lipo>
121.9138

> <Gold.Chemscore.Internal_Hbond>
0.0000

> <Gold.Chemscore.DEClash>
0.1273

> <Gold.Chemscore.DEInternal>
2.9203

> <Gold.Chemscore.Rot>
2.2984

> <Gold.Chemscore.Internal.Correction>
   9.000000E+99

> <Gold.Chemscore.Hbonds>
donor molecule, donor type, donor heavy atom, donor atom, acceptor molecule, acceptor atom, score
      L1  H    11    34       P1  7957  0.78
      P1  H  8011  8017       L1    11  0.09

> <Gold.Chemscore.Hbond.Weighted>
-3.7317

> <Gold.Chemscore.Metal.Weighted>
-0.0000

> <Gold.Chemscore.Lipo.Weighted>
-14.2639

> <Gold.Chemscore.Internal_Hbond.Weighted>
0.0000

> <Gold.Chemscore.DEClash.Weighted>
0.1273

> <Gold.Chemscore.DEInternal.Weighted>
2.9203

> <Gold.Chemscore.Rot.Weighted>
5.8839

> <Gold.Chemscore.Internal.Correction.Weighted>
   9.000000E+99

> <Gold.Protein.RotatedTorsions>
[ 6907 6896 6895 6894 ] final   11.45 input  -60.11 | X-H torsion
[ 7974 7965 7964 7962 ] final -108.79 input  175.53 | X-H torsion
[ 8008 7997 7996 7995 ] final  136.50 input   59.86 | X-H torsion
[ 10167 10162 10161 10158 ] final  100.06 input  -65.29 | X-H torsion
[ 10718 10713 10712 10709 ] final    7.30 input   66.30 | X-H torsion
[ 10763 10752 10751 10750 ] final -173.11 input  -60.55 | X-H torsion
[ 11005 11000 10999 10996 ] final    7.45 input  -57.11 | X-H torsion

> <Gold.Protein.ActiveResidues>
 VAL166  LYS551  ARG553  GLY616  TRP617  ASP618  TYR619  PRO620  LYS621  CYS622 
 ASP623  PHE694  ASN695  SER759  ASP760  ASP761  ALA762  ILE779  LEU786  VAL792 
 PHE793  MET794  SER795  GLU796  ALA797  LYS798  CYS799  TRP800  GLU811  SER814 

> <Gold.Protein.RotatedAtoms>
  151.7545  135.0825  160.0335 H   0  0  0  0  0  0  0  0  0  0  0  0  # atno 6907 bound_to 6896
  152.3394  133.6045  159.5874 H   0  0  0  0  0  0  0  0  0  0  0  0  # atno 6908 bound_to 6896
  150.7470  133.9661  159.3573 H   0  0  0  0  0  0  0  0  0  0  0  0  # atno 6909 bound_to 6896
  145.1885  140.9004  143.3438 H   0  0  0  0  0  0  0  0  0  0  0  0  # atno 7974 bound_to 7965
  156.3004  140.2443  156.3756 H   0  0  0  0  0  0  0  0  0  0  0  0  # atno 8008 bound_to 7997
  154.8748  140.0415  157.1766 H   0  0  0  0  0  0  0  0  0  0  0  0  # atno 8009 bound_to 7997
  154.8757  140.2942  155.5458 H   0  0  0  0  0  0  0  0  0  0  0  0  # atno 8010 bound_to 7997
  139.7561  144.6969  151.0360 H   0  0  0  0  0  0  0  0  0  0  0  0  # atno 10167 bound_to 10162
  156.9349  130.5839  149.5650 H   0  0  0  0  0  0  0  0  0  0  0  0  # atno 10718 bound_to 10713
  154.6116  135.2865  155.0426 H   0  0  0  0  0  0  0  0  0  0  0  0  # atno 10763 bound_to 10752
  154.1654  135.6481  153.5000 H   0  0  0  0  0  0  0  0  0  0  0  0  # atno 10764 bound_to 10752
  153.0197  135.5388  154.6871 H   0  0  0  0  0  0  0  0  0  0  0  0  # atno 10765 bound_to 10752
  140.5481  134.0310  155.7927 H   0  0  0  0  0  0  0  0  0  0  0  0  # atno 11005 bound_to 11000
  145.0065  139.3549  143.6141 LP  0  0  0  0  0  0  0  0  0  0  0  0  # atno 17320 bound_to 7965
  146.3440  139.9310  142.8753 LP  0  0  0  0  0  0  0  0  0  0  0  0  # atno 17321 bound_to 7965
  140.7803  143.4751  151.0093 LP  0  0  0  0  0  0  0  0  0  0  0  0  # atno 17342 bound_to 10162
  139.8438  143.7529  152.3180 LP  0  0  0  0  0  0  0  0  0  0  0  0  # atno 17343 bound_to 10162
  156.0430  130.5510  150.8816 LP  0  0  0  0  0  0  0  0  0  0  0  0  # atno 17370 bound_to 10713
  157.5823  131.0946  150.9252 LP  0  0  0  0  0  0  0  0  0  0  0  0  # atno 17371 bound_to 10713
  141.1188  133.9496  157.2770 LP  0  0  0  0  0  0  0  0  0  0  0  0  # atno 17394 bound_to 11000
  139.9469  135.0182  156.8880 LP  0  0  0  0  0  0  0  0  0  0  0  0  # atno 17395 bound_to 11000

$$$$
