AV-unprocessed.smi:1718|AV-procd|sdf|6922|dock7
  -GOLD-   22720 8123D 1   1.00000     0.00000
 Structure written by MMmdl.
 40 41  0  0  0  0  0  0  0  0  1 V2000
  141.5317  138.7477  154.6138 C   0  0  0  0  0  0  0  0  0  0  0  0
  141.3317  137.8961  153.3511 C   0  0  2  0  0  0  0  0  0  0  0  0
  140.0087  137.3700  153.3959 O   0  0  0  0  0  0  0  0  0  0  0  0
  138.9724  138.3284  153.5848 C   0  0  0  0  0  0  0  0  0  0  0  0
  137.7038  137.6176  154.0761 C   0  0  2  0  0  0  0  0  0  0  0  0
  136.5245  138.5530  154.3844 C   0  0  0  0  0  0  0  0  0  0  0  0
  136.3567  138.4283  155.8861 C   0  0  0  0  0  0  0  0  0  0  0  0
  136.8749  137.0216  156.1514 C   0  0  0  0  0  0  0  0  0  0  0  0
  137.9921  136.9169  155.2832 O   0  0  0  0  0  0  0  0  0  0  0  0
  142.3561  136.7523  153.2732 C   0  0  0  0  0  0  0  0  0  0  0  0
  142.3789  135.8986  154.1594 O   0  0  0  0  0  0  0  0  0  0  0  0
  143.1736  136.7821  152.2019 N   0  0  0  0  0  0  0  0  0  0  0  0
  144.1668  135.8695  151.8081 C   0  0  0  0  0  0  0  0  0  0  0  0
  143.9296  134.6321  151.2991 C   0  0  0  0  0  0  0  0  0  0  0  0
  145.0065  133.7445  150.8947 C   0  0  0  0  0  0  0  0  0  0  0  0
  144.7242  132.3350  150.3984 C   0  0  0  0  0  0  0  0  0  0  0  0
  143.4141  132.1065  150.2960 F   0  0  0  0  0  0  0  0  0  0  0  0
  145.2791  132.1341  149.2031 F   0  0  0  0  0  0  0  0  0  0  0  0
  145.2370  131.4453  151.2470 F   0  0  0  0  0  0  0  0  0  0  0  0
  146.2596  134.2083  151.0556 C   0  0  0  0  0  0  0  0  0  0  0  0
  146.5118  135.4869  151.5581 N   0  0  0  0  0  0  0  0  0  0  0  0
  145.5502  136.3550  151.9448 C   0  0  0  0  0  0  0  0  0  0  0  0
  145.8543  137.4664  152.3766 O   0  0  0  0  0  0  0  0  0  0  0  0
  147.4789  135.7677  151.6335 H   0  0  0  0  0  0  0  0  0  0  0  0
  142.5365  139.1698  154.6530 H   0  0  0  0  0  0  0  0  0  0  0  0
  141.3766  138.1636  155.5220 H   0  0  0  0  0  0  0  0  0  0  0  0
  140.8251  139.5776  154.6343 H   0  0  0  0  0  0  0  0  0  0  0  0
  141.4338  138.5482  152.4812 H   0  0  0  0  0  0  0  0  0  0  0  0
  139.2885  139.0661  154.3237 H   0  0  0  0  0  0  0  0  0  0  0  0
  138.7525  138.8656  152.6617 H   0  0  0  0  0  0  0  0  0  0  0  0
  137.3928  136.8851  153.3300 H   0  0  0  0  0  0  0  0  0  0  0  0
  136.6918  139.5837  154.0693 H   0  0  0  0  0  0  0  0  0  0  0  0
  135.6268  138.1941  153.8794 H   0  0  0  0  0  0  0  0  0  0  0  0
  136.9881  139.1586  156.3938 H   0  0  0  0  0  0  0  0  0  0  0  0
  135.3281  138.5749  156.2166 H   0  0  0  0  0  0  0  0  0  0  0  0
  137.1582  136.8639  157.1922 H   0  0  0  0  0  0  0  0  0  0  0  0
  136.1291  136.2737  155.8779 H   0  0  0  0  0  0  0  0  0  0  0  0
  143.0803  137.5847  151.5958 H   0  0  0  0  0  0  0  0  0  0  0  0
  142.9247  134.2711  151.1552 H   0  0  0  0  0  0  0  0  0  0  0  0
  147.1523  133.6470  150.8219 H   0  0  0  0  0  0  0  0  0  0  0  0
  1  2  1  0  0  0  0
  1 25  1  0  0  0  0
  1 26  1  0  0  0  0
  1 27  1  0  0  0  0
  2  3  1  0  0  0  0
  2 10  1  0  0  0  0
  2 28  1  0  0  0  0
  3  4  1  0  0  0  0
  4  5  1  0  0  0  0
  4 29  1  0  0  0  0
  4 30  1  0  0  0  0
  5  9  1  0  0  0  0
  5  6  1  0  0  0  0
  5 31  1  0  0  0  0
  6  7  1  0  0  0  0
  6 32  1  0  0  0  0
  6 33  1  0  0  0  0
  7  8  1  0  0  0  0
  7 34  1  0  0  0  0
  7 35  1  0  0  0  0
  8  9  1  0  0  0  0
  8 36  1  0  0  0  0
  8 37  1  0  0  0  0
 10 11  2  0  0  0  0
 10 12  1  0  0  0  0
 12 13  1  0  0  0  0
 12 38  1  0  0  0  0
 13 22  1  0  0  0  0
 13 14  2  0  0  0  0
 14 15  1  0  0  0  0
 14 39  1  0  0  0  0
 15 16  1  0  0  0  0
 15 20  2  0  0  0  0
 16 17  1  0  0  0  0
 16 18  1  0  0  0  0
 16 19  1  0  0  0  0
 20 21  1  0  0  0  0
 20 40  1  0  0  0  0
 21 24  1  0  0  0  0
 21 22  1  0  0  0  0
 22 23  2  0  0  0  0
M  END
> <s_m_source_file>
AV-unprocessed.smi

> <i_m_source_file_index>
1718

> <i_lp_mmshare_version>
43012

> <i_f3d_flags>
0

> <s_epik_input>
TzFbQ0gyXVtDSDJdW0NIMl1bQ0BIXTFbQ0gyXU9bQ0BASF0oW0NIM10pQyg9TylbTkhdYzJbY0hdYyhDKEYpKEYpRilbY0hdW25IXWMyPU8=

> <s_epik_cmdline>
J2VwaWtfcHl0aG9uJywgJy1waCcsICc3LjAnLCAnLXRuJywgJzgnLCAnLW1hJywgJzIwMCcsICctbWV0YWxfYmluZGluZycsICctaW1hZScsICc8aW5maWxlLm1hZT4nLCAnLW9tYWUnLCAnPG91dGZpbGUubWFlPic=

> <r_lp_tautomer_probability>
0.999

> <r_epik_Ionization_Penalty>
0.00894336

> <r_epik_Ionization_Penalty_Charging>
0.00894326

> <r_epik_Ionization_Penalty_Neutral>
1.00145e-07

> <r_epik_State_Penalty>
0.00676626

> <r_epik_Charging_Adjusted_Penalty>
0.0157095

> <i_epik_Tot_Q>
0

> <i_epik_Tot_abs_Q>
0

> <r_epik_Metal_State_Penalty>
0.321145

> <b_epik_Metal_Only>
0

> <s_lp_Force_Field>
OPLS_2005

> <r_lp_Energy>
34.6519

> <b_lp_Chiralities_Consistent>
1

> <s_lp_Variant>
AV-unprocessed.smi:1718-1

> <Gold.Version>
5.8.1

> <Gold.Id.Protein>
6NUR|6NUR_protein|mol2

> <Gold.PLP.Fitness>
41.8210

> <Gold.PLP.PLP>
-38.5742

> <Gold.PLP.part.hbond>
-1.8485

> <Gold.PLP.part.metal>
0.0000

> <Gold.PLP.part.buried>
-7.0914

> <Gold.PLP.part.nonpolar>
-31.4423

> <Gold.PLP.part.repulsive>
0.6626

> <Gold.PLP.ligand.clash>
0.0000

> <Gold.PLP.ligand.torsion>
0.8270

> <Gold.PLP.Chemscore.Hbond>
1.5712

> <Gold.PLP.Chemscore.CHOScore>
0.0000

> <Gold.PLP.Chemscore.Metal>
0.0000

> <Gold.Chemscore.Hbonds>
donor molecule, donor type, donor heavy atom, donor atom, acceptor molecule, acceptor atom, score
      L1  H    12    38       P1 10171  0.59
      L1  H    21    24       P1  7948  0.98

> <Gold.PLP.Chemscore.Internal.Correction>
0.1871

> <Gold.Rescore>
     Score         DG    S(hbond)    S(metal)    S(lipo)     H(rot)  DE(clash)    DE(int)     intcor
     13.61     -14.60       1.70        0.00      70.44       1.88       0.17       0.81       ----

> <Gold.Chemscore.Fitness>
13.6130

> <Gold.Chemscore.DG>
-14.5951

> <Gold.Chemscore.ZeroCoef>
-5.4800

> <Gold.Chemscore.Hbond>
1.7018

> <Gold.Chemscore.Metal>
0.0000

> <Gold.Chemscore.Lipo>
70.4379

> <Gold.Chemscore.Internal_Hbond>
0.0000

> <Gold.Chemscore.DEClash>
0.1705

> <Gold.Chemscore.DEInternal>
0.8116

> <Gold.Chemscore.Rot>
1.8790

> <Gold.Chemscore.Internal.Correction>
   9.000000E+99

> <Gold.Chemscore.Hbonds>
donor molecule, donor type, donor heavy atom, donor atom, acceptor molecule, acceptor atom, score
      L1  H    12    38       P1 10171  0.38
      L1  H    21    24       P1  7948  0.92

> <Gold.Chemscore.Hbond.Weighted>
-5.6841

> <Gold.Chemscore.Metal.Weighted>
-0.0000

> <Gold.Chemscore.Lipo.Weighted>
-8.2412

> <Gold.Chemscore.Internal_Hbond.Weighted>
0.0000

> <Gold.Chemscore.DEClash.Weighted>
0.1705

> <Gold.Chemscore.DEInternal.Weighted>
0.8116

> <Gold.Chemscore.Rot.Weighted>
4.8102

> <Gold.Chemscore.Internal.Correction.Weighted>
   9.000000E+99

> <Gold.Protein.RotatedTorsions>
[ 6907 6896 6895 6894 ] final   59.15 input  -60.11 | X-H torsion
[ 7974 7965 7964 7962 ] final   44.08 input  175.53 | X-H torsion
[ 8008 7997 7996 7995 ] final   45.20 input   59.86 | X-H torsion
[ 10167 10162 10161 10158 ] final  -79.72 input  -65.29 | X-H torsion
[ 10718 10713 10712 10709 ] final  -74.89 input   66.30 | X-H torsion
[ 10763 10752 10751 10750 ] final  111.42 input  -60.55 | X-H torsion
[ 11005 11000 10999 10996 ] final  136.34 input  -57.11 | X-H torsion

> <Gold.Protein.ActiveResidues>
 VAL166  LYS551  ARG553  GLY616  TRP617  ASP618  TYR619  PRO620  LYS621  CYS622 
 ASP623  PHE694  ASN695  SER759  ASP760  ASP761  ALA762  ILE779  LEU786  VAL792 
 PHE793  MET794  SER795  GLU796  ALA797  LYS798  CYS799  TRP800  GLU811  SER814 

> <Gold.Protein.RotatedAtoms>
  152.3888  134.6474  160.0115 H   0  0  0  0  0  0  0  0  0  0  0  0  # atno 6907 bound_to 6896
  151.6714  133.3308  159.3205 H   0  0  0  0  0  0  0  0  0  0  0  0  # atno 6908 bound_to 6896
  150.7809  134.6796  159.6481 H   0  0  0  0  0  0  0  0  0  0  0  0  # atno 6909 bound_to 6896
  146.0600  139.5115  142.9664 H   0  0  0  0  0  0  0  0  0  0  0  0  # atno 7974 bound_to 7965
  155.3319  140.3403  155.4239 H   0  0  0  0  0  0  0  0  0  0  0  0  # atno 8008 bound_to 7997
  156.1857  140.1679  156.8226 H   0  0  0  0  0  0  0  0  0  0  0  0  # atno 8009 bound_to 7997
  154.5383  140.0730  156.8450 H   0  0  0  0  0  0  0  0  0  0  0  0  # atno 8010 bound_to 7997
  140.4568  143.2466  151.8408 H   0  0  0  0  0  0  0  0  0  0  0  0  # atno 10167 bound_to 10162
  156.0226  130.4428  150.2961 H   0  0  0  0  0  0  0  0  0  0  0  0  # atno 10718 bound_to 10713
  153.4631  135.3717  155.2349 H   0  0  0  0  0  0  0  0  0  0  0  0  # atno 10763 bound_to 10752
  154.8757  135.3913  154.3901 H   0  0  0  0  0  0  0  0  0  0  0  0  # atno 10764 bound_to 10752
  153.4478  135.7085  153.6192 H   0  0  0  0  0  0  0  0  0  0  0  0  # atno 10765 bound_to 10752
  140.0040  134.9467  157.0134 H   0  0  0  0  0  0  0  0  0  0  0  0  # atno 11005 bound_to 11000
  145.6577  141.0248  143.1726 LP  0  0  0  0  0  0  0  0  0  0  0  0  # atno 17320 bound_to 7965
  144.7169  139.8164  143.7395 LP  0  0  0  0  0  0  0  0  0  0  0  0  # atno 17321 bound_to 7965
  139.4802  144.5055  151.9003 LP  0  0  0  0  0  0  0  0  0  0  0  0  # atno 17342 bound_to 10162
  140.4141  144.2330  150.5888 LP  0  0  0  0  0  0  0  0  0  0  0  0  # atno 17343 bound_to 10162
  157.1064  131.0209  151.3065 LP  0  0  0  0  0  0  0  0  0  0  0  0  # atno 17370 bound_to 10713
  157.4739  130.7725  149.7350 LP  0  0  0  0  0  0  0  0  0  0  0  0  # atno 17371 bound_to 10713
  140.4676  134.1420  155.7199 LP  0  0  0  0  0  0  0  0  0  0  0  0  # atno 17394 bound_to 11000
  141.1663  133.8697  157.1705 LP  0  0  0  0  0  0  0  0  0  0  0  0  # atno 17395 bound_to 11000

$$$$
