AV-unprocessed.smi:50|AV-procd|sdf|491|dock10
  -GOLD-   2262016353D 1   1.00000     0.00000
 Structure written by MMmdl.
 44 45  0  0  0  0  0  0  0  0  2 V2000
  158.7281  136.2120  151.4096 C   0  0  0  0  0  0  0  0  0  0  0  0
  158.1531  136.5495  152.7981 C   0  0  0  0  0  0  0  0  0  0  0  0
  158.0810  135.2651  153.6472 C   0  0  0  0  0  0  0  0  0  0  0  0
  156.7912  137.2896  152.6920 C   0  0  2  0  0  0  0  0  0  0  0  0
  156.8765  138.4528  151.7874 N   0  3  0  0  0  0  0  0  0  0  0  0
  156.2781  137.8185  154.0428 C   0  0  0  0  0  0  0  0  0  0  0  0
  155.9894  138.9955  154.2677 O   0  0  0  0  0  0  0  0  0  0  0  0
  156.2140  136.8210  154.9398 O   0  0  0  0  0  0  0  0  0  0  0  0
  156.0960  137.1210  156.3212 C   0  0  0  0  0  0  0  0  0  0  0  0
  154.6171  137.2825  156.6830 C   0  0  0  0  0  0  0  0  0  0  0  0
  154.5017  138.2275  157.7348 O   0  0  0  0  0  0  0  0  0  0  0  0
  153.3048  138.1255  158.4337 C   0  0  0  0  0  0  0  0  0  0  0  0
  153.1043  139.3698  159.1548 N   0  0  0  0  0  0  0  0  0  0  0  0
  153.6718  139.7688  160.3397 C   0  0  0  0  0  0  0  0  0  0  0  0
  153.2879  140.9480  160.7420 N   0  0  0  0  0  0  0  0  0  0  0  0
  152.3914  141.3665  159.7631 C   0  0  0  0  0  0  0  0  0  0  0  0
  151.6365  142.5832  159.6605 C   0  0  0  0  0  0  0  0  0  0  0  0
  151.6248  143.5402  160.4319 O   0  0  0  0  0  0  0  0  0  0  0  0
  150.8342  142.6117  158.5126 N   0  0  0  0  0  0  0  0  0  0  0  0
  150.7730  141.5829  157.5757 C   0  0  0  0  0  0  0  0  0  0  0  0
  149.9522  141.7641  156.5329 N   0  0  0  0  0  0  0  0  0  0  0  0
  151.4714  140.4651  157.6695 N   0  0  0  0  0  0  0  0  0  0  0  0
  152.2684  140.4017  158.7815 C   0  0  0  0  0  0  0  0  0  0  0  0
  156.0498  136.6074  152.2740 H   0  0  0  0  0  0  0  0  0  0  0  0
  150.2699  143.4366  158.3710 H   0  0  0  0  0  0  0  0  0  0  0  0
  158.0538  135.5630  150.8498 H   0  0  0  0  0  0  0  0  0  0  0  0
  159.6852  135.6964  151.4959 H   0  0  0  0  0  0  0  0  0  0  0  0
  158.9042  137.1062  150.8118 H   0  0  0  0  0  0  0  0  0  0  0  0
  158.8649  137.2174  153.2861 H   0  0  0  0  0  0  0  0  0  0  0  0
  157.3326  134.5744  153.2571 H   0  0  0  0  0  0  0  0  0  0  0  0
  157.8329  135.4761  154.6873 H   0  0  0  0  0  0  0  0  0  0  0  0
  159.0392  134.7445  153.6525 H   0  0  0  0  0  0  0  0  0  0  0  0
  156.0720  139.0467  151.9289 H   0  0  0  0  0  0  0  0  0  0  0  0
  156.9005  138.1358  150.8289 H   0  0  0  0  0  0  0  0  0  0  0  0
  156.5248  136.3031  156.9019 H   0  0  0  0  0  0  0  0  0  0  0  0
  156.6535  138.0261  156.5662 H   0  0  0  0  0  0  0  0  0  0  0  0
  154.0394  137.5925  155.8106 H   0  0  0  0  0  0  0  0  0  0  0  0
  154.2213  136.3212  157.0140 H   0  0  0  0  0  0  0  0  0  0  0  0
  152.4756  137.9603  157.7438 H   0  0  0  0  0  0  0  0  0  0  0  0
  153.3456  137.3114  159.1590 H   0  0  0  0  0  0  0  0  0  0  0  0
  154.3770  139.1637  160.8909 H   0  0  0  0  0  0  0  0  0  0  0  0
  149.4173  142.6175  156.4595 H   0  0  0  0  0  0  0  0  0  0  0  0
  149.8669  141.0529  155.8213 H   0  0  0  0  0  0  0  0  0  0  0  0
  157.7172  138.9737  151.9933 H   0  0  0  0  0  0  0  0  0  0  0  0
  1  2  1  0  0  0  0
  1 26  1  0  0  0  0
  1 27  1  0  0  0  0
  1 28  1  0  0  0  0
  2  3  1  0  0  0  0
  2  4  1  0  0  0  0
  2 29  1  0  0  0  0
  3 30  1  0  0  0  0
  3 31  1  0  0  0  0
  3 32  1  0  0  0  0
  4 24  1  0  0  0  0
  4  5  1  0  0  0  0
  4  6  1  0  0  0  0
  5 33  1  0  0  0  0
  5 34  1  0  0  0  0
  5 44  1  0  0  0  0
  6  7  2  0  0  0  0
  6  8  1  0  0  0  0
  8  9  1  0  0  0  0
  9 10  1  0  0  0  0
  9 35  1  0  0  0  0
  9 36  1  0  0  0  0
 10 11  1  0  0  0  0
 10 37  1  0  0  0  0
 10 38  1  0  0  0  0
 11 12  1  0  0  0  0
 12 13  1  0  0  0  0
 12 39  1  0  0  0  0
 12 40  1  0  0  0  0
 13 23  1  0  0  0  0
 13 14  1  0  0  0  0
 14 15  2  0  0  0  0
 14 41  1  0  0  0  0
 15 16  1  0  0  0  0
 16 23  2  0  0  0  0
 16 17  1  0  0  0  0
 17 18  2  0  0  0  0
 17 19  1  0  0  0  0
 19 25  1  0  0  0  0
 19 20  1  0  0  0  0
 20 21  1  0  0  0  0
 20 22  2  0  0  0  0
 21 42  1  0  0  0  0
 21 43  1  0  0  0  0
 22 23  1  0  0  0  0
M  CHG  1   5   1
M  END
> <s_m_source_file>
AV-unprocessed.smi

> <i_m_source_file_index>
50

> <i_lp_mmshare_version>
43012

> <i_f3d_flags>
0

> <s_epik_input>
W0NIM11bQ0hdKFtDSDNdKVtDQEhdKFtOSDJdKUMoPU8pT1tDSDJdW0NIMl1PW0NIMl1uKFtjSF1uMSljKGMxMiluYyhbTkgyXSlbbkhdYzI9Tw==

> <s_epik_cmdline>
J2VwaWtfcHl0aG9uJywgJy1waCcsICc3LjAnLCAnLXRuJywgJzgnLCAnLW1hJywgJzIwMCcsICctbWV0YWxfYmluZGluZycsICctaW1hZScsICc8aW5maWxlLm1hZT4nLCAnLW9tYWUnLCAnPG91dGZpbGUubWFlPic=

> <r_lp_tautomer_probability>
0.99994

> <r_epik_Ionization_Penalty>
0.217551

> <r_epik_Ionization_Penalty_Charging>
0.217477

> <r_epik_Ionization_Penalty_Neutral>
7.42487e-05

> <r_epik_State_Penalty>
0.206211

> <r_epik_Charging_Adjusted_Penalty>
0.423688

> <i_epik_Tot_Q>
1

> <i_epik_Tot_abs_Q>
1

> <r_epik_Metal_State_Penalty>
0.526339

> <b_epik_Metal_Only>
0

> <s_epik_Chemistry_Notes>
This compound has an ester and may undergo hydrolysis at high or low pH. This compound contains an acetal/aminal-like group ( X-CH(R)-Y where X, Y are N, S, or O) that may be acid/base labile, releasing an aldehyde.

> <s_lp_Force_Field>
OPLS_2005

> <r_lp_Energy>
8.83135

> <b_lp_Chiralities_Consistent>
1

> <s_lp_Variant>
AV-unprocessed.smi:50-1

> <Gold.Version>
5.8.1

> <Gold.Id.Protein>
6NUR|6NUR_protein|mol2

> <Gold.PLP.Fitness>
44.2337

> <Gold.PLP.PLP>
-36.7422

> <Gold.PLP.part.hbond>
-4.7398

> <Gold.PLP.part.metal>
0.0000

> <Gold.PLP.part.buried>
-6.2369

> <Gold.PLP.part.nonpolar>
-26.6963

> <Gold.PLP.part.repulsive>
0.1880

> <Gold.PLP.ligand.clash>
0.0000

> <Gold.PLP.ligand.torsion>
1.0677

> <Gold.PLP.Chemscore.Hbond>
3.1840

> <Gold.PLP.Chemscore.CHOScore>
0.0000

> <Gold.PLP.Chemscore.Metal>
0.0000

> <Gold.Chemscore.Hbonds>
donor molecule, donor type, donor heavy atom, donor atom, acceptor molecule, acceptor atom, score
      L1  H     5    34       P1 10674  1.00
      L1  H    21    42       P1  8028  0.29
      P1  H  7997  8008       L1     7  0.62
      P1  H  7997  8010       L1    11  0.64

> <Gold.PLP.Chemscore.Internal.Correction>
0.0748

> <Gold.Rescore>
     Score         DG    S(hbond)    S(metal)    S(lipo)     H(rot)  DE(clash)    DE(int)     intcor
      5.89      -9.75       2.86        0.00      61.18       4.86       1.43       2.43       ----

> <Gold.Chemscore.Fitness>
5.8854

> <Gold.Chemscore.DG>
-9.7481

> <Gold.Chemscore.ZeroCoef>
-5.4800

> <Gold.Chemscore.Hbond>
2.8578

> <Gold.Chemscore.Metal>
0.0000

> <Gold.Chemscore.Lipo>
61.1754

> <Gold.Chemscore.Internal_Hbond>
0.0000

> <Gold.Chemscore.DEClash>
1.4296

> <Gold.Chemscore.DEInternal>
2.4332

> <Gold.Chemscore.Rot>
4.8571

> <Gold.Chemscore.Internal.Correction>
   9.000000E+99

> <Gold.Chemscore.Hbonds>
donor molecule, donor type, donor heavy atom, donor atom, acceptor molecule, acceptor atom, score
      L1  H     5    34       P1 10674  0.93
      L1  H    21    42       P1  8028  0.31
      P1  H  7997  8008       L1     7  0.62
      P1  H  7997  8010       L1    11  0.29

> <Gold.Chemscore.Hbond.Weighted>
-9.5449

> <Gold.Chemscore.Metal.Weighted>
-0.0000

> <Gold.Chemscore.Lipo.Weighted>
-7.1575

> <Gold.Chemscore.Internal_Hbond.Weighted>
0.0000

> <Gold.Chemscore.DEClash.Weighted>
1.4296

> <Gold.Chemscore.DEInternal.Weighted>
2.4332

> <Gold.Chemscore.Rot.Weighted>
12.4343

> <Gold.Chemscore.Internal.Correction.Weighted>
   9.000000E+99

> <Gold.Protein.RotatedTorsions>
[ 6907 6896 6895 6894 ] final  -40.94 input  -60.11 | X-H torsion
[ 7974 7965 7964 7962 ] final -174.67 input  175.53 | X-H torsion
[ 8008 7997 7996 7995 ] final   36.93 input   59.86 | X-H torsion
[ 10167 10162 10161 10158 ] final  175.48 input  -65.29 | X-H torsion
[ 10718 10713 10712 10709 ] final   42.37 input   66.30 | X-H torsion
[ 10763 10752 10751 10750 ] final   49.86 input  -60.55 | X-H torsion
[ 11005 11000 10999 10996 ] final  169.96 input  -57.11 | X-H torsion

> <Gold.Protein.ActiveResidues>
 VAL166  LYS551  ARG553  GLY616  TRP617  ASP618  TYR619  PRO620  LYS621  CYS622 
 ASP623  PHE694  ASN695  SER759  ASP760  ASP761  ALA762  ILE779  LEU786  VAL792 
 PHE793  MET794  SER795  GLU796  ALA797  LYS798  CYS799  TRP800  GLU811  SER814 

> <Gold.Protein.RotatedAtoms>
  150.9726  134.9096  159.7796 H   0  0  0  0  0  0  0  0  0  0  0  0  # atno 6907 bound_to 6896
  152.5195  134.3520  159.9264 H   0  0  0  0  0  0  0  0  0  0  0  0  # atno 6908 bound_to 6896
  151.3529  133.3878  159.2716 H   0  0  0  0  0  0  0  0  0  0  0  0  # atno 6909 bound_to 6896
  144.7131  140.1436  143.6390 H   0  0  0  0  0  0  0  0  0  0  0  0  # atno 7974 bound_to 7965
  155.1955  140.3311  155.4351 H   0  0  0  0  0  0  0  0  0  0  0  0  # atno 8008 bound_to 7997
  156.2426  140.1903  156.6995 H   0  0  0  0  0  0  0  0  0  0  0  0  # atno 8009 bound_to 7997
  154.6177  140.0600  156.9561 H   0  0  0  0  0  0  0  0  0  0  0  0  # atno 8010 bound_to 7997
  139.5179  144.3026  152.0365 H   0  0  0  0  0  0  0  0  0  0  0  0  # atno 10167 bound_to 10162
  157.4040  130.7876  149.7373 H   0  0  0  0  0  0  0  0  0  0  0  0  # atno 10718 bound_to 10713
  152.9785  135.5898  154.4158 H   0  0  0  0  0  0  0  0  0  0  0  0  # atno 10763 bound_to 10752
  154.3788  135.2767  155.2225 H   0  0  0  0  0  0  0  0  0  0  0  0  # atno 10764 bound_to 10752
  154.4148  135.6073  153.6029 H   0  0  0  0  0  0  0  0  0  0  0  0  # atno 10765 bound_to 10752
  140.3032  134.7578  157.3933 H   0  0  0  0  0  0  0  0  0  0  0  0  # atno 11005 bound_to 11000
  145.9179  139.2527  143.1398 LP  0  0  0  0  0  0  0  0  0  0  0  0  # atno 17320 bound_to 7965
  145.9650  140.8806  143.0191 LP  0  0  0  0  0  0  0  0  0  0  0  0  # atno 17321 bound_to 7965
  140.2473  144.4206  150.6236 LP  0  0  0  0  0  0  0  0  0  0  0  0  # atno 17342 bound_to 10162
  140.6249  143.2180  151.6617 LP  0  0  0  0  0  0  0  0  0  0  0  0  # atno 17343 bound_to 10162
  155.9831  130.4003  150.3380 LP  0  0  0  0  0  0  0  0  0  0  0  0  # atno 17370 bound_to 10713
  157.1511  131.0321  151.2885 LP  0  0  0  0  0  0  0  0  0  0  0  0  # atno 17371 bound_to 10713
  140.1090  134.5371  155.8283 LP  0  0  0  0  0  0  0  0  0  0  0  0  # atno 17394 bound_to 11000
  141.2124  133.6718  156.6653 LP  0  0  0  0  0  0  0  0  0  0  0  0  # atno 17395 bound_to 11000

$$$$
