AV-unprocessed.smi:67|AV-procd|sdf|629|dock6
  -GOLD-   2262016523D 1   1.00000     0.00000
 Structure written by MMmdl.
 49 51  0  0  0  0  0  0  0  0  3 V2000
  145.2299  140.1019  154.6984 O   0  0  0  0  0  0  0  0  0  0  0  0
  146.6211  139.8324  154.7450 C   0  0  1  0  0  0  0  0  0  0  0  0
  147.3493  141.1064  155.2306 C   0  0  0  0  0  0  0  0  0  0  0  0
  148.6163  140.7927  155.9456 N   0  3  2  0  0  0  0  0  0  0  0  0
  148.7065  141.4455  157.2781 C   0  0  0  0  0  0  0  0  0  0  0  0
  149.9213  140.9324  158.0693 C   0  0  0  0  0  0  0  0  0  0  0  0
  151.2157  141.0931  157.2460 C   0  0  1  0  0  0  0  0  0  0  0  0
  152.4154  140.7398  157.9387 O   0  0  0  0  0  0  0  0  0  0  0  0
  152.7777  141.2774  159.1594 C   0  0  0  0  0  0  0  0  0  0  0  0
  152.3599  142.5294  159.6762 C   0  0  0  0  0  0  0  0  0  0  0  0
  152.7978  142.9624  160.9422 C   0  0  0  0  0  0  0  0  0  0  0  0
  153.6600  142.1581  161.7087 C   0  0  0  0  0  0  0  0  0  0  0  0
  154.0941  140.9132  161.2091 C   0  0  0  0  0  0  0  0  0  0  0  0
  155.0207  140.0288  162.0305 C   0  0  0  0  0  0  0  0  0  0  0  0
  154.4369  138.8477  162.2287 F   0  0  0  0  0  0  0  0  0  0  0  0
  156.1749  139.8357  161.3911 F   0  0  0  0  0  0  0  0  0  0  0  0
  155.2882  140.5793  163.2153 F   0  0  0  0  0  0  0  0  0  0  0  0
  153.6430  140.4844  159.9424 C   0  0  0  0  0  0  0  0  0  0  0  0
  151.0936  140.5134  155.8216 C   0  0  0  0  0  0  0  0  0  0  0  0
  149.8308  141.0485  155.1264 C   0  0  0  0  0  0  0  0  0  0  0  0
  146.8780  138.5765  155.5845 C   0  0  0  0  0  0  0  0  0  0  0  0
  146.5607  137.4229  154.6310 C   0  0  0  0  0  0  0  0  0  0  0  0
  146.8554  137.9211  153.2739 N   0  3  0  0  0  0  0  0  0  0  0  0
  147.0642  139.3825  153.3422 C   0  0  0  0  0  0  0  0  0  0  0  0
  144.9607  140.1757  153.7947 H   0  0  0  0  0  0  0  0  0  0  0  0
  147.5474  141.7769  154.3924 H   0  0  0  0  0  0  0  0  0  0  0  0
  146.6745  141.6595  155.8865 H   0  0  0  0  0  0  0  0  0  0  0  0
  148.7674  142.5274  157.1502 H   0  0  0  0  0  0  0  0  0  0  0  0
  147.8005  141.2429  157.8510 H   0  0  0  0  0  0  0  0  0  0  0  0
  150.0103  141.4889  159.0028 H   0  0  0  0  0  0  0  0  0  0  0  0
  149.7394  139.8998  158.3556 H   0  0  0  0  0  0  0  0  0  0  0  0
  151.3323  142.1688  157.1062 H   0  0  0  0  0  0  0  0  0  0  0  0
  151.7025  143.1876  159.1362 H   0  0  0  0  0  0  0  0  0  0  0  0
  152.4694  143.9163  161.3281 H   0  0  0  0  0  0  0  0  0  0  0  0
  153.9831  142.5015  162.6804 H   0  0  0  0  0  0  0  0  0  0  0  0
  153.9643  139.5261  159.5606 H   0  0  0  0  0  0  0  0  0  0  0  0
  151.9743  140.7860  155.2391 H   0  0  0  0  0  0  0  0  0  0  0  0
  151.0593  139.4271  155.8175 H   0  0  0  0  0  0  0  0  0  0  0  0
  149.7333  140.5747  154.1501 H   0  0  0  0  0  0  0  0  0  0  0  0
  149.9279  142.1203  154.9461 H   0  0  0  0  0  0  0  0  0  0  0  0
  147.9322  138.5247  155.8608 H   0  0  0  0  0  0  0  0  0  0  0  0
  146.2919  138.5400  156.5038 H   0  0  0  0  0  0  0  0  0  0  0  0
  147.1300  136.5216  154.8598 H   0  0  0  0  0  0  0  0  0  0  0  0
  145.5002  137.1734  154.6824 H   0  0  0  0  0  0  0  0  0  0  0  0
  147.6893  137.4783  152.9141 H   0  0  0  0  0  0  0  0  0  0  0  0
  146.5433  139.9024  152.5367 H   0  0  0  0  0  0  0  0  0  0  0  0
  148.1319  139.5628  153.2084 H   0  0  0  0  0  0  0  0  0  0  0  0
  146.0742  137.7109  152.6684 H   0  0  0  0  0  0  0  0  0  0  0  0
  148.5896  139.7987  156.1263 H   0  0  0  0  0  0  0  0  0  0  0  0
  1  2  1  0  0  0  0
  1 25  1  0  0  0  0
  2 24  1  0  0  0  0
  2  3  1  0  0  0  0
  2 21  1  0  0  0  0
  3  4  1  0  0  0  0
  3 26  1  0  0  0  0
  3 27  1  0  0  0  0
  4 20  1  0  0  0  0
  4  5  1  0  0  0  0
  4 49  1  0  0  0  0
  5  6  1  0  0  0  0
  5 28  1  0  0  0  0
  5 29  1  0  0  0  0
  6  7  1  0  0  0  0
  6 30  1  0  0  0  0
  6 31  1  0  0  0  0
  7  8  1  0  0  0  0
  7 19  1  0  0  0  0
  7 32  1  0  0  0  0
  8  9  1  0  0  0  0
  9 18  1  0  0  0  0
  9 10  2  0  0  0  0
 10 11  1  0  0  0  0
 10 33  1  0  0  0  0
 11 12  2  0  0  0  0
 11 34  1  0  0  0  0
 12 13  1  0  0  0  0
 12 35  1  0  0  0  0
 13 14  1  0  0  0  0
 13 18  2  0  0  0  0
 14 15  1  0  0  0  0
 14 16  1  0  0  0  0
 14 17  1  0  0  0  0
 18 36  1  0  0  0  0
 19 20  1  0  0  0  0
 19 37  1  0  0  0  0
 19 38  1  0  0  0  0
 20 39  1  0  0  0  0
 20 40  1  0  0  0  0
 21 22  1  0  0  0  0
 21 41  1  0  0  0  0
 21 42  1  0  0  0  0
 22 23  1  0  0  0  0
 22 43  1  0  0  0  0
 22 44  1  0  0  0  0
 23 24  1  0  0  0  0
 23 45  1  0  0  0  0
 23 48  1  0  0  0  0
 24 46  1  0  0  0  0
 24 47  1  0  0  0  0
M  CHG  1   4   1
M  CHG  1  23   1
M  END
> <s_m_source_file>
AV-unprocessed.smi

> <i_m_source_file_index>
67

> <i_lp_mmshare_version>
43012

> <i_f3d_flags>
0

> <s_epik_input>
W0NIMl0xW05IXVtDSDJdW0NIMl1bQ0BAXTEoW09IXSlbQ0gyXU4yW0NIMl1bQ0gyXVtDSF0oW0NIMl1bQ0gyXTIpT2MzW2NIXVtjSF1bY0hdYyhDKEYpKEYpRilbY0hdMw==

> <s_epik_cmdline>
J2VwaWtfcHl0aG9uJywgJy1waCcsICc3LjAnLCAnLXRuJywgJzgnLCAnLW1hJywgJzIwMCcsICctbWV0YWxfYmluZGluZycsICctaW1hZScsICc8aW5maWxlLm1hZT4nLCAnLW9tYWUnLCAnPG91dGZpbGUubWFlPic=

> <r_lp_tautomer_probability>
1

> <r_epik_Ionization_Penalty>
0.0989853

> <r_epik_Ionization_Penalty_Charging>
0.0989662

> <r_epik_Ionization_Penalty_Neutral>
1.91014e-05

> <r_epik_State_Penalty>
0.0852826

> <r_epik_Charging_Adjusted_Penalty>
0.184249

> <i_epik_Tot_Q>
2

> <i_epik_Tot_abs_Q>
2

> <r_epik_Metal_State_Penalty>
0.0849414

> <b_epik_Metal_Only>
0

> <s_lp_Force_Field>
OPLS_2005

> <r_lp_Energy>
60.8706

> <b_lp_Chiralities_Consistent>
1

> <s_lp_Variant>
AV-unprocessed.smi:67-1

> <Gold.Version>
5.8.1

> <Gold.Id.Protein>
6NUR|6NUR_protein|mol2

> <Gold.PLP.Fitness>
48.2777

> <Gold.PLP.PLP>
-41.9694

> <Gold.PLP.part.hbond>
-2.4364

> <Gold.PLP.part.metal>
0.0000

> <Gold.PLP.part.buried>
-1.2268

> <Gold.PLP.part.nonpolar>
-37.0088

> <Gold.PLP.part.repulsive>
0.0653

> <Gold.PLP.ligand.clash>
0.9869

> <Gold.PLP.ligand.torsion>
1.6078

> <Gold.PLP.Chemscore.Hbond>
3.0505

> <Gold.PLP.Chemscore.CHOScore>
0.0000

> <Gold.PLP.Chemscore.Metal>
0.0000

> <Gold.Chemscore.Hbonds>
donor molecule, donor type, donor heavy atom, donor atom, acceptor molecule, acceptor atom, score
      L1  H     1    25       P1 10175  1.00
      L1  H    23    45       P1  7948  1.85
      P1  H  7997  8010       L1     8  0.05

> <Gold.PLP.Chemscore.Internal.Correction>
1.3594

> <Gold.Rescore>
     Score         DG    S(hbond)    S(metal)    S(lipo)     H(rot)  DE(clash)    DE(int)     intcor
     17.78     -19.66       2.05        0.00     111.65       2.24       0.18       1.71       ----

> <Gold.Chemscore.Fitness>
17.7772

> <Gold.Chemscore.DG>
-19.6626

> <Gold.Chemscore.ZeroCoef>
-5.4800

> <Gold.Chemscore.Hbond>
2.0486

> <Gold.Chemscore.Metal>
0.0000

> <Gold.Chemscore.Lipo>
111.6460

> <Gold.Chemscore.Internal_Hbond>
0.0000

> <Gold.Chemscore.DEClash>
0.1786

> <Gold.Chemscore.DEInternal>
1.7069

> <Gold.Chemscore.Rot>
2.2352

> <Gold.Chemscore.Internal.Correction>
   9.000000E+99

> <Gold.Chemscore.Hbonds>
donor molecule, donor type, donor heavy atom, donor atom, acceptor molecule, acceptor atom, score
      L1  H     1    25       P1 10175  0.96
      L1  H    23    45       P1  7948  0.88
      P1  H  7997  8010       L1     8  0.05

> <Gold.Chemscore.Hbond.Weighted>
-6.8422

> <Gold.Chemscore.Metal.Weighted>
-0.0000

> <Gold.Chemscore.Lipo.Weighted>
-13.0626

> <Gold.Chemscore.Internal_Hbond.Weighted>
0.0000

> <Gold.Chemscore.DEClash.Weighted>
0.1786

> <Gold.Chemscore.DEInternal.Weighted>
1.7069

> <Gold.Chemscore.Rot.Weighted>
5.7221

> <Gold.Chemscore.Internal.Correction.Weighted>
   9.000000E+99

> <Gold.Protein.RotatedTorsions>
[ 6907 6896 6895 6894 ] final   63.59 input  -60.11 | X-H torsion
[ 7974 7965 7964 7962 ] final   98.35 input  175.53 | X-H torsion
[ 8008 7997 7996 7995 ] final   51.65 input   59.86 | X-H torsion
[ 10167 10162 10161 10158 ] final   52.28 input  -65.29 | X-H torsion
[ 10718 10713 10712 10709 ] final  -45.29 input   66.30 | X-H torsion
[ 10763 10752 10751 10750 ] final  -33.08 input  -60.55 | X-H torsion
[ 11005 11000 10999 10996 ] final  -44.15 input  -57.11 | X-H torsion

> <Gold.Protein.ActiveResidues>
 VAL166  LYS551  ARG553  GLY616  TRP617  ASP618  TYR619  PRO620  LYS621  CYS622 
 ASP623  PHE694  ASN695  SER759  ASP760  ASP761  ALA762  ILE779  LEU786  VAL792 
 PHE793  MET794  SER795  GLU796  ALA797  LYS798  CYS799  TRP800  GLU811  SER814 

> <Gold.Protein.RotatedAtoms>
  152.4265  134.5859  159.9960 H   0  0  0  0  0  0  0  0  0  0  0  0  # atno 6907 bound_to 6896
  151.5994  133.3352  159.3052 H   0  0  0  0  0  0  0  0  0  0  0  0  # atno 6908 bound_to 6896
  150.8154  134.7370  159.6791 H   0  0  0  0  0  0  0  0  0  0  0  0  # atno 6909 bound_to 6896
  145.4134  139.2331  143.3236 H   0  0  0  0  0  0  0  0  0  0  0  0  # atno 7974 bound_to 7965
  155.4389  140.3453  155.4288 H   0  0  0  0  0  0  0  0  0  0  0  0  # atno 8008 bound_to 7997
  156.1291  140.1509  156.9122 H   0  0  0  0  0  0  0  0  0  0  0  0  # atno 8009 bound_to 7997
  154.4881  140.0849  156.7512 H   0  0  0  0  0  0  0  0  0  0  0  0  # atno 8010 bound_to 7997
  140.2530  144.3457  150.6342 H   0  0  0  0  0  0  0  0  0  0  0  0  # atno 10167 bound_to 10162
  156.2299  130.4172  149.8888 H   0  0  0  0  0  0  0  0  0  0  0  0  # atno 10718 bound_to 10713
  153.8244  135.6871  153.4823 H   0  0  0  0  0  0  0  0  0  0  0  0  # atno 10763 bound_to 10752
  153.1549  135.4603  154.9688 H   0  0  0  0  0  0  0  0  0  0  0  0  # atno 10764 bound_to 10752
  154.7914  135.3303  154.7713 H   0  0  0  0  0  0  0  0  0  0  0  0  # atno 10765 bound_to 10752
  141.0431  133.6772  156.2832 H   0  0  0  0  0  0  0  0  0  0  0  0  # atno 11005 bound_to 11000
  146.2693  140.4848  142.8821 LP  0  0  0  0  0  0  0  0  0  0  0  0  # atno 17320 bound_to 7965
  144.8294  140.6682  143.6301 LP  0  0  0  0  0  0  0  0  0  0  0  0  # atno 17321 bound_to 7965
  140.6025  143.2167  151.7044 LP  0  0  0  0  0  0  0  0  0  0  0  0  # atno 17342 bound_to 10162
  139.5040  144.3770  152.0414 LP  0  0  0  0  0  0  0  0  0  0  0  0  # atno 17343 bound_to 10162
  156.6506  130.8742  151.3530 LP  0  0  0  0  0  0  0  0  0  0  0  0  # atno 17370 bound_to 10713
  157.7128  130.9460  150.1148 LP  0  0  0  0  0  0  0  0  0  0  0  0  # atno 17371 bound_to 10713
  140.6197  134.5374  157.5546 LP  0  0  0  0  0  0  0  0  0  0  0  0  # atno 17394 bound_to 11000
  139.9291  134.7998  156.0982 LP  0  0  0  0  0  0  0  0  0  0  0  0  # atno 17395 bound_to 11000

$$$$
