AV-unprocessed.smi:21|AV-procd|sdf|127|dock9
  -GOLD-   2262015313D 1   1.00000     0.00000
 Structure written by MMmdl.
 62 65  0  0  0  0  0  0  0  0  2 V2000
  145.6323  132.4782  150.5046 C   0  0  0  0  0  0  0  0  0  0  0  0
  146.0604  133.8294  150.4427 O   0  0  0  0  0  0  0  0  0  0  0  0
  145.0175  134.7720  150.6561 C   0  0  1  0  0  0  0  0  0  0  0  0
  144.6131  134.7361  152.1244 C   0  0  0  0  0  0  0  0  0  0  0  0
  145.6658  135.6019  152.8308 C   0  0  2  0  0  0  0  0  0  0  0  0
  145.1559  136.2417  154.1482 C   0  0  0  0  0  0  0  0  0  0  0  0
  146.2375  136.6189  155.0581 N   0  0  0  0  0  0  0  0  0  0  0  0
  147.2576  135.6164  155.3642 C   0  0  0  0  0  0  0  0  0  0  0  0
  146.4955  137.9319  155.3376 C   0  0  0  0  0  0  0  0  0  0  0  0
  145.7410  138.8799  154.7169 N   0  0  0  0  0  0  0  0  0  0  0  0
  145.9303  140.1794  154.9563 C   0  0  0  0  0  0  0  0  0  0  0  0
  146.8108  140.7544  155.7736 N   0  0  0  0  0  0  0  0  0  0  0  0
  147.5812  139.8211  156.3992 C   0  0  0  0  0  0  0  0  0  0  0  0
  147.4997  138.4058  156.2410 C   0  0  0  0  0  0  0  0  0  0  0  0
  148.4651  137.8023  157.0436 N   0  0  0  0  0  0  0  0  0  0  0  0
  149.0682  138.7929  157.6401 C   0  0  0  0  0  0  0  0  0  0  0  0
  148.5907  140.0406  157.3186 N   0  0  0  0  0  0  0  0  0  0  0  0
  149.0607  141.3149  157.8308 C   0  0  0  0  0  0  0  0  0  0  0  0
  150.5528  141.6050  157.5158 C   0  0  1  0  0  0  0  0  0  0  0  0
  150.7938  141.8743  156.0080 C   0  0  0  0  0  0  0  0  0  0  0  0
  150.6478  140.7064  155.2258 O   0  0  0  0  0  0  0  0  0  0  0  0
  151.0665  142.7825  158.3859 C   0  0  2  0  0  0  0  0  0  0  0  0
  151.5252  144.0072  157.6097 C   0  0  0  0  0  0  0  0  0  0  0  0
  152.3857  144.7430  158.6307 C   0  0  0  0  0  0  0  0  0  0  0  0
  152.9596  143.7336  159.4519 O   0  0  0  0  0  0  0  0  0  0  0  0
  152.3411  142.4798  159.1839 C   0  0  0  0  0  0  0  0  0  0  0  0
  146.1673  136.5536  151.7968 N   0  3  2  0  0  0  0  0  0  0  0  0
  146.1188  138.0022  152.1039 C   0  0  0  0  0  0  0  0  0  0  0  0
  145.5349  136.2051  150.5046 C   0  0  0  0  0  0  0  0  0  0  0  0
  144.1640  134.5617  150.0089 H   0  0  0  0  0  0  0  0  0  0  0  0
  146.5205  134.9630  153.0542 H   0  0  0  0  0  0  0  0  0  0  0  0
  146.4801  131.8199  150.3163 H   0  0  0  0  0  0  0  0  0  0  0  0
  144.8678  132.2591  149.7593 H   0  0  0  0  0  0  0  0  0  0  0  0
  145.2359  132.2378  151.4918 H   0  0  0  0  0  0  0  0  0  0  0  0
  143.6259  135.1877  152.2330 H   0  0  0  0  0  0  0  0  0  0  0  0
  144.5586  133.7233  152.5253 H   0  0  0  0  0  0  0  0  0  0  0  0
  144.5334  137.1139  153.9623 H   0  0  0  0  0  0  0  0  0  0  0  0
  144.5006  135.5368  154.6603 H   0  0  0  0  0  0  0  0  0  0  0  0
  147.5217  135.6454  156.4220 H   0  0  0  0  0  0  0  0  0  0  0  0
  148.1598  135.7906  154.7767 H   0  0  0  0  0  0  0  0  0  0  0  0
  146.9053  134.6089  155.1431 H   0  0  0  0  0  0  0  0  0  0  0  0
  145.2817  140.8541  154.4173 H   0  0  0  0  0  0  0  0  0  0  0  0
  149.8752  138.6394  158.3419 H   0  0  0  0  0  0  0  0  0  0  0  0
  148.4307  142.1070  157.4245 H   0  0  0  0  0  0  0  0  0  0  0  0
  148.8858  141.3060  158.9064 H   0  0  0  0  0  0  0  0  0  0  0  0
  151.1364  140.7260  157.7948 H   0  0  0  0  0  0  0  0  0  0  0  0
  150.1199  142.6482  155.6395 H   0  0  0  0  0  0  0  0  0  0  0  0
  151.8064  142.2307  155.8274 H   0  0  0  0  0  0  0  0  0  0  0  0
  149.7253  140.5302  155.1208 H   0  0  0  0  0  0  0  0  0  0  0  0
  150.2847  143.0874  159.0836 H   0  0  0  0  0  0  0  0  0  0  0  0
  152.1333  143.7102  156.7537 H   0  0  0  0  0  0  0  0  0  0  0  0
  150.7055  144.6278  157.2477 H   0  0  0  0  0  0  0  0  0  0  0  0
  153.1522  145.3602  158.1616 H   0  0  0  0  0  0  0  0  0  0  0  0
  151.7669  145.3876  159.2561 H   0  0  0  0  0  0  0  0  0  0  0  0
  152.1374  141.9450  160.1118 H   0  0  0  0  0  0  0  0  0  0  0  0
  153.0333  141.8783  158.5929 H   0  0  0  0  0  0  0  0  0  0  0  0
  145.0969  138.3414  152.2781 H   0  0  0  0  0  0  0  0  0  0  0  0
  146.5235  138.5742  151.2686 H   0  0  0  0  0  0  0  0  0  0  0  0
  146.7249  138.2381  152.9788 H   0  0  0  0  0  0  0  0  0  0  0  0
  146.2254  136.3380  149.6725 H   0  0  0  0  0  0  0  0  0  0  0  0
  144.6844  136.8666  150.3316 H   0  0  0  0  0  0  0  0  0  0  0  0
  147.1459  136.3269  151.6916 H   0  0  0  0  0  0  0  0  0  0  0  0
  1  2  1  0  0  0  0
  1 32  1  0  0  0  0
  1 33  1  0  0  0  0
  1 34  1  0  0  0  0
  2  3  1  0  0  0  0
  3 30  1  0  0  0  0
  3 29  1  0  0  0  0
  3  4  1  0  0  0  0
  4  5  1  0  0  0  0
  4 35  1  0  0  0  0
  4 36  1  0  0  0  0
  5 31  1  0  0  0  0
  5  6  1  0  0  0  0
  5 27  1  0  0  0  0
  6  7  1  0  0  0  0
  6 37  1  0  0  0  0
  6 38  1  0  0  0  0
  7  8  1  0  0  0  0
  7  9  1  0  0  0  0
  8 39  1  0  0  0  0
  8 40  1  0  0  0  0
  8 41  1  0  0  0  0
  9 14  1  0  0  0  0
  9 10  2  0  0  0  0
 10 11  1  0  0  0  0
 11 12  2  0  0  0  0
 11 42  1  0  0  0  0
 12 13  1  0  0  0  0
 13 17  1  0  0  0  0
 13 14  2  0  0  0  0
 14 15  1  0  0  0  0
 15 16  2  0  0  0  0
 16 17  1  0  0  0  0
 16 43  1  0  0  0  0
 17 18  1  0  0  0  0
 18 19  1  0  0  0  0
 18 44  1  0  0  0  0
 18 45  1  0  0  0  0
 19 20  1  0  0  0  0
 19 22  1  0  0  0  0
 19 46  1  0  0  0  0
 20 21  1  0  0  0  0
 20 47  1  0  0  0  0
 20 48  1  0  0  0  0
 21 49  1  0  0  0  0
 22 26  1  0  0  0  0
 22 23  1  0  0  0  0
 22 50  1  0  0  0  0
 23 24  1  0  0  0  0
 23 51  1  0  0  0  0
 23 52  1  0  0  0  0
 24 25  1  0  0  0  0
 24 53  1  0  0  0  0
 24 54  1  0  0  0  0
 25 26  1  0  0  0  0
 26 55  1  0  0  0  0
 26 56  1  0  0  0  0
 27 28  1  0  0  0  0
 27 29  1  0  0  0  0
 27 62  1  0  0  0  0
 28 57  1  0  0  0  0
 28 58  1  0  0  0  0
 28 59  1  0  0  0  0
 29 60  1  0  0  0  0
 29 61  1  0  0  0  0
M  CHG  1  27   1
M  END
> <s_m_source_file>
AV-unprocessed.smi

> <i_m_source_file_index>
21

> <i_lp_mmshare_version>
43012

> <i_f3d_flags>
0

> <s_epik_input>
W0NIM11PW0NASF0xW0NIMl1bQ0BIXShOKFtDSDNdKVtDSDJdMSlbQ0gyXU4oW0NIM10pYyhuW2NIXW4yKWMoYzIzKW5bY0hdbjNbQ0gyXVtDQEhdKFtDSDJdW09IXSlbQ0BASF00W0NIMl1bQ0gyXU9bQ0gyXTQ=

> <s_epik_cmdline>
J2VwaWtfcHl0aG9uJywgJy1waCcsICc3LjAnLCAnLXRuJywgJzgnLCAnLW1hJywgJzIwMCcsICctbWV0YWxfYmluZGluZycsICctaW1hZScsICc8aW5maWxlLm1hZT4nLCAnLW9tYWUnLCAnPG91dGZpbGUubWFlPic=

> <r_lp_tautomer_probability>
1

> <r_epik_Ionization_Penalty>
0.0157465

> <r_epik_Ionization_Penalty_Charging>
0.015354

> <r_epik_Ionization_Penalty_Neutral>
0.000392529

> <r_epik_State_Penalty>
0.0120612

> <r_epik_Charging_Adjusted_Penalty>
0.0274152

> <i_epik_Tot_Q>
1

> <i_epik_Tot_abs_Q>
1

> <r_epik_Metal_State_Penalty>
0.0121253

> <b_epik_Metal_Only>
0

> <s_lp_Force_Field>
OPLS_2005

> <r_lp_Energy>
61.4457

> <b_lp_Chiralities_Consistent>
1

> <s_lp_Variant>
AV-unprocessed.smi:21-7

> <Gold.Version>
5.8.1

> <Gold.Id.Protein>
6NUR|6NUR_protein|mol2

> <Gold.PLP.Fitness>
47.4258

> <Gold.PLP.PLP>
-38.9384

> <Gold.PLP.part.hbond>
-2.0000

> <Gold.PLP.part.metal>
0.0000

> <Gold.PLP.part.buried>
-7.0486

> <Gold.PLP.part.nonpolar>
-31.0745

> <Gold.PLP.part.repulsive>
0.3746

> <Gold.PLP.ligand.clash>
0.0000

> <Gold.PLP.ligand.torsion>
1.9734

> <Gold.PLP.Chemscore.Hbond>
2.9280

> <Gold.PLP.Chemscore.CHOScore>
1.0000

> <Gold.PLP.Chemscore.Metal>
0.0000

> <Gold.Chemscore.Hbonds>
donor molecule, donor type, donor heavy atom, donor atom, acceptor molecule, acceptor atom, score
      L1  H    27    62       P1  7948  2.00
      P1  H  7989  7998       L1    21  0.88
      L1  C    11    42       P1 10175  0.99

> <Gold.PLP.Chemscore.Internal.Correction>
0.6503

> <Gold.Rescore>
     Score         DG    S(hbond)    S(metal)    S(lipo)     H(rot)  DE(clash)    DE(int)     intcor
     10.57     -15.23       1.71        0.00     101.88       3.08       0.07       4.60       ----

> <Gold.Chemscore.Fitness>
10.5662

> <Gold.Chemscore.DG>
-15.2291

> <Gold.Chemscore.ZeroCoef>
-5.4800

> <Gold.Chemscore.Hbond>
1.7076

> <Gold.Chemscore.Metal>
0.0000

> <Gold.Chemscore.Lipo>
101.8786

> <Gold.Chemscore.Internal_Hbond>
0.0000

> <Gold.Chemscore.DEClash>
0.0659

> <Gold.Chemscore.DEInternal>
4.5971

> <Gold.Chemscore.Rot>
3.0758

> <Gold.Chemscore.Internal.Correction>
   9.000000E+99

> <Gold.Chemscore.Hbonds>
donor molecule, donor type, donor heavy atom, donor atom, acceptor molecule, acceptor atom, score
      L1  H    27    62       P1  7948  1.00
      P1  H  7989  7998       L1    21  0.55

> <Gold.Chemscore.Hbond.Weighted>
-5.7035

> <Gold.Chemscore.Metal.Weighted>
-0.0000

> <Gold.Chemscore.Lipo.Weighted>
-11.9198

> <Gold.Chemscore.Internal_Hbond.Weighted>
0.0000

> <Gold.Chemscore.DEClash.Weighted>
0.0659

> <Gold.Chemscore.DEInternal.Weighted>
4.5971

> <Gold.Chemscore.Rot.Weighted>
7.8741

> <Gold.Chemscore.Internal.Correction.Weighted>
   9.000000E+99

> <Gold.Protein.RotatedTorsions>
[ 6907 6896 6895 6894 ] final   40.71 input  -60.11 | X-H torsion
[ 7974 7965 7964 7962 ] final  -34.32 input  175.53 | X-H torsion
[ 8008 7997 7996 7995 ] final -124.78 input   59.86 | X-H torsion
[ 10167 10162 10161 10158 ] final   12.76 input  -65.29 | X-H torsion
[ 10718 10713 10712 10709 ] final -100.20 input   66.30 | X-H torsion
[ 10763 10752 10751 10750 ] final   27.73 input  -60.55 | X-H torsion
[ 11005 11000 10999 10996 ] final  -54.34 input  -57.11 | X-H torsion

> <Gold.Protein.ActiveResidues>
 VAL166  LYS551  ARG553  GLY616  TRP617  ASP618  TYR619  PRO620  LYS621  CYS622 
 ASP623  PHE694  ASN695  SER759  ASP760  ASP761  ALA762  ILE779  LEU786  VAL792 
 PHE793  MET794  SER795  GLU796  ALA797  LYS798  CYS799  TRP800  GLU811  SER814 

> <Gold.Protein.RotatedAtoms>
  152.1860  134.8713  160.0521 H   0  0  0  0  0  0  0  0  0  0  0  0  # atno 6907 bound_to 6896
  151.9620  133.3693  159.4047 H   0  0  0  0  0  0  0  0  0  0  0  0  # atno 6908 bound_to 6896
  150.6926  134.4154  159.5224 H   0  0  0  0  0  0  0  0  0  0  0  0  # atno 6909 bound_to 6896
  146.0839  140.6024  142.8895 H   0  0  0  0  0  0  0  0  0  0  0  0  # atno 7974 bound_to 7965
  155.2025  140.0416  157.2920 H   0  0  0  0  0  0  0  0  0  0  0  0  # atno 8008 bound_to 7997
  154.6065  140.2465  155.7695 H   0  0  0  0  0  0  0  0  0  0  0  0  # atno 8009 bound_to 7997
  156.2353  140.2923  156.0306 H   0  0  0  0  0  0  0  0  0  0  0  0  # atno 8010 bound_to 7997
  140.6047  143.8533  150.7001 H   0  0  0  0  0  0  0  0  0  0  0  0  # atno 10167 bound_to 10162
  156.0156  130.5317  150.6782 H   0  0  0  0  0  0  0  0  0  0  0  0  # atno 10718 bound_to 10713
  153.0537  135.6530  154.0630 H   0  0  0  0  0  0  0  0  0  0  0  0  # atno 10763 bound_to 10752
  154.0313  135.2911  155.3369 H   0  0  0  0  0  0  0  0  0  0  0  0  # atno 10764 bound_to 10752
  154.6840  135.5309  153.8368 H   0  0  0  0  0  0  0  0  0  0  0  0  # atno 10765 bound_to 10752
  141.1021  133.6617  156.4306 H   0  0  0  0  0  0  0  0  0  0  0  0  # atno 11005 bound_to 11000
  144.7312  140.4677  143.6936 LP  0  0  0  0  0  0  0  0  0  0  0  0  # atno 17320 bound_to 7965
  145.6166  139.1519  143.3046 LP  0  0  0  0  0  0  0  0  0  0  0  0  # atno 17321 bound_to 7965
  140.2087  143.3901  152.1735 LP  0  0  0  0  0  0  0  0  0  0  0  0  # atno 17342 bound_to 10162
  139.5316  144.7165  151.5036 LP  0  0  0  0  0  0  0  0  0  0  0  0  # atno 17343 bound_to 10162
  157.4490  131.0870  151.0865 LP  0  0  0  0  0  0  0  0  0  0  0  0  # atno 17370 bound_to 10713
  157.1386  130.6133  149.5549 LP  0  0  0  0  0  0  0  0  0  0  0  0  # atno 17371 bound_to 10713
  140.4996  134.6498  157.5243 LP  0  0  0  0  0  0  0  0  0  0  0  0  # atno 17394 bound_to 11000
  139.9876  134.7036  155.9746 LP  0  0  0  0  0  0  0  0  0  0  0  0  # atno 17395 bound_to 11000

$$$$
