AV-unprocessed.smi:150|AV-procd|sdf|1243|dock10
  -GOLD-   2262018463D 1   1.00000     0.00000
 Structure written by MMmdl.
 55 57  0  0  0  0  0  0  0  0  1 V2000
  151.5906  143.4099  157.7916 C   0  0  0  0  0  0  0  0  0  0  0  0
  151.6350  142.3455  158.8990 C   0  0  0  0  0  0  0  0  0  0  0  0
  152.8152  142.6153  159.8481 C   0  0  0  0  0  0  0  0  0  0  0  0
  151.6762  140.9294  158.2826 C   0  0  0  0  0  0  0  0  0  0  0  0
  150.8054  140.6942  157.0164 C   0  0  1  0  0  0  0  0  0  0  0  0
  151.5891  140.1600  155.7919 C   0  0  0  0  0  0  0  0  0  0  0  0
  150.8069  140.2139  154.6182 O   0  0  0  0  0  0  0  0  0  0  0  0
  149.6242  139.8683  157.3130 N   0  0  0  0  0  0  0  0  0  0  0  0
  148.3630  140.2226  156.6685 C   0  0  0  0  0  0  0  0  0  0  0  0
  149.7237  138.5547  157.6521 C   0  0  0  0  0  0  0  0  0  0  0  0
  149.5214  138.1602  158.9368 N   0  0  0  0  0  0  0  0  0  0  0  0
  149.6328  136.8733  159.2775 C   0  0  0  0  0  0  0  0  0  0  0  0
  149.9387  135.8298  158.5052 N   0  0  0  0  0  0  0  0  0  0  0  0
  150.1512  136.2163  157.2152 C   0  0  0  0  0  0  0  0  0  0  0  0
  150.0644  137.5441  156.7076 C   0  0  0  0  0  0  0  0  0  0  0  0
  150.3324  137.5456  155.3435 N   0  0  0  0  0  0  0  0  0  0  0  0
  150.5679  136.2934  155.0626 C   0  0  0  0  0  0  0  0  0  0  0  0
  150.4904  135.4273  156.1297 N   0  0  0  0  0  0  0  0  0  0  0  0
  150.7059  133.9885  156.1012 C   0  0  0  0  0  0  0  0  0  0  0  0
  149.5926  133.1966  155.3706 C   0  0  0  0  0  0  0  0  0  0  0  0
  148.3711  133.4427  156.0452 O   0  0  0  0  0  0  0  0  0  0  0  0
  149.4522  133.6897  153.9164 C   0  0  0  0  0  0  0  0  0  0  0  0
  148.4804  132.8203  153.0990 C   0  0  0  0  0  0  0  0  0  0  0  0
  148.8898  131.4590  153.1459 O   0  0  0  0  0  0  0  0  0  0  0  0
  148.8571  130.9208  154.4619 C   0  0  0  0  0  0  0  0  0  0  0  0
  149.8481  131.6734  155.3676 C   0  0  0  0  0  0  0  0  0  0  0  0
  152.4868  143.3753  157.1713 H   0  0  0  0  0  0  0  0  0  0  0  0
  151.5162  144.4132  158.2123 H   0  0  0  0  0  0  0  0  0  0  0  0
  150.7286  143.2649  157.1398 H   0  0  0  0  0  0  0  0  0  0  0  0
  150.7118  142.4534  159.4670 H   0  0  0  0  0  0  0  0  0  0  0  0
  153.7709  142.4770  159.3417 H   0  0  0  0  0  0  0  0  0  0  0  0
  152.7966  141.9553  160.7147 H   0  0  0  0  0  0  0  0  0  0  0  0
  152.7858  143.6372  160.2269 H   0  0  0  0  0  0  0  0  0  0  0  0
  152.7156  140.6894  158.0610 H   0  0  0  0  0  0  0  0  0  0  0  0
  151.3691  140.2184  159.0510 H   0  0  0  0  0  0  0  0  0  0  0  0
  150.3815  141.6573  156.7329 H   0  0  0  0  0  0  0  0  0  0  0  0
  152.5118  140.7184  155.6335 H   0  0  0  0  0  0  0  0  0  0  0  0
  151.8710  139.1169  155.9375 H   0  0  0  0  0  0  0  0  0  0  0  0
  150.2146  139.4775  154.6186 H   0  0  0  0  0  0  0  0  0  0  0  0
  147.6304  140.5263  157.4163 H   0  0  0  0  0  0  0  0  0  0  0  0
  147.9521  139.3841  156.1041 H   0  0  0  0  0  0  0  0  0  0  0  0
  148.4932  141.0539  155.9751 H   0  0  0  0  0  0  0  0  0  0  0  0
  149.4523  136.6481  160.3183 H   0  0  0  0  0  0  0  0  0  0  0  0
  150.8121  135.9654  154.0627 H   0  0  0  0  0  0  0  0  0  0  0  0
  151.6749  133.7957  155.6382 H   0  0  0  0  0  0  0  0  0  0  0  0
  150.7910  133.6440  157.1328 H   0  0  0  0  0  0  0  0  0  0  0  0
  147.6610  133.1300  155.5060 H   0  0  0  0  0  0  0  0  0  0  0  0
  149.1303  134.7318  153.8946 H   0  0  0  0  0  0  0  0  0  0  0  0
  150.4286  133.6623  153.4308 H   0  0  0  0  0  0  0  0  0  0  0  0
  147.4579  132.9185  153.4668 H   0  0  0  0  0  0  0  0  0  0  0  0
  148.4729  133.1477  152.0592 H   0  0  0  0  0  0  0  0  0  0  0  0
  147.8433  130.9698  154.8620 H   0  0  0  0  0  0  0  0  0  0  0  0
  149.1253  129.8652  154.4151 H   0  0  0  0  0  0  0  0  0  0  0  0
  150.8602  131.4801  155.0098 H   0  0  0  0  0  0  0  0  0  0  0  0
  149.7967  131.2673  156.3784 H   0  0  0  0  0  0  0  0  0  0  0  0
  1  2  1  0  0  0  0
  1 27  1  0  0  0  0
  1 28  1  0  0  0  0
  1 29  1  0  0  0  0
  2  3  1  0  0  0  0
  2  4  1  0  0  0  0
  2 30  1  0  0  0  0
  3 31  1  0  0  0  0
  3 32  1  0  0  0  0
  3 33  1  0  0  0  0
  4  5  1  0  0  0  0
  4 34  1  0  0  0  0
  4 35  1  0  0  0  0
  5  6  1  0  0  0  0
  5  8  1  0  0  0  0
  5 36  1  0  0  0  0
  6  7  1  0  0  0  0
  6 37  1  0  0  0  0
  6 38  1  0  0  0  0
  7 39  1  0  0  0  0
  8  9  1  0  0  0  0
  8 10  1  0  0  0  0
  9 40  1  0  0  0  0
  9 41  1  0  0  0  0
  9 42  1  0  0  0  0
 10 15  1  0  0  0  0
 10 11  2  0  0  0  0
 11 12  1  0  0  0  0
 12 13  2  0  0  0  0
 12 43  1  0  0  0  0
 13 14  1  0  0  0  0
 14 18  1  0  0  0  0
 14 15  2  0  0  0  0
 15 16  1  0  0  0  0
 16 17  2  0  0  0  0
 17 18  1  0  0  0  0
 17 44  1  0  0  0  0
 18 19  1  0  0  0  0
 19 20  1  0  0  0  0
 19 45  1  0  0  0  0
 19 46  1  0  0  0  0
 20 26  1  0  0  0  0
 20 21  1  0  0  0  0
 20 22  1  0  0  0  0
 21 47  1  0  0  0  0
 22 23  1  0  0  0  0
 22 48  1  0  0  0  0
 22 49  1  0  0  0  0
 23 24  1  0  0  0  0
 23 50  1  0  0  0  0
 23 51  1  0  0  0  0
 24 25  1  0  0  0  0
 25 26  1  0  0  0  0
 25 52  1  0  0  0  0
 25 53  1  0  0  0  0
 26 54  1  0  0  0  0
 26 55  1  0  0  0  0
M  END
> <s_m_source_file>
AV-unprocessed.smi

> <i_m_source_file_index>
150

> <i_lp_mmshare_version>
43012

> <i_f3d_flags>
0

> <s_epik_input>
W0NIM11bQ0hdKFtDSDNdKVtDSDJdW0NASF0oW0NIMl1bT0hdKU4oW0NIM10pYyhuW2NIXW4xKWMoYzEyKW5bY0hdbjJbQ0gyXUMzKFtPSF0pW0NIMl1bQ0gyXU9bQ0gyXVtDSDJdMw==

> <s_epik_cmdline>
J2VwaWtfcHl0aG9uJywgJy1waCcsICc3LjAnLCAnLXRuJywgJzgnLCAnLW1hJywgJzIwMCcsICctbWV0YWxfYmluZGluZycsICctaW1hZScsICc8aW5maWxlLm1hZT4nLCAnLW9tYWUnLCAnPG91dGZpbGUubWFlPic=

> <r_lp_tautomer_probability>
1

> <r_epik_Ionization_Penalty>
0.00548416

> <r_epik_Ionization_Penalty_Charging>
0

> <r_epik_Ionization_Penalty_Neutral>
0.00548416

> <r_epik_State_Penalty>
0.0038135

> <r_epik_Charging_Adjusted_Penalty>
0.0038135

> <i_epik_Tot_Q>
0

> <i_epik_Tot_abs_Q>
0

> <r_epik_Metal_State_Penalty>
-0

> <b_epik_Metal_Only>
0

> <s_lp_Force_Field>
OPLS_2005

> <r_lp_Energy>
26.5114

> <b_lp_Chiralities_Consistent>
1

> <s_lp_Variant>
AV-unprocessed.smi:150-2

> <Gold.Version>
5.8.1

> <Gold.Id.Protein>
6NUR|6NUR_protein|mol2

> <Gold.PLP.Fitness>
40.9832

> <Gold.PLP.PLP>
-39.0534

> <Gold.PLP.part.hbond>
-2.3945

> <Gold.PLP.part.metal>
0.0000

> <Gold.PLP.part.buried>
-4.5250

> <Gold.PLP.part.nonpolar>
-32.3081

> <Gold.PLP.part.repulsive>
1.2756

> <Gold.PLP.ligand.clash>
0.0000

> <Gold.PLP.ligand.torsion>
2.8034

> <Gold.PLP.Chemscore.Hbond>
1.4640

> <Gold.PLP.Chemscore.CHOScore>
0.6906

> <Gold.PLP.Chemscore.Metal>
0.0000

> <Gold.Chemscore.Hbonds>
donor molecule, donor type, donor heavy atom, donor atom, acceptor molecule, acceptor atom, score
      P1  H  6896  6908       L1    13  0.50
      P1  H  7989  7998       L1     7  1.00
      L1  C    17    44       P1  7948  0.04
      L1  C    17    44       P1  7949  0.64

> <Gold.PLP.Chemscore.Internal.Correction>
1.0728

> <Gold.Rescore>
     Score         DG    S(hbond)    S(metal)    S(lipo)     H(rot)  DE(clash)    DE(int)     intcor
      7.53     -11.55       1.57        0.00      81.50       3.40       0.02       4.00       ----

> <Gold.Chemscore.Fitness>
7.5264

> <Gold.Chemscore.DG>
-11.5502

> <Gold.Chemscore.ZeroCoef>
-5.4800

> <Gold.Chemscore.Hbond>
1.5683

> <Gold.Chemscore.Metal>
0.0000

> <Gold.Chemscore.Lipo>
81.4954

> <Gold.Chemscore.Internal_Hbond>
0.0000

> <Gold.Chemscore.DEClash>
0.0189

> <Gold.Chemscore.DEInternal>
4.0049

> <Gold.Chemscore.Rot>
3.3995

> <Gold.Chemscore.Internal.Correction>
   9.000000E+99

> <Gold.Chemscore.Hbonds>
donor molecule, donor type, donor heavy atom, donor atom, acceptor molecule, acceptor atom, score
      P1  H  6896  6908       L1    13  0.46
      P1  H  7989  7998       L1     7  0.65

> <Gold.Chemscore.Hbond.Weighted>
-5.2380

> <Gold.Chemscore.Metal.Weighted>
-0.0000

> <Gold.Chemscore.Lipo.Weighted>
-9.5350

> <Gold.Chemscore.Internal_Hbond.Weighted>
0.0000

> <Gold.Chemscore.DEClash.Weighted>
0.0189

> <Gold.Chemscore.DEInternal.Weighted>
4.0049

> <Gold.Chemscore.Rot.Weighted>
8.7028

> <Gold.Chemscore.Internal.Correction.Weighted>
   9.000000E+99

> <Gold.Protein.RotatedTorsions>
[ 6907 6896 6895 6894 ] final  141.54 input  -60.11 | X-H torsion
[ 7974 7965 7964 7962 ] final -179.93 input  175.53 | X-H torsion
[ 8008 7997 7996 7995 ] final -122.73 input   59.86 | X-H torsion
[ 10167 10162 10161 10158 ] final  133.32 input  -65.29 | X-H torsion
[ 10718 10713 10712 10709 ] final  156.37 input   66.30 | X-H torsion
[ 10763 10752 10751 10750 ] final  153.82 input  -60.55 | X-H torsion
[ 11005 11000 10999 10996 ] final  176.67 input  -57.11 | X-H torsion

> <Gold.Protein.ActiveResidues>
 VAL166  LYS551  ARG553  GLY616  TRP617  ASP618  TYR619  PRO620  LYS621  CYS622 
 ASP623  PHE694  ASN695  SER759  ASP760  ASP761  ALA762  ILE779  LEU786  VAL792 
 PHE793  MET794  SER795  GLU796  ALA797  LYS798  CYS799  TRP800  GLU811  SER814 

> <Gold.Protein.RotatedAtoms>
  152.2297  133.5049  159.5208 H   0  0  0  0  0  0  0  0  0  0  0  0  # atno 6907 bound_to 6896
  150.7034  134.1232  159.4051 H   0  0  0  0  0  0  0  0  0  0  0  0  # atno 6908 bound_to 6896
  151.9153  135.0321  160.0568 H   0  0  0  0  0  0  0  0  0  0  0  0  # atno 6909 bound_to 6896
  144.7140  140.0644  143.6431 H   0  0  0  0  0  0  0  0  0  0  0  0  # atno 7974 bound_to 7965
  155.1690  140.0407  157.2859 H   0  0  0  0  0  0  0  0  0  0  0  0  # atno 8008 bound_to 7997
  154.6283  140.2518  155.7438 H   0  0  0  0  0  0  0  0  0  0  0  0  # atno 8009 bound_to 7997
  156.2471  140.2880  156.0622 H   0  0  0  0  0  0  0  0  0  0  0  0  # atno 8010 bound_to 7997
  139.5302  144.6621  151.4978 H   0  0  0  0  0  0  0  0  0  0  0  0  # atno 10167 bound_to 10162
  157.2059  131.0686  151.1998 H   0  0  0  0  0  0  0  0  0  0  0  0  # atno 10718 bound_to 10713
  154.1423  135.2820  155.3157 H   0  0  0  0  0  0  0  0  0  0  0  0  # atno 10763 bound_to 10752
  154.6278  135.5445  153.7649 H   0  0  0  0  0  0  0  0  0  0  0  0  # atno 10764 bound_to 10752
  153.0246  135.6455  154.1570 H   0  0  0  0  0  0  0  0  0  0  0  0  # atno 10765 bound_to 10752
  140.3756  134.6991  157.4419 H   0  0  0  0  0  0  0  0  0  0  0  0  # atno 11005 bound_to 11000
  145.9837  139.2960  143.1027 LP  0  0  0  0  0  0  0  0  0  0  0  0  # atno 17320 bound_to 7965
  145.8982  140.9260  143.0517 LP  0  0  0  0  0  0  0  0  0  0  0  0  # atno 17321 bound_to 7965
  140.6475  143.8765  150.6752 LP  0  0  0  0  0  0  0  0  0  0  0  0  # atno 17342 bound_to 10162
  140.2119  143.3877  152.1711 LP  0  0  0  0  0  0  0  0  0  0  0  0  # atno 17343 bound_to 10162
  157.3721  130.7186  149.6572 LP  0  0  0  0  0  0  0  0  0  0  0  0  # atno 17370 bound_to 10713
  155.9695  130.4196  150.4382 LP  0  0  0  0  0  0  0  0  0  0  0  0  # atno 17371 bound_to 10713
  140.0518  134.6120  155.8853 LP  0  0  0  0  0  0  0  0  0  0  0  0  # atno 17394 bound_to 11000
  141.1940  133.6581  156.5575 LP  0  0  0  0  0  0  0  0  0  0  0  0  # atno 17395 bound_to 11000

$$$$
