AV-unprocessed.smi:3186|AV-procd|sdf|12174|dock4
  -GOLD-   2272018 13D 1   1.00000     0.00000
 Structure written by MMmdl.
 37 38  0  0  0  0  0  0  0  0  2 V2000
  148.4456  140.4856  154.2599 C   0  0  0  0  0  0  0  0  0  0  0  0
  149.7818  139.8532  154.6069 C   0  0  0  0  0  0  0  0  0  0  0  0
  150.1746  138.6556  153.9696 C   0  0  0  0  0  0  0  0  0  0  0  0
  151.3414  138.0251  154.2180 N   0  0  0  0  0  0  0  0  0  0  0  0
  152.1731  138.5725  155.1277 C   0  0  0  0  0  0  0  0  0  0  0  0
  151.8823  139.7628  155.8222 C   0  0  0  0  0  0  0  0  0  0  0  0
  150.6621  140.4211  155.5614 C   0  0  0  0  0  0  0  0  0  0  0  0
  150.3386  141.7105  156.2995 C   0  0  0  0  0  0  0  0  0  0  0  0
  151.5491  142.6511  156.3792 C   0  0  0  0  0  0  0  0  0  0  0  0
  151.2687  143.8010  157.2643 N   0  3  0  0  0  0  0  0  0  0  0  0
  151.3876  143.5256  158.7137 C   0  0  1  0  0  0  0  0  0  0  0  0
  152.6247  142.6484  159.0107 C   0  0  0  0  0  0  0  0  0  0  0  0
  152.7610  142.2914  160.5000 C   0  0  0  0  0  0  0  0  0  0  0  0
  152.9127  143.5311  161.3917 C   0  0  0  0  0  0  0  0  0  0  0  0
  151.4533  144.5995  161.2756 S   0  0  0  0  0  0  0  0  0  0  0  0
  151.4531  144.8589  159.4808 C   0  0  0  0  0  0  0  0  0  0  0  0
  147.9677  139.9655  153.4288 H   0  0  0  0  0  0  0  0  0  0  0  0
  148.5711  141.5285  153.9697 H   0  0  0  0  0  0  0  0  0  0  0  0
  147.7711  140.4409  155.1151 H   0  0  0  0  0  0  0  0  0  0  0  0
  149.5342  138.1868  153.2367 H   0  0  0  0  0  0  0  0  0  0  0  0
  153.0997  138.0476  155.3073 H   0  0  0  0  0  0  0  0  0  0  0  0
  152.5859  140.1586  156.5399 H   0  0  0  0  0  0  0  0  0  0  0  0
  149.4979  142.2121  155.8198 H   0  0  0  0  0  0  0  0  0  0  0  0
  149.9994  141.4615  157.3061 H   0  0  0  0  0  0  0  0  0  0  0  0
  152.4160  142.1095  156.7602 H   0  0  0  0  0  0  0  0  0  0  0  0
  151.8069  143.0041  155.3814 H   0  0  0  0  0  0  0  0  0  0  0  0
  151.8851  144.5652  157.0276 H   0  0  0  0  0  0  0  0  0  0  0  0
  150.4864  142.9990  159.0324 H   0  0  0  0  0  0  0  0  0  0  0  0
  152.5735  141.7193  158.4439 H   0  0  0  0  0  0  0  0  0  0  0  0
  153.5289  143.1579  158.6747 H   0  0  0  0  0  0  0  0  0  0  0  0
  151.8963  141.7097  160.8218 H   0  0  0  0  0  0  0  0  0  0  0  0
  153.6292  141.6455  160.6357 H   0  0  0  0  0  0  0  0  0  0  0  0
  153.0470  143.2343  162.4323 H   0  0  0  0  0  0  0  0  0  0  0  0
  153.7968  144.1015  161.1048 H   0  0  0  0  0  0  0  0  0  0  0  0
  152.3474  145.4196  159.2054 H   0  0  0  0  0  0  0  0  0  0  0  0
  150.5954  145.4842  159.2309 H   0  0  0  0  0  0  0  0  0  0  0  0
  150.3176  144.0900  157.0840 H   0  0  0  0  0  0  0  0  0  0  0  0
  1  2  1  0  0  0  0
  1 17  1  0  0  0  0
  1 18  1  0  0  0  0
  1 19  1  0  0  0  0
  2  7  1  0  0  0  0
  2  3  2  0  0  0  0
  3  4  1  0  0  0  0
  3 20  1  0  0  0  0
  4  5  2  0  0  0  0
  5  6  1  0  0  0  0
  5 21  1  0  0  0  0
  6  7  2  0  0  0  0
  6 22  1  0  0  0  0
  7  8  1  0  0  0  0
  8  9  1  0  0  0  0
  8 23  1  0  0  0  0
  8 24  1  0  0  0  0
  9 10  1  0  0  0  0
  9 25  1  0  0  0  0
  9 26  1  0  0  0  0
 10 11  1  0  0  0  0
 10 27  1  0  0  0  0
 10 37  1  0  0  0  0
 11 16  1  0  0  0  0
 11 12  1  0  0  0  0
 11 28  1  0  0  0  0
 12 13  1  0  0  0  0
 12 29  1  0  0  0  0
 12 30  1  0  0  0  0
 13 14  1  0  0  0  0
 13 31  1  0  0  0  0
 13 32  1  0  0  0  0
 14 15  1  0  0  0  0
 14 33  1  0  0  0  0
 14 34  1  0  0  0  0
 15 16  1  0  0  0  0
 16 35  1  0  0  0  0
 16 36  1  0  0  0  0
M  CHG  1  10   1
M  END
> <s_m_source_file>
AV-unprocessed.smi

> <i_m_source_file_index>
3186

> <i_lp_mmshare_version>
43012

> <i_f3d_flags>
0

> <s_epik_input>
W0NIM11jMVtjSF1uW2NIXVtjSF1jMVtDSDJdW0NIMl1bTkhdW0NAQEhdMltDSDJdW0NIMl1bQ0gyXVNbQ0gyXTI=

> <s_epik_cmdline>
J2VwaWtfcHl0aG9uJywgJy1waCcsICc3LjAnLCAnLXRuJywgJzgnLCAnLW1hJywgJzIwMCcsICctbWV0YWxfYmluZGluZycsICctaW1hZScsICc8aW5maWxlLm1hZT4nLCAnLW9tYWUnLCAnPG91dGZpbGUubWFlPic=

> <r_epik_Ionization_Penalty>
0.00563987

> <r_epik_Ionization_Penalty_Charging>
0.00306352

> <r_epik_Ionization_Penalty_Neutral>
0.00257635

> <r_epik_State_Penalty>
0.00506628

> <r_epik_Charging_Adjusted_Penalty>
0.0081298

> <i_epik_Tot_Q>
1

> <i_epik_Tot_abs_Q>
1

> <r_epik_Metal_State_Penalty>
-0

> <b_epik_Metal_Only>
0

> <s_lp_Force_Field>
OPLS_2005

> <r_lp_Energy>
10.8164

> <b_lp_Chiralities_Consistent>
1

> <s_lp_Variant>
AV-unprocessed.smi:3186-2

> <Gold.Version>
5.8.1

> <Gold.Id.Protein>
6NUR|6NUR_protein|mol2

> <Gold.PLP.Fitness>
45.7123

> <Gold.PLP.PLP>
-36.2873

> <Gold.PLP.part.hbond>
-1.0000

> <Gold.PLP.part.metal>
0.0000

> <Gold.PLP.part.buried>
0.9199

> <Gold.PLP.part.nonpolar>
-34.7300

> <Gold.PLP.part.repulsive>
0.2153

> <Gold.PLP.ligand.clash>
0.0000

> <Gold.PLP.ligand.torsion>
0.4667

> <Gold.PLP.Chemscore.Hbond>
1.9825

> <Gold.PLP.Chemscore.CHOScore>
1.4671

> <Gold.PLP.Chemscore.Metal>
0.0000

> <Gold.Chemscore.Hbonds>
donor molecule, donor type, donor heavy atom, donor atom, acceptor molecule, acceptor atom, score
      L1  H    10    37       P1  8028  1.60
      L1  C     3    20       P1  7948  1.00
      L1  C     3    20       P1  7957  0.18

> <Gold.PLP.Chemscore.Internal.Correction>
0.0098

> <Gold.Rescore>
     Score         DG    S(hbond)    S(metal)    S(lipo)     H(rot)  DE(clash)    DE(int)     intcor
     17.49     -20.29       0.97        0.00     127.42       1.30       2.09       0.72       ----

> <Gold.Chemscore.Fitness>
17.4855

> <Gold.Chemscore.DG>
-20.2900

> <Gold.Chemscore.ZeroCoef>
-5.4800

> <Gold.Chemscore.Hbond>
0.9694

> <Gold.Chemscore.Metal>
0.0000

> <Gold.Chemscore.Lipo>
127.4202

> <Gold.Chemscore.Internal_Hbond>
0.0000

> <Gold.Chemscore.DEClash>
2.0859

> <Gold.Chemscore.DEInternal>
0.7187

> <Gold.Chemscore.Rot>
1.3031

> <Gold.Chemscore.Internal.Correction>
   9.000000E+99

> <Gold.Chemscore.Hbonds>
donor molecule, donor type, donor heavy atom, donor atom, acceptor molecule, acceptor atom, score
      L1  H    10    37       P1  8028  0.72

> <Gold.Chemscore.Hbond.Weighted>
-3.2379

> <Gold.Chemscore.Metal.Weighted>
-0.0000

> <Gold.Chemscore.Lipo.Weighted>
-14.9082

> <Gold.Chemscore.Internal_Hbond.Weighted>
0.0000

> <Gold.Chemscore.DEClash.Weighted>
2.0859

> <Gold.Chemscore.DEInternal.Weighted>
0.7187

> <Gold.Chemscore.Rot.Weighted>
3.3361

> <Gold.Chemscore.Internal.Correction.Weighted>
   9.000000E+99

> <Gold.Protein.RotatedTorsions>
[ 6907 6896 6895 6894 ] final   50.36 input  -60.11 | X-H torsion
[ 7974 7965 7964 7962 ] final -101.12 input  175.53 | X-H torsion
[ 8008 7997 7996 7995 ] final   85.43 input   59.86 | X-H torsion
[ 10167 10162 10161 10158 ] final  -40.90 input  -65.29 | X-H torsion
[ 10718 10713 10712 10709 ] final  172.79 input   66.30 | X-H torsion
[ 10763 10752 10751 10750 ] final -101.37 input  -60.55 | X-H torsion
[ 11005 11000 10999 10996 ] final  123.22 input  -57.11 | X-H torsion

> <Gold.Protein.ActiveResidues>
 VAL166  LYS551  ARG553  GLY616  TRP617  ASP618  TYR619  PRO620  LYS621  CYS622 
 ASP623  PHE694  ASN695  SER759  ASP760  ASP761  ALA762  ILE779  LEU786  VAL792 
 PHE793  MET794  SER795  GLU796  ALA797  LYS798  CYS799  TRP800  GLU811  SER814 

> <Gold.Protein.RotatedAtoms>
  152.3010  134.7611  160.0357 H   0  0  0  0  0  0  0  0  0  0  0  0  # atno 6907 bound_to 6896
  151.8124  133.3378  159.3567 H   0  0  0  0  0  0  0  0  0  0  0  0  # atno 6908 bound_to 6896
  150.7274  134.5581  159.5872 H   0  0  0  0  0  0  0  0  0  0  0  0  # atno 6909 bound_to 6896
  145.2857  140.9339  143.2906 H   0  0  0  0  0  0  0  0  0  0  0  0  # atno 7974 bound_to 7965
  155.9499  140.3401  155.6399 H   0  0  0  0  0  0  0  0  0  0  0  0  # atno 8008 bound_to 7997
  155.6933  140.0751  157.2458 H   0  0  0  0  0  0  0  0  0  0  0  0  # atno 8009 bound_to 7997
  154.4120  140.1653  156.2097 H   0  0  0  0  0  0  0  0  0  0  0  0  # atno 8010 bound_to 7997
  140.7020  143.3126  151.2990 H   0  0  0  0  0  0  0  0  0  0  0  0  # atno 10167 bound_to 10162
  156.9738  131.0098  151.2898 H   0  0  0  0  0  0  0  0  0  0  0  0  # atno 10718 bound_to 10713
  154.7652  135.4900  153.9541 H   0  0  0  0  0  0  0  0  0  0  0  0  # atno 10763 bound_to 10752
  153.1300  135.6750  153.9202 H   0  0  0  0  0  0  0  0  0  0  0  0  # atno 10764 bound_to 10752
  153.8908  135.3121  155.3426 H   0  0  0  0  0  0  0  0  0  0  0  0  # atno 10765 bound_to 10752
  139.9303  134.9641  156.8227 H   0  0  0  0  0  0  0  0  0  0  0  0  # atno 11005 bound_to 11000
  144.9215  139.4406  143.6539 LP  0  0  0  0  0  0  0  0  0  0  0  0  # atno 17320 bound_to 7965
  146.3202  139.8078  142.8952 LP  0  0  0  0  0  0  0  0  0  0  0  0  # atno 17321 bound_to 7965
  139.6554  144.0286  152.2656 LP  0  0  0  0  0  0  0  0  0  0  0  0  # atno 17342 bound_to 10162
  139.9836  144.6411  150.7878 LP  0  0  0  0  0  0  0  0  0  0  0  0  # atno 17343 bound_to 10162
  157.5574  130.8223  149.8222 LP  0  0  0  0  0  0  0  0  0  0  0  0  # atno 17370 bound_to 10713
  156.0272  130.3776  150.1790 LP  0  0  0  0  0  0  0  0  0  0  0  0  # atno 17371 bound_to 10713
  140.6221  133.9984  155.7623 LP  0  0  0  0  0  0  0  0  0  0  0  0  # atno 17394 bound_to 11000
  141.0887  133.9950  157.3272 LP  0  0  0  0  0  0  0  0  0  0  0  0  # atno 17395 bound_to 11000

$$$$
