AV-unprocessed.smi:1960|AV-procd|sdf|7916|dock10
  -GOLD-   2272010 83D 1   1.00000     0.00000
 Structure written by MMmdl.
 38 39  0  0  0  0  0  0  0  0  1 V2000
  148.7397  141.4103  156.6020 C   0  0  0  0  0  0  0  0  0  0  0  0
  148.7734  141.4299  154.7628 S   0  0  0  0  0  0  0  0  0  0  0  0
  148.7974  142.8323  154.3198 O   0  0  0  0  0  0  0  0  0  0  0  0
  149.8253  140.5051  154.3136 O   0  0  0  0  0  0  0  0  0  0  0  0
  147.2374  140.7523  154.3033 N   0  0  0  0  0  0  0  0  0  0  0  0
  146.7963  140.8128  152.8953 C   0  0  0  0  0  0  0  0  0  0  0  0
  147.0026  139.4689  152.1748 C   0  0  0  0  0  0  0  0  0  0  0  0
  146.3345  138.3132  152.9390 C   0  0  0  0  0  0  0  0  0  0  0  0
  146.6012  137.0338  152.2871 N   0  0  0  0  0  0  0  0  0  0  0  0
  145.6671  136.2121  151.7865 C   0  0  0  0  0  0  0  0  0  0  0  0
  144.4613  136.4563  151.8226 O   0  0  0  0  0  0  0  0  0  0  0  0
  146.2257  135.1211  151.2331 N   0  0  0  0  0  0  0  0  0  0  0  0
  145.5871  134.0171  150.6056 C   0  0  0  0  0  0  0  0  0  0  0  0
  146.4050  132.9821  150.1069 C   0  0  0  0  0  0  0  0  0  0  0  0
  145.7951  131.8686  149.4952 C   0  0  0  0  0  0  0  0  0  0  0  0
  144.4586  131.7323  149.3673 N   0  0  0  0  0  0  0  0  0  0  0  0
  143.6763  132.7168  149.8577 C   0  0  0  0  0  0  0  0  0  0  0  0
  144.1838  133.8715  150.4868 C   0  0  0  0  0  0  0  0  0  0  0  0
  146.8660  138.2850  154.3796 C   0  0  0  0  0  0  0  0  0  0  0  0
  146.6590  139.6387  155.0820 C   0  0  0  0  0  0  0  0  0  0  0  0
  149.6767  141.8194  156.9787 H   0  0  0  0  0  0  0  0  0  0  0  0
  148.6319  140.3882  156.9604 H   0  0  0  0  0  0  0  0  0  0  0  0
  147.9161  142.0226  156.9649 H   0  0  0  0  0  0  0  0  0  0  0  0
  145.7379  141.0751  152.8779 H   0  0  0  0  0  0  0  0  0  0  0  0
  147.3184  141.6101  152.3671 H   0  0  0  0  0  0  0  0  0  0  0  0
  146.5946  139.5369  151.1657 H   0  0  0  0  0  0  0  0  0  0  0  0
  148.0673  139.2690  152.0577 H   0  0  0  0  0  0  0  0  0  0  0  0
  145.2562  138.4810  152.9727 H   0  0  0  0  0  0  0  0  0  0  0  0
  147.5686  136.7558  152.2117 H   0  0  0  0  0  0  0  0  0  0  0  0
  147.2347  135.1049  151.2090 H   0  0  0  0  0  0  0  0  0  0  0  0
  147.4811  133.0387  150.1837 H   0  0  0  0  0  0  0  0  0  0  0  0
  146.3982  131.0647  149.0995 H   0  0  0  0  0  0  0  0  0  0  0  0
  142.6107  132.5776  149.7517 H   0  0  0  0  0  0  0  0  0  0  0  0
  143.4928  134.6059  150.8708 H   0  0  0  0  0  0  0  0  0  0  0  0
  146.3605  137.5023  154.9463 H   0  0  0  0  0  0  0  0  0  0  0  0
  147.9240  138.0249  154.3808 H   0  0  0  0  0  0  0  0  0  0  0  0
  147.0845  139.6151  156.0848 H   0  0  0  0  0  0  0  0  0  0  0  0
  145.5915  139.8245  155.2059 H   0  0  0  0  0  0  0  0  0  0  0  0
  1  2  1  0  0  0  0
  1 21  1  0  0  0  0
  1 22  1  0  0  0  0
  1 23  1  0  0  0  0
  2  3  2  0  0  0  0
  2  4  2  0  0  0  0
  2  5  1  0  0  0  0
  5 20  1  0  0  0  0
  5  6  1  0  0  0  0
  6  7  1  0  0  0  0
  6 24  1  0  0  0  0
  6 25  1  0  0  0  0
  7  8  1  0  0  0  0
  7 26  1  0  0  0  0
  7 27  1  0  0  0  0
  8  9  1  0  0  0  0
  8 19  1  0  0  0  0
  8 28  1  0  0  0  0
  9 10  1  0  0  0  0
  9 29  1  0  0  0  0
 10 11  2  0  0  0  0
 10 12  1  0  0  0  0
 12 13  1  0  0  0  0
 12 30  1  0  0  0  0
 13 18  1  0  0  0  0
 13 14  2  0  0  0  0
 14 15  1  0  0  0  0
 14 31  1  0  0  0  0
 15 16  2  0  0  0  0
 15 32  1  0  0  0  0
 16 17  1  0  0  0  0
 17 18  2  0  0  0  0
 17 33  1  0  0  0  0
 18 34  1  0  0  0  0
 19 20  1  0  0  0  0
 19 35  1  0  0  0  0
 19 36  1  0  0  0  0
 20 37  1  0  0  0  0
 20 38  1  0  0  0  0
M  END
> <s_m_source_file>
AV-unprocessed.smi

> <i_m_source_file_index>
1960

> <i_lp_mmshare_version>
43012

> <i_f3d_flags>
0

> <s_epik_input>
W0NIM11TKD1PKSg9TylOMVtDSDJdW0NIMl1bQ0hdKFtDSDJdW0NIMl0xKVtOSF1DKD1PKVtOSF1jMltjSF1bY0hdbltjSF1bY0hdMg==

> <s_epik_cmdline>
J2VwaWtfcHl0aG9uJywgJy1waCcsICc3LjAnLCAnLXRuJywgJzgnLCAnLW1hJywgJzIwMCcsICctbWV0YWxfYmluZGluZycsICctaW1hZScsICc8aW5maWxlLm1hZT4nLCAnLW9tYWUnLCAnPG91dGZpbGUubWFlPic=

> <r_epik_Ionization_Penalty>
0.116752

> <r_epik_Ionization_Penalty_Charging>
0

> <r_epik_Ionization_Penalty_Neutral>
0.116752

> <r_epik_State_Penalty>
0.106329

> <r_epik_Charging_Adjusted_Penalty>
0.106329

> <i_epik_Tot_Q>
0

> <i_epik_Tot_abs_Q>
0

> <r_epik_Metal_State_Penalty>
0.0886803

> <b_epik_Metal_Only>
0

> <s_lp_Force_Field>
OPLS_2005

> <r_lp_Energy>
6.48368

> <b_lp_Chiralities_Consistent>
1

> <s_lp_Variant>
AV-unprocessed.smi:1960-1

> <Gold.Version>
5.8.1

> <Gold.Id.Protein>
6NUR|6NUR_protein|mol2

> <Gold.PLP.Fitness>
42.9530

> <Gold.PLP.PLP>
-26.8353

> <Gold.PLP.part.hbond>
-5.9806

> <Gold.PLP.part.metal>
0.0000

> <Gold.PLP.part.buried>
-1.3616

> <Gold.PLP.part.nonpolar>
-27.6353

> <Gold.PLP.part.repulsive>
6.3083

> <Gold.PLP.ligand.clash>
0.0000

> <Gold.PLP.ligand.torsion>
1.1926

> <Gold.PLP.Chemscore.Hbond>
3.9010

> <Gold.PLP.Chemscore.CHOScore>
1.5827

> <Gold.PLP.Chemscore.Metal>
0.0000

> <Gold.Chemscore.Hbonds>
donor molecule, donor type, donor heavy atom, donor atom, acceptor molecule, acceptor atom, score
      L1  H     9    29       P1  7948  0.94
      L1  H    12    30       P1  7948  0.72
      P1  H  7989  7998       L1     4  0.78
      P1  H  8022  8030       L1     3  0.93
      P1  H 10785 10796       L1    16  0.38
      L1  C    15    32       P1 10747  0.21
      L1  C    17    33       P1 10186  0.89
      L1  C    17    33       P1 10952  0.19

> <Gold.PLP.Chemscore.Internal.Correction>
2.0519

> <Gold.Rescore>
     Score         DG    S(hbond)    S(metal)    S(lipo)     H(rot)  DE(clash)    DE(int)     intcor
     18.88     -23.53       3.64        0.00      72.27       1.00       2.23       2.42       ----

> <Gold.Chemscore.Fitness>
18.8811

> <Gold.Chemscore.DG>
-23.5330

> <Gold.Chemscore.ZeroCoef>
-5.4800

> <Gold.Chemscore.Hbond>
3.6401

> <Gold.Chemscore.Metal>
0.0000

> <Gold.Chemscore.Lipo>
72.2670

> <Gold.Chemscore.Internal_Hbond>
0.0000

> <Gold.Chemscore.DEClash>
2.2296

> <Gold.Chemscore.DEInternal>
2.4223

> <Gold.Chemscore.Rot>
1.0000

> <Gold.Chemscore.Internal.Correction>
   9.000000E+99

> <Gold.Chemscore.Hbonds>
donor molecule, donor type, donor heavy atom, donor atom, acceptor molecule, acceptor atom, score
      L1  H     9    29       P1  7948  0.90
      L1  H    12    30       P1  7948  0.42
      P1  H  7989  7998       L1     4  0.75
      P1  H  8022  8030       L1     3  0.88
      P1  H 10785 10796       L1    16  0.26

> <Gold.Chemscore.Hbond.Weighted>
-12.1578

> <Gold.Chemscore.Metal.Weighted>
-0.0000

> <Gold.Chemscore.Lipo.Weighted>
-8.4552

> <Gold.Chemscore.Internal_Hbond.Weighted>
0.0000

> <Gold.Chemscore.DEClash.Weighted>
2.2296

> <Gold.Chemscore.DEInternal.Weighted>
2.4223

> <Gold.Chemscore.Rot.Weighted>
2.5600

> <Gold.Chemscore.Internal.Correction.Weighted>
   9.000000E+99

> <Gold.Protein.RotatedTorsions>
[ 6907 6896 6895 6894 ] final  101.77 input  -60.11 | X-H torsion
[ 7974 7965 7964 7962 ] final -159.06 input  175.53 | X-H torsion
[ 8008 7997 7996 7995 ] final  172.11 input   59.86 | X-H torsion
[ 10167 10162 10161 10158 ] final   -0.11 input  -65.29 | X-H torsion
[ 10718 10713 10712 10709 ] final  -82.12 input   66.30 | X-H torsion
[ 10763 10752 10751 10750 ] final  -42.98 input  -60.55 | X-H torsion
[ 11005 11000 10999 10996 ] final -151.86 input  -57.11 | X-H torsion

> <Gold.Protein.ActiveResidues>
 VAL166  LYS551  ARG553  GLY616  TRP617  ASP618  TYR619  PRO620  LYS621  CYS622 
 ASP623  PHE694  ASN695  SER759  ASP760  ASP761  ALA762  ILE779  LEU786  VAL792 
 PHE793  MET794  SER795  GLU796  ALA797  LYS798  CYS799  TRP800  GLU811  SER814 

> <Gold.Protein.RotatedAtoms>
  152.5341  134.0075  159.7922 H   0  0  0  0  0  0  0  0  0  0  0  0  # atno 6907 bound_to 6896
  151.0283  133.5805  159.2670 H   0  0  0  0  0  0  0  0  0  0  0  0  # atno 6908 bound_to 6896
  151.2819  135.0723  159.9226 H   0  0  0  0  0  0  0  0  0  0  0  0  # atno 6909 bound_to 6896
  144.7480  140.3738  143.6070 H   0  0  0  0  0  0  0  0  0  0  0  0  # atno 7974 bound_to 7965
  156.1207  140.1494  156.9209 H   0  0  0  0  0  0  0  0  0  0  0  0  # atno 8008 bound_to 7997
  154.4833  140.0872  156.7470 H   0  0  0  0  0  0  0  0  0  0  0  0  # atno 8009 bound_to 7997
  155.4434  140.3432  155.4294 H   0  0  0  0  0  0  0  0  0  0  0  0  # atno 8010 bound_to 7997
  140.6753  143.6934  150.8009 H   0  0  0  0  0  0  0  0  0  0  0  0  # atno 10167 bound_to 10162
  156.0038  130.4624  150.4056 H   0  0  0  0  0  0  0  0  0  0  0  0  # atno 10718 bound_to 10713
  153.9880  135.6709  153.4753 H   0  0  0  0  0  0  0  0  0  0  0  0  # atno 10763 bound_to 10752
  153.0718  135.4970  154.8317 H   0  0  0  0  0  0  0  0  0  0  0  0  # atno 10764 bound_to 10752
  154.7126  135.3100  154.9136 H   0  0  0  0  0  0  0  0  0  0  0  0  # atno 10765 bound_to 10752
  140.7251  134.3684  157.5177 H   0  0  0  0  0  0  0  0  0  0  0  0  # atno 11005 bound_to 11000
  145.7049  139.1670  143.2572 LP  0  0  0  0  0  0  0  0  0  0  0  0  # atno 17320 bound_to 7965
  146.1389  140.7085  142.9376 LP  0  0  0  0  0  0  0  0  0  0  0  0  # atno 17321 bound_to 7965
  140.0626  143.5140  152.2620 LP  0  0  0  0  0  0  0  0  0  0  0  0  # atno 17342 bound_to 10162
  139.6042  144.7591  151.3101 LP  0  0  0  0  0  0  0  0  0  0  0  0  # atno 17343 bound_to 10162
  157.2122  131.0463  151.2593 LP  0  0  0  0  0  0  0  0  0  0  0  0  # atno 17370 bound_to 10713
  157.3878  130.7265  149.6675 LP  0  0  0  0  0  0  0  0  0  0  0  0  # atno 17371 bound_to 10713
  139.8839  134.8981  156.2736 LP  0  0  0  0  0  0  0  0  0  0  0  0  # atno 17394 bound_to 11000
  140.9970  133.7174  156.0901 LP  0  0  0  0  0  0  0  0  0  0  0  0  # atno 17395 bound_to 11000

$$$$
