AV-unprocessed.smi:2110|AV-procd|sdf|8611|dock4
  -GOLD-   2272011353D 1   1.00000     0.00000
 Structure written by MMmdl.
 46 47  0  0  0  0  0  0  0  0  3 V2000
  152.3609  142.5386  160.8385 C   0  0  0  0  0  0  0  0  0  0  0  0
  152.4907  143.1936  159.4551 C   0  0  0  0  0  0  0  0  0  0  0  0
  151.4069  142.7964  158.5341 N   0  0  0  0  0  0  0  0  0  0  0  0
  150.6053  143.8784  157.9262 C   0  0  0  0  0  0  0  0  0  0  0  0
  150.1955  144.9636  158.9346 C   0  0  0  0  0  0  0  0  0  0  0  0
  151.2555  141.1434  157.9897 S   0  0  0  0  0  0  0  0  0  0  0  0
  152.4597  140.8862  157.1848 O   0  0  0  0  0  0  0  0  0  0  0  0
  151.0576  140.3241  159.1986 O   0  0  0  0  0  0  0  0  0  0  0  0
  149.9335  141.3220  157.0545 N   0  5  0  0  0  0  0  0  0  0  0  0
  150.0310  141.5038  155.6151 C   0  0  0  0  0  0  0  0  0  0  0  0
  148.7092  141.1875  154.9322 C   0  0  0  0  0  0  0  0  0  0  0  0
  148.5801  140.0430  154.1129 C   0  0  0  0  0  0  0  0  0  0  0  0
  147.3455  139.7850  153.4899 C   0  0  0  0  0  0  0  0  0  0  0  0
  146.3073  140.6262  153.6786 N   0  3  0  0  0  0  0  0  0  0  0  0
  146.3660  141.7425  154.4461 C   0  0  0  0  0  0  0  0  0  0  0  0
  145.2007  142.5361  154.5582 N   0  0  0  0  0  0  0  0  0  0  0  0
  144.7095  143.2148  153.3610 C   0  0  0  0  0  0  0  0  0  0  0  0
  143.6396  144.2584  153.7249 C   0  0  0  0  0  0  0  0  0  0  0  0
  142.6069  143.6458  154.4875 O   0  0  0  0  0  0  0  0  0  0  0  0
  143.1012  143.1280  155.7165 C   0  0  0  0  0  0  0  0  0  0  0  0
  144.1441  142.0333  155.4370 C   0  0  0  0  0  0  0  0  0  0  0  0
  147.5913  142.0413  155.0962 C   0  0  0  0  0  0  0  0  0  0  0  0
  153.2151  142.7955  161.4648 H   0  0  0  0  0  0  0  0  0  0  0  0
  152.3161  141.4521  160.7709 H   0  0  0  0  0  0  0  0  0  0  0  0
  151.4651  142.8789  161.3578 H   0  0  0  0  0  0  0  0  0  0  0  0
  152.4825  144.2783  159.5619 H   0  0  0  0  0  0  0  0  0  0  0  0
  153.4569  142.9464  159.0147 H   0  0  0  0  0  0  0  0  0  0  0  0
  151.1668  144.3363  157.1125 H   0  0  0  0  0  0  0  0  0  0  0  0
  149.7153  143.4419  157.4725 H   0  0  0  0  0  0  0  0  0  0  0  0
  149.6789  145.7790  158.4287 H   0  0  0  0  0  0  0  0  0  0  0  0
  151.0616  145.3875  159.4400 H   0  0  0  0  0  0  0  0  0  0  0  0
  149.5190  144.5757  159.6956 H   0  0  0  0  0  0  0  0  0  0  0  0
  150.3158  142.5237  155.3546 H   0  0  0  0  0  0  0  0  0  0  0  0
  150.7984  140.8646  155.1773 H   0  0  0  0  0  0  0  0  0  0  0  0
  149.4081  139.3657  153.9507 H   0  0  0  0  0  0  0  0  0  0  0  0
  147.1585  138.9364  152.8482 H   0  0  0  0  0  0  0  0  0  0  0  0
  145.5248  143.7262  152.8493 H   0  0  0  0  0  0  0  0  0  0  0  0
  144.2978  142.4756  152.6726 H   0  0  0  0  0  0  0  0  0  0  0  0
  144.0779  145.0862  154.2848 H   0  0  0  0  0  0  0  0  0  0  0  0
  143.2075  144.6827  152.8187 H   0  0  0  0  0  0  0  0  0  0  0  0
  143.5312  143.9316  156.3168 H   0  0  0  0  0  0  0  0  0  0  0  0
  142.2693  142.7160  156.2876 H   0  0  0  0  0  0  0  0  0  0  0  0
  143.6685  141.1759  154.9589 H   0  0  0  0  0  0  0  0  0  0  0  0
  144.5443  141.6885  156.3901 H   0  0  0  0  0  0  0  0  0  0  0  0
  147.6879  142.9266  155.7078 H   0  0  0  0  0  0  0  0  0  0  0  0
  145.4261  140.4091  153.2134 H   0  0  0  0  0  0  0  0  0  0  0  0
  1  2  1  0  0  0  0
  1 23  1  0  0  0  0
  1 24  1  0  0  0  0
  1 25  1  0  0  0  0
  2  3  1  0  0  0  0
  2 26  1  0  0  0  0
  2 27  1  0  0  0  0
  3  4  1  0  0  0  0
  3  6  1  0  0  0  0
  4  5  1  0  0  0  0
  4 28  1  0  0  0  0
  4 29  1  0  0  0  0
  5 30  1  0  0  0  0
  5 31  1  0  0  0  0
  5 32  1  0  0  0  0
  6  7  2  0  0  0  0
  6  8  2  0  0  0  0
  6  9  1  0  0  0  0
  9 10  1  0  0  0  0
 10 11  1  0  0  0  0
 10 33  1  0  0  0  0
 10 34  1  0  0  0  0
 11 22  1  0  0  0  0
 11 12  2  0  0  0  0
 12 13  1  0  0  0  0
 12 35  1  0  0  0  0
 13 14  2  0  0  0  0
 13 36  1  0  0  0  0
 14 15  1  0  0  0  0
 14 46  1  0  0  0  0
 15 16  1  0  0  0  0
 15 22  2  0  0  0  0
 16 21  1  0  0  0  0
 16 17  1  0  0  0  0
 17 18  1  0  0  0  0
 17 37  1  0  0  0  0
 17 38  1  0  0  0  0
 18 19  1  0  0  0  0
 18 39  1  0  0  0  0
 18 40  1  0  0  0  0
 19 20  1  0  0  0  0
 20 21  1  0  0  0  0
 20 41  1  0  0  0  0
 20 42  1  0  0  0  0
 21 43  1  0  0  0  0
 21 44  1  0  0  0  0
 22 45  1  0  0  0  0
M  CHG  1   9  -1
M  CHG  1  14   1
M  END
> <s_m_source_file>
AV-unprocessed.smi

> <i_m_source_file_index>
2110

> <i_lp_mmshare_version>
43012

> <i_f3d_flags>
0

> <s_epik_input>
W0NIM11bQ0gyXU4oW0NIMl1bQ0gzXSlTKD1PKSg9TylbTkhdW0NIMl1jMVtjSF1bY0hdbmMoW2NIXTEpTjJbQ0gyXVtDSDJdT1tDSDJdW0NIMl0y

> <s_epik_cmdline>
J2VwaWtfcHl0aG9uJywgJy1waCcsICc3LjAnLCAnLXRuJywgJzgnLCAnLW1hJywgJzIwMCcsICctbWV0YWxfYmluZGluZycsICctaW1hZScsICc8aW5maWxlLm1hZT4nLCAnLW9tYWUnLCAnPG91dGZpbGUubWFlPic=

> <r_lp_tautomer_probability>
0.999994

> <r_epik_Ionization_Penalty>
2.03784

> <r_epik_Ionization_Penalty_Charging>
2.03784

> <r_epik_Ionization_Penalty_Neutral>
4.07977e-08

> <r_epik_State_Penalty>
3.04665

> <r_epik_Charging_Adjusted_Penalty>
5.08449

> <i_epik_Tot_Q>
0

> <i_epik_Tot_abs_Q>
2

> <r_epik_Metal_State_Penalty>
1.92951

> <b_epik_Metal_Only>
1

> <s_lp_Force_Field>
OPLS_2005

> <r_lp_Energy>
13.8127

> <b_lp_Chiralities_Consistent>
1

> <s_lp_Variant>
AV-unprocessed.smi:2110-4

> <Gold.Version>
5.8.1

> <Gold.Id.Protein>
6NUR|6NUR_protein|mol2

> <Gold.PLP.Fitness>
51.4931

> <Gold.PLP.PLP>
-43.6183

> <Gold.PLP.part.hbond>
-2.1409

> <Gold.PLP.part.metal>
0.0000

> <Gold.PLP.part.buried>
-1.7831

> <Gold.PLP.part.nonpolar>
-40.2460

> <Gold.PLP.part.repulsive>
0.4027

> <Gold.PLP.ligand.clash>
0.0000

> <Gold.PLP.ligand.torsion>
2.4224

> <Gold.PLP.Chemscore.Hbond>
3.0000

> <Gold.PLP.Chemscore.CHOScore>
0.0000

> <Gold.PLP.Chemscore.Metal>
0.0000

> <Gold.Chemscore.Hbonds>
donor molecule, donor type, donor heavy atom, donor atom, acceptor molecule, acceptor atom, score
      L1  H    14    46       P1 10175  2.00
      P1  H  7997  8010       L1     7  0.51

> <Gold.PLP.Chemscore.Internal.Correction>
3.7197

> <Gold.Rescore>
     Score         DG    S(hbond)    S(metal)    S(lipo)     H(rot)  DE(clash)    DE(int)     intcor
     14.74     -18.09       1.71        0.00      96.62       1.72       1.02       2.33       ----

> <Gold.Chemscore.Fitness>
14.7418

> <Gold.Chemscore.DG>
-18.0925

> <Gold.Chemscore.ZeroCoef>
-5.4800

> <Gold.Chemscore.Hbond>
1.7068

> <Gold.Chemscore.Metal>
0.0000

> <Gold.Chemscore.Lipo>
96.6187

> <Gold.Chemscore.Internal_Hbond>
0.0000

> <Gold.Chemscore.DEClash>
1.0218

> <Gold.Chemscore.DEInternal>
2.3289

> <Gold.Chemscore.Rot>
1.7159

> <Gold.Chemscore.Internal.Correction>
   9.000000E+99

> <Gold.Chemscore.Hbonds>
donor molecule, donor type, donor heavy atom, donor atom, acceptor molecule, acceptor atom, score
      L1  H    14    46       P1 10175  0.97
      P1  H  7997  8010       L1     7  0.51

> <Gold.Chemscore.Hbond.Weighted>
-5.7007

> <Gold.Chemscore.Metal.Weighted>
-0.0000

> <Gold.Chemscore.Lipo.Weighted>
-11.3044

> <Gold.Chemscore.Internal_Hbond.Weighted>
0.0000

> <Gold.Chemscore.DEClash.Weighted>
1.0218

> <Gold.Chemscore.DEInternal.Weighted>
2.3289

> <Gold.Chemscore.Rot.Weighted>
4.3926

> <Gold.Chemscore.Internal.Correction.Weighted>
   9.000000E+99

> <Gold.Protein.RotatedTorsions>
[ 6907 6896 6895 6894 ] final  115.36 input  -60.11 | X-H torsion
[ 7974 7965 7964 7962 ] final  -72.08 input  175.53 | X-H torsion
[ 8008 7997 7996 7995 ] final   59.57 input   59.86 | X-H torsion
[ 10167 10162 10161 10158 ] final  164.69 input  -65.29 | X-H torsion
[ 10718 10713 10712 10709 ] final  -65.19 input   66.30 | X-H torsion
[ 10763 10752 10751 10750 ] final  -11.09 input  -60.55 | X-H torsion
[ 11005 11000 10999 10996 ] final   -6.88 input  -57.11 | X-H torsion

> <Gold.Protein.ActiveResidues>
 VAL166  LYS551  ARG553  GLY616  TRP617  ASP618  TYR619  PRO620  LYS621  CYS622 
 ASP623  PHE694  ASN695  SER759  ASP760  ASP761  ALA762  ILE779  LEU786  VAL792 
 PHE793  MET794  SER795  GLU796  ALA797  LYS798  CYS799  TRP800  GLU811  SER814 

> <Gold.Protein.RotatedAtoms>
  152.4746  133.8109  159.7002 H   0  0  0  0  0  0  0  0  0  0  0  0  # atno 6907 bound_to 6896
  150.8755  133.7435  159.2954 H   0  0  0  0  0  0  0  0  0  0  0  0  # atno 6908 bound_to 6896
  151.4956  135.1063  159.9867 H   0  0  0  0  0  0  0  0  0  0  0  0  # atno 6909 bound_to 6896
  145.6698  140.9225  143.0889 H   0  0  0  0  0  0  0  0  0  0  0  0  # atno 7974 bound_to 7965
  155.5683  140.3489  155.4508 H   0  0  0  0  0  0  0  0  0  0  0  0  # atno 8008 bound_to 7997
  156.0463  140.1307  157.0125 H   0  0  0  0  0  0  0  0  0  0  0  0  # atno 8009 bound_to 7997
  154.4414  140.1014  156.6296 H   0  0  0  0  0  0  0  0  0  0  0  0  # atno 8010 bound_to 7997
  139.4893  144.4209  151.9187 H   0  0  0  0  0  0  0  0  0  0  0  0  # atno 10167 bound_to 10162
  156.0684  130.4244  150.1528 H   0  0  0  0  0  0  0  0  0  0  0  0  # atno 10718 bound_to 10713
  153.4787  135.7017  153.5951 H   0  0  0  0  0  0  0  0  0  0  0  0  # atno 10763 bound_to 10752
  153.4173  135.3834  155.2089 H   0  0  0  0  0  0  0  0  0  0  0  0  # atno 10764 bound_to 10752
  154.8722  135.3919  154.4234 H   0  0  0  0  0  0  0  0  0  0  0  0  # atno 10765 bound_to 10752
  140.7068  133.8943  155.8722 H   0  0  0  0  0  0  0  0  0  0  0  0  # atno 11005 bound_to 11000
  144.7061  139.8557  143.7429 LP  0  0  0  0  0  0  0  0  0  0  0  0  # atno 17320 bound_to 7965
  146.1055  139.4054  143.0320 LP  0  0  0  0  0  0  0  0  0  0  0  0  # atno 17321 bound_to 7965
  140.3653  144.2922  150.5927 LP  0  0  0  0  0  0  0  0  0  0  0  0  # atno 17342 bound_to 10162
  140.5367  143.2232  151.8152 LP  0  0  0  0  0  0  0  0  0  0  0  0  # atno 17343 bound_to 10162
  156.9583  130.9797  151.3484 LP  0  0  0  0  0  0  0  0  0  0  0  0  # atno 17370 bound_to 10713
  157.5741  130.8330  149.8431 LP  0  0  0  0  0  0  0  0  0  0  0  0  # atno 17371 bound_to 10713
  141.0118  134.1010  157.4213 LP  0  0  0  0  0  0  0  0  0  0  0  0  # atno 17394 bound_to 11000
  139.8882  135.0096  156.6607 LP  0  0  0  0  0  0  0  0  0  0  0  0  # atno 17395 bound_to 11000

$$$$
