AV-unprocessed.smi:3352|AV-procd|sdf|12951|dock9
  -GOLD-   2272019393D 1   1.00000     0.00000
 Structure written by MMmdl.
 38 39  0  0  0  0  0  0  0  0  1 V2000
  143.9009  142.4169  157.8404 C   0  0  0  0  0  0  0  0  0  0  0  0
  145.2312  143.1662  157.6811 C   0  0  0  0  0  0  0  0  0  0  0  0
  145.0965  144.6693  157.9652 C   0  0  0  0  0  0  0  0  0  0  0  0
  145.8582  142.9000  156.3481 C   0  0  0  0  0  0  0  0  0  0  0  0
  147.0395  142.2938  156.2029 N   0  0  0  0  0  0  0  0  0  0  0  0
  147.3971  142.1128  154.8622 C   0  0  0  0  0  0  0  0  0  0  0  0
  148.6742  141.4030  154.5144 C   0  0  0  0  0  0  0  0  0  0  0  0
  149.4622  141.1215  155.7944 C   0  0  0  0  0  0  0  0  0  0  0  0
  149.7186  139.9631  156.1219 O   0  0  0  0  0  0  0  0  0  0  0  0
  149.8064  142.1925  156.5257 N   0  0  0  0  0  0  0  0  0  0  0  0
  150.3779  142.1478  157.8653 C   0  0  0  0  0  0  0  0  0  0  0  0
  150.7285  143.5587  158.3714 C   0  0  2  0  0  0  0  0  0  0  0  0
  151.9176  144.2167  157.6683 C   0  0  0  0  0  0  0  0  0  0  0  0
  152.4572  145.1870  158.7076 C   0  0  0  0  0  0  0  0  0  0  0  0
  151.7646  144.7689  160.0085 C   0  0  0  0  0  0  0  0  0  0  0  0
  151.1559  143.5171  159.7224 O   0  0  0  0  0  0  0  0  0  0  0  0
  146.4686  142.6149  153.9843 C   0  0  0  0  0  0  0  0  0  0  0  0
  145.1002  143.3070  154.8102 S   0  0  0  0  0  0  0  0  0  0  0  0
  144.0375  141.3434  157.7064 H   0  0  0  0  0  0  0  0  0  0  0  0
  143.1651  142.7531  157.1094 H   0  0  0  0  0  0  0  0  0  0  0  0
  143.4785  142.5734  158.8332 H   0  0  0  0  0  0  0  0  0  0  0  0
  145.9092  142.7651  158.4363 H   0  0  0  0  0  0  0  0  0  0  0  0
  146.0650  145.1674  157.9088 H   0  0  0  0  0  0  0  0  0  0  0  0
  144.6937  144.8444  158.9630 H   0  0  0  0  0  0  0  0  0  0  0  0
  144.4301  145.1531  157.2505 H   0  0  0  0  0  0  0  0  0  0  0  0
  148.4664  140.4635  154.0007 H   0  0  0  0  0  0  0  0  0  0  0  0
  149.2839  142.0009  153.8355 H   0  0  0  0  0  0  0  0  0  0  0  0
  149.5580  143.1043  156.1694 H   0  0  0  0  0  0  0  0  0  0  0  0
  149.6944  141.6514  158.5557 H   0  0  0  0  0  0  0  0  0  0  0  0
  151.2784  141.5345  157.8243 H   0  0  0  0  0  0  0  0  0  0  0  0
  149.8556  144.2110  158.3041 H   0  0  0  0  0  0  0  0  0  0  0  0
  152.6791  143.4714  157.4349 H   0  0  0  0  0  0  0  0  0  0  0  0
  151.6333  144.7084  156.7370 H   0  0  0  0  0  0  0  0  0  0  0  0
  153.5419  145.1058  158.7853 H   0  0  0  0  0  0  0  0  0  0  0  0
  152.2154  146.2202  158.4564 H   0  0  0  0  0  0  0  0  0  0  0  0
  152.4587  144.6871  160.8452 H   0  0  0  0  0  0  0  0  0  0  0  0
  150.9906  145.4888  160.2784 H   0  0  0  0  0  0  0  0  0  0  0  0
  146.4992  142.6031  152.9048 H   0  0  0  0  0  0  0  0  0  0  0  0
  1  2  1  0  0  0  0
  1 19  1  0  0  0  0
  1 20  1  0  0  0  0
  1 21  1  0  0  0  0
  2  3  1  0  0  0  0
  2  4  1  0  0  0  0
  2 22  1  0  0  0  0
  3 23  1  0  0  0  0
  3 24  1  0  0  0  0
  3 25  1  0  0  0  0
  4 18  1  0  0  0  0
  4  5  2  0  0  0  0
  5  6  1  0  0  0  0
  6  7  1  0  0  0  0
  6 17  2  0  0  0  0
  7  8  1  0  0  0  0
  7 26  1  0  0  0  0
  7 27  1  0  0  0  0
  8  9  2  0  0  0  0
  8 10  1  0  0  0  0
 10 11  1  0  0  0  0
 10 28  1  0  0  0  0
 11 12  1  0  0  0  0
 11 29  1  0  0  0  0
 11 30  1  0  0  0  0
 12 16  1  0  0  0  0
 12 13  1  0  0  0  0
 12 31  1  0  0  0  0
 13 14  1  0  0  0  0
 13 32  1  0  0  0  0
 13 33  1  0  0  0  0
 14 15  1  0  0  0  0
 14 34  1  0  0  0  0
 14 35  1  0  0  0  0
 15 16  1  0  0  0  0
 15 36  1  0  0  0  0
 15 37  1  0  0  0  0
 17 18  1  0  0  0  0
 17 38  1  0  0  0  0
M  END
> <s_m_source_file>
AV-unprocessed.smi

> <i_m_source_file_index>
3352

> <i_lp_mmshare_version>
43012

> <i_f3d_flags>
0

> <s_epik_input>
W0NIM11bQ0hdKFtDSDNdKWMxbmMoW2NIXXMxKVtDSDJdQyg9TylbTkhdW0NIMl1bQ0BASF0yW0NIMl1bQ0gyXVtDSDJdTzI=

> <s_epik_cmdline>
J2VwaWtfcHl0aG9uJywgJy1waCcsICc3LjAnLCAnLXRuJywgJzgnLCAnLW1hJywgJzIwMCcsICctbWV0YWxfYmluZGluZycsICctaW1hZScsICc8aW5maWxlLm1hZT4nLCAnLW9tYWUnLCAnPG91dGZpbGUubWFlPic=

> <r_lp_tautomer_probability>
1

> <r_epik_Ionization_Penalty>
4.66014e-05

> <r_epik_Ionization_Penalty_Charging>
0

> <r_epik_Ionization_Penalty_Neutral>
4.66014e-05

> <r_epik_State_Penalty>
-0

> <r_epik_Charging_Adjusted_Penalty>
0

> <i_epik_Tot_Q>
0

> <i_epik_Tot_abs_Q>
0

> <r_epik_Metal_State_Penalty>
-0

> <b_epik_Metal_Only>
0

> <s_lp_Force_Field>
OPLS_2005

> <r_lp_Energy>
7.75536

> <b_lp_Chiralities_Consistent>
1

> <s_lp_Variant>
AV-unprocessed.smi:3352-1

> <Gold.Version>
5.8.1

> <Gold.Id.Protein>
6NUR|6NUR_protein|mol2

> <Gold.PLP.Fitness>
39.3188

> <Gold.PLP.PLP>
-36.4482

> <Gold.PLP.part.hbond>
-1.1468

> <Gold.PLP.part.metal>
0.0000

> <Gold.PLP.part.buried>
-4.7810

> <Gold.PLP.part.nonpolar>
-30.2881

> <Gold.PLP.part.repulsive>
0.5025

> <Gold.PLP.ligand.clash>
0.0000

> <Gold.PLP.ligand.torsion>
0.1061

> <Gold.PLP.Chemscore.Hbond>
1.0000

> <Gold.PLP.Chemscore.CHOScore>
0.0000

> <Gold.PLP.Chemscore.Metal>
0.0000

> <Gold.Chemscore.Hbonds>
donor molecule, donor type, donor heavy atom, donor atom, acceptor molecule, acceptor atom, score
      L1  H    10    28       P1  8028  1.00

> <Gold.PLP.Chemscore.Internal.Correction>
0.0828

> <Gold.Rescore>
     Score         DG    S(hbond)    S(metal)    S(lipo)     H(rot)  DE(clash)    DE(int)     intcor
     15.12     -15.37       1.00        0.00      89.97       1.55       0.15       0.10       ----

> <Gold.Chemscore.Fitness>
15.1192

> <Gold.Chemscore.DG>
-15.3736

> <Gold.Chemscore.ZeroCoef>
-5.4800

> <Gold.Chemscore.Hbond>
0.9999

> <Gold.Chemscore.Metal>
0.0000

> <Gold.Chemscore.Lipo>
89.9697

> <Gold.Chemscore.Internal_Hbond>
0.0000

> <Gold.Chemscore.DEClash>
0.1540

> <Gold.Chemscore.DEInternal>
0.1003

> <Gold.Chemscore.Rot>
1.5518

> <Gold.Chemscore.Internal.Correction>
   9.000000E+99

> <Gold.Chemscore.Hbonds>
donor molecule, donor type, donor heavy atom, donor atom, acceptor molecule, acceptor atom, score
      L1  H    10    28       P1  8028  1.00

> <Gold.Chemscore.Hbond.Weighted>
-3.3398

> <Gold.Chemscore.Metal.Weighted>
-0.0000

> <Gold.Chemscore.Lipo.Weighted>
-10.5265

> <Gold.Chemscore.Internal_Hbond.Weighted>
0.0000

> <Gold.Chemscore.DEClash.Weighted>
0.1540

> <Gold.Chemscore.DEInternal.Weighted>
0.1003

> <Gold.Chemscore.Rot.Weighted>
3.9727

> <Gold.Chemscore.Internal.Correction.Weighted>
   9.000000E+99

> <Gold.Protein.RotatedTorsions>
[ 6907 6896 6895 6894 ] final  -54.02 input  -60.11 | X-H torsion
[ 7974 7965 7964 7962 ] final   69.58 input  175.53 | X-H torsion
[ 8008 7997 7996 7995 ] final  133.55 input   59.86 | X-H torsion
[ 10167 10162 10161 10158 ] final   -5.54 input  -65.29 | X-H torsion
[ 10718 10713 10712 10709 ] final  -86.83 input   66.30 | X-H torsion
[ 10763 10752 10751 10750 ] final    8.55 input  -60.55 | X-H torsion
[ 11005 11000 10999 10996 ] final  -65.65 input  -57.11 | X-H torsion

> <Gold.Protein.ActiveResidues>
 VAL166  LYS551  ARG553  GLY616  TRP617  ASP618  TYR619  PRO620  LYS621  CYS622 
 ASP623  PHE694  ASN695  SER759  ASP760  ASP761  ALA762  ILE779  LEU786  VAL792 
 PHE793  MET794  SER795  GLU796  ALA797  LYS798  CYS799  TRP800  GLU811  SER814 

> <Gold.Protein.RotatedAtoms>
  150.8375  134.7653  159.6904 H   0  0  0  0  0  0  0  0  0  0  0  0  # atno 6907 bound_to 6896
  152.4469  134.5473  159.9866 H   0  0  0  0  0  0  0  0  0  0  0  0  # atno 6908 bound_to 6896
  151.5620  133.3364  159.3009 H   0  0  0  0  0  0  0  0  0  0  0  0  # atno 6909 bound_to 6896
  145.7887  139.2923  143.1223 H   0  0  0  0  0  0  0  0  0  0  0  0  # atno 7974 bound_to 7965
  156.2993  140.2518  156.3271 H   0  0  0  0  0  0  0  0  0  0  0  0  # atno 8008 bound_to 7997
  154.9180  140.0401  157.2001 H   0  0  0  0  0  0  0  0  0  0  0  0  # atno 8009 bound_to 7997
  154.8339  140.2880  155.5708 H   0  0  0  0  0  0  0  0  0  0  0  0  # atno 8010 bound_to 7997
  140.6967  143.6296  150.8535 H   0  0  0  0  0  0  0  0  0  0  0  0  # atno 10167 bound_to 10162
  155.9988  130.4778  150.4774 H   0  0  0  0  0  0  0  0  0  0  0  0  # atno 10718 bound_to 10713
  153.2238  135.6884  153.7969 H   0  0  0  0  0  0  0  0  0  0  0  0  # atno 10763 bound_to 10752
  153.7158  135.3275  155.3257 H   0  0  0  0  0  0  0  0  0  0  0  0  # atno 10764 bound_to 10752
  154.8282  135.4601  154.1096 H   0  0  0  0  0  0  0  0  0  0  0  0  # atno 10765 bound_to 10752
  141.1460  133.6685  156.6019 H   0  0  0  0  0  0  0  0  0  0  0  0  # atno 11005 bound_to 11000
  145.9999  140.8529  143.0023 LP  0  0  0  0  0  0  0  0  0  0  0  0  # atno 17320 bound_to 7965
  144.6785  140.2338  143.7352 LP  0  0  0  0  0  0  0  0  0  0  0  0  # atno 17321 bound_to 7965
  140.0015  143.5739  152.2874 LP  0  0  0  0  0  0  0  0  0  0  0  0  # atno 17342 bound_to 10162
  139.6430  144.7656  151.2299 LP  0  0  0  0  0  0  0  0  0  0  0  0  # atno 17343 bound_to 10162
  157.2783  131.0601  151.2214 LP  0  0  0  0  0  0  0  0  0  0  0  0  # atno 17370 bound_to 10713
  157.3270  130.6966  149.6302 LP  0  0  0  0  0  0  0  0  0  0  0  0  # atno 17371 bound_to 10713
  140.3682  134.7629  157.4580 LP  0  0  0  0  0  0  0  0  0  0  0  0  # atno 17394 bound_to 11000
  140.0732  134.5834  155.8620 LP  0  0  0  0  0  0  0  0  0  0  0  0  # atno 17395 bound_to 11000

$$$$
