AV-unprocessed.smi:178|AV-procd|sdf|1445|dock5
  -GOLD-   2262019233D 1   1.00000     0.00000
 Structure written by MMmdl.
 50 52  0  0  0  0  0  0  0  0  1 V2000
  152.2283  139.1787  155.4876 C   0  0  0  0  0  0  0  0  0  0  0  0
  151.6346  140.3930  155.9204 O   0  0  0  0  0  0  0  0  0  0  0  0
  150.3477  140.2284  156.4980 C   0  0  0  0  0  0  0  0  0  0  0  0
  150.4442  139.7621  157.9642 C   0  0  0  0  0  0  0  0  0  0  0  0
  151.0168  138.4188  158.0931 N   0  0  0  0  0  0  0  0  0  0  0  0
  150.1673  137.2801  157.7447 C   0  0  0  0  0  0  0  0  0  0  0  0
  148.7874  137.3267  158.4218 C   0  0  0  0  0  0  0  0  0  0  0  0
  148.8059  137.0510  159.8672 C   0  0  0  0  0  0  0  0  0  0  0  0
  148.8195  136.8374  161.0043 N   0  0  0  0  0  0  0  0  0  0  0  0
  152.2817  138.2611  158.5908 C   0  0  0  0  0  0  0  0  0  0  0  0
  152.9666  139.3831  158.9443 N   0  0  0  0  0  0  0  0  0  0  0  0
  154.1990  139.3126  159.4501 C   0  0  0  0  0  0  0  0  0  0  0  0
  154.9386  138.2315  159.6873 N   0  0  0  0  0  0  0  0  0  0  0  0
  154.2761  137.0943  159.3333 C   0  0  0  0  0  0  0  0  0  0  0  0
  152.9604  137.0150  158.7853 C   0  0  0  0  0  0  0  0  0  0  0  0
  152.6397  135.6767  158.5808 N   0  0  0  0  0  0  0  0  0  0  0  0
  153.6896  135.0149  158.9781 C   0  0  0  0  0  0  0  0  0  0  0  0
  154.7306  135.7888  159.4331 N   0  0  0  0  0  0  0  0  0  0  0  0
  156.0194  135.3331  159.9414 C   0  0  0  0  0  0  0  0  0  0  0  0
  155.9282  134.4191  161.1937 C   0  0  1  0  0  0  0  0  0  0  0  0
  156.8056  134.9327  162.1824 O   0  0  0  0  0  0  0  0  0  0  0  0
  154.5305  134.3463  161.7843 C   0  0  0  0  0  0  0  0  0  0  0  0
  154.5704  133.0702  162.6228 C   0  0  0  0  0  0  0  0  0  0  0  0
  155.6238  132.2697  162.0898 O   0  0  0  0  0  0  0  0  0  0  0  0
  156.2719  132.9270  161.0018 C   0  0  1  0  0  0  0  0  0  0  0  0
  155.7029  132.2647  159.7327 C   0  0  0  0  0  0  0  0  0  0  0  0
  153.2253  139.3817  155.0974 H   0  0  0  0  0  0  0  0  0  0  0  0
  151.6526  138.7045  154.6931 H   0  0  0  0  0  0  0  0  0  0  0  0
  152.3309  138.4735  156.3132 H   0  0  0  0  0  0  0  0  0  0  0  0
  149.7657  141.1459  156.4018 H   0  0  0  0  0  0  0  0  0  0  0  0
  149.8239  139.4744  155.9114 H   0  0  0  0  0  0  0  0  0  0  0  0
  151.0685  140.4664  158.5148 H   0  0  0  0  0  0  0  0  0  0  0  0
  149.4720  139.7965  158.4550 H   0  0  0  0  0  0  0  0  0  0  0  0
  150.0170  137.3019  156.6649 H   0  0  0  0  0  0  0  0  0  0  0  0
  150.6601  136.3281  157.9228 H   0  0  0  0  0  0  0  0  0  0  0  0
  148.3253  138.3029  158.2773 H   0  0  0  0  0  0  0  0  0  0  0  0
  148.1244  136.5969  157.9573 H   0  0  0  0  0  0  0  0  0  0  0  0
  154.6568  140.2578  159.7021 H   0  0  0  0  0  0  0  0  0  0  0  0
  153.7161  133.9373  158.9543 H   0  0  0  0  0  0  0  0  0  0  0  0
  156.5151  134.7898  159.1357 H   0  0  0  0  0  0  0  0  0  0  0  0
  156.6473  136.2034  160.1331 H   0  0  0  0  0  0  0  0  0  0  0  0
  157.5312  135.3543  161.7477 H   0  0  0  0  0  0  0  0  0  0  0  0
  154.2558  135.2283  162.3643 H   0  0  0  0  0  0  0  0  0  0  0  0
  153.7935  134.2357  160.9879 H   0  0  0  0  0  0  0  0  0  0  0  0
  154.8012  133.2988  163.6636 H   0  0  0  0  0  0  0  0  0  0  0  0
  153.6199  132.5367  162.5978 H   0  0  0  0  0  0  0  0  0  0  0  0
  157.3482  132.7531  161.0414 H   0  0  0  0  0  0  0  0  0  0  0  0
  156.1436  132.6662  158.8245 H   0  0  0  0  0  0  0  0  0  0  0  0
  154.6229  132.3905  159.6595 H   0  0  0  0  0  0  0  0  0  0  0  0
  155.9057  131.1937  159.7383 H   0  0  0  0  0  0  0  0  0  0  0  0
  1  2  1  0  0  0  0
  1 27  1  0  0  0  0
  1 28  1  0  0  0  0
  1 29  1  0  0  0  0
  2  3  1  0  0  0  0
  3  4  1  0  0  0  0
  3 30  1  0  0  0  0
  3 31  1  0  0  0  0
  4  5  1  0  0  0  0
  4 32  1  0  0  0  0
  4 33  1  0  0  0  0
  5  6  1  0  0  0  0
  5 10  1  0  0  0  0
  6  7  1  0  0  0  0
  6 34  1  0  0  0  0
  6 35  1  0  0  0  0
  7  8  1  0  0  0  0
  7 36  1  0  0  0  0
  7 37  1  0  0  0  0
  8  9  3  0  0  0  0
 10 15  1  0  0  0  0
 10 11  2  0  0  0  0
 11 12  1  0  0  0  0
 12 13  2  0  0  0  0
 12 38  1  0  0  0  0
 13 14  1  0  0  0  0
 14 18  1  0  0  0  0
 14 15  2  0  0  0  0
 15 16  1  0  0  0  0
 16 17  2  0  0  0  0
 17 18  1  0  0  0  0
 17 39  1  0  0  0  0
 18 19  1  0  0  0  0
 19 20  1  0  0  0  0
 19 40  1  0  0  0  0
 19 41  1  0  0  0  0
 20 25  1  0  0  0  0
 20 21  1  0  0  0  0
 20 22  1  0  0  0  0
 21 42  1  0  0  0  0
 22 23  1  0  0  0  0
 22 43  1  0  0  0  0
 22 44  1  0  0  0  0
 23 24  1  0  0  0  0
 23 45  1  0  0  0  0
 23 46  1  0  0  0  0
 24 25  1  0  0  0  0
 25 26  1  0  0  0  0
 25 47  1  0  0  0  0
 26 48  1  0  0  0  0
 26 49  1  0  0  0  0
 26 50  1  0  0  0  0
M  END
> <s_m_source_file>
AV-unprocessed.smi

> <i_m_source_file_index>
178

> <i_lp_mmshare_version>
43012

> <i_f3d_flags>
0

> <s_epik_input>
W0NIM11PW0NIMl1bQ0gyXU4oW0NIMl1bQ0gyXUMjTiljKG5bY0hdbjEpYyhjMTIpbltjSF1uMltDSDJdW0NAQF0zKFtPSF0pW0NIMl1bQ0gyXU9bQ0BIXTNbQ0gzXQ==

> <s_epik_cmdline>
J2VwaWtfcHl0aG9uJywgJy1waCcsICc3LjAnLCAnLXRuJywgJzgnLCAnLW1hJywgJzIwMCcsICctbWV0YWxfYmluZGluZycsICctaW1hZScsICc8aW5maWxlLm1hZT4nLCAnLW9tYWUnLCAnPG91dGZpbGUubWFlPic=

> <r_lp_tautomer_probability>
1

> <r_epik_Ionization_Penalty>
0.000885317

> <r_epik_Ionization_Penalty_Charging>
0

> <r_epik_Ionization_Penalty_Neutral>
0.000885317

> <r_epik_State_Penalty>
0.00047273

> <r_epik_Charging_Adjusted_Penalty>
0.00047273

> <i_epik_Tot_Q>
0

> <i_epik_Tot_abs_Q>
0

> <r_epik_Metal_State_Penalty>
-0

> <b_epik_Metal_Only>
0

> <s_lp_Force_Field>
OPLS_2005

> <r_lp_Energy>
33.9655

> <b_lp_Chiralities_Consistent>
1

> <s_lp_Variant>
AV-unprocessed.smi:178-1

> <Gold.Version>
5.8.1

> <Gold.Id.Protein>
6NUR|6NUR_protein|mol2

> <Gold.PLP.Fitness>
41.6753

> <Gold.PLP.PLP>
-33.8108

> <Gold.PLP.part.hbond>
-4.0000

> <Gold.PLP.part.metal>
0.0000

> <Gold.PLP.part.buried>
-6.1034

> <Gold.PLP.part.nonpolar>
-25.1540

> <Gold.PLP.part.repulsive>
0.1203

> <Gold.PLP.ligand.clash>
0.0000

> <Gold.PLP.ligand.torsion>
1.4274

> <Gold.PLP.Chemscore.Hbond>
3.4593

> <Gold.PLP.Chemscore.CHOScore>
0.0000

> <Gold.PLP.Chemscore.Metal>
0.0000

> <Gold.Chemscore.Hbonds>
donor molecule, donor type, donor heavy atom, donor atom, acceptor molecule, acceptor atom, score
      P1  H  6896  6908       L1    16  0.11
      P1  H  6931  6943       L1     9  1.00

> <Gold.PLP.Chemscore.Internal.Correction>
0.3415

> <Gold.Rescore>
     Score         DG    S(hbond)    S(metal)    S(lipo)     H(rot)  DE(clash)    DE(int)     intcor
      8.63     -12.93       2.58        0.00      63.73       3.37       0.17       4.13       ----

> <Gold.Chemscore.Fitness>
8.6324

> <Gold.Chemscore.DG>
-12.9266

> <Gold.Chemscore.ZeroCoef>
-5.4800

> <Gold.Chemscore.Hbond>
2.5824

> <Gold.Chemscore.Metal>
0.0000

> <Gold.Chemscore.Lipo>
63.7325

> <Gold.Chemscore.Internal_Hbond>
0.0000

> <Gold.Chemscore.DEClash>
0.1685

> <Gold.Chemscore.DEInternal>
4.1258

> <Gold.Chemscore.Rot>
3.3732

> <Gold.Chemscore.Internal.Correction>
   9.000000E+99

> <Gold.Chemscore.Hbonds>
donor molecule, donor type, donor heavy atom, donor atom, acceptor molecule, acceptor atom, score
      P1  H  6896  6908       L1    16  0.01
      P1  H  6931  6943       L1     9  0.75

> <Gold.Chemscore.Hbond.Weighted>
-8.6253

> <Gold.Chemscore.Metal.Weighted>
-0.0000

> <Gold.Chemscore.Lipo.Weighted>
-7.4567

> <Gold.Chemscore.Internal_Hbond.Weighted>
0.0000

> <Gold.Chemscore.DEClash.Weighted>
0.1685

> <Gold.Chemscore.DEInternal.Weighted>
4.1258

> <Gold.Chemscore.Rot.Weighted>
8.6354

> <Gold.Chemscore.Internal.Correction.Weighted>
   9.000000E+99

> <Gold.Protein.RotatedTorsions>
[ 6907 6896 6895 6894 ] final -116.42 input  -60.11 | X-H torsion
[ 7974 7965 7964 7962 ] final  -37.67 input  175.53 | X-H torsion
[ 8008 7997 7996 7995 ] final    6.95 input   59.86 | X-H torsion
[ 10167 10162 10161 10158 ] final -170.11 input  -65.29 | X-H torsion
[ 10718 10713 10712 10709 ] final   25.19 input   66.30 | X-H torsion
[ 10763 10752 10751 10750 ] final   79.19 input  -60.55 | X-H torsion
[ 11005 11000 10999 10996 ] final  -13.81 input  -57.11 | X-H torsion

> <Gold.Protein.ActiveResidues>
 VAL166  LYS551  ARG553  GLY616  TRP617  ASP618  TYR619  PRO620  LYS621  CYS622 
 ASP623  PHE694  ASN695  SER759  ASP760  ASP761  ALA762  ILE779  LEU786  VAL792 
 PHE793  MET794  SER795  GLU796  ALA797  LYS798  CYS799  TRP800  GLU811  SER814 

> <Gold.Protein.RotatedAtoms>
  150.8055  133.8519  159.3207 H   0  0  0  0  0  0  0  0  0  0  0  0  # atno 6907 bound_to 6896
  151.6319  135.1020  160.0133 H   0  0  0  0  0  0  0  0  0  0  0  0  # atno 6908 bound_to 6896
  152.4145  133.6976  159.6462 H   0  0  0  0  0  0  0  0  0  0  0  0  # atno 6909 bound_to 6896
  146.0554  140.6423  142.9022 H   0  0  0  0  0  0  0  0  0  0  0  0  # atno 7974 bound_to 7965
  154.7476  140.2761  155.6320 H   0  0  0  0  0  0  0  0  0  0  0  0  # atno 8008 bound_to 7997
  156.2888  140.2685  156.2147 H   0  0  0  0  0  0  0  0  0  0  0  0  # atno 8009 bound_to 7997
  155.0178  140.0371  157.2415 H   0  0  0  0  0  0  0  0  0  0  0  0  # atno 8010 bound_to 7997
  139.5881  144.1273  152.1601 H   0  0  0  0  0  0  0  0  0  0  0  0  # atno 10167 bound_to 10162
  157.1899  130.6841  149.6146 H   0  0  0  0  0  0  0  0  0  0  0  0  # atno 10718 bound_to 10713
  153.0933  135.4849  154.8731 H   0  0  0  0  0  0  0  0  0  0  0  0  # atno 10763 bound_to 10752
  154.7295  135.3057  154.8918 H   0  0  0  0  0  0  0  0  0  0  0  0  # atno 10764 bound_to 10752
  153.9558  135.6818  153.4798 H   0  0  0  0  0  0  0  0  0  0  0  0  # atno 10765 bound_to 10752
  140.7799  133.8371  155.9282 H   0  0  0  0  0  0  0  0  0  0  0  0  # atno 11005 bound_to 11000
  144.7145  140.4161  143.7055 LP  0  0  0  0  0  0  0  0  0  0  0  0  # atno 17320 bound_to 7965
  145.6652  139.1588  143.2786 LP  0  0  0  0  0  0  0  0  0  0  0  0  # atno 17321 bound_to 7965
  140.0841  144.5676  150.7101 LP  0  0  0  0  0  0  0  0  0  0  0  0  # atno 17342 bound_to 10162
  140.7149  143.2536  151.4465 LP  0  0  0  0  0  0  0  0  0  0  0  0  # atno 17343 bound_to 10162
  155.9713  130.4618  150.6122 LP  0  0  0  0  0  0  0  0  0  0  0  0  # atno 17370 bound_to 10713
  157.3870  131.0790  151.1427 LP  0  0  0  0  0  0  0  0  0  0  0  0  # atno 17371 bound_to 10713
  140.9493  134.1800  157.4740 LP  0  0  0  0  0  0  0  0  0  0  0  0  # atno 17394 bound_to 11000
  139.8744  134.9903  156.5495 LP  0  0  0  0  0  0  0  0  0  0  0  0  # atno 17395 bound_to 11000

$$$$
