AV-unprocessed.smi:1664|AV-procd|sdf|6668|dock9
  -GOLD-   22720 7383D 1   1.00000     0.00000
 Structure written by MMmdl.
 35 36  0  0  0  0  0  0  0  0  3 V2000
  144.0802  137.0728  152.7316 C   0  0  0  0  0  0  0  0  0  0  0  0
  145.5051  136.5840  152.4037 C   0  0  2  0  0  0  0  0  0  0  0  0
  145.9595  135.6652  153.4683 C   0  0  0  0  0  0  0  0  0  0  0  0
  146.3160  134.9460  154.3024 N   0  0  0  0  0  0  0  0  0  0  0  0
  146.4008  137.7372  152.3019 N   0  0  0  0  0  0  0  0  0  0  0  0
  146.9845  138.4203  153.3042 C   0  0  0  0  0  0  0  0  0  0  0  0
  146.8167  138.1431  154.4905 O   0  0  0  0  0  0  0  0  0  0  0  0
  147.9039  139.5990  152.9399 C   0  0  0  0  0  0  0  0  0  0  0  0
  148.9220  139.9315  153.9537 N   0  0  0  0  0  0  0  0  0  0  0  0
  149.9053  138.9564  154.2131 C   0  0  0  0  0  0  0  0  0  0  0  0
  150.8879  139.1520  155.1141 C   0  0  0  0  0  0  0  0  0  0  0  0
  151.8966  138.1447  155.3585 N   0  3  0  0  0  0  0  0  0  0  0  0
  152.9009  138.4588  155.9892 O   0  0  0  0  0  0  0  0  0  0  0  0
  151.7203  137.0088  154.9283 O   0  5  0  0  0  0  0  0  0  0  0  0
  150.9060  140.4142  155.8280 C   0  0  0  0  0  0  0  0  0  0  0  0
  149.9720  141.3535  155.5798 C   0  0  0  0  0  0  0  0  0  0  0  0
  148.9102  141.1424  154.5907 C   0  0  0  0  0  0  0  0  0  0  0  0
  148.0665  142.0040  154.3442 O   0  0  0  0  0  0  0  0  0  0  0  0
  145.4671  135.8421  151.0695 C   0  0  0  0  0  0  0  0  0  0  0  0
  144.3959  134.8297  150.7298 C   0  0  0  0  0  0  0  0  0  0  0  0
  145.8255  134.3789  150.9369 C   0  0  0  0  0  0  0  0  0  0  0  0
  143.3768  136.2399  152.7539 H   0  0  0  0  0  0  0  0  0  0  0  0
  143.7224  137.7854  151.9872 H   0  0  0  0  0  0  0  0  0  0  0  0
  144.0297  137.5588  153.7061 H   0  0  0  0  0  0  0  0  0  0  0  0
  146.6074  138.0447  151.3629 H   0  0  0  0  0  0  0  0  0  0  0  0
  148.3778  139.3827  151.9808 H   0  0  0  0  0  0  0  0  0  0  0  0
  147.2736  140.4685  152.7475 H   0  0  0  0  0  0  0  0  0  0  0  0
  149.8074  138.0550  153.6248 H   0  0  0  0  0  0  0  0  0  0  0  0
  151.6679  140.6154  156.5667 H   0  0  0  0  0  0  0  0  0  0  0  0
  150.0047  142.2867  156.1229 H   0  0  0  0  0  0  0  0  0  0  0  0
  145.7833  136.4675  150.2359 H   0  0  0  0  0  0  0  0  0  0  0  0
  143.6702  134.5675  151.4967 H   0  0  0  0  0  0  0  0  0  0  0  0
  144.0125  134.8295  149.7114 H   0  0  0  0  0  0  0  0  0  0  0  0
  146.3898  134.0809  150.0557 H   0  0  0  0  0  0  0  0  0  0  0  0
  146.0508  133.8172  151.8410 H   0  0  0  0  0  0  0  0  0  0  0  0
  1  2  1  0  0  0  0
  1 22  1  0  0  0  0
  1 23  1  0  0  0  0
  1 24  1  0  0  0  0
  2  3  1  0  0  0  0
  2  5  1  0  0  0  0
  2 19  1  0  0  0  0
  3  4  3  0  0  0  0
  5  6  1  0  0  0  0
  5 25  1  0  0  0  0
  6  7  2  0  0  0  0
  6  8  1  0  0  0  0
  8  9  1  0  0  0  0
  8 26  1  0  0  0  0
  8 27  1  0  0  0  0
  9 17  1  0  0  0  0
  9 10  1  0  0  0  0
 10 11  2  0  0  0  0
 10 28  1  0  0  0  0
 11 12  1  0  0  0  0
 11 15  1  0  0  0  0
 12 13  2  0  0  0  0
 12 14  1  0  0  0  0
 15 16  2  0  0  0  0
 15 29  1  0  0  0  0
 16 17  1  0  0  0  0
 16 30  1  0  0  0  0
 17 18  2  0  0  0  0
 19 21  1  0  0  0  0
 19 20  1  0  0  0  0
 19 31  1  0  0  0  0
 20 21  1  0  0  0  0
 20 32  1  0  0  0  0
 20 33  1  0  0  0  0
 21 34  1  0  0  0  0
 21 35  1  0  0  0  0
M  CHG  1  12   1
M  CHG  1  14  -1
M  END
> <s_m_source_file>
AV-unprocessed.smi

> <i_m_source_file_index>
1664

> <i_lp_mmshare_version>
43012

> <i_f3d_flags>
0

> <s_epik_input>
W0NIMl0xW0NIMl1bQ0hdMVtDQF0oW0NIM10pKEMjTilbTkhdQyg9TylbQ0gyXW4yW2NIXWMoW04rXSg9TylbTy1dKVtjSF1bY0hdYzI9Tw==

> <s_epik_cmdline>
J2VwaWtfcHl0aG9uJywgJy1waCcsICc3LjAnLCAnLXRuJywgJzgnLCAnLW1hJywgJzIwMCcsICctbWV0YWxfYmluZGluZycsICctaW1hZScsICc8aW5maWxlLm1hZT4nLCAnLW9tYWUnLCAnPG91dGZpbGUubWFlPic=

> <r_lp_tautomer_probability>
1

> <r_epik_Ionization_Penalty>
4.65324e-07

> <r_epik_Ionization_Penalty_Charging>
6.17383e-11

> <r_epik_Ionization_Penalty_Neutral>
4.65262e-07

> <r_epik_State_Penalty>
-0

> <r_epik_Charging_Adjusted_Penalty>
6.17383e-11

> <i_epik_Tot_Q>
0

> <i_epik_Tot_abs_Q>
2

> <r_epik_Metal_State_Penalty>
-0

> <b_epik_Metal_Only>
0

> <s_lp_Force_Field>
OPLS_2005

> <r_lp_Energy>
24.1204

> <b_lp_Chiralities_Consistent>
1

> <s_lp_Variant>
AV-unprocessed.smi:1664-2

> <Gold.Version>
5.8.1

> <Gold.Id.Protein>
6NUR|6NUR_protein|mol2

> <Gold.PLP.Fitness>
40.5572

> <Gold.PLP.PLP>
-34.9454

> <Gold.PLP.part.hbond>
-3.0000

> <Gold.PLP.part.metal>
0.0000

> <Gold.PLP.part.buried>
2.9238

> <Gold.PLP.part.nonpolar>
-34.9980

> <Gold.PLP.part.repulsive>
0.6911

> <Gold.PLP.ligand.clash>
0.0000

> <Gold.PLP.ligand.torsion>
2.1547

> <Gold.PLP.Chemscore.Hbond>
1.9920

> <Gold.PLP.Chemscore.CHOScore>
0.8087

> <Gold.PLP.Chemscore.Metal>
0.0000

> <Gold.Chemscore.Hbonds>
donor molecule, donor type, donor heavy atom, donor atom, acceptor molecule, acceptor atom, score
      P1  H  7997  8009       L1    13  0.50
      P1  H 10752 10765       L1    14  1.00
      L1  C    10    28       P1  7948  0.73

> <Gold.PLP.Chemscore.Internal.Correction>
1.5191

> <Gold.Rescore>
     Score         DG    S(hbond)    S(metal)    S(lipo)     H(rot)  DE(clash)    DE(int)     intcor
      9.27     -14.19       1.87        0.00      63.42       1.94       1.44       3.48       ----

> <Gold.Chemscore.Fitness>
9.2670

> <Gold.Chemscore.DG>
-14.1887

> <Gold.Chemscore.ZeroCoef>
-5.4800

> <Gold.Chemscore.Hbond>
1.8717

> <Gold.Chemscore.Metal>
0.0000

> <Gold.Chemscore.Lipo>
63.4169

> <Gold.Chemscore.Internal_Hbond>
0.0000

> <Gold.Chemscore.DEClash>
1.4401

> <Gold.Chemscore.DEInternal>
3.4816

> <Gold.Chemscore.Rot>
1.9386

> <Gold.Chemscore.Internal.Correction>
   9.000000E+99

> <Gold.Chemscore.Hbonds>
donor molecule, donor type, donor heavy atom, donor atom, acceptor molecule, acceptor atom, score
      P1  H  7997  8009       L1    13  0.48
      P1  H 10752 10765       L1    14  0.95

> <Gold.Chemscore.Hbond.Weighted>
-6.2516

> <Gold.Chemscore.Metal.Weighted>
-0.0000

> <Gold.Chemscore.Lipo.Weighted>
-7.4198

> <Gold.Chemscore.Internal_Hbond.Weighted>
0.0000

> <Gold.Chemscore.DEClash.Weighted>
1.4401

> <Gold.Chemscore.DEInternal.Weighted>
3.4816

> <Gold.Chemscore.Rot.Weighted>
4.9627

> <Gold.Chemscore.Internal.Correction.Weighted>
   9.000000E+99

> <Gold.Protein.RotatedTorsions>
[ 6907 6896 6895 6894 ] final   92.93 input  -60.11 | X-H torsion
[ 7974 7965 7964 7962 ] final   21.29 input  175.53 | X-H torsion
[ 8008 7997 7996 7995 ] final -150.56 input   59.86 | X-H torsion
[ 10167 10162 10161 10158 ] final  164.45 input  -65.29 | X-H torsion
[ 10718 10713 10712 10709 ] final   93.05 input   66.30 | X-H torsion
[ 10763 10752 10751 10750 ] final  163.64 input  -60.55 | X-H torsion
[ 11005 11000 10999 10996 ] final   11.73 input  -57.11 | X-H torsion

> <Gold.Protein.ActiveResidues>
 VAL166  LYS551  ARG553  GLY616  TRP617  ASP618  TYR619  PRO620  LYS621  CYS622 
 ASP623  PHE694  ASN695  SER759  ASP760  ASP761  ALA762  ILE779  LEU786  VAL792 
 PHE793  MET794  SER795  GLU796  ALA797  LYS798  CYS799  TRP800  GLU811  SER814 

> <Gold.Protein.RotatedAtoms>
  152.5453  134.1426  159.8484 H   0  0  0  0  0  0  0  0  0  0  0  0  # atno 6907 bound_to 6896
  151.1460  133.4932  159.2603 H   0  0  0  0  0  0  0  0  0  0  0  0  # atno 6908 bound_to 6896
  151.1522  135.0243  159.8728 H   0  0  0  0  0  0  0  0  0  0  0  0  # atno 6909 bound_to 6896
  146.2077  139.8048  142.8713 H   0  0  0  0  0  0  0  0  0  0  0  0  # atno 7974 bound_to 7965
  155.6255  140.0686  157.2665 H   0  0  0  0  0  0  0  0  0  0  0  0  # atno 8008 bound_to 7997
  154.4218  140.1777  156.1466 H   0  0  0  0  0  0  0  0  0  0  0  0  # atno 8009 bound_to 7997
  155.9975  140.3339  155.6816 H   0  0  0  0  0  0  0  0  0  0  0  0  # atno 8010 bound_to 7997
  139.4889  144.4233  151.9159 H   0  0  0  0  0  0  0  0  0  0  0  0  # atno 10167 bound_to 10162
  157.6956  131.0465  150.3975 H   0  0  0  0  0  0  0  0  0  0  0  0  # atno 10718 bound_to 10713
  154.2967  135.2760  155.2630 H   0  0  0  0  0  0  0  0  0  0  0  0  # atno 10763 bound_to 10752
  154.5084  135.5789  153.6589 H   0  0  0  0  0  0  0  0  0  0  0  0  # atno 10764 bound_to 10752
  152.9906  135.6175  154.3135 H   0  0  0  0  0  0  0  0  0  0  0  0  # atno 10765 bound_to 10752
  140.4999  134.0756  155.7791 H   0  0  0  0  0  0  0  0  0  0  0  0  # atno 11005 bound_to 11000
  145.3258  141.0255  143.3474 LP  0  0  0  0  0  0  0  0  0  0  0  0  # atno 17320 bound_to 7965
  144.8834  139.4873  143.6712 LP  0  0  0  0  0  0  0  0  0  0  0  0  # atno 17321 bound_to 7965
  140.3678  144.2892  150.5924 LP  0  0  0  0  0  0  0  0  0  0  0  0  # atno 17342 bound_to 10162
  140.5345  143.2236  151.8184 LP  0  0  0  0  0  0  0  0  0  0  0  0  # atno 17343 bound_to 10162
  156.4372  130.3984  149.6721 LP  0  0  0  0  0  0  0  0  0  0  0  0  # atno 17370 bound_to 10713
  156.3917  130.7630  151.2632 LP  0  0  0  0  0  0  0  0  0  0  0  0  # atno 17371 bound_to 10713
  141.1441  133.9087  157.2258 LP  0  0  0  0  0  0  0  0  0  0  0  0  # atno 17394 bound_to 11000
  139.9719  135.0125  156.9534 LP  0  0  0  0  0  0  0  0  0  0  0  0  # atno 17395 bound_to 11000

$$$$
