AV-unprocessed.smi:2908|AV-procd|sdf|11167|dock10
  -GOLD-   2272016 53D 1   1.00000     0.00000
 Structure written by MMmdl.
 43 44  0  0  0  0  0  0  0  0  1 V2000
  151.2501  137.1580  159.7555 O   0  0  0  0  0  0  0  0  0  0  0  0
  150.7602  137.9275  158.9275 C   0  0  0  0  0  0  0  0  0  0  0  0
  149.4982  137.7905  158.4893 N   0  0  0  0  0  0  0  0  0  0  0  0
  148.5739  136.7607  158.9437 C   0  0  0  0  0  0  0  0  0  0  0  0
  148.6166  136.6260  160.4722 C   0  0  0  0  0  0  0  0  0  0  0  0
  147.4478  135.8208  161.0088 C   0  0  0  0  0  0  0  0  0  0  0  0
  147.6646  134.6976  161.8353 C   0  0  0  0  0  0  0  0  0  0  0  0
  146.5442  133.9933  162.3171 C   0  0  0  0  0  0  0  0  0  0  0  0
  145.2574  134.4370  161.9566 C   0  0  0  0  0  0  0  0  0  0  0  0
  145.1476  135.5697  161.1259 C   0  0  0  0  0  0  0  0  0  0  0  0
  146.2151  136.2518  160.6580 N   0  0  0  0  0  0  0  0  0  0  0  0
  151.4504  138.9512  158.3638 N   0  0  0  0  0  0  0  0  0  0  0  0
  150.8885  140.0372  157.5459 C   0  0  0  0  0  0  0  0  0  0  0  0
  150.8584  141.3238  158.3891 C   0  0  0  0  0  0  0  0  0  0  0  0
  152.2664  141.7046  158.9161 C   0  0  0  0  0  0  0  0  0  0  0  0
  152.2066  142.9534  159.8379 C   0  0  2  0  0  0  0  0  0  0  0  0
  151.2588  142.7094  160.8614 O   0  0  0  0  0  0  0  0  0  0  0  0
  151.8107  144.2802  159.1484 C   0  0  0  0  0  0  0  0  0  0  0  0
  152.0432  145.3025  159.9732 F   0  0  0  0  0  0  0  0  0  0  0  0
  152.5499  144.4837  158.0585 F   0  0  0  0  0  0  0  0  0  0  0  0
  150.5227  144.2759  158.8041 F   0  0  0  0  0  0  0  0  0  0  0  0
  152.9274  140.4750  159.5875 C   0  0  0  0  0  0  0  0  0  0  0  0
  152.8526  139.2212  158.6968 C   0  0  0  0  0  0  0  0  0  0  0  0
  149.1579  138.4466  157.8018 H   0  0  0  0  0  0  0  0  0  0  0  0
  147.5624  137.0114  158.6198 H   0  0  0  0  0  0  0  0  0  0  0  0
  148.8376  135.8110  158.4753 H   0  0  0  0  0  0  0  0  0  0  0  0
  149.5469  136.1470  160.7809 H   0  0  0  0  0  0  0  0  0  0  0  0
  148.6125  137.6145  160.9336 H   0  0  0  0  0  0  0  0  0  0  0  0
  148.6641  134.3833  162.0975 H   0  0  0  0  0  0  0  0  0  0  0  0
  146.6701  133.1294  162.9529 H   0  0  0  0  0  0  0  0  0  0  0  0
  144.3757  133.9220  162.3085 H   0  0  0  0  0  0  0  0  0  0  0  0
  144.1765  135.9381  160.8299 H   0  0  0  0  0  0  0  0  0  0  0  0
  151.5152  140.1845  156.6652 H   0  0  0  0  0  0  0  0  0  0  0  0
  149.8920  139.8289  157.1567 H   0  0  0  0  0  0  0  0  0  0  0  0
  150.4462  142.1332  157.7860 H   0  0  0  0  0  0  0  0  0  0  0  0
  150.1746  141.1875  159.2282 H   0  0  0  0  0  0  0  0  0  0  0  0
  152.8782  141.9594  158.0493 H   0  0  0  0  0  0  0  0  0  0  0  0
  153.1749  143.0907  160.3209 H   0  0  0  0  0  0  0  0  0  0  0  0
  150.8839  141.8528  160.7230 H   0  0  0  0  0  0  0  0  0  0  0  0
  153.9763  140.6780  159.8002 H   0  0  0  0  0  0  0  0  0  0  0  0
  152.4451  140.2705  160.5444 H   0  0  0  0  0  0  0  0  0  0  0  0
  153.3355  138.3804  159.1967 H   0  0  0  0  0  0  0  0  0  0  0  0
  153.4192  139.3797  157.7781 H   0  0  0  0  0  0  0  0  0  0  0  0
  1  2  2  0  0  0  0
  2  3  1  0  0  0  0
  2 12  1  0  0  0  0
  3  4  1  0  0  0  0
  3 24  1  0  0  0  0
  4  5  1  0  0  0  0
  4 25  1  0  0  0  0
  4 26  1  0  0  0  0
  5  6  1  0  0  0  0
  5 27  1  0  0  0  0
  5 28  1  0  0  0  0
  6 11  1  0  0  0  0
  6  7  2  0  0  0  0
  7  8  1  0  0  0  0
  7 29  1  0  0  0  0
  8  9  2  0  0  0  0
  8 30  1  0  0  0  0
  9 10  1  0  0  0  0
  9 31  1  0  0  0  0
 10 11  2  0  0  0  0
 10 32  1  0  0  0  0
 12 23  1  0  0  0  0
 12 13  1  0  0  0  0
 13 14  1  0  0  0  0
 13 33  1  0  0  0  0
 13 34  1  0  0  0  0
 14 15  1  0  0  0  0
 14 35  1  0  0  0  0
 14 36  1  0  0  0  0
 15 16  1  0  0  0  0
 15 22  1  0  0  0  0
 15 37  1  0  0  0  0
 16 17  1  0  0  0  0
 16 18  1  0  0  0  0
 16 38  1  0  0  0  0
 17 39  1  0  0  0  0
 18 19  1  0  0  0  0
 18 20  1  0  0  0  0
 18 21  1  0  0  0  0
 22 23  1  0  0  0  0
 22 40  1  0  0  0  0
 22 41  1  0  0  0  0
 23 42  1  0  0  0  0
 23 43  1  0  0  0  0
M  END
> <s_m_source_file>
AV-unprocessed.smi

> <i_m_source_file_index>
2908

> <i_lp_mmshare_version>
43012

> <i_f3d_flags>
0

> <s_epik_input>
RkMoRikoRilbQ0BASF0oW09IXSlbQ0hdKFtDSDJdW0NIMl0xKVtDSDJdW0NIMl1OMUMoPU8pW05IXVtDSDJdW0NIMl1jMltjSF1bY0hdW2NIXVtjSF1uMg==

> <s_epik_cmdline>
J2VwaWtfcHl0aG9uJywgJy1waCcsICc3LjAnLCAnLXRuJywgJzgnLCAnLW1hJywgJzIwMCcsICctbWV0YWxfYmluZGluZycsICctaW1hZScsICc8aW5maWxlLm1hZT4nLCAnLW9tYWUnLCAnPG91dGZpbGUubWFlPic=

> <r_epik_Ionization_Penalty>
0.0451198

> <r_epik_Ionization_Penalty_Charging>
0

> <r_epik_Ionization_Penalty_Neutral>
0.0451198

> <r_epik_State_Penalty>
0.0381178

> <r_epik_Charging_Adjusted_Penalty>
0.0381178

> <i_epik_Tot_Q>
0

> <i_epik_Tot_abs_Q>
0

> <r_epik_Metal_State_Penalty>
0.0354176

> <b_epik_Metal_Only>
0

> <s_lp_Force_Field>
OPLS_2005

> <r_lp_Energy>
35.4637

> <b_lp_Chiralities_Consistent>
1

> <s_lp_Variant>
AV-unprocessed.smi:2908-1

> <Gold.Version>
5.8.1

> <Gold.Id.Protein>
6NUR|6NUR_protein|mol2

> <Gold.PLP.Fitness>
51.3074

> <Gold.PLP.PLP>
-48.7702

> <Gold.PLP.part.hbond>
-1.9877

> <Gold.PLP.part.metal>
0.0000

> <Gold.PLP.part.buried>
-5.6034

> <Gold.PLP.part.nonpolar>
-41.1299

> <Gold.PLP.part.repulsive>
0.1637

> <Gold.PLP.ligand.clash>
0.0003

> <Gold.PLP.ligand.torsion>
0.4362

> <Gold.PLP.Chemscore.Hbond>
1.0000

> <Gold.PLP.Chemscore.CHOScore>
0.0000

> <Gold.PLP.Chemscore.Metal>
0.0000

> <Gold.Chemscore.Hbonds>
donor molecule, donor type, donor heavy atom, donor atom, acceptor molecule, acceptor atom, score
      P1  H  6896  6907       L1     1  1.00

> <Gold.PLP.Chemscore.Internal.Correction>
0.4098

> <Gold.Rescore>
     Score         DG    S(hbond)    S(metal)    S(lipo)     H(rot)  DE(clash)    DE(int)     intcor
     11.61     -14.46       0.98        0.00      99.22       2.30       0.11       2.74       ----

> <Gold.Chemscore.Fitness>
11.6119

> <Gold.Chemscore.DG>
-14.4567

> <Gold.Chemscore.ZeroCoef>
-5.4800

> <Gold.Chemscore.Hbond>
0.9784

> <Gold.Chemscore.Metal>
0.0000

> <Gold.Chemscore.Lipo>
99.2234

> <Gold.Chemscore.Internal_Hbond>
0.0000

> <Gold.Chemscore.DEClash>
0.1051

> <Gold.Chemscore.DEInternal>
2.7398

> <Gold.Chemscore.Rot>
2.3048

> <Gold.Chemscore.Internal.Correction>
   9.000000E+99

> <Gold.Chemscore.Hbonds>
donor molecule, donor type, donor heavy atom, donor atom, acceptor molecule, acceptor atom, score
      P1  H  6896  6907       L1     1  0.95

> <Gold.Chemscore.Hbond.Weighted>
-3.2680

> <Gold.Chemscore.Metal.Weighted>
-0.0000

> <Gold.Chemscore.Lipo.Weighted>
-11.6091

> <Gold.Chemscore.Internal_Hbond.Weighted>
0.0000

> <Gold.Chemscore.DEClash.Weighted>
0.1051

> <Gold.Chemscore.DEInternal.Weighted>
2.7398

> <Gold.Chemscore.Rot.Weighted>
5.9004

> <Gold.Chemscore.Internal.Correction.Weighted>
   9.000000E+99

> <Gold.Protein.RotatedTorsions>
[ 6907 6896 6895 6894 ] final  -11.90 input  -60.11 | X-H torsion
[ 7974 7965 7964 7962 ] final  111.44 input  175.53 | X-H torsion
[ 8008 7997 7996 7995 ] final  -86.89 input   59.86 | X-H torsion
[ 10167 10162 10161 10158 ] final   39.67 input  -65.29 | X-H torsion
[ 10718 10713 10712 10709 ] final  176.31 input   66.30 | X-H torsion
[ 10763 10752 10751 10750 ] final   20.73 input  -60.55 | X-H torsion
[ 11005 11000 10999 10996 ] final   94.75 input  -57.11 | X-H torsion

> <Gold.Protein.ActiveResidues>
 VAL166  LYS551  ARG553  GLY616  TRP617  ASP618  TYR619  PRO620  LYS621  CYS622 
 ASP623  PHE694  ASN695  SER759  ASP760  ASP761  ALA762  ILE779  LEU786  VAL792 
 PHE793  MET794  SER795  GLU796  ALA797  LYS798  CYS799  TRP800  GLU811  SER814 

> <Gold.Protein.RotatedAtoms>
  151.3789  135.0936  159.9489 H   0  0  0  0  0  0  0  0  0  0  0  0  # atno 6907 bound_to 6896
  152.5114  133.9092  159.7489 H   0  0  0  0  0  0  0  0  0  0  0  0  # atno 6908 bound_to 6896
  150.9521  133.6483  159.2799 H   0  0  0  0  0  0  0  0  0  0  0  0  # atno 6909 bound_to 6896
  145.2421  139.2774  143.4112 H   0  0  0  0  0  0  0  0  0  0  0  0  # atno 7974 bound_to 7965
  154.6570  140.0573  157.0019 H   0  0  0  0  0  0  0  0  0  0  0  0  # atno 8008 bound_to 7997
  155.1286  140.3254  155.4461 H   0  0  0  0  0  0  0  0  0  0  0  0  # atno 8009 bound_to 7997
  156.2601  140.1985  156.6406 H   0  0  0  0  0  0  0  0  0  0  0  0  # atno 8010 bound_to 7997
  140.3817  144.1971  150.6130 H   0  0  0  0  0  0  0  0  0  0  0  0  # atno 10167 bound_to 10162
  156.9220  130.9943  151.3003 H   0  0  0  0  0  0  0  0  0  0  0  0  # atno 10718 bound_to 10713
  153.1053  135.6683  153.9597 H   0  0  0  0  0  0  0  0  0  0  0  0  # atno 10763 bound_to 10752
  153.9156  135.3020  155.3449 H   0  0  0  0  0  0  0  0  0  0  0  0  # atno 10764 bound_to 10752
  154.7474  135.5051  153.9305 H   0  0  0  0  0  0  0  0  0  0  0  0  # atno 10765 bound_to 10752
  139.8795  134.8862  156.3910 H   0  0  0  0  0  0  0  0  0  0  0  0  # atno 11005 bound_to 11000
  146.3325  140.2788  142.8609 LP  0  0  0  0  0  0  0  0  0  0  0  0  # atno 17320 bound_to 7965
  144.9579  140.8245  143.5531 LP  0  0  0  0  0  0  0  0  0  0  0  0  # atno 17321 bound_to 7965
  140.4931  143.2341  151.8790 LP  0  0  0  0  0  0  0  0  0  0  0  0  # atno 17342 bound_to 10162
  139.4795  144.5144  151.8888 LP  0  0  0  0  0  0  0  0  0  0  0  0  # atno 17343 bound_to 10162
  157.5902  130.8438  149.8647 LP  0  0  0  0  0  0  0  0  0  0  0  0  # atno 17370 bound_to 10713
  156.0486  130.3722  150.1255 LP  0  0  0  0  0  0  0  0  0  0  0  0  # atno 17371 bound_to 10713
  140.9333  133.7564  156.0052 LP  0  0  0  0  0  0  0  0  0  0  0  0  # atno 17394 bound_to 11000
  140.8305  134.3184  157.5350 LP  0  0  0  0  0  0  0  0  0  0  0  0  # atno 17395 bound_to 11000

$$$$
