AV-unprocessed.smi:47|AV-procd|sdf|430|dock2
  -GOLD-   2262016303D 1   1.00000     0.00000
 Structure written by MMmdl.
 31 33  0  0  0  0  0  0  0  0  3 V2000
  148.3699  136.4421  154.7171 O   0  0  0  0  0  0  0  0  0  0  0  0
  149.1098  137.6111  154.9996 C   0  0  2  0  0  0  0  0  0  0  0  0
  148.6945  138.7869  154.1175 C   0  0  0  0  0  0  0  0  0  0  0  0
  149.8688  139.6773  154.0811 N   0  3  0  0  0  0  0  0  0  0  0  0
  151.0709  138.8917  154.4342 C   0  0  1  0  0  0  0  0  0  0  0  0
  151.7340  139.4780  155.6648 C   0  0  0  0  0  0  0  0  0  0  0  0
  152.7372  138.8843  156.3388 N   0  0  0  0  0  0  0  0  0  0  0  0
  153.0147  139.6782  157.3551 N   0  5  0  0  0  0  0  0  0  0  0  0
  152.1807  140.7277  157.2960 C   0  0  0  0  0  0  0  0  0  0  0  0
  152.2106  141.8184  158.2917 C   0  0  0  0  0  0  0  0  0  0  0  0
  152.9351  141.6675  159.4970 C   0  0  0  0  0  0  0  0  0  0  0  0
  152.9730  142.6982  160.4560 C   0  0  0  0  0  0  0  0  0  0  0  0
  152.2834  143.9019  160.2232 C   0  0  0  0  0  0  0  0  0  0  0  0
  151.5576  144.0699  159.0301 C   0  0  0  0  0  0  0  0  0  0  0  0
  151.5228  143.0360  158.0742 C   0  0  0  0  0  0  0  0  0  0  0  0
  151.3670  140.6278  156.2545 N   0  0  0  0  0  0  0  0  0  0  0  0
  150.5901  137.4512  154.6649 C   0  0  0  0  0  0  0  0  0  0  0  0
  148.9936  137.8752  156.0520 H   0  0  0  0  0  0  0  0  0  0  0  0
  151.7819  138.9263  153.6081 H   0  0  0  0  0  0  0  0  0  0  0  0
  148.5881  136.1508  153.8445 H   0  0  0  0  0  0  0  0  0  0  0  0
  148.4941  138.4496  153.0994 H   0  0  0  0  0  0  0  0  0  0  0  0
  147.8069  139.3017  154.4859 H   0  0  0  0  0  0  0  0  0  0  0  0
  149.9680  140.1107  153.1748 H   0  0  0  0  0  0  0  0  0  0  0  0
  153.4714  140.7510  159.6946 H   0  0  0  0  0  0  0  0  0  0  0  0
  153.5317  142.5643  161.3705 H   0  0  0  0  0  0  0  0  0  0  0  0
  152.3113  144.6935  160.9573 H   0  0  0  0  0  0  0  0  0  0  0  0
  151.0267  144.9923  158.8462 H   0  0  0  0  0  0  0  0  0  0  0  0
  150.9591  143.1881  157.1655 H   0  0  0  0  0  0  0  0  0  0  0  0
  151.1564  136.9174  155.4294 H   0  0  0  0  0  0  0  0  0  0  0  0
  150.6906  136.8923  153.7330 H   0  0  0  0  0  0  0  0  0  0  0  0
  149.7609  140.3889  154.7910 H   0  0  0  0  0  0  0  0  0  0  0  0
  1  2  1  0  0  0  0
  1 20  1  0  0  0  0
  2 18  1  0  0  0  0
  2 17  1  0  0  0  0
  2  3  1  0  0  0  0
  3  4  1  0  0  0  0
  3 21  1  0  0  0  0
  3 22  1  0  0  0  0
  4  5  1  0  0  0  0
  4 23  1  0  0  0  0
  4 31  1  0  0  0  0
  5 19  1  0  0  0  0
  5  6  1  0  0  0  0
  5 17  1  0  0  0  0
  6 16  1  0  0  0  0
  6  7  2  0  0  0  0
  7  8  1  0  0  0  0
  8  9  1  0  0  0  0
  9 10  1  0  0  0  0
  9 16  2  0  0  0  0
 10 15  1  0  0  0  0
 10 11  2  0  0  0  0
 11 12  1  0  0  0  0
 11 24  1  0  0  0  0
 12 13  2  0  0  0  0
 12 25  1  0  0  0  0
 13 14  1  0  0  0  0
 13 26  1  0  0  0  0
 14 15  2  0  0  0  0
 14 27  1  0  0  0  0
 15 28  1  0  0  0  0
 17 29  1  0  0  0  0
 17 30  1  0  0  0  0
M  CHG  1   4   1
M  CHG  1   8  -1
M  END
> <s_m_source_file>
AV-unprocessed.smi

> <i_m_source_file_index>
47

> <i_lp_mmshare_version>
43012

> <i_f3d_flags>
0

> <s_epik_input>
W09IXVtDQEhdMVtDSDJdW05IXVtDQEBIXShbQ0gyXTEpYzJuW25IXWMobjIpLWMzW2NIXVtjSF1bY0hdW2NIXVtjSF0z

> <s_epik_cmdline>
J2VwaWtfcHl0aG9uJywgJy1waCcsICc3LjAnLCAnLXRuJywgJzgnLCAnLW1hJywgJzIwMCcsICctbWV0YWxfYmluZGluZycsICctaW1hZScsICc8aW5maWxlLm1hZT4nLCAnLW9tYWUnLCAnPG91dGZpbGUubWFlPic=

> <r_lp_tautomer_probability>
1

> <r_epik_Ionization_Penalty>
1.09593

> <r_epik_Ionization_Penalty_Charging>
1.09593

> <r_epik_Ionization_Penalty_Neutral>
3.91329e-08

> <r_epik_State_Penalty>
0.690005

> <r_epik_Charging_Adjusted_Penalty>
1.78594

> <i_epik_Tot_Q>
0

> <i_epik_Tot_abs_Q>
2

> <r_epik_Metal_State_Penalty>
0.213596

> <b_epik_Metal_Only>
0

> <s_lp_Force_Field>
OPLS_2005

> <r_lp_Energy>
20.8085

> <b_lp_Chiralities_Consistent>
1

> <s_lp_Variant>
AV-unprocessed.smi:47-8

> <Gold.Version>
5.8.1

> <Gold.Id.Protein>
6NUR|6NUR_protein|mol2

> <Gold.PLP.Fitness>
46.2757

> <Gold.PLP.PLP>
-34.7727

> <Gold.PLP.part.hbond>
-3.9823

> <Gold.PLP.part.metal>
0.0000

> <Gold.PLP.part.buried>
-4.2471

> <Gold.PLP.part.nonpolar>
-26.0560

> <Gold.PLP.part.repulsive>
0.3969

> <Gold.PLP.ligand.clash>
0.0000

> <Gold.PLP.ligand.torsion>
0.1814

> <Gold.PLP.Chemscore.Hbond>
3.9516

> <Gold.PLP.Chemscore.CHOScore>
0.0000

> <Gold.PLP.Chemscore.Metal>
0.0000

> <Gold.Chemscore.Hbonds>
donor molecule, donor type, donor heavy atom, donor atom, acceptor molecule, acceptor atom, score
      L1  H     1    20       P1  7948  1.00
      L1  H     4    23       P1  7957  0.95
      P1  H  7997  8010       L1     8  2.00

> <Gold.PLP.Chemscore.Internal.Correction>
0.0110

> <Gold.Rescore>
     Score         DG    S(hbond)    S(metal)    S(lipo)     H(rot)  DE(clash)    DE(int)     intcor
     19.80     -20.18       2.39        0.00      89.92       1.48       0.23       0.15       ----

> <Gold.Chemscore.Fitness>
19.7970

> <Gold.Chemscore.DG>
-20.1768

> <Gold.Chemscore.ZeroCoef>
-5.4800

> <Gold.Chemscore.Hbond>
2.3851

> <Gold.Chemscore.Metal>
0.0000

> <Gold.Chemscore.Lipo>
89.9202

> <Gold.Chemscore.Internal_Hbond>
0.0000

> <Gold.Chemscore.DEClash>
0.2291

> <Gold.Chemscore.DEInternal>
0.1507

> <Gold.Chemscore.Rot>
1.4804

> <Gold.Chemscore.Internal.Correction>
   9.000000E+99

> <Gold.Chemscore.Hbonds>
donor molecule, donor type, donor heavy atom, donor atom, acceptor molecule, acceptor atom, score
      L1  H     1    20       P1  7948  0.95
      L1  H     4    23       P1  7957  0.85
      P1  H  7997  8010       L1     8  0.21

> <Gold.Chemscore.Hbond.Weighted>
-7.9661

> <Gold.Chemscore.Metal.Weighted>
-0.0000

> <Gold.Chemscore.Lipo.Weighted>
-10.5207

> <Gold.Chemscore.Internal_Hbond.Weighted>
0.0000

> <Gold.Chemscore.DEClash.Weighted>
0.2291

> <Gold.Chemscore.DEInternal.Weighted>
0.1507

> <Gold.Chemscore.Rot.Weighted>
3.7899

> <Gold.Chemscore.Internal.Correction.Weighted>
   9.000000E+99

> <Gold.Protein.RotatedTorsions>
[ 6907 6896 6895 6894 ] final   99.15 input  -60.11 | X-H torsion
[ 7974 7965 7964 7962 ] final  -81.52 input  175.53 | X-H torsion
[ 8008 7997 7996 7995 ] final   34.45 input   59.86 | X-H torsion
[ 10167 10162 10161 10158 ] final  179.40 input  -65.29 | X-H torsion
[ 10718 10713 10712 10709 ] final  -10.55 input   66.30 | X-H torsion
[ 10763 10752 10751 10750 ] final  -70.60 input  -60.55 | X-H torsion
[ 11005 11000 10999 10996 ] final -170.16 input  -57.11 | X-H torsion

> <Gold.Protein.ActiveResidues>
 VAL166  LYS551  ARG553  GLY616  TRP617  ASP618  TYR619  PRO620  LYS621  CYS622 
 ASP623  PHE694  ASN695  SER759  ASP760  ASP761  ALA762  ILE779  LEU786  VAL792 
 PHE793  MET794  SER795  GLU796  ALA797  LYS798  CYS799  TRP800  GLU811  SER814 

> <Gold.Protein.RotatedAtoms>
  152.5397  134.0472  159.8093 H   0  0  0  0  0  0  0  0  0  0  0  0  # atno 6907 bound_to 6896
  151.0619  133.5530  159.2641 H   0  0  0  0  0  0  0  0  0  0  0  0  # atno 6908 bound_to 6896
  151.2425  135.0602  159.9084 H   0  0  0  0  0  0  0  0  0  0  0  0  # atno 6909 bound_to 6896
  145.5456  140.9504  143.1527 H   0  0  0  0  0  0  0  0  0  0  0  0  # atno 7974 bound_to 7965
  155.1550  140.3278  155.4423 H   0  0  0  0  0  0  0  0  0  0  0  0  # atno 8008 bound_to 7997
  156.2562  140.1970  156.6610 H   0  0  0  0  0  0  0  0  0  0  0  0  # atno 8009 bound_to 7997
  154.6446  140.0566  156.9872 H   0  0  0  0  0  0  0  0  0  0  0  0  # atno 8010 bound_to 7997
  139.5335  144.2566  152.0741 H   0  0  0  0  0  0  0  0  0  0  0  0  # atno 10167 bound_to 10162
  156.6719  130.5012  149.5997 H   0  0  0  0  0  0  0  0  0  0  0  0  # atno 10718 bound_to 10713
  154.4199  135.5989  153.6003 H   0  0  0  0  0  0  0  0  0  0  0  0  # atno 10763 bound_to 10752
  152.9793  135.5949  154.3968 H   0  0  0  0  0  0  0  0  0  0  0  0  # atno 10764 bound_to 10752
  154.3792  135.2841  155.2200 H   0  0  0  0  0  0  0  0  0  0  0  0  # atno 10765 bound_to 10752
  140.5226  134.5694  157.5052 H   0  0  0  0  0  0  0  0  0  0  0  0  # atno 11005 bound_to 11000
  144.7555  139.7086  143.7256 LP  0  0  0  0  0  0  0  0  0  0  0  0  # atno 17320 bound_to 7965
  146.1951  139.5214  142.9779 LP  0  0  0  0  0  0  0  0  0  0  0  0  # atno 17321 bound_to 7965
  140.2033  144.4636  150.6421 LP  0  0  0  0  0  0  0  0  0  0  0  0  # atno 17342 bound_to 10162
  140.6527  143.2229  151.6040 LP  0  0  0  0  0  0  0  0  0  0  0  0  # atno 17343 bound_to 10162
  156.1932  130.6573  151.1085 LP  0  0  0  0  0  0  0  0  0  0  0  0  # atno 17370 bound_to 10713
  157.7074  131.0750  150.6620 LP  0  0  0  0  0  0  0  0  0  0  0  0  # atno 17371 bound_to 10713
  139.9597  134.7473  156.0263 LP  0  0  0  0  0  0  0  0  0  0  0  0  # atno 17394 bound_to 11000
  141.1326  133.6583  156.3505 LP  0  0  0  0  0  0  0  0  0  0  0  0  # atno 17395 bound_to 11000

$$$$
