AV-unprocessed.smi:1293|AV-procd|sdf|5399|dock7
  -GOLD-   22720 4553D 1   1.00000     0.00000
 Structure written by MMmdl.
 39 40  0  0  0  0  0  0  0  0  1 V2000
  145.1842  143.9231  154.3524 C   0  0  0  0  0  0  0  0  0  0  0  0
  146.0411  143.0490  153.6394 O   0  0  0  0  0  0  0  0  0  0  0  0
  146.6061  142.0453  154.4671 C   0  0  0  0  0  0  0  0  0  0  0  0
  147.5912  141.1981  153.6453 C   0  0  0  0  0  0  0  0  0  0  0  0
  148.7505  140.7781  154.4461 N   0  0  0  0  0  0  0  0  0  0  0  0
  149.3891  141.7711  155.2149 C   0  0  0  0  0  0  0  0  0  0  0  0
  150.4606  141.5074  155.9950 C   0  0  0  0  0  0  0  0  0  0  0  0
  151.1365  142.4390  156.7978 N   0  0  0  0  0  0  0  0  0  0  0  0
  151.1513  142.5687  158.1400 C   0  0  0  0  0  0  0  0  0  0  0  0
  150.5171  141.8672  158.9280 O   0  0  0  0  0  0  0  0  0  0  0  0
  152.0408  143.7013  158.6816 C   0  0  0  0  0  0  0  0  0  0  0  0
  153.1666  143.1587  159.5829 C   0  0  0  0  0  0  0  0  0  0  0  0
  152.6631  143.3312  161.0149 C   0  0  0  0  0  0  0  0  0  0  0  0
  151.8774  144.6387  160.9691 C   0  0  0  0  0  0  0  0  0  0  0  0
  151.2480  144.6884  159.5706 C   0  0  0  0  0  0  0  0  0  0  0  0
  150.9330  140.1395  156.0130 C   0  0  0  0  0  0  0  0  0  0  0  0
  150.3244  139.1805  155.2890 C   0  0  0  0  0  0  0  0  0  0  0  0
  149.1607  139.4751  154.4502 C   0  0  0  0  0  0  0  0  0  0  0  0
  148.5898  138.6032  153.7944 O   0  0  0  0  0  0  0  0  0  0  0  0
  144.7761  144.6708  153.6721 H   0  0  0  0  0  0  0  0  0  0  0  0
  145.7242  144.4460  155.1430 H   0  0  0  0  0  0  0  0  0  0  0  0
  144.3490  143.3808  154.7971 H   0  0  0  0  0  0  0  0  0  0  0  0
  147.1075  142.4942  155.3261 H   0  0  0  0  0  0  0  0  0  0  0  0
  145.8120  141.4055  154.8545 H   0  0  0  0  0  0  0  0  0  0  0  0
  147.0750  140.3235  153.2457 H   0  0  0  0  0  0  0  0  0  0  0  0
  147.9124  141.7576  152.7653 H   0  0  0  0  0  0  0  0  0  0  0  0
  148.9248  142.7397  155.1235 H   0  0  0  0  0  0  0  0  0  0  0  0
  151.6922  143.1088  156.2861 H   0  0  0  0  0  0  0  0  0  0  0  0
  152.4853  144.2367  157.8404 H   0  0  0  0  0  0  0  0  0  0  0  0
  153.4350  142.1229  159.3690 H   0  0  0  0  0  0  0  0  0  0  0  0
  154.0668  143.7572  159.4377 H   0  0  0  0  0  0  0  0  0  0  0  0
  151.9980  142.5075  161.2776 H   0  0  0  0  0  0  0  0  0  0  0  0
  153.4723  143.3524  161.7452 H   0  0  0  0  0  0  0  0  0  0  0  0
  151.1348  144.7064  161.7645 H   0  0  0  0  0  0  0  0  0  0  0  0
  152.5642  145.4776  161.0883 H   0  0  0  0  0  0  0  0  0  0  0  0
  151.2888  145.7009  159.1674 H   0  0  0  0  0  0  0  0  0  0  0  0
  150.1911  144.4226  159.6325 H   0  0  0  0  0  0  0  0  0  0  0  0
  151.7890  139.8769  156.6177 H   0  0  0  0  0  0  0  0  0  0  0  0
  150.7022  138.1693  155.3262 H   0  0  0  0  0  0  0  0  0  0  0  0
  1  2  1  0  0  0  0
  1 20  1  0  0  0  0
  1 21  1  0  0  0  0
  1 22  1  0  0  0  0
  2  3  1  0  0  0  0
  3  4  1  0  0  0  0
  3 23  1  0  0  0  0
  3 24  1  0  0  0  0
  4  5  1  0  0  0  0
  4 25  1  0  0  0  0
  4 26  1  0  0  0  0
  5 18  1  0  0  0  0
  5  6  1  0  0  0  0
  6  7  2  0  0  0  0
  6 27  1  0  0  0  0
  7  8  1  0  0  0  0
  7 16  1  0  0  0  0
  8  9  1  0  0  0  0
  8 28  1  0  0  0  0
  9 10  2  0  0  0  0
  9 11  1  0  0  0  0
 11 15  1  0  0  0  0
 11 12  1  0  0  0  0
 11 29  1  0  0  0  0
 12 13  1  0  0  0  0
 12 30  1  0  0  0  0
 12 31  1  0  0  0  0
 13 14  1  0  0  0  0
 13 32  1  0  0  0  0
 13 33  1  0  0  0  0
 14 15  1  0  0  0  0
 14 34  1  0  0  0  0
 14 35  1  0  0  0  0
 15 36  1  0  0  0  0
 15 37  1  0  0  0  0
 16 17  2  0  0  0  0
 16 38  1  0  0  0  0
 17 18  1  0  0  0  0
 17 39  1  0  0  0  0
 18 19  2  0  0  0  0
M  END
> <s_m_source_file>
AV-unprocessed.smi

> <i_m_source_file_index>
1293

> <i_lp_mmshare_version>
43012

> <i_f3d_flags>
0

> <s_epik_input>
W0NIM11PW0NIMl1bQ0gyXW4xW2NIXWMoW2NIXVtjSF1jMT1PKVtOSF1DKD1PKVtDSF0yW0NIMl1bQ0gyXVtDSDJdW0NIMl0y

> <s_epik_cmdline>
J2VwaWtfcHl0aG9uJywgJy1waCcsICc3LjAnLCAnLXRuJywgJzgnLCAnLW1hJywgJzIwMCcsICctbWV0YWxfYmluZGluZycsICctaW1hZScsICc8aW5maWxlLm1hZT4nLCAnLW9tYWUnLCAnPG91dGZpbGUubWFlPic=

> <r_lp_tautomer_probability>
1

> <r_epik_Ionization_Penalty>
2.42474e-06

> <r_epik_Ionization_Penalty_Charging>
2.30353e-06

> <r_epik_Ionization_Penalty_Neutral>
1.21208e-07

> <r_epik_State_Penalty>
-0

> <r_epik_Charging_Adjusted_Penalty>
2.30353e-06

> <i_epik_Tot_Q>
0

> <i_epik_Tot_abs_Q>
0

> <r_epik_Metal_State_Penalty>
-0

> <b_epik_Metal_Only>
0

> <s_lp_Force_Field>
OPLS_2005

> <r_lp_Energy>
36.4395

> <b_lp_Chiralities_Consistent>
1

> <s_lp_Variant>
AV-unprocessed.smi:1293-1

> <Gold.Version>
5.8.1

> <Gold.Id.Protein>
6NUR|6NUR_protein|mol2

> <Gold.PLP.Fitness>
44.7873

> <Gold.PLP.PLP>
-43.9013

> <Gold.PLP.part.hbond>
-0.2703

> <Gold.PLP.part.metal>
0.0000

> <Gold.PLP.part.buried>
-5.0642

> <Gold.PLP.part.nonpolar>
-41.4503

> <Gold.PLP.part.repulsive>
2.3301

> <Gold.PLP.ligand.clash>
0.0000

> <Gold.PLP.ligand.torsion>
1.0686

> <Gold.PLP.Chemscore.Hbond>
0.0000

> <Gold.PLP.Chemscore.CHOScore>
1.0000

> <Gold.PLP.Chemscore.Metal>
0.0000

> <Gold.Chemscore.Hbonds>
donor molecule, donor type, donor heavy atom, donor atom, acceptor molecule, acceptor atom, score
      L1  C     6    27       P1  8028  1.00

> <Gold.PLP.Chemscore.Internal.Correction>
0.0231

> <Gold.Rescore>
     Score         DG    S(hbond)    S(metal)    S(lipo)     H(rot)  DE(clash)    DE(int)     intcor
     12.57     -13.80       0.00        0.00     104.60       1.53       0.16       1.06       ----

> <Gold.Chemscore.Fitness>
12.5714

> <Gold.Chemscore.DG>
-13.7977

> <Gold.Chemscore.ZeroCoef>
-5.4800

> <Gold.Chemscore.Hbond>
0.0000

> <Gold.Chemscore.Metal>
0.0000

> <Gold.Chemscore.Lipo>
104.6033

> <Gold.Chemscore.Internal_Hbond>
0.0000

> <Gold.Chemscore.DEClash>
0.1620

> <Gold.Chemscore.DEInternal>
1.0643

> <Gold.Chemscore.Rot>
1.5316

> <Gold.Chemscore.Internal.Correction>
   9.000000E+99

> <Gold.Chemscore.Hbond.Weighted>
-0.0000

> <Gold.Chemscore.Metal.Weighted>
-0.0000

> <Gold.Chemscore.Lipo.Weighted>
-12.2386

> <Gold.Chemscore.Internal_Hbond.Weighted>
0.0000

> <Gold.Chemscore.DEClash.Weighted>
0.1620

> <Gold.Chemscore.DEInternal.Weighted>
1.0643

> <Gold.Chemscore.Rot.Weighted>
3.9209

> <Gold.Chemscore.Internal.Correction.Weighted>
   9.000000E+99

> <Gold.Protein.RotatedTorsions>
[ 6907 6896 6895 6894 ] final  103.92 input  -60.11 | X-H torsion
[ 7974 7965 7964 7962 ] final  -53.64 input  175.53 | X-H torsion
[ 8008 7997 7996 7995 ] final  -85.00 input   59.86 | X-H torsion
[ 10167 10162 10161 10158 ] final  -54.93 input  -65.29 | X-H torsion
[ 10718 10713 10712 10709 ] final  -71.18 input   66.30 | X-H torsion
[ 10763 10752 10751 10750 ] final  -96.30 input  -60.55 | X-H torsion
[ 11005 11000 10999 10996 ] final -115.89 input  -57.11 | X-H torsion

> <Gold.Protein.ActiveResidues>
 VAL166  LYS551  ARG553  GLY616  TRP617  ASP618  TYR619  PRO620  LYS621  CYS622 
 ASP623  PHE694  ASN695  SER759  ASP760  ASP761  ALA762  ILE779  LEU786  VAL792 
 PHE793  MET794  SER795  GLU796  ALA797  LYS798  CYS799  TRP800  GLU811  SER814 

> <Gold.Protein.RotatedAtoms>
  152.5281  133.9754  159.7781 H   0  0  0  0  0  0  0  0  0  0  0  0  # atno 6907 bound_to 6896
  151.0018  133.6041  159.2701 H   0  0  0  0  0  0  0  0  0  0  0  0  # atno 6908 bound_to 6896
  151.3147  135.0809  159.9338 H   0  0  0  0  0  0  0  0  0  0  0  0  # atno 6909 bound_to 6896
  145.8945  140.8044  142.9774 H   0  0  0  0  0  0  0  0  0  0  0  0  # atno 7974 bound_to 7965
  154.6359  140.0597  156.9788 H   0  0  0  0  0  0  0  0  0  0  0  0  # atno 8008 bound_to 7997
  155.1592  140.3281  155.4396 H   0  0  0  0  0  0  0  0  0  0  0  0  # atno 8009 bound_to 7997
  156.2507  140.1933  156.6700 H   0  0  0  0  0  0  0  0  0  0  0  0  # atno 8010 bound_to 7997
  140.6403  143.2504  151.5007 H   0  0  0  0  0  0  0  0  0  0  0  0  # atno 10167 bound_to 10162
  156.0374  130.4346  150.2405 H   0  0  0  0  0  0  0  0  0  0  0  0  # atno 10718 bound_to 10713
  154.7227  135.5088  153.8837 H   0  0  0  0  0  0  0  0  0  0  0  0  # atno 10763 bound_to 10752
  153.0877  135.6650  153.9925 H   0  0  0  0  0  0  0  0  0  0  0  0  # atno 10764 bound_to 10752
  153.9745  135.3035  155.3404 H   0  0  0  0  0  0  0  0  0  0  0  0  # atno 10765 bound_to 10752
  141.0458  133.9765  157.2920 H   0  0  0  0  0  0  0  0  0  0  0  0  # atno 11005 bound_to 11000
  144.6732  140.1581  143.7424 LP  0  0  0  0  0  0  0  0  0  0  0  0  # atno 17320 bound_to 7965
  145.8867  139.2353  143.1573 LP  0  0  0  0  0  0  0  0  0  0  0  0  # atno 17321 bound_to 7965
  139.5612  144.2151  152.1694 LP  0  0  0  0  0  0  0  0  0  0  0  0  # atno 17342 bound_to 10162
  140.1420  144.5194  150.6738 LP  0  0  0  0  0  0  0  0  0  0  0  0  # atno 17343 bound_to 10162
  157.0503  131.0061  151.3256 LP  0  0  0  0  0  0  0  0  0  0  0  0  # atno 17370 bound_to 10713
  157.5145  130.7959  149.7741 LP  0  0  0  0  0  0  0  0  0  0  0  0  # atno 17371 bound_to 10713
  139.9311  135.0200  156.8402 LP  0  0  0  0  0  0  0  0  0  0  0  0  # atno 17394 bound_to 11000
  140.6149  134.0048  155.7593 LP  0  0  0  0  0  0  0  0  0  0  0  0  # atno 17395 bound_to 11000

$$$$
