AV-unprocessed.smi:594|AV-procd|sdf|3016|dock4
  -GOLD-   2262023523D 1   1.00000     0.00000
 Structure written by MMmdl.
 40 41  0  0  0  0  0  0  0  0  3 V2000
  152.8935  142.0390  161.6252 C   0  0  0  0  0  0  0  0  0  0  0  0
  152.8249  143.2531  160.6825 C   0  0  2  0  0  0  0  0  0  0  0  0
  151.5902  144.1299  160.9775 C   0  0  0  0  0  0  0  0  0  0  0  0
  151.5551  145.3774  160.0800 C   0  0  0  0  0  0  0  0  0  0  0  0
  151.6090  144.9977  158.5927 C   0  0  0  0  0  0  0  0  0  0  0  0
  152.8352  144.1203  158.2854 C   0  0  0  0  0  0  0  0  0  0  0  0
  152.8973  142.8672  159.1821 C   0  0  2  0  0  0  0  0  0  0  0  0
  151.8320  141.9345  158.8076 N   0  0  0  0  0  0  0  0  0  0  0  0
  151.9968  140.6714  158.3853 C   0  0  0  0  0  0  0  0  0  0  0  0
  153.0999  140.1378  158.2583 O   0  0  0  0  0  0  0  0  0  0  0  0
  150.7044  139.8997  158.0831 C   0  0  0  0  0  0  0  0  0  0  0  0
  150.8315  138.9633  156.9537 N   0  0  0  0  0  0  0  0  0  0  0  0
  150.5675  137.6055  157.2208 C   0  0  0  0  0  0  0  0  0  0  0  0
  150.6656  136.6564  156.2696 C   0  0  0  0  0  0  0  0  0  0  0  0
  150.4015  135.2653  156.5650 N   0  3  0  0  0  0  0  0  0  0  0  0
  150.5924  134.4306  155.6863 O   0  0  0  0  0  0  0  0  0  0  0  0
  149.9944  134.9607  157.6825 O   0  5  0  0  0  0  0  0  0  0  0  0
  151.0534  137.0759  154.9366 C   0  0  0  0  0  0  0  0  0  0  0  0
  151.3117  138.3727  154.6759 C   0  0  0  0  0  0  0  0  0  0  0  0
  151.2125  139.4027  155.7154 C   0  0  0  0  0  0  0  0  0  0  0  0
  151.4575  140.5872  155.4863 O   0  0  0  0  0  0  0  0  0  0  0  0
  152.0110  141.4053  161.5344 H   0  0  0  0  0  0  0  0  0  0  0  0
  152.9625  142.3565  162.6658 H   0  0  0  0  0  0  0  0  0  0  0  0
  153.7686  141.4251  161.4102 H   0  0  0  0  0  0  0  0  0  0  0  0
  153.7065  143.8598  160.8953 H   0  0  0  0  0  0  0  0  0  0  0  0
  150.6777  143.5500  160.8335 H   0  0  0  0  0  0  0  0  0  0  0  0
  151.5942  144.4375  162.0239 H   0  0  0  0  0  0  0  0  0  0  0  0
  150.6537  145.9563  160.2830 H   0  0  0  0  0  0  0  0  0  0  0  0
  152.3988  146.0249  160.3219 H   0  0  0  0  0  0  0  0  0  0  0  0
  150.6961  144.4686  158.3167 H   0  0  0  0  0  0  0  0  0  0  0  0
  151.6374  145.8997  157.9809 H   0  0  0  0  0  0  0  0  0  0  0  0
  152.8347  143.8322  157.2335 H   0  0  0  0  0  0  0  0  0  0  0  0
  153.7396  144.7112  158.4354 H   0  0  0  0  0  0  0  0  0  0  0  0
  153.8650  142.3952  159.0030 H   0  0  0  0  0  0  0  0  0  0  0  0
  150.8871  142.2820  158.8840 H   0  0  0  0  0  0  0  0  0  0  0  0
  150.4093  139.3604  158.9847 H   0  0  0  0  0  0  0  0  0  0  0  0
  149.8985  140.6138  157.9042 H   0  0  0  0  0  0  0  0  0  0  0  0
  150.2949  137.3963  158.2456 H   0  0  0  0  0  0  0  0  0  0  0  0
  151.1395  136.3536  154.1380 H   0  0  0  0  0  0  0  0  0  0  0  0
  151.5993  138.6627  153.6758 H   0  0  0  0  0  0  0  0  0  0  0  0
  1  2  1  0  0  0  0
  1 22  1  0  0  0  0
  1 23  1  0  0  0  0
  1 24  1  0  0  0  0
  2  7  1  0  0  0  0
  2  3  1  0  0  0  0
  2 25  1  0  0  0  0
  3  4  1  0  0  0  0
  3 26  1  0  0  0  0
  3 27  1  0  0  0  0
  4  5  1  0  0  0  0
  4 28  1  0  0  0  0
  4 29  1  0  0  0  0
  5  6  1  0  0  0  0
  5 30  1  0  0  0  0
  5 31  1  0  0  0  0
  6  7  1  0  0  0  0
  6 32  1  0  0  0  0
  6 33  1  0  0  0  0
  7  8  1  0  0  0  0
  7 34  1  0  0  0  0
  8  9  1  0  0  0  0
  8 35  1  0  0  0  0
  9 10  2  0  0  0  0
  9 11  1  0  0  0  0
 11 12  1  0  0  0  0
 11 36  1  0  0  0  0
 11 37  1  0  0  0  0
 12 20  1  0  0  0  0
 12 13  1  0  0  0  0
 13 14  2  0  0  0  0
 13 38  1  0  0  0  0
 14 15  1  0  0  0  0
 14 18  1  0  0  0  0
 15 16  2  0  0  0  0
 15 17  1  0  0  0  0
 18 19  2  0  0  0  0
 18 39  1  0  0  0  0
 19 20  1  0  0  0  0
 19 40  1  0  0  0  0
 20 21  2  0  0  0  0
M  CHG  1  15   1
M  CHG  1  17  -1
M  END
> <s_m_source_file>
AV-unprocessed.smi

> <i_m_source_file_index>
594

> <i_lp_mmshare_version>
43012

> <i_f3d_flags>
0

> <s_epik_input>
W0NIM11bQ0BASF0xW0NIMl1bQ0gyXVtDSDJdW0NIMl1bQ0BIXTFbTkhdQyg9TylbQ0gyXW4yW2NIXWMoW04rXSg9TylbTy1dKVtjSF1bY0hdYzI9Tw==

> <s_epik_cmdline>
J2VwaWtfcHl0aG9uJywgJy1waCcsICc3LjAnLCAnLXRuJywgJzgnLCAnLW1hJywgJzIwMCcsICctbWV0YWxfYmluZGluZycsICctaW1hZScsICc8aW5maWxlLm1hZT4nLCAnLW9tYWUnLCAnPG91dGZpbGUubWFlPic=

> <r_lp_tautomer_probability>
1

> <r_epik_Ionization_Penalty>
1.91305e-08

> <r_epik_Ionization_Penalty_Charging>
8.35811e-11

> <r_epik_Ionization_Penalty_Neutral>
1.90469e-08

> <r_epik_State_Penalty>
-0

> <r_epik_Charging_Adjusted_Penalty>
8.35811e-11

> <i_epik_Tot_Q>
0

> <i_epik_Tot_abs_Q>
2

> <r_epik_Metal_State_Penalty>
-0

> <b_epik_Metal_Only>
0

> <s_lp_Force_Field>
OPLS_2005

> <r_lp_Energy>
20.6939

> <b_lp_Chiralities_Consistent>
1

> <s_lp_Variant>
AV-unprocessed.smi:594-3

> <Gold.Version>
5.8.1

> <Gold.Id.Protein>
6NUR|6NUR_protein|mol2

> <Gold.PLP.Fitness>
51.7840

> <Gold.PLP.PLP>
-44.7184

> <Gold.PLP.part.hbond>
-3.0000

> <Gold.PLP.part.metal>
0.0000

> <Gold.PLP.part.buried>
-6.0828

> <Gold.PLP.part.nonpolar>
-36.5153

> <Gold.PLP.part.repulsive>
0.1661

> <Gold.PLP.ligand.clash>
0.0000

> <Gold.PLP.ligand.torsion>
0.3681

> <Gold.PLP.Chemscore.Hbond>
2.5920

> <Gold.PLP.Chemscore.CHOScore>
0.0000

> <Gold.PLP.Chemscore.Metal>
0.0000

> <Gold.Chemscore.Hbonds>
donor molecule, donor type, donor heavy atom, donor atom, acceptor molecule, acceptor atom, score
      P1  H  6896  6908       L1    17  0.82
      P1  H  7989  7998       L1    21  0.80
      P1  H  7997  8008       L1    10  0.99

> <Gold.PLP.Chemscore.Internal.Correction>
0.0258

> <Gold.Rescore>
     Score         DG    S(hbond)    S(metal)    S(lipo)     H(rot)  DE(clash)    DE(int)     intcor
     21.90     -23.51       2.78        0.00     108.77       1.55       0.05       1.57       ----

> <Gold.Chemscore.Fitness>
21.8950

> <Gold.Chemscore.DG>
-23.5084

> <Gold.Chemscore.ZeroCoef>
-5.4800

> <Gold.Chemscore.Hbond>
2.7761

> <Gold.Chemscore.Metal>
0.0000

> <Gold.Chemscore.Lipo>
108.7654

> <Gold.Chemscore.Internal_Hbond>
0.0000

> <Gold.Chemscore.DEClash>
0.0476

> <Gold.Chemscore.DEInternal>
1.5658

> <Gold.Chemscore.Rot>
1.5505

> <Gold.Chemscore.Internal.Correction>
   9.000000E+99

> <Gold.Chemscore.Hbonds>
donor molecule, donor type, donor heavy atom, donor atom, acceptor molecule, acceptor atom, score
      P1  H  6896  6908       L1    17  0.80
      P1  H  7989  7998       L1    21  0.57
      P1  H  7997  8008       L1    10  0.94

> <Gold.Chemscore.Hbond.Weighted>
-9.2720

> <Gold.Chemscore.Metal.Weighted>
-0.0000

> <Gold.Chemscore.Lipo.Weighted>
-12.7255

> <Gold.Chemscore.Internal_Hbond.Weighted>
0.0000

> <Gold.Chemscore.DEClash.Weighted>
0.0476

> <Gold.Chemscore.DEInternal.Weighted>
1.5658

> <Gold.Chemscore.Rot.Weighted>
3.9692

> <Gold.Chemscore.Internal.Correction.Weighted>
   9.000000E+99

> <Gold.Protein.RotatedTorsions>
[ 6907 6896 6895 6894 ] final  143.48 input  -60.11 | X-H torsion
[ 7974 7965 7964 7962 ] final   81.99 input  175.53 | X-H torsion
[ 8008 7997 7996 7995 ] final  -80.67 input   59.86 | X-H torsion
[ 10167 10162 10161 10158 ] final   71.18 input  -65.29 | X-H torsion
[ 10718 10713 10712 10709 ] final  102.51 input   66.30 | X-H torsion
[ 10763 10752 10751 10750 ] final  -61.17 input  -60.55 | X-H torsion
[ 11005 11000 10999 10996 ] final   55.88 input  -57.11 | X-H torsion

> <Gold.Protein.ActiveResidues>
 VAL166  LYS551  ARG553  GLY616  TRP617  ASP618  TYR619  PRO620  LYS621  CYS622 
 ASP623  PHE694  ASN695  SER759  ASP760  ASP761  ALA762  ILE779  LEU786  VAL792 
 PHE793  MET794  SER795  GLU796  ALA797  LYS798  CYS799  TRP800  GLU811  SER814 

> <Gold.Protein.RotatedAtoms>
  152.2057  133.4874  159.5082 H   0  0  0  0  0  0  0  0  0  0  0  0  # atno 6907 bound_to 6896
  150.6979  134.1532  159.4157 H   0  0  0  0  0  0  0  0  0  0  0  0  # atno 6908 bound_to 6896
  151.9450  135.0195  160.0589 H   0  0  0  0  0  0  0  0  0  0  0  0  # atno 6909 bound_to 6896
  145.6309  139.2405  143.2085 H   0  0  0  0  0  0  0  0  0  0  0  0  # atno 7974 bound_to 7965
  154.5906  140.0659  156.9233 H   0  0  0  0  0  0  0  0  0  0  0  0  # atno 8008 bound_to 7997
  155.2302  140.3337  155.4286 H   0  0  0  0  0  0  0  0  0  0  0  0  # atno 8009 bound_to 7997
  156.2253  140.1816  156.7362 H   0  0  0  0  0  0  0  0  0  0  0  0  # atno 8010 bound_to 7997
  140.0489  144.5328  150.7378 H   0  0  0  0  0  0  0  0  0  0  0  0  # atno 10167 bound_to 10162
  157.6800  131.0755  150.5415 H   0  0  0  0  0  0  0  0  0  0  0  0  # atno 10718 bound_to 10713
  154.2804  135.6273  153.5345 H   0  0  0  0  0  0  0  0  0  0  0  0  # atno 10763 bound_to 10752
  152.9866  135.5631  154.5501 H   0  0  0  0  0  0  0  0  0  0  0  0  # atno 10764 bound_to 10752
  154.5091  135.2876  155.1333 H   0  0  0  0  0  0  0  0  0  0  0  0  # atno 10765 bound_to 10752
  140.0573  134.5652  155.9193 H   0  0  0  0  0  0  0  0  0  0  0  0  # atno 11005 bound_to 11000
  146.1357  140.7126  142.9391 LP  0  0  0  0  0  0  0  0  0  0  0  0  # atno 17320 bound_to 7965
  144.7194  140.4321  143.7020 LP  0  0  0  0  0  0  0  0  0  0  0  0  # atno 17321 bound_to 7965
  140.7226  143.2603  151.4229 LP  0  0  0  0  0  0  0  0  0  0  0  0  # atno 17342 bound_to 10162
  139.5966  144.1385  152.2150 LP  0  0  0  0  0  0  0  0  0  0  0  0  # atno 17343 bound_to 10162
  156.5722  130.4283  149.6014 LP  0  0  0  0  0  0  0  0  0  0  0  0  # atno 17370 bound_to 10713
  156.2731  130.7028  151.1831 LP  0  0  0  0  0  0  0  0  0  0  0  0  # atno 17371 bound_to 10713
  141.1957  133.6588  156.5658 LP  0  0  0  0  0  0  0  0  0  0  0  0  # atno 17394 bound_to 11000
  140.3825  134.7511  157.4670 LP  0  0  0  0  0  0  0  0  0  0  0  0  # atno 17395 bound_to 11000

$$$$
