AV-unprocessed.smi:255|AV-procd|sdf|1956|dock5
  -GOLD-   2262021 93D 1   1.00000     0.00000
 Structure written by MMmdl.
 44 47  0  0  0  0  0  0  0  0  1 V2000
  153.0812  139.2695  155.0989 O   0  0  0  0  0  0  0  0  0  0  0  0
  151.6809  139.2100  155.2648 C   0  0  0  0  0  0  0  0  0  0  0  0
  151.1758  140.5005  155.9460 C   0  0  1  0  0  0  0  0  0  0  0  0
  149.6733  140.7555  155.8171 C   0  0  0  0  0  0  0  0  0  0  0  0
  149.4430  141.8468  156.8628 C   0  0  1  0  0  0  0  0  0  0  0  0
  148.2463  141.7293  157.4378 F   0  0  0  0  0  0  0  0  0  0  0  0
  150.5918  141.6865  157.8735 C   0  0  0  0  0  0  0  0  0  0  0  0
  151.4559  140.6145  157.3787 N   0  0  0  0  0  0  0  0  0  0  0  0
  151.4250  139.4671  158.1015 C   0  0  0  0  0  0  0  0  0  0  0  0
  152.5563  138.9750  158.6743 N   0  0  0  0  0  0  0  0  0  0  0  0
  152.5062  137.8515  159.3964 C   0  0  0  0  0  0  0  0  0  0  0  0
  151.4511  137.0808  159.6695 N   0  0  0  0  0  0  0  0  0  0  0  0
  150.3139  137.5773  159.1026 C   0  0  0  0  0  0  0  0  0  0  0  0
  150.2154  138.7533  158.3080 C   0  0  0  0  0  0  0  0  0  0  0  0
  148.9027  138.9444  157.8973 N   0  0  0  0  0  0  0  0  0  0  0  0
  148.2598  137.9345  158.4176 C   0  0  0  0  0  0  0  0  0  0  0  0
  149.0275  137.0698  159.1657 N   0  0  0  0  0  0  0  0  0  0  0  0
  148.5709  135.8702  159.8502 C   0  0  0  0  0  0  0  0  0  0  0  0
  147.5294  136.1386  160.9667 C   0  0  2  0  0  0  0  0  0  0  0  0
  147.6454  137.4740  161.4196 O   0  0  0  0  0  0  0  0  0  0  0  0
  147.6953  135.1897  162.1423 C   0  0  0  0  0  0  0  0  0  0  0  0
  146.8957  133.9640  161.7054 C   0  0  0  0  0  0  0  0  0  0  0  0
  145.8844  134.4480  160.8263 O   0  0  0  0  0  0  0  0  0  0  0  0
  146.0797  135.8347  160.5669 C   0  0  0  0  0  0  0  0  0  0  0  0
  151.7015  141.3370  155.4822 H   0  0  0  0  0  0  0  0  0  0  0  0
  149.4855  142.8344  156.4025 H   0  0  0  0  0  0  0  0  0  0  0  0
  153.2819  139.1206  154.1877 H   0  0  0  0  0  0  0  0  0  0  0  0
  151.2152  139.0607  154.2900 H   0  0  0  0  0  0  0  0  0  0  0  0
  151.4486  138.3378  155.8766 H   0  0  0  0  0  0  0  0  0  0  0  0
  149.3766  141.0634  154.8142 H   0  0  0  0  0  0  0  0  0  0  0  0
  149.1124  139.8557  156.0739 H   0  0  0  0  0  0  0  0  0  0  0  0
  151.1735  142.6068  157.9343 H   0  0  0  0  0  0  0  0  0  0  0  0
  150.2146  141.4872  158.8779 H   0  0  0  0  0  0  0  0  0  0  0  0
  153.4457  137.5244  159.8168 H   0  0  0  0  0  0  0  0  0  0  0  0
  147.1984  137.7943  158.2733 H   0  0  0  0  0  0  0  0  0  0  0  0
  148.1594  135.1940  159.1001 H   0  0  0  0  0  0  0  0  0  0  0  0
  149.4435  135.3646  160.2660 H   0  0  0  0  0  0  0  0  0  0  0  0
  148.2411  137.4921  162.1529 H   0  0  0  0  0  0  0  0  0  0  0  0
  148.7355  134.9609  162.3770 H   0  0  0  0  0  0  0  0  0  0  0  0
  147.2375  135.6103  163.0394 H   0  0  0  0  0  0  0  0  0  0  0  0
  147.5292  133.2663  161.1569 H   0  0  0  0  0  0  0  0  0  0  0  0
  146.4628  133.4308  162.5520 H   0  0  0  0  0  0  0  0  0  0  0  0
  145.3865  136.3826  161.2076 H   0  0  0  0  0  0  0  0  0  0  0  0
  145.8360  136.0925  159.5373 H   0  0  0  0  0  0  0  0  0  0  0  0
  1  2  1  0  0  0  0
  1 27  1  0  0  0  0
  2  3  1  0  0  0  0
  2 28  1  0  0  0  0
  2 29  1  0  0  0  0
  3 25  1  0  0  0  0
  3  8  1  0  0  0  0
  3  4  1  0  0  0  0
  4  5  1  0  0  0  0
  4 30  1  0  0  0  0
  4 31  1  0  0  0  0
  5 26  1  0  0  0  0
  5  6  1  0  0  0  0
  5  7  1  0  0  0  0
  7  8  1  0  0  0  0
  7 32  1  0  0  0  0
  7 33  1  0  0  0  0
  8  9  1  0  0  0  0
  9 14  1  0  0  0  0
  9 10  2  0  0  0  0
 10 11  1  0  0  0  0
 11 12  2  0  0  0  0
 11 34  1  0  0  0  0
 12 13  1  0  0  0  0
 13 17  1  0  0  0  0
 13 14  2  0  0  0  0
 14 15  1  0  0  0  0
 15 16  2  0  0  0  0
 16 17  1  0  0  0  0
 16 35  1  0  0  0  0
 17 18  1  0  0  0  0
 18 19  1  0  0  0  0
 18 36  1  0  0  0  0
 18 37  1  0  0  0  0
 19 24  1  0  0  0  0
 19 20  1  0  0  0  0
 19 21  1  0  0  0  0
 20 38  1  0  0  0  0
 21 22  1  0  0  0  0
 21 39  1  0  0  0  0
 21 40  1  0  0  0  0
 22 23  1  0  0  0  0
 22 41  1  0  0  0  0
 22 42  1  0  0  0  0
 23 24  1  0  0  0  0
 24 43  1  0  0  0  0
 24 44  1  0  0  0  0
M  END
> <s_m_source_file>
AV-unprocessed.smi

> <i_m_source_file_index>
255

> <i_lp_mmshare_version>
43012

> <i_f3d_flags>
0

> <s_epik_input>
W09IXVtDSDJdW0NAQEhdMVtDSDJdW0NASF0oRilbQ0gyXU4xYyhuW2NIXW4yKWMoYzIzKW5bY0hdbjNbQ0gyXVtDQEBdNChbT0hdKVtDSDJdW0NIMl1PW0NIMl00

> <s_epik_cmdline>
J2VwaWtfcHl0aG9uJywgJy1waCcsICc3LjAnLCAnLXRuJywgJzgnLCAnLW1hJywgJzIwMCcsICctbWV0YWxfYmluZGluZycsICctaW1hZScsICc8aW5maWxlLm1hZT4nLCAnLW9tYWUnLCAnPG91dGZpbGUubWFlPic=

> <r_lp_tautomer_probability>
1

> <r_epik_Ionization_Penalty>
0.0058098

> <r_epik_Ionization_Penalty_Charging>
0

> <r_epik_Ionization_Penalty_Neutral>
0.0058098

> <r_epik_State_Penalty>
0.00411166

> <r_epik_Charging_Adjusted_Penalty>
0.00411166

> <i_epik_Tot_Q>
0

> <i_epik_Tot_abs_Q>
0

> <r_epik_Metal_State_Penalty>
-0

> <b_epik_Metal_Only>
0

> <s_lp_Force_Field>
OPLS_2005

> <r_lp_Energy>
54.0655

> <b_lp_Chiralities_Consistent>
1

> <s_lp_Variant>
AV-unprocessed.smi:255-8

> <Gold.Version>
5.8.1

> <Gold.Id.Protein>
6NUR|6NUR_protein|mol2

> <Gold.PLP.Fitness>
43.3635

> <Gold.PLP.PLP>
-36.4585

> <Gold.PLP.part.hbond>
-3.8851

> <Gold.PLP.part.metal>
0.0000

> <Gold.PLP.part.buried>
-5.0711

> <Gold.PLP.part.nonpolar>
-27.6182

> <Gold.PLP.part.repulsive>
0.0000

> <Gold.PLP.ligand.clash>
0.0000

> <Gold.PLP.ligand.torsion>
0.9595

> <Gold.PLP.Chemscore.Hbond>
2.9120

> <Gold.PLP.Chemscore.CHOScore>
0.0000

> <Gold.PLP.Chemscore.Metal>
0.0000

> <Gold.Chemscore.Hbonds>
donor molecule, donor type, donor heavy atom, donor atom, acceptor molecule, acceptor atom, score
      P1  H  6896  6908       L1    12  1.00
      P1  H  6934  6947       L1    20  0.75
      P1  H  7997  8008       L1     1  1.00

> <Gold.PLP.Chemscore.Internal.Correction>
0.0881

> <Gold.Rescore>
     Score         DG    S(hbond)    S(metal)    S(lipo)     H(rot)  DE(clash)    DE(int)     intcor
     10.63     -13.10       2.79        0.00      58.26       3.33       0.01       2.45       ----

> <Gold.Chemscore.Fitness>
10.6303

> <Gold.Chemscore.DG>
-13.0974

> <Gold.Chemscore.ZeroCoef>
-5.4800

> <Gold.Chemscore.Hbond>
2.7902

> <Gold.Chemscore.Metal>
0.0000

> <Gold.Chemscore.Lipo>
58.2567

> <Gold.Chemscore.Internal_Hbond>
0.0000

> <Gold.Chemscore.DEClash>
0.0121

> <Gold.Chemscore.DEInternal>
2.4550

> <Gold.Chemscore.Rot>
3.3273

> <Gold.Chemscore.Internal.Correction>
   9.000000E+99

> <Gold.Chemscore.Hbonds>
donor molecule, donor type, donor heavy atom, donor atom, acceptor molecule, acceptor atom, score
      P1  H  6896  6908       L1    12  0.68
      P1  H  6934  6947       L1    20  0.59
      P1  H  7997  8008       L1     1  0.82

> <Gold.Chemscore.Hbond.Weighted>
-9.3193

> <Gold.Chemscore.Metal.Weighted>
-0.0000

> <Gold.Chemscore.Lipo.Weighted>
-6.8160

> <Gold.Chemscore.Internal_Hbond.Weighted>
0.0000

> <Gold.Chemscore.DEClash.Weighted>
0.0121

> <Gold.Chemscore.DEInternal.Weighted>
2.4550

> <Gold.Chemscore.Rot.Weighted>
8.5179

> <Gold.Chemscore.Internal.Correction.Weighted>
   9.000000E+99

> <Gold.Protein.RotatedTorsions>
[ 6907 6896 6895 6894 ] final -139.91 input  -60.11 | X-H torsion
[ 7974 7965 7964 7962 ] final  -38.83 input  175.53 | X-H torsion
[ 8008 7997 7996 7995 ] final  -21.37 input   59.86 | X-H torsion
[ 10167 10162 10161 10158 ] final  168.29 input  -65.29 | X-H torsion
[ 10718 10713 10712 10709 ] final  -71.07 input   66.30 | X-H torsion
[ 10763 10752 10751 10750 ] final  148.03 input  -60.55 | X-H torsion
[ 11005 11000 10999 10996 ] final -146.47 input  -57.11 | X-H torsion

> <Gold.Protein.ActiveResidues>
 VAL166  LYS551  ARG553  GLY616  TRP617  ASP618  TYR619  PRO620  LYS621  CYS622 
 ASP623  PHE694  ASN695  SER759  ASP760  ASP761  ALA762  ILE779  LEU786  VAL792 
 PHE793  MET794  SER795  GLU796  ALA797  LYS798  CYS799  TRP800  GLU811  SER814 

> <Gold.Protein.RotatedAtoms>
  151.0538  133.5601  159.2639 H   0  0  0  0  0  0  0  0  0  0  0  0  # atno 6907 bound_to 6896
  151.2602  135.0650  159.9105 H   0  0  0  0  0  0  0  0  0  0  0  0  # atno 6908 bound_to 6896
  152.5386  134.0285  159.8068 H   0  0  0  0  0  0  0  0  0  0  0  0  # atno 6909 bound_to 6896
  146.0451  140.6556  142.9068 H   0  0  0  0  0  0  0  0  0  0  0  0  # atno 7974 bound_to 7965
  154.4710  140.2036  155.9995 H   0  0  0  0  0  0  0  0  0  0  0  0  # atno 8008 bound_to 7997
  156.1010  140.3244  155.7913 H   0  0  0  0  0  0  0  0  0  0  0  0  # atno 8009 bound_to 7997
  155.4797  140.0537  157.2959 H   0  0  0  0  0  0  0  0  0  0  0  0  # atno 8010 bound_to 7997
  139.4964  144.3830  151.9601 H   0  0  0  0  0  0  0  0  0  0  0  0  # atno 10167 bound_to 10162
  156.0379  130.4344  150.2389 H   0  0  0  0  0  0  0  0  0  0  0  0  # atno 10718 bound_to 10713
  154.0481  135.2884  155.3345 H   0  0  0  0  0  0  0  0  0  0  0  0  # atno 10763 bound_to 10752
  154.6887  135.5235  153.8365 H   0  0  0  0  0  0  0  0  0  0  0  0  # atno 10764 bound_to 10752
  153.0572  135.6600  154.0679 H   0  0  0  0  0  0  0  0  0  0  0  0  # atno 10765 bound_to 10752
  140.7817  134.3071  157.5043 H   0  0  0  0  0  0  0  0  0  0  0  0  # atno 11005 bound_to 11000
  144.7094  140.3980  143.7092 LP  0  0  0  0  0  0  0  0  0  0  0  0  # atno 17320 bound_to 7965
  145.6819  139.1620  143.2696 LP  0  0  0  0  0  0  0  0  0  0  0  0  # atno 17321 bound_to 7965
  140.3266  144.3365  150.5997 LP  0  0  0  0  0  0  0  0  0  0  0  0  # atno 17342 bound_to 10162
  140.5679  143.2184  151.7651 LP  0  0  0  0  0  0  0  0  0  0  0  0  # atno 17343 bound_to 10162
  157.0487  131.0056  151.3260 LP  0  0  0  0  0  0  0  0  0  0  0  0  # atno 17370 bound_to 10713
  157.5156  130.7966  149.7753 LP  0  0  0  0  0  0  0  0  0  0  0  0  # atno 17371 bound_to 10713
  139.8742  134.9322  156.3548 LP  0  0  0  0  0  0  0  0  0  0  0  0  # atno 17394 bound_to 11000
  140.9476  133.7472  156.0229 LP  0  0  0  0  0  0  0  0  0  0  0  0  # atno 17395 bound_to 11000

$$$$
