AV-unprocessed.smi:109|AV-procd|sdf|1051|dock10
  -GOLD-   2262018103D 1   1.00000     0.00000
 Structure written by MMmdl.
 58 61  0  0  0  0  0  0  0  0  1 V2000
  152.8179  137.6259  155.5565 O   0  0  0  0  0  0  0  0  0  0  0  0
  152.2461  138.6116  156.3888 C   0  0  0  0  0  0  0  0  0  0  0  0
  151.9091  139.8640  155.5610 C   0  0  0  0  0  0  0  0  0  0  0  0
  151.0763  140.9240  156.3237 C   0  0  2  0  0  0  0  0  0  0  0  0
  150.4186  141.8103  155.3603 N   0  0  0  0  0  0  0  0  0  0  0  0
  149.1619  141.5887  154.9134 C   0  0  0  0  0  0  0  0  0  0  0  0
  148.2473  142.5897  154.8376 N   0  0  0  0  0  0  0  0  0  0  0  0
  147.0129  142.3356  154.3946 C   0  0  0  0  0  0  0  0  0  0  0  0
  146.4970  141.1752  153.9851 N   0  0  0  0  0  0  0  0  0  0  0  0
  147.4097  140.1636  154.0592 C   0  0  0  0  0  0  0  0  0  0  0  0
  148.7533  140.2910  154.5107 C   0  0  0  0  0  0  0  0  0  0  0  0
  149.3879  139.0574  154.4560 N   0  0  0  0  0  0  0  0  0  0  0  0
  148.4691  138.2506  153.9980 C   0  0  0  0  0  0  0  0  0  0  0  0
  147.2481  138.8305  153.7335 N   0  0  0  0  0  0  0  0  0  0  0  0
  146.0219  138.1504  153.2012 C   0  0  2  0  0  0  0  0  0  0  0  0
  145.8605  136.9182  153.8395 O   0  0  0  0  0  0  0  0  0  0  0  0
  145.8638  135.8588  152.8863 C   0  0  1  0  0  0  0  0  0  0  0  0
  145.0102  134.6778  153.3801 C   0  0  0  0  0  0  0  0  0  0  0  0
  143.6485  135.0454  153.4408 O   0  0  0  0  0  0  0  0  0  0  0  0
  145.4468  136.5190  151.5639 C   0  0  1  0  0  0  0  0  0  0  0  0
  144.0388  136.6160  151.4527 O   0  0  0  0  0  0  0  0  0  0  0  0
  146.0672  137.9024  151.6786 C   0  0  2  0  0  0  0  0  0  0  0  0
  147.3739  137.9115  151.1308 O   0  0  0  0  0  0  0  0  0  0  0  0
  151.9144  141.7760  157.3201 C   0  0  0  0  0  0  0  0  0  0  0  0
  152.2765  141.0167  158.6213 C   0  0  0  0  0  0  0  0  0  0  0  0
  153.0689  141.8881  159.6099 C   0  0  0  0  0  0  0  0  0  0  0  0
  152.3158  143.1794  159.9509 C   0  0  0  0  0  0  0  0  0  0  0  0
  151.9734  143.9571  158.6748 C   0  0  0  0  0  0  0  0  0  0  0  0
  151.1739  143.0868  157.6925 C   0  0  0  0  0  0  0  0  0  0  0  0
  145.1977  138.8025  153.4936 H   0  0  0  0  0  0  0  0  0  0  0  0
  146.8965  135.5237  152.7853 H   0  0  0  0  0  0  0  0  0  0  0  0
  145.8149  135.9655  150.6988 H   0  0  0  0  0  0  0  0  0  0  0  0
  145.4833  138.6673  151.1649 H   0  0  0  0  0  0  0  0  0  0  0  0
  153.3936  138.0506  154.9391 H   0  0  0  0  0  0  0  0  0  0  0  0
  151.3546  138.1932  156.8558 H   0  0  0  0  0  0  0  0  0  0  0  0
  152.9503  138.8548  157.1849 H   0  0  0  0  0  0  0  0  0  0  0  0
  152.8581  140.2954  155.2473 H   0  0  0  0  0  0  0  0  0  0  0  0
  151.3862  139.5730  154.6488 H   0  0  0  0  0  0  0  0  0  0  0  0
  150.3387  140.3900  156.9221 H   0  0  0  0  0  0  0  0  0  0  0  0
  150.9865  142.5727  155.0193 H   0  0  0  0  0  0  0  0  0  0  0  0
  146.3430  143.1820  154.3639 H   0  0  0  0  0  0  0  0  0  0  0  0
  148.6585  137.1989  153.8396 H   0  0  0  0  0  0  0  0  0  0  0  0
  145.1073  133.8392  152.6903 H   0  0  0  0  0  0  0  0  0  0  0  0
  145.3405  134.3230  154.3564 H   0  0  0  0  0  0  0  0  0  0  0  0
  143.4489  135.3108  154.3255 H   0  0  0  0  0  0  0  0  0  0  0  0
  143.8331  137.4023  150.9700 H   0  0  0  0  0  0  0  0  0  0  0  0
  147.9366  137.4002  151.6916 H   0  0  0  0  0  0  0  0  0  0  0  0
  152.8491  142.0478  156.8267 H   0  0  0  0  0  0  0  0  0  0  0  0
  151.3668  140.6543  159.1017 H   0  0  0  0  0  0  0  0  0  0  0  0
  152.8842  140.1402  158.4034 H   0  0  0  0  0  0  0  0  0  0  0  0
  153.2693  141.3253  160.5223 H   0  0  0  0  0  0  0  0  0  0  0  0
  154.0407  142.1350  159.1802 H   0  0  0  0  0  0  0  0  0  0  0  0
  151.4001  142.9394  160.4927 H   0  0  0  0  0  0  0  0  0  0  0  0
  152.9180  143.7988  160.6163 H   0  0  0  0  0  0  0  0  0  0  0  0
  151.4023  144.8507  158.9283 H   0  0  0  0  0  0  0  0  0  0  0  0
  152.8910  144.3015  158.1961 H   0  0  0  0  0  0  0  0  0  0  0  0
  150.9660  143.6808  156.8024 H   0  0  0  0  0  0  0  0  0  0  0  0
  150.2041  142.8458  158.1301 H   0  0  0  0  0  0  0  0  0  0  0  0
  1  2  1  0  0  0  0
  1 34  1  0  0  0  0
  2  3  1  0  0  0  0
  2 35  1  0  0  0  0
  2 36  1  0  0  0  0
  3  4  1  0  0  0  0
  3 37  1  0  0  0  0
  3 38  1  0  0  0  0
  4  5  1  0  0  0  0
  4 24  1  0  0  0  0
  4 39  1  0  0  0  0
  5  6  1  0  0  0  0
  5 40  1  0  0  0  0
  6 11  1  0  0  0  0
  6  7  2  0  0  0  0
  7  8  1  0  0  0  0
  8  9  2  0  0  0  0
  8 41  1  0  0  0  0
  9 10  1  0  0  0  0
 10 14  1  0  0  0  0
 10 11  2  0  0  0  0
 11 12  1  0  0  0  0
 12 13  2  0  0  0  0
 13 14  1  0  0  0  0
 13 42  1  0  0  0  0
 14 15  1  0  0  0  0
 15 30  1  0  0  0  0
 15 22  1  0  0  0  0
 15 16  1  0  0  0  0
 16 17  1  0  0  0  0
 17 31  1  0  0  0  0
 17 18  1  0  0  0  0
 17 20  1  0  0  0  0
 18 19  1  0  0  0  0
 18 43  1  0  0  0  0
 18 44  1  0  0  0  0
 19 45  1  0  0  0  0
 20 32  1  0  0  0  0
 20 21  1  0  0  0  0
 20 22  1  0  0  0  0
 21 46  1  0  0  0  0
 22 33  1  0  0  0  0
 22 23  1  0  0  0  0
 23 47  1  0  0  0  0
 24 29  1  0  0  0  0
 24 25  1  0  0  0  0
 24 48  1  0  0  0  0
 25 26  1  0  0  0  0
 25 49  1  0  0  0  0
 25 50  1  0  0  0  0
 26 27  1  0  0  0  0
 26 51  1  0  0  0  0
 26 52  1  0  0  0  0
 27 28  1  0  0  0  0
 27 53  1  0  0  0  0
 27 54  1  0  0  0  0
 28 29  1  0  0  0  0
 28 55  1  0  0  0  0
 28 56  1  0  0  0  0
 29 57  1  0  0  0  0
 29 58  1  0  0  0  0
M  END
> <s_m_source_file>
AV-unprocessed.smi

> <i_m_source_file_index>
109

> <i_lp_mmshare_version>
43012

> <i_f3d_flags>
0

> <s_epik_input>
W0NIMl0xW0NIMl1bQ0gyXVtDSDJdW0NIMl1bQ0hdMVtDQEhdKFtDSDJdW0NIMl1bT0hdKVtOSF1jKG5bY0hdbjIpYyhjMjMpbltjSF1uM1tDQEBIXTRPW0NASF0oW0NIMl1bT0hdKVtDQEBIXShbT0hdKVtDQEhdNFtPSF0=

> <s_epik_cmdline>
J2VwaWtfcHl0aG9uJywgJy1waCcsICc3LjAnLCAnLXRuJywgJzgnLCAnLW1hJywgJzIwMCcsICctbWV0YWxfYmluZGluZycsICctaW1hZScsICc8aW5maWxlLm1hZT4nLCAnLW9tYWUnLCAnPG91dGZpbGUubWFlPic=

> <r_lp_tautomer_probability>
1

> <r_epik_Ionization_Penalty>
0.000793976

> <r_epik_Ionization_Penalty_Charging>
0

> <r_epik_Ionization_Penalty_Neutral>
0.000793976

> <r_epik_State_Penalty>
-0

> <r_epik_Charging_Adjusted_Penalty>
0

> <i_epik_Tot_Q>
0

> <i_epik_Tot_abs_Q>
0

> <r_epik_Metal_State_Penalty>
-0

> <b_epik_Metal_Only>
0

> <s_epik_Chemistry_Notes>
This compound contains an acetal/aminal-like group ( X-CH(R)-Y where X, Y are N, S, or O) that may be acid/base labile, releasing an aldehyde.

> <s_lp_Force_Field>
OPLS_2005

> <r_lp_Energy>
55.8609

> <b_lp_Chiralities_Consistent>
1

> <s_lp_Variant>
AV-unprocessed.smi:109-21

> <Gold.Version>
5.8.1

> <Gold.Id.Protein>
6NUR|6NUR_protein|mol2

> <Gold.PLP.Fitness>
47.7358

> <Gold.PLP.PLP>
-39.5003

> <Gold.PLP.part.hbond>
-4.4403

> <Gold.PLP.part.metal>
0.0000

> <Gold.PLP.part.buried>
1.0654

> <Gold.PLP.part.nonpolar>
-41.3760

> <Gold.PLP.part.repulsive>
6.5481

> <Gold.PLP.ligand.clash>
0.0000

> <Gold.PLP.ligand.torsion>
1.7577

> <Gold.PLP.Chemscore.Hbond>
2.9648

> <Gold.PLP.Chemscore.CHOScore>
0.9158

> <Gold.PLP.Chemscore.Metal>
0.0000

> <Gold.Chemscore.Hbonds>
donor molecule, donor type, donor heavy atom, donor atom, acceptor molecule, acceptor atom, score
      L1  H    21    46       P1 10171  1.00
      L1  H    23    47       P1  7948  0.92
      P1  H  7954  7966       L1    23  0.80
      P1  H 10752 10764       L1     1  0.25
      L1  C    13    42       P1  7948  0.90

> <Gold.PLP.Chemscore.Internal.Correction>
0.1093

> <Gold.Rescore>
     Score         DG    S(hbond)    S(metal)    S(lipo)     H(rot)  DE(clash)    DE(int)     intcor
      4.76     -10.72       2.20        0.00     101.70       5.47       2.24       3.73       ----

> <Gold.Chemscore.Fitness>
4.7622

> <Gold.Chemscore.DG>
-10.7248

> <Gold.Chemscore.ZeroCoef>
-5.4800

> <Gold.Chemscore.Hbond>
2.1976

> <Gold.Chemscore.Metal>
0.0000

> <Gold.Chemscore.Lipo>
101.6961

> <Gold.Chemscore.Internal_Hbond>
0.0000

> <Gold.Chemscore.DEClash>
2.2373

> <Gold.Chemscore.DEInternal>
3.7254

> <Gold.Chemscore.Rot>
5.4662

> <Gold.Chemscore.Internal.Correction>
   9.000000E+99

> <Gold.Chemscore.Hbonds>
donor molecule, donor type, donor heavy atom, donor atom, acceptor molecule, acceptor atom, score
      L1  H    21    46       P1 10171  0.99
      L1  H    23    47       P1  7948  0.84
      P1  H  7954  7966       L1    23  0.18
      P1  H 10752 10764       L1     1  0.05

> <Gold.Chemscore.Hbond.Weighted>
-7.3399

> <Gold.Chemscore.Metal.Weighted>
-0.0000

> <Gold.Chemscore.Lipo.Weighted>
-11.8984

> <Gold.Chemscore.Internal_Hbond.Weighted>
0.0000

> <Gold.Chemscore.DEClash.Weighted>
2.2373

> <Gold.Chemscore.DEInternal.Weighted>
3.7254

> <Gold.Chemscore.Rot.Weighted>
13.9935

> <Gold.Chemscore.Internal.Correction.Weighted>
   9.000000E+99

> <Gold.Protein.RotatedTorsions>
[ 6907 6896 6895 6894 ] final  134.86 input  -60.11 | X-H torsion
[ 7974 7965 7964 7962 ] final  -91.19 input  175.53 | X-H torsion
[ 8008 7997 7996 7995 ] final   11.73 input   59.86 | X-H torsion
[ 10167 10162 10161 10158 ] final  -81.42 input  -65.29 | X-H torsion
[ 10718 10713 10712 10709 ] final  148.15 input   66.30 | X-H torsion
[ 10763 10752 10751 10750 ] final  -43.44 input  -60.55 | X-H torsion
[ 11005 11000 10999 10996 ] final   -3.51 input  -57.11 | X-H torsion

> <Gold.Protein.ActiveResidues>
 VAL166  LYS551  ARG553  GLY616  TRP617  ASP618  TYR619  PRO620  LYS621  CYS622 
 ASP623  PHE694  ASN695  SER759  ASP760  ASP761  ALA762  ILE779  LEU786  VAL792 
 PHE793  MET794  SER795  GLU796  ALA797  LYS798  CYS799  TRP800  GLU811  SER814 

> <Gold.Protein.RotatedAtoms>
  152.3067  133.5710  159.5653 H   0  0  0  0  0  0  0  0  0  0  0  0  # atno 6907 bound_to 6896
  150.7303  134.0212  159.3711 H   0  0  0  0  0  0  0  0  0  0  0  0  # atno 6908 bound_to 6896
  151.8108  135.0681  160.0463 H   0  0  0  0  0  0  0  0  0  0  0  0  # atno 6909 bound_to 6896
  145.4165  140.9548  143.2205 H   0  0  0  0  0  0  0  0  0  0  0  0  # atno 7974 bound_to 7965
  154.8109  140.2868  155.5854 H   0  0  0  0  0  0  0  0  0  0  0  0  # atno 8008 bound_to 7997
  156.2988  140.2568  156.2927 H   0  0  0  0  0  0  0  0  0  0  0  0  # atno 8009 bound_to 7997
  154.9448  140.0380  157.2104 H   0  0  0  0  0  0  0  0  0  0  0  0  # atno 8010 bound_to 7997
  140.4413  143.2514  151.8621 H   0  0  0  0  0  0  0  0  0  0  0  0  # atno 10167 bound_to 10162
  157.3122  131.0890  151.1307 H   0  0  0  0  0  0  0  0  0  0  0  0  # atno 10718 bound_to 10713
  153.9956  135.6700  153.4756 H   0  0  0  0  0  0  0  0  0  0  0  0  # atno 10763 bound_to 10752
  153.0685  135.4987  154.8249 H   0  0  0  0  0  0  0  0  0  0  0  0  # atno 10764 bound_to 10752
  154.7083  135.3092  154.9199 H   0  0  0  0  0  0  0  0  0  0  0  0  # atno 10765 bound_to 10752
  140.6701  133.9244  155.8489 H   0  0  0  0  0  0  0  0  0  0  0  0  # atno 11005 bound_to 11000
  144.8274  139.5687  143.6959 LP  0  0  0  0  0  0  0  0  0  0  0  0  # atno 17320 bound_to 7965
  146.2678  139.6563  142.9317 LP  0  0  0  0  0  0  0  0  0  0  0  0  # atno 17321 bound_to 7965
  139.4790  144.5225  151.8781 LP  0  0  0  0  0  0  0  0  0  0  0  0  # atno 17342 bound_to 10162
  140.4315  144.2109  150.5888 LP  0  0  0  0  0  0  0  0  0  0  0  0  # atno 17343 bound_to 10162
  157.2625  130.6665  149.5981 LP  0  0  0  0  0  0  0  0  0  0  0  0  # atno 17370 bound_to 10713
  155.9678  130.4504  150.5696 LP  0  0  0  0  0  0  0  0  0  0  0  0  # atno 17371 bound_to 10713
  141.0398  134.0637  157.3915 LP  0  0  0  0  0  0  0  0  0  0  0  0  # atno 17394 bound_to 11000
  139.8984  135.0154  156.7147 LP  0  0  0  0  0  0  0  0  0  0  0  0  # atno 17395 bound_to 11000

$$$$
