AV-unprocessed.smi:16|AV-procd|sdf|90|dock1
  -GOLD-   2262015233D 1   1.00000     0.00000
 Structure written by MMmdl.
 60 64  0  0  0  0  0  0  0  0  2 V2000
  148.9308  127.6477  152.1198 C   0  0  0  0  0  0  0  0  0  0  0  0
  149.4666  127.0072  153.4079 C   0  0  0  0  0  0  0  0  0  0  0  0
  150.7189  127.6526  153.8855 N   0  3  2  0  0  0  0  0  0  0  0  0
  151.3778  126.9620  155.0284 C   0  0  0  0  0  0  0  0  0  0  0  0
  150.6516  127.2176  156.3632 C   0  0  0  0  0  0  0  0  0  0  0  0
  150.5050  128.7227  156.6199 C   0  0  2  0  0  0  0  0  0  0  0  0
  149.7636  128.9342  157.8158 O   0  0  0  0  0  0  0  0  0  0  0  0
  149.6635  130.3182  158.1354 C   0  0  0  0  0  0  0  0  0  0  0  0
  148.9366  131.0548  156.9985 C   0  0  0  0  0  0  0  0  0  0  0  0
  149.6138  130.8231  155.7248 N   0  0  0  0  0  0  0  0  0  0  0  0
  149.0850  131.5480  154.7130 C   0  0  0  0  0  0  0  0  0  0  0  0
  149.5386  132.8043  154.4616 N   0  0  0  0  0  0  0  0  0  0  0  0
  148.9974  133.5220  153.4721 C   0  0  0  0  0  0  0  0  0  0  0  0
  148.0057  133.1864  152.6435 N   0  0  0  0  0  0  0  0  0  0  0  0
  147.5418  131.9303  152.9051 C   0  0  0  0  0  0  0  0  0  0  0  0
  148.0272  131.0488  153.9100 C   0  0  0  0  0  0  0  0  0  0  0  0
  147.3237  129.8523  153.8798 N   0  0  0  0  0  0  0  0  0  0  0  0
  146.4736  130.0131  152.9020 C   0  0  0  0  0  0  0  0  0  0  0  0
  146.5133  131.2435  152.2839 N   0  0  0  0  0  0  0  0  0  0  0  0
  145.7174  131.6687  151.1704 C   0  0  0  0  0  0  0  0  0  0  0  0
  146.0419  132.9566  150.4097 C   0  0  0  0  0  0  0  0  0  0  0  0
  144.5349  133.1698  150.1416 C   0  0  0  0  0  0  0  0  0  0  0  0
  144.0343  134.6156  150.2918 C   0  0  0  0  0  0  0  0  0  0  0  0
  144.5199  135.2040  151.4812 O   0  0  0  0  0  0  0  0  0  0  0  0
  144.0137  132.5886  148.8117 C   0  0  0  0  0  0  0  0  0  0  0  0
  142.7719  131.9359  148.9835 O   0  0  0  0  0  0  0  0  0  0  0  0
  144.3245  132.2685  151.3784 C   0  0  0  0  0  0  0  0  0  0  0  0
  149.7800  129.3967  155.4349 C   0  0  1  0  0  0  0  0  0  0  0  0
  150.5710  129.1118  154.1325 C   0  0  0  0  0  0  0  0  0  0  0  0
  151.5014  129.1536  156.7398 H   0  0  0  0  0  0  0  0  0  0  0  0
  148.7827  128.9630  155.3430 H   0  0  0  0  0  0  0  0  0  0  0  0
  147.9614  127.2237  151.8573 H   0  0  0  0  0  0  0  0  0  0  0  0
  149.5945  127.4813  151.2718 H   0  0  0  0  0  0  0  0  0  0  0  0
  148.7979  128.7233  152.2400 H   0  0  0  0  0  0  0  0  0  0  0  0
  148.6966  127.1158  154.1728 H   0  0  0  0  0  0  0  0  0  0  0  0
  149.6073  125.9353  153.2699 H   0  0  0  0  0  0  0  0  0  0  0  0
  151.4651  125.8926  154.8413 H   0  0  0  0  0  0  0  0  0  0  0  0
  152.4003  127.3352  155.1019 H   0  0  0  0  0  0  0  0  0  0  0  0
  149.6702  126.7427  156.3583 H   0  0  0  0  0  0  0  0  0  0  0  0
  151.2082  126.7563  157.1794 H   0  0  0  0  0  0  0  0  0  0  0  0
  149.1110  130.4287  159.0685 H   0  0  0  0  0  0  0  0  0  0  0  0
  150.6563  130.7397  158.3008 H   0  0  0  0  0  0  0  0  0  0  0  0
  147.9050  130.7038  156.9416 H   0  0  0  0  0  0  0  0  0  0  0  0
  148.9019  132.1242  157.2112 H   0  0  0  0  0  0  0  0  0  0  0  0
  149.4153  134.5070  153.3249 H   0  0  0  0  0  0  0  0  0  0  0  0
  145.7827  129.2354  152.6095 H   0  0  0  0  0  0  0  0  0  0  0  0
  145.6754  130.8183  150.4878 H   0  0  0  0  0  0  0  0  0  0  0  0
  146.4741  133.7227  151.0561 H   0  0  0  0  0  0  0  0  0  0  0  0
  146.6551  132.8098  149.5201 H   0  0  0  0  0  0  0  0  0  0  0  0
  144.3714  135.2301  149.4563 H   0  0  0  0  0  0  0  0  0  0  0  0
  142.9454  134.6676  150.2876 H   0  0  0  0  0  0  0  0  0  0  0  0
  143.9087  135.8698  151.7572 H   0  0  0  0  0  0  0  0  0  0  0  0
  143.8761  133.3723  148.0665 H   0  0  0  0  0  0  0  0  0  0  0  0
  144.7237  131.8834  148.3792 H   0  0  0  0  0  0  0  0  0  0  0  0
  142.1210  132.5839  149.2065 H   0  0  0  0  0  0  0  0  0  0  0  0
  143.5063  131.5529  151.2913 H   0  0  0  0  0  0  0  0  0  0  0  0
  144.2485  132.8365  152.3077 H   0  0  0  0  0  0  0  0  0  0  0  0
  151.5658  129.5547  154.2027 H   0  0  0  0  0  0  0  0  0  0  0  0
  150.0976  129.5711  153.2641 H   0  0  0  0  0  0  0  0  0  0  0  0
  151.3592  127.5785  153.1078 H   0  0  0  0  0  0  0  0  0  0  0  0
  1  2  1  0  0  0  0
  1 32  1  0  0  0  0
  1 33  1  0  0  0  0
  1 34  1  0  0  0  0
  2  3  1  0  0  0  0
  2 35  1  0  0  0  0
  2 36  1  0  0  0  0
  3 29  1  0  0  0  0
  3  4  1  0  0  0  0
  3 60  1  0  0  0  0
  4  5  1  0  0  0  0
  4 37  1  0  0  0  0
  4 38  1  0  0  0  0
  5  6  1  0  0  0  0
  5 39  1  0  0  0  0
  5 40  1  0  0  0  0
  6 30  1  0  0  0  0
  6 28  1  0  0  0  0
  6  7  1  0  0  0  0
  7  8  1  0  0  0  0
  8  9  1  0  0  0  0
  8 41  1  0  0  0  0
  8 42  1  0  0  0  0
  9 10  1  0  0  0  0
  9 43  1  0  0  0  0
  9 44  1  0  0  0  0
 10 11  1  0  0  0  0
 10 28  1  0  0  0  0
 11 16  1  0  0  0  0
 11 12  2  0  0  0  0
 12 13  1  0  0  0  0
 13 14  2  0  0  0  0
 13 45  1  0  0  0  0
 14 15  1  0  0  0  0
 15 19  1  0  0  0  0
 15 16  2  0  0  0  0
 16 17  1  0  0  0  0
 17 18  2  0  0  0  0
 18 19  1  0  0  0  0
 18 46  1  0  0  0  0
 19 20  1  0  0  0  0
 20 27  1  0  0  0  0
 20 21  1  0  0  0  0
 20 47  1  0  0  0  0
 21 22  1  0  0  0  0
 21 48  1  0  0  0  0
 21 49  1  0  0  0  0
 22 23  1  0  0  0  0
 22 25  1  0  0  0  0
 22 27  1  0  0  0  0
 23 24  1  0  0  0  0
 23 50  1  0  0  0  0
 23 51  1  0  0  0  0
 24 52  1  0  0  0  0
 25 26  1  0  0  0  0
 25 53  1  0  0  0  0
 25 54  1  0  0  0  0
 26 55  1  0  0  0  0
 27 56  1  0  0  0  0
 27 57  1  0  0  0  0
 28 31  1  0  0  0  0
 28 29  1  0  0  0  0
 29 58  1  0  0  0  0
 29 59  1  0  0  0  0
M  CHG  1   3   1
M  END
> <s_m_source_file>
AV-unprocessed.smi

> <i_m_source_file_index>
16

> <i_lp_mmshare_version>
43012

> <i_f3d_flags>
0

> <s_epik_input>
W0NIM11bQ0gyXU4oW0NIMl1bQ0gyXTEpW0NIMl1bQ0BASF0oW0NAQEhdMTIpTihbQ0gyXVtDSDJdTzIpYyhuW2NIXW4zKWMoYzM0KW5bY0hdbjRbQ0hdKFtDSDJdNSlbQ0gyXUM1KFtDSDJdW09IXSlbQ0gyXVtPSF0=

> <s_epik_cmdline>
J2VwaWtfcHl0aG9uJywgJy1waCcsICc3LjAnLCAnLXRuJywgJzgnLCAnLW1hJywgJzIwMCcsICctbWV0YWxfYmluZGluZycsICctaW1hZScsICc8aW5maWxlLm1hZT4nLCAnLW9tYWUnLCAnPG91dGZpbGUubWFlPic=

> <r_lp_tautomer_probability>
1

> <r_epik_Ionization_Penalty>
0.0135603

> <r_epik_Ionization_Penalty_Charging>
0.0131385

> <r_epik_Ionization_Penalty_Neutral>
0.000421734

> <r_epik_State_Penalty>
0.0102091

> <r_epik_Charging_Adjusted_Penalty>
0.0233476

> <i_epik_Tot_Q>
1

> <i_epik_Tot_abs_Q>
1

> <r_epik_Metal_State_Penalty>
0.0103746

> <b_epik_Metal_Only>
0

> <s_lp_Force_Field>
OPLS_2005

> <r_lp_Energy>
56.2472

> <b_lp_Chiralities_Consistent>
1

> <s_lp_Variant>
AV-unprocessed.smi:16-4

> <Gold.Version>
5.8.1

> <Gold.Id.Protein>
6NUR|6NUR_protein|mol2

> <Gold.PLP.Fitness>
48.4949

> <Gold.PLP.PLP>
-41.5129

> <Gold.PLP.part.hbond>
-4.0000

> <Gold.PLP.part.metal>
0.0000

> <Gold.PLP.part.buried>
-5.2612

> <Gold.PLP.part.nonpolar>
-32.9451

> <Gold.PLP.part.repulsive>
0.3807

> <Gold.PLP.ligand.clash>
0.0000

> <Gold.PLP.ligand.torsion>
1.7611

> <Gold.PLP.Chemscore.Hbond>
3.0000

> <Gold.PLP.Chemscore.CHOScore>
0.2500

> <Gold.PLP.Chemscore.Metal>
0.0000

> <Gold.Chemscore.Hbonds>
donor molecule, donor type, donor heavy atom, donor atom, acceptor molecule, acceptor atom, score
      L1  H     3    60       P1 10737  1.00
      L1  H    26    55       P1 10186  0.67
      P1  H 10785 10796       L1    26  1.00
      L1  C    13    45       P1  7948  0.30

> <Gold.PLP.Chemscore.Internal.Correction>
0.7544

> <Gold.Rescore>
     Score         DG    S(hbond)    S(metal)    S(lipo)     H(rot)  DE(clash)    DE(int)     intcor
     11.10     -15.10       2.57        0.00      81.69       3.33       0.18       3.82       ----

> <Gold.Chemscore.Fitness>
11.1006

> <Gold.Chemscore.DG>
-15.0999

> <Gold.Chemscore.ZeroCoef>
-5.4800

> <Gold.Chemscore.Hbond>
2.5672

> <Gold.Chemscore.Metal>
0.0000

> <Gold.Chemscore.Lipo>
81.6901

> <Gold.Chemscore.Internal_Hbond>
0.0000

> <Gold.Chemscore.DEClash>
0.1751

> <Gold.Chemscore.DEInternal>
3.8242

> <Gold.Chemscore.Rot>
3.3251

> <Gold.Chemscore.Internal.Correction>
   9.000000E+99

> <Gold.Chemscore.Hbonds>
donor molecule, donor type, donor heavy atom, donor atom, acceptor molecule, acceptor atom, score
      L1  H     3    60       P1 10737  0.95
      L1  H    26    55       P1 10186  0.67
      P1  H 10785 10796       L1    26  0.44

> <Gold.Chemscore.Hbond.Weighted>
-8.5743

> <Gold.Chemscore.Metal.Weighted>
-0.0000

> <Gold.Chemscore.Lipo.Weighted>
-9.5577

> <Gold.Chemscore.Internal_Hbond.Weighted>
0.0000

> <Gold.Chemscore.DEClash.Weighted>
0.1751

> <Gold.Chemscore.DEInternal.Weighted>
3.8242

> <Gold.Chemscore.Rot.Weighted>
8.5122

> <Gold.Chemscore.Internal.Correction.Weighted>
   9.000000E+99

> <Gold.Protein.RotatedTorsions>
[ 6907 6896 6895 6894 ] final  -20.47 input  -60.11 | X-H torsion
[ 7974 7965 7964 7962 ] final  -10.37 input  175.53 | X-H torsion
[ 8008 7997 7996 7995 ] final   -7.11 input   59.86 | X-H torsion
[ 10167 10162 10161 10158 ] final   45.69 input  -65.29 | X-H torsion
[ 10718 10713 10712 10709 ] final    5.52 input   66.30 | X-H torsion
[ 10763 10752 10751 10750 ] final   71.11 input  -60.55 | X-H torsion
[ 11005 11000 10999 10996 ] final    5.40 input  -57.11 | X-H torsion

> <Gold.Protein.ActiveResidues>
 VAL166  LYS551  ARG553  GLY616  TRP617  ASP618  TYR619  PRO620  LYS621  CYS622 
 ASP623  PHE694  ASN695  SER759  ASP760  ASP761  ALA762  ILE779  LEU786  VAL792 
 PHE793  MET794  SER795  GLU796  ALA797  LYS798  CYS799  TRP800  GLU811  SER814 

> <Gold.Protein.RotatedAtoms>
  151.2477  135.0611  159.9049 H   0  0  0  0  0  0  0  0  0  0  0  0  # atno 6907 bound_to 6896
  152.5384  134.0366  159.8059 H   0  0  0  0  0  0  0  0  0  0  0  0  # atno 6908 bound_to 6896
  151.0569  133.5527  159.2669 H   0  0  0  0  0  0  0  0  0  0  0  0  # atno 6909 bound_to 6896
  146.2223  140.2753  142.8359 H   0  0  0  0  0  0  0  0  0  0  0  0  # atno 7974 bound_to 7965
  154.5871  140.2415  155.7972 H   0  0  0  0  0  0  0  0  0  0  0  0  # atno 8008 bound_to 7997
  156.2221  140.2994  155.9932 H   0  0  0  0  0  0  0  0  0  0  0  0  # atno 8009 bound_to 7997
  155.2439  140.0408  157.2969 H   0  0  0  0  0  0  0  0  0  0  0  0  # atno 8010 bound_to 7997
  140.3215  144.2699  150.6182 H   0  0  0  0  0  0  0  0  0  0  0  0  # atno 10167 bound_to 10162
  156.9086  130.5748  149.5647 H   0  0  0  0  0  0  0  0  0  0  0  0  # atno 10718 bound_to 10713
  153.0380  135.5149  154.7543 H   0  0  0  0  0  0  0  0  0  0  0  0  # atno 10763 bound_to 10752
  154.6504  135.2924  154.9996 H   0  0  0  0  0  0  0  0  0  0  0  0  # atno 10764 bound_to 10752
  154.0882  135.6654  153.4901 H   0  0  0  0  0  0  0  0  0  0  0  0  # atno 10765 bound_to 10752
  140.5711  134.0101  155.8009 H   0  0  0  0  0  0  0  0  0  0  0  0  # atno 11005 bound_to 11000
  144.9237  140.7897  143.5732 LP  0  0  0  0  0  0  0  0  0  0  0  0  # atno 17320 bound_to 7965
  145.2692  139.1961  143.4851 LP  0  0  0  0  0  0  0  0  0  0  0  0  # atno 17321 bound_to 7965
  140.5479  143.2211  151.7976 LP  0  0  0  0  0  0  0  0  0  0  0  0  # atno 17342 bound_to 10162
  139.4873  144.4515  151.9648 LP  0  0  0  0  0  0  0  0  0  0  0  0  # atno 17343 bound_to 10162
  156.0547  130.5610  150.9065 LP  0  0  0  0  0  0  0  0  0  0  0  0  # atno 17370 bound_to 10713
  157.5981  131.0942  150.9006 LP  0  0  0  0  0  0  0  0  0  0  0  0  # atno 17371 bound_to 10713
  141.1055  133.9700  157.3004 LP  0  0  0  0  0  0  0  0  0  0  0  0  # atno 17394 bound_to 11000
  139.9361  135.0196  156.8561 LP  0  0  0  0  0  0  0  0  0  0  0  0  # atno 17395 bound_to 11000

$$$$
