AV-unprocessed.smi:1558|AV-procd|sdf|6272|dock5
  -GOLD-   22720 6463D 1   1.00000     0.00000
 Structure written by MMmdl.
 36 37  0  0  0  0  0  0  0  0  1 V2000
  143.0484  132.9666  151.1480 N   0  0  0  0  0  0  0  0  0  0  0  0
  143.7590  132.1907  150.3253 C   0  0  0  0  0  0  0  0  0  0  0  0
  143.8289  132.4046  149.1169 O   0  0  0  0  0  0  0  0  0  0  0  0
  144.4971  131.0039  150.9471 C   0  0  0  0  0  0  0  0  0  0  0  0
  145.6545  131.4452  151.7051 N   0  0  0  0  0  0  0  0  0  0  0  0
  146.1632  132.7246  151.8181 C   0  0  0  0  0  0  0  0  0  0  0  0
  147.2510  132.6199  152.6377 C   0  0  0  0  0  0  0  0  0  0  0  0
  148.1404  133.6294  153.0847 N   0  0  0  0  0  0  0  0  0  0  0  0
  149.0854  133.5211  154.0327 C   0  0  0  0  0  0  0  0  0  0  0  0
  149.3348  132.4969  154.6685 O   0  0  0  0  0  0  0  0  0  0  0  0
  149.7385  134.6792  154.2028 N   0  0  0  0  0  0  0  0  0  0  0  0
  150.8306  134.9040  155.1445 C   0  0  0  0  0  0  0  0  0  0  0  0
  150.9918  136.3948  155.4871 C   0  0  2  0  0  0  0  0  0  0  0  0
  150.6528  137.3637  154.3544 C   0  0  0  0  0  0  0  0  0  0  0  0
  151.4290  138.5927  154.7680 C   0  0  0  0  0  0  0  0  0  0  0  0
  152.7039  137.9825  155.3454 C   0  0  0  0  0  0  0  0  0  0  0  0
  152.3489  136.6817  155.8101 O   0  0  0  0  0  0  0  0  0  0  0  0
  147.3449  131.2470  152.9829 C   0  0  0  0  0  0  0  0  0  0  0  0
  146.3772  130.5432  152.4156 N   0  0  0  0  0  0  0  0  0  0  0  0
  142.5460  133.7601  150.7771 H   0  0  0  0  0  0  0  0  0  0  0  0
  143.0142  132.7593  152.1355 H   0  0  0  0  0  0  0  0  0  0  0  0
  143.8216  130.4505  151.6017 H   0  0  0  0  0  0  0  0  0  0  0  0
  144.8280  130.3120  150.1713 H   0  0  0  0  0  0  0  0  0  0  0  0
  145.7104  133.5668  151.3164 H   0  0  0  0  0  0  0  0  0  0  0  0
  148.0467  134.5286  152.6355 H   0  0  0  0  0  0  0  0  0  0  0  0
  149.4627  135.4667  153.6346 H   0  0  0  0  0  0  0  0  0  0  0  0
  150.6018  134.3475  156.0535 H   0  0  0  0  0  0  0  0  0  0  0  0
  151.7684  134.4942  154.7655 H   0  0  0  0  0  0  0  0  0  0  0  0
  150.3898  136.6425  156.3631 H   0  0  0  0  0  0  0  0  0  0  0  0
  151.0276  136.9888  153.4009 H   0  0  0  0  0  0  0  0  0  0  0  0
  149.5825  137.5469  154.2546 H   0  0  0  0  0  0  0  0  0  0  0  0
  151.6196  139.2795  153.9427 H   0  0  0  0  0  0  0  0  0  0  0  0
  150.8855  139.1324  155.5445 H   0  0  0  0  0  0  0  0  0  0  0  0
  153.4630  137.8763  154.5698 H   0  0  0  0  0  0  0  0  0  0  0  0
  153.1232  138.5892  156.1482 H   0  0  0  0  0  0  0  0  0  0  0  0
  148.0668  130.7477  153.6120 H   0  0  0  0  0  0  0  0  0  0  0  0
  1  2  1  0  0  0  0
  1 20  1  0  0  0  0
  1 21  1  0  0  0  0
  2  3  2  0  0  0  0
  2  4  1  0  0  0  0
  4  5  1  0  0  0  0
  4 22  1  0  0  0  0
  4 23  1  0  0  0  0
  5 19  1  0  0  0  0
  5  6  1  0  0  0  0
  6  7  2  0  0  0  0
  6 24  1  0  0  0  0
  7  8  1  0  0  0  0
  7 18  1  0  0  0  0
  8  9  1  0  0  0  0
  8 25  1  0  0  0  0
  9 10  2  0  0  0  0
  9 11  1  0  0  0  0
 11 12  1  0  0  0  0
 11 26  1  0  0  0  0
 12 13  1  0  0  0  0
 12 27  1  0  0  0  0
 12 28  1  0  0  0  0
 13 17  1  0  0  0  0
 13 14  1  0  0  0  0
 13 29  1  0  0  0  0
 14 15  1  0  0  0  0
 14 30  1  0  0  0  0
 14 31  1  0  0  0  0
 15 16  1  0  0  0  0
 15 32  1  0  0  0  0
 15 33  1  0  0  0  0
 16 17  1  0  0  0  0
 16 34  1  0  0  0  0
 16 35  1  0  0  0  0
 18 19  2  0  0  0  0
 18 36  1  0  0  0  0
M  END
> <s_m_source_file>
AV-unprocessed.smi

> <i_m_source_file_index>
1558

> <i_lp_mmshare_version>
43012

> <i_f3d_flags>
0

> <s_epik_input>
W05IMl1DKD1PKVtDSDJdbjFbY0hdYyhbY0hdbjEpW05IXUMoPU8pW05IXVtDSDJdW0NAQEhdMltDSDJdW0NIMl1bQ0gyXU8y

> <s_epik_cmdline>
J2VwaWtfcHl0aG9uJywgJy1waCcsICc3LjAnLCAnLXRuJywgJzgnLCAnLW1hJywgJzIwMCcsICctbWV0YWxfYmluZGluZycsICctaW1hZScsICc8aW5maWxlLm1hZT4nLCAnLW9tYWUnLCAnPG91dGZpbGUubWFlPic=

> <r_lp_tautomer_probability>
1

> <r_epik_Ionization_Penalty>
4.01684e-05

> <r_epik_Ionization_Penalty_Charging>
0

> <r_epik_Ionization_Penalty_Neutral>
4.01684e-05

> <r_epik_State_Penalty>
-0

> <r_epik_Charging_Adjusted_Penalty>
0

> <i_epik_Tot_Q>
0

> <i_epik_Tot_abs_Q>
0

> <r_epik_Metal_State_Penalty>
-0

> <b_epik_Metal_Only>
0

> <s_lp_Force_Field>
OPLS_2005

> <r_lp_Energy>
20.4808

> <b_lp_Chiralities_Consistent>
1

> <s_lp_Variant>
AV-unprocessed.smi:1558-1

> <Gold.Version>
5.8.1

> <Gold.Id.Protein>
6NUR|6NUR_protein|mol2

> <Gold.PLP.Fitness>
45.0823

> <Gold.PLP.PLP>
-34.8326

> <Gold.PLP.part.hbond>
-4.5208

> <Gold.PLP.part.metal>
0.0000

> <Gold.PLP.part.buried>
-7.0889

> <Gold.PLP.part.nonpolar>
-25.7719

> <Gold.PLP.part.repulsive>
0.4979

> <Gold.PLP.ligand.clash>
0.0000

> <Gold.PLP.ligand.torsion>
0.6908

> <Gold.PLP.Chemscore.Hbond>
3.8643

> <Gold.PLP.Chemscore.CHOScore>
0.0000

> <Gold.PLP.Chemscore.Metal>
0.0000

> <Gold.Chemscore.Hbonds>
donor molecule, donor type, donor heavy atom, donor atom, acceptor molecule, acceptor atom, score
      L1  H     1    20       P1 10186  0.84
      L1  H     8    25       P1  7948  0.95
      L1  H    11    26       P1  7948  0.93
      P1  H 10752 10764       L1    17  0.99
      P1  H 10785 10796       L1     3  0.05

> <Gold.PLP.Chemscore.Internal.Correction>
0.0384

> <Gold.Rescore>
     Score         DG    S(hbond)    S(metal)    S(lipo)     H(rot)  DE(clash)    DE(int)     intcor
     13.04     -15.49       2.68        0.00      59.95       2.33       0.26       2.19       ----

> <Gold.Chemscore.Fitness>
13.0439

> <Gold.Chemscore.DG>
-15.4946

> <Gold.Chemscore.ZeroCoef>
-5.4800

> <Gold.Chemscore.Hbond>
2.6845

> <Gold.Chemscore.Metal>
0.0000

> <Gold.Chemscore.Lipo>
59.9490

> <Gold.Chemscore.Internal_Hbond>
0.0000

> <Gold.Chemscore.DEClash>
0.2649

> <Gold.Chemscore.DEInternal>
2.1858

> <Gold.Chemscore.Rot>
2.3303

> <Gold.Chemscore.Internal.Correction>
   9.000000E+99

> <Gold.Chemscore.Hbonds>
donor molecule, donor type, donor heavy atom, donor atom, acceptor molecule, acceptor atom, score
      L1  H     1    20       P1 10186  0.65
      L1  H     8    25       P1  7948  0.43
      L1  H    11    26       P1  7948  0.20
      P1  H 10752 10764       L1    17  0.31

> <Gold.Chemscore.Hbond.Weighted>
-8.9661

> <Gold.Chemscore.Metal.Weighted>
-0.0000

> <Gold.Chemscore.Lipo.Weighted>
-7.0140

> <Gold.Chemscore.Internal_Hbond.Weighted>
0.0000

> <Gold.Chemscore.DEClash.Weighted>
0.2649

> <Gold.Chemscore.DEInternal.Weighted>
2.1858

> <Gold.Chemscore.Rot.Weighted>
5.9656

> <Gold.Chemscore.Internal.Correction.Weighted>
   9.000000E+99

> <Gold.Protein.RotatedTorsions>
[ 6907 6896 6895 6894 ] final  117.93 input  -60.11 | X-H torsion
[ 7974 7965 7964 7962 ] final  -48.87 input  175.53 | X-H torsion
[ 8008 7997 7996 7995 ] final -146.96 input   59.86 | X-H torsion
[ 10167 10162 10161 10158 ] final  131.06 input  -65.29 | X-H torsion
[ 10718 10713 10712 10709 ] final   36.74 input   66.30 | X-H torsion
[ 10763 10752 10751 10750 ] final  -29.58 input  -60.55 | X-H torsion
[ 11005 11000 10999 10996 ] final  100.46 input  -57.11 | X-H torsion

> <Gold.Protein.ActiveResidues>
 VAL166  LYS551  ARG553  GLY616  TRP617  ASP618  TYR619  PRO620  LYS621  CYS622 
 ASP623  PHE694  ASN695  SER759  ASP760  ASP761  ALA762  ILE779  LEU786  VAL792 
 PHE793  MET794  SER795  GLU796  ALA797  LYS798  CYS799  TRP800  GLU811  SER814 

> <Gold.Protein.RotatedAtoms>
  152.4578  133.7759  159.6824 H   0  0  0  0  0  0  0  0  0  0  0  0  # atno 6907 bound_to 6896
  150.8511  133.7776  159.3031 H   0  0  0  0  0  0  0  0  0  0  0  0  # atno 6908 bound_to 6896
  151.5371  135.1071  159.9969 H   0  0  0  0  0  0  0  0  0  0  0  0  # atno 6909 bound_to 6896
  145.9466  140.7612  142.9526 H   0  0  0  0  0  0  0  0  0  0  0  0  # atno 7974 bound_to 7965
  155.5679  140.0631  157.2813 H   0  0  0  0  0  0  0  0  0  0  0  0  # atno 8008 bound_to 7997
  154.4370  140.1874  156.0895 H   0  0  0  0  0  0  0  0  0  0  0  0  # atno 8009 bound_to 7997
  156.0398  140.3297  155.7235 H   0  0  0  0  0  0  0  0  0  0  0  0  # atno 8010 bound_to 7997
  139.5401  144.6722  151.4653 H   0  0  0  0  0  0  0  0  0  0  0  0  # atno 10167 bound_to 10162
  157.3385  130.7535  149.6895 H   0  0  0  0  0  0  0  0  0  0  0  0  # atno 10718 bound_to 10713
  153.7669  135.6915  153.4914 H   0  0  0  0  0  0  0  0  0  0  0  0  # atno 10763 bound_to 10752
  153.1900  135.4474  155.0136 H   0  0  0  0  0  0  0  0  0  0  0  0  # atno 10764 bound_to 10752
  154.8132  135.3387  154.7181 H   0  0  0  0  0  0  0  0  0  0  0  0  # atno 10765 bound_to 10752
  139.8771  134.9141  156.4759 H   0  0  0  0  0  0  0  0  0  0  0  0  # atno 11005 bound_to 11000
  144.6788  140.2366  143.7349 LP  0  0  0  0  0  0  0  0  0  0  0  0  # atno 17320 bound_to 7965
  145.8228  139.2051  143.1928 LP  0  0  0  0  0  0  0  0  0  0  0  0  # atno 17321 bound_to 7965
  140.6627  143.8464  150.6906 LP  0  0  0  0  0  0  0  0  0  0  0  0  # atno 17342 bound_to 10162
  140.1863  143.4073  152.1896 LP  0  0  0  0  0  0  0  0  0  0  0  0  # atno 17343 bound_to 10162
  155.9704  130.4174  150.4280 LP  0  0  0  0  0  0  0  0  0  0  0  0  # atno 17370 bound_to 10713
  157.2323  131.0507  151.2485 LP  0  0  0  0  0  0  0  0  0  0  0  0  # atno 17371 bound_to 10713
  140.8762  133.7951  155.9417 LP  0  0  0  0  0  0  0  0  0  0  0  0  # atno 17394 bound_to 11000
  140.8901  134.2505  157.5099 LP  0  0  0  0  0  0  0  0  0  0  0  0  # atno 17395 bound_to 11000

$$$$
