AV-unprocessed.smi:72|AV-procd|sdf|710|dock9
  -GOLD-   2262017 33D 1   1.00000     0.00000
 Structure written by MMmdl.
 30 31  0  0  0  0  0  0  0  0  2 V2000
  146.3528  139.5193  152.6487 N   0  0  0  0  0  0  0  0  0  0  0  0
  147.4733  139.6877  153.4353 C   0  0  0  0  0  0  0  0  0  0  0  0
  148.4979  138.7677  153.2997 N   0  3  0  0  0  0  0  0  0  0  0  0
  149.6439  138.7833  153.9943 C   0  0  0  0  0  0  0  0  0  0  0  0
  149.8348  139.7283  154.8914 N   0  0  0  0  0  0  0  0  0  0  0  0
  151.1038  139.7781  155.6958 C   0  0  1  0  0  0  0  0  0  0  0  0
  150.7607  139.6030  157.0369 O   0  0  0  0  0  0  0  0  0  0  0  0
  151.6231  138.6443  157.6401 C   0  0  1  0  0  0  0  0  0  0  0  0
  150.9171  137.9818  158.8332 C   0  0  0  0  0  0  0  0  0  0  0  0
  151.8170  137.1379  159.5182 O   0  0  0  0  0  0  0  0  0  0  0  0
  151.9040  137.6851  156.4831 C   0  0  2  0  0  0  0  0  0  0  0  0
  153.0515  136.8846  156.6936 O   0  0  0  0  0  0  0  0  0  0  0  0
  152.0360  138.6264  155.2903 C   0  0  2  0  0  0  0  0  0  0  0  0
  153.3608  139.0895  155.1060 O   0  0  0  0  0  0  0  0  0  0  0  0
  148.8552  140.7363  155.0798 C   0  0  0  0  0  0  0  0  0  0  0  0
  149.0436  141.6489  155.8830 O   0  0  0  0  0  0  0  0  0  0  0  0
  147.6887  140.6338  154.3074 N   0  0  0  0  0  0  0  0  0  0  0  0
  151.5291  140.7738  155.5572 H   0  0  0  0  0  0  0  0  0  0  0  0
  152.5500  139.1331  157.9477 H   0  0  0  0  0  0  0  0  0  0  0  0
  151.0417  137.0345  156.3301 H   0  0  0  0  0  0  0  0  0  0  0  0
  151.7046  138.1548  154.3640 H   0  0  0  0  0  0  0  0  0  0  0  0
  145.5580  140.1428  152.6768 H   0  0  0  0  0  0  0  0  0  0  0  0
  146.2333  138.7622  151.9909 H   0  0  0  0  0  0  0  0  0  0  0  0
  150.3953  138.0265  153.8061 H   0  0  0  0  0  0  0  0  0  0  0  0
  150.5003  138.7252  159.5129 H   0  0  0  0  0  0  0  0  0  0  0  0
  150.0907  137.3623  158.4833 H   0  0  0  0  0  0  0  0  0  0  0  0
  152.6960  137.3409  159.2360 H   0  0  0  0  0  0  0  0  0  0  0  0
  153.5843  137.2883  157.3622 H   0  0  0  0  0  0  0  0  0  0  0  0
  153.4829  139.2994  154.1924 H   0  0  0  0  0  0  0  0  0  0  0  0
  148.3672  138.0276  152.6248 H   0  0  0  0  0  0  0  0  0  0  0  0
  1  2  1  0  0  0  0
  1 22  1  0  0  0  0
  1 23  1  0  0  0  0
  2 17  2  0  0  0  0
  2  3  1  0  0  0  0
  3  4  2  0  0  0  0
  3 30  1  0  0  0  0
  4  5  1  0  0  0  0
  4 24  1  0  0  0  0
  5  6  1  0  0  0  0
  5 15  1  0  0  0  0
  6 18  1  0  0  0  0
  6 13  1  0  0  0  0
  6  7  1  0  0  0  0
  7  8  1  0  0  0  0
  8 19  1  0  0  0  0
  8  9  1  0  0  0  0
  8 11  1  0  0  0  0
  9 10  1  0  0  0  0
  9 25  1  0  0  0  0
  9 26  1  0  0  0  0
 10 27  1  0  0  0  0
 11 20  1  0  0  0  0
 11 12  1  0  0  0  0
 11 13  1  0  0  0  0
 12 28  1  0  0  0  0
 13 21  1  0  0  0  0
 13 14  1  0  0  0  0
 14 29  1  0  0  0  0
 15 16  2  0  0  0  0
 15 17  1  0  0  0  0
M  CHG  1   3   1
M  END
> <s_m_source_file>
AV-unprocessed.smi

> <i_m_source_file_index>
72

> <i_lp_mmshare_version>
43012

> <i_f3d_flags>
0

> <s_epik_input>
W05IMl1jMW5bY0hdbihjKD1PKW4xKVtDQEBIXTJPW0NASF0oW0NIMl1bT0hdKVtDQEBIXShbT0hdKVtDQEhdMltPSF0=

> <s_epik_cmdline>
J2VwaWtfcHl0aG9uJywgJy1waCcsICc3LjAnLCAnLXRuJywgJzgnLCAnLW1hJywgJzIwMCcsICctbWV0YWxfYmluZGluZycsICctaW1hZScsICc8aW5maWxlLm1hZT4nLCAnLW9tYWUnLCAnPG91dGZpbGUubWFlPic=

> <r_lp_tautomer_probability>
4.77166e-05

> <r_epik_Ionization_Penalty>
0.104979

> <r_epik_Ionization_Penalty_Charging>
0.0999619

> <r_epik_Ionization_Penalty_Neutral>
0.00501745

> <r_epik_State_Penalty>
2.51541

> <r_epik_Charging_Adjusted_Penalty>
2.61537

> <i_epik_Tot_Q>
1

> <i_epik_Tot_abs_Q>
1

> <r_epik_Metal_State_Penalty>
3.53763

> <b_epik_Metal_Only>
0

> <s_epik_Chemistry_Notes>
This compound contains an acetal/aminal-like group ( X-CH(R)-Y where X, Y are N, S, or O) that may be acid/base labile, releasing an aldehyde.

> <s_lp_Force_Field>
OPLS_2005

> <r_lp_Energy>
34.5988

> <b_lp_Chiralities_Consistent>
1

> <s_lp_Variant>
AV-unprocessed.smi:72-48

> <Gold.Version>
5.8.1

> <Gold.Id.Protein>
6NUR|6NUR_protein|mol2

> <Gold.PLP.Fitness>
41.5885

> <Gold.PLP.PLP>
-24.9630

> <Gold.PLP.part.hbond>
-6.0000

> <Gold.PLP.part.metal>
0.0000

> <Gold.PLP.part.buried>
-4.0310

> <Gold.PLP.part.nonpolar>
-16.1864

> <Gold.PLP.part.repulsive>
0.3070

> <Gold.PLP.ligand.clash>
0.9021

> <Gold.PLP.ligand.torsion>
0.0648

> <Gold.PLP.Chemscore.Hbond>
5.8795

> <Gold.PLP.Chemscore.CHOScore>
0.0000

> <Gold.PLP.Chemscore.Metal>
0.0000

> <Gold.Chemscore.Hbonds>
donor molecule, donor type, donor heavy atom, donor atom, acceptor molecule, acceptor atom, score
      L1  H     1    22       P1 10175  1.00
      L1  H     3    30       P1  7948  1.98
      P1  H  6896  6909       L1    10  0.94
      P1  H  7997  8008       L1    14  0.85
      P1  H 10752 10765       L1    12  0.84

> <Gold.PLP.Chemscore.Internal.Correction>
0.0189

> <Gold.Rescore>
     Score         DG    S(hbond)    S(metal)    S(lipo)     H(rot)  DE(clash)    DE(int)     intcor
     11.24     -12.48       4.46        0.00      21.64       4.08       0.02       1.22       ----

> <Gold.Chemscore.Fitness>
11.2355

> <Gold.Chemscore.DG>
-12.4773

> <Gold.Chemscore.ZeroCoef>
-5.4800

> <Gold.Chemscore.Hbond>
4.4630

> <Gold.Chemscore.Metal>
0.0000

> <Gold.Chemscore.Lipo>
21.6353

> <Gold.Chemscore.Internal_Hbond>
0.0000

> <Gold.Chemscore.DEClash>
0.0183

> <Gold.Chemscore.DEInternal>
1.2234

> <Gold.Chemscore.Rot>
4.0783

> <Gold.Chemscore.Internal.Correction>
   9.000000E+99

> <Gold.Chemscore.Hbonds>
donor molecule, donor type, donor heavy atom, donor atom, acceptor molecule, acceptor atom, score
      L1  H     1    22       P1 10175  0.88
      L1  H     3    30       P1  7948  0.88
      P1  H  6896  6909       L1    10  0.58
      P1  H  7997  8008       L1    14  0.14
      P1  H 10752 10765       L1    12  0.75

> <Gold.Chemscore.Hbond.Weighted>
-14.9063

> <Gold.Chemscore.Metal.Weighted>
-0.0000

> <Gold.Chemscore.Lipo.Weighted>
-2.5313

> <Gold.Chemscore.Internal_Hbond.Weighted>
0.0000

> <Gold.Chemscore.DEClash.Weighted>
0.0183

> <Gold.Chemscore.DEInternal.Weighted>
1.2234

> <Gold.Chemscore.Rot.Weighted>
10.4404

> <Gold.Chemscore.Internal.Correction.Weighted>
   9.000000E+99

> <Gold.Protein.RotatedTorsions>
[ 6907 6896 6895 6894 ] final  132.39 input  -60.11 | X-H torsion
[ 7974 7965 7964 7962 ] final -151.46 input  175.53 | X-H torsion
[ 8008 7997 7996 7995 ] final   -4.46 input   59.86 | X-H torsion
[ 10167 10162 10161 10158 ] final  -52.43 input  -65.29 | X-H torsion
[ 10718 10713 10712 10709 ] final   88.47 input   66.30 | X-H torsion
[ 10763 10752 10751 10750 ] final -125.47 input  -60.55 | X-H torsion
[ 11005 11000 10999 10996 ] final   26.77 input  -57.11 | X-H torsion

> <Gold.Protein.ActiveResidues>
 VAL166  LYS551  ARG553  GLY616  TRP617  ASP618  TYR619  PRO620  LYS621  CYS622 
 ASP623  PHE694  ASN695  SER759  ASP760  ASP761  ALA762  ILE779  LEU786  VAL792 
 PHE793  MET794  SER795  GLU796  ALA797  LYS798  CYS799  TRP800  GLU811  SER814 

> <Gold.Protein.RotatedAtoms>
  152.3328  133.5978  159.5821 H   0  0  0  0  0  0  0  0  0  0  0  0  # atno 6907 bound_to 6896
  150.7433  133.9841  159.3594 H   0  0  0  0  0  0  0  0  0  0  0  0  # atno 6908 bound_to 6896
  151.7714  135.0786  160.0411 H   0  0  0  0  0  0  0  0  0  0  0  0  # atno 6909 bound_to 6896
  144.7849  140.4795  143.5813 H   0  0  0  0  0  0  0  0  0  0  0  0  # atno 7974 bound_to 7965
  154.6141  140.2483  155.7632 H   0  0  0  0  0  0  0  0  0  0  0  0  # atno 8008 bound_to 7997
  156.2388  140.2940  156.0336 H   0  0  0  0  0  0  0  0  0  0  0  0  # atno 8009 bound_to 7997
  155.2004  140.0394  157.2907 H   0  0  0  0  0  0  0  0  0  0  0  0  # atno 8010 bound_to 7997
  140.6538  143.2584  151.4646 H   0  0  0  0  0  0  0  0  0  0  0  0  # atno 10167 bound_to 10162
  157.6949  131.0296  150.3279 H   0  0  0  0  0  0  0  0  0  0  0  0  # atno 10718 bound_to 10713
  154.8736  135.4028  154.3273 H   0  0  0  0  0  0  0  0  0  0  0  0  # atno 10763 bound_to 10752
  153.4092  135.7020  153.6376 H   0  0  0  0  0  0  0  0  0  0  0  0  # atno 10764 bound_to 10752
  153.5086  135.3712  155.2546 H   0  0  0  0  0  0  0  0  0  0  0  0  # atno 10765 bound_to 10752
  140.3334  134.2412  155.7699 H   0  0  0  0  0  0  0  0  0  0  0  0  # atno 11005 bound_to 11000
  145.5950  139.1499  143.3161 LP  0  0  0  0  0  0  0  0  0  0  0  0  # atno 17320 bound_to 7965
  146.2075  140.6074  142.9074 LP  0  0  0  0  0  0  0  0  0  0  0  0  # atno 17321 bound_to 7965
  139.5757  144.1825  152.1899 LP  0  0  0  0  0  0  0  0  0  0  0  0  # atno 17342 bound_to 10162
  140.1135  144.5436  150.6909 LP  0  0  0  0  0  0  0  0  0  0  0  0  # atno 17343 bound_to 10162
  156.3757  130.3871  149.7141 LP  0  0  0  0  0  0  0  0  0  0  0  0  # atno 17370 bound_to 10713
  156.4540  130.7920  151.2941 LP  0  0  0  0  0  0  0  0  0  0  0  0  # atno 17371 bound_to 10713
  141.2057  133.7852  157.0216 LP  0  0  0  0  0  0  0  0  0  0  0  0  # atno 17394 bound_to 11000
  140.0841  134.9631  157.1672 LP  0  0  0  0  0  0  0  0  0  0  0  0  # atno 17395 bound_to 11000

$$$$
