AV-unprocessed.smi:50|AV-procd|sdf|491|dock8
  -GOLD-   2262016353D 1   1.00000     0.00000
 Structure written by MMmdl.
 44 45  0  0  0  0  0  0  0  0  2 V2000
  152.6968  144.8372  158.3499 C   0  0  0  0  0  0  0  0  0  0  0  0
  151.2681  144.7269  158.9148 C   0  0  0  0  0  0  0  0  0  0  0  0
  151.3372  144.4978  160.4375 C   0  0  0  0  0  0  0  0  0  0  0  0
  150.4375  143.6451  158.1707 C   0  0  2  0  0  0  0  0  0  0  0  0
  149.0090  143.7137  158.5358 N   0  3  0  0  0  0  0  0  0  0  0  0
  150.9004  142.2086  158.4703 C   0  0  0  0  0  0  0  0  0  0  0  0
  151.7921  141.9144  159.2689 O   0  0  0  0  0  0  0  0  0  0  0  0
  150.2113  141.3314  157.7224 O   0  0  0  0  0  0  0  0  0  0  0  0
  150.5052  139.9464  157.8091 C   0  0  0  0  0  0  0  0  0  0  0  0
  151.6864  139.6178  156.8922 C   0  0  0  0  0  0  0  0  0  0  0  0
  152.8572  139.4814  157.6817 O   0  0  0  0  0  0  0  0  0  0  0  0
  152.8780  138.3122  158.4327 C   0  0  0  0  0  0  0  0  0  0  0  0
  153.2923  138.6577  159.7809 N   0  0  0  0  0  0  0  0  0  0  0  0
  153.3385  139.8988  160.3662 C   0  0  0  0  0  0  0  0  0  0  0  0
  153.7633  139.8893  161.5988 N   0  0  0  0  0  0  0  0  0  0  0  0
  154.0308  138.5479  161.8563 C   0  0  0  0  0  0  0  0  0  0  0  0
  154.5298  137.9166  163.0452 C   0  0  0  0  0  0  0  0  0  0  0  0
  154.8296  138.4388  164.1169 O   0  0  0  0  0  0  0  0  0  0  0  0
  154.6678  136.5315  162.8893 N   0  0  0  0  0  0  0  0  0  0  0  0
  154.3574  135.8413  161.7200 C   0  0  0  0  0  0  0  0  0  0  0  0
  154.5492  134.5158  161.7323 N   0  0  0  0  0  0  0  0  0  0  0  0
  153.8945  136.4233  160.6278 N   0  0  0  0  0  0  0  0  0  0  0  0
  153.7467  137.7800  160.7432 C   0  0  0  0  0  0  0  0  0  0  0  0
  150.5067  143.8229  157.0968 H   0  0  0  0  0  0  0  0  0  0  0  0
  155.0169  136.0157  163.6838 H   0  0  0  0  0  0  0  0  0  0  0  0
  153.2355  143.8943  158.4508 H   0  0  0  0  0  0  0  0  0  0  0  0
  153.2692  145.6015  158.8766 H   0  0  0  0  0  0  0  0  0  0  0  0
  152.6991  145.1121  157.2952 H   0  0  0  0  0  0  0  0  0  0  0  0
  150.7855  145.6929  158.7571 H   0  0  0  0  0  0  0  0  0  0  0  0
  151.7467  143.5145  160.6715 H   0  0  0  0  0  0  0  0  0  0  0  0
  150.3564  144.5731  160.9070 H   0  0  0  0  0  0  0  0  0  0  0  0
  151.9729  145.2425  160.9176 H   0  0  0  0  0  0  0  0  0  0  0  0
  148.5493  142.8607  158.2510 H   0  0  0  0  0  0  0  0  0  0  0  0
  148.5786  144.5021  158.0742 H   0  0  0  0  0  0  0  0  0  0  0  0
  150.7659  139.7007  158.8396 H   0  0  0  0  0  0  0  0  0  0  0  0
  149.6315  139.3512  157.5399 H   0  0  0  0  0  0  0  0  0  0  0  0
  151.4889  138.7090  156.3214 H   0  0  0  0  0  0  0  0  0  0  0  0
  151.8235  140.4309  156.1777 H   0  0  0  0  0  0  0  0  0  0  0  0
  151.8858  137.8584  158.4558 H   0  0  0  0  0  0  0  0  0  0  0  0
  153.5970  137.6000  158.0248 H   0  0  0  0  0  0  0  0  0  0  0  0
  153.0463  140.8047  159.8553 H   0  0  0  0  0  0  0  0  0  0  0  0
  154.9032  134.0691  162.5660 H   0  0  0  0  0  0  0  0  0  0  0  0
  154.3408  133.9626  160.9137 H   0  0  0  0  0  0  0  0  0  0  0  0
  148.9260  143.8203  159.5369 H   0  0  0  0  0  0  0  0  0  0  0  0
  1  2  1  0  0  0  0
  1 26  1  0  0  0  0
  1 27  1  0  0  0  0
  1 28  1  0  0  0  0
  2  3  1  0  0  0  0
  2  4  1  0  0  0  0
  2 29  1  0  0  0  0
  3 30  1  0  0  0  0
  3 31  1  0  0  0  0
  3 32  1  0  0  0  0
  4 24  1  0  0  0  0
  4  5  1  0  0  0  0
  4  6  1  0  0  0  0
  5 33  1  0  0  0  0
  5 34  1  0  0  0  0
  5 44  1  0  0  0  0
  6  7  2  0  0  0  0
  6  8  1  0  0  0  0
  8  9  1  0  0  0  0
  9 10  1  0  0  0  0
  9 35  1  0  0  0  0
  9 36  1  0  0  0  0
 10 11  1  0  0  0  0
 10 37  1  0  0  0  0
 10 38  1  0  0  0  0
 11 12  1  0  0  0  0
 12 13  1  0  0  0  0
 12 39  1  0  0  0  0
 12 40  1  0  0  0  0
 13 23  1  0  0  0  0
 13 14  1  0  0  0  0
 14 15  2  0  0  0  0
 14 41  1  0  0  0  0
 15 16  1  0  0  0  0
 16 23  2  0  0  0  0
 16 17  1  0  0  0  0
 17 18  2  0  0  0  0
 17 19  1  0  0  0  0
 19 25  1  0  0  0  0
 19 20  1  0  0  0  0
 20 21  1  0  0  0  0
 20 22  2  0  0  0  0
 21 42  1  0  0  0  0
 21 43  1  0  0  0  0
 22 23  1  0  0  0  0
M  CHG  1   5   1
M  END
> <s_m_source_file>
AV-unprocessed.smi

> <i_m_source_file_index>
50

> <i_lp_mmshare_version>
43012

> <i_f3d_flags>
0

> <s_epik_input>
W0NIM11bQ0hdKFtDSDNdKVtDQEhdKFtOSDJdKUMoPU8pT1tDSDJdW0NIMl1PW0NIMl1uKFtjSF1uMSljKGMxMiluYyhbTkgyXSlbbkhdYzI9Tw==

> <s_epik_cmdline>
J2VwaWtfcHl0aG9uJywgJy1waCcsICc3LjAnLCAnLXRuJywgJzgnLCAnLW1hJywgJzIwMCcsICctbWV0YWxfYmluZGluZycsICctaW1hZScsICc8aW5maWxlLm1hZT4nLCAnLW9tYWUnLCAnPG91dGZpbGUubWFlPic=

> <r_lp_tautomer_probability>
0.99994

> <r_epik_Ionization_Penalty>
0.217551

> <r_epik_Ionization_Penalty_Charging>
0.217477

> <r_epik_Ionization_Penalty_Neutral>
7.42487e-05

> <r_epik_State_Penalty>
0.206211

> <r_epik_Charging_Adjusted_Penalty>
0.423688

> <i_epik_Tot_Q>
1

> <i_epik_Tot_abs_Q>
1

> <r_epik_Metal_State_Penalty>
0.526339

> <b_epik_Metal_Only>
0

> <s_epik_Chemistry_Notes>
This compound has an ester and may undergo hydrolysis at high or low pH. This compound contains an acetal/aminal-like group ( X-CH(R)-Y where X, Y are N, S, or O) that may be acid/base labile, releasing an aldehyde.

> <s_lp_Force_Field>
OPLS_2005

> <r_lp_Energy>
8.83135

> <b_lp_Chiralities_Consistent>
1

> <s_lp_Variant>
AV-unprocessed.smi:50-1

> <Gold.Version>
5.8.1

> <Gold.Id.Protein>
6NUR|6NUR_protein|mol2

> <Gold.PLP.Fitness>
41.9832

> <Gold.PLP.PLP>
-33.6439

> <Gold.PLP.part.hbond>
-3.2117

> <Gold.PLP.part.metal>
0.0000

> <Gold.PLP.part.buried>
-5.9786

> <Gold.PLP.part.nonpolar>
-24.9614

> <Gold.PLP.part.repulsive>
0.2144

> <Gold.PLP.ligand.clash>
0.0000

> <Gold.PLP.ligand.torsion>
1.0991

> <Gold.PLP.Chemscore.Hbond>
3.4875

> <Gold.PLP.Chemscore.CHOScore>
0.0000

> <Gold.PLP.Chemscore.Metal>
0.0000

> <Gold.Chemscore.Hbonds>
donor molecule, donor type, donor heavy atom, donor atom, acceptor molecule, acceptor atom, score
      L1  H     5    34       P1  8029  2.00
      P1  H  6896  6908       L1    22  0.28
      P1  H  7997  8009       L1    11  1.00

> <Gold.PLP.Chemscore.Internal.Correction>
0.0748

> <Gold.Rescore>
     Score         DG    S(hbond)    S(metal)    S(lipo)     H(rot)  DE(clash)    DE(int)     intcor
      4.06      -6.46       1.91        0.00      60.23       4.86       0.01       2.39       ----

> <Gold.Chemscore.Fitness>
4.0637

> <Gold.Chemscore.DG>
-6.4594

> <Gold.Chemscore.ZeroCoef>
-5.4800

> <Gold.Chemscore.Hbond>
1.9062

> <Gold.Chemscore.Metal>
0.0000

> <Gold.Chemscore.Lipo>
60.2299

> <Gold.Chemscore.Internal_Hbond>
0.0000

> <Gold.Chemscore.DEClash>
0.0106

> <Gold.Chemscore.DEInternal>
2.3851

> <Gold.Chemscore.Rot>
4.8571

> <Gold.Chemscore.Internal.Correction>
   9.000000E+99

> <Gold.Chemscore.Hbonds>
donor molecule, donor type, donor heavy atom, donor atom, acceptor molecule, acceptor atom, score
      L1  H     5    34       P1  8029  0.26
      P1  H  6896  6908       L1    22  0.07
      P1  H  7997  8009       L1    11  0.73

> <Gold.Chemscore.Hbond.Weighted>
-6.3668

> <Gold.Chemscore.Metal.Weighted>
-0.0000

> <Gold.Chemscore.Lipo.Weighted>
-7.0469

> <Gold.Chemscore.Internal_Hbond.Weighted>
0.0000

> <Gold.Chemscore.DEClash.Weighted>
0.0106

> <Gold.Chemscore.DEInternal.Weighted>
2.3851

> <Gold.Chemscore.Rot.Weighted>
12.4343

> <Gold.Chemscore.Internal.Correction.Weighted>
   9.000000E+99

> <Gold.Protein.RotatedTorsions>
[ 6907 6896 6895 6894 ] final  -82.52 input  -60.11 | X-H torsion
[ 7974 7965 7964 7962 ] final -112.26 input  175.53 | X-H torsion
[ 8008 7997 7996 7995 ] final  177.04 input   59.86 | X-H torsion
[ 10167 10162 10161 10158 ] final    7.85 input  -65.29 | X-H torsion
[ 10718 10713 10712 10709 ] final   69.55 input   66.30 | X-H torsion
[ 10763 10752 10751 10750 ] final  132.09 input  -60.55 | X-H torsion
[ 11005 11000 10999 10996 ] final  -74.65 input  -57.11 | X-H torsion

> <Gold.Protein.ActiveResidues>
 VAL166  LYS551  ARG553  GLY616  TRP617  ASP618  TYR619  PRO620  LYS621  CYS622 
 ASP623  PHE694  ASN695  SER759  ASP760  ASP761  ALA762  ILE779  LEU786  VAL792 
 PHE793  MET794  SER795  GLU796  ALA797  LYS798  CYS799  TRP800  GLU811  SER814 

> <Gold.Protein.RotatedAtoms>
  150.6896  134.3652  159.4967 H   0  0  0  0  0  0  0  0  0  0  0  0  # atno 6907 bound_to 6896
  152.1475  134.9012  160.0559 H   0  0  0  0  0  0  0  0  0  0  0  0  # atno 6908 bound_to 6896
  152.0122  133.3831  159.4261 H   0  0  0  0  0  0  0  0  0  0  0  0  # atno 6909 bound_to 6896
  145.1461  140.8804  143.3673 H   0  0  0  0  0  0  0  0  0  0  0  0  # atno 7974 bound_to 7965
  156.0699  140.1368  156.9841 H   0  0  0  0  0  0  0  0  0  0  0  0  # atno 8008 bound_to 7997
  154.4526  140.0974  156.6715 H   0  0  0  0  0  0  0  0  0  0  0  0  # atno 8009 bound_to 7997
  155.5244  140.3457  155.4415 H   0  0  0  0  0  0  0  0  0  0  0  0  # atno 8010 bound_to 7997
  140.6348  143.7910  150.7345 H   0  0  0  0  0  0  0  0  0  0  0  0  # atno 10167 bound_to 10162
  157.6352  130.9431  150.0528 H   0  0  0  0  0  0  0  0  0  0  0  0  # atno 10718 bound_to 10713
  153.7850  135.3163  155.3371 H   0  0  0  0  0  0  0  0  0  0  0  0  # atno 10763 bound_to 10752
  154.8147  135.4644  154.0615 H   0  0  0  0  0  0  0  0  0  0  0  0  # atno 10764 bound_to 10752
  153.1915  135.6909  153.8433 H   0  0  0  0  0  0  0  0  0  0  0  0  # atno 10765 bound_to 10752
  141.1637  133.6919  156.7397 H   0  0  0  0  0  0  0  0  0  0  0  0  # atno 11005 bound_to 11000
  145.0480  139.3205  143.5943 LP  0  0  0  0  0  0  0  0  0  0  0  0  # atno 17320 bound_to 7965
  146.3500  139.9878  142.8689 LP  0  0  0  0  0  0  0  0  0  0  0  0  # atno 17321 bound_to 7965
  140.1529  143.4341  152.2119 LP  0  0  0  0  0  0  0  0  0  0  0  0  # atno 17342 bound_to 10162
  139.5559  144.7372  151.4295 LP  0  0  0  0  0  0  0  0  0  0  0  0  # atno 17343 bound_to 10162
  156.1585  130.3643  149.9334 LP  0  0  0  0  0  0  0  0  0  0  0  0  # atno 17370 bound_to 10713
  156.7338  130.9053  151.3627 LP  0  0  0  0  0  0  0  0  0  0  0  0  # atno 17371 bound_to 10713
  140.2684  134.8412  157.3824 LP  0  0  0  0  0  0  0  0  0  0  0  0  # atno 17394 bound_to 11000
  140.1545  134.4807  155.7938 LP  0  0  0  0  0  0  0  0  0  0  0  0  # atno 17395 bound_to 11000

$$$$
