AV-unprocessed.smi:1672|AV-procd|sdf|6704|dock7
  -GOLD-   22720 7443D 1   1.00000     0.00000
 Structure written by MMmdl.
 48 50  0  0  0  0  0  0  0  0  2 V2000
  143.6651  142.6319  155.3704 C   0  0  0  0  0  0  0  0  0  0  0  0
  144.7536  143.6999  155.5768 C   0  0  2  0  0  0  0  0  0  0  0  0
  145.6556  143.8774  154.3420 C   0  0  0  0  0  0  0  0  0  0  0  0
  146.6402  142.7075  154.1672 C   0  0  0  0  0  0  0  0  0  0  0  0
  147.4659  142.5150  155.3889 N   0  3  2  0  0  0  0  0  0  0  0  0
  148.5248  141.4848  155.2294 C   0  0  0  0  0  0  0  0  0  0  0  0
  149.3508  141.2749  156.5140 C   0  0  1  0  0  0  0  0  0  0  0  0
  148.9032  140.0957  157.1541 O   0  0  0  0  0  0  0  0  0  0  0  0
  150.8567  141.1532  156.2076 C   0  0  0  0  0  0  0  0  0  0  0  0
  151.6552  140.9342  157.4068 N   0  0  0  0  0  0  0  0  0  0  0  0
  152.3639  139.8330  157.7655 C   0  0  0  0  0  0  0  0  0  0  0  0
  152.4285  138.6053  156.9094 C   0  0  0  0  0  0  0  0  0  0  0  0
  152.9462  138.8680  155.6232 O   0  0  0  0  0  0  0  0  0  0  0  0
  153.0061  139.9119  158.9313 N   0  0  0  0  0  0  0  0  0  0  0  0
  152.6927  141.1843  159.3672 C   0  0  0  0  0  0  0  0  0  0  0  0
  153.0714  141.8731  160.5416 C   0  0  0  0  0  0  0  0  0  0  0  0
  152.6209  143.1892  160.7738 C   0  0  0  0  0  0  0  0  0  0  0  0
  151.7874  143.8343  159.8374 C   0  0  0  0  0  0  0  0  0  0  0  0
  151.3977  143.1659  158.6607 C   0  0  0  0  0  0  0  0  0  0  0  0
  151.8498  141.8519  158.4344 C   0  0  0  0  0  0  0  0  0  0  0  0
  146.6206  142.2728  156.5864 C   0  0  0  0  0  0  0  0  0  0  0  0
  145.6285  143.4278  156.8140 C   0  0  0  0  0  0  0  0  0  0  0  0
  144.0861  141.6407  155.2042 H   0  0  0  0  0  0  0  0  0  0  0  0
  143.0409  142.8730  154.5095 H   0  0  0  0  0  0  0  0  0  0  0  0
  143.0105  142.5696  156.2402 H   0  0  0  0  0  0  0  0  0  0  0  0
  144.2319  144.6435  155.7427 H   0  0  0  0  0  0  0  0  0  0  0  0
  145.0481  143.9945  153.4439 H   0  0  0  0  0  0  0  0  0  0  0  0
  146.2233  144.8035  154.4444 H   0  0  0  0  0  0  0  0  0  0  0  0
  146.1016  141.7868  153.9389 H   0  0  0  0  0  0  0  0  0  0  0  0
  147.2757  142.9147  153.3075 H   0  0  0  0  0  0  0  0  0  0  0  0
  148.0715  140.5308  154.9547 H   0  0  0  0  0  0  0  0  0  0  0  0
  149.1732  141.7627  154.3971 H   0  0  0  0  0  0  0  0  0  0  0  0
  149.2042  142.1072  157.2014 H   0  0  0  0  0  0  0  0  0  0  0  0
  148.1618  140.3131  157.6997 H   0  0  0  0  0  0  0  0  0  0  0  0
  151.0402  140.3534  155.4903 H   0  0  0  0  0  0  0  0  0  0  0  0
  151.2127  142.0684  155.7327 H   0  0  0  0  0  0  0  0  0  0  0  0
  153.0631  137.8623  157.3935 H   0  0  0  0  0  0  0  0  0  0  0  0
  151.4384  138.1589  156.8208 H   0  0  0  0  0  0  0  0  0  0  0  0
  152.9859  138.0554  155.1430 H   0  0  0  0  0  0  0  0  0  0  0  0
  153.7105  141.3884  161.2648 H   0  0  0  0  0  0  0  0  0  0  0  0
  152.9178  143.7065  161.6745 H   0  0  0  0  0  0  0  0  0  0  0  0
  151.4484  144.8431  160.0229 H   0  0  0  0  0  0  0  0  0  0  0  0
  150.7606  143.6583  157.9413 H   0  0  0  0  0  0  0  0  0  0  0  0
  146.0907  141.3257  156.4767 H   0  0  0  0  0  0  0  0  0  0  0  0
  147.2547  142.1761  157.4686 H   0  0  0  0  0  0  0  0  0  0  0  0
  146.1892  144.3307  157.0596 H   0  0  0  0  0  0  0  0  0  0  0  0
  145.0015  143.2177  157.6812 H   0  0  0  0  0  0  0  0  0  0  0  0
  147.9487  143.3860  155.5597 H   0  0  0  0  0  0  0  0  0  0  0  0
  1  2  1  0  0  0  0
  1 23  1  0  0  0  0
  1 24  1  0  0  0  0
  1 25  1  0  0  0  0
  2 22  1  0  0  0  0
  2  3  1  0  0  0  0
  2 26  1  0  0  0  0
  3  4  1  0  0  0  0
  3 27  1  0  0  0  0
  3 28  1  0  0  0  0
  4  5  1  0  0  0  0
  4 29  1  0  0  0  0
  4 30  1  0  0  0  0
  5  6  1  0  0  0  0
  5 21  1  0  0  0  0
  5 48  1  0  0  0  0
  6  7  1  0  0  0  0
  6 31  1  0  0  0  0
  6 32  1  0  0  0  0
  7  8  1  0  0  0  0
  7  9  1  0  0  0  0
  7 33  1  0  0  0  0
  8 34  1  0  0  0  0
  9 10  1  0  0  0  0
  9 35  1  0  0  0  0
  9 36  1  0  0  0  0
 10 20  1  0  0  0  0
 10 11  1  0  0  0  0
 11 12  1  0  0  0  0
 11 14  2  0  0  0  0
 12 13  1  0  0  0  0
 12 37  1  0  0  0  0
 12 38  1  0  0  0  0
 13 39  1  0  0  0  0
 14 15  1  0  0  0  0
 15 20  2  0  0  0  0
 15 16  1  0  0  0  0
 16 17  2  0  0  0  0
 16 40  1  0  0  0  0
 17 18  1  0  0  0  0
 17 41  1  0  0  0  0
 18 19  2  0  0  0  0
 18 42  1  0  0  0  0
 19 20  1  0  0  0  0
 19 43  1  0  0  0  0
 21 22  1  0  0  0  0
 21 44  1  0  0  0  0
 21 45  1  0  0  0  0
 22 46  1  0  0  0  0
 22 47  1  0  0  0  0
M  CHG  1   5   1
M  END
> <s_m_source_file>
AV-unprocessed.smi

> <i_m_source_file_index>
1672

> <i_lp_mmshare_version>
43012

> <i_f3d_flags>
0

> <s_epik_input>
W0NIM11bQ0hdMVtDSDJdW0NIMl1OKFtDSDJdW0NIMl0xKVtDSDJdW0NASF0oW09IXSlbQ0gyXW4oYyhuMilbQ0gyXVtPSF0pYyhjMjMpW2NIXVtjSF1bY0hdW2NIXTM=

> <s_epik_cmdline>
J2VwaWtfcHl0aG9uJywgJy1waCcsICc3LjAnLCAnLXRuJywgJzgnLCAnLW1hJywgJzIwMCcsICctbWV0YWxfYmluZGluZycsICctaW1hZScsICc8aW5maWxlLm1hZT4nLCAnLW9tYWUnLCAnPG91dGZpbGUubWFlPic=

> <r_epik_Ionization_Penalty>
0.0498263

> <r_epik_Ionization_Penalty_Charging>
0.00181365

> <r_epik_Ionization_Penalty_Neutral>
0.0480127

> <r_epik_State_Penalty>
0.0408546

> <r_epik_Charging_Adjusted_Penalty>
0.0426682

> <i_epik_Tot_Q>
1

> <i_epik_Tot_abs_Q>
1

> <r_epik_Metal_State_Penalty>
4.22946e-05

> <b_epik_Metal_Only>
0

> <s_lp_Force_Field>
OPLS_2005

> <r_lp_Energy>
24.4653

> <b_lp_Chiralities_Consistent>
1

> <s_lp_Variant>
AV-unprocessed.smi:1672-4

> <Gold.Version>
5.8.1

> <Gold.Id.Protein>
6NUR|6NUR_protein|mol2

> <Gold.PLP.Fitness>
51.9764

> <Gold.PLP.PLP>
-44.2545

> <Gold.PLP.part.hbond>
-2.0000

> <Gold.PLP.part.metal>
0.0000

> <Gold.PLP.part.buried>
-6.5913

> <Gold.PLP.part.nonpolar>
-35.4463

> <Gold.PLP.part.repulsive>
0.0881

> <Gold.PLP.ligand.clash>
0.0000

> <Gold.PLP.ligand.torsion>
0.6759

> <Gold.PLP.Chemscore.Hbond>
3.0000

> <Gold.PLP.Chemscore.CHOScore>
0.0000

> <Gold.PLP.Chemscore.Metal>
0.0000

> <Gold.Chemscore.Hbonds>
donor molecule, donor type, donor heavy atom, donor atom, acceptor molecule, acceptor atom, score
      L1  H     5    48       P1  8028  2.00
      P1  H  7997  8009       L1    13  0.95

> <Gold.PLP.Chemscore.Internal.Correction>
0.0738

> <Gold.Rescore>
     Score         DG    S(hbond)    S(metal)    S(lipo)     H(rot)  DE(clash)    DE(int)     intcor
     16.50     -17.42       1.77        0.00     114.41       2.88       0.03       0.88       ----

> <Gold.Chemscore.Fitness>
16.5026

> <Gold.Chemscore.DG>
-17.4172

> <Gold.Chemscore.ZeroCoef>
-5.4800

> <Gold.Chemscore.Hbond>
1.7719

> <Gold.Chemscore.Metal>
0.0000

> <Gold.Chemscore.Lipo>
114.4129

> <Gold.Chemscore.Internal_Hbond>
0.0000

> <Gold.Chemscore.DEClash>
0.0348

> <Gold.Chemscore.DEInternal>
0.8798

> <Gold.Chemscore.Rot>
2.8778

> <Gold.Chemscore.Internal.Correction>
   9.000000E+99

> <Gold.Chemscore.Hbonds>
donor molecule, donor type, donor heavy atom, donor atom, acceptor molecule, acceptor atom, score
      L1  H     5    48       P1  8028  0.44
      P1  H  7997  8009       L1    13  0.21

> <Gold.Chemscore.Hbond.Weighted>
-5.9180

> <Gold.Chemscore.Metal.Weighted>
-0.0000

> <Gold.Chemscore.Lipo.Weighted>
-13.3863

> <Gold.Chemscore.Internal_Hbond.Weighted>
0.0000

> <Gold.Chemscore.DEClash.Weighted>
0.0348

> <Gold.Chemscore.DEInternal.Weighted>
0.8798

> <Gold.Chemscore.Rot.Weighted>
7.3671

> <Gold.Chemscore.Internal.Correction.Weighted>
   9.000000E+99

> <Gold.Protein.RotatedTorsions>
[ 6907 6896 6895 6894 ] final -110.03 input  -60.11 | X-H torsion
[ 7974 7965 7964 7962 ] final    4.14 input  175.53 | X-H torsion
[ 8008 7997 7996 7995 ] final -150.67 input   59.86 | X-H torsion
[ 10167 10162 10161 10158 ] final  -87.75 input  -65.29 | X-H torsion
[ 10718 10713 10712 10709 ] final -143.14 input   66.30 | X-H torsion
[ 10763 10752 10751 10750 ] final  124.98 input  -60.55 | X-H torsion
[ 11005 11000 10999 10996 ] final -120.85 input  -57.11 | X-H torsion

> <Gold.Protein.ActiveResidues>
 VAL166  LYS551  ARG553  GLY616  TRP617  ASP618  TYR619  PRO620  LYS621  CYS622 
 ASP623  PHE694  ASN695  SER759  ASP760  ASP761  ALA762  ILE779  LEU786  VAL792 
 PHE793  MET794  SER795  GLU796  ALA797  LYS798  CYS799  TRP800  GLU811  SER814 

> <Gold.Protein.RotatedAtoms>
  150.7599  133.9442  159.3465 H   0  0  0  0  0  0  0  0  0  0  0  0  # atno 6907 bound_to 6896
  151.7353  135.0864  160.0316 H   0  0  0  0  0  0  0  0  0  0  0  0  # atno 6908 bound_to 6896
  152.3563  133.6204  159.6018 H   0  0  0  0  0  0  0  0  0  0  0  0  # atno 6909 bound_to 6896
  146.2444  140.0579  142.8370 H   0  0  0  0  0  0  0  0  0  0  0  0  # atno 7974 bound_to 7965
  155.6272  140.0687  157.2660 H   0  0  0  0  0  0  0  0  0  0  0  0  # atno 8008 bound_to 7997
  154.4215  140.1774  156.1482 H   0  0  0  0  0  0  0  0  0  0  0  0  # atno 8009 bound_to 7997
  155.9962  140.3340  155.6804 H   0  0  0  0  0  0  0  0  0  0  0  0  # atno 8010 bound_to 7997
  140.3814  143.2747  151.9379 H   0  0  0  0  0  0  0  0  0  0  0  0  # atno 10167 bound_to 10162
  156.3543  130.7705  151.1862 H   0  0  0  0  0  0  0  0  0  0  0  0  # atno 10718 bound_to 10713
  153.6700  135.3332  155.3150 H   0  0  0  0  0  0  0  0  0  0  0  0  # atno 10763 bound_to 10752
  154.8493  135.4384  154.1715 H   0  0  0  0  0  0  0  0  0  0  0  0  # atno 10764 bound_to 10752
  153.2704  135.7000  153.7563 H   0  0  0  0  0  0  0  0  0  0  0  0  # atno 10765 bound_to 10752
  141.0114  134.0260  157.3409 H   0  0  0  0  0  0  0  0  0  0  0  0  # atno 11005 bound_to 11000
  145.0926  140.9294  143.4760 LP  0  0  0  0  0  0  0  0  0  0  0  0  # atno 17320 bound_to 7965
  145.0755  139.2999  143.5810 LP  0  0  0  0  0  0  0  0  0  0  0  0  # atno 17321 bound_to 7965
  139.4795  144.5814  151.7925 LP  0  0  0  0  0  0  0  0  0  0  0  0  # atno 17342 bound_to 10162
  140.4933  144.1278  150.5955 LP  0  0  0  0  0  0  0  0  0  0  0  0  # atno 17343 bound_to 10162
  157.7465  131.0418  150.4665 LP  0  0  0  0  0  0  0  0  0  0  0  0  # atno 17370 bound_to 10713
  156.4865  130.4085  149.6431 LP  0  0  0  0  0  0  0  0  0  0  0  0  # atno 17371 bound_to 10713
  139.9092  135.0186  156.7618 LP  0  0  0  0  0  0  0  0  0  0  0  0  # atno 17394 bound_to 11000
  140.6728  133.9544  155.7866 LP  0  0  0  0  0  0  0  0  0  0  0  0  # atno 17395 bound_to 11000

$$$$
