AV-unprocessed.smi:2226|AV-procd|sdf|9001|dock2
  -GOLD-   2272012213D 1   1.00000     0.00000
 Structure written by MMmdl.
 40 42  0  0  0  0  0  0  0  0  2 V2000
  142.9315  137.7882  154.8560 C   0  0  0  0  0  0  0  0  0  0  0  0
  144.1503  138.2284  154.1362 N   0  3  2  0  0  0  0  0  0  0  0  0
  144.7842  137.1878  153.2918 C   0  0  2  0  0  0  0  0  0  0  0  0
  145.4482  136.0851  154.1542 C   0  0  0  0  0  0  0  0  0  0  0  0
  146.3996  136.6205  155.2398 C   0  0  0  0  0  0  0  0  0  0  0  0
  145.8515  137.8756  155.9415 C   0  0  0  0  0  0  0  0  0  0  0  0
  145.1717  138.8867  154.9853 C   0  0  1  0  0  0  0  0  0  0  0  0
  146.1388  139.6888  154.0838 C   0  0  0  0  0  0  0  0  0  0  0  0
  146.6844  138.9369  152.8373 C   0  0  1  0  0  0  0  0  0  0  0  0
  148.0260  138.3915  153.0320 N   0  0  0  0  0  0  0  0  0  0  0  0
  148.9959  138.9428  153.7769 C   0  0  0  0  0  0  0  0  0  0  0  0
  148.8557  139.9920  154.4057 O   0  0  0  0  0  0  0  0  0  0  0  0
  150.1173  138.2041  153.7408 N   0  0  0  0  0  0  0  0  0  0  0  0
  151.3368  138.4549  154.4181 C   0  0  0  0  0  0  0  0  0  0  0  0
  152.3685  137.6172  154.5332 N   0  0  0  0  0  0  0  0  0  0  0  0
  153.3082  138.3205  155.2727 C   0  0  0  0  0  0  0  0  0  0  0  0
  152.7865  139.5545  155.5645 C   0  0  0  0  0  0  0  0  0  0  0  0
  151.5320  139.6548  155.0258 O   0  0  0  0  0  0  0  0  0  0  0  0
  145.7154  137.8715  152.2637 C   0  0  0  0  0  0  0  0  0  0  0  0
  143.1402  137.0057  155.5850 H   0  0  0  0  0  0  0  0  0  0  0  0
  142.1931  137.4046  154.1516 H   0  0  0  0  0  0  0  0  0  0  0  0
  142.4772  138.6278  155.3828 H   0  0  0  0  0  0  0  0  0  0  0  0
  143.9955  136.7051  152.7127 H   0  0  0  0  0  0  0  0  0  0  0  0
  144.6648  135.5049  154.6424 H   0  0  0  0  0  0  0  0  0  0  0  0
  145.9768  135.3761  153.5164 H   0  0  0  0  0  0  0  0  0  0  0  0
  146.5808  135.8407  155.9803 H   0  0  0  0  0  0  0  0  0  0  0  0
  147.3782  136.8236  154.8190 H   0  0  0  0  0  0  0  0  0  0  0  0
  145.1261  137.5607  156.6922 H   0  0  0  0  0  0  0  0  0  0  0  0
  146.6503  138.3651  156.4997 H   0  0  0  0  0  0  0  0  0  0  0  0
  144.6603  139.6200  155.6107 H   0  0  0  0  0  0  0  0  0  0  0  0
  145.5828  140.5517  153.7144 H   0  0  0  0  0  0  0  0  0  0  0  0
  146.9468  140.1141  154.6799 H   0  0  0  0  0  0  0  0  0  0  0  0
  146.8058  139.6831  152.0492 H   0  0  0  0  0  0  0  0  0  0  0  0
  148.2365  137.5287  152.5518 H   0  0  0  0  0  0  0  0  0  0  0  0
  150.0982  137.3711  153.1714 H   0  0  0  0  0  0  0  0  0  0  0  0
  154.2655  137.8924  155.5310 H   0  0  0  0  0  0  0  0  0  0  0  0
  153.1527  140.4141  156.1060 H   0  0  0  0  0  0  0  0  0  0  0  0
  146.2564  137.1250  151.6803 H   0  0  0  0  0  0  0  0  0  0  0  0
  145.0720  138.3790  151.5432 H   0  0  0  0  0  0  0  0  0  0  0  0
  143.8262  138.9403  153.4972 H   0  0  0  0  0  0  0  0  0  0  0  0
  1  2  1  0  0  0  0
  1 20  1  0  0  0  0
  1 21  1  0  0  0  0
  1 22  1  0  0  0  0
  2  7  1  0  0  0  0
  2  3  1  0  0  0  0
  2 40  1  0  0  0  0
  3 19  1  0  0  0  0
  3  4  1  0  0  0  0
  3 23  1  0  0  0  0
  4  5  1  0  0  0  0
  4 24  1  0  0  0  0
  4 25  1  0  0  0  0
  5  6  1  0  0  0  0
  5 26  1  0  0  0  0
  5 27  1  0  0  0  0
  6  7  1  0  0  0  0
  6 28  1  0  0  0  0
  6 29  1  0  0  0  0
  7  8  1  0  0  0  0
  7 30  1  0  0  0  0
  8  9  1  0  0  0  0
  8 31  1  0  0  0  0
  8 32  1  0  0  0  0
  9 10  1  0  0  0  0
  9 19  1  0  0  0  0
  9 33  1  0  0  0  0
 10 11  1  0  0  0  0
 10 34  1  0  0  0  0
 11 12  2  0  0  0  0
 11 13  1  0  0  0  0
 13 14  1  0  0  0  0
 13 35  1  0  0  0  0
 14 18  1  0  0  0  0
 14 15  2  0  0  0  0
 15 16  1  0  0  0  0
 16 17  2  0  0  0  0
 16 36  1  0  0  0  0
 17 18  1  0  0  0  0
 17 37  1  0  0  0  0
 19 38  1  0  0  0  0
 19 39  1  0  0  0  0
M  CHG  1   2   1
M  END
> <s_m_source_file>
AV-unprocessed.smi

> <i_m_source_file_index>
2226

> <i_lp_mmshare_version>
43012

> <i_f3d_flags>
0

> <s_epik_input>
W0NIMl0xW0NIMl1bQ0gyXVtDQEhdKE4oW0NIM10pW0NIXTEyKVtDSDJdW0NASF0oW0NIMl0yKVtOSF1DKD1PKVtOSF1jM25bY0hdW2NIXW8z

> <s_epik_cmdline>
J2VwaWtfcHl0aG9uJywgJy1waCcsICc3LjAnLCAnLXRuJywgJzgnLCAnLW1hJywgJzIwMCcsICctbWV0YWxfYmluZGluZycsICctaW1hZScsICc8aW5maWxlLm1hZT4nLCAnLW9tYWUnLCAnPG91dGZpbGUubWFlPic=

> <r_lp_tautomer_probability>
0.785861

> <r_epik_Ionization_Penalty>
0.000929358

> <r_epik_Ionization_Penalty_Charging>
0.000890041

> <r_epik_Ionization_Penalty_Neutral>
3.93161e-05

> <r_epik_State_Penalty>
0.0312137

> <r_epik_Charging_Adjusted_Penalty>
0.0321037

> <i_epik_Tot_Q>
1

> <i_epik_Tot_abs_Q>
1

> <r_epik_Metal_State_Penalty>
0.0605703

> <b_epik_Metal_Only>
0

> <s_lp_Force_Field>
OPLS_2005

> <r_lp_Energy>
36.0435

> <b_lp_Chiralities_Consistent>
1

> <s_lp_Variant>
AV-unprocessed.smi:2226-1

> <Gold.Version>
5.8.1

> <Gold.Id.Protein>
6NUR|6NUR_protein|mol2

> <Gold.PLP.Fitness>
34.9852

> <Gold.PLP.PLP>
-19.0497

> <Gold.PLP.part.hbond>
-6.4904

> <Gold.PLP.part.metal>
0.0000

> <Gold.PLP.part.buried>
3.6504

> <Gold.PLP.part.nonpolar>
-17.5649

> <Gold.PLP.part.repulsive>
0.3624

> <Gold.PLP.ligand.clash>
0.0000

> <Gold.PLP.ligand.torsion>
0.3119

> <Gold.PLP.Chemscore.Hbond>
5.5013

> <Gold.PLP.Chemscore.CHOScore>
0.0000

> <Gold.PLP.Chemscore.Metal>
0.0000

> <Gold.Chemscore.Hbonds>
donor molecule, donor type, donor heavy atom, donor atom, acceptor molecule, acceptor atom, score
      L1  H     2    40       P1 10175  2.00
      L1  H    10    34       P1  7948  1.00
      L1  H    13    35       P1  7948  0.84
      P1  H  7989  7998       L1    18  1.00
      P1  H 10752 10765       L1    15  0.67

> <Gold.PLP.Chemscore.Internal.Correction>
0.0553

> <Gold.Rescore>
     Score         DG    S(hbond)    S(metal)    S(lipo)     H(rot)  DE(clash)    DE(int)     intcor
     13.43     -19.37       3.37        0.00      44.39       1.00       2.74       3.20       ----

> <Gold.Chemscore.Fitness>
13.4252

> <Gold.Chemscore.DG>
-19.3705

> <Gold.Chemscore.ZeroCoef>
-5.4800

> <Gold.Chemscore.Hbond>
3.3703

> <Gold.Chemscore.Metal>
0.0000

> <Gold.Chemscore.Lipo>
44.3892

> <Gold.Chemscore.Internal_Hbond>
0.0000

> <Gold.Chemscore.DEClash>
2.7415

> <Gold.Chemscore.DEInternal>
3.2038

> <Gold.Chemscore.Rot>
1.0000

> <Gold.Chemscore.Internal.Correction>
   9.000000E+99

> <Gold.Chemscore.Hbonds>
donor molecule, donor type, donor heavy atom, donor atom, acceptor molecule, acceptor atom, score
      L1  H     2    40       P1 10175  1.00
      L1  H    10    34       P1  7948  0.99
      L1  H    13    35       P1  7948  0.15
      P1  H  7989  7998       L1    18  0.21
      P1  H 10752 10765       L1    15  0.45

> <Gold.Chemscore.Hbond.Weighted>
-11.2569

> <Gold.Chemscore.Metal.Weighted>
-0.0000

> <Gold.Chemscore.Lipo.Weighted>
-5.1935

> <Gold.Chemscore.Internal_Hbond.Weighted>
0.0000

> <Gold.Chemscore.DEClash.Weighted>
2.7415

> <Gold.Chemscore.DEInternal.Weighted>
3.2038

> <Gold.Chemscore.Rot.Weighted>
2.5600

> <Gold.Chemscore.Internal.Correction.Weighted>
   9.000000E+99

> <Gold.Protein.RotatedTorsions>
[ 6907 6896 6895 6894 ] final  -54.11 input  -60.11 | X-H torsion
[ 7974 7965 7964 7962 ] final -177.52 input  175.53 | X-H torsion
[ 8008 7997 7996 7995 ] final  142.06 input   59.86 | X-H torsion
[ 10167 10162 10161 10158 ] final   35.67 input  -65.29 | X-H torsion
[ 10718 10713 10712 10709 ] final -121.96 input   66.30 | X-H torsion
[ 10763 10752 10751 10750 ] final  158.30 input  -60.55 | X-H torsion
[ 11005 11000 10999 10996 ] final  168.67 input  -57.11 | X-H torsion

> <Gold.Protein.ActiveResidues>
 VAL166  LYS551  ARG553  GLY616  TRP617  ASP618  TYR619  PRO620  LYS621  CYS622 
 ASP623  PHE694  ASN695  SER759  ASP760  ASP761  ALA762  ILE779  LEU786  VAL792 
 PHE793  MET794  SER795  GLU796  ALA797  LYS798  CYS799  TRP800  GLU811  SER814 

> <Gold.Protein.RotatedAtoms>
  150.8367  134.7643  159.6898 H   0  0  0  0  0  0  0  0  0  0  0  0  # atno 6907 bound_to 6896
  152.4462  134.5486  159.9870 H   0  0  0  0  0  0  0  0  0  0  0  0  # atno 6908 bound_to 6896
  151.5635  133.3362  159.3011 H   0  0  0  0  0  0  0  0  0  0  0  0  # atno 6909 bound_to 6896
  144.7128  140.1007  143.6416 H   0  0  0  0  0  0  0  0  0  0  0  0  # atno 7974 bound_to 7965
  156.2956  140.2298  156.4667 H   0  0  0  0  0  0  0  0  0  0  0  0  # atno 8008 bound_to 7997
  154.7971  140.0450  157.1266 H   0  0  0  0  0  0  0  0  0  0  0  0  # atno 8009 bound_to 7997
  154.9577  140.3050  155.5049 H   0  0  0  0  0  0  0  0  0  0  0  0  # atno 8010 bound_to 7997
  140.4200  144.1473  150.6147 H   0  0  0  0  0  0  0  0  0  0  0  0  # atno 10167 bound_to 10162
  156.1379  130.6444  150.9725 H   0  0  0  0  0  0  0  0  0  0  0  0  # atno 10718 bound_to 10713
  154.2139  135.2785  155.2949 H   0  0  0  0  0  0  0  0  0  0  0  0  # atno 10763 bound_to 10752
  154.5756  135.5605  153.7140 H   0  0  0  0  0  0  0  0  0  0  0  0  # atno 10764 bound_to 10752
  153.0057  135.6332  154.2278 H   0  0  0  0  0  0  0  0  0  0  0  0  # atno 10765 bound_to 10752
  140.2897  134.7683  157.3828 H   0  0  0  0  0  0  0  0  0  0  0  0  # atno 11005 bound_to 11000
  145.9540  139.2754  143.1195 LP  0  0  0  0  0  0  0  0  0  0  0  0  # atno 17320 bound_to 7965
  145.9292  140.9060  143.0365 LP  0  0  0  0  0  0  0  0  0  0  0  0  # atno 17321 bound_to 7965
  140.4544  143.2473  151.9304 LP  0  0  0  0  0  0  0  0  0  0  0  0  # atno 17342 bound_to 10162
  139.4782  144.5530  151.8357 LP  0  0  0  0  0  0  0  0  0  0  0  0  # atno 17343 bound_to 10162
  157.6549  131.0891  150.7969 LP  0  0  0  0  0  0  0  0  0  0  0  0  # atno 17370 bound_to 10713
  156.8047  130.4932  149.5364 LP  0  0  0  0  0  0  0  0  0  0  0  0  # atno 17371 bound_to 10713
  140.1207  134.5224  155.8186 LP  0  0  0  0  0  0  0  0  0  0  0  0  # atno 17394 bound_to 11000
  141.2148  133.6755  156.6860 LP  0  0  0  0  0  0  0  0  0  0  0  0  # atno 17395 bound_to 11000

$$$$
