AV-unprocessed.smi:101|AV-procd|sdf|915|dock4
  -GOLD-   2262017413D 1   1.00000     0.00000
 Structure written by MMmdl.
 44 46  0  0  0  0  0  0  0  0  1 V2000
  145.3423  139.4012  158.2212 C   0  0  0  0  0  0  0  0  0  0  0  0
  146.4633  138.4464  157.8450 C   0  0  0  0  0  0  0  0  0  0  0  0
  147.5299  138.8325  157.0985 C   0  0  0  0  0  0  0  0  0  0  0  0
  148.5767  137.9858  156.7519 N   0  0  0  0  0  0  0  0  0  0  0  0
  149.7642  138.4509  155.9328 C   0  0  2  0  0  0  0  0  0  0  0  0
  150.3227  139.5895  156.5246 O   0  0  0  0  0  0  0  0  0  0  0  0
  150.3778  140.6611  155.5893 C   0  0  2  0  0  0  0  0  0  0  0  0
  150.2529  142.0126  156.3108 C   0  0  0  0  0  0  0  0  0  0  0  0
  150.9458  141.9655  157.5481 O   0  0  0  0  0  0  0  0  0  0  0  0
  151.5925  143.0451  158.0210 C   0  0  0  0  0  0  0  0  0  0  0  0
  151.6522  144.1236  157.4275 O   0  0  0  0  0  0  0  0  0  0  0  0
  152.2379  142.7905  159.3410 C   0  0  0  0  0  0  0  0  0  0  0  0
  153.1188  141.6933  159.4829 C   0  0  0  0  0  0  0  0  0  0  0  0
  153.7368  141.4258  160.7199 C   0  0  0  0  0  0  0  0  0  0  0  0
  153.4847  142.2544  161.8287 C   0  0  0  0  0  0  0  0  0  0  0  0
  152.6153  143.3526  161.6989 C   0  0  0  0  0  0  0  0  0  0  0  0
  151.9939  143.6203  160.4637 C   0  0  0  0  0  0  0  0  0  0  0  0
  149.2840  140.3467  154.5679 C   0  0  1  0  0  0  0  0  0  0  0  0
  149.4965  140.9716  153.3161 O   0  0  0  0  0  0  0  0  0  0  0  0
  149.3273  138.8261  154.5015 C   0  0  1  0  0  0  0  0  0  0  0  0
  150.2519  138.3392  153.5458 O   0  0  0  0  0  0  0  0  0  0  0  0
  148.5503  136.6457  157.1905 C   0  0  0  0  0  0  0  0  0  0  0  0
  149.4435  135.8418  156.9247 O   0  0  0  0  0  0  0  0  0  0  0  0
  147.4521  136.2461  157.9490 N   0  0  0  0  0  0  0  0  0  0  0  0
  146.3795  137.0616  158.3169 C   0  0  0  0  0  0  0  0  0  0  0  0
  145.4627  136.5920  158.9889 O   0  0  0  0  0  0  0  0  0  0  0  0
  147.4296  135.2860  158.2610 H   0  0  0  0  0  0  0  0  0  0  0  0
  145.5288  140.4114  157.8558 H   0  0  0  0  0  0  0  0  0  0  0  0
  145.2349  139.4565  159.3050 H   0  0  0  0  0  0  0  0  0  0  0  0
  144.3954  139.0618  157.8003 H   0  0  0  0  0  0  0  0  0  0  0  0
  147.5513  139.8597  156.7704 H   0  0  0  0  0  0  0  0  0  0  0  0
  150.4832  137.6300  155.9811 H   0  0  0  0  0  0  0  0  0  0  0  0
  151.3534  140.6019  155.1037 H   0  0  0  0  0  0  0  0  0  0  0  0
  150.6488  142.8044  155.6733 H   0  0  0  0  0  0  0  0  0  0  0  0
  149.2042  142.2411  156.5029 H   0  0  0  0  0  0  0  0  0  0  0  0
  153.3271  141.0431  158.6453 H   0  0  0  0  0  0  0  0  0  0  0  0
  154.4055  140.5833  160.8172 H   0  0  0  0  0  0  0  0  0  0  0  0
  153.9589  142.0484  162.7769 H   0  0  0  0  0  0  0  0  0  0  0  0
  152.4210  143.9899  162.5489 H   0  0  0  0  0  0  0  0  0  0  0  0
  151.3287  144.4691  160.4008 H   0  0  0  0  0  0  0  0  0  0  0  0
  148.3059  140.6431  154.9479 H   0  0  0  0  0  0  0  0  0  0  0  0
  149.4474  140.3133  152.6397 H   0  0  0  0  0  0  0  0  0  0  0  0
  148.3469  138.4136  154.2599 H   0  0  0  0  0  0  0  0  0  0  0  0
  149.8268  137.6687  153.0330 H   0  0  0  0  0  0  0  0  0  0  0  0
  1  2  1  0  0  0  0
  1 28  1  0  0  0  0
  1 29  1  0  0  0  0
  1 30  1  0  0  0  0
  2 25  1  0  0  0  0
  2  3  2  0  0  0  0
  3  4  1  0  0  0  0
  3 31  1  0  0  0  0
  4  5  1  0  0  0  0
  4 22  1  0  0  0  0
  5 20  1  0  0  0  0
  5  6  1  0  0  0  0
  5 32  1  0  0  0  0
  6  7  1  0  0  0  0
  7  8  1  0  0  0  0
  7 18  1  0  0  0  0
  7 33  1  0  0  0  0
  8  9  1  0  0  0  0
  8 34  1  0  0  0  0
  8 35  1  0  0  0  0
  9 10  1  0  0  0  0
 10 11  2  0  0  0  0
 10 12  1  0  0  0  0
 12 17  1  0  0  0  0
 12 13  2  0  0  0  0
 13 14  1  0  0  0  0
 13 36  1  0  0  0  0
 14 15  2  0  0  0  0
 14 37  1  0  0  0  0
 15 16  1  0  0  0  0
 15 38  1  0  0  0  0
 16 17  2  0  0  0  0
 16 39  1  0  0  0  0
 17 40  1  0  0  0  0
 18 19  1  0  0  0  0
 18 20  1  0  0  0  0
 18 41  1  0  0  0  0
 19 42  1  0  0  0  0
 20 21  1  0  0  0  0
 20 43  1  0  0  0  0
 21 44  1  0  0  0  0
 22 23  2  0  0  0  0
 22 24  1  0  0  0  0
 24 27  1  0  0  0  0
 24 25  1  0  0  0  0
 25 26  2  0  0  0  0
M  END
> <s_m_source_file>
AV-unprocessed.smi

> <i_m_source_file_index>
101

> <i_lp_mmshare_version>
43012

> <i_f3d_flags>
0

> <s_epik_input>
Tz1jMVtuSF1jKD1PKW4oW2NIXWMxW0NIM10pW0NAQEhdMk9bQ0BIXShbQ0BASF0oW09IXSlbQ0BIXTJbT0hdKVtDSDJdT0MoPU8pYzNbY0hdW2NIXVtjSF1bY0hdW2NIXTM=

> <s_epik_cmdline>
J2VwaWtfcHl0aG9uJywgJy1waCcsICc3LjAnLCAnLXRuJywgJzgnLCAnLW1hJywgJzIwMCcsICctbWV0YWxfYmluZGluZycsICctaW1hZScsICc8aW5maWxlLm1hZT4nLCAnLW9tYWUnLCAnPG91dGZpbGUubWFlPic=

> <r_lp_tautomer_probability>
0.999537

> <r_epik_Ionization_Penalty>
0.00263537

> <r_epik_Ionization_Penalty_Charging>
0.00263428

> <r_epik_Ionization_Penalty_Neutral>
1.09111e-06

> <r_epik_State_Penalty>
0.00183335

> <r_epik_Charging_Adjusted_Penalty>
0.00446763

> <i_epik_Tot_Q>
0

> <i_epik_Tot_abs_Q>
0

> <r_epik_Metal_State_Penalty>
1.00528

> <b_epik_Metal_Only>
0

> <s_epik_Chemistry_Notes>
This compound has an ester and may undergo hydrolysis at high or low pH. This compound contains an acetal/aminal-like group ( X-CH(R)-Y where X, Y are N, S, or O) that may be acid/base labile, releasing an aldehyde.

> <s_lp_Force_Field>
OPLS_2005

> <r_lp_Energy>
35.2309

> <b_lp_Chiralities_Consistent>
1

> <s_lp_Variant>
AV-unprocessed.smi:101-3

> <Gold.Version>
5.8.1

> <Gold.Id.Protein>
6NUR|6NUR_protein|mol2

> <Gold.PLP.Fitness>
47.5875

> <Gold.PLP.PLP>
-41.7108

> <Gold.PLP.part.hbond>
-4.6036

> <Gold.PLP.part.metal>
0.0000

> <Gold.PLP.part.buried>
-5.0936

> <Gold.PLP.part.nonpolar>
-32.3969

> <Gold.PLP.part.repulsive>
0.2026

> <Gold.PLP.ligand.clash>
0.0000

> <Gold.PLP.ligand.torsion>
1.5363

> <Gold.PLP.Chemscore.Hbond>
2.9701

> <Gold.PLP.Chemscore.CHOScore>
0.0000

> <Gold.PLP.Chemscore.Metal>
0.0000

> <Gold.Chemscore.Hbonds>
donor molecule, donor type, donor heavy atom, donor atom, acceptor molecule, acceptor atom, score
      L1  H    19    42       P1  7957  0.86
      L1  H    21    44       P1  7948  1.00
      P1  H  7989  7998       L1    19  0.09
      P1  H  8011  8017       L1    19  1.00

> <Gold.PLP.Chemscore.Internal.Correction>
0.0390

> <Gold.Rescore>
     Score         DG    S(hbond)    S(metal)    S(lipo)     H(rot)  DE(clash)    DE(int)     intcor
     13.45     -14.85       2.16        0.00      91.16       3.32       0.02       1.39       ----

> <Gold.Chemscore.Fitness>
13.4462

> <Gold.Chemscore.DG>
-14.8547

> <Gold.Chemscore.ZeroCoef>
-5.4800

> <Gold.Chemscore.Hbond>
2.1560

> <Gold.Chemscore.Metal>
0.0000

> <Gold.Chemscore.Lipo>
91.1586

> <Gold.Chemscore.Internal_Hbond>
0.0000

> <Gold.Chemscore.DEClash>
0.0234

> <Gold.Chemscore.DEInternal>
1.3851

> <Gold.Chemscore.Rot>
3.3172

> <Gold.Chemscore.Internal.Correction>
   9.000000E+99

> <Gold.Chemscore.Hbonds>
donor molecule, donor type, donor heavy atom, donor atom, acceptor molecule, acceptor atom, score
      L1  H    19    42       P1  7957  0.79
      L1  H    21    44       P1  7948  0.48
      P1  H  8011  8017       L1    19  0.25

> <Gold.Chemscore.Hbond.Weighted>
-7.2012

> <Gold.Chemscore.Metal.Weighted>
-0.0000

> <Gold.Chemscore.Lipo.Weighted>
-10.6656

> <Gold.Chemscore.Internal_Hbond.Weighted>
0.0000

> <Gold.Chemscore.DEClash.Weighted>
0.0234

> <Gold.Chemscore.DEInternal.Weighted>
1.3851

> <Gold.Chemscore.Rot.Weighted>
8.4920

> <Gold.Chemscore.Internal.Correction.Weighted>
   9.000000E+99

> <Gold.Protein.RotatedTorsions>
[ 6907 6896 6895 6894 ] final  -26.46 input  -60.11 | X-H torsion
[ 7974 7965 7964 7962 ] final  -61.72 input  175.53 | X-H torsion
[ 8008 7997 7996 7995 ] final -155.02 input   59.86 | X-H torsion
[ 10167 10162 10161 10158 ] final  -99.61 input  -65.29 | X-H torsion
[ 10718 10713 10712 10709 ] final  104.16 input   66.30 | X-H torsion
[ 10763 10752 10751 10750 ] final   -5.31 input  -60.55 | X-H torsion
[ 11005 11000 10999 10996 ] final   83.44 input  -57.11 | X-H torsion

> <Gold.Protein.ActiveResidues>
 VAL166  LYS551  ARG553  GLY616  TRP617  ASP618  TYR619  PRO620  LYS621  CYS622 
 ASP623  PHE694  ASN695  SER759  ASP760  ASP761  ALA762  ILE779  LEU786  VAL792 
 PHE793  MET794  SER795  GLU796  ALA797  LYS798  CYS799  TRP800  GLU811  SER814 

> <Gold.Protein.RotatedAtoms>
  151.1607  135.0272  159.8708 H   0  0  0  0  0  0  0  0  0  0  0  0  # atno 6907 bound_to 6896
  152.5451  134.1282  159.8438 H   0  0  0  0  0  0  0  0  0  0  0  0  # atno 6908 bound_to 6896
  151.1377  133.4946  159.2630 H   0  0  0  0  0  0  0  0  0  0  0  0  # atno 6909 bound_to 6896
  145.8000  140.8660  143.0236 H   0  0  0  0  0  0  0  0  0  0  0  0  # atno 7974 bound_to 7965
  155.6954  140.0760  157.2431 H   0  0  0  0  0  0  0  0  0  0  0  0  # atno 8008 bound_to 7997
  154.4082  140.1657  156.2185 H   0  0  0  0  0  0  0  0  0  0  0  0  # atno 8009 bound_to 7997
  155.9415  140.3384  155.6334 H   0  0  0  0  0  0  0  0  0  0  0  0  # atno 8010 bound_to 7997
  140.2606  143.3410  152.0629 H   0  0  0  0  0  0  0  0  0  0  0  0  # atno 10167 bound_to 10162
  157.6749  131.0797  150.5665 H   0  0  0  0  0  0  0  0  0  0  0  0  # atno 10718 bound_to 10713
  153.3968  135.7003  153.6455 H   0  0  0  0  0  0  0  0  0  0  0  0  # atno 10763 bound_to 10752
  153.5005  135.3653  155.2538 H   0  0  0  0  0  0  0  0  0  0  0  0  # atno 10764 bound_to 10752
  154.8707  135.4110  154.3295 H   0  0  0  0  0  0  0  0  0  0  0  0  # atno 10765 bound_to 10752
  139.9031  134.8144  156.2309 H   0  0  0  0  0  0  0  0  0  0  0  0  # atno 11005 bound_to 11000
  144.6770  140.0245  143.7483 LP  0  0  0  0  0  0  0  0  0  0  0  0  # atno 17320 bound_to 7965
  145.9888  139.2998  143.0998 LP  0  0  0  0  0  0  0  0  0  0  0  0  # atno 17321 bound_to 7965
  139.5018  144.6721  151.6218 LP  0  0  0  0  0  0  0  0  0  0  0  0  # atno 17342 bound_to 10162
  140.5969  143.9680  150.6360 LP  0  0  0  0  0  0  0  0  0  0  0  0  # atno 17343 bound_to 10162
  156.5967  130.4343  149.5914 LP  0  0  0  0  0  0  0  0  0  0  0  0  # atno 17370 bound_to 10713
  156.2539  130.6923  151.1670 LP  0  0  0  0  0  0  0  0  0  0  0  0  # atno 17371 bound_to 10713
  141.0346  133.6970  156.1490 LP  0  0  0  0  0  0  0  0  0  0  0  0  # atno 17394 bound_to 11000
  140.7046  134.4527  157.5584 LP  0  0  0  0  0  0  0  0  0  0  0  0  # atno 17395 bound_to 11000

$$$$
