AV-unprocessed.smi:275|AV-procd|sdf|2064|dock7
  -GOLD-   2262021313D 1   1.00000     0.00000
 Structure written by MMmdl.
 65 69  0  0  0  0  0  0  0  0  1 V2000
  149.7367  140.2130  155.0408 C   0  0  0  0  0  0  0  0  0  0  0  0
  150.8128  139.4270  155.8088 C   0  0  0  0  0  0  0  0  0  0  0  0
  150.6702  137.9305  155.4843 C   0  0  0  0  0  0  0  0  0  0  0  0
  150.7573  139.6739  157.3278 C   0  0  2  0  0  0  0  0  0  0  0  0
  149.4244  140.0155  157.8204 N   0  0  0  0  0  0  0  0  0  0  0  0
  148.6000  138.9892  158.3637 C   0  0  0  0  0  0  0  0  0  0  0  0
  148.3518  138.9033  159.6986 N   0  0  0  0  0  0  0  0  0  0  0  0
  147.5768  137.9339  160.1934 C   0  0  0  0  0  0  0  0  0  0  0  0
  146.9505  136.9534  159.5419 N   0  0  0  0  0  0  0  0  0  0  0  0
  147.1900  137.0272  158.2022 C   0  0  0  0  0  0  0  0  0  0  0  0
  147.9932  137.9997  157.5423 C   0  0  0  0  0  0  0  0  0  0  0  0
  148.0083  137.7532  156.1751 N   0  0  0  0  0  0  0  0  0  0  0  0
  147.2568  136.6957  156.0339 C   0  0  0  0  0  0  0  0  0  0  0  0
  146.7089  136.2048  157.1980 N   0  0  0  0  0  0  0  0  0  0  0  0
  145.8483  135.0418  157.3301 C   0  0  0  0  0  0  0  0  0  0  0  0
  144.4917  135.1551  156.5857 C   0  0  1  0  0  0  0  0  0  0  0  0
  143.7570  136.4103  157.1176 C   0  0  0  0  0  0  0  0  0  0  0  0
  142.3531  136.2735  157.0407 O   0  0  0  0  0  0  0  0  0  0  0  0
  144.6522  135.1815  155.0344 C   0  0  2  0  0  0  0  0  0  0  0  0
  143.3668  135.3824  154.2469 C   0  0  0  0  0  0  0  0  0  0  0  0
  143.7663  134.9274  152.8512 C   0  0  0  0  0  0  0  0  0  0  0  0
  144.6215  133.8171  153.0730 O   0  0  0  0  0  0  0  0  0  0  0  0
  145.1671  133.8850  154.3874 C   0  0  0  0  0  0  0  0  0  0  0  0
  149.9776  140.8798  158.8471 C   0  0  0  0  0  0  0  0  0  0  0  0
  151.2232  141.0130  157.9560 C   0  0  0  0  0  0  0  0  0  0  0  0
  151.2413  142.2693  157.0555 C   0  0  0  0  0  0  0  0  0  0  0  0
  151.5025  143.5653  157.8425 C   0  0  0  0  0  0  0  0  0  0  0  0
  152.8190  143.4830  158.6257 C   0  0  0  0  0  0  0  0  0  0  0  0
  152.8619  142.2279  159.5064 C   0  0  0  0  0  0  0  0  0  0  0  0
  152.5767  140.9607  158.6831 C   0  0  0  0  0  0  0  0  0  0  0  0
  148.7353  139.9662  155.3948 H   0  0  0  0  0  0  0  0  0  0  0  0
  149.7749  139.9932  153.9737 H   0  0  0  0  0  0  0  0  0  0  0  0
  149.8752  141.2885  155.1493 H   0  0  0  0  0  0  0  0  0  0  0  0
  151.7814  139.7507  155.4268 H   0  0  0  0  0  0  0  0  0  0  0  0
  149.7027  137.5493  155.8123 H   0  0  0  0  0  0  0  0  0  0  0  0
  151.4376  137.3298  155.9691 H   0  0  0  0  0  0  0  0  0  0  0  0
  150.7503  137.7515  154.4120 H   0  0  0  0  0  0  0  0  0  0  0  0
  151.1888  138.8465  157.8939 H   0  0  0  0  0  0  0  0  0  0  0  0
  147.4384  137.9475  161.2644 H   0  0  0  0  0  0  0  0  0  0  0  0
  147.0741  136.2466  155.0686 H   0  0  0  0  0  0  0  0  0  0  0  0
  146.4169  134.1925  156.9498 H   0  0  0  0  0  0  0  0  0  0  0  0
  145.6774  134.8421  158.3885 H   0  0  0  0  0  0  0  0  0  0  0  0
  143.8915  134.2861  156.8597 H   0  0  0  0  0  0  0  0  0  0  0  0
  143.9905  136.5822  158.1687 H   0  0  0  0  0  0  0  0  0  0  0  0
  144.0713  137.3038  156.5773 H   0  0  0  0  0  0  0  0  0  0  0  0
  142.1531  135.4280  156.6684 H   0  0  0  0  0  0  0  0  0  0  0  0
  145.3329  135.9912  154.7656 H   0  0  0  0  0  0  0  0  0  0  0  0
  142.5755  134.7386  154.6334 H   0  0  0  0  0  0  0  0  0  0  0  0
  143.0102  136.4128  154.2579 H   0  0  0  0  0  0  0  0  0  0  0  0
  142.9098  134.6577  152.2332 H   0  0  0  0  0  0  0  0  0  0  0  0
  144.3269  135.7095  152.3376 H   0  0  0  0  0  0  0  0  0  0  0  0
  146.2549  133.8542  154.3374 H   0  0  0  0  0  0  0  0  0  0  0  0
  144.8270  133.0069  154.9370 H   0  0  0  0  0  0  0  0  0  0  0  0
  149.4115  141.7997  158.9940 H   0  0  0  0  0  0  0  0  0  0  0  0
  150.1687  140.3585  159.7875 H   0  0  0  0  0  0  0  0  0  0  0  0
  152.0035  142.1770  156.2833 H   0  0  0  0  0  0  0  0  0  0  0  0
  150.2953  142.3710  156.5225 H   0  0  0  0  0  0  0  0  0  0  0  0
  151.5292  144.4158  157.1607 H   0  0  0  0  0  0  0  0  0  0  0  0
  150.6784  143.7513  158.5318 H   0  0  0  0  0  0  0  0  0  0  0  0
  153.6558  143.4627  157.9266 H   0  0  0  0  0  0  0  0  0  0  0  0
  152.9482  144.3762  159.2374 H   0  0  0  0  0  0  0  0  0  0  0  0
  153.8360  142.1468  159.9895 H   0  0  0  0  0  0  0  0  0  0  0  0
  152.1268  142.3165  160.3072 H   0  0  0  0  0  0  0  0  0  0  0  0
  152.6151  140.0957  159.3462 H   0  0  0  0  0  0  0  0  0  0  0  0
  153.3820  140.8129  157.9626 H   0  0  0  0  0  0  0  0  0  0  0  0
  1  2  1  0  0  0  0
  1 31  1  0  0  0  0
  1 32  1  0  0  0  0
  1 33  1  0  0  0  0
  2  3  1  0  0  0  0
  2  4  1  0  0  0  0
  2 34  1  0  0  0  0
  3 35  1  0  0  0  0
  3 36  1  0  0  0  0
  3 37  1  0  0  0  0
  4 25  1  0  0  0  0
  4  5  1  0  0  0  0
  4 38  1  0  0  0  0
  5  6  1  0  0  0  0
  5 24  1  0  0  0  0
  6 11  1  0  0  0  0
  6  7  2  0  0  0  0
  7  8  1  0  0  0  0
  8  9  2  0  0  0  0
  8 39  1  0  0  0  0
  9 10  1  0  0  0  0
 10 14  1  0  0  0  0
 10 11  2  0  0  0  0
 11 12  1  0  0  0  0
 12 13  2  0  0  0  0
 13 14  1  0  0  0  0
 13 40  1  0  0  0  0
 14 15  1  0  0  0  0
 15 16  1  0  0  0  0
 15 41  1  0  0  0  0
 15 42  1  0  0  0  0
 16 17  1  0  0  0  0
 16 19  1  0  0  0  0
 16 43  1  0  0  0  0
 17 18  1  0  0  0  0
 17 44  1  0  0  0  0
 17 45  1  0  0  0  0
 18 46  1  0  0  0  0
 19 23  1  0  0  0  0
 19 20  1  0  0  0  0
 19 47  1  0  0  0  0
 20 21  1  0  0  0  0
 20 48  1  0  0  0  0
 20 49  1  0  0  0  0
 21 22  1  0  0  0  0
 21 50  1  0  0  0  0
 21 51  1  0  0  0  0
 22 23  1  0  0  0  0
 23 52  1  0  0  0  0
 23 53  1  0  0  0  0
 24 25  1  0  0  0  0
 24 54  1  0  0  0  0
 24 55  1  0  0  0  0
 25 30  1  0  0  0  0
 25 26  1  0  0  0  0
 26 27  1  0  0  0  0
 26 56  1  0  0  0  0
 26 57  1  0  0  0  0
 27 28  1  0  0  0  0
 27 58  1  0  0  0  0
 27 59  1  0  0  0  0
 28 29  1  0  0  0  0
 28 60  1  0  0  0  0
 28 61  1  0  0  0  0
 29 30  1  0  0  0  0
 29 62  1  0  0  0  0
 29 63  1  0  0  0  0
 30 64  1  0  0  0  0
 30 65  1  0  0  0  0
M  END
> <s_m_source_file>
AV-unprocessed.smi

> <i_m_source_file_index>
275

> <i_lp_mmshare_version>
43012

> <i_f3d_flags>
0

> <s_epik_input>
W0NIMl0xW0NIMl1bQ0gyXVtDSDJdW0NIMl1DMTJbQ0BIXShbQ0hdKFtDSDNdKVtDSDNdKU4oW0NIMl0yKWMobltjSF1uMyljKGMzNCluW2NIXW40W0NIMl1bQ0BIXShbQ0gyXVtPSF0pW0NAQEhdNVtDSDJdW0NIMl1PW0NIMl01

> <s_epik_cmdline>
J2VwaWtfcHl0aG9uJywgJy1waCcsICc3LjAnLCAnLXRuJywgJzgnLCAnLW1hJywgJzIwMCcsICctbWV0YWxfYmluZGluZycsICctaW1hZScsICc8aW5maWxlLm1hZT4nLCAnLW9tYWUnLCAnPG91dGZpbGUubWFlPic=

> <r_lp_tautomer_probability>
1

> <r_epik_Ionization_Penalty>
0.00375122

> <r_epik_Ionization_Penalty_Charging>
0

> <r_epik_Ionization_Penalty_Neutral>
0.00375122

> <r_epik_State_Penalty>
0.00260593

> <r_epik_Charging_Adjusted_Penalty>
0.00260593

> <i_epik_Tot_Q>
0

> <i_epik_Tot_abs_Q>
0

> <r_epik_Metal_State_Penalty>
-0

> <b_epik_Metal_Only>
0

> <s_lp_Force_Field>
OPLS_2005

> <r_lp_Energy>
64.5971

> <b_lp_Chiralities_Consistent>
1

> <s_lp_Variant>
AV-unprocessed.smi:275-3

> <Gold.Version>
5.8.1

> <Gold.Id.Protein>
6NUR|6NUR_protein|mol2

> <Gold.PLP.Fitness>
39.8391

> <Gold.PLP.PLP>
-35.9028

> <Gold.PLP.part.hbond>
-1.0000

> <Gold.PLP.part.metal>
0.0000

> <Gold.PLP.part.buried>
-4.8837

> <Gold.PLP.part.nonpolar>
-30.5029

> <Gold.PLP.part.repulsive>
0.2650

> <Gold.PLP.ligand.clash>
0.0000

> <Gold.PLP.ligand.torsion>
1.0430

> <Gold.PLP.Chemscore.Hbond>
0.8000

> <Gold.PLP.Chemscore.CHOScore>
1.0000

> <Gold.PLP.Chemscore.Metal>
0.0000

> <Gold.Chemscore.Hbonds>
donor molecule, donor type, donor heavy atom, donor atom, acceptor molecule, acceptor atom, score
      L1  H    18    46       P1 11000  0.02

> <Gold.PLP.Chemscore.Internal.Correction>
0.6222

> <Gold.Rescore>
     Score         DG    S(hbond)    S(metal)    S(lipo)     H(rot)  DE(clash)    DE(int)     intcor
     11.09     -13.79       0.85        0.00     102.33       2.54       0.02       2.68       ----

> <Gold.Chemscore.Fitness>
11.0878

> <Gold.Chemscore.DG>
-13.7948

> <Gold.Chemscore.ZeroCoef>
-5.4800

> <Gold.Chemscore.Hbond>
0.8499

> <Gold.Chemscore.Metal>
0.0000

> <Gold.Chemscore.Lipo>
102.3325

> <Gold.Chemscore.Internal_Hbond>
0.0000

> <Gold.Chemscore.DEClash>
0.0247

> <Gold.Chemscore.DEInternal>
2.6823

> <Gold.Chemscore.Rot>
2.5377

> <Gold.Chemscore.Internal.Correction>
   9.000000E+99

> <Gold.Chemscore.Hbond.Weighted>
-2.8385

> <Gold.Chemscore.Metal.Weighted>
-0.0000

> <Gold.Chemscore.Lipo.Weighted>
-11.9729

> <Gold.Chemscore.Internal_Hbond.Weighted>
0.0000

> <Gold.Chemscore.DEClash.Weighted>
0.0247

> <Gold.Chemscore.DEInternal.Weighted>
2.6823

> <Gold.Chemscore.Rot.Weighted>
6.4966

> <Gold.Chemscore.Internal.Correction.Weighted>
   9.000000E+99

> <Gold.Protein.RotatedTorsions>
[ 6907 6896 6895 6894 ] final -175.90 input  -60.11 | X-H torsion
[ 7974 7965 7964 7962 ] final  142.96 input  175.53 | X-H torsion
[ 8008 7997 7996 7995 ] final  -25.65 input   59.86 | X-H torsion
[ 10167 10162 10161 10158 ] final  -59.82 input  -65.29 | X-H torsion
[ 10718 10713 10712 10709 ] final  -11.58 input   66.30 | X-H torsion
[ 10763 10752 10751 10750 ] final  -49.39 input  -60.55 | X-H torsion
[ 11005 11000 10999 10996 ] final   12.39 input  -57.11 | X-H torsion

> <Gold.Protein.ActiveResidues>
 VAL166  LYS551  ARG553  GLY616  TRP617  ASP618  TYR619  PRO620  LYS621  CYS622 
 ASP623  PHE694  ASN695  SER759  ASP760  ASP761  ALA762  ILE779  LEU786  VAL792 
 PHE793  MET794  SER795  GLU796  ALA797  LYS798  CYS799  TRP800  GLU811  SER814 

> <Gold.Protein.RotatedAtoms>
  151.5961  133.3361  159.3037 H   0  0  0  0  0  0  0  0  0  0  0  0  # atno 6907 bound_to 6896
  150.8233  134.7455  159.6802 H   0  0  0  0  0  0  0  0  0  0  0  0  # atno 6908 bound_to 6896
  152.4325  134.5756  159.9985 H   0  0  0  0  0  0  0  0  0  0  0  0  # atno 6909 bound_to 6896
  144.8962  139.5487  143.5775 H   0  0  0  0  0  0  0  0  0  0  0  0  # atno 7974 bound_to 7965
  154.4465  140.1921  156.0652 H   0  0  0  0  0  0  0  0  0  0  0  0  # atno 8008 bound_to 7997
  156.0552  140.3303  155.7371 H   0  0  0  0  0  0  0  0  0  0  0  0  # atno 8009 bound_to 7997
  155.5496  140.0593  157.2843 H   0  0  0  0  0  0  0  0  0  0  0  0  # atno 8010 bound_to 7997
  140.6111  143.2387  151.5707 H   0  0  0  0  0  0  0  0  0  0  0  0  # atno 10167 bound_to 10162
  156.6570  130.4971  149.6043 H   0  0  0  0  0  0  0  0  0  0  0  0  # atno 10718 bound_to 10713
  154.0933  135.6574  153.4856 H   0  0  0  0  0  0  0  0  0  0  0  0  # atno 10763 bound_to 10752
  153.0314  135.5207  154.7359 H   0  0  0  0  0  0  0  0  0  0  0  0  # atno 10764 bound_to 10752
  154.6489  135.2998  154.9980 H   0  0  0  0  0  0  0  0  0  0  0  0  # atno 10765 bound_to 10752
  140.4925  134.0826  155.7774 H   0  0  0  0  0  0  0  0  0  0  0  0  # atno 11005 bound_to 11000
  146.3082  139.7654  142.9040 LP  0  0  0  0  0  0  0  0  0  0  0  0  # atno 17320 bound_to 7965
  145.3696  141.0340  143.3238 LP  0  0  0  0  0  0  0  0  0  0  0  0  # atno 17321 bound_to 7965
  139.5362  144.2775  152.1256 LP  0  0  0  0  0  0  0  0  0  0  0  0  # atno 17342 bound_to 10162
  140.1974  144.4691  150.6448 LP  0  0  0  0  0  0  0  0  0  0  0  0  # atno 17343 bound_to 10162
  156.2040  130.6637  151.1198 LP  0  0  0  0  0  0  0  0  0  0  0  0  # atno 17370 bound_to 10713
  157.7122  131.0728  150.6459 LP  0  0  0  0  0  0  0  0  0  0  0  0  # atno 17371 bound_to 10713
  141.1477  133.9026  157.2176 LP  0  0  0  0  0  0  0  0  0  0  0  0  # atno 17394 bound_to 11000
  139.9761  135.0113  156.9633 LP  0  0  0  0  0  0  0  0  0  0  0  0  # atno 17395 bound_to 11000

$$$$
