AV-unprocessed.smi:2025|AV-procd|sdf|8200|dock4
  -GOLD-   2272010453D 1   1.00000     0.00000
 Structure written by MMmdl.
 39 40  0  0  0  0  0  0  0  0  1 V2000
  152.4139  139.9525  158.7805 C   0  0  0  0  0  0  0  0  0  0  0  0
  151.8221  140.9906  157.8146 C   0  0  1  0  0  0  0  0  0  0  0  0
  150.5514  140.4794  157.3055 N   0  0  0  0  0  0  0  0  0  0  0  0
  150.2862  140.1745  156.0256 C   0  0  0  0  0  0  0  0  0  0  0  0
  151.1068  140.2982  155.1151 O   0  0  0  0  0  0  0  0  0  0  0  0
  148.8632  139.6783  155.7362 C   0  0  0  0  0  0  0  0  0  0  0  0
  147.9657  140.7436  155.2705 N   0  0  0  0  0  0  0  0  0  0  0  0
  148.1631  141.3064  154.0226 C   0  0  0  0  0  0  0  0  0  0  0  0
  147.3744  142.2756  153.5094 C   0  0  0  0  0  0  0  0  0  0  0  0
  146.2442  142.7978  154.2671 C   0  0  0  0  0  0  0  0  0  0  0  0
  145.4861  143.6683  153.8368 O   0  0  0  0  0  0  0  0  0  0  0  0
  146.0725  142.2163  155.5447 N   0  0  0  0  0  0  0  0  0  0  0  0
  144.9538  142.6873  156.3350 C   0  0  0  0  0  0  0  0  0  0  0  0
  146.8898  141.1881  156.0694 C   0  0  0  0  0  0  0  0  0  0  0  0
  146.6842  140.6822  157.1753 O   0  0  0  0  0  0  0  0  0  0  0  0
  151.6041  142.3621  158.4875 C   0  0  1  0  0  0  0  0  0  0  0  0
  152.8377  142.9353  159.1832 C   0  0  0  0  0  0  0  0  0  0  0  0
  152.4898  144.4051  159.2713 C   0  0  0  0  0  0  0  0  0  0  0  0
  151.6917  144.6430  157.9893 C   0  0  0  0  0  0  0  0  0  0  0  0
  151.2943  143.3578  157.5182 O   0  0  0  0  0  0  0  0  0  0  0  0
  153.3974  140.2571  159.1389 H   0  0  0  0  0  0  0  0  0  0  0  0
  152.5343  138.9854  158.2908 H   0  0  0  0  0  0  0  0  0  0  0  0
  151.7725  139.8079  159.6506 H   0  0  0  0  0  0  0  0  0  0  0  0
  152.5267  141.1117  156.9899 H   0  0  0  0  0  0  0  0  0  0  0  0
  149.8116  140.3534  157.9810 H   0  0  0  0  0  0  0  0  0  0  0  0
  148.8957  138.8676  155.0059 H   0  0  0  0  0  0  0  0  0  0  0  0
  148.4667  139.2342  156.6503 H   0  0  0  0  0  0  0  0  0  0  0  0
  148.9862  140.9488  153.4209 H   0  0  0  0  0  0  0  0  0  0  0  0
  147.5806  142.6677  152.5242 H   0  0  0  0  0  0  0  0  0  0  0  0
  145.0901  142.4326  157.3861 H   0  0  0  0  0  0  0  0  0  0  0  0
  144.0583  142.2151  155.9285 H   0  0  0  0  0  0  0  0  0  0  0  0
  144.9059  143.7745  156.2511 H   0  0  0  0  0  0  0  0  0  0  0  0
  150.7777  142.3101  159.1990 H   0  0  0  0  0  0  0  0  0  0  0  0
  153.0261  142.4876  160.1595 H   0  0  0  0  0  0  0  0  0  0  0  0
  153.7254  142.7972  158.5641 H   0  0  0  0  0  0  0  0  0  0  0  0
  151.8581  144.5850  160.1422 H   0  0  0  0  0  0  0  0  0  0  0  0
  153.3681  145.0465  159.3511 H   0  0  0  0  0  0  0  0  0  0  0  0
  150.8211  145.2740  158.1716 H   0  0  0  0  0  0  0  0  0  0  0  0
  152.3043  145.1235  157.2259 H   0  0  0  0  0  0  0  0  0  0  0  0
  1  2  1  0  0  0  0
  1 21  1  0  0  0  0
  1 22  1  0  0  0  0
  1 23  1  0  0  0  0
  2  3  1  0  0  0  0
  2 16  1  0  0  0  0
  2 24  1  0  0  0  0
  3  4  1  0  0  0  0
  3 25  1  0  0  0  0
  4  5  2  0  0  0  0
  4  6  1  0  0  0  0
  6  7  1  0  0  0  0
  6 26  1  0  0  0  0
  6 27  1  0  0  0  0
  7 14  1  0  0  0  0
  7  8  1  0  0  0  0
  8  9  2  0  0  0  0
  8 28  1  0  0  0  0
  9 10  1  0  0  0  0
  9 29  1  0  0  0  0
 10 11  2  0  0  0  0
 10 12  1  0  0  0  0
 12 13  1  0  0  0  0
 12 14  1  0  0  0  0
 13 30  1  0  0  0  0
 13 31  1  0  0  0  0
 13 32  1  0  0  0  0
 14 15  2  0  0  0  0
 16 20  1  0  0  0  0
 16 17  1  0  0  0  0
 16 33  1  0  0  0  0
 17 18  1  0  0  0  0
 17 34  1  0  0  0  0
 17 35  1  0  0  0  0
 18 19  1  0  0  0  0
 18 36  1  0  0  0  0
 18 37  1  0  0  0  0
 19 20  1  0  0  0  0
 19 38  1  0  0  0  0
 19 39  1  0  0  0  0
M  END
> <s_m_source_file>
AV-unprocessed.smi

> <i_m_source_file_index>
2025

> <i_lp_mmshare_version>
43012

> <i_f3d_flags>
0

> <s_epik_input>
TzFbQ0gyXVtDSDJdW0NIMl1bQ0BIXTFbQ0BIXShbQ0gzXSlbTkhdQyg9TylbQ0gyXW4yW2NIXVtjSF1jKD1PKW4oW0NIM10pYzI9Tw==

> <s_epik_cmdline>
J2VwaWtfcHl0aG9uJywgJy1waCcsICc3LjAnLCAnLXRuJywgJzgnLCAnLW1hJywgJzIwMCcsICctbWV0YWxfYmluZGluZycsICctaW1hZScsICc8aW5maWxlLm1hZT4nLCAnLW9tYWUnLCAnPG91dGZpbGUubWFlPic=

> <r_lp_tautomer_probability>
1

> <r_epik_Ionization_Penalty>
3.54787e-08

> <r_epik_Ionization_Penalty_Charging>
1.24654e-08

> <r_epik_Ionization_Penalty_Neutral>
2.30132e-08

> <r_epik_State_Penalty>
-0

> <r_epik_Charging_Adjusted_Penalty>
1.24654e-08

> <i_epik_Tot_Q>
0

> <i_epik_Tot_abs_Q>
0

> <r_epik_Metal_State_Penalty>
-0

> <b_epik_Metal_Only>
0

> <s_lp_Force_Field>
OPLS_2005

> <r_lp_Energy>
25.8508

> <b_lp_Chiralities_Consistent>
1

> <s_lp_Variant>
AV-unprocessed.smi:2025-4

> <Gold.Version>
5.8.1

> <Gold.Id.Protein>
6NUR|6NUR_protein|mol2

> <Gold.PLP.Fitness>
40.3872

> <Gold.PLP.PLP>
-35.3320

> <Gold.PLP.part.hbond>
-1.0000

> <Gold.PLP.part.metal>
0.0000

> <Gold.PLP.part.buried>
-6.9669

> <Gold.PLP.part.nonpolar>
-27.0642

> <Gold.PLP.part.repulsive>
0.4156

> <Gold.PLP.ligand.clash>
0.0000

> <Gold.PLP.ligand.torsion>
0.4830

> <Gold.PLP.Chemscore.Hbond>
1.0000

> <Gold.PLP.Chemscore.CHOScore>
1.0000

> <Gold.PLP.Chemscore.Metal>
0.0000

> <Gold.Chemscore.Hbonds>
donor molecule, donor type, donor heavy atom, donor atom, acceptor molecule, acceptor atom, score
      P1  H  7989  7998       L1     5  1.00
      L1  C     8    28       P1  7957  1.00

> <Gold.PLP.Chemscore.Internal.Correction>
0.0213

> <Gold.Rescore>
     Score         DG    S(hbond)    S(metal)    S(lipo)     H(rot)  DE(clash)    DE(int)     intcor
     12.99     -13.78       0.99        0.00      82.61       1.82       0.17       0.63       ----

> <Gold.Chemscore.Fitness>
12.9853

> <Gold.Chemscore.DG>
-13.7803

> <Gold.Chemscore.ZeroCoef>
-5.4800

> <Gold.Chemscore.Hbond>
0.9886

> <Gold.Chemscore.Metal>
0.0000

> <Gold.Chemscore.Lipo>
82.6061

> <Gold.Chemscore.Internal_Hbond>
0.0000

> <Gold.Chemscore.DEClash>
0.1665

> <Gold.Chemscore.DEInternal>
0.6285

> <Gold.Chemscore.Rot>
1.8228

> <Gold.Chemscore.Internal.Correction>
   9.000000E+99

> <Gold.Chemscore.Hbonds>
donor molecule, donor type, donor heavy atom, donor atom, acceptor molecule, acceptor atom, score
      P1  H  7989  7998       L1     5  0.98

> <Gold.Chemscore.Hbond.Weighted>
-3.3018

> <Gold.Chemscore.Metal.Weighted>
-0.0000

> <Gold.Chemscore.Lipo.Weighted>
-9.6649

> <Gold.Chemscore.Internal_Hbond.Weighted>
0.0000

> <Gold.Chemscore.DEClash.Weighted>
0.1665

> <Gold.Chemscore.DEInternal.Weighted>
0.6285

> <Gold.Chemscore.Rot.Weighted>
4.6665

> <Gold.Chemscore.Internal.Correction.Weighted>
   9.000000E+99

> <Gold.Protein.RotatedTorsions>
[ 6907 6896 6895 6894 ] final   78.14 input  -60.11 | X-H torsion
[ 7974 7965 7964 7962 ] final   99.96 input  175.53 | X-H torsion
[ 8008 7997 7996 7995 ] final    9.69 input   59.86 | X-H torsion
[ 10167 10162 10161 10158 ] final   98.45 input  -65.29 | X-H torsion
[ 10718 10713 10712 10709 ] final   27.46 input   66.30 | X-H torsion
[ 10763 10752 10751 10750 ] final -156.91 input  -60.55 | X-H torsion
[ 11005 11000 10999 10996 ] final -105.65 input  -57.11 | X-H torsion

> <Gold.Protein.ActiveResidues>
 VAL166  LYS551  ARG553  GLY616  TRP617  ASP618  TYR619  PRO620  LYS621  CYS622 
 ASP623  PHE694  ASN695  SER759  ASP760  ASP761  ALA762  ILE779  LEU786  VAL792 
 PHE793  MET794  SER795  GLU796  ALA797  LYS798  CYS799  TRP800  GLU811  SER814 

> <Gold.Protein.RotatedAtoms>
  152.5147  134.3709  159.9317 H   0  0  0  0  0  0  0  0  0  0  0  0  # atno 6907 bound_to 6896
  151.3663  133.3864  159.2702 H   0  0  0  0  0  0  0  0  0  0  0  0  # atno 6908 bound_to 6896
  150.9612  134.9019  159.7790 H   0  0  0  0  0  0  0  0  0  0  0  0  # atno 6909 bound_to 6896
  145.3919  139.2361  143.3347 H   0  0  0  0  0  0  0  0  0  0  0  0  # atno 7974 bound_to 7965
  154.7833  140.2823  155.6047 H   0  0  0  0  0  0  0  0  0  0  0  0  # atno 8008 bound_to 7997
  156.2953  140.2619  156.2592 H   0  0  0  0  0  0  0  0  0  0  0  0  # atno 8009 bound_to 7997
  154.9758  140.0375  157.2245 H   0  0  0  0  0  0  0  0  0  0  0  0  # atno 8010 bound_to 7997
  139.7708  144.6923  151.0159 H   0  0  0  0  0  0  0  0  0  0  0  0  # atno 10167 bound_to 10162
  157.2205  130.6976  149.6268 H   0  0  0  0  0  0  0  0  0  0  0  0  # atno 10718 bound_to 10713
  154.7677  135.3136  154.8253 H   0  0  0  0  0  0  0  0  0  0  0  0  # atno 10763 bound_to 10752
  153.8997  135.6817  153.4760 H   0  0  0  0  0  0  0  0  0  0  0  0  # atno 10764 bound_to 10752
  153.1285  135.4790  154.9245 H   0  0  0  0  0  0  0  0  0  0  0  0  # atno 10765 bound_to 10752
  141.1043  133.8826  157.1760 H   0  0  0  0  0  0  0  0  0  0  0  0  # atno 11005 bound_to 11000
  146.2793  140.4603  142.8783 LP  0  0  0  0  0  0  0  0  0  0  0  0  # atno 17320 bound_to 7965
  144.8434  140.6892  143.6215 LP  0  0  0  0  0  0  0  0  0  0  0  0  # atno 17321 bound_to 7965
  140.7814  143.4591  151.0303 LP  0  0  0  0  0  0  0  0  0  0  0  0  # atno 17342 bound_to 10162
  139.8275  143.7737  152.3179 LP  0  0  0  0  0  0  0  0  0  0  0  0  # atno 17343 bound_to 10162
  155.9683  130.4521  150.5763 LP  0  0  0  0  0  0  0  0  0  0  0  0  # atno 17370 bound_to 10713
  157.3581  131.0745  151.1659 LP  0  0  0  0  0  0  0  0  0  0  0  0  # atno 17371 bound_to 10713
  139.9907  135.0066  156.9967 LP  0  0  0  0  0  0  0  0  0  0  0  0  # atno 17394 bound_to 11000
  140.4942  134.1162  155.7238 LP  0  0  0  0  0  0  0  0  0  0  0  0  # atno 17395 bound_to 11000

$$$$
