AV-unprocessed.smi:2887|AV-procd|sdf|11099|dock6
  -GOLD-   2272015563D 1   1.00000     0.00000
 Structure written by MMmdl.
 38 39  0  0  0  0  0  0  0  0  3 V2000
  144.8526  137.3447  153.4747 O   0  0  0  0  0  0  0  0  0  0  0  0
  145.9683  136.8280  153.4311 C   0  0  0  0  0  0  0  0  0  0  0  0
  146.8302  136.8113  154.7038 C   0  0  0  0  0  0  0  0  0  0  0  0
  147.9657  137.7322  154.6785 N   0  0  0  0  0  0  0  0  0  0  0  0
  147.7904  139.0984  154.4846 C   0  0  0  0  0  0  0  0  0  0  0  0
  148.7901  139.9988  154.5256 C   0  0  0  0  0  0  0  0  0  0  0  0
  150.1685  139.5416  154.7949 C   0  0  0  0  0  0  0  0  0  0  0  0
  151.0935  140.3496  154.8597 O   0  0  0  0  0  0  0  0  0  0  0  0
  150.3676  138.0756  154.9938 C   0  0  0  0  0  0  0  0  0  0  0  0
  151.6440  137.4371  155.2463 N   0  3  0  0  0  0  0  0  0  0  0  0
  152.6788  138.0471  154.9928 O   0  0  0  0  0  0  0  0  0  0  0  0
  151.6548  136.3021  155.7111 O   0  5  0  0  0  0  0  0  0  0  0  0
  149.2648  137.2876  154.9241 C   0  0  0  0  0  0  0  0  0  0  0  0
  146.4836  136.2903  152.3118 N   0  0  0  0  0  0  0  0  0  0  0  0
  145.8660  136.3000  150.9889 C   0  0  0  0  0  0  0  0  0  0  0  0
  144.5538  135.4960  150.9847 C   0  0  0  0  0  0  0  0  0  0  0  0
  144.7644  133.9974  150.8620 C   0  0  0  0  0  0  0  0  0  0  0  0
  143.8155  133.0631  150.8297 C   0  0  0  0  0  0  0  0  0  0  0  0
  144.3753  131.6725  150.7107 C   0  0  0  0  0  0  0  0  0  0  0  0
  145.9050  131.8865  150.6752 C   0  0  0  0  0  0  0  0  0  0  0  0
  146.1483  133.4101  150.7619 C   0  0  0  0  0  0  0  0  0  0  0  0
  146.1939  137.0472  155.5582 H   0  0  0  0  0  0  0  0  0  0  0  0
  147.1852  135.7927  154.8669 H   0  0  0  0  0  0  0  0  0  0  0  0
  146.7693  139.3952  154.2936 H   0  0  0  0  0  0  0  0  0  0  0  0
  148.6061  141.0515  154.3688 H   0  0  0  0  0  0  0  0  0  0  0  0
  149.3241  136.2160  155.0525 H   0  0  0  0  0  0  0  0  0  0  0  0
  147.4047  135.8813  152.3741 H   0  0  0  0  0  0  0  0  0  0  0  0
  145.6633  137.3351  150.7134 H   0  0  0  0  0  0  0  0  0  0  0  0
  146.5421  135.9100  150.2265 H   0  0  0  0  0  0  0  0  0  0  0  0
  144.0048  135.6957  151.9061 H   0  0  0  0  0  0  0  0  0  0  0  0
  143.9149  135.8291  150.1663 H   0  0  0  0  0  0  0  0  0  0  0  0
  142.7533  133.2506  150.8875 H   0  0  0  0  0  0  0  0  0  0  0  0
  144.0723  131.0686  151.5663 H   0  0  0  0  0  0  0  0  0  0  0  0
  144.0112  131.1960  149.8000 H   0  0  0  0  0  0  0  0  0  0  0  0
  146.3824  131.3743  151.5114 H   0  0  0  0  0  0  0  0  0  0  0  0
  146.3323  131.4776  149.7589 H   0  0  0  0  0  0  0  0  0  0  0  0
  146.6557  133.7886  149.8741 H   0  0  0  0  0  0  0  0  0  0  0  0
  146.7421  133.6696  151.6386 H   0  0  0  0  0  0  0  0  0  0  0  0
  1  2  2  0  0  0  0
  2  3  1  0  0  0  0
  2 14  1  0  0  0  0
  3  4  1  0  0  0  0
  3 22  1  0  0  0  0
  3 23  1  0  0  0  0
  4 13  1  0  0  0  0
  4  5  1  0  0  0  0
  5  6  2  0  0  0  0
  5 24  1  0  0  0  0
  6  7  1  0  0  0  0
  6 25  1  0  0  0  0
  7  8  2  0  0  0  0
  7  9  1  0  0  0  0
  9 10  1  0  0  0  0
  9 13  2  0  0  0  0
 10 11  2  0  0  0  0
 10 12  1  0  0  0  0
 13 26  1  0  0  0  0
 14 15  1  0  0  0  0
 14 27  1  0  0  0  0
 15 16  1  0  0  0  0
 15 28  1  0  0  0  0
 15 29  1  0  0  0  0
 16 17  1  0  0  0  0
 16 30  1  0  0  0  0
 16 31  1  0  0  0  0
 17 21  1  0  0  0  0
 17 18  2  0  0  0  0
 18 19  1  0  0  0  0
 18 32  1  0  0  0  0
 19 20  1  0  0  0  0
 19 33  1  0  0  0  0
 19 34  1  0  0  0  0
 20 21  1  0  0  0  0
 20 35  1  0  0  0  0
 20 36  1  0  0  0  0
 21 37  1  0  0  0  0
 21 38  1  0  0  0  0
M  CHG  1  10   1
M  CHG  1  12  -1
M  END
> <s_m_source_file>
AV-unprocessed.smi

> <i_m_source_file_index>
2887

> <i_lp_mmshare_version>
43012

> <i_f3d_flags>
0

> <s_epik_input>
W0NIMl0xW0NIMl1bQ0gyXVtDSF09QzFbQ0gyXVtDSDJdW05IXUMoPU8pW0NIMl1uMltjSF1bY0hdYyg9TyljKFtOK10oPU8pW08tXSlbY0hdMg==

> <s_epik_cmdline>
J2VwaWtfcHl0aG9uJywgJy1waCcsICc3LjAnLCAnLXRuJywgJzgnLCAnLW1hJywgJzIwMCcsICctbWV0YWxfYmluZGluZycsICctaW1hZScsICc8aW5maWxlLm1hZT4nLCAnLW9tYWUnLCAnPG91dGZpbGUubWFlPic=

> <r_lp_tautomer_probability>
1

> <r_epik_Ionization_Penalty>
2.85916e-08

> <r_epik_Ionization_Penalty_Charging>
1.01785e-08

> <r_epik_Ionization_Penalty_Neutral>
1.84131e-08

> <r_epik_State_Penalty>
-0

> <r_epik_Charging_Adjusted_Penalty>
1.01785e-08

> <i_epik_Tot_Q>
0

> <i_epik_Tot_abs_Q>
2

> <r_epik_Metal_State_Penalty>
-0

> <b_epik_Metal_Only>
0

> <s_lp_Force_Field>
OPLS_2005

> <r_lp_Energy>
18.7972

> <b_lp_Chiralities_Consistent>
1

> <s_lp_Variant>
AV-unprocessed.smi:2887-1

> <Gold.Version>
5.8.1

> <Gold.Id.Protein>
6NUR|6NUR_protein|mol2

> <Gold.PLP.Fitness>
41.4339

> <Gold.PLP.PLP>
-33.8487

> <Gold.PLP.part.hbond>
-3.3853

> <Gold.PLP.part.metal>
0.0000

> <Gold.PLP.part.buried>
-4.8115

> <Gold.PLP.part.nonpolar>
-26.6854

> <Gold.PLP.part.repulsive>
0.3418

> <Gold.PLP.ligand.clash>
0.0000

> <Gold.PLP.ligand.torsion>
0.4003

> <Gold.PLP.Chemscore.Hbond>
2.7840

> <Gold.PLP.Chemscore.CHOScore>
0.0000

> <Gold.PLP.Chemscore.Metal>
0.0000

> <Gold.Chemscore.Hbonds>
donor molecule, donor type, donor heavy atom, donor atom, acceptor molecule, acceptor atom, score
      L1  H    14    27       P1  7948  0.77
      P1  H  7989  7998       L1     8  1.00
      P1  H 10752 10765       L1    12  1.00

> <Gold.PLP.Chemscore.Internal.Correction>
0.0339

> <Gold.Rescore>
     Score         DG    S(hbond)    S(metal)    S(lipo)     H(rot)  DE(clash)    DE(int)     intcor
     15.71     -17.73       2.63        0.00      73.27       2.00       0.20       1.82       ----

> <Gold.Chemscore.Fitness>
15.7125

> <Gold.Chemscore.DG>
-17.7293

> <Gold.Chemscore.ZeroCoef>
-5.4800

> <Gold.Chemscore.Hbond>
2.6331

> <Gold.Chemscore.Metal>
0.0000

> <Gold.Chemscore.Lipo>
73.2677

> <Gold.Chemscore.Internal_Hbond>
0.0000

> <Gold.Chemscore.DEClash>
0.2006

> <Gold.Chemscore.DEInternal>
1.8161

> <Gold.Chemscore.Rot>
1.9991

> <Gold.Chemscore.Internal.Correction>
   9.000000E+99

> <Gold.Chemscore.Hbonds>
donor molecule, donor type, donor heavy atom, donor atom, acceptor molecule, acceptor atom, score
      L1  H    14    27       P1  7948  0.76
      P1  H  7989  7998       L1     8  0.87
      P1  H 10752 10765       L1    12  0.40

> <Gold.Chemscore.Hbond.Weighted>
-8.7946

> <Gold.Chemscore.Metal.Weighted>
-0.0000

> <Gold.Chemscore.Lipo.Weighted>
-8.5723

> <Gold.Chemscore.Internal_Hbond.Weighted>
0.0000

> <Gold.Chemscore.DEClash.Weighted>
0.2006

> <Gold.Chemscore.DEInternal.Weighted>
1.8161

> <Gold.Chemscore.Rot.Weighted>
5.1177

> <Gold.Chemscore.Internal.Correction.Weighted>
   9.000000E+99

> <Gold.Protein.RotatedTorsions>
[ 6907 6896 6895 6894 ] final  -96.95 input  -60.11 | X-H torsion
[ 7974 7965 7964 7962 ] final  155.14 input  175.53 | X-H torsion
[ 8008 7997 7996 7995 ] final   90.18 input   59.86 | X-H torsion
[ 10167 10162 10161 10158 ] final  -55.71 input  -65.29 | X-H torsion
[ 10718 10713 10712 10709 ] final   15.91 input   66.30 | X-H torsion
[ 10763 10752 10751 10750 ] final -163.52 input  -60.55 | X-H torsion
[ 11005 11000 10999 10996 ] final  122.08 input  -57.11 | X-H torsion

> <Gold.Protein.ActiveResidues>
 VAL166  LYS551  ARG553  GLY616  TRP617  ASP618  TYR619  PRO620  LYS621  CYS622 
 ASP623  PHE694  ASN695  SER759  ASP760  ASP761  ALA762  ILE779  LEU786  VAL792 
 PHE793  MET794  SER795  GLU796  ALA797  LYS798  CYS799  TRP800  GLU811  SER814 

> <Gold.Protein.RotatedAtoms>
  150.7002  134.1424  159.4109 H   0  0  0  0  0  0  0  0  0  0  0  0  # atno 6907 bound_to 6896
  151.9408  135.0212  160.0545 H   0  0  0  0  0  0  0  0  0  0  0  0  # atno 6908 bound_to 6896
  152.2095  133.4865  159.5139 H   0  0  0  0  0  0  0  0  0  0  0  0  # atno 6909 bound_to 6896
  144.8043  139.7028  143.6168 H   0  0  0  0  0  0  0  0  0  0  0  0  # atno 7974 bound_to 7965
  156.0089  140.3352  155.6921 H   0  0  0  0  0  0  0  0  0  0  0  0  # atno 8008 bound_to 7997
  155.6185  140.0672  157.2703 H   0  0  0  0  0  0  0  0  0  0  0  0  # atno 8009 bound_to 7997
  154.4274  140.1781  156.1335 H   0  0  0  0  0  0  0  0  0  0  0  0  # atno 8010 bound_to 7997
  140.6359  143.2482  151.5120 H   0  0  0  0  0  0  0  0  0  0  0  0  # atno 10167 bound_to 10162
  157.0603  130.6306  149.5785 H   0  0  0  0  0  0  0  0  0  0  0  0  # atno 10718 bound_to 10713
  154.7115  135.3007  154.9190 H   0  0  0  0  0  0  0  0  0  0  0  0  # atno 10763 bound_to 10752
  154.0090  135.6697  153.4768 H   0  0  0  0  0  0  0  0  0  0  0  0  # atno 10764 bound_to 10752
  153.0759  135.5035  154.8316 H   0  0  0  0  0  0  0  0  0  0  0  0  # atno 10765 bound_to 10752
  139.9253  134.9640  156.8055 H   0  0  0  0  0  0  0  0  0  0  0  0  # atno 11005 bound_to 11000
  146.2332  139.5853  142.9541 LP  0  0  0  0  0  0  0  0  0  0  0  0  # atno 17320 bound_to 7965
  145.5475  141.0416  143.2296 LP  0  0  0  0  0  0  0  0  0  0  0  0  # atno 17321 bound_to 7965
  139.5569  144.2252  152.1628 LP  0  0  0  0  0  0  0  0  0  0  0  0  # atno 17342 bound_to 10162
  140.1509  144.5116  150.6688 LP  0  0  0  0  0  0  0  0  0  0  0  0  # atno 17343 bound_to 10162
  155.9980  130.5053  150.7556 LP  0  0  0  0  0  0  0  0  0  0  0  0  # atno 17370 bound_to 10713
  157.4960  131.0915  151.0371 LP  0  0  0  0  0  0  0  0  0  0  0  0  # atno 17371 bound_to 10713
  140.6355  133.9866  155.7682 LP  0  0  0  0  0  0  0  0  0  0  0  0  # atno 17394 bound_to 11000
  141.0805  134.0069  157.3392 LP  0  0  0  0  0  0  0  0  0  0  0  0  # atno 17395 bound_to 11000

$$$$
