AV-unprocessed.smi:283|AV-procd|sdf|2146|dock3
  -GOLD-   2262021483D 1   1.00000     0.00000
 Structure written by MMmdl.
 48 51  0  0  0  0  0  0  0  0  1 V2000
  151.8705  139.7592  158.3732 C   0  0  0  0  0  0  0  0  0  0  0  0
  152.1852  141.2150  158.0039 C   0  0  1  0  0  0  0  0  0  0  0  0
  151.1791  141.7139  157.0688 N   0  0  0  0  0  0  0  0  0  0  0  0
  150.5113  140.8778  156.2432 C   0  0  0  0  0  0  0  0  0  0  0  0
  151.2849  140.0420  155.5102 N   0  0  0  0  0  0  0  0  0  0  0  0
  150.7216  139.1615  154.6787 C   0  0  0  0  0  0  0  0  0  0  0  0
  149.4267  138.9574  154.4331 N   0  0  0  0  0  0  0  0  0  0  0  0
  148.6395  139.8055  155.1564 C   0  0  0  0  0  0  0  0  0  0  0  0
  149.0972  140.7942  156.0741 C   0  0  0  0  0  0  0  0  0  0  0  0
  148.0020  141.4701  156.6007 N   0  0  0  0  0  0  0  0  0  0  0  0
  146.9679  140.9016  156.0440 C   0  0  0  0  0  0  0  0  0  0  0  0
  147.2615  139.8902  155.1589 N   0  0  0  0  0  0  0  0  0  0  0  0
  146.3022  139.0486  154.3760 C   0  0  2  0  0  0  0  0  0  0  0  0
  146.5735  137.7126  154.6717 O   0  0  0  0  0  0  0  0  0  0  0  0
  146.4184  136.9194  153.5033 C   0  0  1  0  0  0  0  0  0  0  0  0
  144.9426  136.4672  153.4312 C   0  0  0  0  0  0  0  0  0  0  0  0
  144.6079  136.0343  152.1295 O   0  0  0  0  0  0  0  0  0  0  0  0
  146.9018  137.8591  152.3865 C   0  0  1  0  0  0  0  0  0  0  0  0
  146.3779  137.5199  151.1168 O   0  0  0  0  0  0  0  0  0  0  0  0
  146.4289  139.2335  152.8452 C   0  0  2  0  0  0  0  0  0  0  0  0
  147.3376  140.2440  152.4440 O   0  0  0  0  0  0  0  0  0  0  0  0
  152.3595  142.0586  159.2706 C   0  0  0  0  0  0  0  0  0  0  0  0
  152.9824  141.4999  160.4112 C   0  0  0  0  0  0  0  0  0  0  0  0
  153.1492  142.2598  161.5841 C   0  0  0  0  0  0  0  0  0  0  0  0
  152.7026  143.5925  161.6270 C   0  0  0  0  0  0  0  0  0  0  0  0
  152.0947  144.1639  160.4942 C   0  0  0  0  0  0  0  0  0  0  0  0
  151.9252  143.4076  159.3171 C   0  0  0  0  0  0  0  0  0  0  0  0
  151.1856  144.1676  157.9513 Cl  0  0  0  0  0  0  0  0  0  0  0  0
  145.3174  139.3282  154.7527 H   0  0  0  0  0  0  0  0  0  0  0  0
  147.0641  136.0443  153.5873 H   0  0  0  0  0  0  0  0  0  0  0  0
  147.9919  137.8300  152.3473 H   0  0  0  0  0  0  0  0  0  0  0  0
  145.4351  139.4576  152.4546 H   0  0  0  0  0  0  0  0  0  0  0  0
  152.6573  139.3340  158.9969 H   0  0  0  0  0  0  0  0  0  0  0  0
  151.7870  139.1365  157.4819 H   0  0  0  0  0  0  0  0  0  0  0  0
  150.9321  139.6823  158.9235 H   0  0  0  0  0  0  0  0  0  0  0  0
  153.1247  141.2018  157.4543 H   0  0  0  0  0  0  0  0  0  0  0  0
  151.2224  142.7076  156.8957 H   0  0  0  0  0  0  0  0  0  0  0  0
  151.4058  138.5277  154.1342 H   0  0  0  0  0  0  0  0  0  0  0  0
  145.9565  141.2092  156.2655 H   0  0  0  0  0  0  0  0  0  0  0  0
  144.7851  135.6225  154.1024 H   0  0  0  0  0  0  0  0  0  0  0  0
  144.2600  137.2561  153.7479 H   0  0  0  0  0  0  0  0  0  0  0  0
  144.0948  136.7098  151.7124 H   0  0  0  0  0  0  0  0  0  0  0  0
  145.5535  137.9681  151.0043 H   0  0  0  0  0  0  0  0  0  0  0  0
  148.1845  139.8485  152.3063 H   0  0  0  0  0  0  0  0  0  0  0  0
  153.3360  140.4795  160.3953 H   0  0  0  0  0  0  0  0  0  0  0  0
  153.6213  141.8200  162.4500 H   0  0  0  0  0  0  0  0  0  0  0  0
  152.8303  144.1775  162.5258 H   0  0  0  0  0  0  0  0  0  0  0  0
  151.7589  145.1899  160.5284 H   0  0  0  0  0  0  0  0  0  0  0  0
  1  2  1  0  0  0  0
  1 33  1  0  0  0  0
  1 34  1  0  0  0  0
  1 35  1  0  0  0  0
  2  3  1  0  0  0  0
  2 22  1  0  0  0  0
  2 36  1  0  0  0  0
  3  4  1  0  0  0  0
  3 37  1  0  0  0  0
  4  9  1  0  0  0  0
  4  5  2  0  0  0  0
  5  6  1  0  0  0  0
  6  7  2  0  0  0  0
  6 38  1  0  0  0  0
  7  8  1  0  0  0  0
  8 12  1  0  0  0  0
  8  9  2  0  0  0  0
  9 10  1  0  0  0  0
 10 11  2  0  0  0  0
 11 12  1  0  0  0  0
 11 39  1  0  0  0  0
 12 13  1  0  0  0  0
 13 29  1  0  0  0  0
 13 20  1  0  0  0  0
 13 14  1  0  0  0  0
 14 15  1  0  0  0  0
 15 30  1  0  0  0  0
 15 16  1  0  0  0  0
 15 18  1  0  0  0  0
 16 17  1  0  0  0  0
 16 40  1  0  0  0  0
 16 41  1  0  0  0  0
 17 42  1  0  0  0  0
 18 31  1  0  0  0  0
 18 19  1  0  0  0  0
 18 20  1  0  0  0  0
 19 43  1  0  0  0  0
 20 32  1  0  0  0  0
 20 21  1  0  0  0  0
 21 44  1  0  0  0  0
 22 27  1  0  0  0  0
 22 23  2  0  0  0  0
 23 24  1  0  0  0  0
 23 45  1  0  0  0  0
 24 25  2  0  0  0  0
 24 46  1  0  0  0  0
 25 26  1  0  0  0  0
 25 47  1  0  0  0  0
 26 27  2  0  0  0  0
 26 48  1  0  0  0  0
 27 28  1  0  0  0  0
M  END
> <s_m_source_file>
AV-unprocessed.smi

> <i_m_source_file_index>
283

> <i_lp_mmshare_version>
43012

> <i_f3d_flags>
0

> <s_epik_input>
Q2xjMVtjSF1bY0hdW2NIXVtjSF1jMVtDQEhdKFtDSDNdKVtOSF1jKG5bY0hdbjIpYyhjMjMpbltjSF1uM1tDQEBIXTRPW0NASF0oW0NIMl1bT0hdKVtDQEBIXShbT0hdKVtDQEhdNFtPSF0=

> <s_epik_cmdline>
J2VwaWtfcHl0aG9uJywgJy1waCcsICc3LjAnLCAnLXRuJywgJzgnLCAnLW1hJywgJzIwMCcsICctbWV0YWxfYmluZGluZycsICctaW1hZScsICc8aW5maWxlLm1hZT4nLCAnLW9tYWUnLCAnPG91dGZpbGUubWFlPic=

> <r_lp_tautomer_probability>
1

> <r_epik_Ionization_Penalty>
0.000266407

> <r_epik_Ionization_Penalty_Charging>
0

> <r_epik_Ionization_Penalty_Neutral>
0.000266407

> <r_epik_State_Penalty>
-0

> <r_epik_Charging_Adjusted_Penalty>
0

> <i_epik_Tot_Q>
0

> <i_epik_Tot_abs_Q>
0

> <r_epik_Metal_State_Penalty>
-0

> <b_epik_Metal_Only>
0

> <s_epik_Chemistry_Notes>
This compound contains an acetal/aminal-like group ( X-CH(R)-Y where X, Y are N, S, or O) that may be acid/base labile, releasing an aldehyde.

> <s_lp_Force_Field>
OPLS_2005

> <r_lp_Energy>
50.6684

> <b_lp_Chiralities_Consistent>
1

> <s_lp_Variant>
AV-unprocessed.smi:283-22

> <Gold.Version>
5.8.1

> <Gold.Id.Protein>
6NUR|6NUR_protein|mol2

> <Gold.PLP.Fitness>
54.2310

> <Gold.PLP.PLP>
-46.7836

> <Gold.PLP.part.hbond>
-3.8845

> <Gold.PLP.part.metal>
0.0000

> <Gold.PLP.part.buried>
-0.9192

> <Gold.PLP.part.nonpolar>
-43.5428

> <Gold.PLP.part.repulsive>
1.6768

> <Gold.PLP.ligand.clash>
0.0000

> <Gold.PLP.ligand.torsion>
1.5904

> <Gold.PLP.Chemscore.Hbond>
3.4674

> <Gold.PLP.Chemscore.CHOScore>
0.0000

> <Gold.PLP.Chemscore.Metal>
0.0000

> <Gold.Chemscore.Hbonds>
donor molecule, donor type, donor heavy atom, donor atom, acceptor molecule, acceptor atom, score
      L1  H    19    43       P1 10171  0.70
      L1  H    21    44       P1  7957  0.74
      P1  H  7954  7966       L1    19  0.60

> <Gold.PLP.Chemscore.Internal.Correction>
0.2260

> <Gold.Rescore>
     Score         DG    S(hbond)    S(metal)    S(lipo)     H(rot)  DE(clash)    DE(int)     intcor
     10.42     -18.76       2.94        0.00     119.06       4.10       3.17       5.16       ----

> <Gold.Chemscore.Fitness>
10.4199

> <Gold.Chemscore.DG>
-18.7571

> <Gold.Chemscore.ZeroCoef>
-5.4800

> <Gold.Chemscore.Hbond>
2.9446

> <Gold.Chemscore.Metal>
0.0000

> <Gold.Chemscore.Lipo>
119.0616

> <Gold.Chemscore.Internal_Hbond>
0.0000

> <Gold.Chemscore.DEClash>
3.1739

> <Gold.Chemscore.DEInternal>
5.1633

> <Gold.Chemscore.Rot>
4.0968

> <Gold.Chemscore.Internal.Correction>
   9.000000E+99

> <Gold.Chemscore.Hbonds>
donor molecule, donor type, donor heavy atom, donor atom, acceptor molecule, acceptor atom, score
      L1  H    19    43       P1 10171  0.68
      L1  H    21    44       P1  7957  0.74
      P1  H  7954  7966       L1    19  0.15

> <Gold.Chemscore.Hbond.Weighted>
-9.8348

> <Gold.Chemscore.Metal.Weighted>
-0.0000

> <Gold.Chemscore.Lipo.Weighted>
-13.9302

> <Gold.Chemscore.Internal_Hbond.Weighted>
0.0000

> <Gold.Chemscore.DEClash.Weighted>
3.1739

> <Gold.Chemscore.DEInternal.Weighted>
5.1633

> <Gold.Chemscore.Rot.Weighted>
10.4879

> <Gold.Chemscore.Internal.Correction.Weighted>
   9.000000E+99

> <Gold.Protein.RotatedTorsions>
[ 6907 6896 6895 6894 ] final  155.55 input  -60.11 | X-H torsion
[ 7974 7965 7964 7962 ] final  129.29 input  175.53 | X-H torsion
[ 8008 7997 7996 7995 ] final  -47.98 input   59.86 | X-H torsion
[ 10167 10162 10161 10158 ] final   51.48 input  -65.29 | X-H torsion
[ 10718 10713 10712 10709 ] final   36.01 input   66.30 | X-H torsion
[ 10763 10752 10751 10750 ] final  -70.50 input  -60.55 | X-H torsion
[ 11005 11000 10999 10996 ] final   77.50 input  -57.11 | X-H torsion

> <Gold.Protein.ActiveResidues>
 VAL166  LYS551  ARG553  GLY616  TRP617  ASP618  TYR619  PRO620  LYS621  CYS622 
 ASP623  PHE694  ASN695  SER759  ASP760  ASP761  ALA762  ILE779  LEU786  VAL792 
 PHE793  MET794  SER795  GLU796  ALA797  LYS798  CYS799  TRP800  GLU811  SER814 

> <Gold.Protein.RotatedAtoms>
  152.0425  133.3983  159.4342 H   0  0  0  0  0  0  0  0  0  0  0  0  # atno 6907 bound_to 6896
  150.6875  134.3399  159.4872 H   0  0  0  0  0  0  0  0  0  0  0  0  # atno 6908 bound_to 6896
  152.1199  134.9212  160.0614 H   0  0  0  0  0  0  0  0  0  0  0  0  # atno 6909 bound_to 6896
  145.0303  139.4052  143.5153 H   0  0  0  0  0  0  0  0  0  0  0  0  # atno 7974 bound_to 7965
  154.4023  140.1333  156.4264 H   0  0  0  0  0  0  0  0  0  0  0  0  # atno 8008 bound_to 7997
  155.7593  140.3486  155.5169 H   0  0  0  0  0  0  0  0  0  0  0  0  # atno 8009 bound_to 7997
  155.8874  140.0997  157.1433 H   0  0  0  0  0  0  0  0  0  0  0  0  # atno 8010 bound_to 7997
  140.2614  144.3368  150.6317 H   0  0  0  0  0  0  0  0  0  0  0  0  # atno 10167 bound_to 10162
  157.3297  130.7491  149.6839 H   0  0  0  0  0  0  0  0  0  0  0  0  # atno 10718 bound_to 10713
  154.4185  135.5992  153.5996 H   0  0  0  0  0  0  0  0  0  0  0  0  # atno 10763 bound_to 10752
  152.9793  135.5946  154.3983 H   0  0  0  0  0  0  0  0  0  0  0  0  # atno 10764 bound_to 10752
  154.3805  135.2841  155.2192 H   0  0  0  0  0  0  0  0  0  0  0  0  # atno 10765 bound_to 10752
  139.9252  134.7688  156.1529 H   0  0  0  0  0  0  0  0  0  0  0  0  # atno 11005 bound_to 11000
  146.3497  139.9849  142.8692 LP  0  0  0  0  0  0  0  0  0  0  0  0  # atno 17320 bound_to 7965
  145.1779  140.9753  143.4283 LP  0  0  0  0  0  0  0  0  0  0  0  0  # atno 17321 bound_to 7965
  140.5962  143.2167  151.7159 LP  0  0  0  0  0  0  0  0  0  0  0  0  # atno 17342 bound_to 10162
  139.5015  144.3863  152.0325 LP  0  0  0  0  0  0  0  0  0  0  0  0  # atno 17343 bound_to 10162
  155.9694  130.4199  150.4396 LP  0  0  0  0  0  0  0  0  0  0  0  0  # atno 17370 bound_to 10713
  157.2425  131.0528  151.2428 LP  0  0  0  0  0  0  0  0  0  0  0  0  # atno 17371 bound_to 10713
  141.0804  133.6757  156.2324 LP  0  0  0  0  0  0  0  0  0  0  0  0  # atno 17394 bound_to 11000
  140.6357  134.5217  157.5564 LP  0  0  0  0  0  0  0  0  0  0  0  0  # atno 17395 bound_to 11000

$$$$
