AV-unprocessed.smi:1831|AV-procd|sdf|7462|dock5
  -GOLD-   22720 9153D 1   1.00000     0.00000
 Structure written by MMmdl.
 40 41  0  0  0  0  0  0  0  0  3 V2000
  154.1320  134.0527  165.4513 C   0  0  0  0  0  0  0  0  0  0  0  0
  154.1173  134.9891  164.2921 C   0  0  0  0  0  0  0  0  0  0  0  0
  154.3362  134.5871  163.0380 N   0  0  0  0  0  0  0  0  0  0  0  0
  154.2680  135.6365  162.1333 N   0  0  0  0  0  0  0  0  0  0  0  0
  154.0079  136.8160  162.7145 C   0  0  0  0  0  0  0  0  0  0  0  0
  153.9002  137.9566  162.0130 N   0  5  0  0  0  0  0  0  0  0  0  0
  153.3521  137.9398  160.7777 C   0  0  0  0  0  0  0  0  0  0  0  0
  152.9572  136.9435  160.1677 O   0  0  0  0  0  0  0  0  0  0  0  0
  153.2694  139.1511  160.2084 N   0  0  0  0  0  0  0  0  0  0  0  0
  152.7512  139.4452  158.8754 C   0  0  0  0  0  0  0  0  0  0  0  0
  151.8172  140.6702  158.8823 C   0  0  2  0  0  0  0  0  0  0  0  0
  151.5392  141.2453  157.4954 C   0  0  0  0  0  0  0  0  0  0  0  0
  151.1744  142.7151  157.7446 C   0  0  0  0  0  0  0  0  0  0  0  0
  151.5417  143.0264  159.1491 N   0  3  2  0  0  0  0  0  0  0  0  0
  152.1337  144.3762  159.3682 C   0  0  0  0  0  0  0  0  0  0  0  0
  152.2753  144.7004  160.8681 C   0  0  0  0  0  0  0  0  0  0  0  0
  151.2914  145.4682  158.6824 C   0  0  0  0  0  0  0  0  0  0  0  0
  152.3509  141.8892  159.6347 C   0  0  0  0  0  0  0  0  0  0  0  0
  153.8049  136.7085  164.4629 S   0  0  0  0  0  0  0  0  0  0  0  0
  153.2403  133.4259  165.4354 H   0  0  0  0  0  0  0  0  0  0  0  0
  154.1528  134.6092  166.3884 H   0  0  0  0  0  0  0  0  0  0  0  0
  155.0131  133.4125  165.4068 H   0  0  0  0  0  0  0  0  0  0  0  0
  153.5994  139.9363  160.7508 H   0  0  0  0  0  0  0  0  0  0  0  0
  153.5669  139.5830  158.1637 H   0  0  0  0  0  0  0  0  0  0  0  0
  152.1985  138.5689  158.5364 H   0  0  0  0  0  0  0  0  0  0  0  0
  150.8628  140.3851  159.3287 H   0  0  0  0  0  0  0  0  0  0  0  0
  152.4400  141.1952  156.8816 H   0  0  0  0  0  0  0  0  0  0  0  0
  150.7527  140.7024  156.9705 H   0  0  0  0  0  0  0  0  0  0  0  0
  151.7063  143.3503  157.0345 H   0  0  0  0  0  0  0  0  0  0  0  0
  150.1061  142.8873  157.6093 H   0  0  0  0  0  0  0  0  0  0  0  0
  153.1314  144.3843  158.9263 H   0  0  0  0  0  0  0  0  0  0  0  0
  152.6604  145.7100  161.0149 H   0  0  0  0  0  0  0  0  0  0  0  0
  152.9688  144.0249  161.3693 H   0  0  0  0  0  0  0  0  0  0  0  0
  151.3148  144.6364  161.3807 H   0  0  0  0  0  0  0  0  0  0  0  0
  151.7163  146.4568  158.8588 H   0  0  0  0  0  0  0  0  0  0  0  0
  150.2694  145.4761  159.0630 H   0  0  0  0  0  0  0  0  0  0  0  0
  151.2433  145.3331  157.6019 H   0  0  0  0  0  0  0  0  0  0  0  0
  152.2703  141.7713  160.7158 H   0  0  0  0  0  0  0  0  0  0  0  0
  153.4005  142.0544  159.3846 H   0  0  0  0  0  0  0  0  0  0  0  0
  150.6811  142.9905  159.6766 H   0  0  0  0  0  0  0  0  0  0  0  0
  1  2  1  0  0  0  0
  1 20  1  0  0  0  0
  1 21  1  0  0  0  0
  1 22  1  0  0  0  0
  2 19  1  0  0  0  0
  2  3  2  0  0  0  0
  3  4  1  0  0  0  0
  4  5  2  0  0  0  0
  5  6  1  0  0  0  0
  5 19  1  0  0  0  0
  6  7  1  0  0  0  0
  7  8  2  0  0  0  0
  7  9  1  0  0  0  0
  9 10  1  0  0  0  0
  9 23  1  0  0  0  0
 10 11  1  0  0  0  0
 10 24  1  0  0  0  0
 10 25  1  0  0  0  0
 11 18  1  0  0  0  0
 11 12  1  0  0  0  0
 11 26  1  0  0  0  0
 12 13  1  0  0  0  0
 12 27  1  0  0  0  0
 12 28  1  0  0  0  0
 13 14  1  0  0  0  0
 13 29  1  0  0  0  0
 13 30  1  0  0  0  0
 14 15  1  0  0  0  0
 14 18  1  0  0  0  0
 14 40  1  0  0  0  0
 15 16  1  0  0  0  0
 15 17  1  0  0  0  0
 15 31  1  0  0  0  0
 16 32  1  0  0  0  0
 16 33  1  0  0  0  0
 16 34  1  0  0  0  0
 17 35  1  0  0  0  0
 17 36  1  0  0  0  0
 17 37  1  0  0  0  0
 18 38  1  0  0  0  0
 18 39  1  0  0  0  0
M  CHG  1   6  -1
M  CHG  1  14   1
M  END
> <s_m_source_file>
AV-unprocessed.smi

> <i_m_source_file_index>
1831

> <i_lp_mmshare_version>
43012

> <i_f3d_flags>
0

> <s_epik_input>
W0NIM11jMW5uYyhzMSlbTkhdQyg9TylbTkhdW0NIMl1bQ0BASF0yW0NIMl1bQ0gyXU4oW0NIMl0yKVtDSF0oW0NIM10pW0NIM10=

> <s_epik_cmdline>
J2VwaWtfcHl0aG9uJywgJy1waCcsICc3LjAnLCAnLXRuJywgJzgnLCAnLW1hJywgJzIwMCcsICctbWV0YWxfYmluZGluZycsICctaW1hZScsICc8aW5maWxlLm1hZT4nLCAnLW9tYWUnLCAnPG91dGZpbGUubWFlPic=

> <r_lp_tautomer_probability>
1

> <r_epik_Ionization_Penalty>
4.24531

> <r_epik_Ionization_Penalty_Charging>
4.11954

> <r_epik_Ionization_Penalty_Neutral>
0.125766

> <r_epik_State_Penalty>
4.11879

> <r_epik_Charging_Adjusted_Penalty>
8.23833

> <i_epik_Tot_Q>
0

> <i_epik_Tot_abs_Q>
2

> <r_epik_Metal_State_Penalty>
0.659341

> <b_epik_Metal_Only>
1

> <s_lp_Force_Field>
OPLS_2005

> <r_lp_Energy>
22.0207

> <b_lp_Chiralities_Consistent>
1

> <s_lp_Variant>
AV-unprocessed.smi:1831-7

> <Gold.Version>
5.8.1

> <Gold.Id.Protein>
6NUR|6NUR_protein|mol2

> <Gold.PLP.Fitness>
41.8276

> <Gold.PLP.PLP>
-39.8509

> <Gold.PLP.part.hbond>
-0.9675

> <Gold.PLP.part.metal>
0.0000

> <Gold.PLP.part.buried>
-6.1651

> <Gold.PLP.part.nonpolar>
-32.5563

> <Gold.PLP.part.repulsive>
0.1283

> <Gold.PLP.ligand.clash>
0.0000

> <Gold.PLP.ligand.torsion>
0.5238

> <Gold.PLP.Chemscore.Hbond>
0.9913

> <Gold.PLP.Chemscore.CHOScore>
0.0000

> <Gold.PLP.Chemscore.Metal>
0.0000

> <Gold.Chemscore.Hbonds>
donor molecule, donor type, donor heavy atom, donor atom, acceptor molecule, acceptor atom, score
      P1  H  6896  6908       L1     8  0.75

> <Gold.PLP.Chemscore.Internal.Correction>
0.0505

> <Gold.Rescore>
     Score         DG    S(hbond)    S(metal)    S(lipo)     H(rot)  DE(clash)    DE(int)     intcor
     14.44     -16.47       0.95        0.00      99.89       1.51       0.08       1.95       ----

> <Gold.Chemscore.Fitness>
14.4411

> <Gold.Chemscore.DG>
-16.4687

> <Gold.Chemscore.ZeroCoef>
-5.4800

> <Gold.Chemscore.Hbond>
0.9505

> <Gold.Chemscore.Metal>
0.0000

> <Gold.Chemscore.Lipo>
99.8949

> <Gold.Chemscore.Internal_Hbond>
0.0000

> <Gold.Chemscore.DEClash>
0.0811

> <Gold.Chemscore.DEInternal>
1.9466

> <Gold.Chemscore.Rot>
1.5131

> <Gold.Chemscore.Internal.Correction>
   9.000000E+99

> <Gold.Chemscore.Hbonds>
donor molecule, donor type, donor heavy atom, donor atom, acceptor molecule, acceptor atom, score
      P1  H  6896  6908       L1     8  0.75

> <Gold.Chemscore.Hbond.Weighted>
-3.1745

> <Gold.Chemscore.Metal.Weighted>
-0.0000

> <Gold.Chemscore.Lipo.Weighted>
-11.6877

> <Gold.Chemscore.Internal_Hbond.Weighted>
0.0000

> <Gold.Chemscore.DEClash.Weighted>
0.0811

> <Gold.Chemscore.DEInternal.Weighted>
1.9466

> <Gold.Chemscore.Rot.Weighted>
3.8735

> <Gold.Chemscore.Internal.Correction.Weighted>
   9.000000E+99

> <Gold.Protein.RotatedTorsions>
[ 6907 6896 6895 6894 ] final  -82.69 input  -60.11 | X-H torsion
[ 7974 7965 7964 7962 ] final  -53.32 input  175.53 | X-H torsion
[ 8008 7997 7996 7995 ] final  -74.11 input   59.86 | X-H torsion
[ 10167 10162 10161 10158 ] final  106.97 input  -65.29 | X-H torsion
[ 10718 10713 10712 10709 ] final   67.35 input   66.30 | X-H torsion
[ 10763 10752 10751 10750 ] final -177.49 input  -60.55 | X-H torsion
[ 11005 11000 10999 10996 ] final  -32.08 input  -57.11 | X-H torsion

> <Gold.Protein.ActiveResidues>
 VAL166  LYS551  ARG553  GLY616  TRP617  ASP618  TYR619  PRO620  LYS621  CYS622 
 ASP623  PHE694  ASN695  SER759  ASP760  ASP761  ALA762  ILE779  LEU786  VAL792 
 PHE793  MET794  SER795  GLU796  ALA797  LYS798  CYS799  TRP800  GLU811  SER814 

> <Gold.Protein.RotatedAtoms>
  150.6894  134.3626  159.4956 H   0  0  0  0  0  0  0  0  0  0  0  0  # atno 6907 bound_to 6896
  152.1453  134.9028  160.0560 H   0  0  0  0  0  0  0  0  0  0  0  0  # atno 6908 bound_to 6896
  152.0146  133.3840  159.4270 H   0  0  0  0  0  0  0  0  0  0  0  0  # atno 6909 bound_to 6896
  145.8981  140.8016  142.9757 H   0  0  0  0  0  0  0  0  0  0  0  0  # atno 7974 bound_to 7965
  154.5303  140.0767  156.8333 H   0  0  0  0  0  0  0  0  0  0  0  0  # atno 8008 bound_to 7997
  155.3389  140.3406  155.4221 H   0  0  0  0  0  0  0  0  0  0  0  0  # atno 8009 bound_to 7997
  156.1774  140.1640  156.8323 H   0  0  0  0  0  0  0  0  0  0  0  0  # atno 8010 bound_to 7997
  139.6965  144.7100  151.1258 H   0  0  0  0  0  0  0  0  0  0  0  0  # atno 10167 bound_to 10162
  157.6225  130.9316  150.0230 H   0  0  0  0  0  0  0  0  0  0  0  0  # atno 10718 bound_to 10713
  154.5594  135.2819  155.0933 H   0  0  0  0  0  0  0  0  0  0  0  0  # atno 10763 bound_to 10752
  154.2348  135.6367  153.5191 H   0  0  0  0  0  0  0  0  0  0  0  0  # atno 10764 bound_to 10752
  153.0025  135.5546  154.6184 H   0  0  0  0  0  0  0  0  0  0  0  0  # atno 10765 bound_to 10752
  140.9522  133.7214  156.1238 H   0  0  0  0  0  0  0  0  0  0  0  0  # atno 11005 bound_to 11000
  144.6734  140.1634  143.7420 LP  0  0  0  0  0  0  0  0  0  0  0  0  # atno 17320 bound_to 7965
  145.8825  139.2330  143.1597 LP  0  0  0  0  0  0  0  0  0  0  0  0  # atno 17321 bound_to 7965
  140.7698  143.5484  150.9232 LP  0  0  0  0  0  0  0  0  0  0  0  0  # atno 17342 bound_to 10162
  139.9164  143.6658  152.3105 LP  0  0  0  0  0  0  0  0  0  0  0  0  # atno 17343 bound_to 10162
  156.1378  130.3642  149.9630 LP  0  0  0  0  0  0  0  0  0  0  0  0  # atno 17370 bound_to 10713
  156.7677  130.9175  151.3643 LP  0  0  0  0  0  0  0  0  0  0  0  0  # atno 17371 bound_to 10713
  140.7586  134.3964  157.5529 LP  0  0  0  0  0  0  0  0  0  0  0  0  # atno 17394 bound_to 11000
  139.8851  134.8946  156.2663 LP  0  0  0  0  0  0  0  0  0  0  0  0  # atno 17395 bound_to 11000

$$$$
