AV-unprocessed.smi:72|AV-procd|sdf|700|dock3
  -GOLD-   2262017 13D 1   1.00000     0.00000
 Structure written by MMmdl.
 30 31  0  0  0  0  0  0  0  0  2 V2000
  151.6889  144.4054  158.3558 N   0  0  0  0  0  0  0  0  0  0  0  0
  151.4752  143.1067  157.9428 C   0  0  0  0  0  0  0  0  0  0  0  0
  150.4398  142.8765  157.0549 N   0  3  0  0  0  0  0  0  0  0  0  0
  150.1030  141.6794  156.5557 C   0  0  0  0  0  0  0  0  0  0  0  0
  150.7992  140.6180  156.9123 N   0  0  0  0  0  0  0  0  0  0  0  0
  150.4782  139.2371  156.3883 C   0  0  1  0  0  0  0  0  0  0  0  0
  149.2171  139.2737  155.7929 O   0  0  0  0  0  0  0  0  0  0  0  0
  149.3490  139.2801  154.3753 C   0  0  2  0  0  0  0  0  0  0  0  0
  148.0451  138.8354  153.6916 C   0  0  0  0  0  0  0  0  0  0  0  0
  148.2230  138.8145  152.2914 O   0  0  0  0  0  0  0  0  0  0  0  0
  150.5616  138.3703  154.1514 C   0  0  2  0  0  0  0  0  0  0  0  0
  150.1947  137.0046  154.2262 O   0  0  0  0  0  0  0  0  0  0  0  0
  151.4780  138.7396  155.3117 C   0  0  1  0  0  0  0  0  0  0  0  0
  152.4066  139.7222  154.8841 O   0  0  0  0  0  0  0  0  0  0  0  0
  151.8727  140.7538  157.8300 C   0  0  0  0  0  0  0  0  0  0  0  0
  152.5246  139.7679  158.1724 O   0  0  0  0  0  0  0  0  0  0  0  0
  152.1468  142.0469  158.2987 N   0  0  0  0  0  0  0  0  0  0  0  0
  150.4237  138.5933  157.2680 H   0  0  0  0  0  0  0  0  0  0  0  0
  149.6198  140.2832  154.0410 H   0  0  0  0  0  0  0  0  0  0  0  0
  151.0237  138.5405  153.1778 H   0  0  0  0  0  0  0  0  0  0  0  0
  152.0335  137.8798  155.6891 H   0  0  0  0  0  0  0  0  0  0  0  0
  152.4200  144.6661  159.0024 H   0  0  0  0  0  0  0  0  0  0  0  0
  151.1404  145.1949  158.0462 H   0  0  0  0  0  0  0  0  0  0  0  0
  149.2648  141.6136  155.8755 H   0  0  0  0  0  0  0  0  0  0  0  0
  147.7838  137.8237  154.0034 H   0  0  0  0  0  0  0  0  0  0  0  0
  147.2112  139.4860  153.9572 H   0  0  0  0  0  0  0  0  0  0  0  0
  148.5754  137.9724  152.0459 H   0  0  0  0  0  0  0  0  0  0  0  0
  149.8373  136.7420  153.3915 H   0  0  0  0  0  0  0  0  0  0  0  0
  153.1337  139.7310  155.4884 H   0  0  0  0  0  0  0  0  0  0  0  0
  149.8957  143.6755  156.7626 H   0  0  0  0  0  0  0  0  0  0  0  0
  1  2  1  0  0  0  0
  1 22  1  0  0  0  0
  1 23  1  0  0  0  0
  2 17  2  0  0  0  0
  2  3  1  0  0  0  0
  3  4  2  0  0  0  0
  3 30  1  0  0  0  0
  4  5  1  0  0  0  0
  4 24  1  0  0  0  0
  5  6  1  0  0  0  0
  5 15  1  0  0  0  0
  6 18  1  0  0  0  0
  6 13  1  0  0  0  0
  6  7  1  0  0  0  0
  7  8  1  0  0  0  0
  8 19  1  0  0  0  0
  8  9  1  0  0  0  0
  8 11  1  0  0  0  0
  9 10  1  0  0  0  0
  9 25  1  0  0  0  0
  9 26  1  0  0  0  0
 10 27  1  0  0  0  0
 11 20  1  0  0  0  0
 11 12  1  0  0  0  0
 11 13  1  0  0  0  0
 12 28  1  0  0  0  0
 13 21  1  0  0  0  0
 13 14  1  0  0  0  0
 14 29  1  0  0  0  0
 15 16  2  0  0  0  0
 15 17  1  0  0  0  0
M  CHG  1   3   1
M  END
> <s_m_source_file>
AV-unprocessed.smi

> <i_m_source_file_index>
72

> <i_lp_mmshare_version>
43012

> <i_f3d_flags>
0

> <s_epik_input>
W05IMl1jMW5bY0hdbihjKD1PKW4xKVtDQEBIXTJPW0NASF0oW0NIMl1bT0hdKVtDQEBIXShbT0hdKVtDQEhdMltPSF0=

> <s_epik_cmdline>
J2VwaWtfcHl0aG9uJywgJy1waCcsICc3LjAnLCAnLXRuJywgJzgnLCAnLW1hJywgJzIwMCcsICctbWV0YWxfYmluZGluZycsICctaW1hZScsICc8aW5maWxlLm1hZT4nLCAnLW9tYWUnLCAnPG91dGZpbGUubWFlPic=

> <r_lp_tautomer_probability>
4.77166e-05

> <r_epik_Ionization_Penalty>
0.104979

> <r_epik_Ionization_Penalty_Charging>
0.0999619

> <r_epik_Ionization_Penalty_Neutral>
0.00501745

> <r_epik_State_Penalty>
2.51541

> <r_epik_Charging_Adjusted_Penalty>
2.61537

> <i_epik_Tot_Q>
1

> <i_epik_Tot_abs_Q>
1

> <r_epik_Metal_State_Penalty>
3.53763

> <b_epik_Metal_Only>
0

> <s_epik_Chemistry_Notes>
This compound contains an acetal/aminal-like group ( X-CH(R)-Y where X, Y are N, S, or O) that may be acid/base labile, releasing an aldehyde.

> <s_lp_Force_Field>
OPLS_2005

> <r_lp_Energy>
34.8878

> <b_lp_Chiralities_Consistent>
1

> <s_lp_Variant>
AV-unprocessed.smi:72-38

> <Gold.Version>
5.8.1

> <Gold.Id.Protein>
6NUR|6NUR_protein|mol2

> <Gold.PLP.Fitness>
42.7637

> <Gold.PLP.PLP>
-26.4304

> <Gold.PLP.part.hbond>
-6.4934

> <Gold.PLP.part.metal>
0.0000

> <Gold.PLP.part.buried>
-3.4703

> <Gold.PLP.part.nonpolar>
-15.9237

> <Gold.PLP.part.repulsive>
0.0716

> <Gold.PLP.ligand.clash>
0.0000

> <Gold.PLP.ligand.torsion>
0.3741

> <Gold.PLP.Chemscore.Hbond>
5.6560

> <Gold.PLP.Chemscore.CHOScore>
0.0000

> <Gold.PLP.Chemscore.Metal>
0.0000

> <Gold.Chemscore.Hbonds>
donor molecule, donor type, donor heavy atom, donor atom, acceptor molecule, acceptor atom, score
      L1  H     3    30       P1  8028  2.00
      L1  H    10    27       P1  7948  1.00
      L1  H    12    28       P1  7948  1.00
      P1  H  7989  7998       L1    14  0.67
      P1  H  7997  8009       L1    16  0.18

> <Gold.PLP.Chemscore.Internal.Correction>
0.1136

> <Gold.Rescore>
     Score         DG    S(hbond)    S(metal)    S(lipo)     H(rot)  DE(clash)    DE(int)     intcor
     11.51     -12.05       4.29        0.00      22.88       4.08       0.10       0.45       ----

> <Gold.Chemscore.Fitness>
11.5053

> <Gold.Chemscore.DG>
-12.0518

> <Gold.Chemscore.ZeroCoef>
-5.4800

> <Gold.Chemscore.Hbond>
4.2920

> <Gold.Chemscore.Metal>
0.0000

> <Gold.Chemscore.Lipo>
22.8812

> <Gold.Chemscore.Internal_Hbond>
0.0000

> <Gold.Chemscore.DEClash>
0.0998

> <Gold.Chemscore.DEInternal>
0.4467

> <Gold.Chemscore.Rot>
4.0783

> <Gold.Chemscore.Internal.Correction>
   9.000000E+99

> <Gold.Chemscore.Hbonds>
donor molecule, donor type, donor heavy atom, donor atom, acceptor molecule, acceptor atom, score
      L1  H     3    30       P1  8028  0.99
      L1  H    10    27       P1  7948  1.00
      L1  H    12    28       P1  7948  0.30
      P1  H  7989  7998       L1    14  0.55
      P1  H  7997  8009       L1    16  0.06

> <Gold.Chemscore.Hbond.Weighted>
-14.3351

> <Gold.Chemscore.Metal.Weighted>
-0.0000

> <Gold.Chemscore.Lipo.Weighted>
-2.6771

> <Gold.Chemscore.Internal_Hbond.Weighted>
0.0000

> <Gold.Chemscore.DEClash.Weighted>
0.0998

> <Gold.Chemscore.DEInternal.Weighted>
0.4467

> <Gold.Chemscore.Rot.Weighted>
10.4404

> <Gold.Chemscore.Internal.Correction.Weighted>
   9.000000E+99

> <Gold.Protein.RotatedTorsions>
[ 6907 6896 6895 6894 ] final  -99.44 input  -60.11 | X-H torsion
[ 7974 7965 7964 7962 ] final -173.98 input  175.53 | X-H torsion
[ 8008 7997 7996 7995 ] final  162.53 input   59.86 | X-H torsion
[ 10167 10162 10161 10158 ] final  -69.89 input  -65.29 | X-H torsion
[ 10718 10713 10712 10709 ] final -164.44 input   66.30 | X-H torsion
[ 10763 10752 10751 10750 ] final  133.86 input  -60.55 | X-H torsion
[ 11005 11000 10999 10996 ] final   96.11 input  -57.11 | X-H torsion

> <Gold.Protein.ActiveResidues>
 VAL166  LYS551  ARG553  GLY616  TRP617  ASP618  TYR619  PRO620  LYS621  CYS622 
 ASP623  PHE694  ASN695  SER759  ASP760  ASP761  ALA762  ILE779  LEU786  VAL792 
 PHE793  MET794  SER795  GLU796  ALA797  LYS798  CYS799  TRP800  GLU811  SER814 

> <Gold.Protein.RotatedAtoms>
  150.7080  134.1041  159.3975 H   0  0  0  0  0  0  0  0  0  0  0  0  # atno 6907 bound_to 6896
  151.9027  135.0369  160.0517 H   0  0  0  0  0  0  0  0  0  0  0  0  # atno 6908 bound_to 6896
  152.2401  133.5093  159.5302 H   0  0  0  0  0  0  0  0  0  0  0  0  # atno 6909 bound_to 6896
  144.7134  140.1540  143.6382 H   0  0  0  0  0  0  0  0  0  0  0  0  # atno 7974 bound_to 7965
  156.2024  140.1748  156.7870 H   0  0  0  0  0  0  0  0  0  0  0  0  # atno 8008 bound_to 7997
  154.5610  140.0699  156.8849 H   0  0  0  0  0  0  0  0  0  0  0  0  # atno 8009 bound_to 7997
  155.2848  140.3351  155.4258 H   0  0  0  0  0  0  0  0  0  0  0  0  # atno 8010 bound_to 7997
  140.5395  143.2316  151.7114 H   0  0  0  0  0  0  0  0  0  0  0  0  # atno 10167 bound_to 10162
  156.6391  130.8961  151.2992 H   0  0  0  0  0  0  0  0  0  0  0  0  # atno 10718 bound_to 10713
  153.8141  135.3125  155.3404 H   0  0  0  0  0  0  0  0  0  0  0  0  # atno 10763 bound_to 10752
  154.8039  135.4710  154.0347 H   0  0  0  0  0  0  0  0  0  0  0  0  # atno 10764 bound_to 10752
  153.1735  135.6881  153.8664 H   0  0  0  0  0  0  0  0  0  0  0  0  # atno 10765 bound_to 10752
  139.8784  134.8934  156.4110 H   0  0  0  0  0  0  0  0  0  0  0  0  # atno 11005 bound_to 11000
  145.9090  139.2476  143.1448 LP  0  0  0  0  0  0  0  0  0  0  0  0  # atno 17320 bound_to 7965
  145.9735  140.8741  143.0150 LP  0  0  0  0  0  0  0  0  0  0  0  0  # atno 17321 bound_to 7965
  139.4983  144.3990  152.0201 LP  0  0  0  0  0  0  0  0  0  0  0  0  # atno 17342 bound_to 10162
  140.3098  144.3551  150.6037 LP  0  0  0  0  0  0  0  0  0  0  0  0  # atno 17343 bound_to 10162
  157.7176  130.9517  150.1315 LP  0  0  0  0  0  0  0  0  0  0  0  0  # atno 17370 bound_to 10713
  156.2173  130.3671  149.8598 LP  0  0  0  0  0  0  0  0  0  0  0  0  # atno 17371 bound_to 10713
  140.9200  133.7651  155.9895 LP  0  0  0  0  0  0  0  0  0  0  0  0  # atno 17394 bound_to 11000
  140.8450  134.3021  157.5298 LP  0  0  0  0  0  0  0  0  0  0  0  0  # atno 17395 bound_to 11000

$$$$
