AV-unprocessed.smi:1535|AV-procd|sdf|6177|dock4
  -GOLD-   22720 6333D 1   1.00000     0.00000
 Structure written by MMmdl.
 47 48  0  0  0  0  0  0  0  0  2 V2000
  152.1983  144.1840  161.2179 C   0  0  0  0  0  0  0  0  0  0  0  0
  152.0375  143.2654  160.0186 C   0  0  0  0  0  0  0  0  0  0  0  0
  151.1857  143.6715  158.9672 C   0  0  0  0  0  0  0  0  0  0  0  0
  151.0589  142.8097  157.8847 C   0  0  0  0  0  0  0  0  0  0  0  0
  150.3080  142.9222  156.7129 N   0  3  0  0  0  0  0  0  0  0  0  0
  150.5023  141.8176  155.9413 C   0  0  0  0  0  0  0  0  0  0  0  0
  151.3570  140.9947  156.6085 N   0  0  0  0  0  0  0  0  0  0  0  0
  151.8733  139.6770  156.2140 C   0  0  0  0  0  0  0  0  0  0  0  0
  150.7636  138.6583  155.8666 C   0  0  1  0  0  0  0  0  0  0  0  0
  150.9449  138.3342  154.5036 O   0  0  0  0  0  0  0  0  0  0  0  0
  150.8142  137.3408  156.6824 C   0  0  0  0  0  0  0  0  0  0  0  0
  149.7586  136.3647  156.3966 N   0  0  0  0  0  0  0  0  0  0  0  0
  148.5170  137.0620  156.0773 C   0  0  0  0  0  0  0  0  0  0  0  0
  150.1361  135.4437  155.3228 C   0  0  0  0  0  0  0  0  0  0  0  0
  149.5989  134.0064  155.4436 C   0  0  1  0  0  0  0  0  0  0  0  0
  149.7477  133.2575  154.1130 C   0  0  0  0  0  0  0  0  0  0  0  0
  150.2655  133.2701  156.5304 C   0  0  0  0  0  0  0  0  0  0  0  0
  150.7900  132.6928  157.3846 N   0  0  0  0  0  0  0  0  0  0  0  0
  151.7431  141.5792  157.8215 C   0  0  0  0  0  0  0  0  0  0  0  0
  152.5904  141.1677  158.8481 C   0  0  0  0  0  0  0  0  0  0  0  0
  152.7294  142.0282  159.9602 C   0  0  0  0  0  0  0  0  0  0  0  0
  153.6389  141.5983  161.0987 C   0  0  0  0  0  0  0  0  0  0  0  0
  151.6386  145.1108  161.0891 H   0  0  0  0  0  0  0  0  0  0  0  0
  153.2465  144.4469  161.3624 H   0  0  0  0  0  0  0  0  0  0  0  0
  151.8349  143.6973  162.1234 H   0  0  0  0  0  0  0  0  0  0  0  0
  150.6554  144.6120  159.0045 H   0  0  0  0  0  0  0  0  0  0  0  0
  150.0501  141.6227  154.9794 H   0  0  0  0  0  0  0  0  0  0  0  0
  152.4998  139.8487  155.3372 H   0  0  0  0  0  0  0  0  0  0  0  0
  152.5397  139.2938  156.9866 H   0  0  0  0  0  0  0  0  0  0  0  0
  149.7834  139.1300  155.9476 H   0  0  0  0  0  0  0  0  0  0  0  0
  151.7455  137.8392  154.4171 H   0  0  0  0  0  0  0  0  0  0  0  0
  151.7772  136.8630  156.4929 H   0  0  0  0  0  0  0  0  0  0  0  0
  150.8281  137.5604  157.7492 H   0  0  0  0  0  0  0  0  0  0  0  0
  147.6853  136.3663  155.9741 H   0  0  0  0  0  0  0  0  0  0  0  0
  148.6094  137.6286  155.1497 H   0  0  0  0  0  0  0  0  0  0  0  0
  148.2475  137.7581  156.8725 H   0  0  0  0  0  0  0  0  0  0  0  0
  149.8326  135.8625  154.3623 H   0  0  0  0  0  0  0  0  0  0  0  0
  151.2194  135.3612  155.2923 H   0  0  0  0  0  0  0  0  0  0  0  0
  148.5379  134.0268  155.6889 H   0  0  0  0  0  0  0  0  0  0  0  0
  149.3475  132.2459  154.1875 H   0  0  0  0  0  0  0  0  0  0  0  0
  150.7948  133.1806  153.8184 H   0  0  0  0  0  0  0  0  0  0  0  0
  149.2117  133.7673  153.3118 H   0  0  0  0  0  0  0  0  0  0  0  0
  153.1200  140.2276  158.8087 H   0  0  0  0  0  0  0  0  0  0  0  0
  154.0696  140.6134  160.9155 H   0  0  0  0  0  0  0  0  0  0  0  0
  153.0833  141.5483  162.0353 H   0  0  0  0  0  0  0  0  0  0  0  0
  154.4607  142.3044  161.2195 H   0  0  0  0  0  0  0  0  0  0  0  0
  149.7084  143.6955  156.4547 H   0  0  0  0  0  0  0  0  0  0  0  0
  1  2  1  0  0  0  0
  1 23  1  0  0  0  0
  1 24  1  0  0  0  0
  1 25  1  0  0  0  0
  2 21  1  0  0  0  0
  2  3  2  0  0  0  0
  3  4  1  0  0  0  0
  3 26  1  0  0  0  0
  4 19  2  0  0  0  0
  4  5  1  0  0  0  0
  5  6  2  0  0  0  0
  5 47  1  0  0  0  0
  6  7  1  0  0  0  0
  6 27  1  0  0  0  0
  7  8  1  0  0  0  0
  7 19  1  0  0  0  0
  8  9  1  0  0  0  0
  8 28  1  0  0  0  0
  8 29  1  0  0  0  0
  9 10  1  0  0  0  0
  9 11  1  0  0  0  0
  9 30  1  0  0  0  0
 10 31  1  0  0  0  0
 11 12  1  0  0  0  0
 11 32  1  0  0  0  0
 11 33  1  0  0  0  0
 12 13  1  0  0  0  0
 12 14  1  0  0  0  0
 13 34  1  0  0  0  0
 13 35  1  0  0  0  0
 13 36  1  0  0  0  0
 14 15  1  0  0  0  0
 14 37  1  0  0  0  0
 14 38  1  0  0  0  0
 15 16  1  0  0  0  0
 15 17  1  0  0  0  0
 15 39  1  0  0  0  0
 16 40  1  0  0  0  0
 16 41  1  0  0  0  0
 16 42  1  0  0  0  0
 17 18  3  0  0  0  0
 19 20  1  0  0  0  0
 20 21  2  0  0  0  0
 20 43  1  0  0  0  0
 21 22  1  0  0  0  0
 22 44  1  0  0  0  0
 22 45  1  0  0  0  0
 22 46  1  0  0  0  0
M  CHG  1   5   1
M  END
> <s_m_source_file>
AV-unprocessed.smi

> <i_m_source_file_index>
1535

> <i_lp_mmshare_version>
43012

> <i_f3d_flags>
0

> <s_epik_input>
W0NIM11jKFtjSF0xKWMoW0NIM10pW2NIXWMoYzEyKW4oW2NIXW4yKVtDSDJdW0NASF0oW09IXSlbQ0gyXU4oW0NIM10pW0NIMl1bQ0BIXShbQ0gzXSlDI04=

> <s_epik_cmdline>
J2VwaWtfcHl0aG9uJywgJy1waCcsICc3LjAnLCAnLXRuJywgJzgnLCAnLW1hJywgJzIwMCcsICctbWV0YWxfYmluZGluZycsICctaW1hZScsICc8aW5maWxlLm1hZT4nLCAnLW9tYWUnLCAnPG91dGZpbGUubWFlPic=

> <r_epik_Ionization_Penalty>
1.22846

> <r_epik_Ionization_Penalty_Charging>
1.21333

> <r_epik_Ionization_Penalty_Neutral>
0.0151341

> <r_epik_State_Penalty>
1.27012

> <r_epik_Charging_Adjusted_Penalty>
2.48344

> <i_epik_Tot_Q>
1

> <i_epik_Tot_abs_Q>
1

> <r_epik_Metal_State_Penalty>
5.28751

> <b_epik_Metal_Only>
0

> <s_lp_Force_Field>
OPLS_2005

> <r_lp_Energy>
29.5902

> <b_lp_Chiralities_Consistent>
1

> <s_lp_Variant>
AV-unprocessed.smi:1535-8

> <Gold.Version>
5.8.1

> <Gold.Id.Protein>
6NUR|6NUR_protein|mol2

> <Gold.PLP.Fitness>
48.2661

> <Gold.PLP.PLP>
-42.2674

> <Gold.PLP.part.hbond>
-1.9979

> <Gold.PLP.part.metal>
0.0000

> <Gold.PLP.part.buried>
-7.1883

> <Gold.PLP.part.nonpolar>
-33.8443

> <Gold.PLP.part.repulsive>
0.0623

> <Gold.PLP.ligand.clash>
0.0000

> <Gold.PLP.ligand.torsion>
1.6070

> <Gold.PLP.Chemscore.Hbond>
3.0000

> <Gold.PLP.Chemscore.CHOScore>
0.0000

> <Gold.PLP.Chemscore.Metal>
0.0000

> <Gold.Chemscore.Hbonds>
donor molecule, donor type, donor heavy atom, donor atom, acceptor molecule, acceptor atom, score
      L1  H     5    47       P1  8028  1.98
      P1  H  6896  6908       L1    18  1.00

> <Gold.PLP.Chemscore.Internal.Correction>
0.2125

> <Gold.Rescore>
     Score         DG    S(hbond)    S(metal)    S(lipo)     H(rot)  DE(clash)    DE(int)     intcor
     16.89     -18.55       1.98        0.00     111.93       2.59       0.03       1.64       ----

> <Gold.Chemscore.Fitness>
16.8877

> <Gold.Chemscore.DG>
-18.5520

> <Gold.Chemscore.ZeroCoef>
-5.4800

> <Gold.Chemscore.Hbond>
1.9795

> <Gold.Chemscore.Metal>
0.0000

> <Gold.Chemscore.Lipo>
111.9294

> <Gold.Chemscore.Internal_Hbond>
0.0000

> <Gold.Chemscore.DEClash>
0.0272

> <Gold.Chemscore.DEInternal>
1.6372

> <Gold.Chemscore.Rot>
2.5918

> <Gold.Chemscore.Internal.Correction>
   9.000000E+99

> <Gold.Chemscore.Hbonds>
donor molecule, donor type, donor heavy atom, donor atom, acceptor molecule, acceptor atom, score
      L1  H     5    47       P1  8028  0.93
      P1  H  6896  6908       L1    18  0.94

> <Gold.Chemscore.Hbond.Weighted>
-6.6114

> <Gold.Chemscore.Metal.Weighted>
-0.0000

> <Gold.Chemscore.Lipo.Weighted>
-13.0957

> <Gold.Chemscore.Internal_Hbond.Weighted>
0.0000

> <Gold.Chemscore.DEClash.Weighted>
0.0272

> <Gold.Chemscore.DEInternal.Weighted>
1.6372

> <Gold.Chemscore.Rot.Weighted>
6.6351

> <Gold.Chemscore.Internal.Correction.Weighted>
   9.000000E+99

> <Gold.Protein.RotatedTorsions>
[ 6907 6896 6895 6894 ] final   81.32 input  -60.11 | X-H torsion
[ 7974 7965 7964 7962 ] final -170.15 input  175.53 | X-H torsion
[ 8008 7997 7996 7995 ] final   39.46 input   59.86 | X-H torsion
[ 10167 10162 10161 10158 ] final -150.88 input  -65.29 | X-H torsion
[ 10718 10713 10712 10709 ] final  109.78 input   66.30 | X-H torsion
[ 10763 10752 10751 10750 ] final  -10.42 input  -60.55 | X-H torsion
[ 11005 11000 10999 10996 ] final   41.63 input  -57.11 | X-H torsion

> <Gold.Protein.ActiveResidues>
 VAL166  LYS551  ARG553  GLY616  TRP617  ASP618  TYR619  PRO620  LYS621  CYS622 
 ASP623  PHE694  ASN695  SER759  ASP760  ASP761  ALA762  ILE779  LEU786  VAL792 
 PHE793  MET794  SER795  GLU796  ALA797  LYS798  CYS799  TRP800  GLU811  SER814 

> <Gold.Protein.RotatedAtoms>
  152.5264  134.3222  159.9152 H   0  0  0  0  0  0  0  0  0  0  0  0  # atno 6907 bound_to 6896
  151.3172  133.4049  159.2659 H   0  0  0  0  0  0  0  0  0  0  0  0  # atno 6908 bound_to 6896
  150.9989  134.9323  159.8000 H   0  0  0  0  0  0  0  0  0  0  0  0  # atno 6909 bound_to 6896
  144.7174  140.2114  143.6327 H   0  0  0  0  0  0  0  0  0  0  0  0  # atno 7974 bound_to 7965
  155.2370  140.3342  155.4296 H   0  0  0  0  0  0  0  0  0  0  0  0  # atno 8008 bound_to 7997
  156.2271  140.1834  156.7380 H   0  0  0  0  0  0  0  0  0  0  0  0  # atno 8009 bound_to 7997
  154.5917  140.0637  156.9233 H   0  0  0  0  0  0  0  0  0  0  0  0  # atno 8010 bound_to 7997
  139.7315  143.8800  152.2536 H   0  0  0  0  0  0  0  0  0  0  0  0  # atno 10167 bound_to 10162
  157.6525  131.0920  150.6505 H   0  0  0  0  0  0  0  0  0  0  0  0  # atno 10718 bound_to 10713
  153.4690  135.7016  153.6005 H   0  0  0  0  0  0  0  0  0  0  0  0  # atno 10763 bound_to 10752
  153.4267  135.3812  155.2145 H   0  0  0  0  0  0  0  0  0  0  0  0  # atno 10764 bound_to 10752
  154.8725  135.3941  154.4125 H   0  0  0  0  0  0  0  0  0  0  0  0  # atno 10765 bound_to 10752
  140.1816  134.4097  155.8197 H   0  0  0  0  0  0  0  0  0  0  0  0  # atno 11005 bound_to 11000
  145.8587  139.2212  143.1729 LP  0  0  0  0  0  0  0  0  0  0  0  0  # atno 17320 bound_to 7965
  146.0193  140.8362  142.9931 LP  0  0  0  0  0  0  0  0  0  0  0  0  # atno 17321 bound_to 7965
  139.8725  144.7061  150.8971 LP  0  0  0  0  0  0  0  0  0  0  0  0  # atno 17342 bound_to 10162
  140.7772  143.3727  151.1620 LP  0  0  0  0  0  0  0  0  0  0  0  0  # atno 17343 bound_to 10162
  156.6814  130.4568  149.5626 LP  0  0  0  0  0  0  0  0  0  0  0  0  # atno 17370 bound_to 10713
  156.1926  130.6569  151.1078 LP  0  0  0  0  0  0  0  0  0  0  0  0  # atno 17371 bound_to 10713
  141.2223  133.7003  156.7941 LP  0  0  0  0  0  0  0  0  0  0  0  0  # atno 17394 bound_to 11000
  140.2261  134.8721  157.3428 LP  0  0  0  0  0  0  0  0  0  0  0  0  # atno 17395 bound_to 11000

$$$$
