AV-unprocessed.smi:2061|AV-procd|sdf|8367|dock10
  -GOLD-   2272011 43D 1   1.00000     0.00000
 Structure written by MMmdl.
 46 47  0  0  0  0  0  0  0  0  2 V2000
  151.8446  140.8217  156.3743 C   0  0  0  0  0  0  0  0  0  0  0  0
  151.7248  139.4758  155.7457 C   0  0  0  0  0  0  0  0  0  0  0  0
  150.6520  138.7032  155.3997 C   0  0  0  0  0  0  0  0  0  0  0  0
  151.2583  137.5432  154.8483 C   0  0  0  0  0  0  0  0  0  0  0  0
  150.4677  136.4707  154.3628 N   0  0  0  0  0  0  0  0  0  0  0  0
  150.3799  135.2265  154.8623 C   0  0  0  0  0  0  0  0  0  0  0  0
  151.0114  134.8019  155.8302 O   0  0  0  0  0  0  0  0  0  0  0  0
  149.4981  134.4860  154.1752 N   0  0  0  0  0  0  0  0  0  0  0  0
  149.1474  133.1026  154.4845 C   0  0  0  0  0  0  0  0  0  0  0  0
  148.7131  132.2848  153.2362 C   0  0  1  0  0  0  0  0  0  0  0  0
  148.2223  130.8796  153.6655 C   0  0  0  0  0  0  0  0  0  0  0  0
  147.6994  133.0443  152.4314 N   0  3  1  0  0  0  0  0  0  0  0  0
  147.0227  132.1993  151.4095 C   0  0  0  0  0  0  0  0  0  0  0  0
  146.0594  133.0335  150.5456 C   0  0  1  0  0  0  0  0  0  0  0  0
  145.3073  132.1741  149.5232 C   0  0  0  0  0  0  0  0  0  0  0  0
  145.1006  133.6515  151.3924 O   0  0  0  0  0  0  0  0  0  0  0  0
  145.7010  134.5477  152.3170 C   0  0  1  0  0  0  0  0  0  0  0  0
  144.5811  135.2275  153.1127 C   0  0  0  0  0  0  0  0  0  0  0  0
  146.6708  133.7699  153.2279 C   0  0  0  0  0  0  0  0  0  0  0  0
  152.5811  137.6022  154.8559 N   0  0  0  0  0  0  0  0  0  0  0  0
  152.8869  138.8415  155.4311 O   0  0  0  0  0  0  0  0  0  0  0  0
  150.8616  141.2323  156.6056 H   0  0  0  0  0  0  0  0  0  0  0  0
  152.3524  141.5165  155.7051 H   0  0  0  0  0  0  0  0  0  0  0  0
  152.4144  140.7661  157.3020 H   0  0  0  0  0  0  0  0  0  0  0  0
  149.6043  138.9333  155.5241 H   0  0  0  0  0  0  0  0  0  0  0  0
  149.8929  136.6803  153.5601 H   0  0  0  0  0  0  0  0  0  0  0  0
  149.0277  134.9112  153.3895 H   0  0  0  0  0  0  0  0  0  0  0  0
  150.0168  132.6337  154.9465 H   0  0  0  0  0  0  0  0  0  0  0  0
  148.3742  133.1266  155.2509 H   0  0  0  0  0  0  0  0  0  0  0  0
  149.5838  132.1318  152.5965 H   0  0  0  0  0  0  0  0  0  0  0  0
  148.9571  130.3622  154.2818 H   0  0  0  0  0  0  0  0  0  0  0  0
  148.0524  130.2254  152.8104 H   0  0  0  0  0  0  0  0  0  0  0  0
  147.2980  130.9389  154.2412 H   0  0  0  0  0  0  0  0  0  0  0  0
  147.7453  131.7249  150.7486 H   0  0  0  0  0  0  0  0  0  0  0  0
  146.4774  131.3956  151.9075 H   0  0  0  0  0  0  0  0  0  0  0  0
  146.6172  133.8022  150.0074 H   0  0  0  0  0  0  0  0  0  0  0  0
  145.9990  131.6827  148.8382 H   0  0  0  0  0  0  0  0  0  0  0  0
  144.6276  132.7837  148.9274 H   0  0  0  0  0  0  0  0  0  0  0  0
  144.7167  131.4003  150.0148 H   0  0  0  0  0  0  0  0  0  0  0  0
  146.2497  135.3156  151.7686 H   0  0  0  0  0  0  0  0  0  0  0  0
  144.9856  135.9379  153.8342 H   0  0  0  0  0  0  0  0  0  0  0  0
  143.9853  134.4966  153.6603 H   0  0  0  0  0  0  0  0  0  0  0  0
  143.9093  135.7741  152.4502 H   0  0  0  0  0  0  0  0  0  0  0  0
  146.1223  133.0576  153.8470 H   0  0  0  0  0  0  0  0  0  0  0  0
  147.1375  134.4940  153.8948 H   0  0  0  0  0  0  0  0  0  0  0  0
  148.2123  133.7561  151.9309 H   0  0  0  0  0  0  0  0  0  0  0  0
  1  2  1  0  0  0  0
  1 22  1  0  0  0  0
  1 23  1  0  0  0  0
  1 24  1  0  0  0  0
  2 21  1  0  0  0  0
  2  3  2  0  0  0  0
  3  4  1  0  0  0  0
  3 25  1  0  0  0  0
  4  5  1  0  0  0  0
  4 20  2  0  0  0  0
  5  6  1  0  0  0  0
  5 26  1  0  0  0  0
  6  7  2  0  0  0  0
  6  8  1  0  0  0  0
  8  9  1  0  0  0  0
  8 27  1  0  0  0  0
  9 10  1  0  0  0  0
  9 28  1  0  0  0  0
  9 29  1  0  0  0  0
 10 11  1  0  0  0  0
 10 12  1  0  0  0  0
 10 30  1  0  0  0  0
 11 31  1  0  0  0  0
 11 32  1  0  0  0  0
 11 33  1  0  0  0  0
 12 19  1  0  0  0  0
 12 13  1  0  0  0  0
 12 46  1  0  0  0  0
 13 14  1  0  0  0  0
 13 34  1  0  0  0  0
 13 35  1  0  0  0  0
 14 15  1  0  0  0  0
 14 16  1  0  0  0  0
 14 36  1  0  0  0  0
 15 37  1  0  0  0  0
 15 38  1  0  0  0  0
 15 39  1  0  0  0  0
 16 17  1  0  0  0  0
 17 18  1  0  0  0  0
 17 19  1  0  0  0  0
 17 40  1  0  0  0  0
 18 41  1  0  0  0  0
 18 42  1  0  0  0  0
 18 43  1  0  0  0  0
 19 44  1  0  0  0  0
 19 45  1  0  0  0  0
 20 21  1  0  0  0  0
M  CHG  1  12   1
M  END
> <s_m_source_file>
AV-unprocessed.smi

> <i_m_source_file_index>
2061

> <i_lp_mmshare_version>
43012

> <i_f3d_flags>
0

> <s_epik_input>
W0NIM11jMVtjSF1jKG5vMSlbTkhdQyg9TylbTkhdW0NIMl1bQ0BIXShbQ0gzXSlOMltDSDJdW0NAQEhdKFtDSDNdKU9bQ0BASF0oW0NIM10pW0NIMl0y

> <s_epik_cmdline>
J2VwaWtfcHl0aG9uJywgJy1waCcsICc3LjAnLCAnLXRuJywgJzgnLCAnLW1hJywgJzIwMCcsICctbWV0YWxfYmluZGluZycsICctaW1hZScsICc8aW5maWxlLm1hZT4nLCAnLW9tYWUnLCAnPG91dGZpbGUubWFlPic=

> <r_epik_Ionization_Penalty>
0.707076

> <r_epik_Ionization_Penalty_Charging>
0.707039

> <r_epik_Ionization_Penalty_Neutral>
3.6548e-05

> <r_epik_State_Penalty>
0.730276

> <r_epik_Charging_Adjusted_Penalty>
1.43732

> <i_epik_Tot_Q>
1

> <i_epik_Tot_abs_Q>
1

> <r_epik_Metal_State_Penalty>
0.743132

> <b_epik_Metal_Only>
0

> <s_lp_Force_Field>
OPLS_2005

> <r_lp_Energy>
16.4142

> <b_lp_Chiralities_Consistent>
1

> <s_lp_Variant>
AV-unprocessed.smi:2061-8

> <Gold.Version>
5.8.1

> <Gold.Id.Protein>
6NUR|6NUR_protein|mol2

> <Gold.PLP.Fitness>
40.9955

> <Gold.PLP.PLP>
-33.2362

> <Gold.PLP.part.hbond>
-5.4105

> <Gold.PLP.part.metal>
0.0000

> <Gold.PLP.part.buried>
-2.7964

> <Gold.PLP.part.nonpolar>
-26.2520

> <Gold.PLP.part.repulsive>
0.3271

> <Gold.PLP.ligand.clash>
0.0000

> <Gold.PLP.ligand.torsion>
1.1860

> <Gold.PLP.Chemscore.Hbond>
3.3619

> <Gold.PLP.Chemscore.CHOScore>
0.0000

> <Gold.PLP.Chemscore.Metal>
0.0000

> <Gold.Chemscore.Hbonds>
donor molecule, donor type, donor heavy atom, donor atom, acceptor molecule, acceptor atom, score
      L1  H     5    26       P1  7948  1.00
      L1  H     8    27       P1  7948  0.95
      P1  H  7997  8009       L1    21  0.84
      P1  H 10752 10764       L1    20  0.47

> <Gold.PLP.Chemscore.Internal.Correction>
0.0456

> <Gold.Rescore>
     Score         DG    S(hbond)    S(metal)    S(lipo)     H(rot)  DE(clash)    DE(int)     intcor
     13.95     -16.70       1.97        0.00      74.19       1.58       1.61       1.14       ----

> <Gold.Chemscore.Fitness>
13.9501

> <Gold.Chemscore.DG>
-16.6996

> <Gold.Chemscore.ZeroCoef>
-5.4800

> <Gold.Chemscore.Hbond>
1.9740

> <Gold.Chemscore.Metal>
0.0000

> <Gold.Chemscore.Lipo>
74.1885

> <Gold.Chemscore.Internal_Hbond>
0.0000

> <Gold.Chemscore.DEClash>
1.6064

> <Gold.Chemscore.DEInternal>
1.1431

> <Gold.Chemscore.Rot>
1.5834

> <Gold.Chemscore.Internal.Correction>
   9.000000E+99

> <Gold.Chemscore.Hbonds>
donor molecule, donor type, donor heavy atom, donor atom, acceptor molecule, acceptor atom, score
      L1  H     5    26       P1  7948  0.29
      L1  H     8    27       P1  7948  0.20
      P1  H  7997  8009       L1    21  0.41
      P1  H 10752 10764       L1    20  0.10

> <Gold.Chemscore.Hbond.Weighted>
-6.5930

> <Gold.Chemscore.Metal.Weighted>
-0.0000

> <Gold.Chemscore.Lipo.Weighted>
-8.6801

> <Gold.Chemscore.Internal_Hbond.Weighted>
0.0000

> <Gold.Chemscore.DEClash.Weighted>
1.6064

> <Gold.Chemscore.DEInternal.Weighted>
1.1431

> <Gold.Chemscore.Rot.Weighted>
4.0535

> <Gold.Chemscore.Internal.Correction.Weighted>
   9.000000E+99

> <Gold.Protein.RotatedTorsions>
[ 6907 6896 6895 6894 ] final -176.11 input  -60.11 | X-H torsion
[ 7974 7965 7964 7962 ] final   57.61 input  175.53 | X-H torsion
[ 8008 7997 7996 7995 ] final -142.51 input   59.86 | X-H torsion
[ 10167 10162 10161 10158 ] final    4.66 input  -65.29 | X-H torsion
[ 10718 10713 10712 10709 ] final  -83.03 input   66.30 | X-H torsion
[ 10763 10752 10751 10750 ] final  -78.31 input  -60.55 | X-H torsion
[ 11005 11000 10999 10996 ] final  -19.24 input  -57.11 | X-H torsion

> <Gold.Protein.ActiveResidues>
 VAL166  LYS551  ARG553  GLY616  TRP617  ASP618  TYR619  PRO620  LYS621  CYS622 
 ASP623  PHE694  ASN695  SER759  ASP760  ASP761  ALA762  ILE779  LEU786  VAL792 
 PHE793  MET794  SER795  GLU796  ALA797  LYS798  CYS799  TRP800  GLU811  SER814 

> <Gold.Protein.RotatedAtoms>
  151.5994  133.3358  159.3043 H   0  0  0  0  0  0  0  0  0  0  0  0  # atno 6907 bound_to 6896
  150.8216  134.7430  159.6788 H   0  0  0  0  0  0  0  0  0  0  0  0  # atno 6908 bound_to 6896
  152.4309  134.5785  159.9993 H   0  0  0  0  0  0  0  0  0  0  0  0  # atno 6909 bound_to 6896
  145.9272  139.3777  143.0443 H   0  0  0  0  0  0  0  0  0  0  0  0  # atno 7974 bound_to 7965
  155.4953  140.0571  157.2947 H   0  0  0  0  0  0  0  0  0  0  0  0  # atno 8008 bound_to 7997
  154.4607  140.1995  156.0203 H   0  0  0  0  0  0  0  0  0  0  0  0  # atno 8009 bound_to 7997
  156.0885  140.3237  155.7789 H   0  0  0  0  0  0  0  0  0  0  0  0  # atno 8010 bound_to 7997
  140.6523  143.7514  150.7595 H   0  0  0  0  0  0  0  0  0  0  0  0  # atno 10167 bound_to 10162
  156.0024  130.4653  150.4195 H   0  0  0  0  0  0  0  0  0  0  0  0  # atno 10718 bound_to 10713
  154.5242  135.5734  153.6706 H   0  0  0  0  0  0  0  0  0  0  0  0  # atno 10763 bound_to 10752
  152.9924  135.6189  154.2714 H   0  0  0  0  0  0  0  0  0  0  0  0  # atno 10764 bound_to 10752
  154.2636  135.2855  155.2747 H   0  0  0  0  0  0  0  0  0  0  0  0  # atno 10765 bound_to 10752
  140.8347  133.7971  155.9796 H   0  0  0  0  0  0  0  0  0  0  0  0  # atno 11005 bound_to 11000
  145.8474  140.9548  143.0767 LP  0  0  0  0  0  0  0  0  0  0  0  0  # atno 17320 bound_to 7965
  144.6760  140.0362  143.7482 LP  0  0  0  0  0  0  0  0  0  0  0  0  # atno 17321 bound_to 7965
  140.1167  143.4649  152.2338 LP  0  0  0  0  0  0  0  0  0  0  0  0  # atno 17342 bound_to 10162
  139.5740  144.7478  151.3814 LP  0  0  0  0  0  0  0  0  0  0  0  0  # atno 17343 bound_to 10162
  157.2252  131.0491  151.2524 LP  0  0  0  0  0  0  0  0  0  0  0  0  # atno 17370 bound_to 10713
  157.3763  130.7207  149.6599 LP  0  0  0  0  0  0  0  0  0  0  0  0  # atno 17371 bound_to 10713
  140.8960  134.2437  157.5068 LP  0  0  0  0  0  0  0  0  0  0  0  0  # atno 17394 bound_to 11000
  139.8704  134.9684  156.4630 LP  0  0  0  0  0  0  0  0  0  0  0  0  # atno 17395 bound_to 11000

$$$$
