AV-unprocessed.smi:3162|AV-procd|sdf|12070|dock9
  -GOLD-   2272017503D 1   1.00000     0.00000
 Structure written by MMmdl.
 36 36  0  0  0  0  0  0  0  0  1 V2000
  151.2877  137.4631  157.8390 C   0  0  0  0  0  0  0  0  0  0  0  0
  151.7496  138.7942  157.2251 C   0  0  0  0  0  0  0  0  0  0  0  0
  151.1521  139.0942  155.8326 C   0  0  1  0  0  0  0  0  0  0  0  0
  151.4120  140.5047  155.4846 N   0  0  0  0  0  0  0  0  0  0  0  0
  150.3779  141.4614  155.8742 C   0  0  1  0  0  0  0  0  0  0  0  0
  149.1292  141.1613  155.0283 C   0  0  0  0  0  0  0  0  0  0  0  0
  150.1065  141.3484  157.3917 C   0  0  0  0  0  0  0  0  0  0  0  0
  150.8500  142.3230  158.1685 N   0  0  0  0  0  0  0  0  0  0  0  0
  150.5745  143.6604  158.3578 C   0  0  0  0  0  0  0  0  0  0  0  0
  151.5498  144.1704  159.1671 C   0  0  0  0  0  0  0  0  0  0  0  0
  151.7116  145.5767  159.6680 C   0  0  0  0  0  0  0  0  0  0  0  0
  152.3844  143.0464  159.4273 C   0  0  0  0  0  0  0  0  0  0  0  0
  151.9624  141.9430  158.8320 N   0  0  0  0  0  0  0  0  0  0  0  0
  151.6642  138.1077  154.7667 C   0  0  0  0  0  0  0  0  0  0  0  0
  150.7568  137.3413  154.1565 N   0  0  0  0  0  0  0  0  0  0  0  0
  152.8600  138.0543  154.4849 O   0  0  0  0  0  0  0  0  0  0  0  0
  151.6893  137.3436  158.8453 H   0  0  0  0  0  0  0  0  0  0  0  0
  151.6217  136.6083  157.2505 H   0  0  0  0  0  0  0  0  0  0  0  0
  150.2005  137.4194  157.9092 H   0  0  0  0  0  0  0  0  0  0  0  0
  151.4674  139.5952  157.9099 H   0  0  0  0  0  0  0  0  0  0  0  0
  152.8396  138.8135  157.1806 H   0  0  0  0  0  0  0  0  0  0  0  0
  150.0699  138.9743  155.9138 H   0  0  0  0  0  0  0  0  0  0  0  0
  151.6507  140.6193  154.5099 H   0  0  0  0  0  0  0  0  0  0  0  0
  150.6950  142.4768  155.6310 H   0  0  0  0  0  0  0  0  0  0  0  0
  148.3337  141.8811  155.2228 H   0  0  0  0  0  0  0  0  0  0  0  0
  148.7347  140.1663  155.2375 H   0  0  0  0  0  0  0  0  0  0  0  0
  149.3550  141.2132  153.9627 H   0  0  0  0  0  0  0  0  0  0  0  0
  149.0438  141.4870  157.5956 H   0  0  0  0  0  0  0  0  0  0  0  0
  150.3637  140.3580  157.7669 H   0  0  0  0  0  0  0  0  0  0  0  0
  149.7174  144.1347  157.9028 H   0  0  0  0  0  0  0  0  0  0  0  0
  152.5784  145.6775  160.3218 H   0  0  0  0  0  0  0  0  0  0  0  0
  150.8408  145.9033  160.2369 H   0  0  0  0  0  0  0  0  0  0  0  0
  151.8441  146.2825  158.8479 H   0  0  0  0  0  0  0  0  0  0  0  0
  153.2798  143.0006  160.0293 H   0  0  0  0  0  0  0  0  0  0  0  0
  151.0480  136.6786  153.4529 H   0  0  0  0  0  0  0  0  0  0  0  0
  149.7815  137.4264  154.4039 H   0  0  0  0  0  0  0  0  0  0  0  0
  1  2  1  0  0  0  0
  1 17  1  0  0  0  0
  1 18  1  0  0  0  0
  1 19  1  0  0  0  0
  2  3  1  0  0  0  0
  2 20  1  0  0  0  0
  2 21  1  0  0  0  0
  3  4  1  0  0  0  0
  3 14  1  0  0  0  0
  3 22  1  0  0  0  0
  4  5  1  0  0  0  0
  4 23  1  0  0  0  0
  5  6  1  0  0  0  0
  5  7  1  0  0  0  0
  5 24  1  0  0  0  0
  6 25  1  0  0  0  0
  6 26  1  0  0  0  0
  6 27  1  0  0  0  0
  7  8  1  0  0  0  0
  7 28  1  0  0  0  0
  7 29  1  0  0  0  0
  8 13  1  0  0  0  0
  8  9  1  0  0  0  0
  9 10  2  0  0  0  0
  9 30  1  0  0  0  0
 10 11  1  0  0  0  0
 10 12  1  0  0  0  0
 11 31  1  0  0  0  0
 11 32  1  0  0  0  0
 11 33  1  0  0  0  0
 12 13  2  0  0  0  0
 12 34  1  0  0  0  0
 14 15  1  0  0  0  0
 14 16  2  0  0  0  0
 15 35  1  0  0  0  0
 15 36  1  0  0  0  0
M  END
> <s_m_source_file>
AV-unprocessed.smi

> <i_m_source_file_index>
3162

> <i_lp_mmshare_version>
43012

> <i_f3d_flags>
0

> <s_epik_input>
W0NIM11bQ0gyXVtDQEBIXShDKD1PKVtOSDJdKVtOSF1bQ0BIXShbQ0gzXSlbQ0gyXW4xW2NIXWMoW0NIM10pW2NIXW4x

> <s_epik_cmdline>
J2VwaWtfcHl0aG9uJywgJy1waCcsICc3LjAnLCAnLXRuJywgJzgnLCAnLW1hJywgJzIwMCcsICctbWV0YWxfYmluZGluZycsICctaW1hZScsICc8aW5maWxlLm1hZT4nLCAnLW9tYWUnLCAnPG91dGZpbGUubWFlPic=

> <r_lp_tautomer_probability>
1

> <r_epik_Ionization_Penalty>
1.04167

> <r_epik_Ionization_Penalty_Charging>
0

> <r_epik_Ionization_Penalty_Neutral>
1.04167

> <r_epik_State_Penalty>
1.09367

> <r_epik_Charging_Adjusted_Penalty>
1.09367

> <i_epik_Tot_Q>
0

> <i_epik_Tot_abs_Q>
0

> <r_epik_Metal_State_Penalty>
1.09362

> <b_epik_Metal_Only>
0

> <s_lp_Force_Field>
OPLS_2005

> <r_lp_Energy>
2.92594

> <b_lp_Chiralities_Consistent>
1

> <s_lp_Variant>
AV-unprocessed.smi:3162-8

> <Gold.Version>
5.8.1

> <Gold.Id.Protein>
6NUR|6NUR_protein|mol2

> <Gold.PLP.Fitness>
40.3050

> <Gold.PLP.PLP>
-35.7310

> <Gold.PLP.part.hbond>
-4.0000

> <Gold.PLP.part.metal>
0.0000

> <Gold.PLP.part.buried>
-6.7739

> <Gold.PLP.part.nonpolar>
-27.0809

> <Gold.PLP.part.repulsive>
0.1382

> <Gold.PLP.ligand.clash>
0.0000

> <Gold.PLP.ligand.torsion>
1.2574

> <Gold.PLP.Chemscore.Hbond>
1.1820

> <Gold.PLP.Chemscore.CHOScore>
1.1413

> <Gold.PLP.Chemscore.Metal>
0.0000

> <Gold.Chemscore.Hbonds>
donor molecule, donor type, donor heavy atom, donor atom, acceptor molecule, acceptor atom, score
      L1  H    15    35       P1  7949  0.88
      P1  H 10752 10765       L1    16  0.06
      L1  C     9    30       P1  8028  0.85
      L1  C     9    30       P1  8029  0.29

> <Gold.PLP.Chemscore.Internal.Correction>
0.1188

> <Gold.Rescore>
     Score         DG    S(hbond)    S(metal)    S(lipo)     H(rot)  DE(clash)    DE(int)     intcor
      9.46     -10.89       0.85        0.00      75.05       2.43       0.08       1.35       ----

> <Gold.Chemscore.Fitness>
9.4624

> <Gold.Chemscore.DG>
-10.8857

> <Gold.Chemscore.ZeroCoef>
-5.4800

> <Gold.Chemscore.Hbond>
0.8543

> <Gold.Chemscore.Metal>
0.0000

> <Gold.Chemscore.Lipo>
75.0460

> <Gold.Chemscore.Internal_Hbond>
0.0000

> <Gold.Chemscore.DEClash>
0.0765

> <Gold.Chemscore.DEInternal>
1.3469

> <Gold.Chemscore.Rot>
2.4328

> <Gold.Chemscore.Internal.Correction>
   9.000000E+99

> <Gold.Chemscore.Hbonds>
donor molecule, donor type, donor heavy atom, donor atom, acceptor molecule, acceptor atom, score
      L1  H    15    35       P1  7949  0.28
      P1  H 10752 10765       L1    16  0.01

> <Gold.Chemscore.Hbond.Weighted>
-2.8533

> <Gold.Chemscore.Metal.Weighted>
-0.0000

> <Gold.Chemscore.Lipo.Weighted>
-8.7804

> <Gold.Chemscore.Internal_Hbond.Weighted>
0.0000

> <Gold.Chemscore.DEClash.Weighted>
0.0765

> <Gold.Chemscore.DEInternal.Weighted>
1.3469

> <Gold.Chemscore.Rot.Weighted>
6.2279

> <Gold.Chemscore.Internal.Correction.Weighted>
   9.000000E+99

> <Gold.Protein.RotatedTorsions>
[ 6907 6896 6895 6894 ] final   70.95 input  -60.11 | X-H torsion
[ 7974 7965 7964 7962 ] final   65.43 input  175.53 | X-H torsion
[ 8008 7997 7996 7995 ] final   87.62 input   59.86 | X-H torsion
[ 10167 10162 10161 10158 ] final   63.12 input  -65.29 | X-H torsion
[ 10718 10713 10712 10709 ] final   11.54 input   66.30 | X-H torsion
[ 10763 10752 10751 10750 ] final  156.10 input  -60.55 | X-H torsion
[ 11005 11000 10999 10996 ] final  175.22 input  -57.11 | X-H torsion

> <Gold.Protein.ActiveResidues>
 VAL166  LYS551  ARG553  GLY616  TRP617  ASP618  TYR619  PRO620  LYS621  CYS622 
 ASP623  PHE694  ASN695  SER759  ASP760  ASP761  ALA762  ILE779  LEU786  VAL792 
 PHE793  MET794  SER795  GLU796  ALA797  LYS798  CYS799  TRP800  GLU811  SER814 

> <Gold.Protein.RotatedAtoms>
  152.4780  134.4793  159.9660 H   0  0  0  0  0  0  0  0  0  0  0  0  # atno 6907 bound_to 6896
  151.4805  133.3542  159.2845 H   0  0  0  0  0  0  0  0  0  0  0  0  # atno 6908 bound_to 6896
  150.8833  134.8253  159.7301 H   0  0  0  0  0  0  0  0  0  0  0  0  # atno 6909 bound_to 6896
  145.8386  139.3181  143.0945 H   0  0  0  0  0  0  0  0  0  0  0  0  # atno 7974 bound_to 7965
  155.9776  140.3380  155.6633 H   0  0  0  0  0  0  0  0  0  0  0  0  # atno 8008 bound_to 7997
  155.6591  140.0714  157.2578 H   0  0  0  0  0  0  0  0  0  0  0  0  # atno 8009 bound_to 7997
  154.4183  140.1712  156.1745 H   0  0  0  0  0  0  0  0  0  0  0  0  # atno 8010 bound_to 7997
  140.1364  144.4594  150.6835 H   0  0  0  0  0  0  0  0  0  0  0  0  # atno 10167 bound_to 10162
  156.9970  130.6065  149.5692 H   0  0  0  0  0  0  0  0  0  0  0  0  # atno 10718 bound_to 10713
  154.1789  135.2800  155.3058 H   0  0  0  0  0  0  0  0  0  0  0  0  # atno 10763 bound_to 10752
  154.6017  135.5527  153.7385 H   0  0  0  0  0  0  0  0  0  0  0  0  # atno 10764 bound_to 10752
  153.0143  135.6393  154.1929 H   0  0  0  0  0  0  0  0  0  0  0  0  # atno 10765 bound_to 10752
  140.3598  134.7123  157.4323 H   0  0  0  0  0  0  0  0  0  0  0  0  # atno 11005 bound_to 11000
  145.9491  140.8922  143.0268 LP  0  0  0  0  0  0  0  0  0  0  0  0  # atno 17320 bound_to 7965
  144.6735  140.1655  143.7419 LP  0  0  0  0  0  0  0  0  0  0  0  0  # atno 17321 bound_to 7965
  140.6786  143.2316  151.5442 LP  0  0  0  0  0  0  0  0  0  0  0  0  # atno 17342 bound_to 10162
  139.5493  144.2436  152.1502 LP  0  0  0  0  0  0  0  0  0  0  0  0  # atno 17343 bound_to 10162
  156.0185  130.5280  150.8207 LP  0  0  0  0  0  0  0  0  0  0  0  0  # atno 17370 bound_to 10713
  157.5417  131.0941  150.9818 LP  0  0  0  0  0  0  0  0  0  0  0  0  # atno 17371 bound_to 10713
  140.0636  134.5961  155.8721 LP  0  0  0  0  0  0  0  0  0  0  0  0  # atno 17394 bound_to 11000
  141.1987  133.6603  156.5808 LP  0  0  0  0  0  0  0  0  0  0  0  0  # atno 17395 bound_to 11000

$$$$
