AV-unprocessed.smi:773|AV-procd|sdf|3689|dock4
  -GOLD-   22720 1103D 1   1.00000     0.00000
 Structure written by MMmdl.
 39 40  0  0  0  0  0  0  0  0  1 V2000
  145.8250  139.1134  158.1161 C   0  0  0  0  0  0  0  0  0  0  0  0
  145.7851  140.2037  157.0847 C   0  0  0  0  0  0  0  0  0  0  0  0
  144.7051  140.9596  156.9819 N   0  0  0  0  0  0  0  0  0  0  0  0
  144.9653  141.8606  155.9454 O   0  0  0  0  0  0  0  0  0  0  0  0
  146.2086  141.6122  155.4620 C   0  0  0  0  0  0  0  0  0  0  0  0
  146.6618  142.4669  154.3272 C   0  0  0  0  0  0  0  0  0  0  0  0
  146.7877  140.5761  156.1434 C   0  0  0  0  0  0  0  0  0  0  0  0
  148.1499  139.9569  155.9463 C   0  0  0  0  0  0  0  0  0  0  0  0
  149.0868  140.8066  155.0600 C   0  0  2  0  0  0  0  0  0  0  0  0
  150.3043  139.9996  154.5887 C   0  0  0  0  0  0  0  0  0  0  0  0
  149.5457  142.0047  155.7640 N   0  0  0  0  0  0  0  0  0  0  0  0
  150.4044  142.0284  156.7946 C   0  0  0  0  0  0  0  0  0  0  0  0
  150.9115  141.0260  157.2987 O   0  0  0  0  0  0  0  0  0  0  0  0
  150.6582  143.2790  157.2002 N   0  0  0  0  0  0  0  0  0  0  0  0
  151.5746  143.6174  158.2813 C   0  0  0  0  0  0  0  0  0  0  0  0
  150.9644  144.5556  159.3327 C   0  0  0  0  0  0  0  0  0  0  0  0
  152.3098  145.2927  159.3423 C   0  0  0  0  0  0  0  0  0  0  0  0
  152.5313  144.7607  157.9202 C   0  0  0  0  0  0  0  0  0  0  0  0
  146.4819  138.3008  157.8067 H   0  0  0  0  0  0  0  0  0  0  0  0
  144.8353  138.6872  158.2837 H   0  0  0  0  0  0  0  0  0  0  0  0
  146.1917  139.4927  159.0700 H   0  0  0  0  0  0  0  0  0  0  0  0
  147.7363  142.3762  154.1701 H   0  0  0  0  0  0  0  0  0  0  0  0
  146.4369  143.5164  154.5175 H   0  0  0  0  0  0  0  0  0  0  0  0
  146.1611  142.1743  153.4043 H   0  0  0  0  0  0  0  0  0  0  0  0
  148.6299  139.7890  156.9109 H   0  0  0  0  0  0  0  0  0  0  0  0
  148.0505  138.9654  155.5036 H   0  0  0  0  0  0  0  0  0  0  0  0
  148.5321  141.1027  154.1682 H   0  0  0  0  0  0  0  0  0  0  0  0
  149.9957  139.1176  154.0265 H   0  0  0  0  0  0  0  0  0  0  0  0
  150.9091  139.6620  155.4311 H   0  0  0  0  0  0  0  0  0  0  0  0
  150.9439  140.5964  153.9377 H   0  0  0  0  0  0  0  0  0  0  0  0
  149.1915  142.8874  155.4261 H   0  0  0  0  0  0  0  0  0  0  0  0
  150.1989  144.0439  156.7279 H   0  0  0  0  0  0  0  0  0  0  0  0
  152.0944  142.7650  158.7251 H   0  0  0  0  0  0  0  0  0  0  0  0
  150.1487  145.1722  158.9497 H   0  0  0  0  0  0  0  0  0  0  0  0
  150.7001  144.0742  160.2748 H   0  0  0  0  0  0  0  0  0  0  0  0
  152.2372  146.3779  159.4193 H   0  0  0  0  0  0  0  0  0  0  0  0
  153.0152  144.8801  160.0658 H   0  0  0  0  0  0  0  0  0  0  0  0
  153.5537  144.4492  157.7040 H   0  0  0  0  0  0  0  0  0  0  0  0
  152.1413  145.4339  157.1541 H   0  0  0  0  0  0  0  0  0  0  0  0
  1  2  1  0  0  0  0
  1 19  1  0  0  0  0
  1 20  1  0  0  0  0
  1 21  1  0  0  0  0
  2  7  1  0  0  0  0
  2  3  2  0  0  0  0
  3  4  1  0  0  0  0
  4  5  1  0  0  0  0
  5  6  1  0  0  0  0
  5  7  2  0  0  0  0
  6 22  1  0  0  0  0
  6 23  1  0  0  0  0
  6 24  1  0  0  0  0
  7  8  1  0  0  0  0
  8  9  1  0  0  0  0
  8 25  1  0  0  0  0
  8 26  1  0  0  0  0
  9 10  1  0  0  0  0
  9 11  1  0  0  0  0
  9 27  1  0  0  0  0
 10 28  1  0  0  0  0
 10 29  1  0  0  0  0
 10 30  1  0  0  0  0
 11 12  1  0  0  0  0
 11 31  1  0  0  0  0
 12 13  2  0  0  0  0
 12 14  1  0  0  0  0
 14 15  1  0  0  0  0
 14 32  1  0  0  0  0
 15 18  1  0  0  0  0
 15 16  1  0  0  0  0
 15 33  1  0  0  0  0
 16 17  1  0  0  0  0
 16 34  1  0  0  0  0
 16 35  1  0  0  0  0
 17 18  1  0  0  0  0
 17 36  1  0  0  0  0
 17 37  1  0  0  0  0
 18 38  1  0  0  0  0
 18 39  1  0  0  0  0
M  END
> <s_m_source_file>
AV-unprocessed.smi

> <i_m_source_file_index>
773

> <i_lp_mmshare_version>
43012

> <i_f3d_flags>
0

> <s_epik_input>
W0NIM11jMW5vYyhbQ0gzXSljMVtDSDJdW0NASF0oW0NIM10pW05IXUMoPU8pW05IXVtDSF0yW0NIMl1bQ0gyXVtDSDJdMg==

> <s_epik_cmdline>
J2VwaWtfcHl0aG9uJywgJy1waCcsICc3LjAnLCAnLXRuJywgJzgnLCAnLW1hJywgJzIwMCcsICctbWV0YWxfYmluZGluZycsICctaW1hZScsICc8aW5maWxlLm1hZT4nLCAnLW9tYWUnLCAnPG91dGZpbGUubWFlPic=

> <r_lp_tautomer_probability>
1

> <r_epik_Ionization_Penalty>
6.63278e-05

> <r_epik_Ionization_Penalty_Charging>
0

> <r_epik_Ionization_Penalty_Neutral>
6.63278e-05

> <r_epik_State_Penalty>
-0

> <r_epik_Charging_Adjusted_Penalty>
0

> <i_epik_Tot_Q>
0

> <i_epik_Tot_abs_Q>
0

> <r_epik_Metal_State_Penalty>
-0

> <b_epik_Metal_Only>
0

> <s_lp_Force_Field>
OPLS_2005

> <r_lp_Energy>
7.52074

> <b_lp_Chiralities_Consistent>
1

> <s_lp_Variant>
AV-unprocessed.smi:773-1

> <Gold.Version>
5.8.1

> <Gold.Id.Protein>
6NUR|6NUR_protein|mol2

> <Gold.PLP.Fitness>
37.0004

> <Gold.PLP.PLP>
-31.6331

> <Gold.PLP.part.hbond>
-2.0000

> <Gold.PLP.part.metal>
0.0000

> <Gold.PLP.part.buried>
-4.5872

> <Gold.PLP.part.nonpolar>
-25.4378

> <Gold.PLP.part.repulsive>
0.3117

> <Gold.PLP.ligand.clash>
0.0000

> <Gold.PLP.ligand.torsion>
0.4314

> <Gold.PLP.Chemscore.Hbond>
1.9920

> <Gold.PLP.Chemscore.CHOScore>
0.0000

> <Gold.PLP.Chemscore.Metal>
0.0000

> <Gold.Chemscore.Hbonds>
donor molecule, donor type, donor heavy atom, donor atom, acceptor molecule, acceptor atom, score
      L1  H    11    31       P1  8028  1.00
      L1  H    14    32       P1  8028  1.00

> <Gold.PLP.Chemscore.Internal.Correction>
0.2541

> <Gold.Rescore>
     Score         DG    S(hbond)    S(metal)    S(lipo)     H(rot)  DE(clash)    DE(int)     intcor
     14.22     -17.31       1.95        0.00      79.73       1.56       0.29       2.80       ----

> <Gold.Chemscore.Fitness>
14.2207

> <Gold.Chemscore.DG>
-17.3070

> <Gold.Chemscore.ZeroCoef>
-5.4800

> <Gold.Chemscore.Hbond>
1.9456

> <Gold.Chemscore.Metal>
0.0000

> <Gold.Chemscore.Lipo>
79.7328

> <Gold.Chemscore.Internal_Hbond>
0.0000

> <Gold.Chemscore.DEClash>
0.2888

> <Gold.Chemscore.DEInternal>
2.7975

> <Gold.Chemscore.Rot>
1.5625

> <Gold.Chemscore.Internal.Correction>
   9.000000E+99

> <Gold.Chemscore.Hbonds>
donor molecule, donor type, donor heavy atom, donor atom, acceptor molecule, acceptor atom, score
      L1  H    11    31       P1  8028  0.95
      L1  H    14    32       P1  8028  0.96

> <Gold.Chemscore.Hbond.Weighted>
-6.4983

> <Gold.Chemscore.Metal.Weighted>
-0.0000

> <Gold.Chemscore.Lipo.Weighted>
-9.3287

> <Gold.Chemscore.Internal_Hbond.Weighted>
0.0000

> <Gold.Chemscore.DEClash.Weighted>
0.2888

> <Gold.Chemscore.DEInternal.Weighted>
2.7975

> <Gold.Chemscore.Rot.Weighted>
4.0000

> <Gold.Chemscore.Internal.Correction.Weighted>
   9.000000E+99

> <Gold.Protein.RotatedTorsions>
[ 6907 6896 6895 6894 ] final -157.23 input  -60.11 | X-H torsion
[ 7974 7965 7964 7962 ] final  -39.66 input  175.53 | X-H torsion
[ 8008 7997 7996 7995 ] final  140.59 input   59.86 | X-H torsion
[ 10167 10162 10161 10158 ] final  -59.06 input  -65.29 | X-H torsion
[ 10718 10713 10712 10709 ] final  -20.35 input   66.30 | X-H torsion
[ 10763 10752 10751 10750 ] final  -37.82 input  -60.55 | X-H torsion
[ 11005 11000 10999 10996 ] final  -96.56 input  -57.11 | X-H torsion

> <Gold.Protein.ActiveResidues>
 VAL166  LYS551  ARG553  GLY616  TRP617  ASP618  TYR619  PRO620  LYS621  CYS622 
 ASP623  PHE694  ASN695  SER759  ASP760  ASP761  ALA762  ILE779  LEU786  VAL792 
 PHE793  MET794  SER795  GLU796  ALA797  LYS798  CYS799  TRP800  GLU811  SER814 

> <Gold.Protein.RotatedAtoms>
  151.2997  133.4128  159.2638 H   0  0  0  0  0  0  0  0  0  0  0  0  # atno 6907 bound_to 6896
  151.0206  134.9467  159.8068 H   0  0  0  0  0  0  0  0  0  0  0  0  # atno 6908 bound_to 6896
  152.5323  134.2960  159.9113 H   0  0  0  0  0  0  0  0  0  0  0  0  # atno 6909 bound_to 6896
  146.0376  140.6651  142.9102 H   0  0  0  0  0  0  0  0  0  0  0  0  # atno 7974 bound_to 7965
  156.2977  140.2337  156.4426 H   0  0  0  0  0  0  0  0  0  0  0  0  # atno 8008 bound_to 7997
  154.8172  140.0440  157.1405 H   0  0  0  0  0  0  0  0  0  0  0  0  # atno 8009 bound_to 7997
  154.9356  140.3022  155.5149 H   0  0  0  0  0  0  0  0  0  0  0  0  # atno 8010 bound_to 7997
  140.6158  143.2402  151.5600 H   0  0  0  0  0  0  0  0  0  0  0  0  # atno 10167 bound_to 10162
  156.5331  130.4660  149.6537 H   0  0  0  0  0  0  0  0  0  0  0  0  # atno 10718 bound_to 10713
  153.9026  135.6801  153.4754 H   0  0  0  0  0  0  0  0  0  0  0  0  # atno 10763 bound_to 10752
  153.1121  135.4778  154.9050 H   0  0  0  0  0  0  0  0  0  0  0  0  # atno 10764 bound_to 10752
  154.7567  135.3199  154.8410 H   0  0  0  0  0  0  0  0  0  0  0  0  # atno 10765 bound_to 10752
  141.1407  133.8107  157.0588 H   0  0  0  0  0  0  0  0  0  0  0  0  # atno 11005 bound_to 11000
  144.7059  140.3849  143.7118 LP  0  0  0  0  0  0  0  0  0  0  0  0  # atno 17320 bound_to 7965
  145.6938  139.1645  143.2632 LP  0  0  0  0  0  0  0  0  0  0  0  0  # atno 17321 bound_to 7965
  139.5398  144.2680  152.1326 LP  0  0  0  0  0  0  0  0  0  0  0  0  # atno 17342 bound_to 10162
  140.1889  144.4771  150.6489 LP  0  0  0  0  0  0  0  0  0  0  0  0  # atno 17343 bound_to 10162
  156.3041  130.7193  151.2071 LP  0  0  0  0  0  0  0  0  0  0  0  0  # atno 17370 bound_to 10713
  157.7418  131.0498  150.5068 LP  0  0  0  0  0  0  0  0  0  0  0  0  # atno 17371 bound_to 10713
  140.0585  134.9768  157.1262 LP  0  0  0  0  0  0  0  0  0  0  0  0  # atno 17394 bound_to 11000
  140.3884  134.2211  155.7167 LP  0  0  0  0  0  0  0  0  0  0  0  0  # atno 17395 bound_to 11000

$$$$
