AV-unprocessed.smi:550|AV-procd|sdf|2895|dock6
  -GOLD-   2262023393D 1   1.00000     0.00000
 Structure written by MMmdl.
 45 47  0  0  0  0  0  0  0  0  1 V2000
  146.2350  139.1516  154.0459 O   0  0  0  0  0  0  0  0  0  0  0  0
  147.0738  138.5057  153.4177 C   0  0  0  0  0  0  0  0  0  0  0  0
  146.7587  137.5300  152.5556 N   0  0  0  0  0  0  0  0  0  0  0  0
  145.3968  137.1005  152.2598 C   0  0  0  0  0  0  0  0  0  0  0  0
  145.3862  135.8201  151.4073 C   0  0  1  0  0  0  0  0  0  0  0  0
  146.1939  134.6787  152.0561 C   0  0  0  0  0  0  0  0  0  0  0  0
  145.9091  133.3833  151.2907 C   0  0  0  0  0  0  0  0  0  0  0  0
  144.1540  133.4926  150.7821 S   0  0  0  0  0  0  0  0  0  0  0  0
  144.0562  133.2424  149.3361 O   0  0  0  0  0  0  0  0  0  0  0  0
  143.3204  132.7479  151.7377 O   0  0  0  0  0  0  0  0  0  0  0  0
  143.9722  135.2885  151.1107 C   0  0  0  0  0  0  0  0  0  0  0  0
  148.4033  138.6935  153.4819 N   0  0  0  0  0  0  0  0  0  0  0  0
  149.1221  139.5809  154.3275 C   0  0  0  0  0  0  0  0  0  0  0  0
  148.6684  140.8711  154.6867 C   0  0  0  0  0  0  0  0  0  0  0  0
  149.4536  141.6534  155.5545 C   0  0  0  0  0  0  0  0  0  0  0  0
  150.6689  141.1254  156.0509 C   0  0  0  0  0  0  0  0  0  0  0  0
  151.4846  141.8803  156.9171 N   0  0  0  0  0  0  0  0  0  0  0  0
  152.1573  141.2789  158.0579 C   0  0  0  0  0  0  0  0  0  0  0  0
  152.8052  142.4551  158.7869 C   0  0  0  0  0  0  0  0  0  0  0  0
  151.8301  143.6033  158.5267 C   0  0  0  0  0  0  0  0  0  0  0  0
  151.2568  143.3019  157.1370 C   0  0  0  0  0  0  0  0  0  0  0  0
  151.0984  139.8867  155.7104 N   0  0  0  0  0  0  0  0  0  0  0  0
  150.3406  139.1393  154.8807 C   0  0  0  0  0  0  0  0  0  0  0  0
  147.5066  137.0527  152.0742 H   0  0  0  0  0  0  0  0  0  0  0  0
  144.8559  136.9204  153.1905 H   0  0  0  0  0  0  0  0  0  0  0  0
  144.8772  137.9076  151.7414 H   0  0  0  0  0  0  0  0  0  0  0  0
  145.8601  136.0411  150.4494 H   0  0  0  0  0  0  0  0  0  0  0  0
  147.2611  134.9005  152.0788 H   0  0  0  0  0  0  0  0  0  0  0  0
  145.8721  134.5537  153.0909 H   0  0  0  0  0  0  0  0  0  0  0  0
  146.5197  133.3252  150.3893 H   0  0  0  0  0  0  0  0  0  0  0  0
  146.0765  132.4862  151.8866 H   0  0  0  0  0  0  0  0  0  0  0  0
  143.3192  135.4024  151.9765 H   0  0  0  0  0  0  0  0  0  0  0  0
  143.5041  135.7787  150.2571 H   0  0  0  0  0  0  0  0  0  0  0  0
  148.9633  138.1682  152.8262 H   0  0  0  0  0  0  0  0  0  0  0  0
  147.7319  141.2685  154.3272 H   0  0  0  0  0  0  0  0  0  0  0  0
  149.1150  142.6426  155.8238 H   0  0  0  0  0  0  0  0  0  0  0  0
  151.4224  140.7871  158.6966 H   0  0  0  0  0  0  0  0  0  0  0  0
  152.8965  140.5401  157.7466 H   0  0  0  0  0  0  0  0  0  0  0  0
  152.9655  142.2609  159.8478 H   0  0  0  0  0  0  0  0  0  0  0  0
  153.7716  142.6834  158.3351 H   0  0  0  0  0  0  0  0  0  0  0  0
  151.0291  143.5735  159.2665 H   0  0  0  0  0  0  0  0  0  0  0  0
  152.3023  144.5843  158.5851 H   0  0  0  0  0  0  0  0  0  0  0  0
  151.7858  143.8665  156.3687 H   0  0  0  0  0  0  0  0  0  0  0  0
  150.1986  143.5615  157.0884 H   0  0  0  0  0  0  0  0  0  0  0  0
  150.7252  138.1572  154.6474 H   0  0  0  0  0  0  0  0  0  0  0  0
  1  2  2  0  0  0  0
  2  3  1  0  0  0  0
  2 12  1  0  0  0  0
  3  4  1  0  0  0  0
  3 24  1  0  0  0  0
  4  5  1  0  0  0  0
  4 25  1  0  0  0  0
  4 26  1  0  0  0  0
  5 11  1  0  0  0  0
  5  6  1  0  0  0  0
  5 27  1  0  0  0  0
  6  7  1  0  0  0  0
  6 28  1  0  0  0  0
  6 29  1  0  0  0  0
  7  8  1  0  0  0  0
  7 30  1  0  0  0  0
  7 31  1  0  0  0  0
  8  9  2  0  0  0  0
  8 10  2  0  0  0  0
  8 11  1  0  0  0  0
 11 32  1  0  0  0  0
 11 33  1  0  0  0  0
 12 13  1  0  0  0  0
 12 34  1  0  0  0  0
 13 23  1  0  0  0  0
 13 14  2  0  0  0  0
 14 15  1  0  0  0  0
 14 35  1  0  0  0  0
 15 16  2  0  0  0  0
 15 36  1  0  0  0  0
 16 17  1  0  0  0  0
 16 22  1  0  0  0  0
 17 21  1  0  0  0  0
 17 18  1  0  0  0  0
 18 19  1  0  0  0  0
 18 37  1  0  0  0  0
 18 38  1  0  0  0  0
 19 20  1  0  0  0  0
 19 39  1  0  0  0  0
 19 40  1  0  0  0  0
 20 21  1  0  0  0  0
 20 41  1  0  0  0  0
 20 42  1  0  0  0  0
 21 43  1  0  0  0  0
 21 44  1  0  0  0  0
 22 23  2  0  0  0  0
 23 45  1  0  0  0  0
M  END
> <s_m_source_file>
AV-unprocessed.smi

> <i_m_source_file_index>
550

> <i_lp_mmshare_version>
43012

> <i_f3d_flags>
0

> <s_epik_input>
Tz1TMSg9TylbQ0gyXVtDSDJdW0NASF0oW0NIMl0xKVtDSDJdW05IXUMoPU8pW05IXWMyW2NIXVtjSF1jKG5bY0hdMilOM1tDSDJdW0NIMl1bQ0gyXVtDSDJdMw==

> <s_epik_cmdline>
J2VwaWtfcHl0aG9uJywgJy1waCcsICc3LjAnLCAnLXRuJywgJzgnLCAnLW1hJywgJzIwMCcsICctbWV0YWxfYmluZGluZycsICctaW1hZScsICc8aW5maWxlLm1hZT4nLCAnLW9tYWUnLCAnPG91dGZpbGUubWFlPic=

> <r_lp_tautomer_probability>
1

> <r_epik_Ionization_Penalty>
0.0965651

> <r_epik_Ionization_Penalty_Charging>
0

> <r_epik_Ionization_Penalty_Neutral>
0.0965651

> <r_epik_State_Penalty>
0.0861592

> <r_epik_Charging_Adjusted_Penalty>
0.0861592

> <i_epik_Tot_Q>
0

> <i_epik_Tot_abs_Q>
0

> <r_epik_Metal_State_Penalty>
0.0740405

> <b_epik_Metal_Only>
0

> <s_lp_Force_Field>
OPLS_2005

> <r_lp_Energy>
33.1318

> <b_lp_Chiralities_Consistent>
1

> <s_lp_Variant>
AV-unprocessed.smi:550-2

> <Gold.Version>
5.8.1

> <Gold.Id.Protein>
6NUR|6NUR_protein|mol2

> <Gold.PLP.Fitness>
45.1002

> <Gold.PLP.PLP>
-41.1030

> <Gold.PLP.part.hbond>
-2.8636

> <Gold.PLP.part.metal>
0.0000

> <Gold.PLP.part.buried>
-3.7960

> <Gold.PLP.part.nonpolar>
-36.6352

> <Gold.PLP.part.repulsive>
1.9563

> <Gold.PLP.ligand.clash>
0.0000

> <Gold.PLP.ligand.torsion>
0.6826

> <Gold.PLP.Chemscore.Hbond>
1.7219

> <Gold.PLP.Chemscore.CHOScore>
0.0000

> <Gold.PLP.Chemscore.Metal>
0.0000

> <Gold.Chemscore.Hbonds>
donor molecule, donor type, donor heavy atom, donor atom, acceptor molecule, acceptor atom, score
      L1  H     3    24       P1  7948  1.00
      L1  H    12    34       P1  7948  0.60

> <Gold.PLP.Chemscore.Internal.Correction>
0.1970

> <Gold.Rescore>
     Score         DG    S(hbond)    S(metal)    S(lipo)     H(rot)  DE(clash)    DE(int)     intcor
     17.10     -19.21       1.85        0.00      91.77       1.25       0.33       1.78       ----

> <Gold.Chemscore.Fitness>
17.0954

> <Gold.Chemscore.DG>
-19.2062

> <Gold.Chemscore.ZeroCoef>
-5.4800

> <Gold.Chemscore.Hbond>
1.8535

> <Gold.Chemscore.Metal>
0.0000

> <Gold.Chemscore.Lipo>
91.7688

> <Gold.Chemscore.Internal_Hbond>
0.0000

> <Gold.Chemscore.DEClash>
0.3323

> <Gold.Chemscore.DEInternal>
1.7785

> <Gold.Chemscore.Rot>
1.2506

> <Gold.Chemscore.Internal.Correction>
   9.000000E+99

> <Gold.Chemscore.Hbonds>
donor molecule, donor type, donor heavy atom, donor atom, acceptor molecule, acceptor atom, score
      L1  H     3    24       P1  7948  0.99
      L1  H    12    34       P1  7948  0.59

> <Gold.Chemscore.Hbond.Weighted>
-6.1909

> <Gold.Chemscore.Metal.Weighted>
-0.0000

> <Gold.Chemscore.Lipo.Weighted>
-10.7369

> <Gold.Chemscore.Internal_Hbond.Weighted>
0.0000

> <Gold.Chemscore.DEClash.Weighted>
0.3323

> <Gold.Chemscore.DEInternal.Weighted>
1.7785

> <Gold.Chemscore.Rot.Weighted>
3.2016

> <Gold.Chemscore.Internal.Correction.Weighted>
   9.000000E+99

> <Gold.Protein.RotatedTorsions>
[ 6907 6896 6895 6894 ] final  147.32 input  -60.11 | X-H torsion
[ 7974 7965 7964 7962 ] final -142.98 input  175.53 | X-H torsion
[ 8008 7997 7996 7995 ] final  -31.70 input   59.86 | X-H torsion
[ 10167 10162 10161 10158 ] final  -16.35 input  -65.29 | X-H torsion
[ 10718 10713 10712 10709 ] final   41.85 input   66.30 | X-H torsion
[ 10763 10752 10751 10750 ] final -179.39 input  -60.55 | X-H torsion
[ 11005 11000 10999 10996 ] final   73.35 input  -57.11 | X-H torsion

> <Gold.Protein.ActiveResidues>
 VAL166  LYS551  ARG553  GLY616  TRP617  ASP618  TYR619  PRO620  LYS621  CYS622 
 ASP623  PHE694  ASN695  SER759  ASP760  ASP761  ALA762  ILE779  LEU786  VAL792 
 PHE793  MET794  SER795  GLU796  ALA797  LYS798  CYS799  TRP800  GLU811  SER814 

> <Gold.Protein.RotatedAtoms>
  152.1564  133.4554  159.4838 H   0  0  0  0  0  0  0  0  0  0  0  0  # atno 6907 bound_to 6896
  150.6901  134.2126  159.4374 H   0  0  0  0  0  0  0  0  0  0  0  0  # atno 6908 bound_to 6896
  152.0025  134.9920  160.0616 H   0  0  0  0  0  0  0  0  0  0  0  0  # atno 6909 bound_to 6896
  144.8403  140.5891  143.5457 H   0  0  0  0  0  0  0  0  0  0  0  0  # atno 7974 bound_to 7965
  154.4205  140.1757  156.1609 H   0  0  0  0  0  0  0  0  0  0  0  0  # atno 8008 bound_to 7997
  155.9839  140.3375  155.6664 H   0  0  0  0  0  0  0  0  0  0  0  0  # atno 8009 bound_to 7997
  155.6463  140.0685  157.2592 H   0  0  0  0  0  0  0  0  0  0  0  0  # atno 8010 bound_to 7997
  140.7232  143.5125  150.9732 H   0  0  0  0  0  0  0  0  0  0  0  0  # atno 10167 bound_to 10162
  157.3983  130.7845  149.7327 H   0  0  0  0  0  0  0  0  0  0  0  0  # atno 10718 bound_to 10713
  154.5357  135.2802  155.1141 H   0  0  0  0  0  0  0  0  0  0  0  0  # atno 10763 bound_to 10752
  154.2643  135.6315  153.5290 H   0  0  0  0  0  0  0  0  0  0  0  0  # atno 10764 bound_to 10752
  152.9967  135.5613  154.5882 H   0  0  0  0  0  0  0  0  0  0  0  0  # atno 10765 bound_to 10752
  139.9444  134.7340  156.1016 H   0  0  0  0  0  0  0  0  0  0  0  0  # atno 11005 bound_to 11000
  145.4708  139.1503  143.3815 LP  0  0  0  0  0  0  0  0  0  0  0  0  # atno 17320 bound_to 7965
  146.2696  140.4841  142.8820 LP  0  0  0  0  0  0  0  0  0  0  0  0  # atno 17321 bound_to 7965
  139.8839  143.7037  152.3153 LP  0  0  0  0  0  0  0  0  0  0  0  0  # atno 17342 bound_to 10162
  139.7329  144.7578  151.0773 LP  0  0  0  0  0  0  0  0  0  0  0  0  # atno 17343 bound_to 10162
  155.9816  130.4017  150.3462 LP  0  0  0  0  0  0  0  0  0  0  0  0  # atno 17370 bound_to 10713
  157.1586  131.0339  151.2851 LP  0  0  0  0  0  0  0  0  0  0  0  0  # atno 17371 bound_to 10713
  141.1090  133.6650  156.2932 LP  0  0  0  0  0  0  0  0  0  0  0  0  # atno 17394 bound_to 11000
  140.5871  134.5688  157.5492 LP  0  0  0  0  0  0  0  0  0  0  0  0  # atno 17395 bound_to 11000

$$$$
