AV-unprocessed.smi:1893|AV-procd|sdf|7676|dock5
  -GOLD-   22720 9413D 1   1.00000     0.00000
 Structure written by MMmdl.
 43 44  0  0  0  0  0  0  0  0  2 V2000
  151.1287  141.8415  158.8180 C   0  0  0  0  0  0  0  0  0  0  0  0
  152.3088  142.8369  158.7793 C   0  0  1  0  0  0  0  0  0  0  0  0
  151.9569  144.1354  158.0231 C   0  0  0  0  0  0  0  0  0  0  0  0
  151.0093  145.0344  158.8308 C   0  0  0  0  0  0  0  0  0  0  0  0
  151.6013  145.3096  160.2182 C   0  0  0  0  0  0  0  0  0  0  0  0
  151.9455  144.0003  160.9473 C   0  0  0  0  0  0  0  0  0  0  0  0
  152.8606  143.1561  160.1306 N   0  3  1  0  0  0  0  0  0  0  0  0
  153.3881  141.9700  160.8537 C   0  0  0  0  0  0  0  0  0  0  0  0
  154.3436  141.1318  159.9839 C   0  0  0  0  0  0  0  0  0  0  0  0
  154.2712  139.7157  160.3226 N   0  0  0  0  0  0  0  0  0  0  0  0
  155.0840  138.7656  159.8317 C   0  0  0  0  0  0  0  0  0  0  0  0
  155.9644  139.0063  159.0047 O   0  0  0  0  0  0  0  0  0  0  0  0
  154.8561  137.3337  160.3488 C   0  0  1  0  0  0  0  0  0  0  0  0
  153.7256  137.2416  161.3937 C   0  0  0  0  0  0  0  0  0  0  0  0
  154.6372  136.4116  159.2404 N   0  0  0  0  0  0  0  0  0  0  0  0
  154.5409  136.6492  157.9305 C   0  0  0  0  0  0  0  0  0  0  0  0
  154.3026  135.5671  157.2029 N   0  0  0  0  0  0  0  0  0  0  0  0
  154.2563  134.6300  158.1960 C   0  0  0  0  0  0  0  0  0  0  0  0
  154.4428  135.0833  159.4353 N   0  0  0  0  0  0  0  0  0  0  0  0
  150.7751  141.6259  157.8096 H   0  0  0  0  0  0  0  0  0  0  0  0
  150.2788  142.2245  159.3819 H   0  0  0  0  0  0  0  0  0  0  0  0
  151.4173  140.8886  159.2613 H   0  0  0  0  0  0  0  0  0  0  0  0
  153.1088  142.3564  158.2141 H   0  0  0  0  0  0  0  0  0  0  0  0
  152.8746  144.6867  157.8126 H   0  0  0  0  0  0  0  0  0  0  0  0
  151.5168  143.9023  157.0529 H   0  0  0  0  0  0  0  0  0  0  0  0
  150.8413  145.9729  158.3018 H   0  0  0  0  0  0  0  0  0  0  0  0
  150.0335  144.5584  158.9308 H   0  0  0  0  0  0  0  0  0  0  0  0
  152.5009  145.9184  160.1170 H   0  0  0  0  0  0  0  0  0  0  0  0
  150.8990  145.8944  160.8129 H   0  0  0  0  0  0  0  0  0  0  0  0
  152.4117  144.2484  161.9000 H   0  0  0  0  0  0  0  0  0  0  0  0
  151.0362  143.4478  161.1859 H   0  0  0  0  0  0  0  0  0  0  0  0
  153.8825  142.2840  161.7742 H   0  0  0  0  0  0  0  0  0  0  0  0
  152.5514  141.3366  161.1522 H   0  0  0  0  0  0  0  0  0  0  0  0
  154.1215  141.2737  158.9248 H   0  0  0  0  0  0  0  0  0  0  0  0
  155.3772  141.4442  160.1274 H   0  0  0  0  0  0  0  0  0  0  0  0
  153.5721  139.4405  160.9976 H   0  0  0  0  0  0  0  0  0  0  0  0
  155.7798  137.0284  160.8429 H   0  0  0  0  0  0  0  0  0  0  0  0
  153.9296  137.8794  162.2546 H   0  0  0  0  0  0  0  0  0  0  0  0
  153.6211  136.2211  161.7637 H   0  0  0  0  0  0  0  0  0  0  0  0
  152.7623  137.5420  160.9794 H   0  0  0  0  0  0  0  0  0  0  0  0
  154.6432  137.6347  157.5002 H   0  0  0  0  0  0  0  0  0  0  0  0
  154.0743  133.5836  158.0003 H   0  0  0  0  0  0  0  0  0  0  0  0
  153.6693  143.7325  159.9460 H   0  0  0  0  0  0  0  0  0  0  0  0
  1  2  1  0  0  0  0
  1 20  1  0  0  0  0
  1 21  1  0  0  0  0
  1 22  1  0  0  0  0
  2  7  1  0  0  0  0
  2  3  1  0  0  0  0
  2 23  1  0  0  0  0
  3  4  1  0  0  0  0
  3 24  1  0  0  0  0
  3 25  1  0  0  0  0
  4  5  1  0  0  0  0
  4 26  1  0  0  0  0
  4 27  1  0  0  0  0
  5  6  1  0  0  0  0
  5 28  1  0  0  0  0
  5 29  1  0  0  0  0
  6  7  1  0  0  0  0
  6 30  1  0  0  0  0
  6 31  1  0  0  0  0
  7  8  1  0  0  0  0
  7 43  1  0  0  0  0
  8  9  1  0  0  0  0
  8 32  1  0  0  0  0
  8 33  1  0  0  0  0
  9 10  1  0  0  0  0
  9 34  1  0  0  0  0
  9 35  1  0  0  0  0
 10 11  1  0  0  0  0
 10 36  1  0  0  0  0
 11 12  2  0  0  0  0
 11 13  1  0  0  0  0
 13 14  1  0  0  0  0
 13 15  1  0  0  0  0
 13 37  1  0  0  0  0
 14 38  1  0  0  0  0
 14 39  1  0  0  0  0
 14 40  1  0  0  0  0
 15 19  1  0  0  0  0
 15 16  1  0  0  0  0
 16 17  2  0  0  0  0
 16 41  1  0  0  0  0
 17 18  1  0  0  0  0
 18 19  2  0  0  0  0
 18 42  1  0  0  0  0
M  CHG  1   7   1
M  END
> <s_m_source_file>
AV-unprocessed.smi

> <i_m_source_file_index>
1893

> <i_lp_mmshare_version>
43012

> <i_f3d_flags>
0

> <s_epik_input>
W0NIM11bQ0BASF0xW0NIMl1bQ0gyXVtDSDJdW0NIMl1OMVtDSDJdW0NIMl1bTkhdQyg9TylbQ0BIXShbQ0gzXSluMltjSF1uW2NIXW4y

> <s_epik_cmdline>
J2VwaWtfcHl0aG9uJywgJy1waCcsICc3LjAnLCAnLXRuJywgJzgnLCAnLW1hJywgJzIwMCcsICctbWV0YWxfYmluZGluZycsICctaW1hZScsICc8aW5maWxlLm1hZT4nLCAnLW9tYWUnLCAnPG91dGZpbGUubWFlPic=

> <r_lp_tautomer_probability>
1

> <r_epik_Ionization_Penalty>
0.00266409

> <r_epik_Ionization_Penalty_Charging>
0.00265606

> <r_epik_Ionization_Penalty_Neutral>
8.02794e-06

> <r_epik_State_Penalty>
0.00184955

> <r_epik_Charging_Adjusted_Penalty>
0.00450561

> <i_epik_Tot_Q>
1

> <i_epik_Tot_abs_Q>
1

> <r_epik_Metal_State_Penalty>
-0

> <b_epik_Metal_Only>
0

> <s_lp_Force_Field>
OPLS_2005

> <r_lp_Energy>
24.9679

> <b_lp_Chiralities_Consistent>
1

> <s_lp_Variant>
AV-unprocessed.smi:1893-6

> <Gold.Version>
5.8.1

> <Gold.Id.Protein>
6NUR|6NUR_protein|mol2

> <Gold.PLP.Fitness>
48.3073

> <Gold.PLP.PLP>
-39.7812

> <Gold.PLP.part.hbond>
-2.8946

> <Gold.PLP.part.metal>
0.0000

> <Gold.PLP.part.buried>
-5.4245

> <Gold.PLP.part.nonpolar>
-32.2267

> <Gold.PLP.part.repulsive>
0.1061

> <Gold.PLP.ligand.clash>
0.0000

> <Gold.PLP.ligand.torsion>
0.3114

> <Gold.PLP.Chemscore.Hbond>
3.0000

> <Gold.PLP.Chemscore.CHOScore>
0.0000

> <Gold.PLP.Chemscore.Metal>
0.0000

> <Gold.Chemscore.Hbonds>
donor molecule, donor type, donor heavy atom, donor atom, acceptor molecule, acceptor atom, score
      P1  H  6896  6909       L1    19  0.43
      P1  H  7997  8008       L1    12  1.00
      P1  H 10752 10765       L1    17  1.00

> <Gold.PLP.Chemscore.Internal.Correction>
0.1489

> <Gold.Rescore>
     Score         DG    S(hbond)    S(metal)    S(lipo)     H(rot)  DE(clash)    DE(int)     intcor
     18.06     -19.83       2.69        0.00     101.50       2.54       0.01       1.76       ----

> <Gold.Chemscore.Fitness>
18.0603

> <Gold.Chemscore.DG>
-19.8276

> <Gold.Chemscore.ZeroCoef>
-5.4800

> <Gold.Chemscore.Hbond>
2.6852

> <Gold.Chemscore.Metal>
0.0000

> <Gold.Chemscore.Lipo>
101.5015

> <Gold.Chemscore.Internal_Hbond>
0.0000

> <Gold.Chemscore.DEClash>
0.0089

> <Gold.Chemscore.DEInternal>
1.7584

> <Gold.Chemscore.Rot>
2.5377

> <Gold.Chemscore.Internal.Correction>
   9.000000E+99

> <Gold.Chemscore.Hbonds>
donor molecule, donor type, donor heavy atom, donor atom, acceptor molecule, acceptor atom, score
      P1  H  6896  6909       L1    19  0.01
      P1  H  7997  8008       L1    12  0.96
      P1  H 10752 10765       L1    17  1.00

> <Gold.Chemscore.Hbond.Weighted>
-8.9685

> <Gold.Chemscore.Metal.Weighted>
-0.0000

> <Gold.Chemscore.Lipo.Weighted>
-11.8757

> <Gold.Chemscore.Internal_Hbond.Weighted>
0.0000

> <Gold.Chemscore.DEClash.Weighted>
0.0089

> <Gold.Chemscore.DEInternal.Weighted>
1.7584

> <Gold.Chemscore.Rot.Weighted>
6.4966

> <Gold.Chemscore.Internal.Correction.Weighted>
   9.000000E+99

> <Gold.Protein.RotatedTorsions>
[ 6907 6896 6895 6894 ] final -163.46 input  -60.11 | X-H torsion
[ 7974 7965 7964 7962 ] final   76.40 input  175.53 | X-H torsion
[ 8008 7997 7996 7995 ] final -150.13 input   59.86 | X-H torsion
[ 10167 10162 10161 10158 ] final    8.97 input  -65.29 | X-H torsion
[ 10718 10713 10712 10709 ] final  -32.53 input   66.30 | X-H torsion
[ 10763 10752 10751 10750 ] final  -79.94 input  -60.55 | X-H torsion
[ 11005 11000 10999 10996 ] final  103.38 input  -57.11 | X-H torsion

> <Gold.Protein.ActiveResidues>
 VAL166  LYS551  ARG553  GLY616  TRP617  ASP618  TYR619  PRO620  LYS621  CYS622 
 ASP623  PHE694  ASN695  SER759  ASP760  ASP761  ALA762  ILE779  LEU786  VAL792 
 PHE793  MET794  SER795  GLU796  ALA797  LYS798  CYS799  TRP800  GLU811  SER814 

> <Gold.Protein.RotatedAtoms>
  151.3965  133.3771  159.2726 H   0  0  0  0  0  0  0  0  0  0  0  0  # atno 6907 bound_to 6896
  150.9466  134.8871  159.7656 H   0  0  0  0  0  0  0  0  0  0  0  0  # atno 6908 bound_to 6896
  152.5094  134.3918  159.9438 H   0  0  0  0  0  0  0  0  0  0  0  0  # atno 6909 bound_to 6896
  145.7033  139.2590  143.1693 H   0  0  0  0  0  0  0  0  0  0  0  0  # atno 7974 bound_to 7965
  155.6187  140.0679  157.2684 H   0  0  0  0  0  0  0  0  0  0  0  0  # atno 8008 bound_to 7997
  154.4234  140.1788  156.1397 H   0  0  0  0  0  0  0  0  0  0  0  0  # atno 8009 bound_to 7997
  156.0027  140.3334  155.6864 H   0  0  0  0  0  0  0  0  0  0  0  0  # atno 8010 bound_to 7997
  140.6283  143.8052  150.7261 H   0  0  0  0  0  0  0  0  0  0  0  0  # atno 10167 bound_to 10162
  156.3738  130.4344  149.7524 H   0  0  0  0  0  0  0  0  0  0  0  0  # atno 10718 bound_to 10713
  154.5449  135.5678  153.6871 H   0  0  0  0  0  0  0  0  0  0  0  0  # atno 10763 bound_to 10752
  152.9973  135.6237  154.2452 H   0  0  0  0  0  0  0  0  0  0  0  0  # atno 10764 bound_to 10752
  154.2384  135.2863  155.2843 H   0  0  0  0  0  0  0  0  0  0  0  0  # atno 10765 bound_to 10752
  139.8783  134.9261  156.5200 H   0  0  0  0  0  0  0  0  0  0  0  0  # atno 11005 bound_to 11000
  146.0778  140.7798  142.9656 LP  0  0  0  0  0  0  0  0  0  0  0  0  # atno 17320 bound_to 7965
  144.6962  140.3442  143.7193 LP  0  0  0  0  0  0  0  0  0  0  0  0  # atno 17321 bound_to 7965
  140.1658  143.4237  152.2036 LP  0  0  0  0  0  0  0  0  0  0  0  0  # atno 17342 bound_to 10162
  139.5500  144.7330  151.4465 LP  0  0  0  0  0  0  0  0  0  0  0  0  # atno 17343 bound_to 10162
  156.4641  130.7966  151.2985 LP  0  0  0  0  0  0  0  0  0  0  0  0  # atno 17370 bound_to 10713
  157.7486  131.0056  150.3121 LP  0  0  0  0  0  0  0  0  0  0  0  0  # atno 17371 bound_to 10713
  140.8457  133.8170  155.9119 LP  0  0  0  0  0  0  0  0  0  0  0  0  # atno 17394 bound_to 11000
  140.9194  134.2161  157.4936 LP  0  0  0  0  0  0  0  0  0  0  0  0  # atno 17395 bound_to 11000

$$$$
