AV-unprocessed.smi:705|AV-procd|sdf|3447|dock5
  -GOLD-   22720 0433D 1   1.00000     0.00000
 Structure written by MMmdl.
 29 30  0  0  0  0  0  0  0  0  2 V2000
  150.1439  137.8626  153.8207 N   0  0  0  0  0  0  0  0  0  0  0  0
  151.1175  137.5148  154.6672 C   0  0  0  0  0  0  0  0  0  0  0  0
  151.6288  136.3969  154.6528 O   0  0  0  0  0  0  0  0  0  0  0  0
  151.5318  138.5283  155.6595 C   0  0  0  0  0  0  0  0  0  0  0  0
  150.8135  139.6222  156.0509 C   0  0  0  0  0  0  0  0  0  0  0  0
  151.6843  140.2530  156.9910 C   0  0  0  0  0  0  0  0  0  0  0  0
  151.4227  141.5126  157.7770 C   0  0  1  0  0  0  0  0  0  0  0  0
  152.6450  141.9336  158.6159 C   0  0  0  0  0  0  0  0  0  0  0  0
  152.3412  143.2207  159.3978 C   0  0  0  0  0  0  0  0  0  0  0  0
  151.8574  144.3348  158.4544 C   0  0  0  0  0  0  0  0  0  0  0  0
  150.6823  143.8884  157.6744 N   0  3  0  0  0  0  0  0  0  0  0  0
  150.9458  142.6710  156.8756 C   0  0  0  0  0  0  0  0  0  0  0  0
  152.8364  139.6010  157.1420 N   0  0  0  0  0  0  0  0  0  0  0  0
  152.7386  138.5443  156.3116 N   0  0  0  0  0  0  0  0  0  0  0  0
  153.4777  137.8629  156.2099 H   0  0  0  0  0  0  0  0  0  0  0  0
  149.8230  137.2025  153.1273 H   0  0  0  0  0  0  0  0  0  0  0  0
  149.7296  138.7811  153.8797 H   0  0  0  0  0  0  0  0  0  0  0  0
  149.8289  139.9276  155.7286 H   0  0  0  0  0  0  0  0  0  0  0  0
  150.6133  141.3007  158.4776 H   0  0  0  0  0  0  0  0  0  0  0  0
  152.9234  141.1360  159.3057 H   0  0  0  0  0  0  0  0  0  0  0  0
  153.5064  142.0995  157.9672 H   0  0  0  0  0  0  0  0  0  0  0  0
  151.5795  143.0207  160.1529 H   0  0  0  0  0  0  0  0  0  0  0  0
  153.2312  143.5481  159.9362 H   0  0  0  0  0  0  0  0  0  0  0  0
  151.5889  145.2239  159.0255 H   0  0  0  0  0  0  0  0  0  0  0  0
  152.6547  144.6243  157.7684 H   0  0  0  0  0  0  0  0  0  0  0  0
  149.9268  143.6940  158.3156 H   0  0  0  0  0  0  0  0  0  0  0  0
  151.6938  142.9041  156.1164 H   0  0  0  0  0  0  0  0  0  0  0  0
  150.0329  142.3920  156.3484 H   0  0  0  0  0  0  0  0  0  0  0  0
  150.3993  144.6325  157.0528 H   0  0  0  0  0  0  0  0  0  0  0  0
  1  2  1  0  0  0  0
  1 16  1  0  0  0  0
  1 17  1  0  0  0  0
  2  3  2  0  0  0  0
  2  4  1  0  0  0  0
  4 14  1  0  0  0  0
  4  5  2  0  0  0  0
  5  6  1  0  0  0  0
  5 18  1  0  0  0  0
  6  7  1  0  0  0  0
  6 13  2  0  0  0  0
  7 12  1  0  0  0  0
  7  8  1  0  0  0  0
  7 19  1  0  0  0  0
  8  9  1  0  0  0  0
  8 20  1  0  0  0  0
  8 21  1  0  0  0  0
  9 10  1  0  0  0  0
  9 22  1  0  0  0  0
  9 23  1  0  0  0  0
 10 11  1  0  0  0  0
 10 24  1  0  0  0  0
 10 25  1  0  0  0  0
 11 12  1  0  0  0  0
 11 26  1  0  0  0  0
 11 29  1  0  0  0  0
 12 27  1  0  0  0  0
 12 28  1  0  0  0  0
 13 14  1  0  0  0  0
 14 15  1  0  0  0  0
M  CHG  1  11   1
M  END
> <s_m_source_file>
AV-unprocessed.smi

> <i_m_source_file_index>
705

> <i_lp_mmshare_version>
43012

> <i_f3d_flags>
0

> <s_epik_input>
W05IMl1DKD1PKWMxW2NIXWMoW25IXW4xKVtDQEBIXTJbQ0gyXVtDSDJdW0NIMl1bTkhdW0NIMl0y

> <s_epik_cmdline>
J2VwaWtfcHl0aG9uJywgJy1waCcsICc3LjAnLCAnLXRuJywgJzgnLCAnLW1hJywgJzIwMCcsICctbWV0YWxfYmluZGluZycsICctaW1hZScsICc8aW5maWxlLm1hZT4nLCAnLW9tYWUnLCAnPG91dGZpbGUubWFlPic=

> <r_lp_tautomer_probability>
0.5

> <r_epik_Ionization_Penalty>
0.000242638

> <r_epik_Ionization_Penalty_Charging>
0.000157527

> <r_epik_Ionization_Penalty_Neutral>
8.51112e-05

> <r_epik_State_Penalty>
0.41068

> <r_epik_Charging_Adjusted_Penalty>
0.410837

> <i_epik_Tot_Q>
1

> <i_epik_Tot_abs_Q>
1

> <r_epik_Metal_State_Penalty>
0.446108

> <b_epik_Metal_Only>
0

> <s_lp_Force_Field>
OPLS_2005

> <r_lp_Energy>
10.1374

> <b_lp_Chiralities_Consistent>
1

> <s_lp_Variant>
AV-unprocessed.smi:705-2

> <Gold.Version>
5.8.1

> <Gold.Id.Protein>
6NUR|6NUR_protein|mol2

> <Gold.PLP.Fitness>
39.6141

> <Gold.PLP.PLP>
-27.3478

> <Gold.PLP.part.hbond>
-4.5498

> <Gold.PLP.part.metal>
0.0000

> <Gold.PLP.part.buried>
-4.1240

> <Gold.PLP.part.nonpolar>
-20.3012

> <Gold.PLP.part.repulsive>
0.3894

> <Gold.PLP.ligand.clash>
0.0000

> <Gold.PLP.ligand.torsion>
0.3033

> <Gold.PLP.Chemscore.Hbond>
4.2800

> <Gold.PLP.Chemscore.CHOScore>
0.0000

> <Gold.PLP.Chemscore.Metal>
0.0000

> <Gold.Chemscore.Hbonds>
donor molecule, donor type, donor heavy atom, donor atom, acceptor molecule, acceptor atom, score
      L1  H     1    16       P1  7948  1.00
      L1  H    11    29       P1  8028  1.31
      P1  H  7997  8010       L1    13  1.00
      P1  H 10752 10765       L1     3  1.00

> <Gold.PLP.Chemscore.Internal.Correction>
0.0328

> <Gold.Rescore>
     Score         DG    S(hbond)    S(metal)    S(lipo)     H(rot)  DE(clash)    DE(int)     intcor
     20.25     -20.75       3.00        0.00      66.85       1.00       0.26       0.24       ----

> <Gold.Chemscore.Fitness>
20.2536

> <Gold.Chemscore.DG>
-20.7548

> <Gold.Chemscore.ZeroCoef>
-5.4800

> <Gold.Chemscore.Hbond>
2.9979

> <Gold.Chemscore.Metal>
0.0000

> <Gold.Chemscore.Lipo>
66.8518

> <Gold.Chemscore.Internal_Hbond>
0.0000

> <Gold.Chemscore.DEClash>
0.2587

> <Gold.Chemscore.DEInternal>
0.2425

> <Gold.Chemscore.Rot>
1.0000

> <Gold.Chemscore.Internal.Correction>
   9.000000E+99

> <Gold.Chemscore.Hbonds>
donor molecule, donor type, donor heavy atom, donor atom, acceptor molecule, acceptor atom, score
      L1  H     1    16       P1  7948  0.40
      L1  H    11    29       P1  8028  0.39
      P1  H  7997  8010       L1    13  0.29
      P1  H 10752 10765       L1     3  0.94

> <Gold.Chemscore.Hbond.Weighted>
-10.0131

> <Gold.Chemscore.Metal.Weighted>
-0.0000

> <Gold.Chemscore.Lipo.Weighted>
-7.8217

> <Gold.Chemscore.Internal_Hbond.Weighted>
0.0000

> <Gold.Chemscore.DEClash.Weighted>
0.2587

> <Gold.Chemscore.DEInternal.Weighted>
0.2425

> <Gold.Chemscore.Rot.Weighted>
2.5600

> <Gold.Chemscore.Internal.Correction.Weighted>
   9.000000E+99

> <Gold.Protein.RotatedTorsions>
[ 6907 6896 6895 6894 ] final  140.48 input  -60.11 | X-H torsion
[ 7974 7965 7964 7962 ] final   99.88 input  175.53 | X-H torsion
[ 8008 7997 7996 7995 ] final   40.41 input   59.86 | X-H torsion
[ 10167 10162 10161 10158 ] final  147.91 input  -65.29 | X-H torsion
[ 10718 10713 10712 10709 ] final   91.45 input   66.30 | X-H torsion
[ 10763 10752 10751 10750 ] final  162.60 input  -60.55 | X-H torsion
[ 11005 11000 10999 10996 ] final   28.55 input  -57.11 | X-H torsion

> <Gold.Protein.ActiveResidues>
 VAL166  LYS551  ARG553  GLY616  TRP617  ASP618  TYR619  PRO620  LYS621  CYS622 
 ASP623  PHE694  ASN695  SER759  ASP760  ASP761  ALA762  ILE779  LEU786  VAL792 
 PHE793  MET794  SER795  GLU796  ALA797  LYS798  CYS799  TRP800  GLU811  SER814 

> <Gold.Protein.RotatedAtoms>
  152.2425  133.5147  159.5278 H   0  0  0  0  0  0  0  0  0  0  0  0  # atno 6907 bound_to 6896
  150.7069  134.1069  159.3995 H   0  0  0  0  0  0  0  0  0  0  0  0  # atno 6908 bound_to 6896
  151.8990  135.0386  160.0555 H   0  0  0  0  0  0  0  0  0  0  0  0  # atno 6909 bound_to 6896
  145.3930  139.2360  143.3342 H   0  0  0  0  0  0  0  0  0  0  0  0  # atno 7974 bound_to 7965
  155.2526  140.3353  155.4281 H   0  0  0  0  0  0  0  0  0  0  0  0  # atno 8008 bound_to 7997
  156.2209  140.1808  156.7522 H   0  0  0  0  0  0  0  0  0  0  0  0  # atno 8009 bound_to 7997
  154.5824  140.0651  156.9108 H   0  0  0  0  0  0  0  0  0  0  0  0  # atno 8010 bound_to 7997
  139.4882  144.5719  151.7038 H   0  0  0  0  0  0  0  0  0  0  0  0  # atno 10167 bound_to 10162
  157.6960  131.0408  150.3732 H   0  0  0  0  0  0  0  0  0  0  0  0  # atno 10718 bound_to 10713
  154.2808  135.2763  155.2698 H   0  0  0  0  0  0  0  0  0  0  0  0  # atno 10763 bound_to 10752
  154.5220  135.5753  153.6692 H   0  0  0  0  0  0  0  0  0  0  0  0  # atno 10764 bound_to 10752
  152.9929  135.6206  154.2967 H   0  0  0  0  0  0  0  0  0  0  0  0  # atno 10765 bound_to 10752
  140.3144  134.2614  155.7728 H   0  0  0  0  0  0  0  0  0  0  0  0  # atno 11005 bound_to 11000
  146.2789  140.4615  142.8784 LP  0  0  0  0  0  0  0  0  0  0  0  0  # atno 17320 bound_to 7965
  144.8427  140.6882  143.6219 LP  0  0  0  0  0  0  0  0  0  0  0  0  # atno 17321 bound_to 7965
  140.5308  144.0733  150.6053 LP  0  0  0  0  0  0  0  0  0  0  0  0  # atno 17342 bound_to 10162
  140.3723  143.2848  152.0265 LP  0  0  0  0  0  0  0  0  0  0  0  0  # atno 17343 bound_to 10162
  156.4154  130.3942  149.6862 LP  0  0  0  0  0  0  0  0  0  0  0  0  # atno 17370 bound_to 10713
  156.4131  130.7732  151.2746 LP  0  0  0  0  0  0  0  0  0  0  0  0  # atno 17371 bound_to 10713
  141.2101  133.7730  156.9954 LP  0  0  0  0  0  0  0  0  0  0  0  0  # atno 17394 bound_to 11000
  140.0996  134.9543  157.1903 LP  0  0  0  0  0  0  0  0  0  0  0  0  # atno 17395 bound_to 11000

$$$$
