AV-unprocessed.smi:1303|AV-procd|sdf|5428|dock3
  -GOLD-   22720 4583D 1   1.00000     0.00000
 Structure written by MMmdl.
 40 41  0  0  0  0  0  0  0  0  1 V2000
  145.1183  142.3034  157.4256 C   0  0  0  0  0  0  0  0  0  0  0  0
  145.7201  142.5870  156.0392 C   0  0  0  0  0  0  0  0  0  0  0  0
  144.6311  142.9760  155.0257 C   0  0  0  0  0  0  0  0  0  0  0  0
  146.5182  141.3795  155.5316 C   0  0  0  0  0  0  0  0  0  0  0  0
  145.9515  140.3086  155.3107 O   0  0  0  0  0  0  0  0  0  0  0  0
  147.8325  141.5687  155.3367 N   0  0  0  0  0  0  0  0  0  0  0  0
  148.7496  140.5671  154.8010 C   0  0  0  0  0  0  0  0  0  0  0  0
  150.0658  140.4460  155.5588 C   0  0  0  0  0  0  0  0  0  0  0  0
  150.9424  139.3818  155.2711 C   0  0  0  0  0  0  0  0  0  0  0  0
  152.1489  139.2932  155.9897 C   0  0  0  0  0  0  0  0  0  0  0  0
  152.5106  140.1785  156.9415 N   0  0  0  0  0  0  0  0  0  0  0  0
  151.6772  141.2088  157.2284 C   0  0  0  0  0  0  0  0  0  0  0  0
  152.0709  142.1356  158.2179 N   0  0  0  0  0  0  0  0  0  0  0  0
  151.4283  143.4485  158.2213 C   0  0  0  0  0  0  0  0  0  0  0  0
  152.1698  144.4054  159.1700 C   0  0  0  0  0  0  0  0  0  0  0  0
  152.2467  143.8286  160.4692 O   0  0  0  0  0  0  0  0  0  0  0  0
  152.9716  142.6031  160.4621 C   0  0  0  0  0  0  0  0  0  0  0  0
  152.2614  141.5823  159.5567 C   0  0  0  0  0  0  0  0  0  0  0  0
  150.4376  141.3665  156.5644 C   0  0  0  0  0  0  0  0  0  0  0  0
  145.8885  142.0114  158.1407 H   0  0  0  0  0  0  0  0  0  0  0  0
  144.3784  141.5029  157.3866 H   0  0  0  0  0  0  0  0  0  0  0  0
  144.6235  143.1897  157.8231 H   0  0  0  0  0  0  0  0  0  0  0  0
  146.4032  143.4323  156.1389 H   0  0  0  0  0  0  0  0  0  0  0  0
  145.0570  143.1693  154.0399 H   0  0  0  0  0  0  0  0  0  0  0  0
  144.1125  143.8819  155.3401 H   0  0  0  0  0  0  0  0  0  0  0  0
  143.8838  142.1888  154.9167 H   0  0  0  0  0  0  0  0  0  0  0  0
  148.2188  142.4783  155.5432 H   0  0  0  0  0  0  0  0  0  0  0  0
  148.2496  139.5991  154.8290 H   0  0  0  0  0  0  0  0  0  0  0  0
  148.9497  140.7815  153.7498 H   0  0  0  0  0  0  0  0  0  0  0  0
  150.6991  138.6487  154.5163 H   0  0  0  0  0  0  0  0  0  0  0  0
  152.8440  138.4902  155.7938 H   0  0  0  0  0  0  0  0  0  0  0  0
  151.4235  143.8690  157.2151 H   0  0  0  0  0  0  0  0  0  0  0  0
  150.3894  143.3420  158.5364 H   0  0  0  0  0  0  0  0  0  0  0  0
  153.1715  144.6245  158.7968 H   0  0  0  0  0  0  0  0  0  0  0  0
  151.6393  145.3556  159.2338 H   0  0  0  0  0  0  0  0  0  0  0  0
  153.9953  142.7751  160.1256 H   0  0  0  0  0  0  0  0  0  0  0  0
  153.0321  142.2209  161.4811 H   0  0  0  0  0  0  0  0  0  0  0  0
  151.2860  141.3298  159.9743 H   0  0  0  0  0  0  0  0  0  0  0  0
  152.8440  140.6625  159.5367 H   0  0  0  0  0  0  0  0  0  0  0  0
  149.7755  142.1776  156.8271 H   0  0  0  0  0  0  0  0  0  0  0  0
  1  2  1  0  0  0  0
  1 20  1  0  0  0  0
  1 21  1  0  0  0  0
  1 22  1  0  0  0  0
  2  3  1  0  0  0  0
  2  4  1  0  0  0  0
  2 23  1  0  0  0  0
  3 24  1  0  0  0  0
  3 25  1  0  0  0  0
  3 26  1  0  0  0  0
  4  5  2  0  0  0  0
  4  6  1  0  0  0  0
  6  7  1  0  0  0  0
  6 27  1  0  0  0  0
  7  8  1  0  0  0  0
  7 28  1  0  0  0  0
  7 29  1  0  0  0  0
  8 19  1  0  0  0  0
  8  9  2  0  0  0  0
  9 10  1  0  0  0  0
  9 30  1  0  0  0  0
 10 11  2  0  0  0  0
 10 31  1  0  0  0  0
 11 12  1  0  0  0  0
 12 13  1  0  0  0  0
 12 19  2  0  0  0  0
 13 18  1  0  0  0  0
 13 14  1  0  0  0  0
 14 15  1  0  0  0  0
 14 32  1  0  0  0  0
 14 33  1  0  0  0  0
 15 16  1  0  0  0  0
 15 34  1  0  0  0  0
 15 35  1  0  0  0  0
 16 17  1  0  0  0  0
 17 18  1  0  0  0  0
 17 36  1  0  0  0  0
 17 37  1  0  0  0  0
 18 38  1  0  0  0  0
 18 39  1  0  0  0  0
 19 40  1  0  0  0  0
M  END
> <s_m_source_file>
AV-unprocessed.smi

> <i_m_source_file_index>
1303

> <i_lp_mmshare_version>
43012

> <i_f3d_flags>
0

> <s_epik_input>
W0NIM11bQ0hdKFtDSDNdKUMoPU8pW05IXVtDSDJdYzFbY0hdW2NIXW5jKFtjSF0xKU4yW0NIMl1bQ0gyXU9bQ0gyXVtDSDJdMg==

> <s_epik_cmdline>
J2VwaWtfcHl0aG9uJywgJy1waCcsICc3LjAnLCAnLXRuJywgJzgnLCAnLW1hJywgJzIwMCcsICctbWV0YWxfYmluZGluZycsICctaW1hZScsICc8aW5maWxlLm1hZT4nLCAnLW9tYWUnLCAnPG91dGZpbGUubWFlPic=

> <r_lp_tautomer_probability>
1

> <r_epik_Ionization_Penalty>
0.00576177

> <r_epik_Ionization_Penalty_Charging>
0

> <r_epik_Ionization_Penalty_Neutral>
0.00576177

> <r_epik_State_Penalty>
0.00422935

> <r_epik_Charging_Adjusted_Penalty>
0.00422935

> <i_epik_Tot_Q>
0

> <i_epik_Tot_abs_Q>
0

> <r_epik_Metal_State_Penalty>
-0

> <b_epik_Metal_Only>
0

> <s_lp_Force_Field>
OPLS_2005

> <r_lp_Energy>
14.5519

> <b_lp_Chiralities_Consistent>
1

> <s_lp_Variant>
AV-unprocessed.smi:1303-1

> <Gold.Version>
5.8.1

> <Gold.Id.Protein>
6NUR|6NUR_protein|mol2

> <Gold.PLP.Fitness>
44.6477

> <Gold.PLP.PLP>
-39.2406

> <Gold.PLP.part.hbond>
-2.0000

> <Gold.PLP.part.metal>
0.0000

> <Gold.PLP.part.buried>
-3.6825

> <Gold.PLP.part.nonpolar>
-33.5567

> <Gold.PLP.part.repulsive>
0.3377

> <Gold.PLP.ligand.clash>
0.0000

> <Gold.PLP.ligand.torsion>
0.4700

> <Gold.PLP.Chemscore.Hbond>
2.0000

> <Gold.PLP.Chemscore.CHOScore>
0.0000

> <Gold.PLP.Chemscore.Metal>
0.0000

> <Gold.Chemscore.Hbonds>
donor molecule, donor type, donor heavy atom, donor atom, acceptor molecule, acceptor atom, score
      L1  H     6    27       P1  8028  0.26
      P1  H  7997  8010       L1    11  0.85

> <Gold.PLP.Chemscore.Internal.Correction>
0.3472

> <Gold.Rescore>
     Score         DG    S(hbond)    S(metal)    S(lipo)     H(rot)  DE(clash)    DE(int)     intcor
     16.55     -17.10       1.77        0.00      82.96       1.56       0.06       0.48       ----

> <Gold.Chemscore.Fitness>
16.5516

> <Gold.Chemscore.DG>
-17.0966

> <Gold.Chemscore.ZeroCoef>
-5.4800

> <Gold.Chemscore.Hbond>
1.7663

> <Gold.Chemscore.Metal>
0.0000

> <Gold.Chemscore.Lipo>
82.9640

> <Gold.Chemscore.Internal_Hbond>
0.0000

> <Gold.Chemscore.DEClash>
0.0640

> <Gold.Chemscore.DEInternal>
0.4810

> <Gold.Chemscore.Rot>
1.5584

> <Gold.Chemscore.Internal.Correction>
   9.000000E+99

> <Gold.Chemscore.Hbonds>
donor molecule, donor type, donor heavy atom, donor atom, acceptor molecule, acceptor atom, score
      L1  H     6    27       P1  8028  0.27
      P1  H  7997  8010       L1    11  0.14

> <Gold.Chemscore.Hbond.Weighted>
-5.8993

> <Gold.Chemscore.Metal.Weighted>
-0.0000

> <Gold.Chemscore.Lipo.Weighted>
-9.7068

> <Gold.Chemscore.Internal_Hbond.Weighted>
0.0000

> <Gold.Chemscore.DEClash.Weighted>
0.0640

> <Gold.Chemscore.DEInternal.Weighted>
0.4810

> <Gold.Chemscore.Rot.Weighted>
3.9895

> <Gold.Chemscore.Internal.Correction.Weighted>
   9.000000E+99

> <Gold.Protein.RotatedTorsions>
[ 6907 6896 6895 6894 ] final  165.19 input  -60.11 | X-H torsion
[ 7974 7965 7964 7962 ] final  121.72 input  175.53 | X-H torsion
[ 8008 7997 7996 7995 ] final   61.35 input   59.86 | X-H torsion
[ 10167 10162 10161 10158 ] final -160.81 input  -65.29 | X-H torsion
[ 10718 10713 10712 10709 ] final    6.68 input   66.30 | X-H torsion
[ 10763 10752 10751 10750 ] final  179.62 input  -60.55 | X-H torsion
[ 11005 11000 10999 10996 ] final   28.50 input  -57.11 | X-H torsion

> <Gold.Protein.ActiveResidues>
 VAL166  LYS551  ARG553  GLY616  TRP617  ASP618  TYR619  PRO620  LYS621  CYS622 
 ASP623  PHE694  ASN695  SER759  ASP760  ASP761  ALA762  ILE779  LEU786  VAL792 
 PHE793  MET794  SER795  GLU796  ALA797  LYS798  CYS799  TRP800  GLU811  SER814 

> <Gold.Protein.RotatedAtoms>
  151.8982  133.3532  159.3821 H   0  0  0  0  0  0  0  0  0  0  0  0  # atno 6907 bound_to 6896
  150.7086  134.4855  159.5500 H   0  0  0  0  0  0  0  0  0  0  0  0  # atno 6908 bound_to 6896
  152.2438  134.8202  160.0507 H   0  0  0  0  0  0  0  0  0  0  0  0  # atno 6909 bound_to 6896
  145.1159  139.3421  143.4739 H   0  0  0  0  0  0  0  0  0  0  0  0  # atno 7974 bound_to 7965
  155.5970  140.3493  155.4583 H   0  0  0  0  0  0  0  0  0  0  0  0  # atno 8008 bound_to 7997
  156.0257  140.1263  157.0335 H   0  0  0  0  0  0  0  0  0  0  0  0  # atno 8009 bound_to 7997
  154.4332  140.1053  156.6014 H   0  0  0  0  0  0  0  0  0  0  0  0  # atno 8010 bound_to 7997
  139.6511  144.0082  152.2162 H   0  0  0  0  0  0  0  0  0  0  0  0  # atno 10167 bound_to 10162
  156.9257  130.5807  149.5648 H   0  0  0  0  0  0  0  0  0  0  0  0  # atno 10718 bound_to 10713
  154.5230  135.2795  155.1246 H   0  0  0  0  0  0  0  0  0  0  0  0  # atno 10763 bound_to 10752
  154.2795  135.6288  153.5345 H   0  0  0  0  0  0  0  0  0  0  0  0  # atno 10764 bound_to 10752
  152.9941  135.5648  154.5724 H   0  0  0  0  0  0  0  0  0  0  0  0  # atno 10765 bound_to 10752
  140.3149  134.2608  155.7727 H   0  0  0  0  0  0  0  0  0  0  0  0  # atno 11005 bound_to 11000
  146.3524  140.1098  142.8604 LP  0  0  0  0  0  0  0  0  0  0  0  0  # atno 17320 bound_to 7965
  145.0794  140.9210  143.4834 LP  0  0  0  0  0  0  0  0  0  0  0  0  # atno 17321 bound_to 7965
  139.9796  144.6437  150.7913 LP  0  0  0  0  0  0  0  0  0  0  0  0  # atno 17342 bound_to 10162
  140.7538  143.3015  151.3068 LP  0  0  0  0  0  0  0  0  0  0  0  0  # atno 17343 bound_to 10162
  156.0470  130.5545  150.8904 LP  0  0  0  0  0  0  0  0  0  0  0  0  # atno 17370 bound_to 10713
  157.5879  131.0945  150.9166 LP  0  0  0  0  0  0  0  0  0  0  0  0  # atno 17371 bound_to 10713
  141.2100  133.7733  156.9962 LP  0  0  0  0  0  0  0  0  0  0  0  0  # atno 17394 bound_to 11000
  140.0992  134.9545  157.1897 LP  0  0  0  0  0  0  0  0  0  0  0  0  # atno 17395 bound_to 11000

$$$$
