AV-unprocessed.smi:2855|AV-procd|sdf|10989|dock4
  -GOLD-   2272015443D 1   1.00000     0.00000
 Structure written by MMmdl.
 46 47  0  0  0  0  0  0  0  0  2 V2000
  152.1826  144.4435  160.7485 C   0  0  0  0  0  0  0  0  0  0  0  0
  152.1409  143.4441  159.5839 C   0  0  2  0  0  0  0  0  0  0  0  0
  150.7980  143.5037  158.8372 C   0  0  0  0  0  0  0  0  0  0  0  0
  150.7621  142.5089  157.6676 C   0  0  0  0  0  0  0  0  0  0  0  0
  151.0350  141.0574  158.1299 C   0  0  1  0  0  0  0  0  0  0  0  0
  150.9144  140.0150  156.9773 C   0  0  0  0  0  0  0  0  0  0  0  0
  151.9630  140.1864  155.8628 C   0  0  0  0  0  0  0  0  0  0  0  0
  149.4966  139.9571  156.3826 C   0  0  0  0  0  0  0  0  0  0  0  0
  152.3810  140.9915  158.9064 C   0  0  2  0  0  0  0  0  0  0  0  0
  152.6056  139.6570  159.4610 N   0  0  0  0  0  0  0  0  0  0  0  0
  153.4663  138.7397  158.9930 C   0  0  0  0  0  0  0  0  0  0  0  0
  154.1866  138.9247  158.0109 O   0  0  0  0  0  0  0  0  0  0  0  0
  153.4842  137.4049  159.7514 C   0  0  0  0  0  0  0  0  0  0  0  0
  154.2791  136.3592  159.0869 N   0  0  0  0  0  0  0  0  0  0  0  0
  155.2446  135.6888  159.8585 C   0  0  0  0  0  0  0  0  0  0  0  0
  156.0182  134.7159  159.3404 C   0  0  0  0  0  0  0  0  0  0  0  0
  155.8350  134.3621  157.9383 C   0  0  0  0  0  0  0  0  0  0  0  0
  156.5374  133.4810  157.4463 O   0  0  0  0  0  0  0  0  0  0  0  0
  154.8798  135.0363  157.2332 N   0  5  0  0  0  0  0  0  0  0  0  0
  154.0973  136.0211  157.7747 C   0  0  0  0  0  0  0  0  0  0  0  0
  153.2377  136.6135  157.1216 O   0  0  0  0  0  0  0  0  0  0  0  0
  152.4132  142.0083  160.0647 C   0  0  0  0  0  0  0  0  0  0  0  0
  151.4149  144.2206  161.4905 H   0  0  0  0  0  0  0  0  0  0  0  0
  152.0208  145.4630  160.3975 H   0  0  0  0  0  0  0  0  0  0  0  0
  153.1496  144.4181  161.2518 H   0  0  0  0  0  0  0  0  0  0  0  0
  152.9303  143.7214  158.8837 H   0  0  0  0  0  0  0  0  0  0  0  0
  149.9797  143.2875  159.5256 H   0  0  0  0  0  0  0  0  0  0  0  0
  150.6257  144.5127  158.4609 H   0  0  0  0  0  0  0  0  0  0  0  0
  149.7901  142.5808  157.1811 H   0  0  0  0  0  0  0  0  0  0  0  0
  151.5015  142.8120  156.9259 H   0  0  0  0  0  0  0  0  0  0  0  0
  150.2539  140.8076  158.8503 H   0  0  0  0  0  0  0  0  0  0  0  0
  151.0794  139.0277  157.4083 H   0  0  0  0  0  0  0  0  0  0  0  0
  151.8320  141.1245  155.3240 H   0  0  0  0  0  0  0  0  0  0  0  0
  151.8857  139.3804  155.1328 H   0  0  0  0  0  0  0  0  0  0  0  0
  152.9792  140.1631  156.2544 H   0  0  0  0  0  0  0  0  0  0  0  0
  149.2486  140.8632  155.8301 H   0  0  0  0  0  0  0  0  0  0  0  0
  148.7454  139.8219  157.1611 H   0  0  0  0  0  0  0  0  0  0  0  0
  149.4006  139.1205  155.6899 H   0  0  0  0  0  0  0  0  0  0  0  0
  153.1897  141.2573  158.2242 H   0  0  0  0  0  0  0  0  0  0  0  0
  152.0573  139.4091  160.2716 H   0  0  0  0  0  0  0  0  0  0  0  0
  153.8491  137.5762  160.7657 H   0  0  0  0  0  0  0  0  0  0  0  0
  152.4538  137.0676  159.8727 H   0  0  0  0  0  0  0  0  0  0  0  0
  155.3110  136.0071  160.8884 H   0  0  0  0  0  0  0  0  0  0  0  0
  156.7532  134.2084  159.9477 H   0  0  0  0  0  0  0  0  0  0  0  0
  153.3852  141.9670  160.5590 H   0  0  0  0  0  0  0  0  0  0  0  0
  151.6743  141.7313  160.8184 H   0  0  0  0  0  0  0  0  0  0  0  0
  1  2  1  0  0  0  0
  1 23  1  0  0  0  0
  1 24  1  0  0  0  0
  1 25  1  0  0  0  0
  2 22  1  0  0  0  0
  2  3  1  0  0  0  0
  2 26  1  0  0  0  0
  3  4  1  0  0  0  0
  3 27  1  0  0  0  0
  3 28  1  0  0  0  0
  4  5  1  0  0  0  0
  4 29  1  0  0  0  0
  4 30  1  0  0  0  0
  5  6  1  0  0  0  0
  5  9  1  0  0  0  0
  5 31  1  0  0  0  0
  6  7  1  0  0  0  0
  6  8  1  0  0  0  0
  6 32  1  0  0  0  0
  7 33  1  0  0  0  0
  7 34  1  0  0  0  0
  7 35  1  0  0  0  0
  8 36  1  0  0  0  0
  8 37  1  0  0  0  0
  8 38  1  0  0  0  0
  9 10  1  0  0  0  0
  9 22  1  0  0  0  0
  9 39  1  0  0  0  0
 10 11  1  0  0  0  0
 10 40  1  0  0  0  0
 11 12  2  0  0  0  0
 11 13  1  0  0  0  0
 13 14  1  0  0  0  0
 13 41  1  0  0  0  0
 13 42  1  0  0  0  0
 14 20  1  0  0  0  0
 14 15  1  0  0  0  0
 15 16  2  0  0  0  0
 15 43  1  0  0  0  0
 16 17  1  0  0  0  0
 16 44  1  0  0  0  0
 17 18  2  0  0  0  0
 17 19  1  0  0  0  0
 19 20  1  0  0  0  0
 20 21  2  0  0  0  0
 22 45  1  0  0  0  0
 22 46  1  0  0  0  0
M  CHG  1  19  -1
M  END
> <s_m_source_file>
AV-unprocessed.smi

> <i_m_source_file_index>
2855

> <i_lp_mmshare_version>
43012

> <i_f3d_flags>
0

> <s_epik_input>
W0NIM11bQ0BASF0xW0NIMl1bQ0gyXVtDQEBIXShbQ0hdKFtDSDNdKVtDSDNdKVtDQEhdKFtDSDJdMSlbTkhdQyg9TylbQ0gyXW4yW2NIXVtjSF1jKD1PKVtuSF1jMj1P

> <s_epik_cmdline>
J2VwaWtfcHl0aG9uJywgJy1waCcsICc3LjAnLCAnLXRuJywgJzgnLCAnLW1hJywgJzIwMCcsICctbWV0YWxfYmluZGluZycsICctaW1hZScsICc8aW5maWxlLm1hZT4nLCAnLW9tYWUnLCAnPG91dGZpbGUubWFlPic=

> <r_lp_tautomer_probability>
0.999537

> <r_epik_Ionization_Penalty>
3.12102

> <r_epik_Ionization_Penalty_Charging>
2.9581e-08

> <r_epik_Ionization_Penalty_Neutral>
3.12102

> <r_epik_State_Penalty>
3.12011

> <r_epik_Charging_Adjusted_Penalty>
3.12011

> <i_epik_Tot_Q>
-1

> <i_epik_Tot_abs_Q>
1

> <r_epik_Metal_State_Penalty>
0.463583

> <b_epik_Metal_Only>
1

> <s_lp_Force_Field>
OPLS_2005

> <r_lp_Energy>
24.0282

> <b_lp_Chiralities_Consistent>
1

> <s_lp_Variant>
AV-unprocessed.smi:2855-13

> <Gold.Version>
5.8.1

> <Gold.Id.Protein>
6NUR|6NUR_protein|mol2

> <Gold.PLP.Fitness>
39.6995

> <Gold.PLP.PLP>
-31.3085

> <Gold.PLP.part.hbond>
-2.5522

> <Gold.PLP.part.metal>
0.0000

> <Gold.PLP.part.buried>
-4.9744

> <Gold.PLP.part.nonpolar>
-24.2470

> <Gold.PLP.part.repulsive>
0.1197

> <Gold.PLP.ligand.clash>
0.0000

> <Gold.PLP.ligand.torsion>
0.3252

> <Gold.PLP.Chemscore.Hbond>
2.9913

> <Gold.PLP.Chemscore.CHOScore>
0.0000

> <Gold.PLP.Chemscore.Metal>
0.0000

> <Gold.Chemscore.Hbonds>
donor molecule, donor type, donor heavy atom, donor atom, acceptor molecule, acceptor atom, score
      P1  H  7997  8010       L1    12  0.93
      P1  H 10752 10763       L1    19  1.80

> <Gold.PLP.Chemscore.Internal.Correction>
0.0678

> <Gold.Rescore>
     Score         DG    S(hbond)    S(metal)    S(lipo)     H(rot)  DE(clash)    DE(int)     intcor
     12.88     -17.11       1.77        0.00      88.49       1.81       0.00       4.23       ----

> <Gold.Chemscore.Fitness>
12.8784

> <Gold.Chemscore.DG>
-17.1064

> <Gold.Chemscore.ZeroCoef>
-5.4800

> <Gold.Chemscore.Hbond>
1.7685

> <Gold.Chemscore.Metal>
0.0000

> <Gold.Chemscore.Lipo>
88.4868

> <Gold.Chemscore.Internal_Hbond>
0.0000

> <Gold.Chemscore.DEClash>
0.0013

> <Gold.Chemscore.DEInternal>
4.2267

> <Gold.Chemscore.Rot>
1.8100

> <Gold.Chemscore.Internal.Correction>
   9.000000E+99

> <Gold.Chemscore.Hbonds>
donor molecule, donor type, donor heavy atom, donor atom, acceptor molecule, acceptor atom, score
      P1  H  7997  8010       L1    12  0.88
      P1  H 10752 10763       L1    19  0.17

> <Gold.Chemscore.Hbond.Weighted>
-5.9069

> <Gold.Chemscore.Metal.Weighted>
-0.0000

> <Gold.Chemscore.Lipo.Weighted>
-10.3530

> <Gold.Chemscore.Internal_Hbond.Weighted>
0.0000

> <Gold.Chemscore.DEClash.Weighted>
0.0013

> <Gold.Chemscore.DEInternal.Weighted>
4.2267

> <Gold.Chemscore.Rot.Weighted>
4.6335

> <Gold.Chemscore.Internal.Correction.Weighted>
   9.000000E+99

> <Gold.Protein.RotatedTorsions>
[ 6907 6896 6895 6894 ] final   79.57 input  -60.11 | X-H torsion
[ 7974 7965 7964 7962 ] final  -50.32 input  175.53 | X-H torsion
[ 8008 7997 7996 7995 ] final   11.15 input   59.86 | X-H torsion
[ 10167 10162 10161 10158 ] final  176.78 input  -65.29 | X-H torsion
[ 10718 10713 10712 10709 ] final   78.54 input   66.30 | X-H torsion
[ 10763 10752 10751 10750 ] final  165.01 input  -60.55 | X-H torsion
[ 11005 11000 10999 10996 ] final  153.80 input  -57.11 | X-H torsion

> <Gold.Protein.ActiveResidues>
 VAL166  LYS551  ARG553  GLY616  TRP617  ASP618  TYR619  PRO620  LYS621  CYS622 
 ASP623  PHE694  ASN695  SER759  ASP760  ASP761  ALA762  ILE779  LEU786  VAL792 
 PHE793  MET794  SER795  GLU796  ALA797  LYS798  CYS799  TRP800  GLU811  SER814 

> <Gold.Protein.RotatedAtoms>
  152.5203  134.3491  159.9244 H   0  0  0  0  0  0  0  0  0  0  0  0  # atno 6907 bound_to 6896
  151.3441  133.3944  159.2681 H   0  0  0  0  0  0  0  0  0  0  0  0  # atno 6908 bound_to 6896
  150.9779  134.9158  159.7885 H   0  0  0  0  0  0  0  0  0  0  0  0  # atno 6909 bound_to 6896
  145.9311  140.7748  142.9599 H   0  0  0  0  0  0  0  0  0  0  0  0  # atno 7974 bound_to 7965
  154.8030  140.2855  155.5908 H   0  0  0  0  0  0  0  0  0  0  0  0  # atno 8008 bound_to 7997
  156.2979  140.2583  156.2831 H   0  0  0  0  0  0  0  0  0  0  0  0  # atno 8009 bound_to 7997
  154.9536  140.0379  157.2145 H   0  0  0  0  0  0  0  0  0  0  0  0  # atno 8010 bound_to 7997
  139.5227  144.2875  152.0493 H   0  0  0  0  0  0  0  0  0  0  0  0  # atno 10167 bound_to 10162
  157.6748  130.9873  150.1802 H   0  0  0  0  0  0  0  0  0  0  0  0  # atno 10718 bound_to 10713
  154.3176  135.2756  155.2535 H   0  0  0  0  0  0  0  0  0  0  0  0  # atno 10763 bound_to 10752
  154.4903  135.5835  153.6457 H   0  0  0  0  0  0  0  0  0  0  0  0  # atno 10764 bound_to 10752
  152.9880  135.6133  154.3358 H   0  0  0  0  0  0  0  0  0  0  0  0  # atno 10765 bound_to 10752
  140.1431  134.8725  157.2357 H   0  0  0  0  0  0  0  0  0  0  0  0  # atno 11005 bound_to 11000
  144.6765  140.2129  143.7375 LP  0  0  0  0  0  0  0  0  0  0  0  0  # atno 17320 bound_to 7965
  145.8424  139.2136  143.1819 LP  0  0  0  0  0  0  0  0  0  0  0  0  # atno 17321 bound_to 7965
  140.2327  144.4351  150.6293 LP  0  0  0  0  0  0  0  0  0  0  0  0  # atno 17342 bound_to 10162
  140.6344  143.2192  151.6426 LP  0  0  0  0  0  0  0  0  0  0  0  0  # atno 17343 bound_to 10162
  156.2536  130.3703  149.8205 LP  0  0  0  0  0  0  0  0  0  0  0  0  # atno 17370 bound_to 10713
  156.5971  130.8531  151.3422 LP  0  0  0  0  0  0  0  0  0  0  0  0  # atno 17371 bound_to 10713
  140.2697  134.3474  155.7377 LP  0  0  0  0  0  0  0  0  0  0  0  0  # atno 17394 bound_to 11000
  141.2189  133.7416  156.9205 LP  0  0  0  0  0  0  0  0  0  0  0  0  # atno 17395 bound_to 11000

$$$$
