AV-unprocessed.smi:3288|AV-procd|sdf|12606|dock8
  -GOLD-   2272018533D 1   1.00000     0.00000
 Structure written by MMmdl.
 38 39  0  0  0  0  0  0  0  0  1 V2000
  145.1280  143.7605  154.2289 C   0  0  0  0  0  0  0  0  0  0  0  0
  145.8396  142.8899  155.0940 O   0  0  0  0  0  0  0  0  0  0  0  0
  146.3015  141.7021  154.4661 C   0  0  0  0  0  0  0  0  0  0  0  0
  147.7094  141.8723  153.8772 C   0  0  0  0  0  0  0  0  0  0  0  0
  148.6477  141.8713  154.9486 O   0  0  0  0  0  0  0  0  0  0  0  0
  149.8321  141.1752  154.7966 C   0  0  0  0  0  0  0  0  0  0  0  0
  149.9897  140.4035  153.6918 N   0  0  0  0  0  0  0  0  0  0  0  0
  151.1442  139.7226  153.5427 C   0  0  0  0  0  0  0  0  0  0  0  0
  152.1941  139.7737  154.4775 C   0  0  0  0  0  0  0  0  0  0  0  0
  152.0322  140.5750  155.6225 C   0  0  0  0  0  0  0  0  0  0  0  0
  150.8271  141.2965  155.7961 C   0  0  0  0  0  0  0  0  0  0  0  0
  150.5796  142.1259  156.9023 N   0  0  0  0  0  0  0  0  0  0  0  0
  151.6145  142.4986  157.8588 C   0  0  0  0  0  0  0  0  0  0  0  0
  151.8834  141.3801  158.8810 C   0  0  0  0  0  0  0  0  0  0  0  0
  152.9022  141.8475  159.9335 C   0  0  0  0  0  0  0  0  0  0  0  0
  152.4335  143.0286  160.5763 O   0  0  0  0  0  0  0  0  0  0  0  0
  152.2676  144.1221  159.6796 C   0  0  0  0  0  0  0  0  0  0  0  0
  151.2143  143.7730  158.6157 C   0  0  0  0  0  0  0  0  0  0  0  0
  144.8605  144.6683  154.7695 H   0  0  0  0  0  0  0  0  0  0  0  0
  144.2048  143.3078  153.8674 H   0  0  0  0  0  0  0  0  0  0  0  0
  145.7365  144.0502  153.3712 H   0  0  0  0  0  0  0  0  0  0  0  0
  146.2591  140.8531  155.1500 H   0  0  0  0  0  0  0  0  0  0  0  0
  145.6072  141.4800  153.6553 H   0  0  0  0  0  0  0  0  0  0  0  0
  147.9202  141.0476  153.1946 H   0  0  0  0  0  0  0  0  0  0  0  0
  147.7796  142.8051  153.3166 H   0  0  0  0  0  0  0  0  0  0  0  0
  151.2343  139.1192  152.6517 H   0  0  0  0  0  0  0  0  0  0  0  0
  153.1028  139.2123  154.3193 H   0  0  0  0  0  0  0  0  0  0  0  0
  152.8333  140.6205  156.3441 H   0  0  0  0  0  0  0  0  0  0  0  0
  149.6314  142.4229  157.0856 H   0  0  0  0  0  0  0  0  0  0  0  0
  152.5333  142.7186  157.3149 H   0  0  0  0  0  0  0  0  0  0  0  0
  150.9540  141.1004  159.3792 H   0  0  0  0  0  0  0  0  0  0  0  0
  152.2525  140.4815  158.3869 H   0  0  0  0  0  0  0  0  0  0  0  0
  153.0453  141.0718  160.6858 H   0  0  0  0  0  0  0  0  0  0  0  0
  153.8761  142.0314  159.4771 H   0  0  0  0  0  0  0  0  0  0  0  0
  151.9502  144.9973  160.2470 H   0  0  0  0  0  0  0  0  0  0  0  0
  153.2219  144.3734  159.2146 H   0  0  0  0  0  0  0  0  0  0  0  0
  151.1001  144.6050  157.9198 H   0  0  0  0  0  0  0  0  0  0  0  0
  150.2462  143.6334  159.0993 H   0  0  0  0  0  0  0  0  0  0  0  0
  1  2  1  0  0  0  0
  1 19  1  0  0  0  0
  1 20  1  0  0  0  0
  1 21  1  0  0  0  0
  2  3  1  0  0  0  0
  3  4  1  0  0  0  0
  3 22  1  0  0  0  0
  3 23  1  0  0  0  0
  4  5  1  0  0  0  0
  4 24  1  0  0  0  0
  4 25  1  0  0  0  0
  5  6  1  0  0  0  0
  6 11  1  0  0  0  0
  6  7  2  0  0  0  0
  7  8  1  0  0  0  0
  8  9  2  0  0  0  0
  8 26  1  0  0  0  0
  9 10  1  0  0  0  0
  9 27  1  0  0  0  0
 10 11  2  0  0  0  0
 10 28  1  0  0  0  0
 11 12  1  0  0  0  0
 12 13  1  0  0  0  0
 12 29  1  0  0  0  0
 13 18  1  0  0  0  0
 13 14  1  0  0  0  0
 13 30  1  0  0  0  0
 14 15  1  0  0  0  0
 14 31  1  0  0  0  0
 14 32  1  0  0  0  0
 15 16  1  0  0  0  0
 15 33  1  0  0  0  0
 15 34  1  0  0  0  0
 16 17  1  0  0  0  0
 17 18  1  0  0  0  0
 17 35  1  0  0  0  0
 17 36  1  0  0  0  0
 18 37  1  0  0  0  0
 18 38  1  0  0  0  0
M  END
> <s_m_source_file>
AV-unprocessed.smi

> <i_m_source_file_index>
3288

> <i_lp_mmshare_version>
43012

> <i_f3d_flags>
0

> <s_epik_input>
W0NIM11PW0NIMl1bQ0gyXU9jMW5bY0hdW2NIXVtjSF1jMVtOSF1bQ0hdMltDSDJdW0NIMl1PW0NIMl1bQ0gyXTI=

> <s_epik_cmdline>
J2VwaWtfcHl0aG9uJywgJy1waCcsICc3LjAnLCAnLXRuJywgJzgnLCAnLW1hJywgJzIwMCcsICctbWV0YWxfYmluZGluZycsICctaW1hZScsICc8aW5maWxlLm1hZT4nLCAnLW9tYWUnLCAnPG91dGZpbGUubWFlPic=

> <r_lp_tautomer_probability>
1

> <r_epik_Ionization_Penalty>
0.000236303

> <r_epik_Ionization_Penalty_Charging>
0

> <r_epik_Ionization_Penalty_Neutral>
0.000236303

> <r_epik_State_Penalty>
-0

> <r_epik_Charging_Adjusted_Penalty>
0

> <i_epik_Tot_Q>
0

> <i_epik_Tot_abs_Q>
0

> <r_epik_Metal_State_Penalty>
-0

> <b_epik_Metal_Only>
0

> <s_lp_Force_Field>
OPLS_2005

> <r_lp_Energy>
13.3054

> <b_lp_Chiralities_Consistent>
1

> <s_lp_Variant>
AV-unprocessed.smi:3288-1

> <Gold.Version>
5.8.1

> <Gold.Id.Protein>
6NUR|6NUR_protein|mol2

> <Gold.PLP.Fitness>
40.3648

> <Gold.PLP.PLP>
-41.4139

> <Gold.PLP.part.hbond>
-0.5946

> <Gold.PLP.part.metal>
0.0000

> <Gold.PLP.part.buried>
-7.1957

> <Gold.PLP.part.nonpolar>
-34.1303

> <Gold.PLP.part.repulsive>
1.6207

> <Gold.PLP.ligand.clash>
0.0000

> <Gold.PLP.ligand.torsion>
0.9003

> <Gold.PLP.Chemscore.Hbond>
0.0000

> <Gold.PLP.Chemscore.CHOScore>
0.2351

> <Gold.PLP.Chemscore.Metal>
0.0000

> <Gold.Chemscore.Hbonds>
donor molecule, donor type, donor heavy atom, donor atom, acceptor molecule, acceptor atom, score
      L1  C     8    26       P1  7957  0.28

> <Gold.PLP.Chemscore.Internal.Correction>
0.0461

> <Gold.Rescore>
     Score         DG    S(hbond)    S(metal)    S(lipo)     H(rot)  DE(clash)    DE(int)     intcor
     12.79     -13.30       0.00        0.00     103.65       1.68       0.04       0.47       ----

> <Gold.Chemscore.Fitness>
12.7872

> <Gold.Chemscore.DG>
-13.2998

> <Gold.Chemscore.ZeroCoef>
-5.4800

> <Gold.Chemscore.Hbond>
0.0000

> <Gold.Chemscore.Metal>
0.0000

> <Gold.Chemscore.Lipo>
103.6511

> <Gold.Chemscore.Internal_Hbond>
0.0000

> <Gold.Chemscore.DEClash>
0.0377

> <Gold.Chemscore.DEInternal>
0.4749

> <Gold.Chemscore.Rot>
1.6826

> <Gold.Chemscore.Internal.Correction>
   9.000000E+99

> <Gold.Chemscore.Hbond.Weighted>
-0.0000

> <Gold.Chemscore.Metal.Weighted>
-0.0000

> <Gold.Chemscore.Lipo.Weighted>
-12.1272

> <Gold.Chemscore.Internal_Hbond.Weighted>
0.0000

> <Gold.Chemscore.DEClash.Weighted>
0.0377

> <Gold.Chemscore.DEInternal.Weighted>
0.4749

> <Gold.Chemscore.Rot.Weighted>
4.3074

> <Gold.Chemscore.Internal.Correction.Weighted>
   9.000000E+99

> <Gold.Protein.RotatedTorsions>
[ 6907 6896 6895 6894 ] final   75.64 input  -60.11 | X-H torsion
[ 7974 7965 7964 7962 ] final   82.30 input  175.53 | X-H torsion
[ 8008 7997 7996 7995 ] final   62.75 input   59.86 | X-H torsion
[ 10167 10162 10161 10158 ] final -160.12 input  -65.29 | X-H torsion
[ 10718 10713 10712 10709 ] final   75.84 input   66.30 | X-H torsion
[ 10763 10752 10751 10750 ] final  -49.40 input  -60.55 | X-H torsion
[ 11005 11000 10999 10996 ] final -133.29 input  -57.11 | X-H torsion

> <Gold.Protein.ActiveResidues>
 VAL166  LYS551  ARG553  GLY616  TRP617  ASP618  TYR619  PRO620  LYS621  CYS622 
 ASP623  PHE694  ASN695  SER759  ASP760  ASP761  ALA762  ILE779  LEU786  VAL792 
 PHE793  MET794  SER795  GLU796  ALA797  LYS798  CYS799  TRP800  GLU811  SER814 

> <Gold.Protein.RotatedAtoms>
  152.5036  134.4089  159.9441 H   0  0  0  0  0  0  0  0  0  0  0  0  # atno 6907 bound_to 6896
  151.4056  133.3737  159.2745 H   0  0  0  0  0  0  0  0  0  0  0  0  # atno 6908 bound_to 6896
  150.9329  134.8765  159.7622 H   0  0  0  0  0  0  0  0  0  0  0  0  # atno 6909 bound_to 6896
  145.6269  139.2397  143.2107 H   0  0  0  0  0  0  0  0  0  0  0  0  # atno 7974 bound_to 7965
  155.6193  140.3495  155.4647 H   0  0  0  0  0  0  0  0  0  0  0  0  # atno 8008 bound_to 7997
  156.0092  140.1229  157.0495 H   0  0  0  0  0  0  0  0  0  0  0  0  # atno 8009 bound_to 7997
  154.4275  140.1085  156.5792 H   0  0  0  0  0  0  0  0  0  0  0  0  # atno 8010 bound_to 7997
  139.6563  143.9993  152.2196 H   0  0  0  0  0  0  0  0  0  0  0  0  # atno 10167 bound_to 10162
  157.6650  130.9746  150.1411 H   0  0  0  0  0  0  0  0  0  0  0  0  # atno 10718 bound_to 10713
  154.0934  135.6574  153.4856 H   0  0  0  0  0  0  0  0  0  0  0  0  # atno 10763 bound_to 10752
  153.0313  135.5208  154.7357 H   0  0  0  0  0  0  0  0  0  0  0  0  # atno 10764 bound_to 10752
  154.6488  135.2998  154.9981 H   0  0  0  0  0  0  0  0  0  0  0  0  # atno 10765 bound_to 10752
  140.9094  134.1588  157.4401 H   0  0  0  0  0  0  0  0  0  0  0  0  # atno 11005 bound_to 11000
  146.1387  140.7087  142.9377 LP  0  0  0  0  0  0  0  0  0  0  0  0  # atno 17320 bound_to 7965
  144.7209  140.4369  143.7009 LP  0  0  0  0  0  0  0  0  0  0  0  0  # atno 17321 bound_to 7965
  139.9720  144.6487  150.7980 LP  0  0  0  0  0  0  0  0  0  0  0  0  # atno 17342 bound_to 10162
  140.7560  143.3058  151.2966 LP  0  0  0  0  0  0  0  0  0  0  0  0  # atno 17343 bound_to 10162
  156.2234  130.3676  149.8529 LP  0  0  0  0  0  0  0  0  0  0  0  0  # atno 17370 bound_to 10713
  156.6376  130.8691  151.3508 LP  0  0  0  0  0  0  0  0  0  0  0  0  # atno 17371 bound_to 10713
  139.8755  134.9929  156.5621 LP  0  0  0  0  0  0  0  0  0  0  0  0  # atno 17394 bound_to 11000
  140.8130  133.8414  155.8826 LP  0  0  0  0  0  0  0  0  0  0  0  0  # atno 17395 bound_to 11000

$$$$
