AV-unprocessed.smi:1550|AV-procd|sdf|6230|dock9
  -GOLD-   22720 6413D 1   1.00000     0.00000
 Structure written by MMmdl.
 42 43  0  0  0  0  0  0  0  0  2 V2000
  153.0936  138.3648  157.5523 C   0  0  0  0  0  0  0  0  0  0  0  0
  152.4770  138.6305  158.9336 C   0  0  2  0  0  0  0  0  0  0  0  0
  152.8743  139.9376  159.3369 O   0  0  0  0  0  0  0  0  0  0  0  0
  152.3519  141.0036  158.5506 C   0  0  0  0  0  0  0  0  0  0  0  0
  152.6062  142.3414  159.2587 C   0  0  1  0  0  0  0  0  0  0  0  0
  152.2518  143.5635  158.3878 C   0  0  0  0  0  0  0  0  0  0  0  0
  152.4808  144.8613  159.1703 C   0  0  0  0  0  0  0  0  0  0  0  0
  151.7366  144.7942  160.5087 C   0  0  0  0  0  0  0  0  0  0  0  0
  152.1208  143.5168  161.2734 C   0  0  0  0  0  0  0  0  0  0  0  0
  151.8596  142.3672  160.4735 O   0  0  0  0  0  0  0  0  0  0  0  0
  152.9428  137.5922  159.9675 C   0  0  0  0  0  0  0  0  0  0  0  0
  152.8537  136.3942  159.7004 O   0  0  0  0  0  0  0  0  0  0  0  0
  153.4326  138.1051  161.1134 N   0  0  0  0  0  0  0  0  0  0  0  0
  153.9601  137.4605  162.2464 C   0  0  0  0  0  0  0  0  0  0  0  0
  153.8524  136.1295  162.5170 C   0  0  0  0  0  0  0  0  0  0  0  0
  154.4265  135.5273  163.7141 C   0  0  0  0  0  0  0  0  0  0  0  0
  154.3900  134.0381  164.0093 C   0  0  0  0  0  0  0  0  0  0  0  0
  153.6786  133.7837  165.1078 F   0  0  0  0  0  0  0  0  0  0  0  0
  153.8287  133.3876  162.9911 F   0  0  0  0  0  0  0  0  0  0  0  0
  155.6201  133.5547  164.1838 F   0  0  0  0  0  0  0  0  0  0  0  0
  155.0965  136.4488  164.4952 C   0  0  0  0  0  0  0  0  0  0  0  0
  155.2418  137.7784  164.3059 N   0  5  0  0  0  0  0  0  0  0  0  0
  154.6926  138.3327  163.1886 C   0  0  0  0  0  0  0  0  0  0  0  0
  154.7946  139.5372  162.9519 O   0  0  0  0  0  0  0  0  0  0  0  0
  152.8445  137.3657  157.1929 H   0  0  0  0  0  0  0  0  0  0  0  0
  154.1806  138.4533  157.5726 H   0  0  0  0  0  0  0  0  0  0  0  0
  152.7202  139.0806  156.8197 H   0  0  0  0  0  0  0  0  0  0  0  0
  151.3903  138.5956  158.8328 H   0  0  0  0  0  0  0  0  0  0  0  0
  152.8212  141.0075  157.5658 H   0  0  0  0  0  0  0  0  0  0  0  0
  151.2793  140.8821  158.3973 H   0  0  0  0  0  0  0  0  0  0  0  0
  153.6668  142.3837  159.5128 H   0  0  0  0  0  0  0  0  0  0  0  0
  152.8490  143.5647  157.4753 H   0  0  0  0  0  0  0  0  0  0  0  0
  151.2076  143.5111  158.0769 H   0  0  0  0  0  0  0  0  0  0  0  0
  153.5478  144.9995  159.3493 H   0  0  0  0  0  0  0  0  0  0  0  0
  152.1451  145.7210  158.5897 H   0  0  0  0  0  0  0  0  0  0  0  0
  151.9614  145.6758  161.1098 H   0  0  0  0  0  0  0  0  0  0  0  0
  150.6605  144.8022  160.3310 H   0  0  0  0  0  0  0  0  0  0  0  0
  153.1728  143.5388  161.5618 H   0  0  0  0  0  0  0  0  0  0  0  0
  151.5412  143.4434  162.1936 H   0  0  0  0  0  0  0  0  0  0  0  0
  153.4147  139.1120  161.1879 H   0  0  0  0  0  0  0  0  0  0  0  0
  153.3372  135.4628  161.8469 H   0  0  0  0  0  0  0  0  0  0  0  0
  155.5938  136.0577  165.4086 H   0  0  0  0  0  0  0  0  0  0  0  0
  1  2  1  0  0  0  0
  1 25  1  0  0  0  0
  1 26  1  0  0  0  0
  1 27  1  0  0  0  0
  2  3  1  0  0  0  0
  2 11  1  0  0  0  0
  2 28  1  0  0  0  0
  3  4  1  0  0  0  0
  4  5  1  0  0  0  0
  4 29  1  0  0  0  0
  4 30  1  0  0  0  0
  5 10  1  0  0  0  0
  5  6  1  0  0  0  0
  5 31  1  0  0  0  0
  6  7  1  0  0  0  0
  6 32  1  0  0  0  0
  6 33  1  0  0  0  0
  7  8  1  0  0  0  0
  7 34  1  0  0  0  0
  7 35  1  0  0  0  0
  8  9  1  0  0  0  0
  8 36  1  0  0  0  0
  8 37  1  0  0  0  0
  9 10  1  0  0  0  0
  9 38  1  0  0  0  0
  9 39  1  0  0  0  0
 11 12  2  0  0  0  0
 11 13  1  0  0  0  0
 13 14  1  0  0  0  0
 13 40  1  0  0  0  0
 14 23  1  0  0  0  0
 14 15  2  0  0  0  0
 15 16  1  0  0  0  0
 15 41  1  0  0  0  0
 16 17  1  0  0  0  0
 16 21  2  0  0  0  0
 17 18  1  0  0  0  0
 17 19  1  0  0  0  0
 17 20  1  0  0  0  0
 21 22  1  0  0  0  0
 21 42  1  0  0  0  0
 22 23  1  0  0  0  0
 23 24  2  0  0  0  0
M  CHG  1  22  -1
M  END
> <s_m_source_file>
AV-unprocessed.smi

> <i_m_source_file_index>
1550

> <i_lp_mmshare_version>
43012

> <i_f3d_flags>
0

> <s_epik_input>
TzFbQ0gyXVtDSDJdW0NIMl1bQ0gyXVtDQEhdMVtDSDJdT1tDQEBIXShbQ0gzXSlDKD1PKVtOSF1jMltjSF1jKEMoRikoRilGKVtjSF1bbkhdYzI9Tw==

> <s_epik_cmdline>
J2VwaWtfcHl0aG9uJywgJy1waCcsICc3LjAnLCAnLXRuJywgJzgnLCAnLW1hJywgJzIwMCcsICctbWV0YWxfYmluZGluZycsICctaW1hZScsICc8aW5maWxlLm1hZT4nLCAnLW9tYWUnLCAnPG91dGZpbGUubWFlPic=

> <r_epik_Ionization_Penalty>
2.54933

> <r_epik_Ionization_Penalty_Charging>
0.0583423

> <r_epik_Ionization_Penalty_Neutral>
2.49099

> <r_epik_State_Penalty>
2.65532

> <r_epik_Charging_Adjusted_Penalty>
2.71366

> <i_epik_Tot_Q>
-1

> <i_epik_Tot_abs_Q>
1

> <r_epik_Metal_State_Penalty>
0.516364

> <b_epik_Metal_Only>
0

> <s_lp_Force_Field>
OPLS_2005

> <r_lp_Energy>
26.7738

> <b_lp_Chiralities_Consistent>
1

> <s_lp_Variant>
AV-unprocessed.smi:1550-7

> <Gold.Version>
5.8.1

> <Gold.Id.Protein>
6NUR|6NUR_protein|mol2

> <Gold.PLP.Fitness>
46.2173

> <Gold.PLP.PLP>
-43.8943

> <Gold.PLP.part.hbond>
-1.3627

> <Gold.PLP.part.metal>
0.0000

> <Gold.PLP.part.buried>
-5.5371

> <Gold.PLP.part.nonpolar>
-36.0499

> <Gold.PLP.part.repulsive>
0.0986

> <Gold.PLP.ligand.clash>
0.0000

> <Gold.PLP.ligand.torsion>
0.4132

> <Gold.PLP.Chemscore.Hbond>
1.0000

> <Gold.PLP.Chemscore.CHOScore>
0.0000

> <Gold.PLP.Chemscore.Metal>
0.0000

> <Gold.Chemscore.Hbonds>
donor molecule, donor type, donor heavy atom, donor atom, acceptor molecule, acceptor atom, score
      P1  H  6896  6909       L1    12  1.00

> <Gold.PLP.Chemscore.Internal.Correction>
0.1494

> <Gold.Rescore>
     Score         DG    S(hbond)    S(metal)    S(lipo)     H(rot)  DE(clash)    DE(int)     intcor
     16.09     -17.60       0.98        0.00     115.49       1.82       0.04       1.47       ----

> <Gold.Chemscore.Fitness>
16.0855

> <Gold.Chemscore.DG>
-17.5980

> <Gold.Chemscore.ZeroCoef>
-5.4800

> <Gold.Chemscore.Hbond>
0.9804

> <Gold.Chemscore.Metal>
0.0000

> <Gold.Chemscore.Lipo>
115.4859

> <Gold.Chemscore.Internal_Hbond>
0.0000

> <Gold.Chemscore.DEClash>
0.0407

> <Gold.Chemscore.DEInternal>
1.4718

> <Gold.Chemscore.Rot>
1.8236

> <Gold.Chemscore.Internal.Correction>
   9.000000E+99

> <Gold.Chemscore.Hbonds>
donor molecule, donor type, donor heavy atom, donor atom, acceptor molecule, acceptor atom, score
      P1  H  6896  6909       L1    12  0.98

> <Gold.Chemscore.Hbond.Weighted>
-3.2746

> <Gold.Chemscore.Metal.Weighted>
-0.0000

> <Gold.Chemscore.Lipo.Weighted>
-13.5118

> <Gold.Chemscore.Internal_Hbond.Weighted>
0.0000

> <Gold.Chemscore.DEClash.Weighted>
0.0407

> <Gold.Chemscore.DEInternal.Weighted>
1.4718

> <Gold.Chemscore.Rot.Weighted>
4.6684

> <Gold.Chemscore.Internal.Correction.Weighted>
   9.000000E+99

> <Gold.Protein.RotatedTorsions>
[ 6907 6896 6895 6894 ] final  138.80 input  -60.11 | X-H torsion
[ 7974 7965 7964 7962 ] final   15.28 input  175.53 | X-H torsion
[ 8008 7997 7996 7995 ] final  -36.34 input   59.86 | X-H torsion
[ 10167 10162 10161 10158 ] final    7.97 input  -65.29 | X-H torsion
[ 10718 10713 10712 10709 ] final  110.79 input   66.30 | X-H torsion
[ 10763 10752 10751 10750 ] final  110.95 input  -60.55 | X-H torsion
[ 11005 11000 10999 10996 ] final  -87.62 input  -57.11 | X-H torsion

> <Gold.Protein.ActiveResidues>
 VAL166  LYS551  ARG553  GLY616  TRP617  ASP618  TYR619  PRO620  LYS621  CYS622 
 ASP623  PHE694  ASN695  SER759  ASP760  ASP761  ALA762  ILE779  LEU786  VAL792 
 PHE793  MET794  SER795  GLU796  ALA797  LYS798  CYS799  TRP800  GLU811  SER814 

> <Gold.Protein.RotatedAtoms>
  152.2624  133.5309  159.5389 H   0  0  0  0  0  0  0  0  0  0  0  0  # atno 6907 bound_to 6896
  150.7130  134.0811  159.3907 H   0  0  0  0  0  0  0  0  0  0  0  0  # atno 6908 bound_to 6896
  151.8728  135.0483  160.0532 H   0  0  0  0  0  0  0  0  0  0  0  0  # atno 6909 bound_to 6896
  146.2283  139.8918  142.8553 H   0  0  0  0  0  0  0  0  0  0  0  0  # atno 7974 bound_to 7965
  154.4075  140.1633  156.2358 H   0  0  0  0  0  0  0  0  0  0  0  0  # atno 8008 bound_to 7997
  155.9244  140.3419  155.6176 H   0  0  0  0  0  0  0  0  0  0  0  0  # atno 8009 bound_to 7997
  155.7183  140.0765  157.2332 H   0  0  0  0  0  0  0  0  0  0  0  0  # atno 8010 bound_to 7997
  140.6341  143.7926  150.7335 H   0  0  0  0  0  0  0  0  0  0  0  0  # atno 10167 bound_to 10162
  157.6477  131.0939  150.6653 H   0  0  0  0  0  0  0  0  0  0  0  0  # atno 10718 bound_to 10713
  153.4563  135.3732  155.2312 H   0  0  0  0  0  0  0  0  0  0  0  0  # atno 10763 bound_to 10752
  154.8757  135.3898  154.3979 H   0  0  0  0  0  0  0  0  0  0  0  0  # atno 10764 bound_to 10752
  153.4545  135.7086  153.6152 H   0  0  0  0  0  0  0  0  0  0  0  0  # atno 10765 bound_to 10752
  141.1614  133.7522  156.9334 H   0  0  0  0  0  0  0  0  0  0  0  0  # atno 11005 bound_to 11000
  145.2410  141.0009  143.3936 LP  0  0  0  0  0  0  0  0  0  0  0  0  # atno 17320 bound_to 7965
  144.9452  139.4144  143.6429 LP  0  0  0  0  0  0  0  0  0  0  0  0  # atno 17321 bound_to 7965
  140.1544  143.4330  152.2110 LP  0  0  0  0  0  0  0  0  0  0  0  0  # atno 17342 bound_to 10162
  139.5553  144.7368  151.4313 LP  0  0  0  0  0  0  0  0  0  0  0  0  # atno 17343 bound_to 10162
  156.6968  130.4611  149.5584 LP  0  0  0  0  0  0  0  0  0  0  0  0  # atno 17370 bound_to 10713
  156.1823  130.6507  151.0965 LP  0  0  0  0  0  0  0  0  0  0  0  0  # atno 17371 bound_to 10713
  140.1371  134.9318  157.2416 LP  0  0  0  0  0  0  0  0  0  0  0  0  # atno 17394 bound_to 11000
  140.2882  134.3271  155.7323 LP  0  0  0  0  0  0  0  0  0  0  0  0  # atno 17395 bound_to 11000

$$$$
