AV-unprocessed.smi:562|AV-procd|sdf|2944|dock2
  -GOLD-   2262023443D 1   1.00000     0.00000
 Structure written by MMmdl.
 41 43  0  0  0  0  0  0  0  0  1 V2000
  151.0106  137.8112  159.1353 C   0  0  0  0  0  0  0  0  0  0  0  0
  152.0756  136.8921  158.9759 O   0  0  0  0  0  0  0  0  0  0  0  0
  152.5447  136.8231  157.6399 C   0  0  0  0  0  0  0  0  0  0  0  0
  153.0575  138.2025  157.2043 C   0  0  0  0  0  0  0  0  0  0  0  0
  151.9651  139.1164  156.8812 N   0  0  0  0  0  0  0  0  0  0  0  0
  151.6637  140.3104  157.4560 C   0  0  0  0  0  0  0  0  0  0  0  0
  152.4382  140.8429  158.5083 N   0  0  0  0  0  0  0  0  0  0  0  0
  153.1834  140.0265  159.2848 N   0  0  0  0  0  0  0  0  0  0  0  0
  153.7615  140.8284  160.1637 C   0  0  0  0  0  0  0  0  0  0  0  0
  154.6869  140.2497  161.1926 C   0  0  0  0  0  0  0  0  0  0  0  0
  153.3855  142.1886  159.9810 C   0  0  0  0  0  0  0  0  0  0  0  0
  152.5283  142.1612  158.9174 C   0  0  0  0  0  0  0  0  0  0  0  0
  151.7843  143.2723  158.2507 C   0  0  0  0  0  0  0  0  0  0  0  0
  150.6108  140.9406  156.9277 N   0  0  0  0  0  0  0  0  0  0  0  0
  150.2011  140.0691  155.9290 C   0  0  0  0  0  0  0  0  0  0  0  0
  151.0036  138.9747  155.8812 C   0  0  0  0  0  0  0  0  0  0  0  0
  150.8147  137.8991  154.9000 C   0  0  0  0  0  0  0  0  0  0  0  0
  151.5378  136.9074  154.8343 O   0  0  0  0  0  0  0  0  0  0  0  0
  149.7653  138.1162  154.0704 N   0  0  0  0  0  0  0  0  0  0  0  0
  148.9176  139.1901  154.0652 C   0  0  0  0  0  0  0  0  0  0  0  0
  148.0049  139.2491  153.2416 O   0  0  0  0  0  0  0  0  0  0  0  0
  149.1296  140.1745  154.9966 N   0  0  0  0  0  0  0  0  0  0  0  0
  148.2554  141.3483  155.0324 C   0  0  0  0  0  0  0  0  0  0  0  0
  149.5906  137.4056  153.3746 H   0  0  0  0  0  0  0  0  0  0  0  0
  150.6919  137.8230  160.1774 H   0  0  0  0  0  0  0  0  0  0  0  0
  150.1528  137.5284  158.5240 H   0  0  0  0  0  0  0  0  0  0  0  0
  151.3179  138.8221  158.8648 H   0  0  0  0  0  0  0  0  0  0  0  0
  153.3444  136.0851  157.5614 H   0  0  0  0  0  0  0  0  0  0  0  0
  151.7386  136.5018  156.9787 H   0  0  0  0  0  0  0  0  0  0  0  0
  153.6722  138.6450  157.9872 H   0  0  0  0  0  0  0  0  0  0  0  0
  153.7165  138.0950  156.3446 H   0  0  0  0  0  0  0  0  0  0  0  0
  155.0885  141.0269  161.8431 H   0  0  0  0  0  0  0  0  0  0  0  0
  155.5298  139.7434  160.7218 H   0  0  0  0  0  0  0  0  0  0  0  0
  154.1698  139.5248  161.8219 H   0  0  0  0  0  0  0  0  0  0  0  0
  153.6944  143.0535  160.5490 H   0  0  0  0  0  0  0  0  0  0  0  0
  152.2057  144.2403  158.5223 H   0  0  0  0  0  0  0  0  0  0  0  0
  150.7356  143.2652  158.5479 H   0  0  0  0  0  0  0  0  0  0  0  0
  151.8276  143.1823  157.1652 H   0  0  0  0  0  0  0  0  0  0  0  0
  147.2138  141.0492  155.1575 H   0  0  0  0  0  0  0  0  0  0  0  0
  148.3383  141.9128  154.1027 H   0  0  0  0  0  0  0  0  0  0  0  0
  148.4969  142.0272  155.8501 H   0  0  0  0  0  0  0  0  0  0  0  0
  1  2  1  0  0  0  0
  1 25  1  0  0  0  0
  1 26  1  0  0  0  0
  1 27  1  0  0  0  0
  2  3  1  0  0  0  0
  3  4  1  0  0  0  0
  3 28  1  0  0  0  0
  3 29  1  0  0  0  0
  4  5  1  0  0  0  0
  4 30  1  0  0  0  0
  4 31  1  0  0  0  0
  5 16  1  0  0  0  0
  5  6  1  0  0  0  0
  6  7  1  0  0  0  0
  6 14  2  0  0  0  0
  7 12  1  0  0  0  0
  7  8  1  0  0  0  0
  8  9  2  0  0  0  0
  9 10  1  0  0  0  0
  9 11  1  0  0  0  0
 10 32  1  0  0  0  0
 10 33  1  0  0  0  0
 10 34  1  0  0  0  0
 11 12  2  0  0  0  0
 11 35  1  0  0  0  0
 12 13  1  0  0  0  0
 13 36  1  0  0  0  0
 13 37  1  0  0  0  0
 13 38  1  0  0  0  0
 14 15  1  0  0  0  0
 15 22  1  0  0  0  0
 15 16  2  0  0  0  0
 16 17  1  0  0  0  0
 17 18  2  0  0  0  0
 17 19  1  0  0  0  0
 19 24  1  0  0  0  0
 19 20  1  0  0  0  0
 20 21  2  0  0  0  0
 20 22  1  0  0  0  0
 22 23  1  0  0  0  0
 23 39  1  0  0  0  0
 23 40  1  0  0  0  0
 23 41  1  0  0  0  0
M  END
> <s_m_source_file>
AV-unprocessed.smi

> <i_m_source_file_index>
562

> <i_lp_mmshare_version>
43012

> <i_f3d_flags>
0

> <s_epik_input>
W0NIM11uMWMoPU8pW25IXWMoPU8pYyhjMTIpbihbQ0gyXVtDSDJdT1tDSDNdKWMobjIpLW4zbmMoW0NIM10pW2NIXWMzW0NIM10=

> <s_epik_cmdline>
J2VwaWtfcHl0aG9uJywgJy1waCcsICc3LjAnLCAnLXRuJywgJzgnLCAnLW1hJywgJzIwMCcsICctbWV0YWxfYmluZGluZycsICctaW1hZScsICc8aW5maWxlLm1hZT4nLCAnLW9tYWUnLCAnPG91dGZpbGUubWFlPic=

> <r_lp_tautomer_probability>
1

> <r_epik_Ionization_Penalty>
0.00156925

> <r_epik_Ionization_Penalty_Charging>
0.000731299

> <r_epik_Ionization_Penalty_Neutral>
0.000837954

> <r_epik_State_Penalty>
-0

> <r_epik_Charging_Adjusted_Penalty>
0.000731299

> <i_epik_Tot_Q>
0

> <i_epik_Tot_abs_Q>
0

> <r_epik_Metal_State_Penalty>
0.260609

> <b_epik_Metal_Only>
0

> <s_lp_Force_Field>
OPLS_2005

> <r_lp_Energy>
24.6037

> <b_lp_Chiralities_Consistent>
1

> <s_lp_Variant>
AV-unprocessed.smi:562-1

> <Gold.Version>
5.8.1

> <Gold.Id.Protein>
6NUR|6NUR_protein|mol2

> <Gold.PLP.Fitness>
45.0758

> <Gold.PLP.PLP>
-36.4445

> <Gold.PLP.part.hbond>
-3.0000

> <Gold.PLP.part.metal>
0.0000

> <Gold.PLP.part.buried>
-6.4499

> <Gold.PLP.part.nonpolar>
-30.4617

> <Gold.PLP.part.repulsive>
2.7471

> <Gold.PLP.ligand.clash>
0.0000

> <Gold.PLP.ligand.torsion>
0.2742

> <Gold.PLP.Chemscore.Hbond>
2.9516

> <Gold.PLP.Chemscore.CHOScore>
0.0000

> <Gold.PLP.Chemscore.Metal>
0.0000

> <Gold.Chemscore.Hbonds>
donor molecule, donor type, donor heavy atom, donor atom, acceptor molecule, acceptor atom, score
      L1  H    19    24       P1  7948  1.00
      P1  H  6896  6908       L1     2  0.89
      P1  H 10752 10764       L1    18  1.00

> <Gold.PLP.Chemscore.Internal.Correction>
0.3249

> <Gold.Rescore>
     Score         DG    S(hbond)    S(metal)    S(lipo)     H(rot)  DE(clash)    DE(int)     intcor
     13.36     -18.89       2.65        0.00      72.58       1.53       0.02       5.51       ----

> <Gold.Chemscore.Fitness>
13.3586

> <Gold.Chemscore.DG>
-18.8853

> <Gold.Chemscore.ZeroCoef>
-5.4800

> <Gold.Chemscore.Hbond>
2.6476

> <Gold.Chemscore.Metal>
0.0000

> <Gold.Chemscore.Lipo>
72.5751

> <Gold.Chemscore.Internal_Hbond>
0.0000

> <Gold.Chemscore.DEClash>
0.0202

> <Gold.Chemscore.DEInternal>
5.5064

> <Gold.Chemscore.Rot>
1.5348

> <Gold.Chemscore.Internal.Correction>
   9.000000E+99

> <Gold.Chemscore.Hbonds>
donor molecule, donor type, donor heavy atom, donor atom, acceptor molecule, acceptor atom, score
      L1  H    19    24       P1  7948  0.80
      P1  H  6896  6908       L1     2  0.56
      P1  H 10752 10764       L1    18  0.99

> <Gold.Chemscore.Hbond.Weighted>
-8.8430

> <Gold.Chemscore.Metal.Weighted>
-0.0000

> <Gold.Chemscore.Lipo.Weighted>
-8.4913

> <Gold.Chemscore.Internal_Hbond.Weighted>
0.0000

> <Gold.Chemscore.DEClash.Weighted>
0.0202

> <Gold.Chemscore.DEInternal.Weighted>
5.5064

> <Gold.Chemscore.Rot.Weighted>
3.9290

> <Gold.Chemscore.Internal.Correction.Weighted>
   9.000000E+99

> <Gold.Protein.RotatedTorsions>
[ 6907 6896 6895 6894 ] final -118.43 input  -60.11 | X-H torsion
[ 7974 7965 7964 7962 ] final   22.90 input  175.53 | X-H torsion
[ 8008 7997 7996 7995 ] final  -89.73 input   59.86 | X-H torsion
[ 10167 10162 10161 10158 ] final   90.79 input  -65.29 | X-H torsion
[ 10718 10713 10712 10709 ] final  131.44 input   66.30 | X-H torsion
[ 10763 10752 10751 10750 ] final  -71.52 input  -60.55 | X-H torsion
[ 11005 11000 10999 10996 ] final  161.53 input  -57.11 | X-H torsion

> <Gold.Protein.ActiveResidues>
 VAL166  LYS551  ARG553  GLY616  TRP617  ASP618  TYR619  PRO620  LYS621  CYS622 
 ASP623  PHE694  ASN695  SER759  ASP760  ASP761  ALA762  ILE779  LEU786  VAL792 
 PHE793  MET794  SER795  GLU796  ALA797  LYS798  CYS799  TRP800  GLU811  SER814 

> <Gold.Protein.RotatedAtoms>
  150.8219  133.8238  159.3135 H   0  0  0  0  0  0  0  0  0  0  0  0  # atno 6907 bound_to 6896
  151.5994  135.1046  160.0066 H   0  0  0  0  0  0  0  0  0  0  0  0  # atno 6908 bound_to 6896
  152.4307  133.7232  159.6602 H   0  0  0  0  0  0  0  0  0  0  0  0  # atno 6909 bound_to 6896
  146.2008  139.7820  142.8763 H   0  0  0  0  0  0  0  0  0  0  0  0  # atno 7974 bound_to 7965
  154.6900  140.0538  157.0354 H   0  0  0  0  0  0  0  0  0  0  0  0  # atno 8008 bound_to 7997
  155.0830  140.3211  155.4577 H   0  0  0  0  0  0  0  0  0  0  0  0  # atno 8009 bound_to 7997
  156.2725  140.2061  156.5957 H   0  0  0  0  0  0  0  0  0  0  0  0  # atno 8010 bound_to 7997
  139.8439  144.6627  150.9251 H   0  0  0  0  0  0  0  0  0  0  0  0  # atno 10167 bound_to 10162
  157.4967  131.1092  150.9482 H   0  0  0  0  0  0  0  0  0  0  0  0  # atno 10718 bound_to 10713
  154.4329  135.5959  153.6080 H   0  0  0  0  0  0  0  0  0  0  0  0  # atno 10763 bound_to 10752
  152.9800  135.5979  154.3817 H   0  0  0  0  0  0  0  0  0  0  0  0  # atno 10764 bound_to 10752
  154.3657  135.2841  155.2273 H   0  0  0  0  0  0  0  0  0  0  0  0  # atno 10765 bound_to 10752
  140.2167  134.8227  157.3178 H   0  0  0  0  0  0  0  0  0  0  0  0  # atno 11005 bound_to 11000
  145.3489  141.0303  143.3350 LP  0  0  0  0  0  0  0  0  0  0  0  0  # atno 17320 bound_to 7965
  144.8680  139.5080  143.6781 LP  0  0  0  0  0  0  0  0  0  0  0  0  # atno 17321 bound_to 7965
  140.7795  143.3888  151.1346 LP  0  0  0  0  0  0  0  0  0  0  0  0  # atno 17342 bound_to 10162
  139.7532  143.8747  152.3082 LP  0  0  0  0  0  0  0  0  0  0  0  0  # atno 17343 bound_to 10162
  157.0166  130.5657  149.5326 LP  0  0  0  0  0  0  0  0  0  0  0  0  # atno 17370 bound_to 10713
  156.0205  130.5300  150.8261 LP  0  0  0  0  0  0  0  0  0  0  0  0  # atno 17371 bound_to 10713
  140.1893  134.4392  155.7725 LP  0  0  0  0  0  0  0  0  0  0  0  0  # atno 17394 bound_to 11000
  141.2224  133.7019  156.8000 LP  0  0  0  0  0  0  0  0  0  0  0  0  # atno 17395 bound_to 11000

$$$$
