AV-unprocessed.smi:2212|AV-procd|sdf|8951|dock9
  -GOLD-   2272012163D 1   1.00000     0.00000
 Structure written by MMmdl.
 31 32  0  0  0  0  0  0  0  0  1 V2000
  150.0459  139.1501  154.3958 C   0  0  0  0  0  0  0  0  0  0  0  0
  150.6165  140.4236  154.6675 O   0  0  0  0  0  0  0  0  0  0  0  0
  150.1215  141.0966  155.8258 C   0  0  0  0  0  0  0  0  0  0  0  0
  148.5984  141.2804  155.7740 C   0  0  0  0  0  0  0  0  0  0  0  0
  148.1722  142.3223  156.6986 N   0  0  0  0  0  0  0  0  0  0  0  0
  147.6334  142.0908  157.9023 C   0  0  0  0  0  0  0  0  0  0  0  0
  147.4339  140.9620  158.3524 O   0  0  0  0  0  0  0  0  0  0  0  0
  147.3463  143.2356  158.5404 N   0  0  0  0  0  0  0  0  0  0  0  0
  146.7719  143.3560  159.8269 C   0  0  0  0  0  0  0  0  0  0  0  0
  146.1567  142.3467  160.4370 N   0  0  0  0  0  0  0  0  0  0  0  0
  145.7480  142.8771  161.6529 C   0  0  0  0  0  0  0  0  0  0  0  0
  146.1453  144.1890  161.7052 C   0  0  0  0  0  0  0  0  0  0  0  0
  146.8007  144.5104  160.5470 O   0  0  0  0  0  0  0  0  0  0  0  0
  150.7179  140.4076  157.0678 C   0  0  0  0  0  0  0  0  0  0  0  0
  151.0488  141.7915  157.6297 C   0  0  0  0  0  0  0  0  0  0  0  0
  151.0033  142.3078  156.1907 C   0  0  0  0  0  0  0  0  0  0  0  0
  150.4205  138.7882  153.4385 H   0  0  0  0  0  0  0  0  0  0  0  0
  148.9588  139.1953  154.3295 H   0  0  0  0  0  0  0  0  0  0  0  0
  150.3217  138.4135  155.1501 H   0  0  0  0  0  0  0  0  0  0  0  0
  148.2860  141.5596  154.7666 H   0  0  0  0  0  0  0  0  0  0  0  0
  148.0790  140.3490  156.0017 H   0  0  0  0  0  0  0  0  0  0  0  0
  148.3073  143.2783  156.4031 H   0  0  0  0  0  0  0  0  0  0  0  0
  147.5581  144.1002  158.0650 H   0  0  0  0  0  0  0  0  0  0  0  0
  145.2111  142.2855  162.3797 H   0  0  0  0  0  0  0  0  0  0  0  0
  146.0475  144.9737  162.4408 H   0  0  0  0  0  0  0  0  0  0  0  0
  150.0059  139.8375  157.6654 H   0  0  0  0  0  0  0  0  0  0  0  0
  151.6126  139.8220  156.8484 H   0  0  0  0  0  0  0  0  0  0  0  0
  150.2515  142.1989  158.2533 H   0  0  0  0  0  0  0  0  0  0  0  0
  152.0232  141.8682  158.1128 H   0  0  0  0  0  0  0  0  0  0  0  0
  151.9847  142.2892  155.7133 H   0  0  0  0  0  0  0  0  0  0  0  0
  150.5196  143.2780  156.0737 H   0  0  0  0  0  0  0  0  0  0  0  0
  1  2  1  0  0  0  0
  1 17  1  0  0  0  0
  1 18  1  0  0  0  0
  1 19  1  0  0  0  0
  2  3  1  0  0  0  0
  3 16  1  0  0  0  0
  3  4  1  0  0  0  0
  3 14  1  0  0  0  0
  4  5  1  0  0  0  0
  4 20  1  0  0  0  0
  4 21  1  0  0  0  0
  5  6  1  0  0  0  0
  5 22  1  0  0  0  0
  6  7  2  0  0  0  0
  6  8  1  0  0  0  0
  8  9  1  0  0  0  0
  8 23  1  0  0  0  0
  9 13  1  0  0  0  0
  9 10  2  0  0  0  0
 10 11  1  0  0  0  0
 11 12  2  0  0  0  0
 11 24  1  0  0  0  0
 12 13  1  0  0  0  0
 12 25  1  0  0  0  0
 14 15  1  0  0  0  0
 14 26  1  0  0  0  0
 14 27  1  0  0  0  0
 15 16  1  0  0  0  0
 15 28  1  0  0  0  0
 15 29  1  0  0  0  0
 16 30  1  0  0  0  0
 16 31  1  0  0  0  0
M  END
> <s_m_source_file>
AV-unprocessed.smi

> <i_m_source_file_index>
2212

> <i_lp_mmshare_version>
43012

> <i_f3d_flags>
0

> <s_epik_input>
W0NIMl0xW0NIMl1bQ0gyXUMxKE9bQ0gzXSlbQ0gyXVtOSF1DKD1PKVtOSF1jMm5bY0hdW2NIXW8y

> <s_epik_cmdline>
J2VwaWtfcHl0aG9uJywgJy1waCcsICc3LjAnLCAnLXRuJywgJzgnLCAnLW1hJywgJzIwMCcsICctbWV0YWxfYmluZGluZycsICctaW1hZScsICc8aW5maWxlLm1hZT4nLCAnLW9tYWUnLCAnPG91dGZpbGUubWFlPic=

> <r_lp_tautomer_probability>
0.785861

> <r_epik_Ionization_Penalty>
4.58897e-05

> <r_epik_Ionization_Penalty_Charging>
0

> <r_epik_Ionization_Penalty_Neutral>
4.58897e-05

> <r_epik_State_Penalty>
0.0380021

> <r_epik_Charging_Adjusted_Penalty>
0.0380021

> <i_epik_Tot_Q>
0

> <i_epik_Tot_abs_Q>
0

> <r_epik_Metal_State_Penalty>
0.0585611

> <b_epik_Metal_Only>
0

> <s_lp_Force_Field>
OPLS_2005

> <r_lp_Energy>
14.4029

> <b_lp_Chiralities_Consistent>
1

> <s_lp_Variant>
AV-unprocessed.smi:2212-1

> <Gold.Version>
5.8.1

> <Gold.Id.Protein>
6NUR|6NUR_protein|mol2

> <Gold.PLP.Fitness>
38.0075

> <Gold.PLP.PLP>
-26.9537

> <Gold.PLP.part.hbond>
-5.0000

> <Gold.PLP.part.metal>
0.0000

> <Gold.PLP.part.buried>
-6.1339

> <Gold.PLP.part.nonpolar>
-17.0002

> <Gold.PLP.part.repulsive>
0.2909

> <Gold.PLP.ligand.clash>
0.0000

> <Gold.PLP.ligand.torsion>
0.6054

> <Gold.PLP.Chemscore.Hbond>
4.0000

> <Gold.PLP.Chemscore.CHOScore>
0.0000

> <Gold.PLP.Chemscore.Metal>
0.0000

> <Gold.Chemscore.Hbonds>
donor molecule, donor type, donor heavy atom, donor atom, acceptor molecule, acceptor atom, score
      L1  H     5    22       P1  8028  1.00
      L1  H     8    23       P1  8029  1.00
      P1  H  6934  6946       L1    10  1.00
      P1  H  7989  7998       L1     2  1.00

> <Gold.PLP.Chemscore.Internal.Correction>
0.2646

> <Gold.Rescore>
     Score         DG    S(hbond)    S(metal)    S(lipo)     H(rot)  DE(clash)    DE(int)     intcor
     13.74     -16.60       2.90        0.00      48.11       1.64       0.13       2.73       ----

> <Gold.Chemscore.Fitness>
13.7430

> <Gold.Chemscore.DG>
-16.6037

> <Gold.Chemscore.ZeroCoef>
-5.4800

> <Gold.Chemscore.Hbond>
2.9028

> <Gold.Chemscore.Metal>
0.0000

> <Gold.Chemscore.Lipo>
48.1147

> <Gold.Chemscore.Internal_Hbond>
0.0000

> <Gold.Chemscore.DEClash>
0.1334

> <Gold.Chemscore.DEInternal>
2.7273

> <Gold.Chemscore.Rot>
1.6411

> <Gold.Chemscore.Internal.Correction>
   9.000000E+99

> <Gold.Chemscore.Hbonds>
donor molecule, donor type, donor heavy atom, donor atom, acceptor molecule, acceptor atom, score
      L1  H     5    22       P1  8028  0.50
      L1  H     8    23       P1  8029  0.24
      P1  H  6934  6946       L1    10  0.65
      P1  H  7989  7998       L1     2  0.80

> <Gold.Chemscore.Hbond.Weighted>
-9.6954

> <Gold.Chemscore.Metal.Weighted>
-0.0000

> <Gold.Chemscore.Lipo.Weighted>
-5.6294

> <Gold.Chemscore.Internal_Hbond.Weighted>
0.0000

> <Gold.Chemscore.DEClash.Weighted>
0.1334

> <Gold.Chemscore.DEInternal.Weighted>
2.7273

> <Gold.Chemscore.Rot.Weighted>
4.2011

> <Gold.Chemscore.Internal.Correction.Weighted>
   9.000000E+99

> <Gold.Protein.RotatedTorsions>
[ 6907 6896 6895 6894 ] final  147.10 input  -60.11 | X-H torsion
[ 7974 7965 7964 7962 ] final  -76.83 input  175.53 | X-H torsion
[ 8008 7997 7996 7995 ] final   26.81 input   59.86 | X-H torsion
[ 10167 10162 10161 10158 ] final -170.31 input  -65.29 | X-H torsion
[ 10718 10713 10712 10709 ] final  135.70 input   66.30 | X-H torsion
[ 10763 10752 10751 10750 ] final  -69.70 input  -60.55 | X-H torsion
[ 11005 11000 10999 10996 ] final  -87.23 input  -57.11 | X-H torsion

> <Gold.Protein.ActiveResidues>
 VAL166  LYS551  ARG553  GLY616  TRP617  ASP618  TYR619  PRO620  LYS621  CYS622 
 ASP623  PHE694  ASN695  SER759  ASP760  ASP761  ALA762  ILE779  LEU786  VAL792 
 PHE793  MET794  SER795  GLU796  ALA797  LYS798  CYS799  TRP800  GLU811  SER814 

> <Gold.Protein.RotatedAtoms>
  152.1592  133.4571  159.4852 H   0  0  0  0  0  0  0  0  0  0  0  0  # atno 6907 bound_to 6896
  150.6905  134.2092  159.4362 H   0  0  0  0  0  0  0  0  0  0  0  0  # atno 6908 bound_to 6896
  151.9994  134.9936  160.0615 H   0  0  0  0  0  0  0  0  0  0  0  0  # atno 6909 bound_to 6896
  145.6077  140.9394  143.1206 H   0  0  0  0  0  0  0  0  0  0  0  0  # atno 7974 bound_to 7965
  155.0331  140.3161  155.4751 H   0  0  0  0  0  0  0  0  0  0  0  0  # atno 8008 bound_to 7997
  156.2870  140.2176  156.5396 H   0  0  0  0  0  0  0  0  0  0  0  0  # atno 8009 bound_to 7997
  154.7353  140.0478  157.0751 H   0  0  0  0  0  0  0  0  0  0  0  0  # atno 8010 bound_to 7997
  139.5869  144.1298  152.1587 H   0  0  0  0  0  0  0  0  0  0  0  0  # atno 10167 bound_to 10162
  157.4544  131.1068  150.9995 H   0  0  0  0  0  0  0  0  0  0  0  0  # atno 10718 bound_to 10713
  154.4071  135.6017  153.5931 H   0  0  0  0  0  0  0  0  0  0  0  0  # atno 10763 bound_to 10752
  152.9789  135.5920  154.4114 H   0  0  0  0  0  0  0  0  0  0  0  0  # atno 10764 bound_to 10752
  154.3921  135.2842  155.2126 H   0  0  0  0  0  0  0  0  0  0  0  0  # atno 10765 bound_to 10752
  141.1620  133.7499  156.9276 H   0  0  0  0  0  0  0  0  0  0  0  0  # atno 11005 bound_to 11000
  144.7283  139.7805  143.7356 LP  0  0  0  0  0  0  0  0  0  0  0  0  # atno 17320 bound_to 7965
  146.1528  139.4617  143.0037 LP  0  0  0  0  0  0  0  0  0  0  0  0  # atno 17321 bound_to 7965
  140.0863  144.5658  150.7086 LP  0  0  0  0  0  0  0  0  0  0  0  0  # atno 17342 bound_to 10162
  140.7140  143.2528  151.4494 LP  0  0  0  0  0  0  0  0  0  0  0  0  # atno 17343 bound_to 10162
  157.0814  130.5904  149.5421 LP  0  0  0  0  0  0  0  0  0  0  0  0  # atno 17370 bound_to 10713
  156.0001  130.5078  150.7629 LP  0  0  0  0  0  0  0  0  0  0  0  0  # atno 17371 bound_to 10713
  140.1408  134.9294  157.2464 LP  0  0  0  0  0  0  0  0  0  0  0  0  # atno 17394 bound_to 11000
  140.2839  134.3319  155.7335 LP  0  0  0  0  0  0  0  0  0  0  0  0  # atno 17395 bound_to 11000

$$$$
