AV-unprocessed.smi:1551|AV-procd|sdf|6232|dock3
  -GOLD-   22720 6413D 1   1.00000     0.00000
 Structure written by MMmdl.
 38 39  0  0  0  0  0  0  0  0  1 V2000
  151.4992  137.2236  154.9152 C   0  0  0  0  0  0  0  0  0  0  0  0
  150.5816  136.1907  154.5719 O   0  0  0  0  0  0  0  0  0  0  0  0
  150.8383  134.9064  155.0131 C   0  0  0  0  0  0  0  0  0  0  0  0
  151.8672  134.7141  155.8766 N   0  0  0  0  0  0  0  0  0  0  0  0
  152.1236  133.4600  156.3018 C   0  0  0  0  0  0  0  0  0  0  0  0
  151.3801  132.3391  155.8892 C   0  0  0  0  0  0  0  0  0  0  0  0
  150.3118  132.5361  154.9953 C   0  0  0  0  0  0  0  0  0  0  0  0
  150.0208  133.8487  154.5510 C   0  0  0  0  0  0  0  0  0  0  0  0
  148.9816  134.1522  153.6291 N   0  0  0  0  0  0  0  0  0  0  0  0
  147.8205  133.5041  153.4356 C   0  0  0  0  0  0  0  0  0  0  0  0
  147.4244  132.5451  154.0978 O   0  0  0  0  0  0  0  0  0  0  0  0
  147.1249  134.0540  152.4301 N   0  0  0  0  0  0  0  0  0  0  0  0
  145.8191  133.6115  151.9481 C   0  0  2  0  0  0  0  0  0  0  0  0
  145.9496  132.2131  151.3140 C   0  0  0  0  0  0  0  0  0  0  0  0
  144.6188  131.7425  150.7052 C   0  0  0  0  0  0  0  0  0  0  0  0
  144.0864  132.7633  149.6849 C   0  0  1  0  0  0  0  0  0  0  0  0
  142.8356  132.3316  149.1929 O   0  0  0  0  0  0  0  0  0  0  0  0
  143.9367  134.1551  150.3228 C   0  0  0  0  0  0  0  0  0  0  0  0
  145.2659  134.6300  150.9324 C   0  0  0  0  0  0  0  0  0  0  0  0
  151.1553  138.1665  154.4902 H   0  0  0  0  0  0  0  0  0  0  0  0
  152.4941  137.0240  154.5144 H   0  0  0  0  0  0  0  0  0  0  0  0
  151.5678  137.3538  155.9961 H   0  0  0  0  0  0  0  0  0  0  0  0
  152.9514  133.3449  156.9856 H   0  0  0  0  0  0  0  0  0  0  0  0
  151.6272  131.3499  156.2453 H   0  0  0  0  0  0  0  0  0  0  0  0
  149.7508  131.6792  154.6561 H   0  0  0  0  0  0  0  0  0  0  0  0
  149.1222  134.9894  153.0824 H   0  0  0  0  0  0  0  0  0  0  0  0
  147.5352  134.8436  151.9533 H   0  0  0  0  0  0  0  0  0  0  0  0
  145.1125  133.5389  152.7772 H   0  0  0  0  0  0  0  0  0  0  0  0
  146.7143  132.2297  150.5362 H   0  0  0  0  0  0  0  0  0  0  0  0
  146.2854  131.4938  152.0619 H   0  0  0  0  0  0  0  0  0  0  0  0
  144.7549  130.7709  150.2286 H   0  0  0  0  0  0  0  0  0  0  0  0
  143.8882  131.5971  151.5022 H   0  0  0  0  0  0  0  0  0  0  0  0
  144.7750  132.8242  148.8412 H   0  0  0  0  0  0  0  0  0  0  0  0
  142.2015  133.0165  149.3413 H   0  0  0  0  0  0  0  0  0  0  0  0
  143.5947  134.8746  149.5781 H   0  0  0  0  0  0  0  0  0  0  0  0
  143.1724  134.1272  151.1007 H   0  0  0  0  0  0  0  0  0  0  0  0
  145.1238  135.5985  151.4135 H   0  0  0  0  0  0  0  0  0  0  0  0
  145.9918  134.7860  150.1331 H   0  0  0  0  0  0  0  0  0  0  0  0
  1  2  1  0  0  0  0
  1 20  1  0  0  0  0
  1 21  1  0  0  0  0
  1 22  1  0  0  0  0
  2  3  1  0  0  0  0
  3  8  1  0  0  0  0
  3  4  2  0  0  0  0
  4  5  1  0  0  0  0
  5  6  2  0  0  0  0
  5 23  1  0  0  0  0
  6  7  1  0  0  0  0
  6 24  1  0  0  0  0
  7  8  2  0  0  0  0
  7 25  1  0  0  0  0
  8  9  1  0  0  0  0
  9 10  1  0  0  0  0
  9 26  1  0  0  0  0
 10 11  2  0  0  0  0
 10 12  1  0  0  0  0
 12 13  1  0  0  0  0
 12 27  1  0  0  0  0
 13 19  1  0  0  0  0
 13 14  1  0  0  0  0
 13 28  1  0  0  0  0
 14 15  1  0  0  0  0
 14 29  1  0  0  0  0
 14 30  1  0  0  0  0
 15 16  1  0  0  0  0
 15 31  1  0  0  0  0
 15 32  1  0  0  0  0
 16 17  1  0  0  0  0
 16 18  1  0  0  0  0
 16 33  1  0  0  0  0
 17 34  1  0  0  0  0
 18 19  1  0  0  0  0
 18 35  1  0  0  0  0
 18 36  1  0  0  0  0
 19 37  1  0  0  0  0
 19 38  1  0  0  0  0
M  END
> <s_m_source_file>
AV-unprocessed.smi

> <i_m_source_file_index>
1551

> <i_lp_mmshare_version>
43012

> <i_f3d_flags>
0

> <s_epik_input>
W0NIM11PYzFuW2NIXVtjSF1bY0hdYzFbTkhdQyg9TylbTkhdW0NAQEhdMltDSDJdW0NIMl1bQ0BASF0oW09IXSlbQ0gyXVtDSDJdMg==

> <s_epik_cmdline>
J2VwaWtfcHl0aG9uJywgJy1waCcsICc3LjAnLCAnLXRuJywgJzgnLCAnLW1hJywgJzIwMCcsICctbWV0YWxfYmluZGluZycsICctaW1hZScsICc8aW5maWxlLm1hZT4nLCAnLW9tYWUnLCAnPG91dGZpbGUubWFlPic=

> <r_lp_tautomer_probability>
1

> <r_epik_Ionization_Penalty>
9.95655e-05

> <r_epik_Ionization_Penalty_Charging>
0

> <r_epik_Ionization_Penalty_Neutral>
9.95655e-05

> <r_epik_State_Penalty>
-0

> <r_epik_Charging_Adjusted_Penalty>
0

> <i_epik_Tot_Q>
0

> <i_epik_Tot_abs_Q>
0

> <r_epik_Metal_State_Penalty>
-0

> <b_epik_Metal_Only>
0

> <s_lp_Force_Field>
OPLS_2005

> <r_lp_Energy>
10.8816

> <b_lp_Chiralities_Consistent>
1

> <s_lp_Variant>
AV-unprocessed.smi:1551-1

> <Gold.Version>
5.8.1

> <Gold.Id.Protein>
6NUR|6NUR_protein|mol2

> <Gold.PLP.Fitness>
47.4623

> <Gold.PLP.PLP>
-33.5818

> <Gold.PLP.part.hbond>
-5.9406

> <Gold.PLP.part.metal>
0.0000

> <Gold.PLP.part.buried>
-3.6257

> <Gold.PLP.part.nonpolar>
-25.1248

> <Gold.PLP.part.repulsive>
0.3302

> <Gold.PLP.ligand.clash>
0.0000

> <Gold.PLP.ligand.torsion>
0.2817

> <Gold.PLP.Chemscore.Hbond>
4.8125

> <Gold.PLP.Chemscore.CHOScore>
0.0000

> <Gold.PLP.Chemscore.Metal>
0.0000

> <Gold.Chemscore.Hbonds>
donor molecule, donor type, donor heavy atom, donor atom, acceptor molecule, acceptor atom, score
      L1  H     9    26       P1  7948  0.70
      L1  H    12    27       P1  7948  0.99
      L1  H    17    34       P1 10186  1.00
      P1  H 10752 10765       L1     4  0.72
      P1  H 10785 10796       L1    17  0.42

> <Gold.PLP.Chemscore.Internal.Correction>
0.0064

> <Gold.Rescore>
     Score         DG    S(hbond)    S(metal)    S(lipo)     H(rot)  DE(clash)    DE(int)     intcor
     18.43     -19.12       3.07        0.00      67.78       1.77       0.23       0.46       ----

> <Gold.Chemscore.Fitness>
18.4277

> <Gold.Chemscore.DG>
-19.1237

> <Gold.Chemscore.ZeroCoef>
-5.4800

> <Gold.Chemscore.Hbond>
3.0683

> <Gold.Chemscore.Metal>
0.0000

> <Gold.Chemscore.Lipo>
67.7810

> <Gold.Chemscore.Internal_Hbond>
0.0000

> <Gold.Chemscore.DEClash>
0.2346

> <Gold.Chemscore.DEInternal>
0.4614

> <Gold.Chemscore.Rot>
1.7714

> <Gold.Chemscore.Internal.Correction>
   9.000000E+99

> <Gold.Chemscore.Hbonds>
donor molecule, donor type, donor heavy atom, donor atom, acceptor molecule, acceptor atom, score
      L1  H     9    26       P1  7948  0.07
      L1  H    12    27       P1  7948  0.73
      L1  H    17    34       P1 10186  1.00
      P1  H 10752 10765       L1     4  0.26
      P1  H 10785 10796       L1    17  0.16

> <Gold.Chemscore.Hbond.Weighted>
-10.2480

> <Gold.Chemscore.Metal.Weighted>
-0.0000

> <Gold.Chemscore.Lipo.Weighted>
-7.9304

> <Gold.Chemscore.Internal_Hbond.Weighted>
0.0000

> <Gold.Chemscore.DEClash.Weighted>
0.2346

> <Gold.Chemscore.DEInternal.Weighted>
0.4614

> <Gold.Chemscore.Rot.Weighted>
4.5347

> <Gold.Chemscore.Internal.Correction.Weighted>
   9.000000E+99

> <Gold.Protein.RotatedTorsions>
[ 6907 6896 6895 6894 ] final   -2.06 input  -60.11 | X-H torsion
[ 7974 7965 7964 7962 ] final   20.10 input  175.53 | X-H torsion
[ 8008 7997 7996 7995 ] final   61.46 input   59.86 | X-H torsion
[ 10167 10162 10161 10158 ] final    7.34 input  -65.29 | X-H torsion
[ 10718 10713 10712 10709 ] final -117.97 input   66.30 | X-H torsion
[ 10763 10752 10751 10750 ] final -144.97 input  -60.55 | X-H torsion
[ 11005 11000 10999 10996 ] final  157.52 input  -57.11 | X-H torsion

> <Gold.Protein.ActiveResidues>
 VAL166  LYS551  ARG553  GLY616  TRP617  ASP618  TYR619  PRO620  LYS621  CYS622 
 ASP623  PHE694  ASN695  SER759  ASP760  ASP761  ALA762  ILE779  LEU786  VAL792 
 PHE793  MET794  SER795  GLU796  ALA797  LYS798  CYS799  TRP800  GLU811  SER814 

> <Gold.Protein.RotatedAtoms>
  151.5360  135.1068  159.9914 H   0  0  0  0  0  0  0  0  0  0  0  0  # atno 6907 bound_to 6896
  152.4557  133.7714  159.6811 H   0  0  0  0  0  0  0  0  0  0  0  0  # atno 6908 bound_to 6896
  150.8500  133.7736  159.3054 H   0  0  0  0  0  0  0  0  0  0  0  0  # atno 6909 bound_to 6896
  146.2124  139.8217  142.8678 H   0  0  0  0  0  0  0  0  0  0  0  0  # atno 7974 bound_to 7965
  155.5987  140.3493  155.4587 H   0  0  0  0  0  0  0  0  0  0  0  0  # atno 8008 bound_to 7997
  156.0245  140.1261  157.0347 H   0  0  0  0  0  0  0  0  0  0  0  0  # atno 8009 bound_to 7997
  154.4328  140.1056  156.5997 H   0  0  0  0  0  0  0  0  0  0  0  0  # atno 8010 bound_to 7997
  140.6377  143.7847  150.7383 H   0  0  0  0  0  0  0  0  0  0  0  0  # atno 10167 bound_to 10162
  156.1072  130.6220  150.9232 H   0  0  0  0  0  0  0  0  0  0  0  0  # atno 10718 bound_to 10713
  154.8404  135.3426  154.6430 H   0  0  0  0  0  0  0  0  0  0  0  0  # atno 10763 bound_to 10752
  153.7041  135.6968  153.5059 H   0  0  0  0  0  0  0  0  0  0  0  0  # atno 10764 bound_to 10752
  153.2500  135.4356  155.0742 H   0  0  0  0  0  0  0  0  0  0  0  0  # atno 10765 bound_to 10752
  140.1777  134.8498  157.2766 H   0  0  0  0  0  0  0  0  0  0  0  0  # atno 11005 bound_to 11000
  145.3089  141.0214  143.3566 LP  0  0  0  0  0  0  0  0  0  0  0  0  # atno 17320 bound_to 7965
  144.8951  139.4723  143.6659 LP  0  0  0  0  0  0  0  0  0  0  0  0  # atno 17321 bound_to 7965
  140.1472  143.4389  152.2155 LP  0  0  0  0  0  0  0  0  0  0  0  0  # atno 17342 bound_to 10162
  139.5587  144.7391  151.4218 LP  0  0  0  0  0  0  0  0  0  0  0  0  # atno 17343 bound_to 10162
  157.6250  131.0926  150.8551 LP  0  0  0  0  0  0  0  0  0  0  0  0  # atno 17370 bound_to 10713
  156.8668  130.5132  149.5299 LP  0  0  0  0  0  0  0  0  0  0  0  0  # atno 17371 bound_to 10713
  140.2303  134.3917  155.7525 LP  0  0  0  0  0  0  0  0  0  0  0  0  # atno 17394 bound_to 11000
  141.2221  133.7211  156.8630 LP  0  0  0  0  0  0  0  0  0  0  0  0  # atno 17395 bound_to 11000

$$$$
