AV-unprocessed.smi:3330|AV-procd|sdf|12808|dock5
  -GOLD-   2272019173D 1   1.00000     0.00000
 Structure written by MMmdl.
 38 39  0  0  0  0  0  0  0  0  1 V2000
  146.8165  139.0158  155.8074 C   0  0  0  0  0  0  0  0  0  0  0  0
  147.3170  138.8811  154.3562 C   0  0  1  0  0  0  0  0  0  0  0  0
  146.1666  138.7082  153.4740 N   0  0  0  0  0  0  0  0  0  0  0  0
  145.4793  137.4467  153.7074 C   0  0  0  0  0  0  0  0  0  0  0  0
  144.4552  137.2022  152.5859 C   0  0  0  0  0  0  0  0  0  0  0  0
  144.0893  135.7843  152.4787 N   0  0  0  0  0  0  0  0  0  0  0  0
  144.4384  134.9843  151.4621 C   0  0  0  0  0  0  0  0  0  0  0  0
  145.1109  135.2766  150.4738 O   0  0  0  0  0  0  0  0  0  0  0  0
  143.8727  133.6049  151.7205 C   0  0  0  0  0  0  0  0  0  0  0  0
  143.2361  133.8477  152.9964 N   0  0  0  0  0  0  0  0  0  0  0  0
  143.3783  135.1151  153.4052 C   0  0  0  0  0  0  0  0  0  0  0  0
  142.9308  135.5743  154.4551 O   0  0  0  0  0  0  0  0  0  0  0  0
  148.1226  140.1179  153.8719 C   0  0  1  0  0  0  0  0  0  0  0  0
  147.2982  141.4186  153.8907 C   0  0  0  0  0  0  0  0  0  0  0  0
  149.3463  140.3046  154.6468 N   0  0  0  0  0  0  0  0  0  0  0  0
  149.7415  141.4201  155.3557 C   0  0  0  0  0  0  0  0  0  0  0  0
  150.9508  141.1374  155.9230 C   0  0  0  0  0  0  0  0  0  0  0  0
  151.2180  139.8050  155.5025 C   0  0  0  0  0  0  0  0  0  0  0  0
  150.2574  139.3086  154.7410 N   0  0  0  0  0  0  0  0  0  0  0  0
  147.6452  139.0973  156.5098 H   0  0  0  0  0  0  0  0  0  0  0  0
  146.2343  138.1481  156.1168 H   0  0  0  0  0  0  0  0  0  0  0  0
  146.1875  139.8982  155.9301 H   0  0  0  0  0  0  0  0  0  0  0  0
  147.9637  138.0057  154.2812 H   0  0  0  0  0  0  0  0  0  0  0  0
  146.5010  138.7103  152.5207 H   0  0  0  0  0  0  0  0  0  0  0  0
  146.1886  136.6188  153.7486 H   0  0  0  0  0  0  0  0  0  0  0  0
  144.9715  137.4858  154.6710 H   0  0  0  0  0  0  0  0  0  0  0  0
  143.5547  137.7821  152.7950 H   0  0  0  0  0  0  0  0  0  0  0  0
  144.8289  137.5838  151.6339 H   0  0  0  0  0  0  0  0  0  0  0  0
  143.1486  133.3179  150.9576 H   0  0  0  0  0  0  0  0  0  0  0  0
  144.6561  132.8512  151.7987 H   0  0  0  0  0  0  0  0  0  0  0  0
  142.7422  133.1328  153.5108 H   0  0  0  0  0  0  0  0  0  0  0  0
  148.4279  139.9408  152.8390 H   0  0  0  0  0  0  0  0  0  0  0  0
  146.4727  141.3827  153.1807 H   0  0  0  0  0  0  0  0  0  0  0  0
  147.9146  142.2755  153.6175 H   0  0  0  0  0  0  0  0  0  0  0  0
  146.8813  141.6123  154.8795 H   0  0  0  0  0  0  0  0  0  0  0  0
  149.1372  142.3146  155.3944 H   0  0  0  0  0  0  0  0  0  0  0  0
  151.5536  141.7848  156.5425 H   0  0  0  0  0  0  0  0  0  0  0  0
  152.0771  139.1893  155.7238 H   0  0  0  0  0  0  0  0  0  0  0  0
  1  2  1  0  0  0  0
  1 20  1  0  0  0  0
  1 21  1  0  0  0  0
  1 22  1  0  0  0  0
  2  3  1  0  0  0  0
  2 13  1  0  0  0  0
  2 23  1  0  0  0  0
  3  4  1  0  0  0  0
  3 24  1  0  0  0  0
  4  5  1  0  0  0  0
  4 25  1  0  0  0  0
  4 26  1  0  0  0  0
  5  6  1  0  0  0  0
  5 27  1  0  0  0  0
  5 28  1  0  0  0  0
  6 11  1  0  0  0  0
  6  7  1  0  0  0  0
  7  8  2  0  0  0  0
  7  9  1  0  0  0  0
  9 10  1  0  0  0  0
  9 29  1  0  0  0  0
  9 30  1  0  0  0  0
 10 11  1  0  0  0  0
 10 31  1  0  0  0  0
 11 12  2  0  0  0  0
 13 14  1  0  0  0  0
 13 15  1  0  0  0  0
 13 32  1  0  0  0  0
 14 33  1  0  0  0  0
 14 34  1  0  0  0  0
 14 35  1  0  0  0  0
 15 19  1  0  0  0  0
 15 16  1  0  0  0  0
 16 17  2  0  0  0  0
 16 36  1  0  0  0  0
 17 18  1  0  0  0  0
 17 37  1  0  0  0  0
 18 19  2  0  0  0  0
 18 38  1  0  0  0  0
M  END
> <s_m_source_file>
AV-unprocessed.smi

> <i_m_source_file_index>
3330

> <i_lp_mmshare_version>
43012

> <i_f3d_flags>
0

> <s_epik_input>
bjFbY0hdW2NIXVtjSF1uMVtDQEBIXShbQ0gzXSlbQ0BIXShbQ0gzXSlbTkhdW0NIMl1bQ0gyXU4yQyg9TylbQ0gyXVtOSF1DMj1P

> <s_epik_cmdline>
J2VwaWtfcHl0aG9uJywgJy1waCcsICc3LjAnLCAnLXRuJywgJzgnLCAnLW1hJywgJzIwMCcsICctbWV0YWxfYmluZGluZycsICctaW1hZScsICc8aW5maWxlLm1hZT4nLCAnLW9tYWUnLCAnPG91dGZpbGUubWFlPic=

> <r_lp_tautomer_probability>
1

> <r_epik_Ionization_Penalty>
2.2997

> <r_epik_Ionization_Penalty_Charging>
0

> <r_epik_Ionization_Penalty_Neutral>
2.2997

> <r_epik_State_Penalty>
2.44917

> <r_epik_Charging_Adjusted_Penalty>
2.44917

> <i_epik_Tot_Q>
0

> <i_epik_Tot_abs_Q>
0

> <r_epik_Metal_State_Penalty>
2.52438

> <b_epik_Metal_Only>
0

> <s_lp_Force_Field>
OPLS_2005

> <r_lp_Energy>
27.2157

> <b_lp_Chiralities_Consistent>
1

> <s_lp_Variant>
AV-unprocessed.smi:3330-8

> <Gold.Version>
5.8.1

> <Gold.Id.Protein>
6NUR|6NUR_protein|mol2

> <Gold.PLP.Fitness>
34.9787

> <Gold.PLP.PLP>
-29.4031

> <Gold.PLP.part.hbond>
-1.4905

> <Gold.PLP.part.metal>
0.0000

> <Gold.PLP.part.buried>
-3.5373

> <Gold.PLP.part.nonpolar>
-24.3977

> <Gold.PLP.part.repulsive>
0.5758

> <Gold.PLP.ligand.clash>
0.0000

> <Gold.PLP.ligand.torsion>
0.2689

> <Gold.PLP.Chemscore.Hbond>
1.0000

> <Gold.PLP.Chemscore.CHOScore>
1.0000

> <Gold.PLP.Chemscore.Metal>
0.0000

> <Gold.Chemscore.Hbonds>
donor molecule, donor type, donor heavy atom, donor atom, acceptor molecule, acceptor atom, score
      L1  H    10    31       P1 10957  1.00
      L1  C    16    36       P1  8028  1.00

> <Gold.PLP.Chemscore.Internal.Correction>
0.1134

> <Gold.Rescore>
     Score         DG    S(hbond)    S(metal)    S(lipo)     H(rot)  DE(clash)    DE(int)     intcor
      8.09      -8.30       1.00        0.00      52.43       2.60       0.03       0.18       ----

> <Gold.Chemscore.Fitness>
8.0904

> <Gold.Chemscore.DG>
-8.3011

> <Gold.Chemscore.ZeroCoef>
-5.4800

> <Gold.Chemscore.Hbond>
0.9970

> <Gold.Chemscore.Metal>
0.0000

> <Gold.Chemscore.Lipo>
52.4339

> <Gold.Chemscore.Internal_Hbond>
0.0000

> <Gold.Chemscore.DEClash>
0.0285

> <Gold.Chemscore.DEInternal>
0.1822

> <Gold.Chemscore.Rot>
2.5952

> <Gold.Chemscore.Internal.Correction>
   9.000000E+99

> <Gold.Chemscore.Hbonds>
donor molecule, donor type, donor heavy atom, donor atom, acceptor molecule, acceptor atom, score
      L1  H    10    31       P1 10957  0.93

> <Gold.Chemscore.Hbond.Weighted>
-3.3300

> <Gold.Chemscore.Metal.Weighted>
-0.0000

> <Gold.Chemscore.Lipo.Weighted>
-6.1348

> <Gold.Chemscore.Internal_Hbond.Weighted>
0.0000

> <Gold.Chemscore.DEClash.Weighted>
0.0285

> <Gold.Chemscore.DEInternal.Weighted>
0.1822

> <Gold.Chemscore.Rot.Weighted>
6.6437

> <Gold.Chemscore.Internal.Correction.Weighted>
   9.000000E+99

> <Gold.Protein.RotatedTorsions>
[ 6907 6896 6895 6894 ] final   13.72 input  -60.11 | X-H torsion
[ 7974 7965 7964 7962 ] final -100.22 input  175.53 | X-H torsion
[ 8008 7997 7996 7995 ] final  128.19 input   59.86 | X-H torsion
[ 10167 10162 10161 10158 ] final  170.15 input  -65.29 | X-H torsion
[ 10718 10713 10712 10709 ] final   37.51 input   66.30 | X-H torsion
[ 10763 10752 10751 10750 ] final   36.10 input  -60.55 | X-H torsion
[ 11005 11000 10999 10996 ] final   32.70 input  -57.11 | X-H torsion

> <Gold.Protein.ActiveResidues>
 VAL166  LYS551  ARG553  GLY616  TRP617  ASP618  TYR619  PRO620  LYS621  CYS622 
 ASP623  PHE694  ASN695  SER759  ASP760  ASP761  ALA762  ILE779  LEU786  VAL792 
 PHE793  MET794  SER795  GLU796  ALA797  LYS798  CYS799  TRP800  GLU811  SER814 

> <Gold.Protein.RotatedAtoms>
  151.7908  135.0736  160.0386 H   0  0  0  0  0  0  0  0  0  0  0  0  # atno 6907 bound_to 6896
  152.3157  133.5796  159.5719 H   0  0  0  0  0  0  0  0  0  0  0  0  # atno 6908 bound_to 6896
  150.7343  134.0002  159.3677 H   0  0  0  0  0  0  0  0  0  0  0  0  # atno 6909 bound_to 6896
  145.2974  140.9368  143.2843 H   0  0  0  0  0  0  0  0  0  0  0  0  # atno 7974 bound_to 7965
  156.2909  140.2651  156.2395 H   0  0  0  0  0  0  0  0  0  0  0  0  # atno 8008 bound_to 7997
  154.9991  140.0388  157.2371 H   0  0  0  0  0  0  0  0  0  0  0  0  # atno 8009 bound_to 7997
  154.7617  140.2762  155.6213 H   0  0  0  0  0  0  0  0  0  0  0  0  # atno 8010 bound_to 7997
  139.5011  144.3628  151.9806 H   0  0  0  0  0  0  0  0  0  0  0  0  # atno 10167 bound_to 10162
  157.3478  130.7582  149.6957 H   0  0  0  0  0  0  0  0  0  0  0  0  # atno 10718 bound_to 10713
  153.0091  135.6315  154.1932 H   0  0  0  0  0  0  0  0  0  0  0  0  # atno 10763 bound_to 10752
  154.1675  135.2820  155.3092 H   0  0  0  0  0  0  0  0  0  0  0  0  # atno 10764 bound_to 10752
  154.5934  135.5610  153.7361 H   0  0  0  0  0  0  0  0  0  0  0  0  # atno 10765 bound_to 10752
  140.2707  134.3085  155.7829 H   0  0  0  0  0  0  0  0  0  0  0  0  # atno 11005 bound_to 11000
  144.9121  139.4515  143.6582 LP  0  0  0  0  0  0  0  0  0  0  0  0  # atno 17320 bound_to 7965
  146.3164  139.7936  142.8980 LP  0  0  0  0  0  0  0  0  0  0  0  0  # atno 17321 bound_to 7965
  140.3065  144.3587  150.6045 LP  0  0  0  0  0  0  0  0  0  0  0  0  # atno 17342 bound_to 10162
  140.5833  143.2171  151.7389 LP  0  0  0  0  0  0  0  0  0  0  0  0  # atno 17343 bound_to 10162
  155.9717  130.4149  150.4156 LP  0  0  0  0  0  0  0  0  0  0  0  0  # atno 17370 bound_to 10713
  157.2214  131.0483  151.2544 LP  0  0  0  0  0  0  0  0  0  0  0  0  # atno 17371 bound_to 10713
  141.2178  133.7465  156.9330 LP  0  0  0  0  0  0  0  0  0  0  0  0  # atno 17394 bound_to 11000
  140.1376  134.9315  157.2423 LP  0  0  0  0  0  0  0  0  0  0  0  0  # atno 17395 bound_to 11000

$$$$
