AV-unprocessed.smi:3208|AV-procd|sdf|12264|dock9
  -GOLD-   2272018103D 1   1.00000     0.00000
 Structure written by MMmdl.
 29 29  0  0  0  0  0  0  0  0  2 V2000
  149.8697  134.6753  154.8972 C   0  0  0  0  0  0  0  0  0  0  0  0
  150.1703  135.9836  154.9237 C   0  0  0  0  0  0  0  0  0  0  0  0
  150.9884  136.6787  155.9943 C   0  0  0  0  0  0  0  0  0  0  0  0
  152.2875  137.0271  155.5259 O   0  0  0  0  0  0  0  0  0  0  0  0
  152.3411  138.1866  154.6981 C   0  0  2  0  0  0  0  0  0  0  0  0
  153.8149  138.4565  154.3654 C   0  0  0  0  0  0  0  0  0  0  0  0
  151.7164  139.3930  155.4187 C   0  0  0  0  0  0  0  0  0  0  0  0
  150.7384  139.9450  154.9061 O   0  0  0  0  0  0  0  0  0  0  0  0
  152.3842  139.6941  156.6028 N   0  0  0  0  0  0  0  0  0  0  0  0
  152.0723  140.7025  157.3708 C   0  0  0  0  0  0  0  0  0  0  0  0
  151.0291  141.5999  157.0823 N   0  0  0  0  0  0  0  0  0  0  0  0
  150.7044  142.6633  157.8974 C   0  0  0  0  0  0  0  0  0  0  0  0
  151.3733  142.9073  159.0255 C   0  0  0  0  0  0  0  0  0  0  0  0
  152.4647  142.0298  159.3956 C   0  0  0  0  0  0  0  0  0  0  0  0
  152.8391  140.9344  158.6084 C   0  0  0  0  0  0  0  0  0  0  0  0
  153.7897  140.2016  158.9680 O   0  5  0  0  0  0  0  0  0  0  0  0
  150.2043  133.9995  155.6704 H   0  0  0  0  0  0  0  0  0  0  0  0
  149.2791  134.2613  154.0934 H   0  0  0  0  0  0  0  0  0  0  0  0
  149.8103  136.6161  154.1256 H   0  0  0  0  0  0  0  0  0  0  0  0
  150.4526  137.5765  156.3053 H   0  0  0  0  0  0  0  0  0  0  0  0
  151.0467  136.0157  156.8580 H   0  0  0  0  0  0  0  0  0  0  0  0
  151.8102  137.9831  153.7656 H   0  0  0  0  0  0  0  0  0  0  0  0
  153.9215  139.3279  153.7183 H   0  0  0  0  0  0  0  0  0  0  0  0
  154.2554  137.6053  153.8461 H   0  0  0  0  0  0  0  0  0  0  0  0
  154.4024  138.6335  155.2672 H   0  0  0  0  0  0  0  0  0  0  0  0
  149.8797  143.2667  157.5484 H   0  0  0  0  0  0  0  0  0  0  0  0
  151.1065  143.7451  159.6528 H   0  0  0  0  0  0  0  0  0  0  0  0
  152.9993  142.2371  160.3115 H   0  0  0  0  0  0  0  0  0  0  0  0
  150.4705  141.4896  156.2491 H   0  0  0  0  0  0  0  0  0  0  0  0
  1  2  2  0  0  0  0
  1 17  1  0  0  0  0
  1 18  1  0  0  0  0
  2  3  1  0  0  0  0
  2 19  1  0  0  0  0
  3  4  1  0  0  0  0
  3 20  1  0  0  0  0
  3 21  1  0  0  0  0
  4  5  1  0  0  0  0
  5  6  1  0  0  0  0
  5  7  1  0  0  0  0
  5 22  1  0  0  0  0
  6 23  1  0  0  0  0
  6 24  1  0  0  0  0
  6 25  1  0  0  0  0
  7  8  2  0  0  0  0
  7  9  1  0  0  0  0
  9 10  2  0  0  0  0
 10 15  1  0  0  0  0
 10 11  1  0  0  0  0
 11 29  1  0  0  0  0
 11 12  1  0  0  0  0
 12 26  1  0  0  0  0
 12 13  2  0  0  0  0
 13 27  1  0  0  0  0
 13 14  1  0  0  0  0
 14 15  2  0  0  0  0
 14 28  1  0  0  0  0
 15 16  1  0  0  0  0
M  CHG  1  16  -1
M  END
> <s_m_source_file>
AV-unprocessed.smi

> <i_m_source_file_index>
3208

> <i_lp_mmshare_version>
43012

> <i_f3d_flags>
0

> <s_epik_input>
W0NIMl09W0NIXVtDSDJdT1tDQEhdKFtDSDNdKUMoPU8pW05IXWMxbltjSF1bY0hdW2NIXWMxW09IXQ==

> <s_epik_cmdline>
J2VwaWtfcHl0aG9uJywgJy1waCcsICc3LjAnLCAnLXRuJywgJzgnLCAnLW1hJywgJzIwMCcsICctbWV0YWxfYmluZGluZycsICctaW1hZScsICc8aW5maWxlLm1hZT4nLCAnLW9tYWUnLCAnPG91dGZpbGUubWFlPic=

> <r_epik_Ionization_Penalty>
0.613767

> <r_epik_Ionization_Penalty_Charging>
0.613767

> <r_epik_Ionization_Penalty_Neutral>
1.14324e-13

> <r_epik_State_Penalty>
1.22258

> <r_epik_Charging_Adjusted_Penalty>
1.83635

> <i_epik_Tot_Q>
-1

> <i_epik_Tot_abs_Q>
1

> <r_epik_Metal_State_Penalty>
1.18528

> <b_epik_Metal_Only>
0

> <s_lp_Force_Field>
OPLS_2005

> <r_lp_Energy>
36.008

> <b_lp_Chiralities_Consistent>
1

> <s_lp_Variant>
AV-unprocessed.smi:3208-5

> <Gold.Version>
5.8.1

> <Gold.Id.Protein>
6NUR|6NUR_protein|mol2

> <Gold.PLP.Fitness>
40.7846

> <Gold.PLP.PLP>
-26.7478

> <Gold.PLP.part.hbond>
-4.0000

> <Gold.PLP.part.metal>
0.0000

> <Gold.PLP.part.buried>
-2.4775

> <Gold.PLP.part.nonpolar>
-20.0427

> <Gold.PLP.part.repulsive>
0.1552

> <Gold.PLP.ligand.clash>
0.0000

> <Gold.PLP.ligand.torsion>
0.1633

> <Gold.PLP.Chemscore.Hbond>
3.7835

> <Gold.PLP.Chemscore.CHOScore>
1.0000

> <Gold.PLP.Chemscore.Metal>
0.0000

> <Gold.Chemscore.Hbonds>
donor molecule, donor type, donor heavy atom, donor atom, acceptor molecule, acceptor atom, score
      P1  H  7989  7998       L1     8  0.95
      P1  H  7997  8009       L1    16  1.84
      P1  H 10752 10765       L1     4  0.86
      L1  C    12    26       P1  8028  0.90

> <Gold.PLP.Chemscore.Internal.Correction>
0.0131

> <Gold.Rescore>
     Score         DG    S(hbond)    S(metal)    S(lipo)     H(rot)  DE(clash)    DE(int)     intcor
     14.06     -14.26       1.61        0.00      65.19       1.65       0.04       0.16       ----

> <Gold.Chemscore.Fitness>
14.0608

> <Gold.Chemscore.DG>
-14.2588

> <Gold.Chemscore.ZeroCoef>
-5.4800

> <Gold.Chemscore.Hbond>
1.6119

> <Gold.Chemscore.Metal>
0.0000

> <Gold.Chemscore.Lipo>
65.1920

> <Gold.Chemscore.Internal_Hbond>
0.0000

> <Gold.Chemscore.DEClash>
0.0413

> <Gold.Chemscore.DEInternal>
0.1567

> <Gold.Chemscore.Rot>
1.6533

> <Gold.Chemscore.Internal.Correction>
   9.000000E+99

> <Gold.Chemscore.Hbonds>
donor molecule, donor type, donor heavy atom, donor atom, acceptor molecule, acceptor atom, score
      P1  H  7989  7998       L1     8  0.21
      P1  H  7997  8009       L1    16  0.29
      P1  H 10752 10765       L1     4  0.52

> <Gold.Chemscore.Hbond.Weighted>
-5.3837

> <Gold.Chemscore.Metal.Weighted>
-0.0000

> <Gold.Chemscore.Lipo.Weighted>
-7.6275

> <Gold.Chemscore.Internal_Hbond.Weighted>
0.0000

> <Gold.Chemscore.DEClash.Weighted>
0.0413

> <Gold.Chemscore.DEInternal.Weighted>
0.1567

> <Gold.Chemscore.Rot.Weighted>
4.2324

> <Gold.Chemscore.Internal.Correction.Weighted>
   9.000000E+99

> <Gold.Protein.RotatedTorsions>
[ 6907 6896 6895 6894 ] final  144.80 input  -60.11 | X-H torsion
[ 7974 7965 7964 7962 ] final -169.83 input  175.53 | X-H torsion
[ 8008 7997 7996 7995 ] final  134.45 input   59.86 | X-H torsion
[ 10167 10162 10161 10158 ] final  155.55 input  -65.29 | X-H torsion
[ 10718 10713 10712 10709 ] final   19.78 input   66.30 | X-H torsion
[ 10763 10752 10751 10750 ] final -161.41 input  -60.55 | X-H torsion
[ 11005 11000 10999 10996 ] final   -7.81 input  -57.11 | X-H torsion

> <Gold.Protein.ActiveResidues>
 VAL166  LYS551  ARG553  GLY616  TRP617  ASP618  TYR619  PRO620  LYS621  CYS622 
 ASP623  PHE694  ASN695  SER759  ASP760  ASP761  ALA762  ILE779  LEU786  VAL792 
 PHE793  MET794  SER795  GLU796  ALA797  LYS798  CYS799  TRP800  GLU811  SER814 

> <Gold.Protein.RotatedAtoms>
  152.1891  133.4760  159.4997 H   0  0  0  0  0  0  0  0  0  0  0  0  # atno 6907 bound_to 6896
  150.6948  134.1736  159.4231 H   0  0  0  0  0  0  0  0  0  0  0  0  # atno 6908 bound_to 6896
  151.9650  135.0104  160.0600 H   0  0  0  0  0  0  0  0  0  0  0  0  # atno 6909 bound_to 6896
  144.7179  140.2163  143.6321 H   0  0  0  0  0  0  0  0  0  0  0  0  # atno 7974 bound_to 7965
  156.2999  140.2496  156.3419 H   0  0  0  0  0  0  0  0  0  0  0  0  # atno 8008 bound_to 7997
  154.9047  140.0405  157.1932 H   0  0  0  0  0  0  0  0  0  0  0  0  # atno 8009 bound_to 7997
  154.8465  140.2899  155.5630 H   0  0  0  0  0  0  0  0  0  0  0  0  # atno 8010 bound_to 7997
  139.4821  144.5089  151.8055 H   0  0  0  0  0  0  0  0  0  0  0  0  # atno 10167 bound_to 10162
  157.1152  130.6526  149.5908 H   0  0  0  0  0  0  0  0  0  0  0  0  # atno 10718 bound_to 10713
  154.7305  135.3045  154.8898 H   0  0  0  0  0  0  0  0  0  0  0  0  # atno 10763 bound_to 10752
  153.9742  135.6738  153.4752 H   0  0  0  0  0  0  0  0  0  0  0  0  # atno 10764 bound_to 10752
  153.0914  135.4957  154.8618 H   0  0  0  0  0  0  0  0  0  0  0  0  # atno 10765 bound_to 10752
  140.7168  133.8862  155.8791 H   0  0  0  0  0  0  0  0  0  0  0  0  # atno 11005 bound_to 11000
  145.8543  139.2191  143.1753 LP  0  0  0  0  0  0  0  0  0  0  0  0  # atno 17320 bound_to 7965
  146.0232  140.8329  142.9913 LP  0  0  0  0  0  0  0  0  0  0  0  0  # atno 17321 bound_to 7965
  140.4590  144.1749  150.5904 LP  0  0  0  0  0  0  0  0  0  0  0  0  # atno 17342 bound_to 10162
  140.4505  143.2489  151.9354 LP  0  0  0  0  0  0  0  0  0  0  0  0  # atno 17343 bound_to 10162
  155.9841  130.4864  150.6966 LP  0  0  0  0  0  0  0  0  0  0  0  0  # atno 17370 bound_to 10713
  157.4524  131.0874  151.0832 LP  0  0  0  0  0  0  0  0  0  0  0  0  # atno 17371 bound_to 10713
  141.0038  134.1114  157.4291 LP  0  0  0  0  0  0  0  0  0  0  0  0  # atno 17394 bound_to 11000
  139.8858  135.0075  156.6457 LP  0  0  0  0  0  0  0  0  0  0  0  0  # atno 17395 bound_to 11000

$$$$
