AV-unprocessed.smi:280|AV-procd|sdf|2100|dock1
  -GOLD-   2262021383D 1   1.00000     0.00000
 Structure written by MMmdl.
 59 62  0  0  0  0  0  0  0  0  2 V2000
  147.2562  134.8654  154.7676 C   0  0  0  0  0  0  0  0  0  0  0  0
  146.5266  136.0920  154.1817 C   0  0  1  0  0  0  0  0  0  0  0  0
  147.4333  137.3277  154.3856 C   0  0  0  0  0  0  0  0  0  0  0  0
  146.8949  138.5213  153.7455 N   0  0  0  0  0  0  0  0  0  0  0  0
  147.4722  139.6866  154.1358 C   0  0  0  0  0  0  0  0  0  0  0  0
  146.8476  140.8694  153.8894 N   0  0  0  0  0  0  0  0  0  0  0  0
  147.4089  142.0214  154.2680 C   0  0  0  0  0  0  0  0  0  0  0  0
  148.5687  142.2161  154.8978 N   0  0  0  0  0  0  0  0  0  0  0  0
  149.1993  141.0344  155.1530 C   0  0  0  0  0  0  0  0  0  0  0  0
  148.7260  139.7365  154.8087 C   0  0  0  0  0  0  0  0  0  0  0  0
  149.6299  138.7741  155.2423 N   0  0  0  0  0  0  0  0  0  0  0  0
  150.5843  139.4631  155.8058 C   0  0  0  0  0  0  0  0  0  0  0  0
  150.4118  140.8291  155.7895 N   0  0  0  0  0  0  0  0  0  0  0  0
  151.3093  141.8286  156.3498 C   0  0  0  0  0  0  0  0  0  0  0  0
  150.9598  142.2422  157.7935 C   0  0  0  0  0  0  0  0  0  0  0  0
  149.4518  142.5186  157.9236 C   0  0  0  0  0  0  0  0  0  0  0  0
  149.1350  143.0511  159.1938 O   0  0  0  0  0  0  0  0  0  0  0  0
  151.5562  141.3682  158.9053 C   0  0  0  0  0  0  0  0  0  0  0  0
  152.1030  142.5137  159.5928 O   0  0  0  0  0  0  0  0  0  0  0  0
  151.8583  143.3184  158.4201 C   0  0  0  0  0  0  0  0  0  0  0  0
  146.6019  138.3480  152.3286 C   0  0  0  0  0  0  0  0  0  0  0  0
  145.6415  137.1712  152.1297 C   0  0  0  0  0  0  0  0  0  0  0  0
  146.1581  135.9157  152.7406 N   0  3  2  0  0  0  0  0  0  0  0  0
  145.2398  134.7713  152.4655 C   0  0  0  0  0  0  0  0  0  0  0  0
  145.5471  134.0573  151.1260 C   0  0  0  0  0  0  0  0  0  0  0  0
  146.9532  133.4324  151.0908 C   0  0  0  0  0  0  0  0  0  0  0  0
  144.4837  132.9815  150.8464 C   0  0  0  0  0  0  0  0  0  0  0  0
  145.4563  134.9948  150.0716 O   0  0  0  0  0  0  0  0  0  0  0  0
  147.5600  135.0558  155.7974 H   0  0  0  0  0  0  0  0  0  0  0  0
  148.1596  134.6352  154.2024 H   0  0  0  0  0  0  0  0  0  0  0  0
  146.6404  133.9681  154.7919 H   0  0  0  0  0  0  0  0  0  0  0  0
  145.6036  136.2514  154.7422 H   0  0  0  0  0  0  0  0  0  0  0  0
  147.5848  137.4897  155.4524 H   0  0  0  0  0  0  0  0  0  0  0  0
  148.4200  137.1355  153.9610 H   0  0  0  0  0  0  0  0  0  0  0  0
  146.8481  142.9144  154.0343 H   0  0  0  0  0  0  0  0  0  0  0  0
  151.4440  138.9876  156.2548 H   0  0  0  0  0  0  0  0  0  0  0  0
  152.3306  141.4510  156.2921 H   0  0  0  0  0  0  0  0  0  0  0  0
  151.2846  142.6966  155.6897 H   0  0  0  0  0  0  0  0  0  0  0  0
  149.1273  143.2383  157.1714 H   0  0  0  0  0  0  0  0  0  0  0  0
  148.8600  141.6191  157.7550 H   0  0  0  0  0  0  0  0  0  0  0  0
  149.7557  143.7339  159.3980 H   0  0  0  0  0  0  0  0  0  0  0  0
  150.8144  140.8359  159.5021 H   0  0  0  0  0  0  0  0  0  0  0  0
  152.3393  140.6893  158.5637 H   0  0  0  0  0  0  0  0  0  0  0  0
  152.7804  143.5085  157.8690 H   0  0  0  0  0  0  0  0  0  0  0  0
  151.3423  144.2515  158.6496 H   0  0  0  0  0  0  0  0  0  0  0  0
  146.1528  139.2554  151.9220 H   0  0  0  0  0  0  0  0  0  0  0  0
  147.5299  138.1715  151.7825 H   0  0  0  0  0  0  0  0  0  0  0  0
  144.6761  137.4168  152.5755 H   0  0  0  0  0  0  0  0  0  0  0  0
  145.4680  137.0264  151.0633 H   0  0  0  0  0  0  0  0  0  0  0  0
  145.2703  134.0405  153.2714 H   0  0  0  0  0  0  0  0  0  0  0  0
  144.2040  135.1162  152.4657 H   0  0  0  0  0  0  0  0  0  0  0  0
  147.0777  132.6976  151.8867 H   0  0  0  0  0  0  0  0  0  0  0  0
  147.7345  134.1840  151.2060 H   0  0  0  0  0  0  0  0  0  0  0  0
  147.1351  132.9220  150.1442 H   0  0  0  0  0  0  0  0  0  0  0  0
  144.4933  132.2094  151.6164 H   0  0  0  0  0  0  0  0  0  0  0  0
  144.6542  132.4895  149.8878 H   0  0  0  0  0  0  0  0  0  0  0  0
  143.4802  133.4084  150.8220 H   0  0  0  0  0  0  0  0  0  0  0  0
  145.9705  134.6802  149.3430 H   0  0  0  0  0  0  0  0  0  0  0  0
  147.0211  135.7032  152.2607 H   0  0  0  0  0  0  0  0  0  0  0  0
  1  2  1  0  0  0  0
  1 29  1  0  0  0  0
  1 30  1  0  0  0  0
  1 31  1  0  0  0  0
  2 23  1  0  0  0  0
  2  3  1  0  0  0  0
  2 32  1  0  0  0  0
  3  4  1  0  0  0  0
  3 33  1  0  0  0  0
  3 34  1  0  0  0  0
  4  5  1  0  0  0  0
  4 21  1  0  0  0  0
  5 10  1  0  0  0  0
  5  6  2  0  0  0  0
  6  7  1  0  0  0  0
  7  8  2  0  0  0  0
  7 35  1  0  0  0  0
  8  9  1  0  0  0  0
  9 13  1  0  0  0  0
  9 10  2  0  0  0  0
 10 11  1  0  0  0  0
 11 12  2  0  0  0  0
 12 13  1  0  0  0  0
 12 36  1  0  0  0  0
 13 14  1  0  0  0  0
 14 15  1  0  0  0  0
 14 37  1  0  0  0  0
 14 38  1  0  0  0  0
 15 20  1  0  0  0  0
 15 16  1  0  0  0  0
 15 18  1  0  0  0  0
 16 17  1  0  0  0  0
 16 39  1  0  0  0  0
 16 40  1  0  0  0  0
 17 41  1  0  0  0  0
 18 19  1  0  0  0  0
 18 42  1  0  0  0  0
 18 43  1  0  0  0  0
 19 20  1  0  0  0  0
 20 44  1  0  0  0  0
 20 45  1  0  0  0  0
 21 22  1  0  0  0  0
 21 46  1  0  0  0  0
 21 47  1  0  0  0  0
 22 23  1  0  0  0  0
 22 48  1  0  0  0  0
 22 49  1  0  0  0  0
 23 24  1  0  0  0  0
 23 59  1  0  0  0  0
 24 25  1  0  0  0  0
 24 50  1  0  0  0  0
 24 51  1  0  0  0  0
 25 26  1  0  0  0  0
 25 27  1  0  0  0  0
 25 28  1  0  0  0  0
 26 52  1  0  0  0  0
 26 53  1  0  0  0  0
 26 54  1  0  0  0  0
 27 55  1  0  0  0  0
 27 56  1  0  0  0  0
 27 57  1  0  0  0  0
 28 58  1  0  0  0  0
M  CHG  1  23   1
M  END
> <s_m_source_file>
AV-unprocessed.smi

> <i_m_source_file_index>
280

> <i_lp_mmshare_version>
43012

> <i_f3d_flags>
0

> <s_epik_input>
W0NIM11DKFtDSDNdKShbT0hdKVtDSDJdTjFbQ0gyXVtDSDJdTihbQ0gyXVtDQEhdMVtDSDNdKWMobltjSF1uMiljKGMyMyluW2NIXW4zW0NIMl1DNChbQ0gyXVtPSF0pW0NIMl1PW0NIMl00

> <s_epik_cmdline>
J2VwaWtfcHl0aG9uJywgJy1waCcsICc3LjAnLCAnLXRuJywgJzgnLCAnLW1hJywgJzIwMCcsICctbWV0YWxfYmluZGluZycsICctaW1hZScsICc8aW5maWxlLm1hZT4nLCAnLW9tYWUnLCAnPG91dGZpbGUubWFlPic=

> <r_lp_tautomer_probability>
1

> <r_epik_Ionization_Penalty>
0.00179402

> <r_epik_Ionization_Penalty_Charging>
0.00173996

> <r_epik_Ionization_Penalty_Neutral>
5.40607e-05

> <r_epik_State_Penalty>
-0

> <r_epik_Charging_Adjusted_Penalty>
0.00173996

> <i_epik_Tot_Q>
1

> <i_epik_Tot_abs_Q>
1

> <r_epik_Metal_State_Penalty>
-0

> <b_epik_Metal_Only>
0

> <s_lp_Force_Field>
OPLS_2005

> <r_lp_Energy>
52.0143

> <b_lp_Chiralities_Consistent>
1

> <s_lp_Variant>
AV-unprocessed.smi:280-4

> <Gold.Version>
5.8.1

> <Gold.Id.Protein>
6NUR|6NUR_protein|mol2

> <Gold.PLP.Fitness>
44.2550

> <Gold.PLP.PLP>
-36.4205

> <Gold.PLP.part.hbond>
-3.0000

> <Gold.PLP.part.metal>
0.0000

> <Gold.PLP.part.buried>
-7.4650

> <Gold.PLP.part.nonpolar>
-29.1484

> <Gold.PLP.part.repulsive>
3.9176

> <Gold.PLP.ligand.clash>
0.0000

> <Gold.PLP.ligand.torsion>
1.3182

> <Gold.PLP.Chemscore.Hbond>
3.0090

> <Gold.PLP.Chemscore.CHOScore>
0.0000

> <Gold.PLP.Chemscore.Metal>
0.0000

> <Gold.Chemscore.Hbonds>
donor molecule, donor type, donor heavy atom, donor atom, acceptor molecule, acceptor atom, score
      L1  H    23    59       P1  7948  1.95
      L1  H    28    58       P1  7921  0.86
      P1  H  6933  6944       L1    17  0.02

> <Gold.PLP.Chemscore.Internal.Correction>
1.4440

> <Gold.Rescore>
     Score         DG    S(hbond)    S(metal)    S(lipo)     H(rot)  DE(clash)    DE(int)     intcor
      6.34     -12.05       1.83        0.00      83.07       3.63       2.13       3.58       ----

> <Gold.Chemscore.Fitness>
6.3405

> <Gold.Chemscore.DG>
-12.0452

> <Gold.Chemscore.ZeroCoef>
-5.4800

> <Gold.Chemscore.Hbond>
1.8347

> <Gold.Chemscore.Metal>
0.0000

> <Gold.Chemscore.Lipo>
83.0736

> <Gold.Chemscore.Internal_Hbond>
0.0000

> <Gold.Chemscore.DEClash>
2.1270

> <Gold.Chemscore.DEInternal>
3.5777

> <Gold.Chemscore.Rot>
3.6260

> <Gold.Chemscore.Internal.Correction>
   9.000000E+99

> <Gold.Chemscore.Hbonds>
donor molecule, donor type, donor heavy atom, donor atom, acceptor molecule, acceptor atom, score
      L1  H    23    59       P1  7948  0.88
      L1  H    28    58       P1  7921  0.59
      P1  H  6933  6944       L1    17  0.01

> <Gold.Chemscore.Hbond.Weighted>
-6.1280

> <Gold.Chemscore.Metal.Weighted>
-0.0000

> <Gold.Chemscore.Lipo.Weighted>
-9.7196

> <Gold.Chemscore.Internal_Hbond.Weighted>
0.0000

> <Gold.Chemscore.DEClash.Weighted>
2.1270

> <Gold.Chemscore.DEInternal.Weighted>
3.5777

> <Gold.Chemscore.Rot.Weighted>
9.2825

> <Gold.Chemscore.Internal.Correction.Weighted>
   9.000000E+99

> <Gold.Protein.RotatedTorsions>
[ 6907 6896 6895 6894 ] final    7.47 input  -60.11 | X-H torsion
[ 7974 7965 7964 7962 ] final  -53.97 input  175.53 | X-H torsion
[ 8008 7997 7996 7995 ] final  -89.23 input   59.86 | X-H torsion
[ 10167 10162 10161 10158 ] final   29.65 input  -65.29 | X-H torsion
[ 10718 10713 10712 10709 ] final   66.22 input   66.30 | X-H torsion
[ 10763 10752 10751 10750 ] final  147.74 input  -60.55 | X-H torsion
[ 11005 11000 10999 10996 ] final  -44.69 input  -57.11 | X-H torsion

> <Gold.Protein.ActiveResidues>
 VAL166  LYS551  ARG553  GLY616  TRP617  ASP618  TYR619  PRO620  LYS621  CYS622 
 ASP623  PHE694  ASN695  SER759  ASP760  ASP761  ALA762  ILE779  LEU786  VAL792 
 PHE793  MET794  SER795  GLU796  ALA797  LYS798  CYS799  TRP800  GLU811  SER814 

> <Gold.Protein.RotatedAtoms>
  151.6905  135.0947  160.0232 H   0  0  0  0  0  0  0  0  0  0  0  0  # atno 6907 bound_to 6896
  152.3781  133.6505  159.6148 H   0  0  0  0  0  0  0  0  0  0  0  0  # atno 6908 bound_to 6896
  150.7725  133.9075  159.3401 H   0  0  0  0  0  0  0  0  0  0  0  0  # atno 6909 bound_to 6896
  145.8909  140.8071  142.9792 H   0  0  0  0  0  0  0  0  0  0  0  0  # atno 7974 bound_to 7965
  154.6841  140.0544  157.0296 H   0  0  0  0  0  0  0  0  0  0  0  0  # atno 8008 bound_to 7997
  155.0910  140.3219  155.4555 H   0  0  0  0  0  0  0  0  0  0  0  0  # atno 8009 bound_to 7997
  156.2705  140.2048  156.6037 H   0  0  0  0  0  0  0  0  0  0  0  0  # atno 8010 bound_to 7997
  140.4747  144.0709  150.6247 H   0  0  0  0  0  0  0  0  0  0  0  0  # atno 10167 bound_to 10162
  157.6155  130.9256  150.0080 H   0  0  0  0  0  0  0  0  0  0  0  0  # atno 10718 bound_to 10713
  154.0432  135.2888  155.3352 H   0  0  0  0  0  0  0  0  0  0  0  0  # atno 10763 bound_to 10752
  154.6916  135.5224  153.8403 H   0  0  0  0  0  0  0  0  0  0  0  0  # atno 10764 bound_to 10752
  153.0591  135.6607  154.0635 H   0  0  0  0  0  0  0  0  0  0  0  0  # atno 10765 bound_to 10752
  141.0467  133.6758  156.2908 H   0  0  0  0  0  0  0  0  0  0  0  0  # atno 11005 bound_to 11000
  144.6730  140.1528  143.7428 LP  0  0  0  0  0  0  0  0  0  0  0  0  # atno 17320 bound_to 7965
  145.8909  139.2375  143.1550 LP  0  0  0  0  0  0  0  0  0  0  0  0  # atno 17321 bound_to 7965
  140.3934  143.2741  152.0034 LP  0  0  0  0  0  0  0  0  0  0  0  0  # atno 17342 bound_to 10162
  139.4823  144.6058  151.7523 LP  0  0  0  0  0  0  0  0  0  0  0  0  # atno 17343 bound_to 10162
  156.1276  130.3644  149.9784 LP  0  0  0  0  0  0  0  0  0  0  0  0  # atno 17370 bound_to 10713
  156.7852  130.9236  151.3646 LP  0  0  0  0  0  0  0  0  0  0  0  0  # atno 17371 bound_to 10713
  140.6133  134.5436  157.5537 LP  0  0  0  0  0  0  0  0  0  0  0  0  # atno 17394 bound_to 11000
  139.9317  134.7951  156.0912 LP  0  0  0  0  0  0  0  0  0  0  0  0  # atno 17395 bound_to 11000

$$$$
