AV-unprocessed.smi:2466|AV-procd|sdf|9724|dock5
  -GOLD-   2272013363D 1   1.00000     0.00000
 Structure written by MMmdl.
 36 37  0  0  0  0  0  0  0  0  1 V2000
  145.7509  129.4799  151.8820 C   0  0  0  0  0  0  0  0  0  0  0  0
  146.4534  130.7154  151.9580 O   0  0  0  0  0  0  0  0  0  0  0  0
  145.7624  131.8760  151.6779 C   0  0  0  0  0  0  0  0  0  0  0  0
  146.4082  133.1193  151.8354 C   0  0  0  0  0  0  0  0  0  0  0  0
  145.6663  134.2837  151.5345 C   0  0  0  0  0  0  0  0  0  0  0  0
  146.3560  135.5137  151.7010 N   0  0  0  0  0  0  0  0  0  0  0  0
  145.8352  136.7327  151.9264 C   0  0  0  0  0  0  0  0  0  0  0  0
  144.6356  136.9817  152.0490 O   0  0  0  0  0  0  0  0  0  0  0  0
  146.7982  137.6630  152.0060 N   0  0  0  0  0  0  0  0  0  0  0  0
  146.5877  139.0918  152.2293 C   0  0  0  0  0  0  0  0  0  0  0  0
  147.1130  139.5542  153.5977 C   0  0  0  0  0  0  0  0  0  0  0  0
  146.2982  138.8530  154.6952 C   0  0  0  0  0  0  0  0  0  0  0  0
  148.6449  139.5098  153.7856 C   0  0  0  0  0  0  0  0  0  0  0  0
  148.5792  140.8597  154.4976 C   0  0  0  0  0  0  0  0  0  0  0  0
  147.2518  141.0818  153.7745 C   0  0  0  0  0  0  0  0  0  0  0  0
  144.3813  134.1773  151.1147 N   0  0  0  0  0  0  0  0  0  0  0  0
  143.8605  132.9543  150.9989 C   0  0  0  0  0  0  0  0  0  0  0  0
  144.4771  131.8002  151.2556 N   0  0  0  0  0  0  0  0  0  0  0  0
  146.4290  128.6632  152.1294 H   0  0  0  0  0  0  0  0  0  0  0  0
  145.3698  129.2998  150.8758 H   0  0  0  0  0  0  0  0  0  0  0  0
  144.9216  129.4479  152.5901 H   0  0  0  0  0  0  0  0  0  0  0  0
  147.4336  133.1714  152.1718 H   0  0  0  0  0  0  0  0  0  0  0  0
  147.3611  135.4613  151.6280 H   0  0  0  0  0  0  0  0  0  0  0  0
  147.7559  137.3623  151.8986 H   0  0  0  0  0  0  0  0  0  0  0  0
  147.1122  139.6156  151.4297 H   0  0  0  0  0  0  0  0  0  0  0  0
  145.5371  139.3616  152.1084 H   0  0  0  0  0  0  0  0  0  0  0  0
  146.5307  139.2460  155.6850 H   0  0  0  0  0  0  0  0  0  0  0  0
  146.4990  137.7820  154.7274 H   0  0  0  0  0  0  0  0  0  0  0  0
  145.2261  138.9831  154.5442 H   0  0  0  0  0  0  0  0  0  0  0  0
  149.0066  138.6880  154.4045 H   0  0  0  0  0  0  0  0  0  0  0  0
  149.1931  139.5644  152.8431 H   0  0  0  0  0  0  0  0  0  0  0  0
  148.4676  140.7676  155.5789 H   0  0  0  0  0  0  0  0  0  0  0  0
  149.3709  141.5590  154.2273 H   0  0  0  0  0  0  0  0  0  0  0  0
  147.3797  141.6142  152.8302 H   0  0  0  0  0  0  0  0  0  0  0  0
  146.4759  141.5457  154.3845 H   0  0  0  0  0  0  0  0  0  0  0  0
  142.8361  132.8931  150.6622 H   0  0  0  0  0  0  0  0  0  0  0  0
  1  2  1  0  0  0  0
  1 19  1  0  0  0  0
  1 20  1  0  0  0  0
  1 21  1  0  0  0  0
  2  3  1  0  0  0  0
  3 18  1  0  0  0  0
  3  4  2  0  0  0  0
  4  5  1  0  0  0  0
  4 22  1  0  0  0  0
  5  6  1  0  0  0  0
  5 16  2  0  0  0  0
  6  7  1  0  0  0  0
  6 23  1  0  0  0  0
  7  8  2  0  0  0  0
  7  9  1  0  0  0  0
  9 10  1  0  0  0  0
  9 24  1  0  0  0  0
 10 11  1  0  0  0  0
 10 25  1  0  0  0  0
 10 26  1  0  0  0  0
 11 15  1  0  0  0  0
 11 12  1  0  0  0  0
 11 13  1  0  0  0  0
 12 27  1  0  0  0  0
 12 28  1  0  0  0  0
 12 29  1  0  0  0  0
 13 14  1  0  0  0  0
 13 30  1  0  0  0  0
 13 31  1  0  0  0  0
 14 15  1  0  0  0  0
 14 32  1  0  0  0  0
 14 33  1  0  0  0  0
 15 34  1  0  0  0  0
 15 35  1  0  0  0  0
 16 17  1  0  0  0  0
 17 18  2  0  0  0  0
 17 36  1  0  0  0  0
M  END
> <s_m_source_file>
AV-unprocessed.smi

> <i_m_source_file_index>
2466

> <i_lp_mmshare_version>
43012

> <i_f3d_flags>
0

> <s_epik_input>
W0NIM11PYzFbY0hdYyhuW2NIXW4xKVtOSF1DKD1PKVtOSF1bQ0gyXUMyKFtDSDNdKVtDSDJdW0NIMl1bQ0gyXTI=

> <s_epik_cmdline>
J2VwaWtfcHl0aG9uJywgJy1waCcsICc3LjAnLCAnLXRuJywgJzgnLCAnLW1hJywgJzIwMCcsICctbWV0YWxfYmluZGluZycsICctaW1hZScsICc8aW5maWxlLm1hZT4nLCAnLW9tYWUnLCAnPG91dGZpbGUubWFlPic=

> <r_lp_tautomer_probability>
1

> <r_epik_Ionization_Penalty>
2.72078e-05

> <r_epik_Ionization_Penalty_Charging>
0

> <r_epik_Ionization_Penalty_Neutral>
2.72078e-05

> <r_epik_State_Penalty>
-0

> <r_epik_Charging_Adjusted_Penalty>
0

> <i_epik_Tot_Q>
0

> <i_epik_Tot_abs_Q>
0

> <r_epik_Metal_State_Penalty>
-0

> <b_epik_Metal_Only>
0

> <s_lp_Force_Field>
OPLS_2005

> <r_lp_Energy>
15.1515

> <b_lp_Chiralities_Consistent>
1

> <s_lp_Variant>
AV-unprocessed.smi:2466-1

> <Gold.Version>
5.8.1

> <Gold.Id.Protein>
6NUR|6NUR_protein|mol2

> <Gold.PLP.Fitness>
36.8662

> <Gold.PLP.PLP>
-28.3048

> <Gold.PLP.part.hbond>
-1.9550

> <Gold.PLP.part.metal>
0.0000

> <Gold.PLP.part.buried>
-2.4900

> <Gold.PLP.part.nonpolar>
-27.0948

> <Gold.PLP.part.repulsive>
2.9691

> <Gold.PLP.ligand.clash>
0.0000

> <Gold.PLP.ligand.torsion>
0.2458

> <Gold.PLP.Chemscore.Hbond>
1.9760

> <Gold.PLP.Chemscore.CHOScore>
1.0000

> <Gold.PLP.Chemscore.Metal>
0.0000

> <Gold.Chemscore.Hbonds>
donor molecule, donor type, donor heavy atom, donor atom, acceptor molecule, acceptor atom, score
      L1  H     6    23       P1  7948  1.00
      L1  H     9    24       P1  7948  1.00
      L1  C    17    36       P1 10186  0.76

> <Gold.PLP.Chemscore.Internal.Correction>
0.1249

> <Gold.Rescore>
     Score         DG    S(hbond)    S(metal)    S(lipo)     H(rot)  DE(clash)    DE(int)     intcor
     11.51     -13.43       1.97        0.00      47.31       1.62       0.55       1.37       ----

> <Gold.Chemscore.Fitness>
11.5059

> <Gold.Chemscore.DG>
-13.4312

> <Gold.Chemscore.ZeroCoef>
-5.4800

> <Gold.Chemscore.Hbond>
1.9657

> <Gold.Chemscore.Metal>
0.0000

> <Gold.Chemscore.Lipo>
47.3079

> <Gold.Chemscore.Internal_Hbond>
0.0000

> <Gold.Chemscore.DEClash>
0.5549

> <Gold.Chemscore.DEInternal>
1.3704

> <Gold.Chemscore.Rot>
1.6207

> <Gold.Chemscore.Internal.Correction>
   9.000000E+99

> <Gold.Chemscore.Hbonds>
donor molecule, donor type, donor heavy atom, donor atom, acceptor molecule, acceptor atom, score
      L1  H     6    23       P1  7948  0.93
      L1  H     9    24       P1  7948  0.97

> <Gold.Chemscore.Hbond.Weighted>
-6.5653

> <Gold.Chemscore.Metal.Weighted>
-0.0000

> <Gold.Chemscore.Lipo.Weighted>
-5.5350

> <Gold.Chemscore.Internal_Hbond.Weighted>
0.0000

> <Gold.Chemscore.DEClash.Weighted>
0.5549

> <Gold.Chemscore.DEInternal.Weighted>
1.3704

> <Gold.Chemscore.Rot.Weighted>
4.1491

> <Gold.Chemscore.Internal.Correction.Weighted>
   9.000000E+99

> <Gold.Protein.RotatedTorsions>
[ 6907 6896 6895 6894 ] final   38.85 input  -60.11 | X-H torsion
[ 7974 7965 7964 7962 ] final -112.87 input  175.53 | X-H torsion
[ 8008 7997 7996 7995 ] final  -94.97 input   59.86 | X-H torsion
[ 10167 10162 10161 10158 ] final -118.54 input  -65.29 | X-H torsion
[ 10718 10713 10712 10709 ] final  117.31 input   66.30 | X-H torsion
[ 10763 10752 10751 10750 ] final   97.26 input  -60.55 | X-H torsion
[ 11005 11000 10999 10996 ] final  100.25 input  -57.11 | X-H torsion

> <Gold.Protein.ActiveResidues>
 VAL166  LYS551  ARG553  GLY616  TRP617  ASP618  TYR619  PRO620  LYS621  CYS622 
 ASP623  PHE694  ASN695  SER759  ASP760  ASP761  ALA762  ILE779  LEU786  VAL792 
 PHE793  MET794  SER795  GLU796  ALA797  LYS798  CYS799  TRP800  GLU811  SER814 

> <Gold.Protein.RotatedAtoms>
  152.1618  134.8906  160.0540 H   0  0  0  0  0  0  0  0  0  0  0  0  # atno 6907 bound_to 6896
  151.9899  133.3782  159.4148 H   0  0  0  0  0  0  0  0  0  0  0  0  # atno 6908 bound_to 6896
  150.6889  134.3871  159.5103 H   0  0  0  0  0  0  0  0  0  0  0  0  # atno 6909 bound_to 6896
  145.1389  140.8766  143.3714 H   0  0  0  0  0  0  0  0  0  0  0  0  # atno 7974 bound_to 7965
  154.7553  140.0484  157.0928 H   0  0  0  0  0  0  0  0  0  0  0  0  # atno 8008 bound_to 7997
  155.0005  140.3124  155.4850 H   0  0  0  0  0  0  0  0  0  0  0  0  # atno 8009 bound_to 7997
  156.2893  140.2202  156.5115 H   0  0  0  0  0  0  0  0  0  0  0  0  # atno 8010 bound_to 7997
  140.0564  143.5010  152.2055 H   0  0  0  0  0  0  0  0  0  0  0  0  # atno 10167 bound_to 10162
  157.6104  131.1036  150.7597 H   0  0  0  0  0  0  0  0  0  0  0  0  # atno 10718 bound_to 10713
  153.2747  135.4189  155.1022 H   0  0  0  0  0  0  0  0  0  0  0  0  # atno 10763 bound_to 10752
  154.8468  135.3481  154.6194 H   0  0  0  0  0  0  0  0  0  0  0  0  # atno 10764 bound_to 10752
  153.6615  135.7048  153.5233 H   0  0  0  0  0  0  0  0  0  0  0  0  # atno 10765 bound_to 10752
  139.8771  134.9132  156.4727 H   0  0  0  0  0  0  0  0  0  0  0  0  # atno 11005 bound_to 11000
  145.0554  139.3148  143.5907 LP  0  0  0  0  0  0  0  0  0  0  0  0  # atno 17320 bound_to 7965
  146.3507  139.9977  142.8679 LP  0  0  0  0  0  0  0  0  0  0  0  0  # atno 17321 bound_to 7965
  139.5921  144.7554  151.3375 LP  0  0  0  0  0  0  0  0  0  0  0  0  # atno 17342 bound_to 10162
  140.7193  143.7181  150.7717 LP  0  0  0  0  0  0  0  0  0  0  0  0  # atno 17343 bound_to 10162
  156.7976  130.4910  149.5375 LP  0  0  0  0  0  0  0  0  0  0  0  0  # atno 17370 bound_to 10713
  156.1205  130.6106  151.0186 LP  0  0  0  0  0  0  0  0  0  0  0  0  # atno 17371 bound_to 10713
  140.8784  133.7936  155.9439 LP  0  0  0  0  0  0  0  0  0  0  0  0  # atno 17394 bound_to 11000
  140.8880  134.2530  157.5109 LP  0  0  0  0  0  0  0  0  0  0  0  0  # atno 17395 bound_to 11000

$$$$
