AV-unprocessed.smi:157|AV-procd|sdf|1295|dock7
  -GOLD-   2262018583D 1   1.00000     0.00000
 Structure written by MMmdl.
 35 37  0  0  0  0  0  0  0  0  1 V2000
  150.8546  145.6803  160.3946 O   0  0  0  0  0  0  0  0  0  0  0  0
  151.9742  144.9683  159.9121 C   0  0  0  0  0  0  0  0  0  0  0  0
  151.7047  143.4569  159.9677 C   0  0  1  0  0  0  0  0  0  0  0  0
  150.9390  143.0728  158.8339 O   0  0  0  0  0  0  0  0  0  0  0  0
  151.1566  141.7203  158.6283 C   0  0  1  0  0  0  0  0  0  0  0  0
  150.7737  141.3782  157.2215 N   0  0  0  0  0  0  0  0  0  0  0  0
  151.5802  140.8002  156.3234 C   0  0  0  0  0  0  0  0  0  0  0  0
  151.0273  140.5905  155.1412 N   0  0  0  0  0  0  0  0  0  0  0  0
  149.7271  141.0701  155.2884 C   0  0  0  0  0  0  0  0  0  0  0  0
  149.5437  141.5574  156.5749 C   0  0  0  0  0  0  0  0  0  0  0  0
  148.5045  142.1390  157.2773 N   0  0  0  0  0  0  0  0  0  0  0  0
  147.3007  141.9970  156.8200 C   0  0  0  0  0  0  0  0  0  0  0  0
  146.8523  141.4173  155.6422 N   0  0  0  0  0  0  0  0  0  0  0  0
  147.4317  141.7028  154.3409 C   0  0  0  0  0  0  0  0  0  0  0  0
  148.7899  141.0279  154.1159 C   0  0  2  0  0  0  0  0  0  0  0  0
  148.5860  139.6664  153.7976 O   0  0  0  0  0  0  0  0  0  0  0  0
  152.6426  141.4848  158.8868 C   0  0  0  0  0  0  0  0  0  0  0  0
  152.9844  142.6014  159.8679 C   0  0  2  0  0  0  0  0  0  0  0  0
  153.3301  142.0641  161.1288 O   0  0  0  0  0  0  0  0  0  0  0  0
  151.1476  143.1908  160.8689 H   0  0  0  0  0  0  0  0  0  0  0  0
  150.5068  141.1262  159.2734 H   0  0  0  0  0  0  0  0  0  0  0  0
  149.2635  141.4873  153.2476 H   0  0  0  0  0  0  0  0  0  0  0  0
  153.8241  143.1813  159.4825 H   0  0  0  0  0  0  0  0  0  0  0  0
  151.0823  146.0726  161.2234 H   0  0  0  0  0  0  0  0  0  0  0  0
  152.2227  145.2886  158.8995 H   0  0  0  0  0  0  0  0  0  0  0  0
  152.8208  145.2218  160.5507 H   0  0  0  0  0  0  0  0  0  0  0  0
  152.6035  140.5314  156.5406 H   0  0  0  0  0  0  0  0  0  0  0  0
  146.4723  142.3844  157.4148 H   0  0  0  0  0  0  0  0  0  0  0  0
  145.8735  141.1815  155.5642 H   0  0  0  0  0  0  0  0  0  0  0  0
  146.7280  141.4303  153.5537 H   0  0  0  0  0  0  0  0  0  0  0  0
  147.5608  142.7841  154.2732 H   0  0  0  0  0  0  0  0  0  0  0  0
  148.7247  139.5560  152.8691 H   0  0  0  0  0  0  0  0  0  0  0  0
  152.8076  140.4765  159.2687 H   0  0  0  0  0  0  0  0  0  0  0  0
  153.2142  141.6046  157.9662 H   0  0  0  0  0  0  0  0  0  0  0  0
  154.0633  142.5515  161.4720 H   0  0  0  0  0  0  0  0  0  0  0  0
  1  2  1  0  0  0  0
  1 24  1  0  0  0  0
  2  3  1  0  0  0  0
  2 25  1  0  0  0  0
  2 26  1  0  0  0  0
  3 20  1  0  0  0  0
  3 18  1  0  0  0  0
  3  4  1  0  0  0  0
  4  5  1  0  0  0  0
  5 21  1  0  0  0  0
  5  6  1  0  0  0  0
  5 17  1  0  0  0  0
  6 10  1  0  0  0  0
  6  7  1  0  0  0  0
  7  8  2  0  0  0  0
  7 27  1  0  0  0  0
  8  9  1  0  0  0  0
  9 15  1  0  0  0  0
  9 10  2  0  0  0  0
 10 11  1  0  0  0  0
 11 12  2  0  0  0  0
 12 13  1  0  0  0  0
 12 28  1  0  0  0  0
 13 14  1  0  0  0  0
 13 29  1  0  0  0  0
 14 15  1  0  0  0  0
 14 30  1  0  0  0  0
 14 31  1  0  0  0  0
 15 22  1  0  0  0  0
 15 16  1  0  0  0  0
 16 32  1  0  0  0  0
 17 18  1  0  0  0  0
 17 33  1  0  0  0  0
 17 34  1  0  0  0  0
 18 23  1  0  0  0  0
 18 19  1  0  0  0  0
 19 35  1  0  0  0  0
M  END
> <s_m_source_file>
AV-unprocessed.smi

> <i_m_source_file_index>
157

> <i_lp_mmshare_version>
43012

> <i_f3d_flags>
0

> <s_epik_input>
W09IXVtDSDJdW0NASF0xT1tDQEhdKFtDSDJdW0NAQEhdMVtPSF0pbihbY0hdbjIpYyhjMjMpTj1bQ0hdW05IXVtDSDJdW0NASF0zW09IXQ==

> <s_epik_cmdline>
J2VwaWtfcHl0aG9uJywgJy1waCcsICc3LjAnLCAnLXRuJywgJzgnLCAnLW1hJywgJzIwMCcsICctbWV0YWxfYmluZGluZycsICctaW1hZScsICc8aW5maWxlLm1hZT4nLCAnLW9tYWUnLCAnPG91dGZpbGUubWFlPic=

> <r_lp_tautomer_probability>
1

> <r_epik_Ionization_Penalty>
0.0357149

> <r_epik_Ionization_Penalty_Charging>
0.0355056

> <r_epik_Ionization_Penalty_Neutral>
0.000209255

> <r_epik_State_Penalty>
0.0296046

> <r_epik_Charging_Adjusted_Penalty>
0.0651102

> <i_epik_Tot_Q>
0

> <i_epik_Tot_abs_Q>
0

> <r_epik_Metal_State_Penalty>
3.03559e-05

> <b_epik_Metal_Only>
0

> <s_epik_Chemistry_Notes>
This compound has an imine and may undergo hydrolysis. This compound contains an acetal/aminal-like group ( X-CH(R)-Y where X, Y are N, S, or O) that may be acid/base labile, releasing an aldehyde.

> <s_lp_Force_Field>
OPLS_2005

> <r_lp_Energy>
44.773

> <b_lp_Chiralities_Consistent>
1

> <s_lp_Variant>
AV-unprocessed.smi:157-5

> <Gold.Version>
5.8.1

> <Gold.Id.Protein>
6NUR|6NUR_protein|mol2

> <Gold.PLP.Fitness>
42.7395

> <Gold.PLP.PLP>
-37.3467

> <Gold.PLP.part.hbond>
-4.0000

> <Gold.PLP.part.metal>
0.0000

> <Gold.PLP.part.buried>
-6.6307

> <Gold.PLP.part.nonpolar>
-27.6157

> <Gold.PLP.part.repulsive>
0.7336

> <Gold.PLP.ligand.clash>
0.0000

> <Gold.PLP.ligand.torsion>
0.2272

> <Gold.PLP.Chemscore.Hbond>
1.9440

> <Gold.PLP.Chemscore.CHOScore>
0.0000

> <Gold.PLP.Chemscore.Metal>
0.0000

> <Gold.Chemscore.Hbonds>
donor molecule, donor type, donor heavy atom, donor atom, acceptor molecule, acceptor atom, score
      L1  H    16    32       P1  7957  1.00
      P1  H  7989  7998       L1     8  0.94

> <Gold.PLP.Chemscore.Internal.Correction>
0.0153

> <Gold.Rescore>
     Score         DG    S(hbond)    S(metal)    S(lipo)     H(rot)  DE(clash)    DE(int)     intcor
      9.74     -10.02       1.89        0.00      64.49       3.64       0.11       0.17       ----

> <Gold.Chemscore.Fitness>
9.7408

> <Gold.Chemscore.DG>
-10.0206

> <Gold.Chemscore.ZeroCoef>
-5.4800

> <Gold.Chemscore.Hbond>
1.8873

> <Gold.Chemscore.Metal>
0.0000

> <Gold.Chemscore.Lipo>
64.4944

> <Gold.Chemscore.Internal_Hbond>
0.0000

> <Gold.Chemscore.DEClash>
0.1120

> <Gold.Chemscore.DEInternal>
0.1678

> <Gold.Chemscore.Rot>
3.6362

> <Gold.Chemscore.Internal.Correction>
   9.000000E+99

> <Gold.Chemscore.Hbonds>
donor molecule, donor type, donor heavy atom, donor atom, acceptor molecule, acceptor atom, score
      L1  H    16    32       P1  7957  0.95
      P1  H  7989  7998       L1     8  0.71

> <Gold.Chemscore.Hbond.Weighted>
-6.3035

> <Gold.Chemscore.Metal.Weighted>
-0.0000

> <Gold.Chemscore.Lipo.Weighted>
-7.5458

> <Gold.Chemscore.Internal_Hbond.Weighted>
0.0000

> <Gold.Chemscore.DEClash.Weighted>
0.1120

> <Gold.Chemscore.DEInternal.Weighted>
0.1678

> <Gold.Chemscore.Rot.Weighted>
9.3087

> <Gold.Chemscore.Internal.Correction.Weighted>
   9.000000E+99

> <Gold.Protein.RotatedTorsions>
[ 6907 6896 6895 6894 ] final    3.28 input  -60.11 | X-H torsion
[ 7974 7965 7964 7962 ] final -176.17 input  175.53 | X-H torsion
[ 8008 7997 7996 7995 ] final  124.44 input   59.86 | X-H torsion
[ 10167 10162 10161 10158 ] final   73.83 input  -65.29 | X-H torsion
[ 10718 10713 10712 10709 ] final -152.15 input   66.30 | X-H torsion
[ 10763 10752 10751 10750 ] final   32.06 input  -60.55 | X-H torsion
[ 11005 11000 10999 10996 ] final  -64.24 input  -57.11 | X-H torsion

> <Gold.Protein.ActiveResidues>
 VAL166  LYS551  ARG553  GLY616  TRP617  ASP618  TYR619  PRO620  LYS621  CYS622 
 ASP623  PHE694  ASN695  SER759  ASP760  ASP761  ALA762  ILE779  LEU786  VAL792 
 PHE793  MET794  SER795  GLU796  ALA797  LYS798  CYS799  TRP800  GLU811  SER814 

> <Gold.Protein.RotatedAtoms>
  151.6226  135.1030  160.0104 H   0  0  0  0  0  0  0  0  0  0  0  0  # atno 6907 bound_to 6896
  152.4150  133.7019  159.6439 H   0  0  0  0  0  0  0  0  0  0  0  0  # atno 6908 bound_to 6896
  150.8038  133.8474  159.3237 H   0  0  0  0  0  0  0  0  0  0  0  0  # atno 6909 bound_to 6896
  144.7127  140.1210  143.6405 H   0  0  0  0  0  0  0  0  0  0  0  0  # atno 7974 bound_to 7965
  156.2801  140.2739  156.1788 H   0  0  0  0  0  0  0  0  0  0  0  0  # atno 8008 bound_to 7997
  155.0577  140.0386  157.2584 H   0  0  0  0  0  0  0  0  0  0  0  0  # atno 8009 bound_to 7997
  154.7142  140.2675  155.6606 H   0  0  0  0  0  0  0  0  0  0  0  0  # atno 8010 bound_to 7997
  140.0202  144.5546  150.7588 H   0  0  0  0  0  0  0  0  0  0  0  0  # atno 10167 bound_to 10162
  156.4686  130.8247  151.2477 H   0  0  0  0  0  0  0  0  0  0  0  0  # atno 10718 bound_to 10713
  153.0282  135.6423  154.1296 H   0  0  0  0  0  0  0  0  0  0  0  0  # atno 10763 bound_to 10752
  154.1022  135.2858  155.3250 H   0  0  0  0  0  0  0  0  0  0  0  0  # atno 10764 bound_to 10752
  154.6390  135.5466  153.7830 H   0  0  0  0  0  0  0  0  0  0  0  0  # atno 10765 bound_to 10752
  141.1419  133.6663  156.5803 H   0  0  0  0  0  0  0  0  0  0  0  0  # atno 11005 bound_to 11000
  145.9371  139.2644  143.1291 LP  0  0  0  0  0  0  0  0  0  0  0  0  # atno 17320 bound_to 7965
  145.9462  140.8942  143.0282 LP  0  0  0  0  0  0  0  0  0  0  0  0  # atno 17321 bound_to 7965
  140.7345  143.2730  151.3829 LP  0  0  0  0  0  0  0  0  0  0  0  0  # atno 17342 bound_to 10162
  139.6145  144.1031  152.2332 LP  0  0  0  0  0  0  0  0  0  0  0  0  # atno 17343 bound_to 10162
  157.7493  131.0083  150.3225 LP  0  0  0  0  0  0  0  0  0  0  0  0  # atno 17370 bound_to 10713
  156.3642  130.3852  149.7227 LP  0  0  0  0  0  0  0  0  0  0  0  0  # atno 17371 bound_to 10713
  140.3843  134.7496  157.4681 LP  0  0  0  0  0  0  0  0  0  0  0  0  # atno 17394 bound_to 11000
  140.0614  134.5990  155.8744 LP  0  0  0  0  0  0  0  0  0  0  0  0  # atno 17395 bound_to 11000

$$$$
