AV-unprocessed.smi:2187|AV-procd|sdf|8878|dock2
  -GOLD-   2272012 73D 1   1.00000     0.00000
 Structure written by MMmdl.
 42 43  0  0  0  0  0  0  0  0  1 V2000
  152.5649  138.3146  154.8174 C   0  0  0  0  0  0  0  0  0  0  0  0
  151.2830  137.5395  154.9286 C   0  0  0  0  0  0  0  0  0  0  0  0
  151.3280  136.2178  154.9260 N   0  0  0  0  0  0  0  0  0  0  0  0
  150.0434  135.8285  155.0495 N   0  0  0  0  0  0  0  0  0  0  0  0
  149.7333  134.4126  155.0865 C   0  0  0  0  0  0  0  0  0  0  0  0
  149.1848  136.9073  155.1367 C   0  0  0  0  0  0  0  0  0  0  0  0
  147.7075  136.7410  155.2930 C   0  0  0  0  0  0  0  0  0  0  0  0
  149.9528  138.0386  155.0572 C   0  0  0  0  0  0  0  0  0  0  0  0
  149.5095  139.4792  155.1036 C   0  0  0  0  0  0  0  0  0  0  0  0
  150.4923  140.2889  155.9484 C   0  0  0  0  0  0  0  0  0  0  0  0
  151.4800  140.8018  155.4226 O   0  0  0  0  0  0  0  0  0  0  0  0
  150.2048  140.3980  157.2548 N   0  0  0  0  0  0  0  0  0  0  0  0
  150.9704  141.1597  158.2404 C   0  0  2  0  0  0  0  0  0  0  0  0
  151.0868  142.6466  157.8170 C   0  0  0  0  0  0  0  0  0  0  0  0
  152.2873  143.4244  158.3963 C   0  0  0  0  0  0  0  0  0  0  0  0
  152.4365  143.3702  159.9306 C   0  0  0  0  0  0  0  0  0  0  0  0
  152.5121  141.9646  160.5750 C   0  0  0  0  0  0  0  0  0  0  0  0
  152.9690  140.9088  159.6723 N   0  0  0  0  0  0  0  0  0  0  0  0
  152.3021  140.4681  158.5916 C   0  0  0  0  0  0  0  0  0  0  0  0
  152.7456  139.5598  157.8897 O   0  0  0  0  0  0  0  0  0  0  0  0
  152.9442  138.5805  155.8038 H   0  0  0  0  0  0  0  0  0  0  0  0
  152.4213  139.2381  154.2571 H   0  0  0  0  0  0  0  0  0  0  0  0
  153.3392  137.7397  154.3082 H   0  0  0  0  0  0  0  0  0  0  0  0
  148.8364  134.2126  154.5000 H   0  0  0  0  0  0  0  0  0  0  0  0
  149.5617  134.1043  156.1177 H   0  0  0  0  0  0  0  0  0  0  0  0
  150.5571  133.8296  154.6730 H   0  0  0  0  0  0  0  0  0  0  0  0
  147.2268  137.6876  155.5394 H   0  0  0  0  0  0  0  0  0  0  0  0
  147.4772  136.0361  156.0920 H   0  0  0  0  0  0  0  0  0  0  0  0
  147.2612  136.3674  154.3714 H   0  0  0  0  0  0  0  0  0  0  0  0
  149.4477  139.9121  154.1045 H   0  0  0  0  0  0  0  0  0  0  0  0
  148.5110  139.5771  155.5309 H   0  0  0  0  0  0  0  0  0  0  0  0
  149.3677  139.9454  157.5929 H   0  0  0  0  0  0  0  0  0  0  0  0
  150.3843  141.1281  159.1597 H   0  0  0  0  0  0  0  0  0  0  0  0
  151.1506  142.7089  156.7296 H   0  0  0  0  0  0  0  0  0  0  0  0
  150.1636  143.1616  158.0857 H   0  0  0  0  0  0  0  0  0  0  0  0
  153.2080  143.0674  157.9327 H   0  0  0  0  0  0  0  0  0  0  0  0
  152.2048  144.4681  158.0909 H   0  0  0  0  0  0  0  0  0  0  0  0
  153.3454  143.9145  160.1897 H   0  0  0  0  0  0  0  0  0  0  0  0
  151.6231  143.9279  160.3960 H   0  0  0  0  0  0  0  0  0  0  0  0
  153.1819  141.9946  161.4347 H   0  0  0  0  0  0  0  0  0  0  0  0
  151.5389  141.6878  160.9819 H   0  0  0  0  0  0  0  0  0  0  0  0
  153.8490  140.4663  159.8948 H   0  0  0  0  0  0  0  0  0  0  0  0
  1  2  1  0  0  0  0
  1 21  1  0  0  0  0
  1 22  1  0  0  0  0
  1 23  1  0  0  0  0
  2  8  1  0  0  0  0
  2  3  2  0  0  0  0
  3  4  1  0  0  0  0
  4  5  1  0  0  0  0
  4  6  1  0  0  0  0
  5 24  1  0  0  0  0
  5 25  1  0  0  0  0
  5 26  1  0  0  0  0
  6  7  1  0  0  0  0
  6  8  2  0  0  0  0
  7 27  1  0  0  0  0
  7 28  1  0  0  0  0
  7 29  1  0  0  0  0
  8  9  1  0  0  0  0
  9 10  1  0  0  0  0
  9 30  1  0  0  0  0
  9 31  1  0  0  0  0
 10 11  2  0  0  0  0
 10 12  1  0  0  0  0
 12 13  1  0  0  0  0
 12 32  1  0  0  0  0
 13 19  1  0  0  0  0
 13 14  1  0  0  0  0
 13 33  1  0  0  0  0
 14 15  1  0  0  0  0
 14 34  1  0  0  0  0
 14 35  1  0  0  0  0
 15 16  1  0  0  0  0
 15 36  1  0  0  0  0
 15 37  1  0  0  0  0
 16 17  1  0  0  0  0
 16 38  1  0  0  0  0
 16 39  1  0  0  0  0
 17 18  1  0  0  0  0
 17 40  1  0  0  0  0
 17 41  1  0  0  0  0
 18 19  1  0  0  0  0
 18 42  1  0  0  0  0
 19 20  2  0  0  0  0
M  END
> <s_m_source_file>
AV-unprocessed.smi

> <i_m_source_file_index>
2187

> <i_lp_mmshare_version>
43012

> <i_f3d_flags>
0

> <s_epik_input>
W0NIM11jMW5uKFtDSDNdKWMoW0NIM10pYzFbQ0gyXUMoPU8pW05IXVtDQEBIXTJbQ0gyXVtDSDJdW0NIMl1bQ0gyXVtOSF1DMj1P

> <s_epik_cmdline>
J2VwaWtfcHl0aG9uJywgJy1waCcsICc3LjAnLCAnLXRuJywgJzgnLCAnLW1hJywgJzIwMCcsICctbWV0YWxfYmluZGluZycsICctaW1hZScsICc8aW5maWxlLm1hZT4nLCAnLW9tYWUnLCAnPG91dGZpbGUubWFlPic=

> <r_lp_tautomer_probability>
1

> <r_epik_Ionization_Penalty>
0.00280384

> <r_epik_Ionization_Penalty_Charging>
0

> <r_epik_Ionization_Penalty_Neutral>
0.00280384

> <r_epik_State_Penalty>
0.00195959

> <r_epik_Charging_Adjusted_Penalty>
0.00195959

> <i_epik_Tot_Q>
0

> <i_epik_Tot_abs_Q>
0

> <r_epik_Metal_State_Penalty>
-0

> <b_epik_Metal_Only>
0

> <s_lp_Force_Field>
OPLS_2005

> <r_lp_Energy>
9.17358

> <b_lp_Chiralities_Consistent>
1

> <s_lp_Variant>
AV-unprocessed.smi:2187-1

> <Gold.Version>
5.8.1

> <Gold.Id.Protein>
6NUR|6NUR_protein|mol2

> <Gold.PLP.Fitness>
42.7896

> <Gold.PLP.PLP>
-36.0716

> <Gold.PLP.part.hbond>
-3.0000

> <Gold.PLP.part.metal>
0.0000

> <Gold.PLP.part.buried>
-4.9095

> <Gold.PLP.part.nonpolar>
-29.4018

> <Gold.PLP.part.repulsive>
0.3183

> <Gold.PLP.ligand.clash>
0.0000

> <Gold.PLP.ligand.torsion>
0.7258

> <Gold.PLP.Chemscore.Hbond>
2.7040

> <Gold.PLP.Chemscore.CHOScore>
0.0000

> <Gold.PLP.Chemscore.Metal>
0.0000

> <Gold.Chemscore.Hbonds>
donor molecule, donor type, donor heavy atom, donor atom, acceptor molecule, acceptor atom, score
      P1  H  7989  7998       L1    11  0.69
      P1  H  7997  8010       L1    20  0.89
      P1  H 10752 10765       L1     3  1.00

> <Gold.PLP.Chemscore.Internal.Correction>
0.0575

> <Gold.Rescore>
     Score         DG    S(hbond)    S(metal)    S(lipo)     H(rot)  DE(clash)    DE(int)     intcor
     16.27     -20.04       2.60        0.00      82.25       1.46       0.07       3.70       ----

> <Gold.Chemscore.Fitness>
16.2729

> <Gold.Chemscore.DG>
-20.0447

> <Gold.Chemscore.ZeroCoef>
-5.4800

> <Gold.Chemscore.Hbond>
2.5969

> <Gold.Chemscore.Metal>
0.0000

> <Gold.Chemscore.Lipo>
82.2475

> <Gold.Chemscore.Internal_Hbond>
0.0000

> <Gold.Chemscore.DEClash>
0.0724

> <Gold.Chemscore.DEInternal>
3.6994

> <Gold.Chemscore.Rot>
1.4578

> <Gold.Chemscore.Internal.Correction>
   9.000000E+99

> <Gold.Chemscore.Hbonds>
donor molecule, donor type, donor heavy atom, donor atom, acceptor molecule, acceptor atom, score
      P1  H  7989  7998       L1    11  0.67
      P1  H  7997  8010       L1    20  0.74
      P1  H 10752 10765       L1     3  0.82

> <Gold.Chemscore.Hbond.Weighted>
-8.6738

> <Gold.Chemscore.Metal.Weighted>
-0.0000

> <Gold.Chemscore.Lipo.Weighted>
-9.6230

> <Gold.Chemscore.Internal_Hbond.Weighted>
0.0000

> <Gold.Chemscore.DEClash.Weighted>
0.0724

> <Gold.Chemscore.DEInternal.Weighted>
3.6994

> <Gold.Chemscore.Rot.Weighted>
3.7321

> <Gold.Chemscore.Internal.Correction.Weighted>
   9.000000E+99

> <Gold.Protein.RotatedTorsions>
[ 6907 6896 6895 6894 ] final  151.35 input  -60.11 | X-H torsion
[ 7974 7965 7964 7962 ] final  126.01 input  175.53 | X-H torsion
[ 8008 7997 7996 7995 ] final   40.51 input   59.86 | X-H torsion
[ 10167 10162 10161 10158 ] final   60.28 input  -65.29 | X-H torsion
[ 10718 10713 10712 10709 ] final  130.68 input   66.30 | X-H torsion
[ 10763 10752 10751 10750 ] final  174.10 input  -60.55 | X-H torsion
[ 11005 11000 10999 10996 ] final  -75.32 input  -57.11 | X-H torsion

> <Gold.Protein.ActiveResidues>
 VAL166  LYS551  ARG553  GLY616  TRP617  ASP618  TYR619  PRO620  LYS621  CYS622 
 ASP623  PHE694  ASN695  SER759  ASP760  ASP761  ALA762  ILE779  LEU786  VAL792 
 PHE793  MET794  SER795  GLU796  ALA797  LYS798  CYS799  TRP800  GLU811  SER814 

> <Gold.Protein.RotatedAtoms>
  152.1019  133.4254  159.4590 H   0  0  0  0  0  0  0  0  0  0  0  0  # atno 6907 bound_to 6896
  150.6864  134.2750  159.4613 H   0  0  0  0  0  0  0  0  0  0  0  0  # atno 6908 bound_to 6896
  152.0611  134.9593  160.0625 H   0  0  0  0  0  0  0  0  0  0  0  0  # atno 6909 bound_to 6896
  145.0666  139.3763  143.4979 H   0  0  0  0  0  0  0  0  0  0  0  0  # atno 7974 bound_to 7965
  155.2543  140.3354  155.4279 H   0  0  0  0  0  0  0  0  0  0  0  0  # atno 8008 bound_to 7997
  156.2202  140.1806  156.7538 H   0  0  0  0  0  0  0  0  0  0  0  0  # atno 8009 bound_to 7997
  154.5814  140.0653  156.9094 H   0  0  0  0  0  0  0  0  0  0  0  0  # atno 8010 bound_to 7997
  140.1673  144.4311  150.6679 H   0  0  0  0  0  0  0  0  0  0  0  0  # atno 10167 bound_to 10162
  157.5039  131.1095  150.9388 H   0  0  0  0  0  0  0  0  0  0  0  0  # atno 10718 bound_to 10713
  154.4492  135.2764  155.1793 H   0  0  0  0  0  0  0  0  0  0  0  0  # atno 10763 bound_to 10752
  154.3627  135.6126  153.5702 H   0  0  0  0  0  0  0  0  0  0  0  0  # atno 10764 bound_to 10752
  152.9846  135.5838  154.4833 H   0  0  0  0  0  0  0  0  0  0  0  0  # atno 10765 bound_to 10752
  141.1644  133.6942  156.7499 H   0  0  0  0  0  0  0  0  0  0  0  0  # atno 11005 bound_to 11000
  146.3527  140.0390  142.8644 LP  0  0  0  0  0  0  0  0  0  0  0  0  # atno 17320 bound_to 7965
  145.1344  140.9536  143.4525 LP  0  0  0  0  0  0  0  0  0  0  0  0  # atno 17321 bound_to 7965
  140.6605  143.2250  151.5868 LP  0  0  0  0  0  0  0  0  0  0  0  0  # atno 17342 bound_to 10162
  139.5354  144.2797  152.1239 LP  0  0  0  0  0  0  0  0  0  0  0  0  # atno 17343 bound_to 10162
  157.0050  130.5614  149.5315 LP  0  0  0  0  0  0  0  0  0  0  0  0  # atno 17370 bound_to 10713
  156.0246  130.5340  150.8372 LP  0  0  0  0  0  0  0  0  0  0  0  0  # atno 17371 bound_to 10713
  140.2612  134.8465  157.3760 LP  0  0  0  0  0  0  0  0  0  0  0  0  # atno 17394 bound_to 11000
  140.1609  134.4729  155.7895 LP  0  0  0  0  0  0  0  0  0  0  0  0  # atno 17395 bound_to 11000

$$$$
