AV-unprocessed.smi:69|AV-procd|sdf|650|dock3
  -GOLD-   2262016543D 1   1.00000     0.00000
 Structure written by MMmdl.
 32 34  0  0  0  0  0  0  0  0  1 V2000
  154.0402  141.6904  161.0183 N   0  0  0  0  0  0  0  0  0  0  0  0
  153.2681  142.1944  160.0460 C   0  0  0  0  0  0  0  0  0  0  0  0
  152.9182  143.5008  160.1131 N   0  0  0  0  0  0  0  0  0  0  0  0
  152.1455  144.0266  159.1561 C   0  0  0  0  0  0  0  0  0  0  0  0
  151.6306  143.4323  158.0757 N   0  0  0  0  0  0  0  0  0  0  0  0
  151.9887  142.1165  158.0117 C   0  0  0  0  0  0  0  0  0  0  0  0
  152.7991  141.4238  158.9522 C   0  0  0  0  0  0  0  0  0  0  0  0
  152.9451  140.0980  158.5638 N   0  0  0  0  0  0  0  0  0  0  0  0
  152.2568  140.0170  157.4558 C   0  0  0  0  0  0  0  0  0  0  0  0
  151.6515  141.1884  157.0526 N   0  0  0  0  0  0  0  0  0  0  0  0
  150.7967  141.4391  155.8535 C   0  0  1  0  0  0  0  0  0  0  0  0
  150.6850  140.2588  155.1298 O   0  0  0  0  0  0  0  0  0  0  0  0
  149.4882  140.3097  154.3623 C   0  0  1  0  0  0  0  0  0  0  0  0
  148.8988  138.8935  154.2356 C   0  0  0  0  0  0  0  0  0  0  0  0
  148.3820  138.6527  152.9430 O   0  0  0  0  0  0  0  0  0  0  0  0
  148.5742  141.3713  155.0137 C   0  0  2  0  0  0  0  0  0  0  0  0
  148.3817  142.4441  154.1113 O   0  0  0  0  0  0  0  0  0  0  0  0
  149.3669  141.8535  156.2243 C   0  0  1  0  0  0  0  0  0  0  0  0
  148.9017  141.2394  157.4130 O   0  0  0  0  0  0  0  0  0  0  0  0
  151.3238  142.1892  155.2607 H   0  0  0  0  0  0  0  0  0  0  0  0
  149.7865  140.6390  153.3651 H   0  0  0  0  0  0  0  0  0  0  0  0
  147.5932  140.9839  155.2920 H   0  0  0  0  0  0  0  0  0  0  0  0
  149.3225  142.9348  156.3634 H   0  0  0  0  0  0  0  0  0  0  0  0
  154.3125  140.7182  160.9901 H   0  0  0  0  0  0  0  0  0  0  0  0
  154.3462  142.2820  161.7772 H   0  0  0  0  0  0  0  0  0  0  0  0
  151.9043  145.0728  159.2730 H   0  0  0  0  0  0  0  0  0  0  0  0
  152.1661  139.0936  156.9018 H   0  0  0  0  0  0  0  0  0  0  0  0
  149.6762  138.1538  154.4277 H   0  0  0  0  0  0  0  0  0  0  0  0
  148.1161  138.7348  154.9780 H   0  0  0  0  0  0  0  0  0  0  0  0
  148.6500  137.7894  152.6672 H   0  0  0  0  0  0  0  0  0  0  0  0
  148.4589  143.2557  154.5896 H   0  0  0  0  0  0  0  0  0  0  0  0
  148.0104  140.9583  157.2721 H   0  0  0  0  0  0  0  0  0  0  0  0
  1  2  1  0  0  0  0
  1 24  1  0  0  0  0
  1 25  1  0  0  0  0
  2  7  1  0  0  0  0
  2  3  2  0  0  0  0
  3  4  1  0  0  0  0
  4  5  2  0  0  0  0
  4 26  1  0  0  0  0
  5  6  1  0  0  0  0
  6 10  1  0  0  0  0
  6  7  2  0  0  0  0
  7  8  1  0  0  0  0
  8  9  2  0  0  0  0
  9 10  1  0  0  0  0
  9 27  1  0  0  0  0
 10 11  1  0  0  0  0
 11 20  1  0  0  0  0
 11 18  1  0  0  0  0
 11 12  1  0  0  0  0
 12 13  1  0  0  0  0
 13 21  1  0  0  0  0
 13 14  1  0  0  0  0
 13 16  1  0  0  0  0
 14 15  1  0  0  0  0
 14 28  1  0  0  0  0
 14 29  1  0  0  0  0
 15 30  1  0  0  0  0
 16 22  1  0  0  0  0
 16 17  1  0  0  0  0
 16 18  1  0  0  0  0
 17 31  1  0  0  0  0
 18 23  1  0  0  0  0
 18 19  1  0  0  0  0
 19 32  1  0  0  0  0
M  END
> <s_m_source_file>
AV-unprocessed.smi

> <i_m_source_file_index>
69

> <i_lp_mmshare_version>
43012

> <i_f3d_flags>
0

> <s_epik_input>
bjFbY0hdbmMoW05IMl0pYyhjMTIpbltjSF1uMltDQEBIXTNPW0NASF0oW0NIMl1bT0hdKVtDQEBIXShbT0hdKVtDQEhdM1tPSF0=

> <s_epik_cmdline>
J2VwaWtfcHl0aG9uJywgJy1waCcsICc3LjAnLCAnLXRuJywgJzgnLCAnLW1hJywgJzIwMCcsICctbWV0YWxfYmluZGluZycsICctaW1hZScsICc8aW5maWxlLm1hZT4nLCAnLW9tYWUnLCAnPG91dGZpbGUubWFlPic=

> <r_lp_tautomer_probability>
1

> <r_epik_Ionization_Penalty>
0.000428445

> <r_epik_Ionization_Penalty_Charging>
0

> <r_epik_Ionization_Penalty_Neutral>
0.000428445

> <r_epik_State_Penalty>
-0

> <r_epik_Charging_Adjusted_Penalty>
0

> <i_epik_Tot_Q>
0

> <i_epik_Tot_abs_Q>
0

> <r_epik_Metal_State_Penalty>
-0

> <b_epik_Metal_Only>
0

> <s_epik_Chemistry_Notes>
This compound contains an acetal/aminal-like group ( X-CH(R)-Y where X, Y are N, S, or O) that may be acid/base labile, releasing an aldehyde.

> <s_lp_Force_Field>
OPLS_2005

> <r_lp_Energy>
41.0304

> <b_lp_Chiralities_Consistent>
1

> <s_lp_Variant>
AV-unprocessed.smi:69-8

> <Gold.Version>
5.8.1

> <Gold.Id.Protein>
6NUR|6NUR_protein|mol2

> <Gold.PLP.Fitness>
40.7823

> <Gold.PLP.PLP>
-34.9412

> <Gold.PLP.part.hbond>
-5.0884

> <Gold.PLP.part.metal>
0.0000

> <Gold.PLP.part.buried>
-4.4267

> <Gold.PLP.part.nonpolar>
-23.9004

> <Gold.PLP.part.repulsive>
0.1481

> <Gold.PLP.ligand.clash>
0.0000

> <Gold.PLP.ligand.torsion>
0.5542

> <Gold.PLP.Chemscore.Hbond>
2.3138

> <Gold.PLP.Chemscore.CHOScore>
0.0000

> <Gold.PLP.Chemscore.Metal>
0.0000

> <Gold.Chemscore.Hbonds>
donor molecule, donor type, donor heavy atom, donor atom, acceptor molecule, acceptor atom, score
      L1  H    15    30       P1  7948  1.00
      L1  H    17    31       P1  8028  1.00
      P1  H  7989  7998       L1    12  0.30
      P1  H  8011  8017       L1    17  0.08

> <Gold.PLP.Chemscore.Internal.Correction>
0.0082

> <Gold.Rescore>
     Score         DG    S(hbond)    S(metal)    S(lipo)     H(rot)  DE(clash)    DE(int)     intcor
      5.83      -6.38       2.14        0.00      34.86       4.03       0.02       0.54       ----

> <Gold.Chemscore.Fitness>
5.8298

> <Gold.Chemscore.DG>
-6.3812

> <Gold.Chemscore.ZeroCoef>
-5.4800

> <Gold.Chemscore.Hbond>
2.1357

> <Gold.Chemscore.Metal>
0.0000

> <Gold.Chemscore.Lipo>
34.8632

> <Gold.Chemscore.Internal_Hbond>
0.0000

> <Gold.Chemscore.DEClash>
0.0153

> <Gold.Chemscore.DEInternal>
0.5362

> <Gold.Chemscore.Rot>
4.0277

> <Gold.Chemscore.Internal.Correction>
   9.000000E+99

> <Gold.Chemscore.Hbonds>
donor molecule, donor type, donor heavy atom, donor atom, acceptor molecule, acceptor atom, score
      L1  H    15    30       P1  7948  1.00
      L1  H    17    31       P1  8028  1.00
      P1  H  8011  8017       L1    17  0.05

> <Gold.Chemscore.Hbond.Weighted>
-7.1332

> <Gold.Chemscore.Metal.Weighted>
-0.0000

> <Gold.Chemscore.Lipo.Weighted>
-4.0790

> <Gold.Chemscore.Internal_Hbond.Weighted>
0.0000

> <Gold.Chemscore.DEClash.Weighted>
0.0153

> <Gold.Chemscore.DEInternal.Weighted>
0.5362

> <Gold.Chemscore.Rot.Weighted>
10.3110

> <Gold.Chemscore.Internal.Correction.Weighted>
   9.000000E+99

> <Gold.Protein.RotatedTorsions>
[ 6907 6896 6895 6894 ] final   68.15 input  -60.11 | X-H torsion
[ 7974 7965 7964 7962 ] final -130.92 input  175.53 | X-H torsion
[ 8008 7997 7996 7995 ] final  179.92 input   59.86 | X-H torsion
[ 10167 10162 10161 10158 ] final -130.83 input  -65.29 | X-H torsion
[ 10718 10713 10712 10709 ] final  124.19 input   66.30 | X-H torsion
[ 10763 10752 10751 10750 ] final  -15.13 input  -60.55 | X-H torsion
[ 11005 11000 10999 10996 ] final  -55.82 input  -57.11 | X-H torsion

> <Gold.Protein.ActiveResidues>
 VAL166  LYS551  ARG553  GLY616  TRP617  ASP618  TYR619  PRO620  LYS621  CYS622 
 ASP623  PHE694  ASN695  SER759  ASP760  ASP761  ALA762  ILE779  LEU786  VAL792 
 PHE793  MET794  SER795  GLU796  ALA797  LYS798  CYS799  TRP800  GLU811  SER814 

> <Gold.Protein.RotatedAtoms>
  152.4600  134.5205  159.9780 H   0  0  0  0  0  0  0  0  0  0  0  0  # atno 6907 bound_to 6896
  151.5256  133.3452  159.2917 H   0  0  0  0  0  0  0  0  0  0  0  0  # atno 6908 bound_to 6896
  150.8560  134.7928  159.7108 H   0  0  0  0  0  0  0  0  0  0  0  0  # atno 6909 bound_to 6896
  144.9428  140.7258  143.4836 H   0  0  0  0  0  0  0  0  0  0  0  0  # atno 7974 bound_to 7965
  156.0379  140.1297  157.0187 H   0  0  0  0  0  0  0  0  0  0  0  0  # atno 8008 bound_to 7997
  154.4378  140.1036  156.6265 H   0  0  0  0  0  0  0  0  0  0  0  0  # atno 8009 bound_to 7997
  155.5710  140.3466  155.4517 H   0  0  0  0  0  0  0  0  0  0  0  0  # atno 8010 bound_to 7997
  139.9252  143.6336  152.2544 H   0  0  0  0  0  0  0  0  0  0  0  0  # atno 10167 bound_to 10162
  157.5604  131.1090  150.8547 H   0  0  0  0  0  0  0  0  0  0  0  0  # atno 10718 bound_to 10713
  153.5387  135.7013  153.5647 H   0  0  0  0  0  0  0  0  0  0  0  0  # atno 10763 bound_to 10752
  153.3623  135.3966  155.1727 H   0  0  0  0  0  0  0  0  0  0  0  0  # atno 10764 bound_to 10752
  154.8676  135.3791  154.4890 H   0  0  0  0  0  0  0  0  0  0  0  0  # atno 10765 bound_to 10752
  141.1091  133.6611  156.4526 H   0  0  0  0  0  0  0  0  0  0  0  0  # atno 11005 bound_to 11000
  145.2964  139.1865  143.4713 LP  0  0  0  0  0  0  0  0  0  0  0  0  # atno 17320 bound_to 7965
  146.3292  140.2949  142.8617 LP  0  0  0  0  0  0  0  0  0  0  0  0  # atno 17321 bound_to 7965
  139.6828  144.7654  151.1578 LP  0  0  0  0  0  0  0  0  0  0  0  0  # atno 17342 bound_to 10162
  140.7652  143.5700  150.9006 LP  0  0  0  0  0  0  0  0  0  0  0  0  # atno 17343 bound_to 10162
  156.9047  130.5259  149.5282 LP  0  0  0  0  0  0  0  0  0  0  0  0  # atno 17370 bound_to 10713
  156.0658  130.5701  150.9285 LP  0  0  0  0  0  0  0  0  0  0  0  0  # atno 17371 bound_to 10713
  140.4822  134.6654  157.5176 LP  0  0  0  0  0  0  0  0  0  0  0  0  # atno 17394 bound_to 11000
  139.9976  134.6886  155.9583 LP  0  0  0  0  0  0  0  0  0  0  0  0  # atno 17395 bound_to 11000

$$$$
