AV-unprocessed.smi:38|AV-procd|sdf|350|dock2
  -GOLD-   2262016193D 1   1.00000     0.00000
 Structure written by MMmdl.
 27 28  0  0  0  0  0  0  0  0  2 V2000
  151.8064  135.1622  156.8865 O   0  0  0  0  0  0  0  0  0  0  0  0
  151.6935  136.3636  156.6484 C   0  0  0  0  0  0  0  0  0  0  0  0
  152.5265  137.0296  155.7972 N   0  5  0  0  0  0  0  0  0  0  0  0
  152.3990  138.3632  155.5332 C   0  0  0  0  0  0  0  0  0  0  0  0
  153.1581  138.9748  154.7812 O   0  0  0  0  0  0  0  0  0  0  0  0
  151.3495  139.0912  156.1585 N   0  0  0  0  0  0  0  0  0  0  0  0
  151.2049  140.5718  155.8736 C   0  0  2  0  0  0  0  0  0  0  0  0
  150.3680  141.2442  156.9648 C   0  0  0  0  0  0  0  0  0  0  0  0
  148.9901  141.2474  156.3367 C   0  0  1  0  0  0  0  0  0  0  0  0
  148.1879  142.2728  156.8852 O   0  0  0  0  0  0  0  0  0  0  0  0
  149.3208  141.4852  154.8613 C   0  0  2  0  0  0  0  0  0  0  0  0
  148.2284  140.9935  153.8984 C   0  0  0  0  0  0  0  0  0  0  0  0
  148.5151  139.6810  153.4646 O   0  0  0  0  0  0  0  0  0  0  0  0
  150.5284  140.7499  154.6608 O   0  0  0  0  0  0  0  0  0  0  0  0
  150.4964  138.4424  157.0359 C   0  0  0  0  0  0  0  0  0  0  0  0
  150.6295  137.1264  157.2979 C   0  0  0  0  0  0  0  0  0  0  0  0
  149.7866  136.5262  158.1558 F   0  0  0  0  0  0  0  0  0  0  0  0
  152.2194  140.9642  155.7871 H   0  0  0  0  0  0  0  0  0  0  0  0
  148.5104  140.2775  156.4764 H   0  0  0  0  0  0  0  0  0  0  0  0
  149.5322  142.5453  154.7066 H   0  0  0  0  0  0  0  0  0  0  0  0
  150.4217  140.7194  157.9197 H   0  0  0  0  0  0  0  0  0  0  0  0
  150.7404  142.2609  157.1000 H   0  0  0  0  0  0  0  0  0  0  0  0
  148.5239  143.1051  156.5896 H   0  0  0  0  0  0  0  0  0  0  0  0
  147.2407  141.0339  154.3572 H   0  0  0  0  0  0  0  0  0  0  0  0
  148.1979  141.6288  153.0129 H   0  0  0  0  0  0  0  0  0  0  0  0
  148.9493  139.7300  152.6269 H   0  0  0  0  0  0  0  0  0  0  0  0
  149.7084  138.9876  157.5308 H   0  0  0  0  0  0  0  0  0  0  0  0
  1  2  2  0  0  0  0
  2 16  1  0  0  0  0
  2  3  1  0  0  0  0
  3  4  1  0  0  0  0
  4  5  2  0  0  0  0
  4  6  1  0  0  0  0
  6  7  1  0  0  0  0
  6 15  1  0  0  0  0
  7 18  1  0  0  0  0
  7 14  1  0  0  0  0
  7  8  1  0  0  0  0
  8  9  1  0  0  0  0
  8 21  1  0  0  0  0
  8 22  1  0  0  0  0
  9 19  1  0  0  0  0
  9 10  1  0  0  0  0
  9 11  1  0  0  0  0
 10 23  1  0  0  0  0
 11 20  1  0  0  0  0
 11 12  1  0  0  0  0
 11 14  1  0  0  0  0
 12 13  1  0  0  0  0
 12 24  1  0  0  0  0
 12 25  1  0  0  0  0
 13 26  1  0  0  0  0
 15 16  2  0  0  0  0
 15 27  1  0  0  0  0
 16 17  1  0  0  0  0
M  CHG  1   3  -1
M  END
> <s_m_source_file>
AV-unprocessed.smi

> <i_m_source_file_index>
38

> <i_lp_mmshare_version>
43012

> <i_f3d_flags>
0

> <s_epik_input>
Tz1jMVtuSF1jKD1PKW4oW2NIXWMxRilbQ0BIXTJbQ0gyXVtDQEhdKFtPSF0pW0NASF0oTzIpW0NIMl1bT0hd

> <s_epik_cmdline>
J2VwaWtfcHl0aG9uJywgJy1waCcsICc3LjAnLCAnLXRuJywgJzgnLCAnLW1hJywgJzIwMCcsICctbWV0YWxfYmluZGluZycsICctaW1hZScsICc8aW5maWxlLm1hZT4nLCAnLW9tYWUnLCAnPG91dGZpbGUubWFlPic=

> <r_epik_Ionization_Penalty>
1.68146

> <r_epik_Ionization_Penalty_Charging>
3.4211e-08

> <r_epik_Ionization_Penalty_Neutral>
1.68146

> <r_epik_State_Penalty>
1.78593

> <r_epik_Charging_Adjusted_Penalty>
1.78593

> <i_epik_Tot_Q>
-1

> <i_epik_Tot_abs_Q>
1

> <r_epik_Metal_State_Penalty>
0.0113696

> <b_epik_Metal_Only>
0

> <s_epik_Chemistry_Notes>
This compound contains an acetal/aminal-like group ( X-CH(R)-Y where X, Y are N, S, or O) that may be acid/base labile, releasing an aldehyde.

> <s_lp_Force_Field>
OPLS_2005

> <r_lp_Energy>
36.3433

> <b_lp_Chiralities_Consistent>
1

> <s_lp_Variant>
AV-unprocessed.smi:38-16

> <Gold.Version>
5.8.1

> <Gold.Id.Protein>
6NUR|6NUR_protein|mol2

> <Gold.PLP.Fitness>
40.5440

> <Gold.PLP.PLP>
-25.5482

> <Gold.PLP.part.hbond>
-5.9951

> <Gold.PLP.part.metal>
0.0000

> <Gold.PLP.part.buried>
-3.3844

> <Gold.PLP.part.nonpolar>
-17.6462

> <Gold.PLP.part.repulsive>
0.1051

> <Gold.PLP.ligand.clash>
0.0000

> <Gold.PLP.ligand.torsion>
1.0394

> <Gold.PLP.Chemscore.Hbond>
5.6880

> <Gold.PLP.Chemscore.CHOScore>
0.0000

> <Gold.PLP.Chemscore.Metal>
0.0000

> <Gold.Chemscore.Hbonds>
donor molecule, donor type, donor heavy atom, donor atom, acceptor molecule, acceptor atom, score
      L1  H    10    23       P1  8028  1.00
      L1  H    13    26       P1  7957  1.00
      P1  H  7989  7998       L1    14  0.86
      P1  H  7997  8010       L1     5  0.84
      P1  H 10752 10765       L1     3  1.12

> <Gold.PLP.Chemscore.Internal.Correction>
0.0107

> <Gold.Rescore>
     Score         DG    S(hbond)    S(metal)    S(lipo)     H(rot)  DE(clash)    DE(int)     intcor
     15.09     -16.23       4.30        0.00      32.33       2.88       0.07       1.08       ----

> <Gold.Chemscore.Fitness>
15.0871

> <Gold.Chemscore.DG>
-16.2327

> <Gold.Chemscore.ZeroCoef>
-5.4800

> <Gold.Chemscore.Hbond>
4.2954

> <Gold.Chemscore.Metal>
0.0000

> <Gold.Chemscore.Lipo>
32.3313

> <Gold.Chemscore.Internal_Hbond>
0.0000

> <Gold.Chemscore.DEClash>
0.0655

> <Gold.Chemscore.DEInternal>
1.0801

> <Gold.Chemscore.Rot>
2.8815

> <Gold.Chemscore.Internal.Correction>
   9.000000E+99

> <Gold.Chemscore.Hbonds>
donor molecule, donor type, donor heavy atom, donor atom, acceptor molecule, acceptor atom, score
      L1  H    10    23       P1  8028  0.74
      L1  H    13    26       P1  7957  1.00
      P1  H  7989  7998       L1    14  0.55
      P1  H  7997  8010       L1     5  0.61
      P1  H 10752 10765       L1     3  0.06

> <Gold.Chemscore.Hbond.Weighted>
-14.3465

> <Gold.Chemscore.Metal.Weighted>
-0.0000

> <Gold.Chemscore.Lipo.Weighted>
-3.7828

> <Gold.Chemscore.Internal_Hbond.Weighted>
0.0000

> <Gold.Chemscore.DEClash.Weighted>
0.0655

> <Gold.Chemscore.DEInternal.Weighted>
1.0801

> <Gold.Chemscore.Rot.Weighted>
7.3765

> <Gold.Chemscore.Internal.Correction.Weighted>
   9.000000E+99

> <Gold.Protein.RotatedTorsions>
[ 6907 6896 6895 6894 ] final  -94.46 input  -60.11 | X-H torsion
[ 7974 7965 7964 7962 ] final  152.24 input  175.53 | X-H torsion
[ 8008 7997 7996 7995 ] final  102.46 input   59.86 | X-H torsion
[ 10167 10162 10161 10158 ] final -129.84 input  -65.29 | X-H torsion
[ 10718 10713 10712 10709 ] final  -46.38 input   66.30 | X-H torsion
[ 10763 10752 10751 10750 ] final -150.07 input  -60.55 | X-H torsion
[ 11005 11000 10999 10996 ] final  -97.64 input  -57.11 | X-H torsion

> <Gold.Protein.ActiveResidues>
 VAL166  LYS551  ARG553  GLY616  TRP617  ASP618  TYR619  PRO620  LYS621  CYS622 
 ASP623  PHE694  ASN695  SER759  ASP760  ASP761  ALA762  ILE779  LEU786  VAL792 
 PHE793  MET794  SER795  GLU796  ALA797  LYS798  CYS799  TRP800  GLU811  SER814 

> <Gold.Protein.RotatedAtoms>
  150.6942  134.1809  159.4248 H   0  0  0  0  0  0  0  0  0  0  0  0  # atno 6907 bound_to 6896
  151.9784  135.0039  160.0565 H   0  0  0  0  0  0  0  0  0  0  0  0  # atno 6908 bound_to 6896
  152.1778  133.4651  159.4979 H   0  0  0  0  0  0  0  0  0  0  0  0  # atno 6909 bound_to 6896
  144.8236  139.6643  143.6090 H   0  0  0  0  0  0  0  0  0  0  0  0  # atno 7974 bound_to 7965
  156.1394  140.3181  155.8472 H   0  0  0  0  0  0  0  0  0  0  0  0  # atno 8008 bound_to 7997
  155.4182  140.0510  157.3044 H   0  0  0  0  0  0  0  0  0  0  0  0  # atno 8009 bound_to 7997
  154.4964  140.2112  155.9451 H   0  0  0  0  0  0  0  0  0  0  0  0  # atno 8010 bound_to 7997
  139.9356  143.6222  152.2518 H   0  0  0  0  0  0  0  0  0  0  0  0  # atno 10167 bound_to 10162
  156.2189  130.4165  149.9018 H   0  0  0  0  0  0  0  0  0  0  0  0  # atno 10718 bound_to 10713
  154.8140  135.3293  154.7226 H   0  0  0  0  0  0  0  0  0  0  0  0  # atno 10763 bound_to 10752
  153.7870  135.6914  153.4882 H   0  0  0  0  0  0  0  0  0  0  0  0  # atno 10764 bound_to 10752
  153.1942  135.4540  155.0134 H   0  0  0  0  0  0  0  0  0  0  0  0  # atno 10765 bound_to 10752
  141.1372  133.8186  157.0733 H   0  0  0  0  0  0  0  0  0  0  0  0  # atno 11005 bound_to 11000
  146.2541  139.6264  142.9407 LP  0  0  0  0  0  0  0  0  0  0  0  0  # atno 17320 bound_to 7965
  145.5050  141.0437  143.2519 LP  0  0  0  0  0  0  0  0  0  0  0  0  # atno 17321 bound_to 7965
  139.6746  144.7659  151.1719 LP  0  0  0  0  0  0  0  0  0  0  0  0  # atno 17342 bound_to 10162
  140.7625  143.5814  150.8891 LP  0  0  0  0  0  0  0  0  0  0  0  0  # atno 17343 bound_to 10162
  156.6671  130.8805  151.3556 LP  0  0  0  0  0  0  0  0  0  0  0  0  # atno 17370 bound_to 10713
  157.7077  130.9404  150.0986 LP  0  0  0  0  0  0  0  0  0  0  0  0  # atno 17371 bound_to 10713
  140.0498  134.9811  157.1115 LP  0  0  0  0  0  0  0  0  0  0  0  0  # atno 17394 bound_to 11000
  140.4008  134.2085  155.7163 LP  0  0  0  0  0  0  0  0  0  0  0  0  # atno 17395 bound_to 11000

$$$$
