AV-unprocessed.smi:712|AV-procd|sdf|3470|dock2
  -GOLD-   22720 0463D 1   1.00000     0.00000
 Structure written by MMmdl.
 51 52  0  0  0  0  0  0  0  0  2 V2000
  152.1460  144.6964  159.6362 C   0  0  0  0  0  0  0  0  0  0  0  0
  151.7597  143.3982  158.9579 C   0  0  0  0  0  0  0  0  0  0  0  0
  150.4350  143.2194  158.4006 C   0  0  0  0  0  0  0  0  0  0  0  0
  150.1280  142.0568  157.8046 C   0  0  0  0  0  0  0  0  0  0  0  0
  151.0558  141.0041  157.7062 N   0  0  0  0  0  0  0  0  0  0  0  0
  150.6100  139.7722  157.0340 C   0  0  0  0  0  0  0  0  0  0  0  0
  150.1003  140.0211  155.6078 C   0  0  0  0  0  0  0  0  0  0  0  0
  150.8346  140.5279  154.7588 O   0  0  0  0  0  0  0  0  0  0  0  0
  148.8356  139.6493  155.3586 N   0  0  0  0  0  0  0  0  0  0  0  0
  148.1394  139.8410  154.0908 C   0  0  0  0  0  0  0  0  0  0  0  0
  147.2629  138.6251  153.7390 C   0  0  2  0  0  0  0  0  0  0  0  0
  146.5755  138.7941  152.3657 C   0  0  0  0  0  0  0  0  0  0  0  0
  145.6480  137.6710  152.0692 N   0  3  1  0  0  0  0  0  0  0  0  0
  146.3062  136.4136  151.6200 C   0  0  0  0  0  0  0  0  0  0  0  0
  145.3542  135.1975  151.6182 C   0  0  0  0  0  0  0  0  0  0  0  0
  146.1226  133.8660  151.5764 C   0  0  0  0  0  0  0  0  0  0  0  0
  144.3707  135.2850  150.4416 C   0  0  0  0  0  0  0  0  0  0  0  0
  144.6977  137.4742  153.1909 C   0  0  0  0  0  0  0  0  0  0  0  0
  145.4421  137.3322  154.5301 C   0  0  0  0  0  0  0  0  0  0  0  0
  146.2548  138.4798  154.7350 O   0  0  0  0  0  0  0  0  0  0  0  0
  152.3197  141.1052  158.2187 C   0  0  0  0  0  0  0  0  0  0  0  0
  153.1325  140.1824  158.1451 O   0  0  0  0  0  0  0  0  0  0  0  0
  152.6457  142.3821  158.8645 C   0  0  0  0  0  0  0  0  0  0  0  0
  151.3570  145.4424  159.5387 H   0  0  0  0  0  0  0  0  0  0  0  0
  153.0547  145.1031  159.1914 H   0  0  0  0  0  0  0  0  0  0  0  0
  152.3275  144.5289  160.6981 H   0  0  0  0  0  0  0  0  0  0  0  0
  149.6990  144.0075  158.4648 H   0  0  0  0  0  0  0  0  0  0  0  0
  149.1566  141.8577  157.3757 H   0  0  0  0  0  0  0  0  0  0  0  0
  151.4200  139.0436  156.9817 H   0  0  0  0  0  0  0  0  0  0  0  0
  149.8290  139.2914  157.6266 H   0  0  0  0  0  0  0  0  0  0  0  0
  148.3089  139.2289  156.1107 H   0  0  0  0  0  0  0  0  0  0  0  0
  147.5452  140.7564  154.1060 H   0  0  0  0  0  0  0  0  0  0  0  0
  148.8985  139.9808  153.3208 H   0  0  0  0  0  0  0  0  0  0  0  0
  147.8957  137.7363  153.7332 H   0  0  0  0  0  0  0  0  0  0  0  0
  145.9926  139.7164  152.3676 H   0  0  0  0  0  0  0  0  0  0  0  0
  147.3168  138.9100  151.5763 H   0  0  0  0  0  0  0  0  0  0  0  0
  146.7450  136.5539  150.6324 H   0  0  0  0  0  0  0  0  0  0  0  0
  147.1399  136.1863  152.2861 H   0  0  0  0  0  0  0  0  0  0  0  0
  144.7539  135.2090  152.5273 H   0  0  0  0  0  0  0  0  0  0  0  0
  146.7434  133.7938  150.6827 H   0  0  0  0  0  0  0  0  0  0  0  0
  145.4367  133.0182  151.5727 H   0  0  0  0  0  0  0  0  0  0  0  0
  146.7729  133.7512  152.4440 H   0  0  0  0  0  0  0  0  0  0  0  0
  144.8930  135.2684  149.4842 H   0  0  0  0  0  0  0  0  0  0  0  0
  143.7849  136.2038  150.4852 H   0  0  0  0  0  0  0  0  0  0  0  0
  143.6696  134.4497  150.4519 H   0  0  0  0  0  0  0  0  0  0  0  0
  144.0383  138.3419  153.2374 H   0  0  0  0  0  0  0  0  0  0  0  0
  144.0546  136.6126  153.0088 H   0  0  0  0  0  0  0  0  0  0  0  0
  144.7276  137.2581  155.3499 H   0  0  0  0  0  0  0  0  0  0  0  0
  146.0494  136.4264  154.5562 H   0  0  0  0  0  0  0  0  0  0  0  0
  153.6351  142.5086  159.2798 H   0  0  0  0  0  0  0  0  0  0  0  0
  145.0845  137.9630  151.2830 H   0  0  0  0  0  0  0  0  0  0  0  0
  1  2  1  0  0  0  0
  1 24  1  0  0  0  0
  1 25  1  0  0  0  0
  1 26  1  0  0  0  0
  2 23  2  0  0  0  0
  2  3  1  0  0  0  0
  3  4  2  0  0  0  0
  3 27  1  0  0  0  0
  4  5  1  0  0  0  0
  4 28  1  0  0  0  0
  5  6  1  0  0  0  0
  5 21  1  0  0  0  0
  6  7  1  0  0  0  0
  6 29  1  0  0  0  0
  6 30  1  0  0  0  0
  7  8  2  0  0  0  0
  7  9  1  0  0  0  0
  9 10  1  0  0  0  0
  9 31  1  0  0  0  0
 10 11  1  0  0  0  0
 10 32  1  0  0  0  0
 10 33  1  0  0  0  0
 11 20  1  0  0  0  0
 11 12  1  0  0  0  0
 11 34  1  0  0  0  0
 12 13  1  0  0  0  0
 12 35  1  0  0  0  0
 12 36  1  0  0  0  0
 13 14  1  0  0  0  0
 13 18  1  0  0  0  0
 13 51  1  0  0  0  0
 14 15  1  0  0  0  0
 14 37  1  0  0  0  0
 14 38  1  0  0  0  0
 15 16  1  0  0  0  0
 15 17  1  0  0  0  0
 15 39  1  0  0  0  0
 16 40  1  0  0  0  0
 16 41  1  0  0  0  0
 16 42  1  0  0  0  0
 17 43  1  0  0  0  0
 17 44  1  0  0  0  0
 17 45  1  0  0  0  0
 18 19  1  0  0  0  0
 18 46  1  0  0  0  0
 18 47  1  0  0  0  0
 19 20  1  0  0  0  0
 19 48  1  0  0  0  0
 19 49  1  0  0  0  0
 21 22  2  0  0  0  0
 21 23  1  0  0  0  0
 23 50  1  0  0  0  0
M  CHG  1  13   1
M  END
> <s_m_source_file>
AV-unprocessed.smi

> <i_m_source_file_index>
712

> <i_lp_mmshare_version>
43012

> <i_f3d_flags>
0

> <s_epik_input>
W0NIM11jMVtjSF1bY0hdbihjKD1PKVtjSF0xKVtDSDJdQyg9TylbTkhdW0NIMl1bQ0BASF0yW0NIMl1OKFtDSDJdW0NIMl1PMilbQ0gyXVtDSF0oW0NIM10pW0NIM10=

> <s_epik_cmdline>
J2VwaWtfcHl0aG9uJywgJy1waCcsICc3LjAnLCAnLXRuJywgJzgnLCAnLW1hJywgJzIwMCcsICctbWV0YWxfYmluZGluZycsICctaW1hZScsICc8aW5maWxlLm1hZT4nLCAnLW9tYWUnLCAnPG91dGZpbGUubWFlPic=

> <r_lp_tautomer_probability>
1

> <r_epik_Ionization_Penalty>
0.0975935

> <r_epik_Ionization_Penalty_Charging>
0.0975934

> <r_epik_Ionization_Penalty_Neutral>
6.27044e-08

> <r_epik_State_Penalty>
0.0877056

> <r_epik_Charging_Adjusted_Penalty>
0.185299

> <i_epik_Tot_Q>
1

> <i_epik_Tot_abs_Q>
1

> <r_epik_Metal_State_Penalty>
0.0877109

> <b_epik_Metal_Only>
0

> <s_lp_Force_Field>
OPLS_2005

> <r_lp_Energy>
30.0943

> <b_lp_Chiralities_Consistent>
1

> <s_lp_Variant>
AV-unprocessed.smi:712-3

> <Gold.Version>
5.8.1

> <Gold.Id.Protein>
6NUR|6NUR_protein|mol2

> <Gold.PLP.Fitness>
44.6704

> <Gold.PLP.PLP>
-36.4262

> <Gold.PLP.part.hbond>
-2.8613

> <Gold.PLP.part.metal>
0.0000

> <Gold.PLP.part.buried>
1.1630

> <Gold.PLP.part.nonpolar>
-35.0940

> <Gold.PLP.part.repulsive>
0.2368

> <Gold.PLP.ligand.clash>
0.0000

> <Gold.PLP.ligand.torsion>
0.4273

> <Gold.PLP.Chemscore.Hbond>
3.0000

> <Gold.PLP.Chemscore.CHOScore>
0.0000

> <Gold.PLP.Chemscore.Metal>
0.0000

> <Gold.Chemscore.Hbonds>
donor molecule, donor type, donor heavy atom, donor atom, acceptor molecule, acceptor atom, score
      L1  H    13    51       P1 10171  1.00
      P1  H  7989  7998       L1     8  0.99
      P1  H  7997  8008       L1    22  0.96

> <Gold.PLP.Chemscore.Internal.Correction>
0.0989

> <Gold.Rescore>
     Score         DG    S(hbond)    S(metal)    S(lipo)     H(rot)  DE(clash)    DE(int)     intcor
     20.36     -21.98       2.94        0.00      98.22       1.89       1.27       0.35       ----

> <Gold.Chemscore.Fitness>
20.3634

> <Gold.Chemscore.DG>
-21.9752

> <Gold.Chemscore.ZeroCoef>
-5.4800

> <Gold.Chemscore.Hbond>
2.9443

> <Gold.Chemscore.Metal>
0.0000

> <Gold.Chemscore.Lipo>
98.2223

> <Gold.Chemscore.Internal_Hbond>
0.0000

> <Gold.Chemscore.DEClash>
1.2662

> <Gold.Chemscore.DEInternal>
0.3457

> <Gold.Chemscore.Rot>
1.8871

> <Gold.Chemscore.Internal.Correction>
   9.000000E+99

> <Gold.Chemscore.Hbonds>
donor molecule, donor type, donor heavy atom, donor atom, acceptor molecule, acceptor atom, score
      L1  H    13    51       P1 10171  0.96
      P1  H  7989  7998       L1     8  0.89
      P1  H  7997  8008       L1    22  0.92

> <Gold.Chemscore.Hbond.Weighted>
-9.8341

> <Gold.Chemscore.Metal.Weighted>
-0.0000

> <Gold.Chemscore.Lipo.Weighted>
-11.4920

> <Gold.Chemscore.Internal_Hbond.Weighted>
0.0000

> <Gold.Chemscore.DEClash.Weighted>
1.2662

> <Gold.Chemscore.DEInternal.Weighted>
0.3457

> <Gold.Chemscore.Rot.Weighted>
4.8309

> <Gold.Chemscore.Internal.Correction.Weighted>
   9.000000E+99

> <Gold.Protein.RotatedTorsions>
[ 6907 6896 6895 6894 ] final  136.65 input  -60.11 | X-H torsion
[ 7974 7965 7964 7962 ] final  145.45 input  175.53 | X-H torsion
[ 8008 7997 7996 7995 ] final  -87.60 input   59.86 | X-H torsion
[ 10167 10162 10161 10158 ] final -111.60 input  -65.29 | X-H torsion
[ 10718 10713 10712 10709 ] final   32.22 input   66.30 | X-H torsion
[ 10763 10752 10751 10750 ] final   81.35 input  -60.55 | X-H torsion
[ 11005 11000 10999 10996 ] final   20.33 input  -57.11 | X-H torsion

> <Gold.Protein.ActiveResidues>
 VAL166  LYS551  ARG553  GLY616  TRP617  ASP618  TYR619  PRO620  LYS621  CYS622 
 ASP623  PHE694  ASN695  SER759  ASP760  ASP761  ALA762  ILE779  LEU786  VAL792 
 PHE793  MET794  SER795  GLU796  ALA797  LYS798  CYS799  TRP800  GLU811  SER814 

> <Gold.Protein.RotatedAtoms>
  152.2870  133.5525  159.5533 H   0  0  0  0  0  0  0  0  0  0  0  0  # atno 6907 bound_to 6896
  150.7219  134.0483  159.3798 H   0  0  0  0  0  0  0  0  0  0  0  0  # atno 6908 bound_to 6896
  151.8390  135.0596  160.0497 H   0  0  0  0  0  0  0  0  0  0  0  0  # atno 6909 bound_to 6896
  144.8751  139.5785  143.5869 H   0  0  0  0  0  0  0  0  0  0  0  0  # atno 7974 bound_to 7965
  154.6651  140.0564  157.0105 H   0  0  0  0  0  0  0  0  0  0  0  0  # atno 8008 bound_to 7997
  155.1171  140.3244  155.4488 H   0  0  0  0  0  0  0  0  0  0  0  0  # atno 8009 bound_to 7997
  156.2634  140.2004  156.6294 H   0  0  0  0  0  0  0  0  0  0  0  0  # atno 8010 bound_to 7997
  140.1318  143.4354  152.1622 H   0  0  0  0  0  0  0  0  0  0  0  0  # atno 10167 bound_to 10162
  157.2824  130.7262  149.6564 H   0  0  0  0  0  0  0  0  0  0  0  0  # atno 10718 bound_to 10713
  153.1109  135.4769  154.9033 H   0  0  0  0  0  0  0  0  0  0  0  0  # atno 10763 bound_to 10752
  154.7480  135.3098  154.8613 H   0  0  0  0  0  0  0  0  0  0  0  0  # atno 10764 bound_to 10752
  153.9202  135.6856  153.4801 H   0  0  0  0  0  0  0  0  0  0  0  0  # atno 10765 bound_to 10752
  140.4039  134.1690  155.7664 H   0  0  0  0  0  0  0  0  0  0  0  0  # atno 11005 bound_to 11000
  146.2957  139.7271  142.9128 LP  0  0  0  0  0  0  0  0  0  0  0  0  # atno 17320 bound_to 7965
  145.4057  141.0390  143.3045 LP  0  0  0  0  0  0  0  0  0  0  0  0  # atno 17321 bound_to 7965
  139.5515  144.7341  151.4419 LP  0  0  0  0  0  0  0  0  0  0  0  0  # atno 17342 bound_to 10162
  140.6812  143.8077  150.7124 LP  0  0  0  0  0  0  0  0  0  0  0  0  # atno 17343 bound_to 10162
  155.9665  130.4334  150.5004 LP  0  0  0  0  0  0  0  0  0  0  0  0  # atno 17370 bound_to 10713
  157.2950  131.0634  151.2108 LP  0  0  0  0  0  0  0  0  0  0  0  0  # atno 17371 bound_to 10713
  141.1847  133.8339  157.1132 LP  0  0  0  0  0  0  0  0  0  0  0  0  # atno 17394 bound_to 11000
  140.0316  134.9898  157.0792 LP  0  0  0  0  0  0  0  0  0  0  0  0  # atno 17395 bound_to 11000

$$$$
