AV-unprocessed.smi:2943|AV-procd|sdf|11269|dock2
  -GOLD-   2272016163D 1   1.00000     0.00000
 Structure written by MMmdl.
 36 38  0  0  0  0  0  0  0  0  1 V2000
  153.4094  142.8982  163.2398 C   0  0  0  0  0  0  0  0  0  0  0  0
  153.3529  142.3604  161.8404 C   0  0  0  0  0  0  0  0  0  0  0  0
  152.6702  142.9113  160.7800 C   0  0  0  0  0  0  0  0  0  0  0  0
  151.8338  144.1545  160.7629 C   0  0  0  0  0  0  0  0  0  0  0  0
  152.8622  142.1334  159.6362 N   0  0  0  0  0  0  0  0  0  0  0  0
  152.3039  142.3989  158.3172 C   0  0  0  0  0  0  0  0  0  0  0  0
  151.5450  141.1850  157.7552 C   0  0  1  0  0  0  0  0  0  0  0  0
  150.6140  141.5239  156.5919 C   0  0  0  0  0  0  0  0  0  0  0  0
  150.5434  140.2028  155.8611 C   0  0  0  0  0  0  0  0  0  0  0  0
  151.9778  139.7027  155.9970 C   0  0  0  0  0  0  0  0  0  0  0  0
  152.4430  140.1991  157.2484 O   0  0  0  0  0  0  0  0  0  0  0  0
  153.6720  141.0546  159.9599 C   0  0  0  0  0  0  0  0  0  0  0  0
  154.0933  140.0583  159.1238 N   0  0  0  0  0  0  0  0  0  0  0  0
  154.8586  139.1659  159.7569 C   0  0  0  0  0  0  0  0  0  0  0  0
  155.2332  139.1479  161.0391 N   0  0  0  0  0  0  0  0  0  0  0  0
  154.8144  140.1384  161.8588 C   0  0  0  0  0  0  0  0  0  0  0  0
  155.2255  140.0801  163.1886 N   0  0  0  0  0  0  0  0  0  0  0  0
  153.9893  141.1719  161.3416 C   0  0  0  0  0  0  0  0  0  0  0  0
  153.3167  143.9840  163.2592 H   0  0  0  0  0  0  0  0  0  0  0  0
  154.3544  142.6547  163.7243 H   0  0  0  0  0  0  0  0  0  0  0  0
  152.6068  142.4850  163.8507 H   0  0  0  0  0  0  0  0  0  0  0  0
  151.5674  144.4714  161.7706 H   0  0  0  0  0  0  0  0  0  0  0  0
  150.9018  143.9995  160.2205 H   0  0  0  0  0  0  0  0  0  0  0  0
  152.3713  144.9738  160.2854 H   0  0  0  0  0  0  0  0  0  0  0  0
  151.6476  143.2674  158.3732 H   0  0  0  0  0  0  0  0  0  0  0  0
  153.1166  142.6776  157.6453 H   0  0  0  0  0  0  0  0  0  0  0  0
  150.9616  140.7093  158.5444 H   0  0  0  0  0  0  0  0  0  0  0  0
  149.6392  141.8865  156.9192 H   0  0  0  0  0  0  0  0  0  0  0  0
  151.0622  142.2804  155.9459 H   0  0  0  0  0  0  0  0  0  0  0  0
  149.8570  139.5268  156.3727 H   0  0  0  0  0  0  0  0  0  0  0  0
  150.2212  140.3004  154.8239 H   0  0  0  0  0  0  0  0  0  0  0  0
  152.0483  138.6159  155.9470 H   0  0  0  0  0  0  0  0  0  0  0  0
  152.6029  140.1203  155.2067 H   0  0  0  0  0  0  0  0  0  0  0  0
  155.2241  138.3496  159.1514 H   0  0  0  0  0  0  0  0  0  0  0  0
  155.8114  139.3305  163.5269 H   0  0  0  0  0  0  0  0  0  0  0  0
  154.9520  140.7878  163.8550 H   0  0  0  0  0  0  0  0  0  0  0  0
  1  2  1  0  0  0  0
  1 19  1  0  0  0  0
  1 20  1  0  0  0  0
  1 21  1  0  0  0  0
  2 18  1  0  0  0  0
  2  3  2  0  0  0  0
  3  4  1  0  0  0  0
  3  5  1  0  0  0  0
  4 22  1  0  0  0  0
  4 23  1  0  0  0  0
  4 24  1  0  0  0  0
  5  6  1  0  0  0  0
  5 12  1  0  0  0  0
  6  7  1  0  0  0  0
  6 25  1  0  0  0  0
  6 26  1  0  0  0  0
  7 11  1  0  0  0  0
  7  8  1  0  0  0  0
  7 27  1  0  0  0  0
  8  9  1  0  0  0  0
  8 28  1  0  0  0  0
  8 29  1  0  0  0  0
  9 10  1  0  0  0  0
  9 30  1  0  0  0  0
  9 31  1  0  0  0  0
 10 11  1  0  0  0  0
 10 32  1  0  0  0  0
 10 33  1  0  0  0  0
 12 18  1  0  0  0  0
 12 13  2  0  0  0  0
 13 14  1  0  0  0  0
 14 15  2  0  0  0  0
 14 34  1  0  0  0  0
 15 16  1  0  0  0  0
 16 17  1  0  0  0  0
 16 18  2  0  0  0  0
 17 35  1  0  0  0  0
 17 36  1  0  0  0  0
M  END
> <s_m_source_file>
AV-unprocessed.smi

> <i_m_source_file_index>
2943

> <i_lp_mmshare_version>
43012

> <i_f3d_flags>
0

> <s_epik_input>
bjFbY0hdbmMoW05IMl0pYyhjMTIpYyhbQ0gzXSljKFtDSDNdKW4yW0NIMl1bQ0BASF0zW0NIMl1bQ0gyXVtDSDJdTzM=

> <s_epik_cmdline>
J2VwaWtfcHl0aG9uJywgJy1waCcsICc3LjAnLCAnLXRuJywgJzgnLCAnLW1hJywgJzIwMCcsICctbWV0YWxfYmluZGluZycsICctaW1hZScsICc8aW5maWxlLm1hZT4nLCAnLW9tYWUnLCAnPG91dGZpbGUubWFlPic=

> <r_epik_Ionization_Penalty>
0.0115167

> <r_epik_Ionization_Penalty_Charging>
0

> <r_epik_Ionization_Penalty_Neutral>
0.0115167

> <r_epik_State_Penalty>
0.00863248

> <r_epik_Charging_Adjusted_Penalty>
0.00863248

> <i_epik_Tot_Q>
0

> <i_epik_Tot_abs_Q>
0

> <r_epik_Metal_State_Penalty>
0.00847169

> <b_epik_Metal_Only>
0

> <s_lp_Force_Field>
OPLS_2005

> <r_lp_Energy>
17.4582

> <b_lp_Chiralities_Consistent>
1

> <s_lp_Variant>
AV-unprocessed.smi:2943-2

> <Gold.Version>
5.8.1

> <Gold.Id.Protein>
6NUR|6NUR_protein|mol2

> <Gold.PLP.Fitness>
44.0918

> <Gold.PLP.PLP>
-41.9752

> <Gold.PLP.part.hbond>
-2.0000

> <Gold.PLP.part.metal>
0.0000

> <Gold.PLP.part.buried>
-3.9701

> <Gold.PLP.part.nonpolar>
-35.3026

> <Gold.PLP.part.repulsive>
0.0000

> <Gold.PLP.ligand.clash>
0.0000

> <Gold.PLP.ligand.torsion>
0.1947

> <Gold.PLP.Chemscore.Hbond>
0.8352

> <Gold.PLP.Chemscore.CHOScore>
0.0000

> <Gold.PLP.Chemscore.Metal>
0.0000

> <Gold.Chemscore.Hbonds>
donor molecule, donor type, donor heavy atom, donor atom, acceptor molecule, acceptor atom, score
      P1  H  7997  8009       L1    13  0.74

> <Gold.PLP.Chemscore.Internal.Correction>
0.0004

> <Gold.Rescore>
     Score         DG    S(hbond)    S(metal)    S(lipo)     H(rot)  DE(clash)    DE(int)     intcor
     13.30     -15.49       0.79        0.00      90.64       1.26       0.30       1.90       ----

> <Gold.Chemscore.Fitness>
13.2962

> <Gold.Chemscore.DG>
-15.4947

> <Gold.Chemscore.ZeroCoef>
-5.4800

> <Gold.Chemscore.Hbond>
0.7897

> <Gold.Chemscore.Metal>
0.0000

> <Gold.Chemscore.Lipo>
90.6362

> <Gold.Chemscore.Internal_Hbond>
0.0000

> <Gold.Chemscore.DEClash>
0.2992

> <Gold.Chemscore.DEInternal>
1.8993

> <Gold.Chemscore.Rot>
1.2607

> <Gold.Chemscore.Internal.Correction>
   9.000000E+99

> <Gold.Chemscore.Hbonds>
donor molecule, donor type, donor heavy atom, donor atom, acceptor molecule, acceptor atom, score
      P1  H  7997  8009       L1    13  0.12

> <Gold.Chemscore.Hbond.Weighted>
-2.6377

> <Gold.Chemscore.Metal.Weighted>
-0.0000

> <Gold.Chemscore.Lipo.Weighted>
-10.6044

> <Gold.Chemscore.Internal_Hbond.Weighted>
0.0000

> <Gold.Chemscore.DEClash.Weighted>
0.2992

> <Gold.Chemscore.DEInternal.Weighted>
1.8993

> <Gold.Chemscore.Rot.Weighted>
3.2274

> <Gold.Chemscore.Internal.Correction.Weighted>
   9.000000E+99

> <Gold.Protein.RotatedTorsions>
[ 6907 6896 6895 6894 ] final -167.69 input  -60.11 | X-H torsion
[ 7974 7965 7964 7962 ] final  -95.95 input  175.53 | X-H torsion
[ 8008 7997 7996 7995 ] final  118.62 input   59.86 | X-H torsion
[ 10167 10162 10161 10158 ] final -132.00 input  -65.29 | X-H torsion
[ 10718 10713 10712 10709 ] final  -34.07 input   66.30 | X-H torsion
[ 10763 10752 10751 10750 ] final -178.97 input  -60.55 | X-H torsion
[ 11005 11000 10999 10996 ] final  -23.63 input  -57.11 | X-H torsion

> <Gold.Protein.ActiveResidues>
 VAL166  LYS551  ARG553  GLY616  TRP617  ASP618  TYR619  PRO620  LYS621  CYS622 
 ASP623  PHE694  ASN695  SER759  ASP760  ASP761  ALA762  ILE779  LEU786  VAL792 
 PHE793  MET794  SER795  GLU796  ALA797  LYS798  CYS799  TRP800  GLU811  SER814 

> <Gold.Protein.RotatedAtoms>
  151.4636  133.3586  159.2812 H   0  0  0  0  0  0  0  0  0  0  0  0  # atno 6907 bound_to 6896
  150.9009  134.8423  159.7370 H   0  0  0  0  0  0  0  0  0  0  0  0  # atno 6908 bound_to 6896
  152.4878  134.4556  159.9640 H   0  0  0  0  0  0  0  0  0  0  0  0  # atno 6909 bound_to 6896
  145.3533  140.9480  143.2542 H   0  0  0  0  0  0  0  0  0  0  0  0  # atno 7974 bound_to 7965
  156.2555  140.2871  156.0863 H   0  0  0  0  0  0  0  0  0  0  0  0  # atno 8008 bound_to 7997
  155.1511  140.0397  157.2838 H   0  0  0  0  0  0  0  0  0  0  0  0  # atno 8009 bound_to 7997
  154.6460  140.2533  155.7274 H   0  0  0  0  0  0  0  0  0  0  0  0  # atno 8010 bound_to 7997
  139.9130  143.6471  152.2571 H   0  0  0  0  0  0  0  0  0  0  0  0  # atno 10167 bound_to 10162
  156.3550  130.4314  149.7672 H   0  0  0  0  0  0  0  0  0  0  0  0  # atno 10718 bound_to 10713
  154.5410  135.2806  155.1095 H   0  0  0  0  0  0  0  0  0  0  0  0  # atno 10763 bound_to 10752
  154.2578  135.6327  153.5267 H   0  0  0  0  0  0  0  0  0  0  0  0  # atno 10764 bound_to 10752
  152.9979  135.5598  154.5949 H   0  0  0  0  0  0  0  0  0  0  0  0  # atno 10765 bound_to 10752
  140.8770  133.7680  156.0255 H   0  0  0  0  0  0  0  0  0  0  0  0  # atno 11005 bound_to 11000
  144.8701  139.5050  143.6771 LP  0  0  0  0  0  0  0  0  0  0  0  0  # atno 17320 bound_to 7965
  146.2959  139.7276  142.9127 LP  0  0  0  0  0  0  0  0  0  0  0  0  # atno 17321 bound_to 7965
  139.6926  144.7645  151.1412 LP  0  0  0  0  0  0  0  0  0  0  0  0  # atno 17342 bound_to 10162
  140.7681  143.5568  150.9143 LP  0  0  0  0  0  0  0  0  0  0  0  0  # atno 17343 bound_to 10162
  156.4858  130.8062  151.3074 LP  0  0  0  0  0  0  0  0  0  0  0  0  # atno 17370 bound_to 10713
  157.7466  130.9991  150.2877 LP  0  0  0  0  0  0  0  0  0  0  0  0  # atno 17371 bound_to 10713
  140.8506  134.2958  157.5276 LP  0  0  0  0  0  0  0  0  0  0  0  0  # atno 17394 bound_to 11000
  139.8716  134.9466  156.3942 LP  0  0  0  0  0  0  0  0  0  0  0  0  # atno 17395 bound_to 11000

$$$$
