AV-unprocessed.smi:2822|AV-procd|sdf|10865|dock1
  -GOLD-   2272015313D 1   1.00000     0.00000
 Structure written by MMmdl.
 41 43  0  0  0  0  0  0  0  0  3 V2000
  152.4602  143.7930  159.9901 Cl  0  0  0  0  0  0  0  0  0  0  0  0
  153.0379  142.1770  160.2026 C   0  0  0  0  0  0  0  0  0  0  0  0
  153.6990  141.8334  161.3998 C   0  0  0  0  0  0  0  0  0  0  0  0
  154.1565  140.5765  161.5822 N   0  3  0  0  0  0  0  0  0  0  0  0
  154.0104  139.6062  160.6558 C   0  0  0  0  0  0  0  0  0  0  0  0
  153.3569  139.8879  159.4390 C   0  0  0  0  0  0  0  0  0  0  0  0
  152.8583  141.1932  159.1988 C   0  0  0  0  0  0  0  0  0  0  0  0
  152.2017  141.5387  158.0071 N   0  0  0  0  0  0  0  0  0  0  0  0
  152.0162  140.5615  156.9446 C   0  0  0  0  0  0  0  0  0  0  0  0
  150.5888  140.6019  156.3796 C   0  0  1  0  0  0  0  0  0  0  0  0
  150.0524  142.0491  156.3060 C   0  0  0  0  0  0  0  0  0  0  0  0
  148.7246  142.1073  155.6480 N   0  3  2  0  0  0  0  0  0  0  0  0
  147.6074  141.6707  156.5294 C   0  0  0  0  0  0  0  0  0  0  0  0
  146.2501  141.8120  155.8254 C   0  0  0  0  0  0  0  0  0  0  0  0
  146.2376  141.0234  154.5114 C   0  0  0  0  0  0  0  0  0  0  0  0
  147.3917  141.4893  153.6139 C   0  0  0  0  0  0  0  0  0  0  0  0
  148.7595  141.4224  154.3261 C   0  0  2  0  0  0  0  0  0  0  0  0
  149.3234  139.9928  154.4676 C   0  0  0  0  0  0  0  0  0  0  0  0
  150.6142  140.0548  155.0641 O   0  0  0  0  0  0  0  0  0  0  0  0
  153.8747  142.5232  162.2124 H   0  0  0  0  0  0  0  0  0  0  0  0
  154.4187  138.6395  160.9131 H   0  0  0  0  0  0  0  0  0  0  0  0
  153.2519  139.0986  158.7097 H   0  0  0  0  0  0  0  0  0  0  0  0
  151.6445  142.3815  157.9860 H   0  0  0  0  0  0  0  0  0  0  0  0
  152.7251  140.7834  156.1460 H   0  0  0  0  0  0  0  0  0  0  0  0
  152.2453  139.5617  157.3160 H   0  0  0  0  0  0  0  0  0  0  0  0
  149.9427  139.9959  157.0165 H   0  0  0  0  0  0  0  0  0  0  0  0
  149.9981  142.4948  157.3000 H   0  0  0  0  0  0  0  0  0  0  0  0
  150.7440  142.6653  155.7297 H   0  0  0  0  0  0  0  0  0  0  0  0
  147.7478  140.6366  156.8435 H   0  0  0  0  0  0  0  0  0  0  0  0
  147.6085  142.2748  157.4373 H   0  0  0  0  0  0  0  0  0  0  0  0
  145.4525  141.4584  156.4795 H   0  0  0  0  0  0  0  0  0  0  0  0
  146.0442  142.8648  155.6271 H   0  0  0  0  0  0  0  0  0  0  0  0
  146.3262  139.9559  154.7155 H   0  0  0  0  0  0  0  0  0  0  0  0
  145.2851  141.1633  153.9995 H   0  0  0  0  0  0  0  0  0  0  0  0
  147.4142  140.9022  152.6950 H   0  0  0  0  0  0  0  0  0  0  0  0
  147.2024  142.5194  153.3083 H   0  0  0  0  0  0  0  0  0  0  0  0
  149.4644  141.9771  153.7047 H   0  0  0  0  0  0  0  0  0  0  0  0
  148.6678  139.3503  155.0568 H   0  0  0  0  0  0  0  0  0  0  0  0
  149.4196  139.5282  153.4860 H   0  0  0  0  0  0  0  0  0  0  0  0
  148.5451  143.0826  155.4560 H   0  0  0  0  0  0  0  0  0  0  0  0
  154.6330  140.3510  162.4562 H   0  0  0  0  0  0  0  0  0  0  0  0
  1  2  1  0  0  0  0
  2  7  1  0  0  0  0
  2  3  2  0  0  0  0
  3  4  1  0  0  0  0
  3 20  1  0  0  0  0
  4  5  2  0  0  0  0
  4 41  1  0  0  0  0
  5  6  1  0  0  0  0
  5 21  1  0  0  0  0
  6  7  2  0  0  0  0
  6 22  1  0  0  0  0
  7  8  1  0  0  0  0
  8  9  1  0  0  0  0
  8 23  1  0  0  0  0
  9 10  1  0  0  0  0
  9 24  1  0  0  0  0
  9 25  1  0  0  0  0
 10 19  1  0  0  0  0
 10 11  1  0  0  0  0
 10 26  1  0  0  0  0
 11 12  1  0  0  0  0
 11 27  1  0  0  0  0
 11 28  1  0  0  0  0
 12 17  1  0  0  0  0
 12 13  1  0  0  0  0
 12 40  1  0  0  0  0
 13 14  1  0  0  0  0
 13 29  1  0  0  0  0
 13 30  1  0  0  0  0
 14 15  1  0  0  0  0
 14 31  1  0  0  0  0
 14 32  1  0  0  0  0
 15 16  1  0  0  0  0
 15 33  1  0  0  0  0
 15 34  1  0  0  0  0
 16 17  1  0  0  0  0
 16 35  1  0  0  0  0
 16 36  1  0  0  0  0
 17 18  1  0  0  0  0
 17 37  1  0  0  0  0
 18 19  1  0  0  0  0
 18 38  1  0  0  0  0
 18 39  1  0  0  0  0
M  CHG  1   4   1
M  CHG  1  12   1
M  END
> <s_m_source_file>
AV-unprocessed.smi

> <i_m_source_file_index>
2822

> <i_lp_mmshare_version>
43012

> <i_f3d_flags>
0

> <s_epik_input>
Q2xjMVtjSF1uW2NIXVtjSF1jMVtOSF1bQ0gyXVtDQEhdKFtDSDJdMilPW0NIMl1bQ0BASF0oTjIzKVtDSDJdW0NIMl1bQ0gyXVtDSDJdMw==

> <s_epik_cmdline>
J2VwaWtfcHl0aG9uJywgJy1waCcsICc3LjAnLCAnLXRuJywgJzgnLCAnLW1hJywgJzIwMCcsICctbWV0YWxfYmluZGluZycsICctaW1hZScsICc8aW5maWxlLm1hZT4nLCAnLW9tYWUnLCAnPG91dGZpbGUubWFlPic=

> <r_lp_tautomer_probability>
1

> <r_epik_Ionization_Penalty>
0.254999

> <r_epik_Ionization_Penalty_Charging>
0.254956

> <r_epik_Ionization_Penalty_Neutral>
4.33524e-05

> <r_epik_State_Penalty>
0.230978

> <r_epik_Charging_Adjusted_Penalty>
0.485934

> <i_epik_Tot_Q>
2

> <i_epik_Tot_abs_Q>
2

> <r_epik_Metal_State_Penalty>
3.47007

> <b_epik_Metal_Only>
0

> <s_lp_Force_Field>
OPLS_2005

> <r_lp_Energy>
40.6185

> <b_lp_Chiralities_Consistent>
1

> <s_lp_Variant>
AV-unprocessed.smi:2822-6

> <Gold.Version>
5.8.1

> <Gold.Id.Protein>
6NUR|6NUR_protein|mol2

> <Gold.PLP.Fitness>
43.8220

> <Gold.PLP.PLP>
-35.6482

> <Gold.PLP.part.hbond>
-2.0000

> <Gold.PLP.part.metal>
0.0000

> <Gold.PLP.part.buried>
-2.3987

> <Gold.PLP.part.nonpolar>
-30.7689

> <Gold.PLP.part.repulsive>
0.2535

> <Gold.PLP.ligand.clash>
0.0000

> <Gold.PLP.ligand.torsion>
0.3262

> <Gold.PLP.Chemscore.Hbond>
2.9417

> <Gold.PLP.Chemscore.CHOScore>
0.0000

> <Gold.PLP.Chemscore.Metal>
0.0000

> <Gold.Chemscore.Hbonds>
donor molecule, donor type, donor heavy atom, donor atom, acceptor molecule, acceptor atom, score
      L1  H    12    40       P1  8028  2.00
      P1  H  7989  7998       L1    19  0.94

> <Gold.PLP.Chemscore.Internal.Correction>
0.0012

> <Gold.Rescore>
     Score         DG    S(hbond)    S(metal)    S(lipo)     H(rot)  DE(clash)    DE(int)     intcor
     18.13     -19.33       1.22        0.00     109.75       1.20       0.93       0.27       ----

> <Gold.Chemscore.Fitness>
18.1251

> <Gold.Chemscore.DG>
-19.3304

> <Gold.Chemscore.ZeroCoef>
-5.4800

> <Gold.Chemscore.Hbond>
1.2192

> <Gold.Chemscore.Metal>
0.0000

> <Gold.Chemscore.Lipo>
109.7495

> <Gold.Chemscore.Internal_Hbond>
0.0000

> <Gold.Chemscore.DEClash>
0.9305

> <Gold.Chemscore.DEInternal>
0.2748

> <Gold.Chemscore.Rot>
1.1962

> <Gold.Chemscore.Internal.Correction>
   9.000000E+99

> <Gold.Chemscore.Hbonds>
donor molecule, donor type, donor heavy atom, donor atom, acceptor molecule, acceptor atom, score
      L1  H    12    40       P1  8028  0.97
      P1  H  7989  7998       L1    19  0.20

> <Gold.Chemscore.Hbond.Weighted>
-4.0720

> <Gold.Chemscore.Metal.Weighted>
-0.0000

> <Gold.Chemscore.Lipo.Weighted>
-12.8407

> <Gold.Chemscore.Internal_Hbond.Weighted>
0.0000

> <Gold.Chemscore.DEClash.Weighted>
0.9305

> <Gold.Chemscore.DEInternal.Weighted>
0.2748

> <Gold.Chemscore.Rot.Weighted>
3.0623

> <Gold.Chemscore.Internal.Correction.Weighted>
   9.000000E+99

> <Gold.Protein.RotatedTorsions>
[ 6907 6896 6895 6894 ] final  -28.47 input  -60.11 | X-H torsion
[ 7974 7965 7964 7962 ] final  -74.04 input  175.53 | X-H torsion
[ 8008 7997 7996 7995 ] final  133.38 input   59.86 | X-H torsion
[ 10167 10162 10161 10158 ] final   48.48 input  -65.29 | X-H torsion
[ 10718 10713 10712 10709 ] final -126.24 input   66.30 | X-H torsion
[ 10763 10752 10751 10750 ] final   96.48 input  -60.55 | X-H torsion
[ 11005 11000 10999 10996 ] final   85.76 input  -57.11 | X-H torsion

> <Gold.Protein.ActiveResidues>
 VAL166  LYS551  ARG553  GLY616  TRP617  ASP618  TYR619  PRO620  LYS621  CYS622 
 ASP623  PHE694  ASN695  SER759  ASP760  ASP761  ALA762  ILE779  LEU786  VAL792 
 PHE793  MET794  SER795  GLU796  ALA797  LYS798  CYS799  TRP800  GLU811  SER814 

> <Gold.Protein.RotatedAtoms>
  151.1325  135.0138  159.8588 H   0  0  0  0  0  0  0  0  0  0  0  0  # atno 6907 bound_to 6896
  152.5451  134.1593  159.8561 H   0  0  0  0  0  0  0  0  0  0  0  0  # atno 6908 bound_to 6896
  151.1661  133.4768  159.2627 H   0  0  0  0  0  0  0  0  0  0  0  0  # atno 6909 bound_to 6896
  145.6443  140.9302  143.1019 H   0  0  0  0  0  0  0  0  0  0  0  0  # atno 7974 bound_to 7965
  156.2992  140.2522  156.3244 H   0  0  0  0  0  0  0  0  0  0  0  0  # atno 8008 bound_to 7997
  154.9204  140.0401  157.2014 H   0  0  0  0  0  0  0  0  0  0  0  0  # atno 8009 bound_to 7997
  154.8317  140.2876  155.5722 H   0  0  0  0  0  0  0  0  0  0  0  0  # atno 8010 bound_to 7997
  140.2928  144.3025  150.6236 H   0  0  0  0  0  0  0  0  0  0  0  0  # atno 10167 bound_to 10162
  156.1747  130.6692  151.0227 H   0  0  0  0  0  0  0  0  0  0  0  0  # atno 10718 bound_to 10713
  153.2655  135.4217  155.0936 H   0  0  0  0  0  0  0  0  0  0  0  0  # atno 10763 bound_to 10752
  154.8436  135.3459  154.6318 H   0  0  0  0  0  0  0  0  0  0  0  0  # atno 10764 bound_to 10752
  153.6738  135.7042  153.5196 H   0  0  0  0  0  0  0  0  0  0  0  0  # atno 10765 bound_to 10752
  139.8963  134.8308  156.2626 H   0  0  0  0  0  0  0  0  0  0  0  0  # atno 11005 bound_to 11000
  144.7146  139.8244  143.7403 LP  0  0  0  0  0  0  0  0  0  0  0  0  # atno 17320 bound_to 7965
  146.1256  139.4281  143.0201 LP  0  0  0  0  0  0  0  0  0  0  0  0  # atno 17321 bound_to 7965
  140.5717  143.2180  151.7587 LP  0  0  0  0  0  0  0  0  0  0  0  0  # atno 17342 bound_to 10162
  139.4933  144.4207  151.9981 LP  0  0  0  0  0  0  0  0  0  0  0  0  # atno 17343 bound_to 10162
  157.6827  131.0833  150.7325 LP  0  0  0  0  0  0  0  0  0  0  0  0  # atno 17370 bound_to 10713
  156.7383  130.4731  149.5483 LP  0  0  0  0  0  0  0  0  0  0  0  0  # atno 17371 bound_to 10713
  141.0152  133.7072  156.1177 LP  0  0  0  0  0  0  0  0  0  0  0  0  # atno 17394 bound_to 11000
  140.7311  134.4254  157.5566 LP  0  0  0  0  0  0  0  0  0  0  0  0  # atno 17395 bound_to 11000

$$$$
