AV-unprocessed.smi:3194|AV-procd|sdf|12211|dock9
  -GOLD-   2272018 53D 1   1.00000     0.00000
 Structure written by MMmdl.
 27 27  0  0  0  0  0  0  0  0  2 V2000
  152.3924  138.0445  154.7126 C   0  0  0  0  0  0  0  0  0  0  0  0
  151.4980  139.2272  155.1130 C   0  0  1  0  0  0  0  0  0  0  0  0
  150.1345  139.1628  154.3973 C   0  0  0  0  0  0  0  0  0  0  0  0
  149.9926  140.2162  153.4645 O   0  0  0  0  0  0  0  0  0  0  0  0
  151.2978  139.1909  156.5634 N   0  5  0  0  0  0  0  0  0  0  0  0
  151.7658  140.1345  157.4312 C   0  0  0  0  0  0  0  0  0  0  0  0
  152.7730  140.1211  158.1482 O   0  0  0  0  0  0  0  0  0  0  0  0
  150.8430  141.3705  157.4845 C   0  0  0  0  0  0  0  0  0  0  0  0
  150.7630  141.9102  156.2649 F   0  0  0  0  0  0  0  0  0  0  0  0
  149.6089  140.9911  157.8320 F   0  0  0  0  0  0  0  0  0  0  0  0
  151.3833  142.4114  158.4649 C   0  0  0  0  0  0  0  0  0  0  0  0
  151.6784  143.7279  158.0412 C   0  0  0  0  0  0  0  0  0  0  0  0
  152.1606  144.6515  158.9879 C   0  0  0  0  0  0  0  0  0  0  0  0
  152.3332  144.2309  160.3200 C   0  0  0  0  0  0  0  0  0  0  0  0
  152.0115  142.8991  160.6471 C   0  0  0  0  0  0  0  0  0  0  0  0
  151.5485  142.0056  159.7476 N   0  0  0  0  0  0  0  0  0  0  0  0
  152.0036  140.1371  154.7849 H   0  0  0  0  0  0  0  0  0  0  0  0
  152.5729  138.0377  153.6375 H   0  0  0  0  0  0  0  0  0  0  0  0
  151.9368  137.0901  154.9791 H   0  0  0  0  0  0  0  0  0  0  0  0
  153.3633  138.1002  155.2064 H   0  0  0  0  0  0  0  0  0  0  0  0
  150.0366  138.2210  153.8571 H   0  0  0  0  0  0  0  0  0  0  0  0
  149.3137  139.2051  155.1146 H   0  0  0  0  0  0  0  0  0  0  0  0
  149.9521  139.8442  152.5977 H   0  0  0  0  0  0  0  0  0  0  0  0
  151.5267  144.0285  157.0152 H   0  0  0  0  0  0  0  0  0  0  0  0
  152.3916  145.6656  158.6972 H   0  0  0  0  0  0  0  0  0  0  0  0
  152.7001  144.9122  161.0732 H   0  0  0  0  0  0  0  0  0  0  0  0
  152.1304  142.5412  161.6591 H   0  0  0  0  0  0  0  0  0  0  0  0
  1  2  1  0  0  0  0
  1 18  1  0  0  0  0
  1 19  1  0  0  0  0
  1 20  1  0  0  0  0
  2 17  1  0  0  0  0
  2  3  1  0  0  0  0
  2  5  1  0  0  0  0
  3  4  1  0  0  0  0
  3 21  1  0  0  0  0
  3 22  1  0  0  0  0
  4 23  1  0  0  0  0
  5  6  1  0  0  0  0
  6  7  2  0  0  0  0
  6  8  1  0  0  0  0
  8  9  1  0  0  0  0
  8 10  1  0  0  0  0
  8 11  1  0  0  0  0
 11 16  1  0  0  0  0
 11 12  2  0  0  0  0
 12 13  1  0  0  0  0
 12 24  1  0  0  0  0
 13 14  2  0  0  0  0
 13 25  1  0  0  0  0
 14 15  1  0  0  0  0
 14 26  1  0  0  0  0
 15 16  2  0  0  0  0
 15 27  1  0  0  0  0
M  CHG  1   5  -1
M  END
> <s_m_source_file>
AV-unprocessed.smi

> <i_m_source_file_index>
3194

> <i_lp_mmshare_version>
43012

> <i_f3d_flags>
0

> <s_epik_input>
W09IXVtDSDJdW0NASF0oW0NIM10pW05IXUMoPU8pQyhGKShGKWMxW2NIXVtjSF1bY0hdW2NIXW4x

> <s_epik_cmdline>
J2VwaWtfcHl0aG9uJywgJy1waCcsICc3LjAnLCAnLXRuJywgJzgnLCAnLW1hJywgJzIwMCcsICctbWV0YWxfYmluZGluZycsICctaW1hZScsICc8aW5maWxlLm1hZT4nLCAnLW9tYWUnLCAnPG91dGZpbGUubWFlPic=

> <r_lp_tautomer_probability>
1

> <r_epik_Ionization_Penalty>
5.78943

> <r_epik_Ionization_Penalty_Charging>
5.78942

> <r_epik_Ionization_Penalty_Neutral>
4.0054e-06

> <r_epik_State_Penalty>
5.78939

> <r_epik_Charging_Adjusted_Penalty>
11.5788

> <i_epik_Tot_Q>
-1

> <i_epik_Tot_abs_Q>
1

> <r_epik_Metal_State_Penalty>
1.76064

> <b_epik_Metal_Only>
1

> <s_lp_Force_Field>
OPLS_2005

> <r_lp_Energy>
17.1269

> <b_lp_Chiralities_Consistent>
1

> <s_lp_Variant>
AV-unprocessed.smi:3194-3

> <Gold.Version>
5.8.1

> <Gold.Id.Protein>
6NUR|6NUR_protein|mol2

> <Gold.PLP.Fitness>
41.5919

> <Gold.PLP.PLP>
-38.8840

> <Gold.PLP.part.hbond>
-2.6380

> <Gold.PLP.part.metal>
0.0000

> <Gold.PLP.part.buried>
-5.3888

> <Gold.PLP.part.nonpolar>
-30.8020

> <Gold.PLP.part.repulsive>
0.0000

> <Gold.PLP.ligand.clash>
1.7520

> <Gold.PLP.ligand.torsion>
1.5043

> <Gold.PLP.Chemscore.Hbond>
2.4729

> <Gold.PLP.Chemscore.CHOScore>
0.0000

> <Gold.PLP.Chemscore.Metal>
0.0000

> <Gold.Chemscore.Hbonds>
donor molecule, donor type, donor heavy atom, donor atom, acceptor molecule, acceptor atom, score
      L1  H     4    23       P1  7957  0.84
      P1  H  7989  7998       L1     4  0.59
      P1  H  7997  8009       L1     7  0.76

> <Gold.PLP.Chemscore.Internal.Correction>
0.0500

> <Gold.Rescore>
     Score         DG    S(hbond)    S(metal)    S(lipo)     H(rot)  DE(clash)    DE(int)     intcor
     13.02     -15.89       1.96        0.00      86.14       2.43       0.01       2.86       ----

> <Gold.Chemscore.Fitness>
13.0222

> <Gold.Chemscore.DG>
-15.8928

> <Gold.Chemscore.ZeroCoef>
-5.4800

> <Gold.Chemscore.Hbond>
1.9609

> <Gold.Chemscore.Metal>
0.0000

> <Gold.Chemscore.Lipo>
86.1395

> <Gold.Chemscore.Internal_Hbond>
0.0000

> <Gold.Chemscore.DEClash>
0.0120

> <Gold.Chemscore.DEInternal>
2.8586

> <Gold.Chemscore.Rot>
2.4277

> <Gold.Chemscore.Internal.Correction>
   9.000000E+99

> <Gold.Chemscore.Hbonds>
donor molecule, donor type, donor heavy atom, donor atom, acceptor molecule, acceptor atom, score
      L1  H     4    23       P1  7957  0.79
      P1  H  7989  7998       L1     4  0.04
      P1  H  7997  8009       L1     7  0.48

> <Gold.Chemscore.Hbond.Weighted>
-6.5494

> <Gold.Chemscore.Metal.Weighted>
-0.0000

> <Gold.Chemscore.Lipo.Weighted>
-10.0783

> <Gold.Chemscore.Internal_Hbond.Weighted>
0.0000

> <Gold.Chemscore.DEClash.Weighted>
0.0120

> <Gold.Chemscore.DEInternal.Weighted>
2.8586

> <Gold.Chemscore.Rot.Weighted>
6.2149

> <Gold.Chemscore.Internal.Correction.Weighted>
   9.000000E+99

> <Gold.Protein.RotatedTorsions>
[ 6907 6896 6895 6894 ] final  104.60 input  -60.11 | X-H torsion
[ 7974 7965 7964 7962 ] final  -54.44 input  175.53 | X-H torsion
[ 8008 7997 7996 7995 ] final  164.83 input   59.86 | X-H torsion
[ 10167 10162 10161 10158 ] final   57.30 input  -65.29 | X-H torsion
[ 10718 10713 10712 10709 ] final  -92.80 input   66.30 | X-H torsion
[ 10763 10752 10751 10750 ] final  135.61 input  -60.55 | X-H torsion
[ 11005 11000 10999 10996 ] final   71.94 input  -57.11 | X-H torsion

> <Gold.Protein.ActiveResidues>
 VAL166  LYS551  ARG553  GLY616  TRP617  ASP618  TYR619  PRO620  LYS621  CYS622 
 ASP623  PHE694  ASN695  SER759  ASP760  ASP761  ALA762  ILE779  LEU786  VAL792 
 PHE793  MET794  SER795  GLU796  ALA797  LYS798  CYS799  TRP800  GLU811  SER814 

> <Gold.Protein.RotatedAtoms>
  152.5259  133.9652  159.7735 H   0  0  0  0  0  0  0  0  0  0  0  0  # atno 6907 bound_to 6896
  150.9935  133.6118  159.2712 H   0  0  0  0  0  0  0  0  0  0  0  0  # atno 6908 bound_to 6896
  151.3253  135.0835  159.9373 H   0  0  0  0  0  0  0  0  0  0  0  0  # atno 6909 bound_to 6896
  145.8855  140.8111  142.9818 H   0  0  0  0  0  0  0  0  0  0  0  0  # atno 7974 bound_to 7965
  156.1849  140.1686  156.8204 H   0  0  0  0  0  0  0  0  0  0  0  0  # atno 8008 bound_to 7997
  154.5402  140.0738  156.8530 H   0  0  0  0  0  0  0  0  0  0  0  0  # atno 8009 bound_to 7997
  155.3229  140.3374  155.4243 H   0  0  0  0  0  0  0  0  0  0  0  0  # atno 8010 bound_to 7997
  140.1995  144.4003  150.6535 H   0  0  0  0  0  0  0  0  0  0  0  0  # atno 10167 bound_to 10162
  156.0006  130.5002  150.5681 H   0  0  0  0  0  0  0  0  0  0  0  0  # atno 10718 bound_to 10713
  153.8429  135.3089  155.3427 H   0  0  0  0  0  0  0  0  0  0  0  0  # atno 10763 bound_to 10752
  154.7925  135.4774  154.0087 H   0  0  0  0  0  0  0  0  0  0  0  0  # atno 10764 bound_to 10752
  153.1565  135.6853  153.8898 H   0  0  0  0  0  0  0  0  0  0  0  0  # atno 10765 bound_to 10752
  139.9517  134.7215  156.0847 H   0  0  0  0  0  0  0  0  0  0  0  0  # atno 11005 bound_to 11000
  144.6728  140.1450  143.7434 LP  0  0  0  0  0  0  0  0  0  0  0  0  # atno 17320 bound_to 7965
  145.8971  139.2409  143.1515 LP  0  0  0  0  0  0  0  0  0  0  0  0  # atno 17321 bound_to 7965
  140.6400  143.2202  151.6310 LP  0  0  0  0  0  0  0  0  0  0  0  0  # atno 17342 bound_to 10162
  139.5223  144.3167  152.0946 LP  0  0  0  0  0  0  0  0  0  0  0  0  # atno 17343 bound_to 10162
  157.3580  131.0745  151.1660 LP  0  0  0  0  0  0  0  0  0  0  0  0  # atno 17370 bound_to 10713
  157.2454  130.6589  149.5908 LP  0  0  0  0  0  0  0  0  0  0  0  0  # atno 17371 bound_to 10713
  141.1181  133.6621  156.3145 LP  0  0  0  0  0  0  0  0  0  0  0  0  # atno 17394 bound_to 11000
  140.5704  134.5846  157.5456 LP  0  0  0  0  0  0  0  0  0  0  0  0  # atno 17395 bound_to 11000

$$$$
