AV-unprocessed.smi:2828|AV-procd|sdf|10897|dock5
  -GOLD-   2272015343D 1   1.00000     0.00000
 Structure written by MMmdl.
 38 39  0  0  0  0  0  0  0  0  1 V2000
  152.7902  144.7344  158.0053 C   0  0  0  0  0  0  0  0  0  0  0  0
  151.9640  144.2184  159.1837 C   0  0  0  0  0  0  0  0  0  0  0  0
  151.3269  145.4169  159.8745 C   0  0  0  0  0  0  0  0  0  0  0  0
  151.1738  142.9107  159.1489 C   0  0  0  0  0  0  0  0  0  0  0  0
  151.1521  142.0906  157.8994 C   0  0  0  0  0  0  0  0  0  0  0  0
  151.8315  141.0734  157.7602 O   0  0  0  0  0  0  0  0  0  0  0  0
  150.3877  142.6011  156.9218 N   0  0  0  0  0  0  0  0  0  0  0  0
  150.2175  142.0119  155.5989 C   0  0  0  0  0  0  0  0  0  0  0  0
  149.3425  140.7493  155.6484 C   0  0  0  0  0  0  0  0  0  0  0  0
  150.0772  139.5299  155.2022 C   0  0  0  0  0  0  0  0  0  0  0  0
  149.6018  138.2892  155.1234 N   0  0  0  0  0  0  0  0  0  0  0  0
  150.6770  137.6308  154.6137 C   0  0  0  0  0  0  0  0  0  0  0  0
  150.6336  136.2485  154.3687 N   0  0  0  0  0  0  0  0  0  0  0  0
  151.7491  138.3713  154.3655 N   0  0  0  0  0  0  0  0  0  0  0  0
  151.3474  139.6592  154.7491 O   0  0  0  0  0  0  0  0  0  0  0  0
  152.4433  143.0104  159.9902 C   0  0  0  0  0  0  0  0  0  0  0  0
  153.7378  142.2876  159.6170 C   0  0  0  0  0  0  0  0  0  0  0  0
  152.3014  142.9814  161.5060 C   0  0  0  0  0  0  0  0  0  0  0  0
  152.1620  145.3155  157.3293 H   0  0  0  0  0  0  0  0  0  0  0  0
  153.2393  143.9334  157.4217 H   0  0  0  0  0  0  0  0  0  0  0  0
  153.5938  145.3778  158.3645 H   0  0  0  0  0  0  0  0  0  0  0  0
  150.6159  145.1097  160.6403 H   0  0  0  0  0  0  0  0  0  0  0  0
  150.7836  146.0278  159.1529 H   0  0  0  0  0  0  0  0  0  0  0  0
  152.0935  146.0344  160.3435 H   0  0  0  0  0  0  0  0  0  0  0  0
  150.2204  142.9306  159.6741 H   0  0  0  0  0  0  0  0  0  0  0  0
  149.8816  143.4541  157.1117 H   0  0  0  0  0  0  0  0  0  0  0  0
  149.7903  142.7471  154.9146 H   0  0  0  0  0  0  0  0  0  0  0  0
  151.2055  141.7639  155.2099 H   0  0  0  0  0  0  0  0  0  0  0  0
  148.9779  140.5835  156.6627 H   0  0  0  0  0  0  0  0  0  0  0  0
  148.4619  140.8711  155.0164 H   0  0  0  0  0  0  0  0  0  0  0  0
  149.7965  135.7205  154.5692 H   0  0  0  0  0  0  0  0  0  0  0  0
  151.4364  135.7735  153.9821 H   0  0  0  0  0  0  0  0  0  0  0  0
  153.7493  141.2854  160.0462 H   0  0  0  0  0  0  0  0  0  0  0  0
  154.5970  142.8361  160.0041 H   0  0  0  0  0  0  0  0  0  0  0  0
  153.8641  142.1790  158.5416 H   0  0  0  0  0  0  0  0  0  0  0  0
  152.3971  141.9614  161.8792 H   0  0  0  0  0  0  0  0  0  0  0  0
  151.3290  143.3538  161.8257 H   0  0  0  0  0  0  0  0  0  0  0  0
  153.0750  143.5944  161.9696 H   0  0  0  0  0  0  0  0  0  0  0  0
  1  2  1  0  0  0  0
  1 19  1  0  0  0  0
  1 20  1  0  0  0  0
  1 21  1  0  0  0  0
  2 16  1  0  0  0  0
  2  3  1  0  0  0  0
  2  4  1  0  0  0  0
  3 22  1  0  0  0  0
  3 23  1  0  0  0  0
  3 24  1  0  0  0  0
  4  5  1  0  0  0  0
  4 16  1  0  0  0  0
  4 25  1  0  0  0  0
  5  6  2  0  0  0  0
  5  7  1  0  0  0  0
  7  8  1  0  0  0  0
  7 26  1  0  0  0  0
  8  9  1  0  0  0  0
  8 27  1  0  0  0  0
  8 28  1  0  0  0  0
  9 10  1  0  0  0  0
  9 29  1  0  0  0  0
  9 30  1  0  0  0  0
 10 15  1  0  0  0  0
 10 11  2  0  0  0  0
 11 12  1  0  0  0  0
 12 13  1  0  0  0  0
 12 14  2  0  0  0  0
 13 31  1  0  0  0  0
 13 32  1  0  0  0  0
 14 15  1  0  0  0  0
 16 17  1  0  0  0  0
 16 18  1  0  0  0  0
 17 33  1  0  0  0  0
 17 34  1  0  0  0  0
 17 35  1  0  0  0  0
 18 36  1  0  0  0  0
 18 37  1  0  0  0  0
 18 38  1  0  0  0  0
M  END
> <s_m_source_file>
AV-unprocessed.smi

> <i_m_source_file_index>
2828

> <i_lp_mmshare_version>
43012

> <i_f3d_flags>
0

> <s_epik_input>
W0NIM11DMShbQ0gzXSlbQ0hdKEMxKFtDSDNdKVtDSDNdKUMoPU8pW05IXVtDSDJdW0NIMl1jMm5jKFtOSDJdKW5vMg==

> <s_epik_cmdline>
J2VwaWtfcHl0aG9uJywgJy1waCcsICc3LjAnLCAnLXRuJywgJzgnLCAnLW1hJywgJzIwMCcsICctbWV0YWxfYmluZGluZycsICctaW1hZScsICc8aW5maWxlLm1hZT4nLCAnLW9tYWUnLCAnPG91dGZpbGUubWFlPic=

> <r_lp_tautomer_probability>
1

> <r_epik_Ionization_Penalty>
9.99855e-05

> <r_epik_Ionization_Penalty_Charging>
0

> <r_epik_Ionization_Penalty_Neutral>
9.99855e-05

> <r_epik_State_Penalty>
-0

> <r_epik_Charging_Adjusted_Penalty>
0

> <i_epik_Tot_Q>
0

> <i_epik_Tot_abs_Q>
0

> <r_epik_Metal_State_Penalty>
-0

> <b_epik_Metal_Only>
0

> <s_lp_Force_Field>
OPLS_2005

> <r_lp_Energy>
20.4222

> <b_lp_Chiralities_Consistent>
1

> <s_lp_Variant>
AV-unprocessed.smi:2828-1

> <Gold.Version>
5.8.1

> <Gold.Id.Protein>
6NUR|6NUR_protein|mol2

> <Gold.PLP.Fitness>
43.5867

> <Gold.PLP.PLP>
-41.3775

> <Gold.PLP.part.hbond>
-3.9920

> <Gold.PLP.part.metal>
0.0000

> <Gold.PLP.part.buried>
-5.3321

> <Gold.PLP.part.nonpolar>
-32.4403

> <Gold.PLP.part.repulsive>
0.4243

> <Gold.PLP.ligand.clash>
0.0000

> <Gold.PLP.ligand.torsion>
1.0167

> <Gold.PLP.Chemscore.Hbond>
1.3650

> <Gold.PLP.Chemscore.CHOScore>
0.0000

> <Gold.PLP.Chemscore.Metal>
0.0000

> <Gold.Chemscore.Hbonds>
donor molecule, donor type, donor heavy atom, donor atom, acceptor molecule, acceptor atom, score
      L1  H     7    26       P1  8028  0.37
      P1  H  7989  7998       L1    15  1.00

> <Gold.PLP.Chemscore.Internal.Correction>
0.1474

> <Gold.Rescore>
     Score         DG    S(hbond)    S(metal)    S(lipo)     H(rot)  DE(clash)    DE(int)     intcor
     13.42     -16.52       1.58        0.00      99.21       2.28       0.82       2.27       ----

> <Gold.Chemscore.Fitness>
13.4200

> <Gold.Chemscore.DG>
-16.5192

> <Gold.Chemscore.ZeroCoef>
-5.4800

> <Gold.Chemscore.Hbond>
1.5774

> <Gold.Chemscore.Metal>
0.0000

> <Gold.Chemscore.Lipo>
99.2105

> <Gold.Chemscore.Internal_Hbond>
0.0000

> <Gold.Chemscore.DEClash>
0.8243

> <Gold.Chemscore.DEInternal>
2.2749

> <Gold.Chemscore.Rot>
2.2801

> <Gold.Chemscore.Internal.Correction>
   9.000000E+99

> <Gold.Chemscore.Hbonds>
donor molecule, donor type, donor heavy atom, donor atom, acceptor molecule, acceptor atom, score
      L1  H     7    26       P1  8028  0.38
      P1  H  7989  7998       L1    15  0.79

> <Gold.Chemscore.Hbond.Weighted>
-5.2685

> <Gold.Chemscore.Metal.Weighted>
-0.0000

> <Gold.Chemscore.Lipo.Weighted>
-11.6076

> <Gold.Chemscore.Internal_Hbond.Weighted>
0.0000

> <Gold.Chemscore.DEClash.Weighted>
0.8243

> <Gold.Chemscore.DEInternal.Weighted>
2.2749

> <Gold.Chemscore.Rot.Weighted>
5.8370

> <Gold.Chemscore.Internal.Correction.Weighted>
   9.000000E+99

> <Gold.Protein.RotatedTorsions>
[ 6907 6896 6895 6894 ] final -113.48 input  -60.11 | X-H torsion
[ 7974 7965 7964 7962 ] final  121.50 input  175.53 | X-H torsion
[ 8008 7997 7996 7995 ] final  -60.10 input   59.86 | X-H torsion
[ 10167 10162 10161 10158 ] final   52.50 input  -65.29 | X-H torsion
[ 10718 10713 10712 10709 ] final  -82.08 input   66.30 | X-H torsion
[ 10763 10752 10751 10750 ] final  132.24 input  -60.55 | X-H torsion
[ 11005 11000 10999 10996 ] final  -38.63 input  -57.11 | X-H torsion

> <Gold.Protein.ActiveResidues>
 VAL166  LYS551  ARG553  GLY616  TRP617  ASP618  TYR619  PRO620  LYS621  CYS622 
 ASP623  PHE694  ASN695  SER759  ASP760  ASP761  ALA762  ILE779  LEU786  VAL792 
 PHE793  MET794  SER795  GLU796  ALA797  LYS798  CYS799  TRP800  GLU811  SER814 

> <Gold.Protein.RotatedAtoms>
  150.7832  133.8938  159.3321 H   0  0  0  0  0  0  0  0  0  0  0  0  # atno 6907 bound_to 6896
  151.6796  135.0962  160.0223 H   0  0  0  0  0  0  0  0  0  0  0  0  # atno 6908 bound_to 6896
  152.3889  133.6612  159.6257 H   0  0  0  0  0  0  0  0  0  0  0  0  # atno 6909 bound_to 6896
  145.1186  139.3404  143.4726 H   0  0  0  0  0  0  0  0  0  0  0  0  # atno 7974 bound_to 7965
  154.4383  140.1047  156.6221 H   0  0  0  0  0  0  0  0  0  0  0  0  # atno 8008 bound_to 7997
  155.5696  140.3489  155.4493 H   0  0  0  0  0  0  0  0  0  0  0  0  # atno 8009 bound_to 7997
  156.0399  140.1279  157.0156 H   0  0  0  0  0  0  0  0  0  0  0  0  # atno 8010 bound_to 7997
  140.2506  144.3483  150.6349 H   0  0  0  0  0  0  0  0  0  0  0  0  # atno 10167 bound_to 10162
  156.0039  130.4623  150.4050 H   0  0  0  0  0  0  0  0  0  0  0  0  # atno 10718 bound_to 10713
  153.7874  135.3160  155.3374 H   0  0  0  0  0  0  0  0  0  0  0  0  # atno 10763 bound_to 10752
  154.8138  135.4649  154.0592 H   0  0  0  0  0  0  0  0  0  0  0  0  # atno 10764 bound_to 10752
  153.1899  135.6907  153.8452 H   0  0  0  0  0  0  0  0  0  0  0  0  # atno 10765 bound_to 10752
  141.0042  133.6940  156.2079 H   0  0  0  0  0  0  0  0  0  0  0  0  # atno 11005 bound_to 11000
  146.3522  140.1135  142.8603 LP  0  0  0  0  0  0  0  0  0  0  0  0  # atno 17320 bound_to 7965
  145.0766  140.9192  143.4850 LP  0  0  0  0  0  0  0  0  0  0  0  0  # atno 17321 bound_to 7965
  140.6043  143.2167  151.7011 LP  0  0  0  0  0  0  0  0  0  0  0  0  # atno 17342 bound_to 10162
  139.5047  144.3743  152.0439 LP  0  0  0  0  0  0  0  0  0  0  0  0  # atno 17343 bound_to 10162
  157.2116  131.0462  151.2596 LP  0  0  0  0  0  0  0  0  0  0  0  0  # atno 17370 bound_to 10713
  157.3883  130.7268  149.6679 LP  0  0  0  0  0  0  0  0  0  0  0  0  # atno 17371 bound_to 10713
  140.6840  134.4737  157.5589 LP  0  0  0  0  0  0  0  0  0  0  0  0  # atno 17394 bound_to 11000
  139.9054  134.8460  156.1726 LP  0  0  0  0  0  0  0  0  0  0  0  0  # atno 17395 bound_to 11000

$$$$
