AV-unprocessed.smi:147|AV-procd|sdf|1201|dock8
  -GOLD-   2262018363D 1   1.00000     0.00000
 Structure written by MMmdl.
 55 57  0  0  0  0  0  0  0  0  1 V2000
  147.5710  133.7069  162.0113 C   0  0  0  0  0  0  0  0  0  0  0  0
  146.9992  135.1313  162.1035 C   0  0  0  0  0  0  0  0  0  0  0  0
  145.4636  135.1206  162.0331 C   0  0  0  0  0  0  0  0  0  0  0  0
  147.5832  136.0258  161.0026 C   0  0  0  0  0  0  0  0  0  0  0  0
  147.6389  137.2461  161.1593 O   0  0  0  0  0  0  0  0  0  0  0  0
  148.0186  135.4066  159.8945 N   0  0  0  0  0  0  0  0  0  0  0  0
  148.6207  136.0721  158.7463 C   0  0  0  0  0  0  0  0  0  0  0  0
  148.9921  135.0612  157.6458 C   0  0  0  0  0  0  0  0  0  0  0  0
  149.1707  135.6964  156.3396 N   0  0  0  0  0  0  0  0  0  0  0  0
  150.2034  136.7182  156.2150 C   0  0  0  0  0  0  0  0  0  0  0  0
  148.2017  135.6029  155.3830 C   0  0  0  0  0  0  0  0  0  0  0  0
  147.3131  136.6252  155.2508 N   0  0  0  0  0  0  0  0  0  0  0  0
  146.3510  136.5855  154.3264 C   0  0  0  0  0  0  0  0  0  0  0  0
  146.0881  135.6261  153.4405 N   0  0  0  0  0  0  0  0  0  0  0  0
  146.9597  134.5860  153.5676 C   0  0  0  0  0  0  0  0  0  0  0  0
  148.0385  134.4932  154.4962 C   0  0  0  0  0  0  0  0  0  0  0  0
  148.7015  133.2838  154.3085 N   0  0  0  0  0  0  0  0  0  0  0  0
  148.0638  132.7072  153.3279 C   0  0  0  0  0  0  0  0  0  0  0  0
  146.9835  133.4066  152.8436 N   0  0  0  0  0  0  0  0  0  0  0  0
  146.1318  133.0254  151.7552 C   0  0  0  0  0  0  0  0  0  0  0  0
  146.1530  133.7912  150.4306 C   0  0  0  0  0  0  0  0  0  0  0  0
  144.6457  133.5048  150.2472 C   0  0  0  0  0  0  0  0  0  0  0  0
  143.8096  134.6814  149.7183 C   0  0  0  0  0  0  0  0  0  0  0  0
  143.7712  134.6885  148.3060 O   0  0  0  0  0  0  0  0  0  0  0  0
  144.3111  132.2388  149.4332 C   0  0  0  0  0  0  0  0  0  0  0  0
  142.9196  132.1155  149.2188 O   0  0  0  0  0  0  0  0  0  0  0  0
  144.6302  133.3231  151.7813 C   0  0  0  0  0  0  0  0  0  0  0  0
  148.6606  133.7127  162.0589 H   0  0  0  0  0  0  0  0  0  0  0  0
  147.2804  133.2164  161.0813 H   0  0  0  0  0  0  0  0  0  0  0  0
  147.2118  133.0898  162.8350 H   0  0  0  0  0  0  0  0  0  0  0  0
  147.2876  135.5447  163.0713 H   0  0  0  0  0  0  0  0  0  0  0  0
  145.0562  136.1302  162.1012 H   0  0  0  0  0  0  0  0  0  0  0  0
  145.0406  134.5425  162.8549 H   0  0  0  0  0  0  0  0  0  0  0  0
  145.1068  134.6795  161.1015 H   0  0  0  0  0  0  0  0  0  0  0  0
  147.9353  134.4015  159.8473 H   0  0  0  0  0  0  0  0  0  0  0  0
  147.9006  136.7969  158.3661 H   0  0  0  0  0  0  0  0  0  0  0  0
  149.4964  136.6419  159.0610 H   0  0  0  0  0  0  0  0  0  0  0  0
  149.9256  134.5623  157.9083 H   0  0  0  0  0  0  0  0  0  0  0  0
  148.2471  134.2665  157.5884 H   0  0  0  0  0  0  0  0  0  0  0  0
  150.9449  136.4244  155.4720 H   0  0  0  0  0  0  0  0  0  0  0  0
  150.7250  136.8648  157.1611 H   0  0  0  0  0  0  0  0  0  0  0  0
  149.7725  137.6769  155.9246 H   0  0  0  0  0  0  0  0  0  0  0  0
  145.6967  137.4442  154.2939 H   0  0  0  0  0  0  0  0  0  0  0  0
  148.3614  131.7454  152.9361 H   0  0  0  0  0  0  0  0  0  0  0  0
  146.3131  131.9624  151.5884 H   0  0  0  0  0  0  0  0  0  0  0  0
  146.3729  134.8515  150.5687 H   0  0  0  0  0  0  0  0  0  0  0  0
  146.8045  133.3563  149.6721 H   0  0  0  0  0  0  0  0  0  0  0  0
  142.7820  134.6177  150.0775 H   0  0  0  0  0  0  0  0  0  0  0  0
  144.1959  135.6390  150.0683 H   0  0  0  0  0  0  0  0  0  0  0  0
  144.6585  134.7195  147.9825 H   0  0  0  0  0  0  0  0  0  0  0  0
  144.7970  132.2580  148.4578 H   0  0  0  0  0  0  0  0  0  0  0  0
  144.6702  131.3377  149.9307 H   0  0  0  0  0  0  0  0  0  0  0  0
  142.5157  132.9547  149.3789 H   0  0  0  0  0  0  0  0  0  0  0  0
  144.0121  132.4993  152.1391 H   0  0  0  0  0  0  0  0  0  0  0  0
  144.3957  134.2467  152.3144 H   0  0  0  0  0  0  0  0  0  0  0  0
  1  2  1  0  0  0  0
  1 28  1  0  0  0  0
  1 29  1  0  0  0  0
  1 30  1  0  0  0  0
  2  3  1  0  0  0  0
  2  4  1  0  0  0  0
  2 31  1  0  0  0  0
  3 32  1  0  0  0  0
  3 33  1  0  0  0  0
  3 34  1  0  0  0  0
  4  5  2  0  0  0  0
  4  6  1  0  0  0  0
  6  7  1  0  0  0  0
  6 35  1  0  0  0  0
  7  8  1  0  0  0  0
  7 36  1  0  0  0  0
  7 37  1  0  0  0  0
  8  9  1  0  0  0  0
  8 38  1  0  0  0  0
  8 39  1  0  0  0  0
  9 10  1  0  0  0  0
  9 11  1  0  0  0  0
 10 40  1  0  0  0  0
 10 41  1  0  0  0  0
 10 42  1  0  0  0  0
 11 16  1  0  0  0  0
 11 12  2  0  0  0  0
 12 13  1  0  0  0  0
 13 14  2  0  0  0  0
 13 43  1  0  0  0  0
 14 15  1  0  0  0  0
 15 19  1  0  0  0  0
 15 16  2  0  0  0  0
 16 17  1  0  0  0  0
 17 18  2  0  0  0  0
 18 19  1  0  0  0  0
 18 44  1  0  0  0  0
 19 20  1  0  0  0  0
 20 27  1  0  0  0  0
 20 21  1  0  0  0  0
 20 45  1  0  0  0  0
 21 22  1  0  0  0  0
 21 46  1  0  0  0  0
 21 47  1  0  0  0  0
 22 23  1  0  0  0  0
 22 25  1  0  0  0  0
 22 27  1  0  0  0  0
 23 24  1  0  0  0  0
 23 48  1  0  0  0  0
 23 49  1  0  0  0  0
 24 50  1  0  0  0  0
 25 26  1  0  0  0  0
 25 51  1  0  0  0  0
 25 52  1  0  0  0  0
 26 53  1  0  0  0  0
 27 54  1  0  0  0  0
 27 55  1  0  0  0  0
M  END
> <s_m_source_file>
AV-unprocessed.smi

> <i_m_source_file_index>
147

> <i_lp_mmshare_version>
43012

> <i_f3d_flags>
0

> <s_epik_input>
W0NIM11bQ0hdKFtDSDNdKUMoPU8pW05IXVtDSDJdW0NIMl1OKFtDSDNdKWMobltjSF1uMSljKGMxMiluW2NIXW4yW0NIXShbQ0gyXTMpW0NIMl1DMyhbQ0gyXVtPSF0pW0NIMl1bT0hd

> <s_epik_cmdline>
J2VwaWtfcHl0aG9uJywgJy1waCcsICc3LjAnLCAnLXRuJywgJzgnLCAnLW1hJywgJzIwMCcsICctbWV0YWxfYmluZGluZycsICctaW1hZScsICc8aW5maWxlLm1hZT4nLCAnLW9tYWUnLCAnPG91dGZpbGUubWFlPic=

> <r_lp_tautomer_probability>
1

> <r_epik_Ionization_Penalty>
0.00124047

> <r_epik_Ionization_Penalty_Charging>
0

> <r_epik_Ionization_Penalty_Neutral>
0.00124047

> <r_epik_State_Penalty>
0.000682986

> <r_epik_Charging_Adjusted_Penalty>
0.000682986

> <i_epik_Tot_Q>
0

> <i_epik_Tot_abs_Q>
0

> <r_epik_Metal_State_Penalty>
-0

> <b_epik_Metal_Only>
0

> <s_lp_Force_Field>
OPLS_2005

> <r_lp_Energy>
28.5646

> <b_lp_Chiralities_Consistent>
1

> <s_lp_Variant>
AV-unprocessed.smi:147-1

> <Gold.Version>
5.8.1

> <Gold.Id.Protein>
6NUR|6NUR_protein|mol2

> <Gold.PLP.Fitness>
49.9782

> <Gold.PLP.PLP>
-40.0471

> <Gold.PLP.part.hbond>
-7.5224

> <Gold.PLP.part.metal>
0.0000

> <Gold.PLP.part.buried>
-0.8313

> <Gold.PLP.part.nonpolar>
-31.1858

> <Gold.PLP.part.repulsive>
0.3450

> <Gold.PLP.ligand.clash>
0.0000

> <Gold.PLP.ligand.torsion>
3.0829

> <Gold.PLP.Chemscore.Hbond>
4.7891

> <Gold.PLP.Chemscore.CHOScore>
0.3149

> <Gold.PLP.Chemscore.Metal>
0.0000

> <Gold.Chemscore.Hbonds>
donor molecule, donor type, donor heavy atom, donor atom, acceptor molecule, acceptor atom, score
      L1  H    24    50       P1  7921  0.93
      L1  H    26    53       P1 10186  0.81
      P1  H  6931  6943       L1     5  0.90
      P1  H  6934  6947       L1     5  0.88
      P1  H 10192 10197       L1    24  0.70
      P1  H 10785 10796       L1    26  0.43
      L1  C    18    44       P1 10747  0.19

> <Gold.PLP.Chemscore.Internal.Correction>
0.7850

> <Gold.Rescore>
     Score         DG    S(hbond)    S(metal)    S(lipo)     H(rot)  DE(clash)    DE(int)     intcor
     15.24     -19.67       4.62        0.00      79.99       4.15       1.59       2.84       ----

> <Gold.Chemscore.Fitness>
15.2390

> <Gold.Chemscore.DG>
-19.6686

> <Gold.Chemscore.ZeroCoef>
-5.4800

> <Gold.Chemscore.Hbond>
4.6246

> <Gold.Chemscore.Metal>
0.0000

> <Gold.Chemscore.Lipo>
79.9921

> <Gold.Chemscore.Internal_Hbond>
0.0000

> <Gold.Chemscore.DEClash>
1.5940

> <Gold.Chemscore.DEInternal>
2.8356

> <Gold.Chemscore.Rot>
4.1472

> <Gold.Chemscore.Internal.Correction>
   9.000000E+99

> <Gold.Chemscore.Hbonds>
donor molecule, donor type, donor heavy atom, donor atom, acceptor molecule, acceptor atom, score
      L1  H    24    50       P1  7921  0.89
      L1  H    26    53       P1 10186  0.80
      P1  H  6931  6943       L1     5  0.88
      P1  H  6934  6947       L1     5  0.86
      P1  H 10192 10197       L1    24  0.70
      P1  H 10785 10796       L1    26  0.01

> <Gold.Chemscore.Hbond.Weighted>
-15.4463

> <Gold.Chemscore.Metal.Weighted>
-0.0000

> <Gold.Chemscore.Lipo.Weighted>
-9.3591

> <Gold.Chemscore.Internal_Hbond.Weighted>
0.0000

> <Gold.Chemscore.DEClash.Weighted>
1.5940

> <Gold.Chemscore.DEInternal.Weighted>
2.8356

> <Gold.Chemscore.Rot.Weighted>
10.6167

> <Gold.Chemscore.Internal.Correction.Weighted>
   9.000000E+99

> <Gold.Protein.RotatedTorsions>
[ 6907 6896 6895 6894 ] final  109.01 input  -60.11 | X-H torsion
[ 7974 7965 7964 7962 ] final -110.80 input  175.53 | X-H torsion
[ 8008 7997 7996 7995 ] final   24.93 input   59.86 | X-H torsion
[ 10167 10162 10161 10158 ] final  161.80 input  -65.29 | X-H torsion
[ 10718 10713 10712 10709 ] final  -77.31 input   66.30 | X-H torsion
[ 10763 10752 10751 10750 ] final   61.33 input  -60.55 | X-H torsion
[ 11005 11000 10999 10996 ] final -143.13 input  -57.11 | X-H torsion

> <Gold.Protein.ActiveResidues>
 VAL166  LYS551  ARG553  GLY616  TRP617  ASP618  TYR619  PRO620  LYS621  CYS622 
 ASP623  PHE694  ASN695  SER759  ASP760  ASP761  ALA762  ILE779  LEU786  VAL792 
 PHE793  MET794  SER795  GLU796  ALA797  LYS798  CYS799  TRP800  GLU811  SER814 

> <Gold.Protein.RotatedAtoms>
  152.5086  133.9005  159.7438 H   0  0  0  0  0  0  0  0  0  0  0  0  # atno 6907 bound_to 6896
  150.9422  133.6635  159.2795 H   0  0  0  0  0  0  0  0  0  0  0  0  # atno 6908 bound_to 6896
  151.3942  135.0966  159.9588 H   0  0  0  0  0  0  0  0  0  0  0  0  # atno 6909 bound_to 6896
  145.1638  140.8892  143.3575 H   0  0  0  0  0  0  0  0  0  0  0  0  # atno 7974 bound_to 7965
  155.0039  140.3128  155.4856 H   0  0  0  0  0  0  0  0  0  0  0  0  # atno 8008 bound_to 7997
  156.2920  140.2227  156.5091 H   0  0  0  0  0  0  0  0  0  0  0  0  # atno 8009 bound_to 7997
  154.7594  140.0460  157.0949 H   0  0  0  0  0  0  0  0  0  0  0  0  # atno 8010 bound_to 7997
  139.4853  144.4500  151.8842 H   0  0  0  0  0  0  0  0  0  0  0  0  # atno 10167 bound_to 10162
  156.0149  130.4488  150.3325 H   0  0  0  0  0  0  0  0  0  0  0  0  # atno 10718 bound_to 10713
  152.9947  135.5504  154.6016 H   0  0  0  0  0  0  0  0  0  0  0  0  # atno 10763 bound_to 10752
  154.5356  135.2816  155.1143 H   0  0  0  0  0  0  0  0  0  0  0  0  # atno 10764 bound_to 10752
  154.2441  135.6411  153.5270 H   0  0  0  0  0  0  0  0  0  0  0  0  # atno 10765 bound_to 10752
  140.8156  134.2692  157.4922 H   0  0  0  0  0  0  0  0  0  0  0  0  # atno 11005 bound_to 11000
  145.0303  139.3346  143.6028 LP  0  0  0  0  0  0  0  0  0  0  0  0  # atno 17320 bound_to 7965
  146.3478  139.9638  142.8714 LP  0  0  0  0  0  0  0  0  0  0  0  0  # atno 17321 bound_to 7965
  140.3956  144.2559  150.5896 LP  0  0  0  0  0  0  0  0  0  0  0  0  # atno 17342 bound_to 10162
  140.5105  143.2292  151.8543 LP  0  0  0  0  0  0  0  0  0  0  0  0  # atno 17343 bound_to 10162
  157.1423  131.0299  151.2922 LP  0  0  0  0  0  0  0  0  0  0  0  0  # atno 17370 bound_to 10713
  157.4461  130.7572  149.7111 LP  0  0  0  0  0  0  0  0  0  0  0  0  # atno 17371 bound_to 10713
  139.8711  134.9507  156.4064 LP  0  0  0  0  0  0  0  0  0  0  0  0  # atno 17394 bound_to 11000
  140.9152  133.7683  155.9839 LP  0  0  0  0  0  0  0  0  0  0  0  0  # atno 17395 bound_to 11000

$$$$
