AV-unprocessed.smi:2976|AV-procd|sdf|11365|dock8
  -GOLD-   2272016283D 1   1.00000     0.00000
 Structure written by MMmdl.
 40 41  0  0  0  0  0  0  0  0  1 V2000
  153.6308  141.3540  159.9735 C   0  0  0  0  0  0  0  0  0  0  0  0
  152.9445  142.4456  159.1353 C   0  0  2  0  0  0  0  0  0  0  0  0
  152.3250  143.5446  160.0220 C   0  0  0  0  0  0  0  0  0  0  0  0
  151.7346  144.6832  159.1755 C   0  0  0  0  0  0  0  0  0  0  0  0
  150.7267  144.1559  158.1427 C   0  0  0  0  0  0  0  0  0  0  0  0
  151.3520  143.0591  157.2591 C   0  0  2  0  0  0  0  0  0  0  0  0
  150.3777  142.6080  156.2675 N   0  0  0  0  0  0  0  0  0  0  0  0
  150.4477  141.4616  155.5737 C   0  0  0  0  0  0  0  0  0  0  0  0
  151.3630  140.6479  155.7083 O   0  0  0  0  0  0  0  0  0  0  0  0
  149.2926  141.2034  154.5943 C   0  0  0  0  0  0  0  0  0  0  0  0
  147.9920  141.6949  155.0730 N   0  0  0  0  0  0  0  0  0  0  0  0
  147.2592  142.3715  154.1138 N   0  0  0  0  0  0  0  0  0  0  0  0
  146.1127  142.8697  154.4258 C   0  0  0  0  0  0  0  0  0  0  0  0
  145.5536  142.7442  155.7535 C   0  0  0  0  0  0  0  0  0  0  0  0
  144.0107  143.4352  156.1132 Cl  0  0  0  0  0  0  0  0  0  0  0  0
  146.2769  142.0730  156.6848 C   0  0  0  0  0  0  0  0  0  0  0  0
  145.6741  141.8818  158.2954 Cl  0  0  0  0  0  0  0  0  0  0  0  0
  147.5877  141.4905  156.3648 C   0  0  0  0  0  0  0  0  0  0  0  0
  148.2734  140.8731  157.1806 O   0  0  0  0  0  0  0  0  0  0  0  0
  151.9177  141.8899  158.1128 C   0  0  2  0  0  0  0  0  0  0  0  0
  150.8161  141.0155  158.7561 C   0  0  0  0  0  0  0  0  0  0  0  0
  152.9402  140.8870  160.6755 H   0  0  0  0  0  0  0  0  0  0  0  0
  154.4515  141.7727  160.5564 H   0  0  0  0  0  0  0  0  0  0  0  0
  154.0466  140.5720  159.3377 H   0  0  0  0  0  0  0  0  0  0  0  0
  153.7377  142.9189  158.5541 H   0  0  0  0  0  0  0  0  0  0  0  0
  151.5502  143.1211  160.6617 H   0  0  0  0  0  0  0  0  0  0  0  0
  153.0828  143.9511  160.6925 H   0  0  0  0  0  0  0  0  0  0  0  0
  151.2544  145.4175  159.8229 H   0  0  0  0  0  0  0  0  0  0  0  0
  152.5405  145.2074  158.6603 H   0  0  0  0  0  0  0  0  0  0  0  0
  149.8445  143.7714  158.6553 H   0  0  0  0  0  0  0  0  0  0  0  0
  150.3813  144.9829  157.5209 H   0  0  0  0  0  0  0  0  0  0  0  0
  152.1828  143.5178  156.7186 H   0  0  0  0  0  0  0  0  0  0  0  0
  149.5897  143.2159  156.0972 H   0  0  0  0  0  0  0  0  0  0  0  0
  149.5429  141.6758  153.6427 H   0  0  0  0  0  0  0  0  0  0  0  0
  149.2363  140.1341  154.3819 H   0  0  0  0  0  0  0  0  0  0  0  0
  145.5025  143.4133  153.7045 H   0  0  0  0  0  0  0  0  0  0  0  0
  152.4696  141.2343  157.4376 H   0  0  0  0  0  0  0  0  0  0  0  0
  150.2173  141.5728  159.4755 H   0  0  0  0  0  0  0  0  0  0  0  0
  151.2405  140.1574  159.2760 H   0  0  0  0  0  0  0  0  0  0  0  0
  150.1357  140.6122  158.0064 H   0  0  0  0  0  0  0  0  0  0  0  0
  1  2  1  0  0  0  0
  1 22  1  0  0  0  0
  1 23  1  0  0  0  0
  1 24  1  0  0  0  0
  2 20  1  0  0  0  0
  2  3  1  0  0  0  0
  2 25  1  0  0  0  0
  3  4  1  0  0  0  0
  3 26  1  0  0  0  0
  3 27  1  0  0  0  0
  4  5  1  0  0  0  0
  4 28  1  0  0  0  0
  4 29  1  0  0  0  0
  5  6  1  0  0  0  0
  5 30  1  0  0  0  0
  5 31  1  0  0  0  0
  6  7  1  0  0  0  0
  6 20  1  0  0  0  0
  6 32  1  0  0  0  0
  7  8  1  0  0  0  0
  7 33  1  0  0  0  0
  8  9  2  0  0  0  0
  8 10  1  0  0  0  0
 10 11  1  0  0  0  0
 10 34  1  0  0  0  0
 10 35  1  0  0  0  0
 11 18  1  0  0  0  0
 11 12  1  0  0  0  0
 12 13  2  0  0  0  0
 13 14  1  0  0  0  0
 13 36  1  0  0  0  0
 14 15  1  0  0  0  0
 14 16  2  0  0  0  0
 16 17  1  0  0  0  0
 16 18  1  0  0  0  0
 18 19  2  0  0  0  0
 20 21  1  0  0  0  0
 20 37  1  0  0  0  0
 21 38  1  0  0  0  0
 21 39  1  0  0  0  0
 21 40  1  0  0  0  0
M  END
> <s_m_source_file>
AV-unprocessed.smi

> <i_m_source_file_index>
2976

> <i_lp_mmshare_version>
43012

> <i_f3d_flags>
0

> <s_epik_input>
W0NIM11bQ0BASF0xW0NIMl1bQ0gyXVtDSDJdW0NASF0oW0NASF0xW0NIM10pW05IXUMoPU8pW0NIMl1uMm5bY0hdYyhDbCljKENsKWMyPU8=

> <s_epik_cmdline>
J2VwaWtfcHl0aG9uJywgJy1waCcsICc3LjAnLCAnLXRuJywgJzgnLCAnLW1hJywgJzIwMCcsICctbWV0YWxfYmluZGluZycsICctaW1hZScsICc8aW5maWxlLm1hZT4nLCAnLW9tYWUnLCAnPG91dGZpbGUubWFlPic=

> <r_lp_tautomer_probability>
1

> <r_epik_Ionization_Penalty>
1.90777e-08

> <r_epik_Ionization_Penalty_Charging>
3.07942e-11

> <r_epik_Ionization_Penalty_Neutral>
1.90469e-08

> <r_epik_State_Penalty>
-0

> <r_epik_Charging_Adjusted_Penalty>
3.07942e-11

> <i_epik_Tot_Q>
0

> <i_epik_Tot_abs_Q>
0

> <r_epik_Metal_State_Penalty>
-0

> <b_epik_Metal_Only>
0

> <s_lp_Force_Field>
OPLS_2005

> <r_lp_Energy>
28.3124

> <b_lp_Chiralities_Consistent>
1

> <s_lp_Variant>
AV-unprocessed.smi:2976-7

> <Gold.Version>
5.8.1

> <Gold.Id.Protein>
6NUR|6NUR_protein|mol2

> <Gold.PLP.Fitness>
42.8513

> <Gold.PLP.PLP>
-41.2988

> <Gold.PLP.part.hbond>
-1.7242

> <Gold.PLP.part.metal>
0.0000

> <Gold.PLP.part.buried>
-4.4779

> <Gold.PLP.part.nonpolar>
-35.9164

> <Gold.PLP.part.repulsive>
0.3226

> <Gold.PLP.ligand.clash>
0.0000

> <Gold.PLP.ligand.torsion>
0.8241

> <Gold.PLP.Chemscore.Hbond>
1.0624

> <Gold.PLP.Chemscore.CHOScore>
0.0000

> <Gold.PLP.Chemscore.Metal>
0.0000

> <Gold.Chemscore.Hbonds>
donor molecule, donor type, donor heavy atom, donor atom, acceptor molecule, acceptor atom, score
      L1  H     7    33       P1  8028  1.00
      P1  H  7989  7998       L1     9  0.10

> <Gold.PLP.Chemscore.Internal.Correction>
0.0135

> <Gold.Rescore>
     Score         DG    S(hbond)    S(metal)    S(lipo)     H(rot)  DE(clash)    DE(int)     intcor
     13.26     -16.57       0.99        0.00      98.94       1.49       0.04       3.26       ----

> <Gold.Chemscore.Fitness>
13.2646

> <Gold.Chemscore.DG>
-16.5690

> <Gold.Chemscore.ZeroCoef>
-5.4800

> <Gold.Chemscore.Hbond>
0.9936

> <Gold.Chemscore.Metal>
0.0000

> <Gold.Chemscore.Lipo>
98.9412

> <Gold.Chemscore.Internal_Hbond>
0.0000

> <Gold.Chemscore.DEClash>
0.0429

> <Gold.Chemscore.DEInternal>
3.2615

> <Gold.Chemscore.Rot>
1.4866

> <Gold.Chemscore.Internal.Correction>
   9.000000E+99

> <Gold.Chemscore.Hbonds>
donor molecule, donor type, donor heavy atom, donor atom, acceptor molecule, acceptor atom, score
      L1  H     7    33       P1  8028  0.97

> <Gold.Chemscore.Hbond.Weighted>
-3.3185

> <Gold.Chemscore.Metal.Weighted>
-0.0000

> <Gold.Chemscore.Lipo.Weighted>
-11.5761

> <Gold.Chemscore.Internal_Hbond.Weighted>
0.0000

> <Gold.Chemscore.DEClash.Weighted>
0.0429

> <Gold.Chemscore.DEInternal.Weighted>
3.2615

> <Gold.Chemscore.Rot.Weighted>
3.8057

> <Gold.Chemscore.Internal.Correction.Weighted>
   9.000000E+99

> <Gold.Protein.RotatedTorsions>
[ 6907 6896 6895 6894 ] final   90.87 input  -60.11 | X-H torsion
[ 7974 7965 7964 7962 ] final -153.08 input  175.53 | X-H torsion
[ 8008 7997 7996 7995 ] final   72.36 input   59.86 | X-H torsion
[ 10167 10162 10161 10158 ] final  -69.46 input  -65.29 | X-H torsion
[ 10718 10713 10712 10709 ] final -109.54 input   66.30 | X-H torsion
[ 10763 10752 10751 10750 ] final   42.51 input  -60.55 | X-H torsion
[ 11005 11000 10999 10996 ] final  123.11 input  -57.11 | X-H torsion

> <Gold.Protein.ActiveResidues>
 VAL166  LYS551  ARG553  GLY616  TRP617  ASP618  TYR619  PRO620  LYS621  CYS622 
 ASP623  PHE694  ASN695  SER759  ASP760  ASP761  ALA762  ILE779  LEU786  VAL792 
 PHE793  MET794  SER795  GLU796  ALA797  LYS798  CYS799  TRP800  GLU811  SER814 

> <Gold.Protein.RotatedAtoms>
  152.5447  134.1744  159.8609 H   0  0  0  0  0  0  0  0  0  0  0  0  # atno 6907 bound_to 6896
  151.1752  133.4752  159.2601 H   0  0  0  0  0  0  0  0  0  0  0  0  # atno 6908 bound_to 6896
  151.1234  135.0103  159.8604 H   0  0  0  0  0  0  0  0  0  0  0  0  # atno 6909 bound_to 6896
  144.7760  140.4575  143.5873 H   0  0  0  0  0  0  0  0  0  0  0  0  # atno 7974 bound_to 7965
  155.7676  140.3485  155.5230 H   0  0  0  0  0  0  0  0  0  0  0  0  # atno 8008 bound_to 7997
  155.8853  140.1009  157.1477 H   0  0  0  0  0  0  0  0  0  0  0  0  # atno 8009 bound_to 7997
  154.4028  140.1314  156.4235 H   0  0  0  0  0  0  0  0  0  0  0  0  # atno 8010 bound_to 7997
  140.5429  143.2314  151.7056 H   0  0  0  0  0  0  0  0  0  0  0  0  # atno 10167 bound_to 10162
  156.0542  130.5769  150.8113 H   0  0  0  0  0  0  0  0  0  0  0  0  # atno 10718 bound_to 10713
  152.9881  135.6129  154.2961 H   0  0  0  0  0  0  0  0  0  0  0  0  # atno 10763 bound_to 10752
  154.2684  135.2780  155.2750 H   0  0  0  0  0  0  0  0  0  0  0  0  # atno 10764 bound_to 10752
  154.5144  135.5832  153.6687 H   0  0  0  0  0  0  0  0  0  0  0  0  # atno 10765 bound_to 10752
  139.9298  134.9641  156.8210 H   0  0  0  0  0  0  0  0  0  0  0  0  # atno 11005 bound_to 11000
  145.6186  139.1521  143.3035 LP  0  0  0  0  0  0  0  0  0  0  0  0  # atno 17320 bound_to 7965
  146.1939  140.6297  142.9133 LP  0  0  0  0  0  0  0  0  0  0  0  0  # atno 17321 bound_to 7965
  139.4996  144.3940  152.0250 LP  0  0  0  0  0  0  0  0  0  0  0  0  # atno 17342 bound_to 10162
  140.3051  144.3602  150.6049 LP  0  0  0  0  0  0  0  0  0  0  0  0  # atno 17343 bound_to 10162
  157.5497  131.0943  150.9713 LP  0  0  0  0  0  0  0  0  0  0  0  0  # atno 17370 bound_to 10713
  156.9975  130.5587  149.5308 LP  0  0  0  0  0  0  0  0  0  0  0  0  # atno 17371 bound_to 10713
  140.6234  133.9973  155.7628 LP  0  0  0  0  0  0  0  0  0  0  0  0  # atno 17394 bound_to 11000
  141.0879  133.9962  157.3284 LP  0  0  0  0  0  0  0  0  0  0  0  0  # atno 17395 bound_to 11000

$$$$
