AV-unprocessed.smi:1965|AV-procd|sdf|7939|dock9
  -GOLD-   2272010103D 1   1.00000     0.00000
 Structure written by MMmdl.
 37 39  0  0  0  0  0  0  0  0  2 V2000
  150.7704  141.4533  158.1659 O   0  0  0  0  0  0  0  0  0  0  0  0
  150.2617  142.3360  157.4770 C   0  0  0  0  0  0  0  0  0  0  0  0
  150.3967  143.6390  157.8037 N   0  0  0  0  0  0  0  0  0  0  0  0
  151.0741  144.2780  158.8829 C   0  0  0  0  0  0  0  0  0  0  0  0
  151.1810  145.6022  159.0535 N   0  0  0  0  0  0  0  0  0  0  0  0
  151.9148  145.9305  160.1964 C   0  0  0  0  0  0  0  0  0  0  0  0
  152.3696  144.8363  160.8881 C   0  0  0  0  0  0  0  0  0  0  0  0
  151.8913  143.3427  160.1274 S   0  0  0  0  0  0  0  0  0  0  0  0
  149.5443  142.0705  156.3730 N   0  0  0  0  0  0  0  0  0  0  0  0
  149.2694  140.7424  155.8348 C   0  0  1  0  0  0  0  0  0  0  0  0
  148.1142  140.7293  154.8408 C   0  0  0  0  0  0  0  0  0  0  0  0
  148.3558  139.4230  154.0825 C   0  0  0  0  0  0  0  0  0  0  0  0
  149.8258  139.2513  154.0245 N   0  3  2  0  0  0  0  0  0  0  0  0
  150.2860  137.8434  154.1059 C   0  0  0  0  0  0  0  0  0  0  0  0
  151.8218  137.7662  154.0201 C   0  0  0  0  0  0  0  0  0  0  0  0
  152.5320  138.7314  154.9924 C   0  0  0  0  0  0  0  0  0  0  0  0
  151.5422  139.5179  155.8656 C   0  0  0  0  0  0  0  0  0  0  0  0
  150.4417  140.1854  155.0097 C   0  0  2  0  0  0  0  0  0  0  0  0
  149.9142  144.2746  157.1848 H   0  0  0  0  0  0  0  0  0  0  0  0
  152.0672  146.9708  160.4427 H   0  0  0  0  0  0  0  0  0  0  0  0
  152.9560  144.8184  161.7949 H   0  0  0  0  0  0  0  0  0  0  0  0
  149.1614  142.8570  155.8669 H   0  0  0  0  0  0  0  0  0  0  0  0
  149.0217  140.0492  156.6416 H   0  0  0  0  0  0  0  0  0  0  0  0
  147.1367  140.7646  155.3227 H   0  0  0  0  0  0  0  0  0  0  0  0
  148.1875  141.5772  154.1574 H   0  0  0  0  0  0  0  0  0  0  0  0
  147.9066  138.5981  154.6382 H   0  0  0  0  0  0  0  0  0  0  0  0
  147.9157  139.4309  153.0850 H   0  0  0  0  0  0  0  0  0  0  0  0
  149.9395  137.3960  155.0389 H   0  0  0  0  0  0  0  0  0  0  0  0
  149.8377  137.2669  153.2960 H   0  0  0  0  0  0  0  0  0  0  0  0
  152.1447  136.7422  154.2114 H   0  0  0  0  0  0  0  0  0  0  0  0
  152.1369  137.9929  153.0008 H   0  0  0  0  0  0  0  0  0  0  0  0
  153.2284  138.1814  155.6262 H   0  0  0  0  0  0  0  0  0  0  0  0
  153.1371  139.4344  154.4188 H   0  0  0  0  0  0  0  0  0  0  0  0
  151.0918  138.8431  156.5949 H   0  0  0  0  0  0  0  0  0  0  0  0
  152.0772  140.2716  156.4438 H   0  0  0  0  0  0  0  0  0  0  0  0
  150.8870  140.9907  154.4228 H   0  0  0  0  0  0  0  0  0  0  0  0
  150.1177  139.5899  153.1186 H   0  0  0  0  0  0  0  0  0  0  0  0
  1  2  2  0  0  0  0
  2  3  1  0  0  0  0
  2  9  1  0  0  0  0
  3  4  1  0  0  0  0
  3 19  1  0  0  0  0
  4  8  1  0  0  0  0
  4  5  2  0  0  0  0
  5  6  1  0  0  0  0
  6  7  2  0  0  0  0
  6 20  1  0  0  0  0
  7  8  1  0  0  0  0
  7 21  1  0  0  0  0
  9 10  1  0  0  0  0
  9 22  1  0  0  0  0
 10 18  1  0  0  0  0
 10 11  1  0  0  0  0
 10 23  1  0  0  0  0
 11 12  1  0  0  0  0
 11 24  1  0  0  0  0
 11 25  1  0  0  0  0
 12 13  1  0  0  0  0
 12 26  1  0  0  0  0
 12 27  1  0  0  0  0
 13 18  1  0  0  0  0
 13 14  1  0  0  0  0
 13 37  1  0  0  0  0
 14 15  1  0  0  0  0
 14 28  1  0  0  0  0
 14 29  1  0  0  0  0
 15 16  1  0  0  0  0
 15 30  1  0  0  0  0
 15 31  1  0  0  0  0
 16 17  1  0  0  0  0
 16 32  1  0  0  0  0
 16 33  1  0  0  0  0
 17 18  1  0  0  0  0
 17 34  1  0  0  0  0
 17 35  1  0  0  0  0
 18 36  1  0  0  0  0
M  CHG  1  13   1
M  END
> <s_m_source_file>
AV-unprocessed.smi

> <i_m_source_file_index>
1965

> <i_lp_mmshare_version>
43012

> <i_f3d_flags>
0

> <s_epik_input>
czFbY0hdW2NIXW5jMVtOSF1DKD1PKVtOSF1bQ0BIXShbQ0gyXVtDSDJdMilbQ0BASF0oTjIzKVtDSDJdW0NIMl1bQ0gyXVtDSDJdMw==

> <s_epik_cmdline>
J2VwaWtfcHl0aG9uJywgJy1waCcsICc3LjAnLCAnLXRuJywgJzgnLCAnLW1hJywgJzIwMCcsICctbWV0YWxfYmluZGluZycsICctaW1hZScsICc8aW5maWxlLm1hZT4nLCAnLW9tYWUnLCAnPG91dGZpbGUubWFlPic=

> <r_lp_tautomer_probability>
1

> <r_epik_Ionization_Penalty>
0.00125962

> <r_epik_Ionization_Penalty_Charging>
0.00107044

> <r_epik_Ionization_Penalty_Neutral>
0.000189176

> <r_epik_State_Penalty>
-0

> <r_epik_Charging_Adjusted_Penalty>
0.00107044

> <i_epik_Tot_Q>
1

> <i_epik_Tot_abs_Q>
1

> <r_epik_Metal_State_Penalty>
0.0179285

> <b_epik_Metal_Only>
0

> <s_lp_Force_Field>
OPLS_2005

> <r_lp_Energy>
40.5286

> <b_lp_Chiralities_Consistent>
1

> <s_lp_Variant>
AV-unprocessed.smi:1965-8

> <Gold.Version>
5.8.1

> <Gold.Id.Protein>
6NUR|6NUR_protein|mol2

> <Gold.PLP.Fitness>
41.2794

> <Gold.PLP.PLP>
-32.9425

> <Gold.PLP.part.hbond>
-4.0000

> <Gold.PLP.part.metal>
0.0000

> <Gold.PLP.part.buried>
-0.6580

> <Gold.PLP.part.nonpolar>
-28.9648

> <Gold.PLP.part.repulsive>
0.3720

> <Gold.PLP.ligand.clash>
0.0000

> <Gold.PLP.ligand.torsion>
0.2620

> <Gold.PLP.Chemscore.Hbond>
2.9511

> <Gold.PLP.Chemscore.CHOScore>
0.0000

> <Gold.PLP.Chemscore.Metal>
0.0000

> <Gold.Chemscore.Hbonds>
donor molecule, donor type, donor heavy atom, donor atom, acceptor molecule, acceptor atom, score
      L1  H     3    19       P1  8028  1.00
      L1  H     9    22       P1  8028  1.00
      L1  H    13    37       P1  7957  0.89

> <Gold.PLP.Chemscore.Internal.Correction>
0.0078

> <Gold.Rescore>
     Score         DG    S(hbond)    S(metal)    S(lipo)     H(rot)  DE(clash)    DE(int)     intcor
     18.06     -20.94       2.27        0.00      89.26       1.00       1.40       1.48       ----

> <Gold.Chemscore.Fitness>
18.0611

> <Gold.Chemscore.DG>
-20.9363

> <Gold.Chemscore.ZeroCoef>
-5.4800

> <Gold.Chemscore.Hbond>
2.2674

> <Gold.Chemscore.Metal>
0.0000

> <Gold.Chemscore.Lipo>
89.2577

> <Gold.Chemscore.Internal_Hbond>
0.0000

> <Gold.Chemscore.DEClash>
1.3983

> <Gold.Chemscore.DEInternal>
1.4769

> <Gold.Chemscore.Rot>
1.0000

> <Gold.Chemscore.Internal.Correction>
   9.000000E+99

> <Gold.Chemscore.Hbonds>
donor molecule, donor type, donor heavy atom, donor atom, acceptor molecule, acceptor atom, score
      L1  H     3    19       P1  8028  0.59
      L1  H     9    22       P1  8028  0.95
      L1  H    13    37       P1  7957  0.82

> <Gold.Chemscore.Hbond.Weighted>
-7.5732

> <Gold.Chemscore.Metal.Weighted>
-0.0000

> <Gold.Chemscore.Lipo.Weighted>
-10.4431

> <Gold.Chemscore.Internal_Hbond.Weighted>
0.0000

> <Gold.Chemscore.DEClash.Weighted>
1.3983

> <Gold.Chemscore.DEInternal.Weighted>
1.4769

> <Gold.Chemscore.Rot.Weighted>
2.5600

> <Gold.Chemscore.Internal.Correction.Weighted>
   9.000000E+99

> <Gold.Protein.RotatedTorsions>
[ 6907 6896 6895 6894 ] final    5.00 input  -60.11 | X-H torsion
[ 7974 7965 7964 7962 ] final -165.44 input  175.53 | X-H torsion
[ 8008 7997 7996 7995 ] final  -27.26 input   59.86 | X-H torsion
[ 10167 10162 10161 10158 ] final   -6.44 input  -65.29 | X-H torsion
[ 10718 10713 10712 10709 ] final -115.33 input   66.30 | X-H torsion
[ 10763 10752 10751 10750 ] final   -1.62 input  -60.55 | X-H torsion
[ 11005 11000 10999 10996 ] final   98.56 input  -57.11 | X-H torsion

> <Gold.Protein.ActiveResidues>
 VAL166  LYS551  ARG553  GLY616  TRP617  ASP618  TYR619  PRO620  LYS621  CYS622 
 ASP623  PHE694  ASN695  SER759  ASP760  ASP761  ALA762  ILE779  LEU786  VAL792 
 PHE793  MET794  SER795  GLU796  ALA797  LYS798  CYS799  TRP800  GLU811  SER814 

> <Gold.Protein.RotatedAtoms>
  151.6504  135.1002  160.0159 H   0  0  0  0  0  0  0  0  0  0  0  0  # atno 6907 bound_to 6896
  152.4004  133.6805  159.6320 H   0  0  0  0  0  0  0  0  0  0  0  0  # atno 6908 bound_to 6896
  150.7905  133.8718  159.3302 H   0  0  0  0  0  0  0  0  0  0  0  0  # atno 6909 bound_to 6896
  144.7270  140.2814  143.6235 H   0  0  0  0  0  0  0  0  0  0  0  0  # atno 7974 bound_to 7965
  154.4386  140.1877  156.0904 H   0  0  0  0  0  0  0  0  0  0  0  0  # atno 8008 bound_to 7997
  156.0370  140.3324  155.7176 H   0  0  0  0  0  0  0  0  0  0  0  0  # atno 8009 bound_to 7997
  155.5755  140.0616  157.2787 H   0  0  0  0  0  0  0  0  0  0  0  0  # atno 8010 bound_to 7997
  140.6997  143.6194  150.8627 H   0  0  0  0  0  0  0  0  0  0  0  0  # atno 10167 bound_to 10162
  156.0888  130.6075  150.8891 H   0  0  0  0  0  0  0  0  0  0  0  0  # atno 10718 bound_to 10713
  153.3473  135.6984  153.6817 H   0  0  0  0  0  0  0  0  0  0  0  0  # atno 10763 bound_to 10752
  153.5558  135.3544  155.2779 H   0  0  0  0  0  0  0  0  0  0  0  0  # atno 10764 bound_to 10752
  154.8647  135.4237  154.2700 H   0  0  0  0  0  0  0  0  0  0  0  0  # atno 10765 bound_to 10752
  139.8772  134.9054  156.4474 H   0  0  0  0  0  0  0  0  0  0  0  0  # atno 11005 bound_to 11000
  145.7946  139.1940  143.2083 LP  0  0  0  0  0  0  0  0  0  0  0  0  # atno 17320 bound_to 7965
  146.0727  140.7851  142.9680 LP  0  0  0  0  0  0  0  0  0  0  0  0  # atno 17321 bound_to 7965
  139.9915  143.5842  152.2908 LP  0  0  0  0  0  0  0  0  0  0  0  0  # atno 17342 bound_to 10162
  139.6498  144.7660  151.2170 LP  0  0  0  0  0  0  0  0  0  0  0  0  # atno 17343 bound_to 10162
  157.6031  131.0940  150.8925 LP  0  0  0  0  0  0  0  0  0  0  0  0  # atno 17370 bound_to 10713
  156.9079  130.5270  149.5281 LP  0  0  0  0  0  0  0  0  0  0  0  0  # atno 17371 bound_to 10713
  140.8956  133.7816  155.9621 LP  0  0  0  0  0  0  0  0  0  0  0  0  # atno 17394 bound_to 11000
  140.8706  134.2731  157.5192 LP  0  0  0  0  0  0  0  0  0  0  0  0  # atno 17395 bound_to 11000

$$$$
