AV-unprocessed.smi:170|AV-procd|sdf|1412|dock10
  -GOLD-   2262019173D 1   1.00000     0.00000
 Structure written by MMmdl.
 57 61  0  0  0  0  0  0  0  0  1 V2000
  147.7405  139.2171  152.7560 O   0  0  0  0  0  0  0  0  0  0  0  0
  147.6144  139.9010  153.9891 C   0  0  2  0  0  0  0  0  0  0  0  0
  148.6854  141.0016  154.1197 C   0  0  0  0  0  0  0  0  0  0  0  0
  149.4166  140.9119  155.3711 N   0  0  0  0  0  0  0  0  0  0  0  0
  149.0210  141.4087  156.5926 C   0  0  0  0  0  0  0  0  0  0  0  0
  149.8613  141.2122  157.5722 N   0  0  0  0  0  0  0  0  0  0  0  0
  150.9149  140.5285  156.9779 C   0  0  0  0  0  0  0  0  0  0  0  0
  152.1526  140.0200  157.4526 C   0  0  0  0  0  0  0  0  0  0  0  0
  152.5214  140.1382  158.7503 N   0  0  0  0  0  0  0  0  0  0  0  0
  153.3948  139.0297  159.1208 C   0  0  0  0  0  0  0  0  0  0  0  0
  153.6793  139.0502  160.6276 C   0  0  0  0  0  0  0  0  0  0  0  0
  154.2455  140.3073  160.9693 O   0  0  0  0  0  0  0  0  0  0  0  0
  153.3467  141.3789  160.7094 C   0  0  0  0  0  0  0  0  0  0  0  0
  153.0006  141.4525  159.2026 C   0  0  2  0  0  0  0  0  0  0  0  0
  151.9711  142.5794  158.9208 C   0  0  0  0  0  0  0  0  0  0  0  0
  152.4044  143.9611  159.4080 C   0  0  0  0  0  0  0  0  0  0  0  0
  151.8950  144.4864  160.7585 C   0  0  0  0  0  0  0  0  0  0  0  0
  151.8734  145.8918  160.1507 C   0  0  0  0  0  0  0  0  0  0  0  0
  151.7979  145.2231  158.7754 C   0  0  0  0  0  0  0  0  0  0  0  0
  152.9556  139.3741  156.5650 N   0  0  0  0  0  0  0  0  0  0  0  0
  152.5789  139.2533  155.2882 C   0  0  0  0  0  0  0  0  0  0  0  0
  151.4612  139.6893  154.7021 N   0  0  0  0  0  0  0  0  0  0  0  0
  150.6496  140.3256  155.5953 C   0  0  0  0  0  0  0  0  0  0  0  0
  147.6348  138.8972  155.1600 C   0  0  1  0  0  0  0  0  0  0  0  0
  146.5545  137.8032  155.1154 C   0  0  0  0  0  0  0  0  0  0  0  0
  147.3534  136.5200  154.9882 C   0  0  0  0  0  0  0  0  0  0  0  0
  148.6710  136.8916  155.6545 C   0  0  0  0  0  0  0  0  0  0  0  0
  148.8904  138.2234  155.2180 O   0  0  0  0  0  0  0  0  0  0  0  0
  148.2058  139.7761  152.1522 H   0  0  0  0  0  0  0  0  0  0  0  0
  146.6335  140.3782  153.9763 H   0  0  0  0  0  0  0  0  0  0  0  0
  149.4010  140.9303  153.2997 H   0  0  0  0  0  0  0  0  0  0  0  0
  148.2322  141.9914  154.0520 H   0  0  0  0  0  0  0  0  0  0  0  0
  148.0853  141.9303  156.7332 H   0  0  0  0  0  0  0  0  0  0  0  0
  152.9345  138.0783  158.8493 H   0  0  0  0  0  0  0  0  0  0  0  0
  154.3316  139.1039  158.5660 H   0  0  0  0  0  0  0  0  0  0  0  0
  152.7687  138.8734  161.2023 H   0  0  0  0  0  0  0  0  0  0  0  0
  154.3826  138.2594  160.8885 H   0  0  0  0  0  0  0  0  0  0  0  0
  152.4445  141.2594  161.3121 H   0  0  0  0  0  0  0  0  0  0  0  0
  153.8292  142.2980  161.0403 H   0  0  0  0  0  0  0  0  0  0  0  0
  153.9211  141.6759  158.6611 H   0  0  0  0  0  0  0  0  0  0  0  0
  151.7698  142.6430  157.8519 H   0  0  0  0  0  0  0  0  0  0  0  0
  151.0169  142.3156  159.3784 H   0  0  0  0  0  0  0  0  0  0  0  0
  153.4920  144.0545  159.3991 H   0  0  0  0  0  0  0  0  0  0  0  0
  150.8969  144.1224  161.0085 H   0  0  0  0  0  0  0  0  0  0  0  0
  152.5890  144.3584  161.5898 H   0  0  0  0  0  0  0  0  0  0  0  0
  151.0029  146.4923  160.4164 H   0  0  0  0  0  0  0  0  0  0  0  0
  152.8064  146.4357  160.3069 H   0  0  0  0  0  0  0  0  0  0  0  0
  152.4138  145.6876  158.0047 H   0  0  0  0  0  0  0  0  0  0  0  0
  150.7717  145.0749  158.4348 H   0  0  0  0  0  0  0  0  0  0  0  0
  153.2718  138.7319  154.6443 H   0  0  0  0  0  0  0  0  0  0  0  0
  147.5239  139.4499  156.0942 H   0  0  0  0  0  0  0  0  0  0  0  0
  145.9942  137.8007  156.0514 H   0  0  0  0  0  0  0  0  0  0  0  0
  145.8360  137.9267  154.3045 H   0  0  0  0  0  0  0  0  0  0  0  0
  146.8653  135.6633  155.4532 H   0  0  0  0  0  0  0  0  0  0  0  0
  147.5225  136.2887  153.9356 H   0  0  0  0  0  0  0  0  0  0  0  0
  148.5767  136.8737  156.7416 H   0  0  0  0  0  0  0  0  0  0  0  0
  149.4914  136.2335  155.3670 H   0  0  0  0  0  0  0  0  0  0  0  0
  1  2  1  0  0  0  0
  1 29  1  0  0  0  0
  2  3  1  0  0  0  0
  2 24  1  0  0  0  0
  2 30  1  0  0  0  0
  3  4  1  0  0  0  0
  3 31  1  0  0  0  0
  3 32  1  0  0  0  0
  4 23  1  0  0  0  0
  4  5  1  0  0  0  0
  5  6  2  0  0  0  0
  5 33  1  0  0  0  0
  6  7  1  0  0  0  0
  7 23  2  0  0  0  0
  7  8  1  0  0  0  0
  8  9  1  0  0  0  0
  8 20  2  0  0  0  0
  9 14  1  0  0  0  0
  9 10  1  0  0  0  0
 10 11  1  0  0  0  0
 10 34  1  0  0  0  0
 10 35  1  0  0  0  0
 11 12  1  0  0  0  0
 11 36  1  0  0  0  0
 11 37  1  0  0  0  0
 12 13  1  0  0  0  0
 13 14  1  0  0  0  0
 13 38  1  0  0  0  0
 13 39  1  0  0  0  0
 14 15  1  0  0  0  0
 14 40  1  0  0  0  0
 15 16  1  0  0  0  0
 15 41  1  0  0  0  0
 15 42  1  0  0  0  0
 16 19  1  0  0  0  0
 16 17  1  0  0  0  0
 16 43  1  0  0  0  0
 17 18  1  0  0  0  0
 17 44  1  0  0  0  0
 17 45  1  0  0  0  0
 18 19  1  0  0  0  0
 18 46  1  0  0  0  0
 18 47  1  0  0  0  0
 19 48  1  0  0  0  0
 19 49  1  0  0  0  0
 20 21  1  0  0  0  0
 21 22  2  0  0  0  0
 21 50  1  0  0  0  0
 22 23  1  0  0  0  0
 24 28  1  0  0  0  0
 24 25  1  0  0  0  0
 24 51  1  0  0  0  0
 25 26  1  0  0  0  0
 25 52  1  0  0  0  0
 25 53  1  0  0  0  0
 26 27  1  0  0  0  0
 26 54  1  0  0  0  0
 26 55  1  0  0  0  0
 27 28  1  0  0  0  0
 27 56  1  0  0  0  0
 27 57  1  0  0  0  0
M  END
> <s_m_source_file>
AV-unprocessed.smi

> <i_m_source_file_index>
170

> <i_lp_mmshare_version>
43012

> <i_f3d_flags>
0

> <s_epik_input>
TzFbQ0gyXVtDSDJdW0NIMl1bQ0BIXTFbQ0BIXShbT0hdKVtDSDJdbihbY0hdbjIpYyhjMjMpbltjSF1uYzNONFtDSDJdW0NIMl1PW0NIMl1bQ0BIXTRbQ0gyXVtDSF01W0NIMl1bQ0gyXVtDSDJdNQ==

> <s_epik_cmdline>
J2VwaWtfcHl0aG9uJywgJy1waCcsICc3LjAnLCAnLXRuJywgJzgnLCAnLW1hJywgJzIwMCcsICctbWV0YWxfYmluZGluZycsICctaW1hZScsICc8aW5maWxlLm1hZT4nLCAnLW9tYWUnLCAnPG91dGZpbGUubWFlPic=

> <r_lp_tautomer_probability>
1

> <r_epik_Ionization_Penalty>
4.98275e-05

> <r_epik_Ionization_Penalty_Charging>
0

> <r_epik_Ionization_Penalty_Neutral>
4.98275e-05

> <r_epik_State_Penalty>
-0

> <r_epik_Charging_Adjusted_Penalty>
0

> <i_epik_Tot_Q>
0

> <i_epik_Tot_abs_Q>
0

> <r_epik_Metal_State_Penalty>
-0

> <b_epik_Metal_Only>
0

> <s_lp_Force_Field>
OPLS_2005

> <r_lp_Energy>
52.9545

> <b_lp_Chiralities_Consistent>
1

> <s_lp_Variant>
AV-unprocessed.smi:170-7

> <Gold.Version>
5.8.1

> <Gold.Id.Protein>
6NUR|6NUR_protein|mol2

> <Gold.PLP.Fitness>
56.2257

> <Gold.PLP.PLP>
-50.9355

> <Gold.PLP.part.hbond>
-3.1954

> <Gold.PLP.part.metal>
0.0000

> <Gold.PLP.part.buried>
-6.1555

> <Gold.PLP.part.nonpolar>
-41.5248

> <Gold.PLP.part.repulsive>
0.2008

> <Gold.PLP.ligand.clash>
0.0000

> <Gold.PLP.ligand.torsion>
2.0118

> <Gold.PLP.Chemscore.Hbond>
3.0000

> <Gold.PLP.Chemscore.CHOScore>
0.0000

> <Gold.PLP.Chemscore.Metal>
0.0000

> <Gold.Chemscore.Hbonds>
donor molecule, donor type, donor heavy atom, donor atom, acceptor molecule, acceptor atom, score
      L1  H     1    29       P1  7957  0.98
      P1  H  7989  7998       L1    22  1.00
      P1  H  7997  8008       L1    20  1.00

> <Gold.PLP.Chemscore.Internal.Correction>
0.3138

> <Gold.Rescore>
     Score         DG    S(hbond)    S(metal)    S(lipo)     H(rot)  DE(clash)    DE(int)     intcor
     11.53     -18.99       2.12        0.00     112.18       2.61       0.13       7.33       ----

> <Gold.Chemscore.Fitness>
11.5300

> <Gold.Chemscore.DG>
-18.9879

> <Gold.Chemscore.ZeroCoef>
-5.4800

> <Gold.Chemscore.Hbond>
2.1184

> <Gold.Chemscore.Metal>
0.0000

> <Gold.Chemscore.Lipo>
112.1821

> <Gold.Chemscore.Internal_Hbond>
0.0000

> <Gold.Chemscore.DEClash>
0.1283

> <Gold.Chemscore.DEInternal>
7.3296

> <Gold.Chemscore.Rot>
2.6144

> <Gold.Chemscore.Internal.Correction>
   9.000000E+99

> <Gold.Chemscore.Hbonds>
donor molecule, donor type, donor heavy atom, donor atom, acceptor molecule, acceptor atom, score
      L1  H     1    29       P1  7957  0.93
      P1  H  7989  7998       L1    22  0.32
      P1  H  7997  8008       L1    20  0.29

> <Gold.Chemscore.Hbond.Weighted>
-7.0755

> <Gold.Chemscore.Metal.Weighted>
-0.0000

> <Gold.Chemscore.Lipo.Weighted>
-13.1253

> <Gold.Chemscore.Internal_Hbond.Weighted>
0.0000

> <Gold.Chemscore.DEClash.Weighted>
0.1283

> <Gold.Chemscore.DEInternal.Weighted>
7.3296

> <Gold.Chemscore.Rot.Weighted>
6.6929

> <Gold.Chemscore.Internal.Correction.Weighted>
   9.000000E+99

> <Gold.Protein.RotatedTorsions>
[ 6907 6896 6895 6894 ] final -171.96 input  -60.11 | X-H torsion
[ 7974 7965 7964 7962 ] final   77.12 input  175.53 | X-H torsion
[ 8008 7997 7996 7995 ] final  -49.19 input   59.86 | X-H torsion
[ 10167 10162 10161 10158 ] final  -99.66 input  -65.29 | X-H torsion
[ 10718 10713 10712 10709 ] final  -12.12 input   66.30 | X-H torsion
[ 10763 10752 10751 10750 ] final  -55.67 input  -60.55 | X-H torsion
[ 11005 11000 10999 10996 ] final  169.28 input  -57.11 | X-H torsion

> <Gold.Protein.ActiveResidues>
 VAL166  LYS551  ARG553  GLY616  TRP617  ASP618  TYR619  PRO620  LYS621  CYS622 
 ASP623  PHE694  ASN695  SER759  ASP760  ASP761  ALA762  ILE779  LEU786  VAL792 
 PHE793  MET794  SER795  GLU796  ALA797  LYS798  CYS799  TRP800  GLU811  SER814 

> <Gold.Protein.RotatedAtoms>
  151.5322  133.3447  159.2919 H   0  0  0  0  0  0  0  0  0  0  0  0  # atno 6907 bound_to 6896
  150.8586  134.7935  159.7076 H   0  0  0  0  0  0  0  0  0  0  0  0  # atno 6908 bound_to 6896
  152.4613  134.5187  159.9827 H   0  0  0  0  0  0  0  0  0  0  0  0  # atno 6909 bound_to 6896
  145.6941  139.2561  143.1743 H   0  0  0  0  0  0  0  0  0  0  0  0  # atno 7974 bound_to 7965
  154.4040  140.1303  156.4461 H   0  0  0  0  0  0  0  0  0  0  0  0  # atno 8008 bound_to 7997
  155.7411  140.3490  155.5085 H   0  0  0  0  0  0  0  0  0  0  0  0  # atno 8009 bound_to 7997
  155.9038  140.1024  157.1320 H   0  0  0  0  0  0  0  0  0  0  0  0  # atno 8010 bound_to 7997
  140.2602  143.3413  152.0633 H   0  0  0  0  0  0  0  0  0  0  0  0  # atno 10167 bound_to 10162
  156.6492  130.4950  149.6068 H   0  0  0  0  0  0  0  0  0  0  0  0  # atno 10718 bound_to 10713
  154.1944  135.6421  153.5069 H   0  0  0  0  0  0  0  0  0  0  0  0  # atno 10763 bound_to 10752
  153.0027  135.5436  154.6381 H   0  0  0  0  0  0  0  0  0  0  0  0  # atno 10764 bound_to 10752
  154.5778  135.2922  155.0736 H   0  0  0  0  0  0  0  0  0  0  0  0  # atno 10765 bound_to 10752
  140.2961  134.7633  157.3878 H   0  0  0  0  0  0  0  0  0  0  0  0  # atno 11005 bound_to 11000
  146.0856  140.7714  142.9620 LP  0  0  0  0  0  0  0  0  0  0  0  0  # atno 17320 bound_to 7965
  144.6988  140.3557  143.7173 LP  0  0  0  0  0  0  0  0  0  0  0  0  # atno 17321 bound_to 7965
  139.5019  144.6724  151.6211 LP  0  0  0  0  0  0  0  0  0  0  0  0  # atno 17342 bound_to 10162
  140.5972  143.9674  150.6362 LP  0  0  0  0  0  0  0  0  0  0  0  0  # atno 17343 bound_to 10162
  156.2097  130.6671  151.1256 LP  0  0  0  0  0  0  0  0  0  0  0  0  # atno 17370 bound_to 10713
  157.7146  131.0716  150.6375 LP  0  0  0  0  0  0  0  0  0  0  0  0  # atno 17371 bound_to 10713
  140.1151  134.5294  155.8232 LP  0  0  0  0  0  0  0  0  0  0  0  0  # atno 17394 bound_to 11000
  141.2137  133.6737  156.6762 LP  0  0  0  0  0  0  0  0  0  0  0  0  # atno 17395 bound_to 11000

$$$$
