AV-unprocessed.smi:1454|AV-procd|sdf|5913|dock1
  -GOLD-   22720 5593D 1   1.00000     0.00000
 Structure written by MMmdl.
 44 45  0  0  0  0  0  0  0  0  1 V2000
  151.7684  139.8764  154.9446 O   0  0  0  0  0  0  0  0  0  0  0  0
  151.5585  138.7949  155.4951 C   0  0  0  0  0  0  0  0  0  0  0  0
  150.9934  137.6090  154.7060 C   0  0  0  0  0  0  0  0  0  0  0  0
  149.6761  137.0608  155.2900 C   0  0  0  0  0  0  0  0  0  0  0  0
  149.1644  135.9422  154.5063 N   0  0  0  0  0  0  0  0  0  0  0  0
  148.8903  134.7207  154.9896 C   0  0  0  0  0  0  0  0  0  0  0  0
  149.0573  134.4104  156.1698 O   0  0  0  0  0  0  0  0  0  0  0  0
  148.3459  133.6940  153.9828 C   0  0  0  0  0  0  0  0  0  0  0  0
  146.9772  133.1216  154.4214 C   0  0  0  0  0  0  0  0  0  0  0  0
  147.1561  131.6067  154.5835 C   0  0  0  0  0  0  0  0  0  0  0  0
  148.6583  131.3935  154.7454 C   0  0  0  0  0  0  0  0  0  0  0  0
  149.2759  132.4719  153.8567 C   0  0  0  0  0  0  0  0  0  0  0  0
  151.8114  138.5746  156.7933 N   0  0  0  0  0  0  0  0  0  0  0  0
  152.3662  139.5684  157.7020 C   0  0  0  0  0  0  0  0  0  0  0  0
  151.2743  140.5333  158.1829 C   0  0  0  0  0  0  0  0  0  0  0  0
  151.7721  141.9632  158.2620 C   0  0  0  0  0  0  0  0  0  0  0  0
  151.2678  142.9551  157.3959 C   0  0  0  0  0  0  0  0  0  0  0  0
  151.7669  144.2674  157.5044 C   0  0  0  0  0  0  0  0  0  0  0  0
  152.7525  144.5318  158.4764 C   0  0  0  0  0  0  0  0  0  0  0  0
  153.2428  143.5900  159.3108 N   0  0  0  0  0  0  0  0  0  0  0  0
  152.7585  142.3343  159.2004 C   0  0  0  0  0  0  0  0  0  0  0  0
  150.8381  137.9292  153.6753 H   0  0  0  0  0  0  0  0  0  0  0  0
  151.7423  136.8162  154.6778 H   0  0  0  0  0  0  0  0  0  0  0  0
  149.8108  136.7564  156.3294 H   0  0  0  0  0  0  0  0  0  0  0  0
  148.9106  137.8375  155.2901 H   0  0  0  0  0  0  0  0  0  0  0  0
  148.9978  136.1117  153.5248 H   0  0  0  0  0  0  0  0  0  0  0  0
  148.2518  134.1722  153.0063 H   0  0  0  0  0  0  0  0  0  0  0  0
  146.6395  133.5539  155.3652 H   0  0  0  0  0  0  0  0  0  0  0  0
  146.2025  133.3408  153.6860 H   0  0  0  0  0  0  0  0  0  0  0  0
  146.5850  131.2047  155.4211 H   0  0  0  0  0  0  0  0  0  0  0  0
  146.8140  131.1014  153.6791 H   0  0  0  0  0  0  0  0  0  0  0  0
  148.9465  131.5573  155.7846 H   0  0  0  0  0  0  0  0  0  0  0  0
  148.9723  130.3876  154.4661 H   0  0  0  0  0  0  0  0  0  0  0  0
  149.2856  132.1297  152.8210 H   0  0  0  0  0  0  0  0  0  0  0  0
  150.3109  132.6808  154.1323 H   0  0  0  0  0  0  0  0  0  0  0  0
  151.6116  137.6604  157.1732 H   0  0  0  0  0  0  0  0  0  0  0  0
  152.8200  139.0636  158.5564 H   0  0  0  0  0  0  0  0  0  0  0  0
  153.1587  140.1200  157.1936 H   0  0  0  0  0  0  0  0  0  0  0  0
  150.4151  140.4925  157.5121 H   0  0  0  0  0  0  0  0  0  0  0  0
  150.9128  140.2302  159.1667 H   0  0  0  0  0  0  0  0  0  0  0  0
  150.5144  142.7159  156.6598 H   0  0  0  0  0  0  0  0  0  0  0  0
  151.4046  145.0525  156.8574 H   0  0  0  0  0  0  0  0  0  0  0  0
  153.1589  145.5264  158.5856 H   0  0  0  0  0  0  0  0  0  0  0  0
  153.1729  141.6038  159.8796 H   0  0  0  0  0  0  0  0  0  0  0  0
  1  2  2  0  0  0  0
  2  3  1  0  0  0  0
  2 13  1  0  0  0  0
  3  4  1  0  0  0  0
  3 22  1  0  0  0  0
  3 23  1  0  0  0  0
  4  5  1  0  0  0  0
  4 24  1  0  0  0  0
  4 25  1  0  0  0  0
  5  6  1  0  0  0  0
  5 26  1  0  0  0  0
  6  7  2  0  0  0  0
  6  8  1  0  0  0  0
  8 12  1  0  0  0  0
  8  9  1  0  0  0  0
  8 27  1  0  0  0  0
  9 10  1  0  0  0  0
  9 28  1  0  0  0  0
  9 29  1  0  0  0  0
 10 11  1  0  0  0  0
 10 30  1  0  0  0  0
 10 31  1  0  0  0  0
 11 12  1  0  0  0  0
 11 32  1  0  0  0  0
 11 33  1  0  0  0  0
 12 34  1  0  0  0  0
 12 35  1  0  0  0  0
 13 14  1  0  0  0  0
 13 36  1  0  0  0  0
 14 15  1  0  0  0  0
 14 37  1  0  0  0  0
 14 38  1  0  0  0  0
 15 16  1  0  0  0  0
 15 39  1  0  0  0  0
 15 40  1  0  0  0  0
 16 21  1  0  0  0  0
 16 17  2  0  0  0  0
 17 18  1  0  0  0  0
 17 41  1  0  0  0  0
 18 19  2  0  0  0  0
 18 42  1  0  0  0  0
 19 20  1  0  0  0  0
 19 43  1  0  0  0  0
 20 21  2  0  0  0  0
 21 44  1  0  0  0  0
M  END
> <s_m_source_file>
AV-unprocessed.smi

> <i_m_source_file_index>
1454

> <i_lp_mmshare_version>
43012

> <i_f3d_flags>
0

> <s_epik_input>
W2NIXTFuW2NIXVtjSF1bY0hdYzFbQ0gyXVtDSDJdW05IXUMoPU8pW0NIMl1bQ0gyXVtOSF1DKD1PKVtDSF0yW0NIMl1bQ0gyXVtDSDJdW0NIMl0y

> <s_epik_cmdline>
J2VwaWtfcHl0aG9uJywgJy1waCcsICc3LjAnLCAnLXRuJywgJzgnLCAnLW1hJywgJzIwMCcsICctbWV0YWxfYmluZGluZycsICctaW1hZScsICc8aW5maWxlLm1hZT4nLCAnLW9tYWUnLCAnPG91dGZpbGUubWFlPic=

> <r_epik_Ionization_Penalty>
0.013238

> <r_epik_Ionization_Penalty_Charging>
0

> <r_epik_Ionization_Penalty_Neutral>
0.013238

> <r_epik_State_Penalty>
0.0102918

> <r_epik_Charging_Adjusted_Penalty>
0.0102918

> <i_epik_Tot_Q>
0

> <i_epik_Tot_abs_Q>
0

> <r_epik_Metal_State_Penalty>
0.0100665

> <b_epik_Metal_Only>
0

> <s_lp_Force_Field>
OPLS_2005

> <r_lp_Energy>
20.9977

> <b_lp_Chiralities_Consistent>
1

> <s_lp_Variant>
AV-unprocessed.smi:1454-1

> <Gold.Version>
5.8.1

> <Gold.Id.Protein>
6NUR|6NUR_protein|mol2

> <Gold.PLP.Fitness>
44.8189

> <Gold.PLP.PLP>
-39.5606

> <Gold.PLP.part.hbond>
-2.0000

> <Gold.PLP.part.metal>
0.0000

> <Gold.PLP.part.buried>
-6.4425

> <Gold.PLP.part.nonpolar>
-32.3172

> <Gold.PLP.part.repulsive>
0.1525

> <Gold.PLP.ligand.clash>
0.0000

> <Gold.PLP.ligand.torsion>
0.4868

> <Gold.PLP.Chemscore.Hbond>
2.0000

> <Gold.PLP.Chemscore.CHOScore>
0.0000

> <Gold.PLP.Chemscore.Metal>
0.0000

> <Gold.Chemscore.Hbonds>
donor molecule, donor type, donor heavy atom, donor atom, acceptor molecule, acceptor atom, score
      L1  H     5    26       P1  7948  1.00
      P1  H  7989  7998       L1     1  1.00

> <Gold.PLP.Chemscore.Internal.Correction>
0.2318

> <Gold.Rescore>
     Score         DG    S(hbond)    S(metal)    S(lipo)     H(rot)  DE(clash)    DE(int)     intcor
     17.96     -18.62       1.94        0.00     102.78       2.10       0.14       0.52       ----

> <Gold.Chemscore.Fitness>
17.9645

> <Gold.Chemscore.DG>
-18.6228

> <Gold.Chemscore.ZeroCoef>
-5.4800

> <Gold.Chemscore.Hbond>
1.9411

> <Gold.Chemscore.Metal>
0.0000

> <Gold.Chemscore.Lipo>
102.7827

> <Gold.Chemscore.Internal_Hbond>
0.0000

> <Gold.Chemscore.DEClash>
0.1367

> <Gold.Chemscore.DEInternal>
0.5216

> <Gold.Chemscore.Rot>
2.0961

> <Gold.Chemscore.Internal.Correction>
   9.000000E+99

> <Gold.Chemscore.Hbonds>
donor molecule, donor type, donor heavy atom, donor atom, acceptor molecule, acceptor atom, score
      L1  H     5    26       P1  7948  0.98
      P1  H  7989  7998       L1     1  0.94

> <Gold.Chemscore.Hbond.Weighted>
-6.4832

> <Gold.Chemscore.Metal.Weighted>
-0.0000

> <Gold.Chemscore.Lipo.Weighted>
-12.0256

> <Gold.Chemscore.Internal_Hbond.Weighted>
0.0000

> <Gold.Chemscore.DEClash.Weighted>
0.1367

> <Gold.Chemscore.DEInternal.Weighted>
0.5216

> <Gold.Chemscore.Rot.Weighted>
5.3660

> <Gold.Chemscore.Internal.Correction.Weighted>
   9.000000E+99

> <Gold.Protein.RotatedTorsions>
[ 6907 6896 6895 6894 ] final  -71.43 input  -60.11 | X-H torsion
[ 7974 7965 7964 7962 ] final   72.47 input  175.53 | X-H torsion
[ 8008 7997 7996 7995 ] final  102.52 input   59.86 | X-H torsion
[ 10167 10162 10161 10158 ] final   34.48 input  -65.29 | X-H torsion
[ 10718 10713 10712 10709 ] final   40.44 input   66.30 | X-H torsion
[ 10763 10752 10751 10750 ] final  130.36 input  -60.55 | X-H torsion
[ 11005 11000 10999 10996 ] final  -21.81 input  -57.11 | X-H torsion

> <Gold.Protein.ActiveResidues>
 VAL166  LYS551  ARG553  GLY616  TRP617  ASP618  TYR619  PRO620  LYS621  CYS622 
 ASP623  PHE694  ASN695  SER759  ASP760  ASP761  ALA762  ILE779  LEU786  VAL792 
 PHE793  MET794  SER795  GLU796  ALA797  LYS798  CYS799  TRP800  GLU811  SER814 

> <Gold.Protein.RotatedAtoms>
  150.7213  134.5310  159.5699 H   0  0  0  0  0  0  0  0  0  0  0  0  # atno 6907 bound_to 6896
  152.2843  134.7790  160.0399 H   0  0  0  0  0  0  0  0  0  0  0  0  # atno 6908 bound_to 6896
  151.8426  133.3391  159.3684 H   0  0  0  0  0  0  0  0  0  0  0  0  # atno 6909 bound_to 6896
  145.7529  139.2767  143.1421 H   0  0  0  0  0  0  0  0  0  0  0  0  # atno 7974 bound_to 7965
  156.1401  140.3180  155.8482 H   0  0  0  0  0  0  0  0  0  0  0  0  # atno 8008 bound_to 7997
  155.4171  140.0510  157.3045 H   0  0  0  0  0  0  0  0  0  0  0  0  # atno 8009 bound_to 7997
  154.4969  140.2114  155.9441 H   0  0  0  0  0  0  0  0  0  0  0  0  # atno 8010 bound_to 7997
  140.4311  144.1323  150.6159 H   0  0  0  0  0  0  0  0  0  0  0  0  # atno 10167 bound_to 10162
  157.3822  130.7759  149.7202 H   0  0  0  0  0  0  0  0  0  0  0  0  # atno 10718 bound_to 10713
  153.7568  135.3202  155.3330 H   0  0  0  0  0  0  0  0  0  0  0  0  # atno 10763 bound_to 10752
  154.8244  135.4580  154.0877 H   0  0  0  0  0  0  0  0  0  0  0  0  # atno 10764 bound_to 10752
  153.2096  135.6934  153.8213 H   0  0  0  0  0  0  0  0  0  0  0  0  # atno 10765 bound_to 10752
  140.8597  133.7797  156.0060 H   0  0  0  0  0  0  0  0  0  0  0  0  # atno 11005 bound_to 11000
  146.0339  140.8231  142.9862 LP  0  0  0  0  0  0  0  0  0  0  0  0  # atno 17320 bound_to 7965
  144.6846  140.2809  143.7292 LP  0  0  0  0  0  0  0  0  0  0  0  0  # atno 17321 bound_to 7965
  140.4426  143.2520  151.9453 LP  0  0  0  0  0  0  0  0  0  0  0  0  # atno 17342 bound_to 10162
  139.4785  144.5639  151.8195 LP  0  0  0  0  0  0  0  0  0  0  0  0  # atno 17343 bound_to 10162
  155.9778  130.4058  150.3687 LP  0  0  0  0  0  0  0  0  0  0  0  0  # atno 17370 bound_to 10713
  157.1793  131.0388  151.2757 LP  0  0  0  0  0  0  0  0  0  0  0  0  # atno 17371 bound_to 10713
  140.8697  134.2741  157.5196 LP  0  0  0  0  0  0  0  0  0  0  0  0  # atno 17394 bound_to 11000
  139.8706  134.9561  156.4226 LP  0  0  0  0  0  0  0  0  0  0  0  0  # atno 17395 bound_to 11000

$$$$
