AV-unprocessed.smi:924|AV-procd|sdf|4179|dock2
  -GOLD-   22720 2 83D 1   1.00000     0.00000
 Structure written by MMmdl.
 46 49  0  0  0  0  0  0  0  0  1 V2000
  149.0638  135.5103  158.5990 O   0  0  0  0  0  0  0  0  0  0  0  0
  148.6130  136.4394  159.2710 C   0  0  0  0  0  0  0  0  0  0  0  0
  148.6102  136.3800  160.8051 C   0  0  0  0  0  0  0  0  0  0  0  0
  147.3300  135.9203  161.3634 N   0  0  0  0  0  0  0  0  0  0  0  0
  147.2573  134.6978  162.0160 C   0  0  0  0  0  0  0  0  0  0  0  0
  146.1128  134.1980  162.5391 C   0  0  0  0  0  0  0  0  0  0  0  0
  144.8652  134.9473  162.4364 C   0  0  0  0  0  0  0  0  0  0  0  0
  143.7794  134.5807  162.8803 O   0  0  0  0  0  0  0  0  0  0  0  0
  144.9782  136.1700  161.7694 N   0  0  0  0  0  0  0  0  0  0  0  0
  146.1537  136.6891  161.2241 C   0  0  0  0  0  0  0  0  0  0  0  0
  146.1394  137.7756  160.6466 O   0  0  0  0  0  0  0  0  0  0  0  0
  148.1117  137.5606  158.7302 N   0  0  0  0  0  0  0  0  0  0  0  0
  148.0505  137.8650  157.3022 C   0  0  0  0  0  0  0  0  0  0  0  0
  149.1383  138.8682  156.8407 C   0  0  0  0  0  0  0  0  0  0  0  0
  150.5190  138.5234  157.4639 C   0  0  0  0  0  0  0  0  0  0  0  0
  151.5794  139.5583  157.0290 C   0  0  1  0  0  0  0  0  0  0  0  0
  151.7090  139.5501  155.4912 C   0  0  0  0  0  0  0  0  0  0  0  0
  150.3482  139.9195  154.8641 C   0  0  2  0  0  0  0  0  0  0  0  0
  149.9233  141.3251  155.3359 C   0  0  0  0  0  0  0  0  0  0  0  0
  149.7985  141.3266  156.8732 C   0  0  2  0  0  0  0  0  0  0  0  0
  151.1582  140.9638  157.5052 C   0  0  0  0  0  0  0  0  0  0  0  0
  148.7363  140.2932  157.3047 C   0  0  0  0  0  0  0  0  0  0  0  0
  149.2857  138.8857  155.2937 C   0  0  0  0  0  0  0  0  0  0  0  0
  144.1388  136.7221  161.6702 H   0  0  0  0  0  0  0  0  0  0  0  0
  149.4083  135.7104  161.1306 H   0  0  0  0  0  0  0  0  0  0  0  0
  148.8836  137.3610  161.1977 H   0  0  0  0  0  0  0  0  0  0  0  0
  148.1577  134.1071  162.1102 H   0  0  0  0  0  0  0  0  0  0  0  0
  146.1200  133.2382  163.0348 H   0  0  0  0  0  0  0  0  0  0  0  0
  147.7611  138.2695  159.3578 H   0  0  0  0  0  0  0  0  0  0  0  0
  148.1065  136.9489  156.7116 H   0  0  0  0  0  0  0  0  0  0  0  0
  147.0624  138.2821  157.1047 H   0  0  0  0  0  0  0  0  0  0  0  0
  150.4470  138.5016  158.5520 H   0  0  0  0  0  0  0  0  0  0  0  0
  150.8419  137.5270  157.1598 H   0  0  0  0  0  0  0  0  0  0  0  0
  152.5406  139.2993  157.4740 H   0  0  0  0  0  0  0  0  0  0  0  0
  152.4765  140.2566  155.1726 H   0  0  0  0  0  0  0  0  0  0  0  0
  152.0311  138.5673  155.1442 H   0  0  0  0  0  0  0  0  0  0  0  0
  150.4382  139.9149  153.7773 H   0  0  0  0  0  0  0  0  0  0  0  0
  150.6536  142.0689  155.0144 H   0  0  0  0  0  0  0  0  0  0  0  0
  148.9740  141.6066  154.8786 H   0  0  0  0  0  0  0  0  0  0  0  0
  149.4964  142.3187  157.2102 H   0  0  0  0  0  0  0  0  0  0  0  0
  151.0889  140.9901  158.5935 H   0  0  0  0  0  0  0  0  0  0  0  0
  151.9134  141.6998  157.2268 H   0  0  0  0  0  0  0  0  0  0  0  0
  147.7661  140.5669  156.8872 H   0  0  0  0  0  0  0  0  0  0  0  0
  148.6182  140.3185  158.3890 H   0  0  0  0  0  0  0  0  0  0  0  0
  149.5777  137.9037  154.9210 H   0  0  0  0  0  0  0  0  0  0  0  0
  148.3282  139.1177  154.8255 H   0  0  0  0  0  0  0  0  0  0  0  0
  1  2  2  0  0  0  0
  2  3  1  0  0  0  0
  2 12  1  0  0  0  0
  3  4  1  0  0  0  0
  3 25  1  0  0  0  0
  3 26  1  0  0  0  0
  4 10  1  0  0  0  0
  4  5  1  0  0  0  0
  5  6  2  0  0  0  0
  5 27  1  0  0  0  0
  6  7  1  0  0  0  0
  6 28  1  0  0  0  0
  7  8  2  0  0  0  0
  7  9  1  0  0  0  0
  9 24  1  0  0  0  0
  9 10  1  0  0  0  0
 10 11  2  0  0  0  0
 12 13  1  0  0  0  0
 12 29  1  0  0  0  0
 13 14  1  0  0  0  0
 13 30  1  0  0  0  0
 13 31  1  0  0  0  0
 14 22  1  0  0  0  0
 14 23  1  0  0  0  0
 14 15  1  0  0  0  0
 15 16  1  0  0  0  0
 15 32  1  0  0  0  0
 15 33  1  0  0  0  0
 16 21  1  0  0  0  0
 16 17  1  0  0  0  0
 16 34  1  0  0  0  0
 17 18  1  0  0  0  0
 17 35  1  0  0  0  0
 17 36  1  0  0  0  0
 18 19  1  0  0  0  0
 18 23  1  0  0  0  0
 18 37  1  0  0  0  0
 19 20  1  0  0  0  0
 19 38  1  0  0  0  0
 19 39  1  0  0  0  0
 20 21  1  0  0  0  0
 20 22  1  0  0  0  0
 20 40  1  0  0  0  0
 21 41  1  0  0  0  0
 21 42  1  0  0  0  0
 22 43  1  0  0  0  0
 22 44  1  0  0  0  0
 23 45  1  0  0  0  0
 23 46  1  0  0  0  0
M  END
> <s_m_source_file>
AV-unprocessed.smi

> <i_m_source_file_index>
924

> <i_lp_mmshare_version>
43012

> <i_f3d_flags>
0

> <s_epik_input>
Tz1jMVtuSF1jKD1PKVtjSF1bY0hdbjFbQ0gyXUMoPU8pW05IXVtDSDJdQzIzW0NIMl1bQ0BIXTRbQ0gyXVtDQEBIXShbQ0gyXTMpW0NIMl1bQ0BIXShbQ0gyXTQpW0NIMl0y

> <s_epik_cmdline>
J2VwaWtfcHl0aG9uJywgJy1waCcsICc3LjAnLCAnLXRuJywgJzgnLCAnLW1hJywgJzIwMCcsICctbWV0YWxfYmluZGluZycsICctaW1hZScsICc8aW5maWxlLm1hZT4nLCAnLW9tYWUnLCAnPG91dGZpbGUubWFlPic=

> <r_lp_tautomer_probability>
0.999537

> <r_epik_Ionization_Penalty>
0.00304541

> <r_epik_Ionization_Penalty_Charging>
0.00304539

> <r_epik_Ionization_Penalty_Neutral>
1.85865e-08

> <r_epik_State_Penalty>
0.00214042

> <r_epik_Charging_Adjusted_Penalty>
0.00518582

> <i_epik_Tot_Q>
0

> <i_epik_Tot_abs_Q>
0

> <r_epik_Metal_State_Penalty>
0.361861

> <b_epik_Metal_Only>
0

> <s_lp_Force_Field>
OPLS_2005

> <r_lp_Energy>
33.277

> <b_lp_Chiralities_Consistent>
1

> <s_lp_Variant>
AV-unprocessed.smi:924-1

> <Gold.Version>
5.8.1

> <Gold.Id.Protein>
6NUR|6NUR_protein|mol2

> <Gold.PLP.Fitness>
39.1374

> <Gold.PLP.PLP>
-34.4647

> <Gold.PLP.part.hbond>
-2.0000

> <Gold.PLP.part.metal>
0.0000

> <Gold.PLP.part.buried>
-3.3495

> <Gold.PLP.part.nonpolar>
-29.1144

> <Gold.PLP.part.repulsive>
0.2414

> <Gold.PLP.ligand.clash>
0.0000

> <Gold.PLP.ligand.torsion>
0.6711

> <Gold.PLP.Chemscore.Hbond>
2.0000

> <Gold.PLP.Chemscore.CHOScore>
0.0000

> <Gold.PLP.Chemscore.Metal>
0.0000

> <Gold.Chemscore.Hbonds>
donor molecule, donor type, donor heavy atom, donor atom, acceptor molecule, acceptor atom, score
      P1  H  6896  6907       L1     1  0.84
      P1  H  6934  6947       L1    11  1.00

> <Gold.PLP.Chemscore.Internal.Correction>
0.0149

> <Gold.Rescore>
     Score         DG    S(hbond)    S(metal)    S(lipo)     H(rot)  DE(clash)    DE(int)     intcor
     14.44     -14.98       1.97        0.00      67.50       1.94       0.09       0.45       ----

> <Gold.Chemscore.Fitness>
14.4404

> <Gold.Chemscore.DG>
-14.9821

> <Gold.Chemscore.ZeroCoef>
-5.4800

> <Gold.Chemscore.Hbond>
1.9685

> <Gold.Chemscore.Metal>
0.0000

> <Gold.Chemscore.Lipo>
67.4987

> <Gold.Chemscore.Internal_Hbond>
0.0000

> <Gold.Chemscore.DEClash>
0.0922

> <Gold.Chemscore.DEInternal>
0.4495

> <Gold.Chemscore.Rot>
1.9415

> <Gold.Chemscore.Internal.Correction>
   9.000000E+99

> <Gold.Chemscore.Hbonds>
donor molecule, donor type, donor heavy atom, donor atom, acceptor molecule, acceptor atom, score
      P1  H  6896  6907       L1     1  0.73
      P1  H  6934  6947       L1    11  0.99

> <Gold.Chemscore.Hbond.Weighted>
-6.5749

> <Gold.Chemscore.Metal.Weighted>
-0.0000

> <Gold.Chemscore.Lipo.Weighted>
-7.8973

> <Gold.Chemscore.Internal_Hbond.Weighted>
0.0000

> <Gold.Chemscore.DEClash.Weighted>
0.0922

> <Gold.Chemscore.DEInternal.Weighted>
0.4495

> <Gold.Chemscore.Rot.Weighted>
4.9701

> <Gold.Chemscore.Internal.Correction.Weighted>
   9.000000E+99

> <Gold.Protein.RotatedTorsions>
[ 6907 6896 6895 6894 ] final  -75.72 input  -60.11 | X-H torsion
[ 7974 7965 7964 7962 ] final  138.78 input  175.53 | X-H torsion
[ 8008 7997 7996 7995 ] final  -79.51 input   59.86 | X-H torsion
[ 10167 10162 10161 10158 ] final  -50.70 input  -65.29 | X-H torsion
[ 10718 10713 10712 10709 ] final -121.25 input   66.30 | X-H torsion
[ 10763 10752 10751 10750 ] final  152.98 input  -60.55 | X-H torsion
[ 11005 11000 10999 10996 ] final  173.10 input  -57.11 | X-H torsion

> <Gold.Protein.ActiveResidues>
 VAL166  LYS551  ARG553  GLY616  TRP617  ASP618  TYR619  PRO620  LYS621  CYS622 
 ASP623  PHE694  ASN695  SER759  ASP760  ASP761  ALA762  ILE779  LEU786  VAL792 
 PHE793  MET794  SER795  GLU796  ALA797  LYS798  CYS799  TRP800  GLU811  SER814 

> <Gold.Protein.RotatedAtoms>
  150.7050  134.4678  159.5410 H   0  0  0  0  0  0  0  0  0  0  0  0  # atno 6907 bound_to 6896
  152.2340  134.8291  160.0479 H   0  0  0  0  0  0  0  0  0  0  0  0  # atno 6908 bound_to 6896
  151.9096  133.3523  159.3896 H   0  0  0  0  0  0  0  0  0  0  0  0  # atno 6909 bound_to 6896
  144.9340  139.5012  143.5604 H   0  0  0  0  0  0  0  0  0  0  0  0  # atno 7974 bound_to 7965
  154.5793  140.0677  156.9080 H   0  0  0  0  0  0  0  0  0  0  0  0  # atno 8008 bound_to 7997
  155.2492  140.3350  155.4265 H   0  0  0  0  0  0  0  0  0  0  0  0  # atno 8009 bound_to 7997
  156.2177  140.1785  156.7535 H   0  0  0  0  0  0  0  0  0  0  0  0  # atno 8010 bound_to 7997
  140.6624  143.2647  151.4398 H   0  0  0  0  0  0  0  0  0  0  0  0  # atno 10167 bound_to 10162
  156.1322  130.6404  150.9640 H   0  0  0  0  0  0  0  0  0  0  0  0  # atno 10718 bound_to 10713
  154.1287  135.2828  155.3190 H   0  0  0  0  0  0  0  0  0  0  0  0  # atno 10763 bound_to 10752
  154.6371  135.5415  153.7749 H   0  0  0  0  0  0  0  0  0  0  0  0  # atno 10764 bound_to 10752
  153.0288  135.6477  154.1439 H   0  0  0  0  0  0  0  0  0  0  0  0  # atno 10765 bound_to 10752
  140.3368  134.7310  157.4174 H   0  0  0  0  0  0  0  0  0  0  0  0  # atno 11005 bound_to 11000
  146.3259  139.8311  142.8908 LP  0  0  0  0  0  0  0  0  0  0  0  0  # atno 17320 bound_to 7965
  145.3096  141.0216  143.3562 LP  0  0  0  0  0  0  0  0  0  0  0  0  # atno 17321 bound_to 7965
  139.5862  144.1599  152.2032 LP  0  0  0  0  0  0  0  0  0  0  0  0  # atno 17342 bound_to 10162
  140.0939  144.5597  150.7035 LP  0  0  0  0  0  0  0  0  0  0  0  0  # atno 17343 bound_to 10162
  157.6499  131.0898  150.8073 LP  0  0  0  0  0  0  0  0  0  0  0  0  # atno 17370 bound_to 10713
  156.8157  130.4967  149.5350 LP  0  0  0  0  0  0  0  0  0  0  0  0  # atno 17371 bound_to 10713
  140.0814  134.5725  155.8536 LP  0  0  0  0  0  0  0  0  0  0  0  0  # atno 17394 bound_to 11000
  141.2049  133.6643  156.6149 LP  0  0  0  0  0  0  0  0  0  0  0  0  # atno 17395 bound_to 11000

$$$$
