AV-unprocessed.smi:569|AV-procd|sdf|2960|dock10
  -GOLD-   2262023463D 1   1.00000     0.00000
 Structure written by MMmdl.
 37 38  0  0  0  0  0  0  0  0  1 V2000
  154.0421  142.8954  160.1397 C   0  0  0  0  0  0  0  0  0  0  0  0
  152.8559  143.2634  159.3163 C   0  0  0  0  0  0  0  0  0  0  0  0
  151.8375  142.4333  159.0780 N   0  0  0  0  0  0  0  0  0  0  0  0
  150.8451  143.0109  158.2795 C   0  0  0  0  0  0  0  0  0  0  0  0
  149.6144  142.2252  157.9255 C   0  0  0  0  0  0  0  0  0  0  0  0
  149.8038  141.5418  156.5705 C   0  0  0  0  0  0  0  0  0  0  0  0
  149.1073  141.8672  155.6093 O   0  0  0  0  0  0  0  0  0  0  0  0
  150.7643  140.6069  156.5082 N   0  0  0  0  0  0  0  0  0  0  0  0
  151.2026  139.9078  155.3031 C   0  0  2  0  0  0  0  0  0  0  0  0
  149.9974  139.2350  154.6194 C   0  0  0  0  0  0  0  0  0  0  0  0
  149.4396  138.0625  155.4478 C   0  0  0  0  0  0  0  0  0  0  0  0
  150.5293  137.0223  155.7729 C   0  0  2  0  0  0  0  0  0  0  0  0
  149.9684  135.8697  156.6178 C   0  0  0  0  0  0  0  0  0  0  0  0
  151.7315  137.6926  156.4659 C   0  0  0  0  0  0  0  0  0  0  0  0
  152.2881  138.8607  155.6321 C   0  0  0  0  0  0  0  0  0  0  0  0
  151.1384  144.2995  157.9037 C   0  0  0  0  0  0  0  0  0  0  0  0
  152.6610  144.8376  158.5558 S   0  0  0  0  0  0  0  0  0  0  0  0
  153.8022  142.0666  160.8064 H   0  0  0  0  0  0  0  0  0  0  0  0
  154.3586  143.7465  160.7428 H   0  0  0  0  0  0  0  0  0  0  0  0
  154.8668  142.5978  159.4921 H   0  0  0  0  0  0  0  0  0  0  0  0
  149.4078  141.4693  158.6839 H   0  0  0  0  0  0  0  0  0  0  0  0
  148.7363  142.8718  157.8867 H   0  0  0  0  0  0  0  0  0  0  0  0
  151.2750  140.4045  157.3551 H   0  0  0  0  0  0  0  0  0  0  0  0
  151.6186  140.6439  154.6128 H   0  0  0  0  0  0  0  0  0  0  0  0
  149.2115  139.9682  154.4341 H   0  0  0  0  0  0  0  0  0  0  0  0
  150.3029  138.8651  153.6398 H   0  0  0  0  0  0  0  0  0  0  0  0
  149.0040  138.4413  156.3734 H   0  0  0  0  0  0  0  0  0  0  0  0
  148.6246  137.5879  154.9004 H   0  0  0  0  0  0  0  0  0  0  0  0
  150.8795  136.5987  154.8305 H   0  0  0  0  0  0  0  0  0  0  0  0
  149.6000  136.2268  157.5801 H   0  0  0  0  0  0  0  0  0  0  0  0
  150.7334  135.1176  156.8125 H   0  0  0  0  0  0  0  0  0  0  0  0
  149.1420  135.3743  156.1075 H   0  0  0  0  0  0  0  0  0  0  0  0
  151.4372  138.0531  157.4527 H   0  0  0  0  0  0  0  0  0  0  0  0
  152.5207  136.9589  156.6330 H   0  0  0  0  0  0  0  0  0  0  0  0
  152.6998  138.4689  154.7013 H   0  0  0  0  0  0  0  0  0  0  0  0
  153.1235  139.3263  156.1563 H   0  0  0  0  0  0  0  0  0  0  0  0
  150.5468  144.9665  157.2946 H   0  0  0  0  0  0  0  0  0  0  0  0
  1  2  1  0  0  0  0
  1 18  1  0  0  0  0
  1 19  1  0  0  0  0
  1 20  1  0  0  0  0
  2 17  1  0  0  0  0
  2  3  2  0  0  0  0
  3  4  1  0  0  0  0
  4  5  1  0  0  0  0
  4 16  2  0  0  0  0
  5  6  1  0  0  0  0
  5 21  1  0  0  0  0
  5 22  1  0  0  0  0
  6  7  2  0  0  0  0
  6  8  1  0  0  0  0
  8  9  1  0  0  0  0
  8 23  1  0  0  0  0
  9 15  1  0  0  0  0
  9 10  1  0  0  0  0
  9 24  1  0  0  0  0
 10 11  1  0  0  0  0
 10 25  1  0  0  0  0
 10 26  1  0  0  0  0
 11 12  1  0  0  0  0
 11 27  1  0  0  0  0
 11 28  1  0  0  0  0
 12 13  1  0  0  0  0
 12 14  1  0  0  0  0
 12 29  1  0  0  0  0
 13 30  1  0  0  0  0
 13 31  1  0  0  0  0
 13 32  1  0  0  0  0
 14 15  1  0  0  0  0
 14 33  1  0  0  0  0
 14 34  1  0  0  0  0
 15 35  1  0  0  0  0
 15 36  1  0  0  0  0
 16 17  1  0  0  0  0
 16 37  1  0  0  0  0
M  END
> <s_m_source_file>
AV-unprocessed.smi

> <i_m_source_file_index>
569

> <i_lp_mmshare_version>
43012

> <i_f3d_flags>
0

> <s_epik_input>
W0NIM11jMW5jKFtjSF1zMSlbQ0gyXUMoPU8pW05IXVtDQEBIXTJbQ0gyXVtDSDJdW0NAQEhdKFtDSDNdKVtDSDJdW0NIMl0y

> <s_epik_cmdline>
J2VwaWtfcHl0aG9uJywgJy1waCcsICc3LjAnLCAnLXRuJywgJzgnLCAnLW1hJywgJzIwMCcsICctbWV0YWxfYmluZGluZycsICctaW1hZScsICc8aW5maWxlLm1hZT4nLCAnLW9tYWUnLCAnPG91dGZpbGUubWFlPic=

> <r_lp_tautomer_probability>
1

> <r_epik_Ionization_Penalty>
6.63234e-05

> <r_epik_Ionization_Penalty_Charging>
0

> <r_epik_Ionization_Penalty_Neutral>
6.63234e-05

> <r_epik_State_Penalty>
-0

> <r_epik_Charging_Adjusted_Penalty>
0

> <i_epik_Tot_Q>
0

> <i_epik_Tot_abs_Q>
0

> <r_epik_Metal_State_Penalty>
-0

> <b_epik_Metal_Only>
0

> <s_lp_Force_Field>
OPLS_2005

> <r_lp_Energy>
5.61603

> <b_lp_Chiralities_Consistent>
1

> <s_lp_Variant>
AV-unprocessed.smi:569-2

> <Gold.Version>
5.8.1

> <Gold.Id.Protein>
6NUR|6NUR_protein|mol2

> <Gold.PLP.Fitness>
39.3318

> <Gold.PLP.PLP>
-35.4451

> <Gold.PLP.part.hbond>
-1.0000

> <Gold.PLP.part.metal>
0.0000

> <Gold.PLP.part.buried>
-4.2119

> <Gold.PLP.part.nonpolar>
-31.6933

> <Gold.PLP.part.repulsive>
0.2436

> <Gold.PLP.ligand.clash>
0.0000

> <Gold.PLP.ligand.torsion>
0.3965

> <Gold.PLP.Chemscore.Hbond>
0.5600

> <Gold.PLP.Chemscore.CHOScore>
0.9986

> <Gold.PLP.Chemscore.Metal>
0.0000

> <Gold.Chemscore.Hbonds>
donor molecule, donor type, donor heavy atom, donor atom, acceptor molecule, acceptor atom, score
      L1  C    16    37       P1  8028  1.00

> <Gold.PLP.Chemscore.Internal.Correction>
0.0039

> <Gold.Rescore>
     Score         DG    S(hbond)    S(metal)    S(lipo)     H(rot)  DE(clash)    DE(int)     intcor
     15.00     -16.82       0.97        0.00      96.75       1.26       0.03       1.78       ----

> <Gold.Chemscore.Fitness>
15.0000

> <Gold.Chemscore.DG>
-16.8165

> <Gold.Chemscore.ZeroCoef>
-5.4800

> <Gold.Chemscore.Hbond>
0.9721

> <Gold.Chemscore.Metal>
0.0000

> <Gold.Chemscore.Lipo>
96.7533

> <Gold.Chemscore.Internal_Hbond>
0.0000

> <Gold.Chemscore.DEClash>
0.0324

> <Gold.Chemscore.DEInternal>
1.7841

> <Gold.Chemscore.Rot>
1.2620

> <Gold.Chemscore.Internal.Correction>
   9.000000E+99

> <Gold.Chemscore.Hbond.Weighted>
-3.2469

> <Gold.Chemscore.Metal.Weighted>
-0.0000

> <Gold.Chemscore.Lipo.Weighted>
-11.3201

> <Gold.Chemscore.Internal_Hbond.Weighted>
0.0000

> <Gold.Chemscore.DEClash.Weighted>
0.0324

> <Gold.Chemscore.DEInternal.Weighted>
1.7841

> <Gold.Chemscore.Rot.Weighted>
3.2306

> <Gold.Chemscore.Internal.Correction.Weighted>
   9.000000E+99

> <Gold.Protein.RotatedTorsions>
[ 6907 6896 6895 6894 ] final   87.73 input  -60.11 | X-H torsion
[ 7974 7965 7964 7962 ] final -138.49 input  175.53 | X-H torsion
[ 8008 7997 7996 7995 ] final  134.52 input   59.86 | X-H torsion
[ 10167 10162 10161 10158 ] final -172.56 input  -65.29 | X-H torsion
[ 10718 10713 10712 10709 ] final -174.93 input   66.30 | X-H torsion
[ 10763 10752 10751 10750 ] final  -71.97 input  -60.55 | X-H torsion
[ 11005 11000 10999 10996 ] final   73.30 input  -57.11 | X-H torsion

> <Gold.Protein.ActiveResidues>
 VAL166  LYS551  ARG553  GLY616  TRP617  ASP618  TYR619  PRO620  LYS621  CYS622 
 ASP623  PHE694  ASN695  SER759  ASP760  ASP761  ALA762  ILE779  LEU786  VAL792 
 PHE793  MET794  SER795  GLU796  ALA797  LYS798  CYS799  TRP800  GLU811  SER814 

> <Gold.Protein.RotatedAtoms>
  152.5415  134.2232  159.8795 H   0  0  0  0  0  0  0  0  0  0  0  0  # atno 6907 bound_to 6896
  151.2208  133.4497  159.2608 H   0  0  0  0  0  0  0  0  0  0  0  0  # atno 6908 bound_to 6896
  151.0808  134.9870  159.8411 H   0  0  0  0  0  0  0  0  0  0  0  0  # atno 6909 bound_to 6896
  144.8754  140.6429  143.5240 H   0  0  0  0  0  0  0  0  0  0  0  0  # atno 7974 bound_to 7965
  156.2999  140.2494  156.3431 H   0  0  0  0  0  0  0  0  0  0  0  0  # atno 8008 bound_to 7997
  154.9036  140.0405  157.1926 H   0  0  0  0  0  0  0  0  0  0  0  0  # atno 8009 bound_to 7997
  154.8476  140.2901  155.5623 H   0  0  0  0  0  0  0  0  0  0  0  0  # atno 8010 bound_to 7997
  139.5738  144.1581  152.1421 H   0  0  0  0  0  0  0  0  0  0  0  0  # atno 10167 bound_to 10162
  156.7923  130.9522  151.3120 H   0  0  0  0  0  0  0  0  0  0  0  0  # atno 10718 bound_to 10713
  154.4392  135.5945  153.6118 H   0  0  0  0  0  0  0  0  0  0  0  0  # atno 10763 bound_to 10752
  152.9804  135.5994  154.3744 H   0  0  0  0  0  0  0  0  0  0  0  0  # atno 10764 bound_to 10752
  154.3591  135.2841  155.2308 H   0  0  0  0  0  0  0  0  0  0  0  0  # atno 10765 bound_to 10752
  139.9447  134.7335  156.1010 H   0  0  0  0  0  0  0  0  0  0  0  0  # atno 11005 bound_to 11000
  145.4052  139.1590  143.4156 LP  0  0  0  0  0  0  0  0  0  0  0  0  # atno 17320 bound_to 7965
  146.2959  140.4152  142.8722 LP  0  0  0  0  0  0  0  0  0  0  0  0  # atno 17321 bound_to 7965
  140.1119  144.5449  150.6919 LP  0  0  0  0  0  0  0  0  0  0  0  0  # atno 17342 bound_to 10162
  140.7021  143.2442  151.4834 LP  0  0  0  0  0  0  0  0  0  0  0  0  # atno 17343 bound_to 10162
  157.6594  130.8953  149.9798 LP  0  0  0  0  0  0  0  0  0  0  0  0  # atno 17370 bound_to 10713
  156.1151  130.3648  149.9981 LP  0  0  0  0  0  0  0  0  0  0  0  0  # atno 17371 bound_to 10713
  141.1093  133.6649  156.2940 LP  0  0  0  0  0  0  0  0  0  0  0  0  # atno 17394 bound_to 11000
  140.5864  134.5694  157.5490 LP  0  0  0  0  0  0  0  0  0  0  0  0  # atno 17395 bound_to 11000

$$$$
