AV-unprocessed.smi:69|AV-procd|sdf|656|dock3
  -GOLD-   2262016553D 1   1.00000     0.00000
 Structure written by MMmdl.
 32 34  0  0  0  0  0  0  0  0  1 V2000
  154.1588  142.2475  161.7575 N   0  0  0  0  0  0  0  0  0  0  0  0
  153.5112  142.5731  160.6303 C   0  0  0  0  0  0  0  0  0  0  0  0
  153.1230  143.8589  160.4592 N   0  0  0  0  0  0  0  0  0  0  0  0
  152.4801  144.2101  159.3402 C   0  0  0  0  0  0  0  0  0  0  0  0
  152.1361  143.4472  158.2983 N   0  0  0  0  0  0  0  0  0  0  0  0
  152.5269  142.1511  158.4772 C   0  0  0  0  0  0  0  0  0  0  0  0
  153.2165  141.6357  159.6083 C   0  0  0  0  0  0  0  0  0  0  0  0
  153.4523  140.2782  159.4383 N   0  0  0  0  0  0  0  0  0  0  0  0
  152.9336  140.0122  158.2688 C   0  0  0  0  0  0  0  0  0  0  0  0
  152.3451  141.0827  157.6261 N   0  0  0  0  0  0  0  0  0  0  0  0
  151.6802  141.1425  156.2849 C   0  0  1  0  0  0  0  0  0  0  0  0
  152.5166  140.5209  155.3556 O   0  0  0  0  0  0  0  0  0  0  0  0
  152.1137  139.1658  155.1882 C   0  0  2  0  0  0  0  0  0  0  0  0
  152.7124  138.5558  153.9089 C   0  0  0  0  0  0  0  0  0  0  0  0
  152.1271  137.2962  153.6551 O   0  0  0  0  0  0  0  0  0  0  0  0
  150.5861  139.2913  155.2151 C   0  0  2  0  0  0  0  0  0  0  0  0
  150.0999  139.7140  153.9510 O   0  0  0  0  0  0  0  0  0  0  0  0
  150.3670  140.3352  156.3102 C   0  0  2  0  0  0  0  0  0  0  0  0
  149.2138  141.1265  156.0912 O   0  0  0  0  0  0  0  0  0  0  0  0
  151.5693  142.2068  156.0726 H   0  0  0  0  0  0  0  0  0  0  0  0
  152.4245  138.5854  156.0592 H   0  0  0  0  0  0  0  0  0  0  0  0
  150.1064  138.3440  155.4630 H   0  0  0  0  0  0  0  0  0  0  0  0
  150.2689  139.8297  157.2725 H   0  0  0  0  0  0  0  0  0  0  0  0
  154.4598  141.2949  161.9059 H   0  0  0  0  0  0  0  0  0  0  0  0
  154.3513  142.9549  162.4518 H   0  0  0  0  0  0  0  0  0  0  0  0
  152.2015  145.2512  159.2695 H   0  0  0  0  0  0  0  0  0  0  0  0
  152.9703  139.0186  157.8457 H   0  0  0  0  0  0  0  0  0  0  0  0
  152.4963  139.1946  153.0520 H   0  0  0  0  0  0  0  0  0  0  0  0
  153.7963  138.4610  153.9809 H   0  0  0  0  0  0  0  0  0  0  0  0
  151.8229  137.2814  152.7605 H   0  0  0  0  0  0  0  0  0  0  0  0
  149.6271  138.9947  153.5601 H   0  0  0  0  0  0  0  0  0  0  0  0
  149.4549  142.0355  156.1877 H   0  0  0  0  0  0  0  0  0  0  0  0
  1  2  1  0  0  0  0
  1 24  1  0  0  0  0
  1 25  1  0  0  0  0
  2  7  1  0  0  0  0
  2  3  2  0  0  0  0
  3  4  1  0  0  0  0
  4  5  2  0  0  0  0
  4 26  1  0  0  0  0
  5  6  1  0  0  0  0
  6 10  1  0  0  0  0
  6  7  2  0  0  0  0
  7  8  1  0  0  0  0
  8  9  2  0  0  0  0
  9 10  1  0  0  0  0
  9 27  1  0  0  0  0
 10 11  1  0  0  0  0
 11 20  1  0  0  0  0
 11 18  1  0  0  0  0
 11 12  1  0  0  0  0
 12 13  1  0  0  0  0
 13 21  1  0  0  0  0
 13 14  1  0  0  0  0
 13 16  1  0  0  0  0
 14 15  1  0  0  0  0
 14 28  1  0  0  0  0
 14 29  1  0  0  0  0
 15 30  1  0  0  0  0
 16 22  1  0  0  0  0
 16 17  1  0  0  0  0
 16 18  1  0  0  0  0
 17 31  1  0  0  0  0
 18 23  1  0  0  0  0
 18 19  1  0  0  0  0
 19 32  1  0  0  0  0
M  END
> <s_m_source_file>
AV-unprocessed.smi

> <i_m_source_file_index>
69

> <i_lp_mmshare_version>
43012

> <i_f3d_flags>
0

> <s_epik_input>
bjFbY0hdbmMoW05IMl0pYyhjMTIpbltjSF1uMltDQEBIXTNPW0NASF0oW0NIMl1bT0hdKVtDQEBIXShbT0hdKVtDQEhdM1tPSF0=

> <s_epik_cmdline>
J2VwaWtfcHl0aG9uJywgJy1waCcsICc3LjAnLCAnLXRuJywgJzgnLCAnLW1hJywgJzIwMCcsICctbWV0YWxfYmluZGluZycsICctaW1hZScsICc8aW5maWxlLm1hZT4nLCAnLW9tYWUnLCAnPG91dGZpbGUubWFlPic=

> <r_lp_tautomer_probability>
1

> <r_epik_Ionization_Penalty>
0.000428445

> <r_epik_Ionization_Penalty_Charging>
0

> <r_epik_Ionization_Penalty_Neutral>
0.000428445

> <r_epik_State_Penalty>
-0

> <r_epik_Charging_Adjusted_Penalty>
0

> <i_epik_Tot_Q>
0

> <i_epik_Tot_abs_Q>
0

> <r_epik_Metal_State_Penalty>
-0

> <b_epik_Metal_Only>
0

> <s_epik_Chemistry_Notes>
This compound contains an acetal/aminal-like group ( X-CH(R)-Y where X, Y are N, S, or O) that may be acid/base labile, releasing an aldehyde.

> <s_lp_Force_Field>
OPLS_2005

> <r_lp_Energy>
39.6726

> <b_lp_Chiralities_Consistent>
1

> <s_lp_Variant>
AV-unprocessed.smi:69-14

> <Gold.Version>
5.8.1

> <Gold.Id.Protein>
6NUR|6NUR_protein|mol2

> <Gold.PLP.Fitness>
45.5304

> <Gold.PLP.PLP>
-34.1105

> <Gold.PLP.part.hbond>
-6.0000

> <Gold.PLP.part.metal>
0.0000

> <Gold.PLP.part.buried>
-4.7927

> <Gold.PLP.part.nonpolar>
-23.3963

> <Gold.PLP.part.repulsive>
0.1504

> <Gold.PLP.ligand.clash>
0.0000

> <Gold.PLP.ligand.torsion>
0.1918

> <Gold.PLP.Chemscore.Hbond>
3.9265

> <Gold.PLP.Chemscore.CHOScore>
0.0000

> <Gold.PLP.Chemscore.Metal>
0.0000

> <Gold.Chemscore.Hbonds>
donor molecule, donor type, donor heavy atom, donor atom, acceptor molecule, acceptor atom, score
      L1  H    15    30       P1  7949  0.77
      P1  H  7989  7998       L1    17  0.88
      P1  H  7997  8008       L1    12  0.69
      P1  H 10752 10763       L1    15  0.98

> <Gold.PLP.Chemscore.Internal.Correction>
0.0240

> <Gold.Rescore>
     Score         DG    S(hbond)    S(metal)    S(lipo)     H(rot)  DE(clash)    DE(int)     intcor
      6.79      -8.23       2.59        0.00      37.66       4.03       1.32       0.13       ----

> <Gold.Chemscore.Fitness>
6.7929

> <Gold.Chemscore.DG>
-8.2335

> <Gold.Chemscore.ZeroCoef>
-5.4800

> <Gold.Chemscore.Hbond>
2.5925

> <Gold.Chemscore.Metal>
0.0000

> <Gold.Chemscore.Lipo>
37.6551

> <Gold.Chemscore.Internal_Hbond>
0.0000

> <Gold.Chemscore.DEClash>
1.3150

> <Gold.Chemscore.DEInternal>
0.1256

> <Gold.Chemscore.Rot>
4.0277

> <Gold.Chemscore.Internal.Correction>
   9.000000E+99

> <Gold.Chemscore.Hbonds>
donor molecule, donor type, donor heavy atom, donor atom, acceptor molecule, acceptor atom, score
      L1  H    15    30       P1  7949  0.77
      P1  H  7989  7998       L1    17  0.16
      P1  H  7997  8008       L1    12  0.09
      P1  H 10752 10763       L1    15  0.72

> <Gold.Chemscore.Hbond.Weighted>
-8.6588

> <Gold.Chemscore.Metal.Weighted>
-0.0000

> <Gold.Chemscore.Lipo.Weighted>
-4.4057

> <Gold.Chemscore.Internal_Hbond.Weighted>
0.0000

> <Gold.Chemscore.DEClash.Weighted>
1.3150

> <Gold.Chemscore.DEInternal.Weighted>
0.1256

> <Gold.Chemscore.Rot.Weighted>
10.3110

> <Gold.Chemscore.Internal.Correction.Weighted>
   9.000000E+99

> <Gold.Protein.RotatedTorsions>
[ 6907 6896 6895 6894 ] final   -6.88 input  -60.11 | X-H torsion
[ 7974 7965 7964 7962 ] final -140.03 input  175.53 | X-H torsion
[ 8008 7997 7996 7995 ] final  -40.26 input   59.86 | X-H torsion
[ 10167 10162 10161 10158 ] final  133.21 input  -65.29 | X-H torsion
[ 10718 10713 10712 10709 ] final -171.59 input   66.30 | X-H torsion
[ 10763 10752 10751 10750 ] final   31.93 input  -60.55 | X-H torsion
[ 11005 11000 10999 10996 ] final  126.98 input  -57.11 | X-H torsion

> <Gold.Protein.ActiveResidues>
 VAL166  LYS551  ARG553  GLY616  TRP617  ASP618  TYR619  PRO620  LYS621  CYS622 
 ASP623  PHE694  ASN695  SER759  ASP760  ASP761  ALA762  ILE779  LEU786  VAL792 
 PHE793  MET794  SER795  GLU796  ALA797  LYS798  CYS799  TRP800  GLU811  SER814 

> <Gold.Protein.RotatedAtoms>
  151.4585  135.1036  159.9717 H   0  0  0  0  0  0  0  0  0  0  0  0  # atno 6907 bound_to 6896
  152.4861  133.8374  159.7145 H   0  0  0  0  0  0  0  0  0  0  0  0  # atno 6908 bound_to 6896
  150.8973  133.7104  159.2915 H   0  0  0  0  0  0  0  0  0  0  0  0  # atno 6909 bound_to 6896
  144.8630  140.6249  143.5316 H   0  0  0  0  0  0  0  0  0  0  0  0  # atno 7974 bound_to 7965
  154.4014  140.1530  156.2998 H   0  0  0  0  0  0  0  0  0  0  0  0  # atno 8008 bound_to 7997
  155.8711  140.3449  155.5800 H   0  0  0  0  0  0  0  0  0  0  0  0  # atno 8009 bound_to 7997
  155.7774  140.0838  157.2067 H   0  0  0  0  0  0  0  0  0  0  0  0  # atno 8010 bound_to 7997
  139.5307  144.6626  151.4963 H   0  0  0  0  0  0  0  0  0  0  0  0  # atno 10167 bound_to 10162
  156.7432  130.9350  151.3111 H   0  0  0  0  0  0  0  0  0  0  0  0  # atno 10718 bound_to 10713
  153.0289  135.6426  154.1276 H   0  0  0  0  0  0  0  0  0  0  0  0  # atno 10763 bound_to 10752
  154.1001  135.2860  155.3255 H   0  0  0  0  0  0  0  0  0  0  0  0  # atno 10764 bound_to 10752
  154.6405  135.5461  153.7846 H   0  0  0  0  0  0  0  0  0  0  0  0  # atno 10765 bound_to 10752
  139.9484  134.9626  156.8787 H   0  0  0  0  0  0  0  0  0  0  0  0  # atno 11005 bound_to 11000
  145.4276  139.1554  143.4040 LP  0  0  0  0  0  0  0  0  0  0  0  0  # atno 17320 bound_to 7965
  146.2874  140.4390  142.8752 LP  0  0  0  0  0  0  0  0  0  0  0  0  # atno 17321 bound_to 7965
  140.6482  143.8750  150.6759 LP  0  0  0  0  0  0  0  0  0  0  0  0  # atno 17342 bound_to 10162
  140.2107  143.3886  152.1720 LP  0  0  0  0  0  0  0  0  0  0  0  0  # atno 17343 bound_to 10162
  157.6809  130.9139  150.0266 LP  0  0  0  0  0  0  0  0  0  0  0  0  # atno 17370 bound_to 10713
  156.1451  130.3642  149.9523 LP  0  0  0  0  0  0  0  0  0  0  0  0  # atno 17371 bound_to 10713
  140.5778  134.0381  155.7453 LP  0  0  0  0  0  0  0  0  0  0  0  0  # atno 17394 bound_to 11000
  141.1140  133.9569  157.2856 LP  0  0  0  0  0  0  0  0  0  0  0  0  # atno 17395 bound_to 11000

$$$$
