AV-unprocessed.smi:1078|AV-procd|sdf|4702|dock4
  -GOLD-   22720 3223D 1   1.00000     0.00000
 Structure written by MMmdl.
 40 41  0  0  0  0  0  0  0  0  2 V2000
  147.6331  141.9592  154.3443 C   0  0  0  0  0  0  0  0  0  0  0  0
  148.9258  141.3736  154.9380 C   0  0  2  0  0  0  0  0  0  0  0  0
  148.7609  139.9014  155.3850 C   0  0  0  0  0  0  0  0  0  0  0  0
  149.9675  139.1122  155.2111 N   0  0  0  0  0  0  0  0  0  0  0  0
  150.6125  138.7762  154.0390 C   0  0  0  0  0  0  0  0  0  0  0  0
  151.6954  138.0156  154.3754 C   0  0  0  0  0  0  0  0  0  0  0  0
  151.6234  137.9329  155.7942 C   0  0  0  0  0  0  0  0  0  0  0  0
  150.5852  138.5863  156.2910 N   0  0  0  0  0  0  0  0  0  0  0  0
  149.3745  142.2281  156.0602 N   0  3  0  0  0  0  0  0  0  0  0  0
  150.6872  141.8785  156.6446 C   0  0  0  0  0  0  0  0  0  0  0  0
  150.9250  142.6170  157.9749 C   0  0  0  0  0  0  0  0  0  0  0  0
  151.5806  143.9997  157.7613 C   0  0  0  0  0  0  0  0  0  0  0  0
  151.8304  144.7238  159.0945 C   0  0  0  0  0  0  0  0  0  0  0  0
  152.6793  143.8655  160.0442 C   0  0  0  0  0  0  0  0  0  0  0  0
  152.0368  142.4883  160.2657 C   0  0  0  0  0  0  0  0  0  0  0  0
  151.7886  141.7680  158.9303 C   0  0  0  0  0  0  0  0  0  0  0  0
  147.3242  141.4253  153.4453 H   0  0  0  0  0  0  0  0  0  0  0  0
  147.7688  143.0043  154.0640 H   0  0  0  0  0  0  0  0  0  0  0  0
  146.8113  141.9106  155.0595 H   0  0  0  0  0  0  0  0  0  0  0  0
  149.6890  141.4223  154.1596 H   0  0  0  0  0  0  0  0  0  0  0  0
  148.4777  139.8426  156.4362 H   0  0  0  0  0  0  0  0  0  0  0  0
  147.9585  139.4259  154.8191 H   0  0  0  0  0  0  0  0  0  0  0  0
  150.2540  139.1034  153.0740 H   0  0  0  0  0  0  0  0  0  0  0  0
  152.4264  137.5818  153.7092 H   0  0  0  0  0  0  0  0  0  0  0  0
  152.2889  137.4194  156.4725 H   0  0  0  0  0  0  0  0  0  0  0  0
  149.4493  143.1720  155.7086 H   0  0  0  0  0  0  0  0  0  0  0  0
  150.7213  140.8028  156.8168 H   0  0  0  0  0  0  0  0  0  0  0  0
  151.4839  142.1140  155.9374 H   0  0  0  0  0  0  0  0  0  0  0  0
  149.9564  142.7676  158.4552 H   0  0  0  0  0  0  0  0  0  0  0  0
  152.5272  143.8816  157.2318 H   0  0  0  0  0  0  0  0  0  0  0  0
  150.9511  144.6257  157.1283 H   0  0  0  0  0  0  0  0  0  0  0  0
  152.3278  145.6770  158.9122 H   0  0  0  0  0  0  0  0  0  0  0  0
  150.8764  144.9593  159.5677 H   0  0  0  0  0  0  0  0  0  0  0  0
  153.6797  143.7398  159.6283 H   0  0  0  0  0  0  0  0  0  0  0  0
  152.8032  144.3770  160.9992 H   0  0  0  0  0  0  0  0  0  0  0  0
  152.6776  141.8785  160.9036 H   0  0  0  0  0  0  0  0  0  0  0  0
  151.0925  142.6067  160.7989 H   0  0  0  0  0  0  0  0  0  0  0  0
  151.3038  140.8099  159.1217 H   0  0  0  0  0  0  0  0  0  0  0  0
  152.7454  141.5397  158.4587 H   0  0  0  0  0  0  0  0  0  0  0  0
  148.6728  142.2136  156.7864 H   0  0  0  0  0  0  0  0  0  0  0  0
  1  2  1  0  0  0  0
  1 17  1  0  0  0  0
  1 18  1  0  0  0  0
  1 19  1  0  0  0  0
  2  3  1  0  0  0  0
  2  9  1  0  0  0  0
  2 20  1  0  0  0  0
  3  4  1  0  0  0  0
  3 21  1  0  0  0  0
  3 22  1  0  0  0  0
  4  8  1  0  0  0  0
  4  5  1  0  0  0  0
  5  6  2  0  0  0  0
  5 23  1  0  0  0  0
  6  7  1  0  0  0  0
  6 24  1  0  0  0  0
  7  8  2  0  0  0  0
  7 25  1  0  0  0  0
  9 10  1  0  0  0  0
  9 26  1  0  0  0  0
  9 40  1  0  0  0  0
 10 11  1  0  0  0  0
 10 27  1  0  0  0  0
 10 28  1  0  0  0  0
 11 16  1  0  0  0  0
 11 12  1  0  0  0  0
 11 29  1  0  0  0  0
 12 13  1  0  0  0  0
 12 30  1  0  0  0  0
 12 31  1  0  0  0  0
 13 14  1  0  0  0  0
 13 32  1  0  0  0  0
 13 33  1  0  0  0  0
 14 15  1  0  0  0  0
 14 34  1  0  0  0  0
 14 35  1  0  0  0  0
 15 16  1  0  0  0  0
 15 36  1  0  0  0  0
 15 37  1  0  0  0  0
 16 38  1  0  0  0  0
 16 39  1  0  0  0  0
M  CHG  1   9   1
M  END
> <s_m_source_file>
AV-unprocessed.smi

> <i_m_source_file_index>
1078

> <i_lp_mmshare_version>
43012

> <i_f3d_flags>
0

> <s_epik_input>
bjFbY0hdW2NIXVtjSF1uMVtDSDJdW0NAQEhdKFtDSDNdKVtOSF1bQ0gyXVtDSF0yW0NIMl1bQ0gyXVtDSDJdW0NIMl1bQ0gyXTI=

> <s_epik_cmdline>
J2VwaWtfcHl0aG9uJywgJy1waCcsICc3LjAnLCAnLXRuJywgJzgnLCAnLW1hJywgJzIwMCcsICctbWV0YWxfYmluZGluZycsICctaW1hZScsICc8aW5maWxlLm1hZT4nLCAnLW9tYWUnLCAnPG91dGZpbGUubWFlPic=

> <r_lp_tautomer_probability>
1

> <r_epik_Ionization_Penalty>
0.00174474

> <r_epik_Ionization_Penalty_Charging>
0.00174052

> <r_epik_Ionization_Penalty_Neutral>
4.21324e-06

> <r_epik_State_Penalty>
0.00117783

> <r_epik_Charging_Adjusted_Penalty>
0.00291835

> <i_epik_Tot_Q>
1

> <i_epik_Tot_abs_Q>
1

> <r_epik_Metal_State_Penalty>
-0

> <b_epik_Metal_Only>
0

> <s_lp_Force_Field>
OPLS_2005

> <r_lp_Energy>
15.4187

> <b_lp_Chiralities_Consistent>
1

> <s_lp_Variant>
AV-unprocessed.smi:1078-1

> <Gold.Version>
5.8.1

> <Gold.Id.Protein>
6NUR|6NUR_protein|mol2

> <Gold.PLP.Fitness>
45.7979

> <Gold.PLP.PLP>
-38.4841

> <Gold.PLP.part.hbond>
-1.0000

> <Gold.PLP.part.metal>
0.0000

> <Gold.PLP.part.buried>
-5.4625

> <Gold.PLP.part.nonpolar>
-33.0229

> <Gold.PLP.part.repulsive>
0.1038

> <Gold.PLP.ligand.clash>
0.0000

> <Gold.PLP.ligand.torsion>
0.8535

> <Gold.PLP.Chemscore.Hbond>
2.0000

> <Gold.PLP.Chemscore.CHOScore>
1.0000

> <Gold.PLP.Chemscore.Metal>
0.0000

> <Gold.Chemscore.Hbonds>
donor molecule, donor type, donor heavy atom, donor atom, acceptor molecule, acceptor atom, score
      L1  H     9    26       P1  8028  1.98
      L1  C     5    23       P1  7957  1.00

> <Gold.PLP.Chemscore.Internal.Correction>
0.0209

> <Gold.Rescore>
     Score         DG    S(hbond)    S(metal)    S(lipo)     H(rot)  DE(clash)    DE(int)     intcor
     17.33     -18.03       0.96        0.00     113.51       1.54       0.03       0.67       ----

> <Gold.Chemscore.Fitness>
17.3349

> <Gold.Chemscore.DG>
-18.0342

> <Gold.Chemscore.ZeroCoef>
-5.4800

> <Gold.Chemscore.Hbond>
0.9613

> <Gold.Chemscore.Metal>
0.0000

> <Gold.Chemscore.Lipo>
113.5066

> <Gold.Chemscore.Internal_Hbond>
0.0000

> <Gold.Chemscore.DEClash>
0.0270

> <Gold.Chemscore.DEInternal>
0.6723

> <Gold.Chemscore.Rot>
1.5378

> <Gold.Chemscore.Internal.Correction>
   9.000000E+99

> <Gold.Chemscore.Hbonds>
donor molecule, donor type, donor heavy atom, donor atom, acceptor molecule, acceptor atom, score
      L1  H     9    26       P1  8028  0.94

> <Gold.Chemscore.Hbond.Weighted>
-3.2107

> <Gold.Chemscore.Metal.Weighted>
-0.0000

> <Gold.Chemscore.Lipo.Weighted>
-13.2803

> <Gold.Chemscore.Internal_Hbond.Weighted>
0.0000

> <Gold.Chemscore.DEClash.Weighted>
0.0270

> <Gold.Chemscore.DEInternal.Weighted>
0.6723

> <Gold.Chemscore.Rot.Weighted>
3.9368

> <Gold.Chemscore.Internal.Correction.Weighted>
   9.000000E+99

> <Gold.Protein.RotatedTorsions>
[ 6907 6896 6895 6894 ] final  170.63 input  -60.11 | X-H torsion
[ 7974 7965 7964 7962 ] final -179.76 input  175.53 | X-H torsion
[ 8008 7997 7996 7995 ] final  -66.46 input   59.86 | X-H torsion
[ 10167 10162 10161 10158 ] final  -10.86 input  -65.29 | X-H torsion
[ 10718 10713 10712 10709 ] final  172.86 input   66.30 | X-H torsion
[ 10763 10752 10751 10750 ] final   25.46 input  -60.55 | X-H torsion
[ 11005 11000 10999 10996 ] final  136.08 input  -57.11 | X-H torsion

> <Gold.Protein.ActiveResidues>
 VAL166  LYS551  ARG553  GLY616  TRP617  ASP618  TYR619  PRO620  LYS621  CYS622 
 ASP623  PHE694  ASN695  SER759  ASP760  ASP761  ALA762  ILE779  LEU786  VAL792 
 PHE793  MET794  SER795  GLU796  ALA797  LYS798  CYS799  TRP800  GLU811  SER814 

> <Gold.Protein.RotatedAtoms>
  151.8131  133.3384  159.3561 H   0  0  0  0  0  0  0  0  0  0  0  0  # atno 6907 bound_to 6896
  150.7319  134.5645  159.5868 H   0  0  0  0  0  0  0  0  0  0  0  0  # atno 6908 bound_to 6896
  152.3060  134.7555  160.0398 H   0  0  0  0  0  0  0  0  0  0  0  0  # atno 6909 bound_to 6896
  144.7139  140.0669  143.6431 H   0  0  0  0  0  0  0  0  0  0  0  0  # atno 7974 bound_to 7965
  154.4736  140.0912  156.7206 H   0  0  0  0  0  0  0  0  0  0  0  0  # atno 8008 bound_to 7997
  155.4657  140.3462  155.4300 H   0  0  0  0  0  0  0  0  0  0  0  0  # atno 8009 bound_to 7997
  156.1080  140.1440  156.9366 H   0  0  0  0  0  0  0  0  0  0  0  0  # atno 8010 bound_to 7997
  140.7124  143.5702  150.9100 H   0  0  0  0  0  0  0  0  0  0  0  0  # atno 10167 bound_to 10162
  156.9727  131.0095  151.2901 H   0  0  0  0  0  0  0  0  0  0  0  0  # atno 10718 bound_to 10713
  153.0690  135.6582  154.0289 H   0  0  0  0  0  0  0  0  0  0  0  0  # atno 10763 bound_to 10752
  153.9939  135.2943  155.3410 H   0  0  0  0  0  0  0  0  0  0  0  0  # atno 10764 bound_to 10752
  154.7058  135.5226  153.8663 H   0  0  0  0  0  0  0  0  0  0  0  0  # atno 10765 bound_to 10752
  140.0022  134.9474  157.0097 H   0  0  0  0  0  0  0  0  0  0  0  0  # atno 11005 bound_to 11000
  145.9817  139.2946  143.1038 LP  0  0  0  0  0  0  0  0  0  0  0  0  # atno 17320 bound_to 7965
  145.9003  140.9247  143.0506 LP  0  0  0  0  0  0  0  0  0  0  0  0  # atno 17321 bound_to 7965
  139.9428  143.6362  152.3049 LP  0  0  0  0  0  0  0  0  0  0  0  0  # atno 17342 bound_to 10162
  139.6853  144.7652  151.1536 LP  0  0  0  0  0  0  0  0  0  0  0  0  # atno 17343 bound_to 10162
  157.5581  130.8227  149.8230 LP  0  0  0  0  0  0  0  0  0  0  0  0  # atno 17370 bound_to 10713
  156.0276  130.3774  150.1779 LP  0  0  0  0  0  0  0  0  0  0  0  0  # atno 17371 bound_to 10713
  140.4707  134.1390  155.7203 LP  0  0  0  0  0  0  0  0  0  0  0  0  # atno 17394 bound_to 11000
  141.1650  133.8720  157.1739 LP  0  0  0  0  0  0  0  0  0  0  0  0  # atno 17395 bound_to 11000

$$$$
