AV-unprocessed.smi:2439|AV-procd|sdf|9608|dock3
  -GOLD-   2272013243D 1   1.00000     0.00000
 Structure written by MMmdl.
 41 43  0  0  0  0  0  0  0  0  2 V2000
  150.2342  137.1871  154.5879 N   0  0  0  0  0  0  0  0  0  0  0  0
  149.5843  138.1254  154.3988 C   0  0  0  0  0  0  0  0  0  0  0  0
  148.7654  139.3075  154.1591 C   0  0  0  0  0  0  0  0  0  0  0  0
  149.1954  140.5502  154.6701 C   0  0  0  0  0  0  0  0  0  0  0  0
  148.4084  141.6941  154.4439 C   0  0  0  0  0  0  0  0  0  0  0  0
  147.2171  141.5484  153.7108 C   0  0  0  0  0  0  0  0  0  0  0  0
  146.7941  140.3659  153.2170 N   0  0  0  0  0  0  0  0  0  0  0  0
  147.5463  139.2582  153.4306 C   0  0  0  0  0  0  0  0  0  0  0  0
  147.0812  138.0394  152.9017 N   0  0  0  0  0  0  0  0  0  0  0  0
  145.6772  137.6507  152.9682 C   0  0  0  0  0  0  0  0  0  0  0  0
  145.4272  136.2450  152.3950 C   0  0  1  0  0  0  0  0  0  0  0  0
  145.6647  136.2089  150.8692 C   0  0  0  0  0  0  0  0  0  0  0  0
  145.5459  134.8323  150.3303 N   0  3  2  0  0  0  0  0  0  0  0  0
  144.1377  134.3724  150.1843 C   0  0  0  0  0  0  0  0  0  0  0  0
  144.0704  132.9727  149.5565 C   0  0  0  0  0  0  0  0  0  0  0  0
  144.8768  131.9686  150.3874 C   0  0  0  0  0  0  0  0  0  0  0  0
  146.3257  132.4544  150.5298 C   0  0  0  0  0  0  0  0  0  0  0  0
  146.4177  133.8912  151.0870 C   0  0  2  0  0  0  0  0  0  0  0  0
  146.1448  133.9940  152.6022 C   0  0  0  0  0  0  0  0  0  0  0  0
  146.3333  135.3410  153.0213 O   0  0  0  0  0  0  0  0  0  0  0  0
  150.1165  140.6312  155.2293 H   0  0  0  0  0  0  0  0  0  0  0  0
  148.7117  142.6592  154.8221 H   0  0  0  0  0  0  0  0  0  0  0  0
  146.5861  142.4029  153.5160 H   0  0  0  0  0  0  0  0  0  0  0  0
  147.7473  137.3704  152.5420 H   0  0  0  0  0  0  0  0  0  0  0  0
  145.3368  137.7050  154.0030 H   0  0  0  0  0  0  0  0  0  0  0  0
  145.0885  138.3860  152.4191 H   0  0  0  0  0  0  0  0  0  0  0  0
  144.4028  135.9428  152.6146 H   0  0  0  0  0  0  0  0  0  0  0  0
  144.9716  136.8748  150.3533 H   0  0  0  0  0  0  0  0  0  0  0  0
  146.6677  136.5762  150.6476 H   0  0  0  0  0  0  0  0  0  0  0  0
  143.6337  134.3618  151.1505 H   0  0  0  0  0  0  0  0  0  0  0  0
  143.5925  135.0772  149.5556 H   0  0  0  0  0  0  0  0  0  0  0  0
  143.0324  132.6467  149.4826 H   0  0  0  0  0  0  0  0  0  0  0  0
  144.4582  133.0059  148.5375 H   0  0  0  0  0  0  0  0  0  0  0  0
  144.4218  131.8480  151.3710 H   0  0  0  0  0  0  0  0  0  0  0  0
  144.8560  130.9869  149.9130 H   0  0  0  0  0  0  0  0  0  0  0  0
  146.8920  131.7673  151.1594 H   0  0  0  0  0  0  0  0  0  0  0  0
  146.8017  132.4250  149.5485 H   0  0  0  0  0  0  0  0  0  0  0  0
  147.4456  134.2230  150.9313 H   0  0  0  0  0  0  0  0  0  0  0  0
  145.1409  133.6555  152.8616 H   0  0  0  0  0  0  0  0  0  0  0  0
  146.8417  133.3613  153.1524 H   0  0  0  0  0  0  0  0  0  0  0  0
  145.9134  134.8632  149.3898 H   0  0  0  0  0  0  0  0  0  0  0  0
  1  2  3  0  0  0  0
  2  3  1  0  0  0  0
  3  8  1  0  0  0  0
  3  4  2  0  0  0  0
  4  5  1  0  0  0  0
  4 21  1  0  0  0  0
  5  6  2  0  0  0  0
  5 22  1  0  0  0  0
  6  7  1  0  0  0  0
  6 23  1  0  0  0  0
  7  8  2  0  0  0  0
  8  9  1  0  0  0  0
  9 10  1  0  0  0  0
  9 24  1  0  0  0  0
 10 11  1  0  0  0  0
 10 25  1  0  0  0  0
 10 26  1  0  0  0  0
 11 20  1  0  0  0  0
 11 12  1  0  0  0  0
 11 27  1  0  0  0  0
 12 13  1  0  0  0  0
 12 28  1  0  0  0  0
 12 29  1  0  0  0  0
 13 18  1  0  0  0  0
 13 14  1  0  0  0  0
 13 41  1  0  0  0  0
 14 15  1  0  0  0  0
 14 30  1  0  0  0  0
 14 31  1  0  0  0  0
 15 16  1  0  0  0  0
 15 32  1  0  0  0  0
 15 33  1  0  0  0  0
 16 17  1  0  0  0  0
 16 34  1  0  0  0  0
 16 35  1  0  0  0  0
 17 18  1  0  0  0  0
 17 36  1  0  0  0  0
 17 37  1  0  0  0  0
 18 19  1  0  0  0  0
 18 38  1  0  0  0  0
 19 20  1  0  0  0  0
 19 39  1  0  0  0  0
 19 40  1  0  0  0  0
M  CHG  1  13   1
M  END
> <s_m_source_file>
AV-unprocessed.smi

> <i_m_source_file_index>
2439

> <i_lp_mmshare_version>
43012

> <i_f3d_flags>
0

> <s_epik_input>
TiNDYzFbY0hdW2NIXVtjSF1uYzFbTkhdW0NIMl1bQ0BIXShbQ0gyXTIpT1tDSDJdW0NAQEhdKE4yMylbQ0gyXVtDSDJdW0NIMl1bQ0gyXTM=

> <s_epik_cmdline>
J2VwaWtfcHl0aG9uJywgJy1waCcsICc3LjAnLCAnLXRuJywgJzgnLCAnLW1hJywgJzIwMCcsICctbWV0YWxfYmluZGluZycsICctaW1hZScsICc8aW5maWxlLm1hZT4nLCAnLW9tYWUnLCAnPG91dGZpbGUubWFlPic=

> <r_epik_Ionization_Penalty>
0.0803594

> <r_epik_Ionization_Penalty_Charging>
0.0803403

> <r_epik_Ionization_Penalty_Neutral>
1.90988e-05

> <r_epik_State_Penalty>
0.0711481

> <r_epik_Charging_Adjusted_Penalty>
0.151488

> <i_epik_Tot_Q>
1

> <i_epik_Tot_abs_Q>
1

> <r_epik_Metal_State_Penalty>
0.0711482

> <b_epik_Metal_Only>
0

> <s_lp_Force_Field>
OPLS_2005

> <r_lp_Energy>
31.3602

> <b_lp_Chiralities_Consistent>
1

> <s_lp_Variant>
AV-unprocessed.smi:2439-6

> <Gold.Version>
5.8.1

> <Gold.Id.Protein>
6NUR|6NUR_protein|mol2

> <Gold.PLP.Fitness>
40.5898

> <Gold.PLP.PLP>
-35.3353

> <Gold.PLP.part.hbond>
-2.0000

> <Gold.PLP.part.metal>
0.0000

> <Gold.PLP.part.buried>
-3.2211

> <Gold.PLP.part.nonpolar>
-31.5913

> <Gold.PLP.part.repulsive>
1.1078

> <Gold.PLP.ligand.clash>
0.0000

> <Gold.PLP.ligand.torsion>
0.3734

> <Gold.PLP.Chemscore.Hbond>
2.0000

> <Gold.PLP.Chemscore.CHOScore>
0.0000

> <Gold.PLP.Chemscore.Metal>
0.0000

> <Gold.Chemscore.Hbonds>
donor molecule, donor type, donor heavy atom, donor atom, acceptor molecule, acceptor atom, score
      L1  H     9    24       P1  7948  1.00
      L1  H    13    41       P1  7921  1.00

> <Gold.PLP.Chemscore.Internal.Correction>
0.0012

> <Gold.Rescore>
     Score         DG    S(hbond)    S(metal)    S(lipo)     H(rot)  DE(clash)    DE(int)     intcor
     18.56     -19.11       1.92        0.00      89.30       1.27       0.21       0.35       ----

> <Gold.Chemscore.Fitness>
18.5584

> <Gold.Chemscore.DG>
-19.1146

> <Gold.Chemscore.ZeroCoef>
-5.4800

> <Gold.Chemscore.Hbond>
1.9243

> <Gold.Chemscore.Metal>
0.0000

> <Gold.Chemscore.Lipo>
89.3009

> <Gold.Chemscore.Internal_Hbond>
0.0000

> <Gold.Chemscore.DEClash>
0.2103

> <Gold.Chemscore.DEInternal>
0.3459

> <Gold.Chemscore.Rot>
1.2659

> <Gold.Chemscore.Internal.Correction>
   9.000000E+99

> <Gold.Chemscore.Hbonds>
donor molecule, donor type, donor heavy atom, donor atom, acceptor molecule, acceptor atom, score
      L1  H     9    24       P1  7948  1.00
      L1  H    13    41       P1  7921  0.85

> <Gold.Chemscore.Hbond.Weighted>
-6.4271

> <Gold.Chemscore.Metal.Weighted>
-0.0000

> <Gold.Chemscore.Lipo.Weighted>
-10.4482

> <Gold.Chemscore.Internal_Hbond.Weighted>
0.0000

> <Gold.Chemscore.DEClash.Weighted>
0.2103

> <Gold.Chemscore.DEInternal.Weighted>
0.3459

> <Gold.Chemscore.Rot.Weighted>
3.2408

> <Gold.Chemscore.Internal.Correction.Weighted>
   9.000000E+99

> <Gold.Protein.RotatedTorsions>
[ 6907 6896 6895 6894 ] final  -46.83 input  -60.11 | X-H torsion
[ 7974 7965 7964 7962 ] final  173.02 input  175.53 | X-H torsion
[ 8008 7997 7996 7995 ] final   42.11 input   59.86 | X-H torsion
[ 10167 10162 10161 10158 ] final -160.44 input  -65.29 | X-H torsion
[ 10718 10713 10712 10709 ] final   71.45 input   66.30 | X-H torsion
[ 10763 10752 10751 10750 ] final -149.42 input  -60.55 | X-H torsion
[ 11005 11000 10999 10996 ] final  -41.81 input  -57.11 | X-H torsion

> <Gold.Protein.ActiveResidues>
 VAL166  LYS551  ARG553  GLY616  TRP617  ASP618  TYR619  PRO620  LYS621  CYS622 
 ASP623  PHE694  ASN695  SER759  ASP760  ASP761  ALA762  ILE779  LEU786  VAL792 
 PHE793  MET794  SER795  GLU796  ALA797  LYS798  CYS799  TRP800  GLU811  SER814 

> <Gold.Protein.RotatedAtoms>
  150.9071  134.8487  159.7399 H   0  0  0  0  0  0  0  0  0  0  0  0  # atno 6907 bound_to 6896
  152.4924  134.4414  159.9554 H   0  0  0  0  0  0  0  0  0  0  0  0  # atno 6908 bound_to 6896
  151.4460  133.3591  159.2823 H   0  0  0  0  0  0  0  0  0  0  0  0  # atno 6909 bound_to 6896
  144.7253  139.9586  143.6434 H   0  0  0  0  0  0  0  0  0  0  0  0  # atno 7974 bound_to 7965
  155.2808  140.3372  155.4258 H   0  0  0  0  0  0  0  0  0  0  0  0  # atno 8008 bound_to 7997
  156.2090  140.1762  156.7776 H   0  0  0  0  0  0  0  0  0  0  0  0  # atno 8009 bound_to 7997
  154.5661  140.0678  156.8877 H   0  0  0  0  0  0  0  0  0  0  0  0  # atno 8010 bound_to 7997
  139.6539  144.0034  152.2180 H   0  0  0  0  0  0  0  0  0  0  0  0  # atno 10167 bound_to 10162
  157.6452  130.9529  150.0791 H   0  0  0  0  0  0  0  0  0  0  0  0  # atno 10718 bound_to 10713
  154.8178  135.3310  154.7125 H   0  0  0  0  0  0  0  0  0  0  0  0  # atno 10763 bound_to 10752
  153.7763  135.6922  153.4901 H   0  0  0  0  0  0  0  0  0  0  0  0  # atno 10764 bound_to 10752
  153.2010  135.4516  155.0215 H   0  0  0  0  0  0  0  0  0  0  0  0  # atno 10765 bound_to 10752
  141.0272  133.6836  156.2508 H   0  0  0  0  0  0  0  0  0  0  0  0  # atno 11005 bound_to 11000
  146.0655  139.3646  143.0555 LP  0  0  0  0  0  0  0  0  0  0  0  0  # atno 17320 bound_to 7965
  145.8036  140.9759  143.0985 LP  0  0  0  0  0  0  0  0  0  0  0  0  # atno 17321 bound_to 7965
  139.9755  144.6464  150.7949 LP  0  0  0  0  0  0  0  0  0  0  0  0  # atno 17342 bound_to 10162
  140.7550  143.3038  151.3013 LP  0  0  0  0  0  0  0  0  0  0  0  0  # atno 17343 bound_to 10162
  156.1773  130.3648  149.9084 LP  0  0  0  0  0  0  0  0  0  0  0  0  # atno 17370 bound_to 10713
  156.7045  130.8946  151.3603 LP  0  0  0  0  0  0  0  0  0  0  0  0  # atno 17371 bound_to 10713
  140.6471  134.5106  157.5574 LP  0  0  0  0  0  0  0  0  0  0  0  0  # atno 17394 bound_to 11000
  139.9183  134.8200  156.1292 LP  0  0  0  0  0  0  0  0  0  0  0  0  # atno 17395 bound_to 11000

$$$$
