AV-unprocessed.smi:2923|AV-procd|sdf|11207|dock1
  -GOLD-   2272016103D 1   1.00000     0.00000
 Structure written by MMmdl.
 47 49  0  0  0  0  0  0  0  0  2 V2000
  151.9955  144.3676  157.8109 C   0  0  0  0  0  0  0  0  0  0  0  0
  151.9149  144.4378  159.2656 N   0  0  0  0  0  0  0  0  0  0  0  0
  151.2224  145.5457  159.9105 C   0  0  0  0  0  0  0  0  0  0  0  0
  152.5987  143.4854  160.0520 C   0  0  0  0  0  0  0  0  0  0  0  0
  153.4210  142.4721  159.5023 C   0  0  0  0  0  0  0  0  0  0  0  0
  154.0696  141.5560  160.3552 C   0  0  0  0  0  0  0  0  0  0  0  0
  153.8993  141.6504  161.7523 C   0  0  0  0  0  0  0  0  0  0  0  0
  154.5752  140.6932  162.5589 N   0  0  0  0  0  0  0  0  0  0  0  0
  154.9387  139.4328  162.2637 C   0  0  0  0  0  0  0  0  0  0  0  0
  154.7256  138.8555  161.1984 O   0  0  0  0  0  0  0  0  0  0  0  0
  155.5716  138.8600  163.2961 N   0  0  0  0  0  0  0  0  0  0  0  0
  156.0913  137.4963  163.2895 C   0  0  1  0  0  0  0  0  0  0  0  0
  156.6925  137.0902  164.6438 C   0  0  2  0  0  0  0  0  0  0  0  0
  158.1653  136.8022  164.7539 C   0  0  0  0  0  0  0  0  0  0  0  0
  158.2276  135.2796  164.6050 C   0  0  0  0  0  0  0  0  0  0  0  0
  157.0195  134.9344  163.9311 O   0  0  0  0  0  0  0  0  0  0  0  0
  155.9831  135.7569  164.4615 C   0  0  2  0  0  0  0  0  0  0  0  0
  155.0135  136.3927  163.4427 C   0  0  0  0  0  0  0  0  0  0  0  0
  153.6577  136.8014  164.0362 C   0  0  0  0  0  0  0  0  0  0  0  0
  154.7154  135.5634  162.1927 C   0  0  0  0  0  0  0  0  0  0  0  0
  153.0684  142.6817  162.2532 C   0  0  0  0  0  0  0  0  0  0  0  0
  152.4663  143.5378  161.3997 N   0  3  0  0  0  0  0  0  0  0  0  0
  151.6103  143.4133  157.4503 H   0  0  0  0  0  0  0  0  0  0  0  0
  153.0290  144.4727  157.4794 H   0  0  0  0  0  0  0  0  0  0  0  0
  151.4118  145.1600  157.3422 H   0  0  0  0  0  0  0  0  0  0  0  0
  151.9174  146.1371  160.5074 H   0  0  0  0  0  0  0  0  0  0  0  0
  150.4300  145.1756  160.5615 H   0  0  0  0  0  0  0  0  0  0  0  0
  150.7656  146.2094  159.1764 H   0  0  0  0  0  0  0  0  0  0  0  0
  153.5670  142.3802  158.4364 H   0  0  0  0  0  0  0  0  0  0  0  0
  154.6954  140.7835  159.9323 H   0  0  0  0  0  0  0  0  0  0  0  0
  154.8172  141.0099  163.4863 H   0  0  0  0  0  0  0  0  0  0  0  0
  155.7061  139.3978  164.1396 H   0  0  0  0  0  0  0  0  0  0  0  0
  156.7792  137.2911  162.4660 H   0  0  0  0  0  0  0  0  0  0  0  0
  156.2739  137.6553  165.4786 H   0  0  0  0  0  0  0  0  0  0  0  0
  158.7190  137.2932  163.9530 H   0  0  0  0  0  0  0  0  0  0  0  0
  158.5877  137.1306  165.7038 H   0  0  0  0  0  0  0  0  0  0  0  0
  159.1057  134.9457  164.0520 H   0  0  0  0  0  0  0  0  0  0  0  0
  158.2369  134.7988  165.5843 H   0  0  0  0  0  0  0  0  0  0  0  0
  155.5347  135.3619  165.3744 H   0  0  0  0  0  0  0  0  0  0  0  0
  153.0635  135.9279  164.3063 H   0  0  0  0  0  0  0  0  0  0  0  0
  153.0694  137.3904  163.3319 H   0  0  0  0  0  0  0  0  0  0  0  0
  153.7752  137.3985  164.9410 H   0  0  0  0  0  0  0  0  0  0  0  0
  154.1663  134.6539  162.4378 H   0  0  0  0  0  0  0  0  0  0  0  0
  155.6304  135.2603  161.6832 H   0  0  0  0  0  0  0  0  0  0  0  0
  154.1208  136.1256  161.4719 H   0  0  0  0  0  0  0  0  0  0  0  0
  152.8511  142.8657  163.2936 H   0  0  0  0  0  0  0  0  0  0  0  0
  151.8742  144.2678  161.7959 H   0  0  0  0  0  0  0  0  0  0  0  0
  1  2  1  0  0  0  0
  1 23  1  0  0  0  0
  1 24  1  0  0  0  0
  1 25  1  0  0  0  0
  2  3  1  0  0  0  0
  2  4  1  0  0  0  0
  3 26  1  0  0  0  0
  3 27  1  0  0  0  0
  3 28  1  0  0  0  0
  4 22  1  0  0  0  0
  4  5  2  0  0  0  0
  5  6  1  0  0  0  0
  5 29  1  0  0  0  0
  6  7  2  0  0  0  0
  6 30  1  0  0  0  0
  7  8  1  0  0  0  0
  7 21  1  0  0  0  0
  8  9  1  0  0  0  0
  8 31  1  0  0  0  0
  9 10  2  0  0  0  0
  9 11  1  0  0  0  0
 11 12  1  0  0  0  0
 11 32  1  0  0  0  0
 12 18  1  0  0  0  0
 12 13  1  0  0  0  0
 12 33  1  0  0  0  0
 13 17  1  0  0  0  0
 13 14  1  0  0  0  0
 13 34  1  0  0  0  0
 14 15  1  0  0  0  0
 14 35  1  0  0  0  0
 14 36  1  0  0  0  0
 15 16  1  0  0  0  0
 15 37  1  0  0  0  0
 15 38  1  0  0  0  0
 16 17  1  0  0  0  0
 17 18  1  0  0  0  0
 17 39  1  0  0  0  0
 18 19  1  0  0  0  0
 18 20  1  0  0  0  0
 19 40  1  0  0  0  0
 19 41  1  0  0  0  0
 19 42  1  0  0  0  0
 20 43  1  0  0  0  0
 20 44  1  0  0  0  0
 20 45  1  0  0  0  0
 21 22  2  0  0  0  0
 21 46  1  0  0  0  0
 22 47  1  0  0  0  0
M  CHG  1  22   1
M  END
> <s_m_source_file>
AV-unprocessed.smi

> <i_m_source_file_index>
2923

> <i_lp_mmshare_version>
43012

> <i_f3d_flags>
0

> <s_epik_input>
W0NIM11OKFtDSDNdKWMxW2NIXVtjSF1jKFtjSF1uMSlbTkhdQyg9TylbTkhdW0NASF0yQyhbQ0gzXSkoW0NIM10pW0NAQEhdKFtDQEhdMjMpT1tDSDJdW0NIMl0z

> <s_epik_cmdline>
J2VwaWtfcHl0aG9uJywgJy1waCcsICc3LjAnLCAnLXRuJywgJzgnLCAnLW1hJywgJzIwMCcsICctbWV0YWxfYmluZGluZycsICctaW1hZScsICc8aW5maWxlLm1hZT4nLCAnLW9tYWUnLCAnPG91dGZpbGUubWFlPic=

> <r_lp_tautomer_probability>
0.999994

> <r_epik_Ionization_Penalty>
0.252205

> <r_epik_Ionization_Penalty_Charging>
0.252185

> <r_epik_Ionization_Penalty_Neutral>
1.99479e-05

> <r_epik_State_Penalty>
0.243573

> <r_epik_Charging_Adjusted_Penalty>
0.495758

> <i_epik_Tot_Q>
1

> <i_epik_Tot_abs_Q>
1

> <r_epik_Metal_State_Penalty>
0.534372

> <b_epik_Metal_Only>
0

> <s_lp_Force_Field>
OPLS_2005

> <r_lp_Energy>
44.3361

> <b_lp_Chiralities_Consistent>
1

> <s_lp_Variant>
AV-unprocessed.smi:2923-6

> <Gold.Version>
5.8.1

> <Gold.Id.Protein>
6NUR|6NUR_protein|mol2

> <Gold.PLP.Fitness>
44.8108

> <Gold.PLP.PLP>
-45.2117

> <Gold.PLP.part.hbond>
-0.4021

> <Gold.PLP.part.metal>
0.0000

> <Gold.PLP.part.buried>
-4.5506

> <Gold.PLP.part.nonpolar>
-39.2190

> <Gold.PLP.part.repulsive>
0.0751

> <Gold.PLP.ligand.clash>
0.0000

> <Gold.PLP.ligand.torsion>
0.2925

> <Gold.PLP.Chemscore.Hbond>
0.0000

> <Gold.PLP.Chemscore.CHOScore>
0.0000

> <Gold.PLP.Chemscore.Metal>
0.0000

> <Gold.PLP.Chemscore.Internal.Correction>
0.1841

> <Gold.Rescore>
     Score         DG    S(hbond)    S(metal)    S(lipo)     H(rot)  DE(clash)    DE(int)     intcor
     14.84     -16.44       0.00        0.00     115.56       1.00       0.09       1.52       ----

> <Gold.Chemscore.Fitness>
14.8397

> <Gold.Chemscore.DG>
-16.4404

> <Gold.Chemscore.ZeroCoef>
-5.4800

> <Gold.Chemscore.Hbond>
0.0000

> <Gold.Chemscore.Metal>
0.0000

> <Gold.Chemscore.Lipo>
115.5587

> <Gold.Chemscore.Internal_Hbond>
0.0000

> <Gold.Chemscore.DEClash>
0.0853

> <Gold.Chemscore.DEInternal>
1.5154

> <Gold.Chemscore.Rot>
1.0000

> <Gold.Chemscore.Internal.Correction>
   9.000000E+99

> <Gold.Chemscore.Hbond.Weighted>
-0.0000

> <Gold.Chemscore.Metal.Weighted>
-0.0000

> <Gold.Chemscore.Lipo.Weighted>
-13.5204

> <Gold.Chemscore.Internal_Hbond.Weighted>
0.0000

> <Gold.Chemscore.DEClash.Weighted>
0.0853

> <Gold.Chemscore.DEInternal.Weighted>
1.5154

> <Gold.Chemscore.Rot.Weighted>
2.5600

> <Gold.Chemscore.Internal.Correction.Weighted>
   9.000000E+99

> <Gold.Protein.RotatedTorsions>
[ 6907 6896 6895 6894 ] final  123.86 input  -60.11 | X-H torsion
[ 7974 7965 7964 7962 ] final   24.70 input  175.53 | X-H torsion
[ 8008 7997 7996 7995 ] final -108.15 input   59.86 | X-H torsion
[ 10167 10162 10161 10158 ] final -158.64 input  -65.29 | X-H torsion
[ 10718 10713 10712 10709 ] final -160.94 input   66.30 | X-H torsion
[ 10763 10752 10751 10750 ] final   36.44 input  -60.55 | X-H torsion
[ 11005 11000 10999 10996 ] final   15.43 input  -57.11 | X-H torsion

> <Gold.Protein.ActiveResidues>
 VAL166  LYS551  ARG553  GLY616  TRP617  ASP618  TYR619  PRO620  LYS621  CYS622 
 ASP623  PHE694  ASN695  SER759  ASP760  ASP761  ALA762  ILE779  LEU786  VAL792 
 PHE793  MET794  SER795  GLU796  ALA797  LYS798  CYS799  TRP800  GLU811  SER814 

> <Gold.Protein.RotatedAtoms>
  152.4126  133.6988  159.6411 H   0  0  0  0  0  0  0  0  0  0  0  0  # atno 6907 bound_to 6896
  150.8005  133.8596  159.3237 H   0  0  0  0  0  0  0  0  0  0  0  0  # atno 6908 bound_to 6896
  151.6335  135.1022  160.0178 H   0  0  0  0  0  0  0  0  0  0  0  0  # atno 6909 bound_to 6896
  146.1925  139.7568  142.8821 H   0  0  0  0  0  0  0  0  0  0  0  0  # atno 7974 bound_to 7965
  154.9400  140.0403  157.2092 H   0  0  0  0  0  0  0  0  0  0  0  0  # atno 8008 bound_to 7997
  154.8078  140.2863  155.5853 H   0  0  0  0  0  0  0  0  0  0  0  0  # atno 8009 bound_to 7997
  156.2968  140.2543  156.2960 H   0  0  0  0  0  0  0  0  0  0  0  0  # atno 8010 bound_to 7997
  139.6676  143.9801  152.2264 H   0  0  0  0  0  0  0  0  0  0  0  0  # atno 10167 bound_to 10162
  156.5892  130.8763  151.2885 H   0  0  0  0  0  0  0  0  0  0  0  0  # atno 10718 bound_to 10713
  153.0077  135.6305  154.1986 H   0  0  0  0  0  0  0  0  0  0  0  0  # atno 10763 bound_to 10752
  154.1729  135.2817  155.3077 H   0  0  0  0  0  0  0  0  0  0  0  0  # atno 10764 bound_to 10752
  154.5894  135.5622  153.7323 H   0  0  0  0  0  0  0  0  0  0  0  0  # atno 10765 bound_to 10752
  140.4584  134.1152  155.7712 H   0  0  0  0  0  0  0  0  0  0  0  0  # atno 11005 bound_to 11000
  145.3749  141.0349  143.3210 LP  0  0  0  0  0  0  0  0  0  0  0  0  # atno 17320 bound_to 7965
  144.8514  139.5316  143.6855 LP  0  0  0  0  0  0  0  0  0  0  0  0  # atno 17321 bound_to 7965
  139.9557  144.6591  150.8128 LP  0  0  0  0  0  0  0  0  0  0  0  0  # atno 17342 bound_to 10162
  140.7605  143.3154  151.2746 LP  0  0  0  0  0  0  0  0  0  0  0  0  # atno 17343 bound_to 10162
  157.7308  130.9690  150.1848 LP  0  0  0  0  0  0  0  0  0  0  0  0  # atno 17370 bound_to 10713
  156.2564  130.3706  149.8177 LP  0  0  0  0  0  0  0  0  0  0  0  0  # atno 17371 bound_to 10713
  141.1632  133.8752  157.1788 LP  0  0  0  0  0  0  0  0  0  0  0  0  # atno 17394 bound_to 11000
  139.9961  135.0046  157.0086 LP  0  0  0  0  0  0  0  0  0  0  0  0  # atno 17395 bound_to 11000

$$$$
