AV-unprocessed.smi:243|AV-procd|sdf|1853|dock6
  -GOLD-   2262020483D 1   1.00000     0.00000
 Structure written by MMmdl.
 58 61  0  0  0  0  0  0  0  0  2 V2000
  147.8382  127.3448  151.2049 C   0  0  0  0  0  0  0  0  0  0  0  0
  146.7784  128.3482  151.6822 C   0  0  0  0  0  0  0  0  0  0  0  0
  147.3668  129.6513  152.0842 N   0  3  1  0  0  0  0  0  0  0  0  0
  146.3506  130.7194  152.2704 C   0  0  0  0  0  0  0  0  0  0  0  0
  147.0015  132.0826  152.5781 C   0  0  0  0  0  0  0  0  0  0  0  0
  148.0570  132.0503  153.7041 C   0  0  1  0  0  0  0  0  0  0  0  0
  147.4898  132.2186  155.0551 N   0  0  0  0  0  0  0  0  0  0  0  0
  146.3521  131.4598  155.5667 C   0  0  0  0  0  0  0  0  0  0  0  0
  148.2105  132.9305  155.9593 C   0  0  0  0  0  0  0  0  0  0  0  0
  147.9530  132.7416  157.2799 N   0  0  0  0  0  0  0  0  0  0  0  0
  148.6395  133.4176  158.2054 C   0  0  0  0  0  0  0  0  0  0  0  0
  149.6082  134.3182  158.0327 N   0  0  0  0  0  0  0  0  0  0  0  0
  149.8690  134.5181  156.7091 C   0  0  0  0  0  0  0  0  0  0  0  0
  149.2274  133.8686  155.6160 C   0  0  0  0  0  0  0  0  0  0  0  0
  149.7569  134.3339  154.4175 N   0  0  0  0  0  0  0  0  0  0  0  0
  150.6624  135.2000  154.7811 C   0  0  0  0  0  0  0  0  0  0  0  0
  150.7882  135.3823  156.1397 N   0  0  0  0  0  0  0  0  0  0  0  0
  151.7074  136.2855  156.8159 C   0  0  0  0  0  0  0  0  0  0  0  0
  151.3448  137.7799  156.6446 C   0  0  2  0  0  0  0  0  0  0  0  0
  149.9568  137.9471  156.8784 O   0  0  0  0  0  0  0  0  0  0  0  0
  151.6611  138.3106  155.2517 C   0  0  0  0  0  0  0  0  0  0  0  0
  151.9402  139.7853  155.5085 C   0  0  0  0  0  0  0  0  0  0  0  0
  152.6613  139.7618  156.7284 O   0  0  0  0  0  0  0  0  0  0  0  0
  152.1162  138.7473  157.5674 C   0  0  0  0  0  0  0  0  0  0  0  0
  149.0087  130.8391  153.5403 C   0  0  1  0  0  0  0  0  0  0  0  0
  150.0383  130.7046  154.6756 C   0  0  0  0  0  0  0  0  0  0  0  0
  148.2513  129.5244  153.2704 C   0  0  0  0  0  0  0  0  0  0  0  0
  147.3836  126.3739  151.0071 H   0  0  0  0  0  0  0  0  0  0  0  0
  148.6106  127.1979  151.9604 H   0  0  0  0  0  0  0  0  0  0  0  0
  148.3232  127.6659  150.2837 H   0  0  0  0  0  0  0  0  0  0  0  0
  146.0182  128.5006  150.9147 H   0  0  0  0  0  0  0  0  0  0  0  0
  146.2672  127.9045  152.5374 H   0  0  0  0  0  0  0  0  0  0  0  0
  145.7550  130.8262  151.3645 H   0  0  0  0  0  0  0  0  0  0  0  0
  145.6510  130.4262  153.0500 H   0  0  0  0  0  0  0  0  0  0  0  0
  147.4959  132.4232  151.6675 H   0  0  0  0  0  0  0  0  0  0  0  0
  146.2371  132.8305  152.7933 H   0  0  0  0  0  0  0  0  0  0  0  0
  148.6901  132.9190  153.5201 H   0  0  0  0  0  0  0  0  0  0  0  0
  145.9693  131.9026  156.4873 H   0  0  0  0  0  0  0  0  0  0  0  0
  146.6354  130.4309  155.7851 H   0  0  0  0  0  0  0  0  0  0  0  0
  145.5244  131.4517  154.8643 H   0  0  0  0  0  0  0  0  0  0  0  0
  148.3739  133.2079  159.2312 H   0  0  0  0  0  0  0  0  0  0  0  0
  151.2626  135.7398  154.0630 H   0  0  0  0  0  0  0  0  0  0  0  0
  151.7263  136.0239  157.8746 H   0  0  0  0  0  0  0  0  0  0  0  0
  152.7129  136.0950  156.4380 H   0  0  0  0  0  0  0  0  0  0  0  0
  149.8357  138.2254  157.7735 H   0  0  0  0  0  0  0  0  0  0  0  0
  152.5667  137.8415  154.8643 H   0  0  0  0  0  0  0  0  0  0  0  0
  150.8647  138.1435  154.5253 H   0  0  0  0  0  0  0  0  0  0  0  0
  152.5155  140.2530  154.7094 H   0  0  0  0  0  0  0  0  0  0  0  0
  151.0123  140.3439  155.6404 H   0  0  0  0  0  0  0  0  0  0  0  0
  151.4737  139.1939  158.3280 H   0  0  0  0  0  0  0  0  0  0  0  0
  152.9417  138.2601  158.0852 H   0  0  0  0  0  0  0  0  0  0  0  0
  149.5894  131.0368  152.6376 H   0  0  0  0  0  0  0  0  0  0  0  0
  149.5680  130.4246  155.6178 H   0  0  0  0  0  0  0  0  0  0  0  0
  150.5718  131.6423  154.8350 H   0  0  0  0  0  0  0  0  0  0  0  0
  150.7800  129.9402  154.4421 H   0  0  0  0  0  0  0  0  0  0  0  0
  147.6670  129.2134  154.1358 H   0  0  0  0  0  0  0  0  0  0  0  0
  148.9801  128.7332  153.0896 H   0  0  0  0  0  0  0  0  0  0  0  0
  147.9632  129.9413  151.3223 H   0  0  0  0  0  0  0  0  0  0  0  0
  1  2  1  0  0  0  0
  1 28  1  0  0  0  0
  1 29  1  0  0  0  0
  1 30  1  0  0  0  0
  2  3  1  0  0  0  0
  2 31  1  0  0  0  0
  2 32  1  0  0  0  0
  3 27  1  0  0  0  0
  3  4  1  0  0  0  0
  3 58  1  0  0  0  0
  4  5  1  0  0  0  0
  4 33  1  0  0  0  0
  4 34  1  0  0  0  0
  5  6  1  0  0  0  0
  5 35  1  0  0  0  0
  5 36  1  0  0  0  0
  6  7  1  0  0  0  0
  6 25  1  0  0  0  0
  6 37  1  0  0  0  0
  7  8  1  0  0  0  0
  7  9  1  0  0  0  0
  8 38  1  0  0  0  0
  8 39  1  0  0  0  0
  8 40  1  0  0  0  0
  9 14  1  0  0  0  0
  9 10  2  0  0  0  0
 10 11  1  0  0  0  0
 11 12  2  0  0  0  0
 11 41  1  0  0  0  0
 12 13  1  0  0  0  0
 13 17  1  0  0  0  0
 13 14  2  0  0  0  0
 14 15  1  0  0  0  0
 15 16  2  0  0  0  0
 16 17  1  0  0  0  0
 16 42  1  0  0  0  0
 17 18  1  0  0  0  0
 18 19  1  0  0  0  0
 18 43  1  0  0  0  0
 18 44  1  0  0  0  0
 19 24  1  0  0  0  0
 19 20  1  0  0  0  0
 19 21  1  0  0  0  0
 20 45  1  0  0  0  0
 21 22  1  0  0  0  0
 21 46  1  0  0  0  0
 21 47  1  0  0  0  0
 22 23  1  0  0  0  0
 22 48  1  0  0  0  0
 22 49  1  0  0  0  0
 23 24  1  0  0  0  0
 24 50  1  0  0  0  0
 24 51  1  0  0  0  0
 25 26  1  0  0  0  0
 25 27  1  0  0  0  0
 25 52  1  0  0  0  0
 26 53  1  0  0  0  0
 26 54  1  0  0  0  0
 26 55  1  0  0  0  0
 27 56  1  0  0  0  0
 27 57  1  0  0  0  0
M  CHG  1   3   1
M  END
> <s_m_source_file>
AV-unprocessed.smi

> <i_m_source_file_index>
243

> <i_lp_mmshare_version>
43012

> <i_f3d_flags>
0

> <s_epik_input>
W0NIM11bQ0gyXU4xW0NIMl1bQ0gyXVtDQEhdKFtDQEBIXShbQ0gzXSlbQ0gyXTEpTihbQ0gzXSljKG5bY0hdbjIpYyhjMjMpbltjSF1uM1tDSDJdW0NAQF00KFtPSF0pW0NIMl1bQ0gyXU9bQ0gyXTQ=

> <s_epik_cmdline>
J2VwaWtfcHl0aG9uJywgJy1waCcsICc3LjAnLCAnLXRuJywgJzgnLCAnLW1hJywgJzIwMCcsICctbWV0YWxfYmluZGluZycsICctaW1hZScsICc8aW5maWxlLm1hZT4nLCAnLW9tYWUnLCAnPG91dGZpbGUubWFlPic=

> <r_lp_tautomer_probability>
1

> <r_epik_Ionization_Penalty>
0.00253099

> <r_epik_Ionization_Penalty_Charging>
0.00137877

> <r_epik_Ionization_Penalty_Neutral>
0.00115221

> <r_epik_State_Penalty>
-0

> <r_epik_Charging_Adjusted_Penalty>
0.00137877

> <i_epik_Tot_Q>
1

> <i_epik_Tot_abs_Q>
1

> <r_epik_Metal_State_Penalty>
-0

> <b_epik_Metal_Only>
0

> <s_lp_Force_Field>
OPLS_2005

> <r_lp_Energy>
51.4738

> <b_lp_Chiralities_Consistent>
1

> <s_lp_Variant>
AV-unprocessed.smi:243-6

> <Gold.Version>
5.8.1

> <Gold.Id.Protein>
6NUR|6NUR_protein|mol2

> <Gold.PLP.Fitness>
48.0215

> <Gold.PLP.PLP>
-37.5606

> <Gold.PLP.part.hbond>
-3.0000

> <Gold.PLP.part.metal>
0.0000

> <Gold.PLP.part.buried>
-3.3148

> <Gold.PLP.part.nonpolar>
-30.4849

> <Gold.PLP.part.repulsive>
0.2002

> <Gold.PLP.ligand.clash>
0.0000

> <Gold.PLP.ligand.torsion>
0.9302

> <Gold.PLP.Chemscore.Hbond>
3.0000

> <Gold.PLP.Chemscore.CHOScore>
1.0000

> <Gold.PLP.Chemscore.Metal>
0.0000

> <Gold.Chemscore.Hbonds>
donor molecule, donor type, donor heavy atom, donor atom, acceptor molecule, acceptor atom, score
      L1  H     3    58       P1 10747  1.00
      P1  H  6896  6909       L1    12  1.00
      P1  H  7997  8009       L1    23  1.00
      L1  C    16    42       P1  7949  0.89

> <Gold.PLP.Chemscore.Internal.Correction>
0.3212

> <Gold.Rescore>
     Score         DG    S(hbond)    S(metal)    S(lipo)     H(rot)  DE(clash)    DE(int)     intcor
     17.79     -19.63       2.87        0.00      88.07       2.24       0.01       1.83       ----

> <Gold.Chemscore.Fitness>
17.7895

> <Gold.Chemscore.DG>
-19.6322

> <Gold.Chemscore.ZeroCoef>
-5.4800

> <Gold.Chemscore.Hbond>
2.8674

> <Gold.Chemscore.Metal>
0.0000

> <Gold.Chemscore.Lipo>
88.0710

> <Gold.Chemscore.Internal_Hbond>
0.0000

> <Gold.Chemscore.DEClash>
0.0106

> <Gold.Chemscore.DEInternal>
1.8321

> <Gold.Chemscore.Rot>
2.2379

> <Gold.Chemscore.Internal.Correction>
   9.000000E+99

> <Gold.Chemscore.Hbonds>
donor molecule, donor type, donor heavy atom, donor atom, acceptor molecule, acceptor atom, score
      L1  H     3    58       P1 10747  0.97
      P1  H  6896  6909       L1    12  0.60
      P1  H  7997  8009       L1    23  0.78

> <Gold.Chemscore.Hbond.Weighted>
-9.5770

> <Gold.Chemscore.Metal.Weighted>
-0.0000

> <Gold.Chemscore.Lipo.Weighted>
-10.3043

> <Gold.Chemscore.Internal_Hbond.Weighted>
0.0000

> <Gold.Chemscore.DEClash.Weighted>
0.0106

> <Gold.Chemscore.DEInternal.Weighted>
1.8321

> <Gold.Chemscore.Rot.Weighted>
5.7291

> <Gold.Chemscore.Internal.Correction.Weighted>
   9.000000E+99

> <Gold.Protein.RotatedTorsions>
[ 6907 6896 6895 6894 ] final   25.93 input  -60.11 | X-H torsion
[ 7974 7965 7964 7962 ] final  -62.62 input  175.53 | X-H torsion
[ 8008 7997 7996 7995 ] final -170.31 input   59.86 | X-H torsion
[ 10167 10162 10161 10158 ] final   85.39 input  -65.29 | X-H torsion
[ 10718 10713 10712 10709 ] final   54.05 input   66.30 | X-H torsion
[ 10763 10752 10751 10750 ] final  -36.96 input  -60.55 | X-H torsion
[ 11005 11000 10999 10996 ] final -100.90 input  -57.11 | X-H torsion

> <Gold.Protein.ActiveResidues>
 VAL166  LYS551  ARG553  GLY616  TRP617  ASP618  TYR619  PRO620  LYS621  CYS622 
 ASP623  PHE694  ASN695  SER759  ASP760  ASP761  ALA762  ILE779  LEU786  VAL792 
 PHE793  MET794  SER795  GLU796  ALA797  LYS798  CYS799  TRP800  GLU811  SER814 

> <Gold.Protein.RotatedAtoms>
  151.9799  135.0034  160.0556 H   0  0  0  0  0  0  0  0  0  0  0  0  # atno 6907 bound_to 6896
  152.1706  133.4636  159.4915 H   0  0  0  0  0  0  0  0  0  0  0  0  # atno 6908 bound_to 6896
  150.6901  134.1876  159.4315 H   0  0  0  0  0  0  0  0  0  0  0  0  # atno 6909 bound_to 6896
  145.7890  140.8720  143.0290 H   0  0  0  0  0  0  0  0  0  0  0  0  # atno 7974 bound_to 7965
  155.9167  140.1067  157.1238 H   0  0  0  0  0  0  0  0  0  0  0  0  # atno 8008 bound_to 7997
  154.4047  140.1264  156.4691 H   0  0  0  0  0  0  0  0  0  0  0  0  # atno 8009 bound_to 7997
  155.7246  140.3469  155.5033 H   0  0  0  0  0  0  0  0  0  0  0  0  # atno 8010 bound_to 7997
  139.8982  144.6345  150.8665 H   0  0  0  0  0  0  0  0  0  0  0  0  # atno 10167 bound_to 10162
  157.5222  130.8573  149.8574 H   0  0  0  0  0  0  0  0  0  0  0  0  # atno 10718 bound_to 10713
  153.8883  135.6814  153.4762 H   0  0  0  0  0  0  0  0  0  0  0  0  # atno 10763 bound_to 10752
  153.1195  135.4746  154.9169 H   0  0  0  0  0  0  0  0  0  0  0  0  # atno 10764 bound_to 10752
  154.7635  135.3217  154.8285 H   0  0  0  0  0  0  0  0  0  0  0  0  # atno 10765 bound_to 10752
  141.1252  133.8435  157.1162 H   0  0  0  0  0  0  0  0  0  0  0  0  # atno 11005 bound_to 11000
  144.6784  140.0097  143.7484 LP  0  0  0  0  0  0  0  0  0  0  0  0  # atno 17320 bound_to 7965
  145.9996  139.3080  143.0935 LP  0  0  0  0  0  0  0  0  0  0  0  0  # atno 17321 bound_to 7965
  140.7712  143.3457  151.2116 LP  0  0  0  0  0  0  0  0  0  0  0  0  # atno 17342 bound_to 10162
  139.7048  143.9472  152.2922 LP  0  0  0  0  0  0  0  0  0  0  0  0  # atno 17343 bound_to 10162
  156.0361  130.3751  150.1556 LP  0  0  0  0  0  0  0  0  0  0  0  0  # atno 17370 bound_to 10713
  156.9743  130.9844  151.3452 LP  0  0  0  0  0  0  0  0  0  0  0  0  # atno 17371 bound_to 10713
  140.0245  134.9930  157.0658 LP  0  0  0  0  0  0  0  0  0  0  0  0  # atno 17394 bound_to 11000
  140.4385  134.1705  155.7172 LP  0  0  0  0  0  0  0  0  0  0  0  0  # atno 17395 bound_to 11000

$$$$
