AV-unprocessed.smi:1084|AV-procd|sdf|4719|dock1
  -GOLD-   22720 3243D 1   1.00000     0.00000
 Structure written by MMmdl.
 53 55  0  0  0  0  0  0  0  0  2 V2000
  143.9362  136.3789  152.7768 C   0  0  0  0  0  0  0  0  0  0  0  0
  145.1365  136.3792  151.7980 C   0  0  1  0  0  0  0  0  0  0  0  0
  145.7476  137.8043  151.6713 C   0  0  0  0  0  0  0  0  0  0  0  0
  147.0860  137.9234  152.2467 N   0  0  0  0  0  0  0  0  0  0  0  0
  147.4416  138.7872  153.2092 C   0  0  0  0  0  0  0  0  0  0  0  0
  146.6697  139.6150  153.6914 O   0  0  0  0  0  0  0  0  0  0  0  0
  148.7342  138.6335  153.5451 N   0  0  0  0  0  0  0  0  0  0  0  0
  149.5064  139.3564  154.4961 C   0  0  0  0  0  0  0  0  0  0  0  0
  150.8988  139.2018  154.6923 C   0  0  0  0  0  0  0  0  0  0  0  0
  151.5419  139.9874  155.6675 C   0  0  0  0  0  0  0  0  0  0  0  0
  150.7857  140.9145  156.4216 C   0  0  0  0  0  0  0  0  0  0  0  0
  151.4138  141.7061  157.4071 N   0  0  0  0  0  0  0  0  0  0  0  0
  151.2722  141.2301  158.7808 C   0  0  0  0  0  0  0  0  0  0  0  0
  152.2382  141.9834  159.7117 C   0  0  0  0  0  0  0  0  0  0  0  0
  152.0342  143.3870  159.5868 O   0  0  0  0  0  0  0  0  0  0  0  0
  152.2882  143.8434  158.2626 C   0  0  0  0  0  0  0  0  0  0  0  0
  151.3177  143.1594  157.2848 C   0  0  0  0  0  0  0  0  0  0  0  0
  149.4552  141.0740  156.2180 N   0  0  0  0  0  0  0  0  0  0  0  0
  148.8421  140.3171  155.2844 C   0  0  0  0  0  0  0  0  0  0  0  0
  146.1624  135.3545  152.1926 N   0  3  0  0  0  0  0  0  0  0  0  0
  146.3647  135.2532  153.6660 C   0  0  0  0  0  0  0  0  0  0  0  0
  147.4380  134.2108  154.0202 C   0  0  0  0  0  0  0  0  0  0  0  0
  147.0753  132.9498  153.4823 O   0  0  0  0  0  0  0  0  0  0  0  0
  147.0090  132.9990  152.0666 C   0  0  0  0  0  0  0  0  0  0  0  0
  145.9219  133.9953  151.6291 C   0  0  0  0  0  0  0  0  0  0  0  0
  143.1887  137.1237  152.5075 H   0  0  0  0  0  0  0  0  0  0  0  0
  144.2581  136.5893  153.7972 H   0  0  0  0  0  0  0  0  0  0  0  0
  143.3938  135.4355  152.7796 H   0  0  0  0  0  0  0  0  0  0  0  0
  144.7590  136.0995  150.8129 H   0  0  0  0  0  0  0  0  0  0  0  0
  145.7397  138.1289  150.6294 H   0  0  0  0  0  0  0  0  0  0  0  0
  145.1506  138.5284  152.2238 H   0  0  0  0  0  0  0  0  0  0  0  0
  147.7873  137.2837  151.9025 H   0  0  0  0  0  0  0  0  0  0  0  0
  149.2455  137.9384  153.0212 H   0  0  0  0  0  0  0  0  0  0  0  0
  151.4932  138.5126  154.1146 H   0  0  0  0  0  0  0  0  0  0  0  0
  152.6066  139.8823  155.8125 H   0  0  0  0  0  0  0  0  0  0  0  0
  150.2428  141.3906  159.1035 H   0  0  0  0  0  0  0  0  0  0  0  0
  151.4656  140.1612  158.8600 H   0  0  0  0  0  0  0  0  0  0  0  0
  152.0650  141.6906  160.7472 H   0  0  0  0  0  0  0  0  0  0  0  0
  153.2748  141.7334  159.4797 H   0  0  0  0  0  0  0  0  0  0  0  0
  152.1563  144.9248  158.2275 H   0  0  0  0  0  0  0  0  0  0  0  0
  153.3246  143.6397  157.9883 H   0  0  0  0  0  0  0  0  0  0  0  0
  151.5526  143.4693  156.2657 H   0  0  0  0  0  0  0  0  0  0  0  0
  150.2943  143.4732  157.4948 H   0  0  0  0  0  0  0  0  0  0  0  0
  147.7812  140.4841  155.1664 H   0  0  0  0  0  0  0  0  0  0  0  0
  146.6914  136.2014  154.0872 H   0  0  0  0  0  0  0  0  0  0  0  0
  145.4208  134.9933  154.1476 H   0  0  0  0  0  0  0  0  0  0  0  0
  148.4173  134.5152  153.6466 H   0  0  0  0  0  0  0  0  0  0  0  0
  147.5273  134.1187  155.1027 H   0  0  0  0  0  0  0  0  0  0  0  0
  147.9802  133.2738  151.6515 H   0  0  0  0  0  0  0  0  0  0  0  0
  146.7755  132.0025  151.6914 H   0  0  0  0  0  0  0  0  0  0  0  0
  144.9396  133.6379  151.9420 H   0  0  0  0  0  0  0  0  0  0  0  0
  145.9328  134.0137  150.5406 H   0  0  0  0  0  0  0  0  0  0  0  0
  147.0404  135.6676  151.8030 H   0  0  0  0  0  0  0  0  0  0  0  0
  1  2  1  0  0  0  0
  1 26  1  0  0  0  0
  1 27  1  0  0  0  0
  1 28  1  0  0  0  0
  2  3  1  0  0  0  0
  2 20  1  0  0  0  0
  2 29  1  0  0  0  0
  3  4  1  0  0  0  0
  3 30  1  0  0  0  0
  3 31  1  0  0  0  0
  4  5  1  0  0  0  0
  4 32  1  0  0  0  0
  5  6  2  0  0  0  0
  5  7  1  0  0  0  0
  7  8  1  0  0  0  0
  7 33  1  0  0  0  0
  8 19  1  0  0  0  0
  8  9  2  0  0  0  0
  9 10  1  0  0  0  0
  9 34  1  0  0  0  0
 10 11  2  0  0  0  0
 10 35  1  0  0  0  0
 11 12  1  0  0  0  0
 11 18  1  0  0  0  0
 12 17  1  0  0  0  0
 12 13  1  0  0  0  0
 13 14  1  0  0  0  0
 13 36  1  0  0  0  0
 13 37  1  0  0  0  0
 14 15  1  0  0  0  0
 14 38  1  0  0  0  0
 14 39  1  0  0  0  0
 15 16  1  0  0  0  0
 16 17  1  0  0  0  0
 16 40  1  0  0  0  0
 16 41  1  0  0  0  0
 17 42  1  0  0  0  0
 17 43  1  0  0  0  0
 18 19  2  0  0  0  0
 19 44  1  0  0  0  0
 20 25  1  0  0  0  0
 20 21  1  0  0  0  0
 20 53  1  0  0  0  0
 21 22  1  0  0  0  0
 21 45  1  0  0  0  0
 21 46  1  0  0  0  0
 22 23  1  0  0  0  0
 22 47  1  0  0  0  0
 22 48  1  0  0  0  0
 23 24  1  0  0  0  0
 24 25  1  0  0  0  0
 24 49  1  0  0  0  0
 24 50  1  0  0  0  0
 25 51  1  0  0  0  0
 25 52  1  0  0  0  0
M  CHG  1  20   1
M  END
> <s_m_source_file>
AV-unprocessed.smi

> <i_m_source_file_index>
1084

> <i_lp_mmshare_version>
43012

> <i_f3d_flags>
0

> <s_epik_input>
W0NIMl0xW0NIMl1PW0NIMl1bQ0gyXU4xW0NASF0oW0NIM10pW0NIMl1bTkhdQyg9TylbTkhdYzJbY0hdW2NIXWMobltjSF0yKU4zW0NIMl1bQ0gyXU9bQ0gyXVtDSDJdMw==

> <s_epik_cmdline>
J2VwaWtfcHl0aG9uJywgJy1waCcsICc3LjAnLCAnLXRuJywgJzgnLCAnLW1hJywgJzIwMCcsICctbWV0YWxfYmluZGluZycsICctaW1hZScsICc8aW5maWxlLm1hZT4nLCAnLW9tYWUnLCAnPG91dGZpbGUubWFlPic=

> <r_lp_tautomer_probability>
1

> <r_epik_Ionization_Penalty>
0.604236

> <r_epik_Ionization_Penalty_Charging>
0.602531

> <r_epik_Ionization_Penalty_Neutral>
0.00170595

> <r_epik_State_Penalty>
0.59929

> <r_epik_Charging_Adjusted_Penalty>
1.20182

> <i_epik_Tot_Q>
1

> <i_epik_Tot_abs_Q>
1

> <r_epik_Metal_State_Penalty>
0.598238

> <b_epik_Metal_Only>
0

> <s_lp_Force_Field>
OPLS_2005

> <r_lp_Energy>
38.2929

> <b_lp_Chiralities_Consistent>
1

> <s_lp_Variant>
AV-unprocessed.smi:1084-4

> <Gold.Version>
5.8.1

> <Gold.Id.Protein>
6NUR|6NUR_protein|mol2

> <Gold.PLP.Fitness>
49.5957

> <Gold.PLP.PLP>
-41.0011

> <Gold.PLP.part.hbond>
-3.9194

> <Gold.PLP.part.metal>
0.0000

> <Gold.PLP.part.buried>
0.0959

> <Gold.PLP.part.nonpolar>
-37.6617

> <Gold.PLP.part.repulsive>
0.5344

> <Gold.PLP.ligand.clash>
0.0000

> <Gold.PLP.ligand.torsion>
1.6253

> <Gold.PLP.Chemscore.Hbond>
3.7977

> <Gold.PLP.Chemscore.CHOScore>
0.0000

> <Gold.PLP.Chemscore.Metal>
0.0000

> <Gold.Chemscore.Hbonds>
donor molecule, donor type, donor heavy atom, donor atom, acceptor molecule, acceptor atom, score
      L1  H     4    32       P1  7948  1.00
      L1  H     7    33       P1  7948  0.80
      L1  H    20    53       P1  7948  2.00

> <Gold.PLP.Chemscore.Internal.Correction>
0.4522

> <Gold.Rescore>
     Score         DG    S(hbond)    S(metal)    S(lipo)     H(rot)  DE(clash)    DE(int)     intcor
     17.64     -22.15       2.74        0.00     101.00       1.68       1.46       3.04       ----

> <Gold.Chemscore.Fitness>
17.6440

> <Gold.Chemscore.DG>
-22.1495

> <Gold.Chemscore.ZeroCoef>
-5.4800

> <Gold.Chemscore.Hbond>
2.7403

> <Gold.Chemscore.Metal>
0.0000

> <Gold.Chemscore.Lipo>
101.0041

> <Gold.Chemscore.Internal_Hbond>
0.0000

> <Gold.Chemscore.DEClash>
1.4616

> <Gold.Chemscore.DEInternal>
3.0439

> <Gold.Chemscore.Rot>
1.6800

> <Gold.Chemscore.Internal.Correction>
   9.000000E+99

> <Gold.Chemscore.Hbonds>
donor molecule, donor type, donor heavy atom, donor atom, acceptor molecule, acceptor atom, score
      L1  H     4    32       P1  7948  0.94
      L1  H     7    33       P1  7948  0.75
      L1  H    20    53       P1  7948  0.98

> <Gold.Chemscore.Hbond.Weighted>
-9.1527

> <Gold.Chemscore.Metal.Weighted>
-0.0000

> <Gold.Chemscore.Lipo.Weighted>
-11.8175

> <Gold.Chemscore.Internal_Hbond.Weighted>
0.0000

> <Gold.Chemscore.DEClash.Weighted>
1.4616

> <Gold.Chemscore.DEInternal.Weighted>
3.0439

> <Gold.Chemscore.Rot.Weighted>
4.3007

> <Gold.Chemscore.Internal.Correction.Weighted>
   9.000000E+99

> <Gold.Protein.RotatedTorsions>
[ 6907 6896 6895 6894 ] final  -17.62 input  -60.11 | X-H torsion
[ 7974 7965 7964 7962 ] final -139.80 input  175.53 | X-H torsion
[ 8008 7997 7996 7995 ] final   57.02 input   59.86 | X-H torsion
[ 10167 10162 10161 10158 ] final  -57.13 input  -65.29 | X-H torsion
[ 10718 10713 10712 10709 ] final   89.96 input   66.30 | X-H torsion
[ 10763 10752 10751 10750 ] final   -0.95 input  -60.55 | X-H torsion
[ 11005 11000 10999 10996 ] final   69.09 input  -57.11 | X-H torsion

> <Gold.Protein.ActiveResidues>
 VAL166  LYS551  ARG553  GLY616  TRP617  ASP618  TYR619  PRO620  LYS621  CYS622 
 ASP623  PHE694  ASN695  SER759  ASP760  ASP761  ALA762  ILE779  LEU786  VAL792 
 PHE793  MET794  SER795  GLU796  ALA797  LYS798  CYS799  TRP800  GLU811  SER814 

> <Gold.Protein.RotatedAtoms>
  151.2906  135.0740  159.9202 H   0  0  0  0  0  0  0  0  0  0  0  0  # atno 6907 bound_to 6896
  152.5317  133.9936  159.7872 H   0  0  0  0  0  0  0  0  0  0  0  0  # atno 6908 bound_to 6896
  151.0205  133.5830  159.2702 H   0  0  0  0  0  0  0  0  0  0  0  0  # atno 6909 bound_to 6896
  144.8648  140.6275  143.5305 H   0  0  0  0  0  0  0  0  0  0  0  0  # atno 7974 bound_to 7965
  155.5269  140.3481  155.4418 H   0  0  0  0  0  0  0  0  0  0  0  0  # atno 8008 bound_to 7997
  156.0745  140.1371  156.9814 H   0  0  0  0  0  0  0  0  0  0  0  0  # atno 8009 bound_to 7997
  154.4546  140.0958  156.6695 H   0  0  0  0  0  0  0  0  0  0  0  0  # atno 8010 bound_to 7997
  140.6276  143.2445  151.5322 H   0  0  0  0  0  0  0  0  0  0  0  0  # atno 10167 bound_to 10162
  157.6957  131.0353  150.3506 H   0  0  0  0  0  0  0  0  0  0  0  0  # atno 10718 bound_to 10713
  153.3385  135.6979  153.6887 H   0  0  0  0  0  0  0  0  0  0  0  0  # atno 10763 bound_to 10752
  153.5661  135.3525  155.2820 H   0  0  0  0  0  0  0  0  0  0  0  0  # atno 10764 bound_to 10752
  154.8632  135.4261  154.2592 H   0  0  0  0  0  0  0  0  0  0  0  0  # atno 10765 bound_to 10752
  139.9674  134.6958  156.0517 H   0  0  0  0  0  0  0  0  0  0  0  0  # atno 11005 bound_to 11000
  145.4243  139.1559  143.4057 LP  0  0  0  0  0  0  0  0  0  0  0  0  # atno 17320 bound_to 7965
  146.2887  140.4356  142.8748 LP  0  0  0  0  0  0  0  0  0  0  0  0  # atno 17321 bound_to 7965
  139.5495  144.2434  152.1504 LP  0  0  0  0  0  0  0  0  0  0  0  0  # atno 17342 bound_to 10162
  140.1669  144.4972  150.6601 LP  0  0  0  0  0  0  0  0  0  0  0  0  # atno 17343 bound_to 10162
  156.3954  130.3906  149.6998 LP  0  0  0  0  0  0  0  0  0  0  0  0  # atno 17370 bound_to 10713
  156.4334  130.7826  151.2846 LP  0  0  0  0  0  0  0  0  0  0  0  0  # atno 17371 bound_to 10713
  141.1354  133.6576  156.3578 LP  0  0  0  0  0  0  0  0  0  0  0  0  # atno 17394 bound_to 11000
  140.5367  134.6160  157.5367 LP  0  0  0  0  0  0  0  0  0  0  0  0  # atno 17395 bound_to 11000

$$$$
