AV-unprocessed.smi:2973|AV-procd|sdf|11337|dock4
  -GOLD-   2272016243D 1   1.00000     0.00000
 Structure written by MMmdl.
 49 51  0  0  0  0  0  0  0  0  1 V2000
  147.3736  132.6044  153.0099 C   0  0  0  0  0  0  0  0  0  0  0  0
  146.1132  132.4704  152.1290 C   0  0  2  0  0  0  0  0  0  0  0  0
  146.4964  132.4128  150.6344 C   0  0  0  0  0  0  0  0  0  0  0  0
  145.2671  132.1839  149.7413 C   0  0  0  0  0  0  0  0  0  0  0  0
  144.1956  133.2579  149.9744 C   0  0  0  0  0  0  0  0  0  0  0  0
  143.7965  133.3324  151.4590 C   0  0  0  0  0  0  0  0  0  0  0  0
  145.0070  133.5382  152.4047 C   0  0  1  0  0  0  0  0  0  0  0  0
  144.5600  133.4843  153.7858 N   0  0  0  0  0  0  0  0  0  0  0  0
  144.7474  134.6326  154.4476 C   0  0  0  0  0  0  0  0  0  0  0  0
  144.4559  134.8270  155.6267 O   0  0  0  0  0  0  0  0  0  0  0  0
  145.3102  135.5177  153.6066 N   0  0  0  0  0  0  0  0  0  0  0  0
  145.7074  136.8789  153.9894 C   0  0  0  0  0  0  0  0  0  0  0  0
  146.7944  136.9115  155.0737 C   0  0  0  0  0  0  0  0  0  0  0  0
  146.5019  136.8511  156.2691 O   0  0  0  0  0  0  0  0  0  0  0  0
  148.0573  137.0000  154.6310 N   0  0  0  0  0  0  0  0  0  0  0  0
  149.2413  137.0696  155.4793 C   0  0  0  0  0  0  0  0  0  0  0  0
  150.1925  138.1966  155.0440 C   0  0  0  0  0  0  0  0  0  0  0  0
  150.1921  139.3520  156.0269 C   0  0  0  0  0  0  0  0  0  0  0  0
  150.6733  139.1784  157.3422 C   0  0  0  0  0  0  0  0  0  0  0  0
  150.6678  140.2874  158.2102 C   0  0  0  0  0  0  0  0  0  0  0  0
  150.1846  141.5208  157.7320 C   0  0  0  0  0  0  0  0  0  0  0  0
  149.7261  141.5904  156.4013 C   0  0  0  0  0  0  0  0  0  0  0  0
  149.7276  140.5334  155.5608 N   0  0  0  0  0  0  0  0  0  0  0  0
  145.5086  134.9842  152.3933 C   0  0  0  0  0  0  0  0  0  0  0  0
  146.0168  135.5407  151.4195 O   0  0  0  0  0  0  0  0  0  0  0  0
  147.9140  133.5292  152.8067 H   0  0  0  0  0  0  0  0  0  0  0  0
  148.0627  131.7797  152.8272 H   0  0  0  0  0  0  0  0  0  0  0  0
  147.1282  132.5877  154.0716 H   0  0  0  0  0  0  0  0  0  0  0  0
  145.6779  131.5006  152.3761 H   0  0  0  0  0  0  0  0  0  0  0  0
  147.0023  133.3310  150.3354 H   0  0  0  0  0  0  0  0  0  0  0  0
  147.2125  131.6073  150.4677 H   0  0  0  0  0  0  0  0  0  0  0  0
  145.5655  132.1791  148.6927 H   0  0  0  0  0  0  0  0  0  0  0  0
  144.8462  131.1988  149.9466 H   0  0  0  0  0  0  0  0  0  0  0  0
  144.5637  134.2253  149.6326 H   0  0  0  0  0  0  0  0  0  0  0  0
  143.3163  133.0379  149.3686 H   0  0  0  0  0  0  0  0  0  0  0  0
  143.0651  134.1307  151.5949 H   0  0  0  0  0  0  0  0  0  0  0  0
  143.2817  132.4097  151.7307 H   0  0  0  0  0  0  0  0  0  0  0  0
  144.1552  132.6546  154.1950 H   0  0  0  0  0  0  0  0  0  0  0  0
  146.0697  137.4289  153.1193 H   0  0  0  0  0  0  0  0  0  0  0  0
  144.8322  137.4271  154.3431 H   0  0  0  0  0  0  0  0  0  0  0  0
  148.2079  137.0394  153.6333 H   0  0  0  0  0  0  0  0  0  0  0  0
  148.9099  137.2418  156.5037 H   0  0  0  0  0  0  0  0  0  0  0  0
  149.7586  136.1085  155.4785 H   0  0  0  0  0  0  0  0  0  0  0  0
  151.2108  137.8170  154.9476 H   0  0  0  0  0  0  0  0  0  0  0  0
  149.9086  138.5651  154.0572 H   0  0  0  0  0  0  0  0  0  0  0  0
  151.0426  138.2205  157.6784 H   0  0  0  0  0  0  0  0  0  0  0  0
  151.0296  140.1935  159.2234 H   0  0  0  0  0  0  0  0  0  0  0  0
  150.1661  142.3929  158.3685 H   0  0  0  0  0  0  0  0  0  0  0  0
  149.3502  142.5205  156.0011 H   0  0  0  0  0  0  0  0  0  0  0  0
  1  2  1  0  0  0  0
  1 26  1  0  0  0  0
  1 27  1  0  0  0  0
  1 28  1  0  0  0  0
  2  7  1  0  0  0  0
  2  3  1  0  0  0  0
  2 29  1  0  0  0  0
  3  4  1  0  0  0  0
  3 30  1  0  0  0  0
  3 31  1  0  0  0  0
  4  5  1  0  0  0  0
  4 32  1  0  0  0  0
  4 33  1  0  0  0  0
  5  6  1  0  0  0  0
  5 34  1  0  0  0  0
  5 35  1  0  0  0  0
  6  7  1  0  0  0  0
  6 36  1  0  0  0  0
  6 37  1  0  0  0  0
  7 24  1  0  0  0  0
  7  8  1  0  0  0  0
  8  9  1  0  0  0  0
  8 38  1  0  0  0  0
  9 10  2  0  0  0  0
  9 11  1  0  0  0  0
 11 12  1  0  0  0  0
 11 24  1  0  0  0  0
 12 13  1  0  0  0  0
 12 39  1  0  0  0  0
 12 40  1  0  0  0  0
 13 14  2  0  0  0  0
 13 15  1  0  0  0  0
 15 16  1  0  0  0  0
 15 41  1  0  0  0  0
 16 17  1  0  0  0  0
 16 42  1  0  0  0  0
 16 43  1  0  0  0  0
 17 18  1  0  0  0  0
 17 44  1  0  0  0  0
 17 45  1  0  0  0  0
 18 23  1  0  0  0  0
 18 19  2  0  0  0  0
 19 20  1  0  0  0  0
 19 46  1  0  0  0  0
 20 21  2  0  0  0  0
 20 47  1  0  0  0  0
 21 22  1  0  0  0  0
 21 48  1  0  0  0  0
 22 23  2  0  0  0  0
 22 49  1  0  0  0  0
 24 25  2  0  0  0  0
M  END
> <s_m_source_file>
AV-unprocessed.smi

> <i_m_source_file_index>
2973

> <i_lp_mmshare_version>
43012

> <i_f3d_flags>
0

> <s_epik_input>
W0NIMl0xW0NIMl1bQ0gyXVtDSDJdW0NAQEhdKFtDSDNdKVtDQF0xMltOSF1DKD1PKU4oQzI9TylbQ0gyXUMoPU8pW05IXVtDSDJdW0NIMl1jM1tjSF1bY0hdW2NIXVtjSF1uMw==

> <s_epik_cmdline>
J2VwaWtfcHl0aG9uJywgJy1waCcsICc3LjAnLCAnLXRuJywgJzgnLCAnLW1hJywgJzIwMCcsICctbWV0YWxfYmluZGluZycsICctaW1hZScsICc8aW5maWxlLm1hZT4nLCAnLW9tYWUnLCAnPG91dGZpbGUubWFlPic=

> <r_lp_tautomer_probability>
1

> <r_epik_Ionization_Penalty>
0.0245152

> <r_epik_Ionization_Penalty_Charging>
0

> <r_epik_Ionization_Penalty_Neutral>
0.0245152

> <r_epik_State_Penalty>
0.0198648

> <r_epik_Charging_Adjusted_Penalty>
0.0198648

> <i_epik_Tot_Q>
0

> <i_epik_Tot_abs_Q>
0

> <r_epik_Metal_State_Penalty>
0.0400162

> <b_epik_Metal_Only>
0

> <s_lp_Force_Field>
OPLS_2005

> <r_lp_Energy>
16.1581

> <b_lp_Chiralities_Consistent>
1

> <s_lp_Variant>
AV-unprocessed.smi:2973-1

> <Gold.Version>
5.8.1

> <Gold.Id.Protein>
6NUR|6NUR_protein|mol2

> <Gold.PLP.Fitness>
45.3281

> <Gold.PLP.PLP>
-35.0376

> <Gold.PLP.part.hbond>
-2.7986

> <Gold.PLP.part.metal>
0.0000

> <Gold.PLP.part.buried>
-4.0103

> <Gold.PLP.part.nonpolar>
-29.5168

> <Gold.PLP.part.repulsive>
1.2986

> <Gold.PLP.ligand.clash>
0.0000

> <Gold.PLP.ligand.torsion>
0.8043

> <Gold.PLP.Chemscore.Hbond>
2.9520

> <Gold.PLP.Chemscore.CHOScore>
1.0000

> <Gold.PLP.Chemscore.Metal>
0.0000

> <Gold.Chemscore.Hbonds>
donor molecule, donor type, donor heavy atom, donor atom, acceptor molecule, acceptor atom, score
      L1  H     8    38       P1 10957  0.99
      L1  H    15    41       P1  7948  0.88
      L1  C    22    49       P1  8028  1.00

> <Gold.PLP.Chemscore.Internal.Correction>
0.0430

> <Gold.Rescore>
     Score         DG    S(hbond)    S(metal)    S(lipo)     H(rot)  DE(clash)    DE(int)     intcor
     16.20     -19.39       2.41        0.00      90.62       1.86       0.10       3.10       ----

> <Gold.Chemscore.Fitness>
16.1996

> <Gold.Chemscore.DG>
-19.3947

> <Gold.Chemscore.ZeroCoef>
-5.4800

> <Gold.Chemscore.Hbond>
2.4139

> <Gold.Chemscore.Metal>
0.0000

> <Gold.Chemscore.Lipo>
90.6162

> <Gold.Chemscore.Internal_Hbond>
0.0000

> <Gold.Chemscore.DEClash>
0.0998

> <Gold.Chemscore.DEInternal>
3.0953

> <Gold.Chemscore.Rot>
1.8553

> <Gold.Chemscore.Internal.Correction>
   9.000000E+99

> <Gold.Chemscore.Hbonds>
donor molecule, donor type, donor heavy atom, donor atom, acceptor molecule, acceptor atom, score
      L1  H     8    38       P1 10957  0.83
      L1  H    15    41       P1  7948  0.82

> <Gold.Chemscore.Hbond.Weighted>
-8.0623

> <Gold.Chemscore.Metal.Weighted>
-0.0000

> <Gold.Chemscore.Lipo.Weighted>
-10.6021

> <Gold.Chemscore.Internal_Hbond.Weighted>
0.0000

> <Gold.Chemscore.DEClash.Weighted>
0.0998

> <Gold.Chemscore.DEInternal.Weighted>
3.0953

> <Gold.Chemscore.Rot.Weighted>
4.7497

> <Gold.Chemscore.Internal.Correction.Weighted>
   9.000000E+99

> <Gold.Protein.RotatedTorsions>
[ 6907 6896 6895 6894 ] final  177.10 input  -60.11 | X-H torsion
[ 7974 7965 7964 7962 ] final    1.59 input  175.53 | X-H torsion
[ 8008 7997 7996 7995 ] final   35.10 input   59.86 | X-H torsion
[ 10167 10162 10161 10158 ] final  -56.15 input  -65.29 | X-H torsion
[ 10718 10713 10712 10709 ] final  147.56 input   66.30 | X-H torsion
[ 10763 10752 10751 10750 ] final   96.64 input  -60.55 | X-H torsion
[ 11005 11000 10999 10996 ] final  179.13 input  -57.11 | X-H torsion

> <Gold.Protein.ActiveResidues>
 VAL166  LYS551  ARG553  GLY616  TRP617  ASP618  TYR619  PRO620  LYS621  CYS622 
 ASP623  PHE694  ASN695  SER759  ASP760  ASP761  ALA762  ILE779  LEU786  VAL792 
 PHE793  MET794  SER795  GLU796  ALA797  LYS798  CYS799  TRP800  GLU811  SER814 

> <Gold.Protein.RotatedAtoms>
  151.7095  133.3312  159.3286 H   0  0  0  0  0  0  0  0  0  0  0  0  # atno 6907 bound_to 6896
  150.7700  134.6545  159.6315 H   0  0  0  0  0  0  0  0  0  0  0  0  # atno 6908 bound_to 6896
  152.3720  134.6722  160.0224 H   0  0  0  0  0  0  0  0  0  0  0  0  # atno 6909 bound_to 6896
  146.2441  140.0964  142.8349 H   0  0  0  0  0  0  0  0  0  0  0  0  # atno 7974 bound_to 7965
  155.1657  140.3287  155.4402 H   0  0  0  0  0  0  0  0  0  0  0  0  # atno 8008 bound_to 7997
  156.2527  140.1952  156.6712 H   0  0  0  0  0  0  0  0  0  0  0  0  # atno 8009 bound_to 7997
  154.6373  140.0574  156.9790 H   0  0  0  0  0  0  0  0  0  0  0  0  # atno 8010 bound_to 7997
  140.6334  143.2470  151.5182 H   0  0  0  0  0  0  0  0  0  0  0  0  # atno 10167 bound_to 10162
  157.3195  131.0902  151.1252 H   0  0  0  0  0  0  0  0  0  0  0  0  # atno 10718 bound_to 10713
  153.2674  135.4211  155.0954 H   0  0  0  0  0  0  0  0  0  0  0  0  # atno 10763 bound_to 10752
  154.8443  135.3464  154.6292 H   0  0  0  0  0  0  0  0  0  0  0  0  # atno 10764 bound_to 10752
  153.6712  135.7043  153.5204 H   0  0  0  0  0  0  0  0  0  0  0  0  # atno 10765 bound_to 10752
  140.4028  134.6762  157.4571 H   0  0  0  0  0  0  0  0  0  0  0  0  # atno 11005 bound_to 11000
  145.0606  140.9085  143.4941 LP  0  0  0  0  0  0  0  0  0  0  0  0  # atno 17320 bound_to 7965
  145.1079  139.2777  143.5652 LP  0  0  0  0  0  0  0  0  0  0  0  0  # atno 17321 bound_to 7965
  139.5546  144.2308  152.1590 LP  0  0  0  0  0  0  0  0  0  0  0  0  # atno 17342 bound_to 10162
  140.1558  144.5072  150.6661 LP  0  0  0  0  0  0  0  0  0  0  0  0  # atno 17343 bound_to 10162
  157.2542  130.6628  149.5945 LP  0  0  0  0  0  0  0  0  0  0  0  0  # atno 17370 bound_to 10713
  155.9684  130.4529  150.5790 LP  0  0  0  0  0  0  0  0  0  0  0  0  # atno 17371 bound_to 10713
  140.0324  134.6387  155.9089 LP  0  0  0  0  0  0  0  0  0  0  0  0  # atno 17394 bound_to 11000
  141.1850  133.6554  156.5182 LP  0  0  0  0  0  0  0  0  0  0  0  0  # atno 17395 bound_to 11000

$$$$
