AV-unprocessed.smi:2856|AV-procd|sdf|10994|dock1
  -GOLD-   2272015443D 1   1.00000     0.00000
 Structure written by MMmdl.
 37 38  0  0  0  0  0  0  0  0  1 V2000
  146.4344  129.0217  151.7192 C   0  0  0  0  0  0  0  0  0  0  0  0
  146.1958  130.3922  152.8822 S   0  0  0  0  0  0  0  0  0  0  0  0
  145.7841  131.7495  151.7393 C   0  0  1  0  0  0  0  0  0  0  0  0
  144.4132  131.5065  151.0781 C   0  0  0  0  0  0  0  0  0  0  0  0
  144.0646  132.6214  150.0793 C   0  0  0  0  0  0  0  0  0  0  0  0
  144.1118  134.0037  150.7475 C   0  0  0  0  0  0  0  0  0  0  0  0
  145.4758  134.2552  151.4132 C   0  0  0  0  0  0  0  0  0  0  0  0
  145.8513  133.1418  152.4149 C   0  0  1  0  0  0  0  0  0  0  0  0
  144.9883  133.1964  153.5960 N   0  0  0  0  0  0  0  0  0  0  0  0
  144.9871  134.1740  154.5135 C   0  0  0  0  0  0  0  0  0  0  0  0
  145.7287  135.1556  154.4631 O   0  0  0  0  0  0  0  0  0  0  0  0
  144.0766  133.9396  155.4737 N   0  0  0  0  0  0  0  0  0  0  0  0
  143.7799  134.7499  156.5993 C   0  0  0  0  0  0  0  0  0  0  0  0
  144.3230  136.0566  156.7208 C   0  0  0  0  0  0  0  0  0  0  0  0
  143.8174  136.4901  157.9143 C   0  0  0  0  0  0  0  0  0  0  0  0
  143.9697  137.7594  158.6802 C   0  0  0  0  0  0  0  0  0  0  0  0
  143.0271  135.5322  158.4703 O   0  0  0  0  0  0  0  0  0  0  0  0
  143.0072  134.4185  157.6224 N   0  0  0  0  0  0  0  0  0  0  0  0
  146.5972  128.0929  152.2659 H   0  0  0  0  0  0  0  0  0  0  0  0
  147.3022  129.1989  151.0847 H   0  0  0  0  0  0  0  0  0  0  0  0
  145.5557  128.8989  151.0860 H   0  0  0  0  0  0  0  0  0  0  0  0
  146.5347  131.7214  150.9480 H   0  0  0  0  0  0  0  0  0  0  0  0
  144.4147  130.5452  150.5634 H   0  0  0  0  0  0  0  0  0  0  0  0
  143.6363  131.4436  151.8411 H   0  0  0  0  0  0  0  0  0  0  0  0
  144.7658  132.5956  149.2442 H   0  0  0  0  0  0  0  0  0  0  0  0
  143.0749  132.4460  149.6569 H   0  0  0  0  0  0  0  0  0  0  0  0
  143.9126  134.7793  150.0077 H   0  0  0  0  0  0  0  0  0  0  0  0
  143.3179  134.0781  151.4916 H   0  0  0  0  0  0  0  0  0  0  0  0
  146.2425  134.3108  150.6394 H   0  0  0  0  0  0  0  0  0  0  0  0
  145.4767  135.2282  151.9060 H   0  0  0  0  0  0  0  0  0  0  0  0
  146.8807  133.3153  152.7306 H   0  0  0  0  0  0  0  0  0  0  0  0
  144.3477  132.4264  153.7214 H   0  0  0  0  0  0  0  0  0  0  0  0
  143.5293  133.0965  155.3840 H   0  0  0  0  0  0  0  0  0  0  0  0
  144.9790  136.5893  156.0484 H   0  0  0  0  0  0  0  0  0  0  0  0
  144.6926  138.4198  158.2008 H   0  0  0  0  0  0  0  0  0  0  0  0
  144.3158  137.5591  159.6944 H   0  0  0  0  0  0  0  0  0  0  0  0
  143.0189  138.2884  158.7450 H   0  0  0  0  0  0  0  0  0  0  0  0
  1  2  1  0  0  0  0
  1 19  1  0  0  0  0
  1 20  1  0  0  0  0
  1 21  1  0  0  0  0
  2  3  1  0  0  0  0
  3  8  1  0  0  0  0
  3  4  1  0  0  0  0
  3 22  1  0  0  0  0
  4  5  1  0  0  0  0
  4 23  1  0  0  0  0
  4 24  1  0  0  0  0
  5  6  1  0  0  0  0
  5 25  1  0  0  0  0
  5 26  1  0  0  0  0
  6  7  1  0  0  0  0
  6 27  1  0  0  0  0
  6 28  1  0  0  0  0
  7  8  1  0  0  0  0
  7 29  1  0  0  0  0
  7 30  1  0  0  0  0
  8  9  1  0  0  0  0
  8 31  1  0  0  0  0
  9 10  1  0  0  0  0
  9 32  1  0  0  0  0
 10 11  2  0  0  0  0
 10 12  1  0  0  0  0
 12 13  1  0  0  0  0
 12 33  1  0  0  0  0
 13 18  2  0  0  0  0
 13 14  1  0  0  0  0
 14 15  2  0  0  0  0
 14 34  1  0  0  0  0
 15 16  1  0  0  0  0
 15 17  1  0  0  0  0
 16 35  1  0  0  0  0
 16 36  1  0  0  0  0
 16 37  1  0  0  0  0
 17 18  1  0  0  0  0
M  END
> <s_m_source_file>
AV-unprocessed.smi

> <i_m_source_file_index>
2856

> <i_lp_mmshare_version>
43012

> <i_f3d_flags>
0

> <s_epik_input>
W0NIM11TW0NAQEhdMVtDSDJdW0NIMl1bQ0gyXVtDSDJdW0NASF0xW05IXUMoPU8pW05IXWMyW2NIXWMoW0NIM10pb24y

> <s_epik_cmdline>
J2VwaWtfcHl0aG9uJywgJy1waCcsICc3LjAnLCAnLXRuJywgJzgnLCAnLW1hJywgJzIwMCcsICctbWV0YWxfYmluZGluZycsICctaW1hZScsICc8aW5maWxlLm1hZT4nLCAnLW9tYWUnLCAnPG91dGZpbGUubWFlPic=

> <r_lp_tautomer_probability>
1

> <r_epik_Ionization_Penalty>
2.20874e-05

> <r_epik_Ionization_Penalty_Charging>
0

> <r_epik_Ionization_Penalty_Neutral>
2.20874e-05

> <r_epik_State_Penalty>
-0

> <r_epik_Charging_Adjusted_Penalty>
0

> <i_epik_Tot_Q>
0

> <i_epik_Tot_abs_Q>
0

> <r_epik_Metal_State_Penalty>
-0

> <b_epik_Metal_Only>
0

> <s_lp_Force_Field>
OPLS_2005

> <r_lp_Energy>
4.92743

> <b_lp_Chiralities_Consistent>
1

> <s_lp_Variant>
AV-unprocessed.smi:2856-2

> <Gold.Version>
5.8.1

> <Gold.Id.Protein>
6NUR|6NUR_protein|mol2

> <Gold.PLP.Fitness>
32.4754

> <Gold.PLP.PLP>
-24.6179

> <Gold.PLP.part.hbond>
-3.0000

> <Gold.PLP.part.metal>
0.0000

> <Gold.PLP.part.buried>
-5.0169

> <Gold.PLP.part.nonpolar>
-17.8099

> <Gold.PLP.part.repulsive>
0.1158

> <Gold.PLP.ligand.clash>
0.0000

> <Gold.PLP.ligand.torsion>
0.1734

> <Gold.PLP.Chemscore.Hbond>
2.7295

> <Gold.PLP.Chemscore.CHOScore>
0.0000

> <Gold.PLP.Chemscore.Metal>
0.0000

> <Gold.Chemscore.Hbonds>
donor molecule, donor type, donor heavy atom, donor atom, acceptor molecule, acceptor atom, score
      L1  H     9    32       P1 10957  0.80
      L1  H    12    33       P1 10957  1.00
      P1  H 11000 11005       L1    18  0.93

> <Gold.PLP.Chemscore.Internal.Correction>
0.0160

> <Gold.Rescore>
     Score         DG    S(hbond)    S(metal)    S(lipo)     H(rot)  DE(clash)    DE(int)     intcor
     14.83     -16.49       2.12        0.00      60.08       1.21       0.01       1.65       ----

> <Gold.Chemscore.Fitness>
14.8265

> <Gold.Chemscore.DG>
-16.4933

> <Gold.Chemscore.ZeroCoef>
-5.4800

> <Gold.Chemscore.Hbond>
2.1210

> <Gold.Chemscore.Metal>
0.0000

> <Gold.Chemscore.Lipo>
60.0797

> <Gold.Chemscore.Internal_Hbond>
0.0000

> <Gold.Chemscore.DEClash>
0.0149

> <Gold.Chemscore.DEInternal>
1.6519

> <Gold.Chemscore.Rot>
1.2109

> <Gold.Chemscore.Internal.Correction>
   9.000000E+99

> <Gold.Chemscore.Hbonds>
donor molecule, donor type, donor heavy atom, donor atom, acceptor molecule, acceptor atom, score
      L1  H     9    32       P1 10957  0.23
      L1  H    12    33       P1 10957  1.00
      P1  H 11000 11005       L1    18  0.62

> <Gold.Chemscore.Hbond.Weighted>
-7.0840

> <Gold.Chemscore.Metal.Weighted>
-0.0000

> <Gold.Chemscore.Lipo.Weighted>
-7.0293

> <Gold.Chemscore.Internal_Hbond.Weighted>
0.0000

> <Gold.Chemscore.DEClash.Weighted>
0.0149

> <Gold.Chemscore.DEInternal.Weighted>
1.6519

> <Gold.Chemscore.Rot.Weighted>
3.1000

> <Gold.Chemscore.Internal.Correction.Weighted>
   9.000000E+99

> <Gold.Protein.RotatedTorsions>
[ 6907 6896 6895 6894 ] final  -28.35 input  -60.11 | X-H torsion
[ 7974 7965 7964 7962 ] final  -24.83 input  175.53 | X-H torsion
[ 8008 7997 7996 7995 ] final  -81.37 input   59.86 | X-H torsion
[ 10167 10162 10161 10158 ] final  110.64 input  -65.29 | X-H torsion
[ 10718 10713 10712 10709 ] final -157.59 input   66.30 | X-H torsion
[ 10763 10752 10751 10750 ] final  146.01 input  -60.55 | X-H torsion
[ 11005 11000 10999 10996 ] final -108.00 input  -57.11 | X-H torsion

> <Gold.Protein.ActiveResidues>
 VAL166  LYS551  ARG553  GLY616  TRP617  ASP618  TYR619  PRO620  LYS621  CYS622 
 ASP623  PHE694  ASN695  SER759  ASP760  ASP761  ALA762  ILE779  LEU786  VAL792 
 PHE793  MET794  SER795  GLU796  ALA797  LYS798  CYS799  TRP800  GLU811  SER814 

> <Gold.Protein.RotatedAtoms>
  151.1342  135.0146  159.8595 H   0  0  0  0  0  0  0  0  0  0  0  0  # atno 6907 bound_to 6896
  152.5451  134.1575  159.8554 H   0  0  0  0  0  0  0  0  0  0  0  0  # atno 6908 bound_to 6896
  151.1644  133.4779  159.2627 H   0  0  0  0  0  0  0  0  0  0  0  0  # atno 6909 bound_to 6896
  146.1530  140.4805  142.8603 H   0  0  0  0  0  0  0  0  0  0  0  0  # atno 7974 bound_to 7965
  154.5976  140.0649  156.9325 H   0  0  0  0  0  0  0  0  0  0  0  0  # atno 8008 bound_to 7997
  155.2187  140.3328  155.4300 H   0  0  0  0  0  0  0  0  0  0  0  0  # atno 8009 bound_to 7997
  156.2297  140.1835  156.7257 H   0  0  0  0  0  0  0  0  0  0  0  0  # atno 8010 bound_to 7997
  139.6673  144.7127  151.1753 H   0  0  0  0  0  0  0  0  0  0  0  0  # atno 10167 bound_to 10162
  156.5424  130.8569  151.2753 H   0  0  0  0  0  0  0  0  0  0  0  0  # atno 10718 bound_to 10713
  154.0149  135.2911  155.3388 H   0  0  0  0  0  0  0  0  0  0  0  0  # atno 10763 bound_to 10752
  154.7081  135.5161  153.8628 H   0  0  0  0  0  0  0  0  0  0  0  0  # atno 10764 bound_to 10752
  153.0707  135.6646  154.0376 H   0  0  0  0  0  0  0  0  0  0  0  0  # atno 10765 bound_to 10752
  141.0924  133.9031  157.2043 H   0  0  0  0  0  0  0  0  0  0  0  0  # atno 11005 bound_to 11000
  144.7927  140.6063  143.6530 LP  0  0  0  0  0  0  0  0  0  0  0  0  # atno 17320 bound_to 7965
  145.4778  139.1498  143.3779 LP  0  0  0  0  0  0  0  0  0  0  0  0  # atno 17321 bound_to 7965
  140.7604  143.5899  150.8807 LP  0  0  0  0  0  0  0  0  0  0  0  0  # atno 17342 bound_to 10162
  139.9562  143.6216  152.3015 LP  0  0  0  0  0  0  0  0  0  0  0  0  # atno 17343 bound_to 10162
  157.7403  130.9847  150.2367 LP  0  0  0  0  0  0  0  0  0  0  0  0  # atno 17370 bound_to 10713
  156.2959  130.3752  149.7797 LP  0  0  0  0  0  0  0  0  0  0  0  0  # atno 17371 bound_to 10713
  139.9753  135.0116  156.9616 LP  0  0  0  0  0  0  0  0  0  0  0  0  # atno 17394 bound_to 11000
  140.5220  134.0898  155.7294 LP  0  0  0  0  0  0  0  0  0  0  0  0  # atno 17395 bound_to 11000

$$$$
