AV-unprocessed.smi:3129|AV-procd|sdf|11925|dock1
  -GOLD-   2272017313D 1   1.00000     0.00000
 Structure written by MMmdl.
 39 39  0  0  0  0  0  0  0  0  1 V2000
  152.2306  139.2660  155.1869 C   0  0  0  0  0  0  0  0  0  0  0  0
  151.2349  138.2996  154.5210 C   0  0  0  0  0  0  0  0  0  0  0  0
  149.9270  139.0289  154.1807 C   0  0  0  0  0  0  0  0  0  0  0  0
  150.9490  137.0464  155.3757 C   0  0  0  0  0  0  0  0  0  0  0  0
  150.1991  136.0297  154.6433 N   0  0  0  0  0  0  0  0  0  0  0  0
  149.9151  134.7959  155.0891 C   0  0  0  0  0  0  0  0  0  0  0  0
  150.2629  134.3773  156.1942 O   0  0  0  0  0  0  0  0  0  0  0  0
  149.1099  133.8918  154.1415 C   0  0  1  0  0  0  0  0  0  0  0  0
  148.9558  132.4916  154.7547 C   0  0  0  0  0  0  0  0  0  0  0  0
  147.7836  134.4338  153.7946 N   0  0  0  0  0  0  0  0  0  0  0  0
  146.8759  133.4578  153.2021 C   0  0  0  0  0  0  0  0  0  0  0  0
  147.2345  133.2668  151.7216 C   0  0  0  0  0  0  0  0  0  0  0  0
  146.0491  133.1141  150.9006 N   0  0  0  0  0  0  0  0  0  0  0  0
  145.8093  132.1903  149.9054 C   0  0  0  0  0  0  0  0  0  0  0  0
  144.5565  132.4329  149.4193 C   0  0  0  0  0  0  0  0  0  0  0  0
  144.1032  133.5393  150.1913 C   0  0  0  0  0  0  0  0  0  0  0  0
  144.9983  133.9438  151.0782 N   0  0  0  0  0  0  0  0  0  0  0  0
  151.8689  139.5973  156.1607 H   0  0  0  0  0  0  0  0  0  0  0  0
  152.3883  140.1523  154.5720 H   0  0  0  0  0  0  0  0  0  0  0  0
  153.2057  138.8016  155.3330 H   0  0  0  0  0  0  0  0  0  0  0  0
  151.6761  137.9700  153.5794 H   0  0  0  0  0  0  0  0  0  0  0  0
  149.4239  139.3803  155.0823 H   0  0  0  0  0  0  0  0  0  0  0  0
  149.2377  138.3732  153.6482 H   0  0  0  0  0  0  0  0  0  0  0  0
  150.1123  139.8946  153.5442 H   0  0  0  0  0  0  0  0  0  0  0  0
  151.8788  136.6365  155.7741 H   0  0  0  0  0  0  0  0  0  0  0  0
  150.3494  137.3255  156.2425 H   0  0  0  0  0  0  0  0  0  0  0  0
  149.8702  136.2839  153.7231 H   0  0  0  0  0  0  0  0  0  0  0  0
  149.6747  133.7822  153.2139 H   0  0  0  0  0  0  0  0  0  0  0  0
  149.9257  132.0575  155.0020 H   0  0  0  0  0  0  0  0  0  0  0  0
  148.4635  131.8126  154.0579 H   0  0  0  0  0  0  0  0  0  0  0  0
  148.3604  132.5166  155.6684 H   0  0  0  0  0  0  0  0  0  0  0  0
  147.8601  135.2403  153.1911 H   0  0  0  0  0  0  0  0  0  0  0  0
  146.9478  132.4999  153.7185 H   0  0  0  0  0  0  0  0  0  0  0  0
  145.8468  133.8069  153.2973 H   0  0  0  0  0  0  0  0  0  0  0  0
  147.8089  134.1176  151.3510 H   0  0  0  0  0  0  0  0  0  0  0  0
  147.8593  132.3819  151.5920 H   0  0  0  0  0  0  0  0  0  0  0  0
  146.5412  131.4451  149.6298 H   0  0  0  0  0  0  0  0  0  0  0  0
  144.0422  131.9012  148.6326 H   0  0  0  0  0  0  0  0  0  0  0  0
  143.1565  134.0563  150.1346 H   0  0  0  0  0  0  0  0  0  0  0  0
  1  2  1  0  0  0  0
  1 18  1  0  0  0  0
  1 19  1  0  0  0  0
  1 20  1  0  0  0  0
  2  3  1  0  0  0  0
  2  4  1  0  0  0  0
  2 21  1  0  0  0  0
  3 22  1  0  0  0  0
  3 23  1  0  0  0  0
  3 24  1  0  0  0  0
  4  5  1  0  0  0  0
  4 25  1  0  0  0  0
  4 26  1  0  0  0  0
  5  6  1  0  0  0  0
  5 27  1  0  0  0  0
  6  7  2  0  0  0  0
  6  8  1  0  0  0  0
  8  9  1  0  0  0  0
  8 10  1  0  0  0  0
  8 28  1  0  0  0  0
  9 29  1  0  0  0  0
  9 30  1  0  0  0  0
  9 31  1  0  0  0  0
 10 11  1  0  0  0  0
 10 32  1  0  0  0  0
 11 12  1  0  0  0  0
 11 33  1  0  0  0  0
 11 34  1  0  0  0  0
 12 13  1  0  0  0  0
 12 35  1  0  0  0  0
 12 36  1  0  0  0  0
 13 17  1  0  0  0  0
 13 14  1  0  0  0  0
 14 15  2  0  0  0  0
 14 37  1  0  0  0  0
 15 16  1  0  0  0  0
 15 38  1  0  0  0  0
 16 17  2  0  0  0  0
 16 39  1  0  0  0  0
M  END
> <s_m_source_file>
AV-unprocessed.smi

> <i_m_source_file_index>
3129

> <i_lp_mmshare_version>
43012

> <i_f3d_flags>
0

> <s_epik_input>
W0NIM11bQ0hdKFtDSDNdKVtDSDJdW05IXUMoPU8pW0NASF0oW0NIM10pW05IXVtDSDJdW0NIMl1uMVtjSF1bY0hdW2NIXW4x

> <s_epik_cmdline>
J2VwaWtfcHl0aG9uJywgJy1waCcsICc3LjAnLCAnLXRuJywgJzgnLCAnLW1hJywgJzIwMCcsICctbWV0YWxfYmluZGluZycsICctaW1hZScsICc8aW5maWxlLm1hZT4nLCAnLW9tYWUnLCAnPG91dGZpbGUubWFlPic=

> <r_lp_tautomer_probability>
1

> <r_epik_Ionization_Penalty>
0.724007

> <r_epik_Ionization_Penalty_Charging>
0

> <r_epik_Ionization_Penalty_Neutral>
0.724007

> <r_epik_State_Penalty>
0.74758

> <r_epik_Charging_Adjusted_Penalty>
0.74758

> <i_epik_Tot_Q>
0

> <i_epik_Tot_abs_Q>
0

> <r_epik_Metal_State_Penalty>
0.746851

> <b_epik_Metal_Only>
0

> <s_lp_Force_Field>
OPLS_2005

> <r_lp_Energy>
5.77618

> <b_lp_Chiralities_Consistent>
1

> <s_lp_Variant>
AV-unprocessed.smi:3129-4

> <Gold.Version>
5.8.1

> <Gold.Id.Protein>
6NUR|6NUR_protein|mol2

> <Gold.PLP.Fitness>
46.9143

> <Gold.PLP.PLP>
-36.3481

> <Gold.PLP.part.hbond>
-2.3283

> <Gold.PLP.part.metal>
0.0000

> <Gold.PLP.part.buried>
-4.1808

> <Gold.PLP.part.nonpolar>
-30.8009

> <Gold.PLP.part.repulsive>
0.1970

> <Gold.PLP.ligand.clash>
0.0000

> <Gold.PLP.ligand.torsion>
0.7494

> <Gold.PLP.Chemscore.Hbond>
1.8460

> <Gold.PLP.Chemscore.CHOScore>
2.0000

> <Gold.PLP.Chemscore.Metal>
0.0000

> <Gold.Chemscore.Hbonds>
donor molecule, donor type, donor heavy atom, donor atom, acceptor molecule, acceptor atom, score
      L1  H     5    27       P1  7948  0.94
      L1  H    10    32       P1  7948  0.93
      L1  C    14    37       P1 10747  0.91
      L1  C    16    39       P1 10186  1.00

> <Gold.PLP.Chemscore.Internal.Correction>
0.5269

> <Gold.Rescore>
     Score         DG    S(hbond)    S(metal)    S(lipo)     H(rot)  DE(clash)    DE(int)     intcor
     13.33     -14.04       1.34        0.00      81.52       2.13       0.07       0.65       ----

> <Gold.Chemscore.Fitness>
13.3275

> <Gold.Chemscore.DG>
-14.0429

> <Gold.Chemscore.ZeroCoef>
-5.4800

> <Gold.Chemscore.Hbond>
1.3440

> <Gold.Chemscore.Metal>
0.0000

> <Gold.Chemscore.Lipo>
81.5236

> <Gold.Chemscore.Internal_Hbond>
0.0000

> <Gold.Chemscore.DEClash>
0.0659

> <Gold.Chemscore.DEInternal>
0.6495

> <Gold.Chemscore.Rot>
2.1345

> <Gold.Chemscore.Internal.Correction>
   9.000000E+99

> <Gold.Chemscore.Hbonds>
donor molecule, donor type, donor heavy atom, donor atom, acceptor molecule, acceptor atom, score
      L1  H     5    27       P1  7948  0.20
      L1  H    10    32       P1  7948  0.88

> <Gold.Chemscore.Hbond.Weighted>
-4.4889

> <Gold.Chemscore.Metal.Weighted>
-0.0000

> <Gold.Chemscore.Lipo.Weighted>
-9.5383

> <Gold.Chemscore.Internal_Hbond.Weighted>
0.0000

> <Gold.Chemscore.DEClash.Weighted>
0.0659

> <Gold.Chemscore.DEInternal.Weighted>
0.6495

> <Gold.Chemscore.Rot.Weighted>
5.4642

> <Gold.Chemscore.Internal.Correction.Weighted>
   9.000000E+99

> <Gold.Protein.RotatedTorsions>
[ 6907 6896 6895 6894 ] final -170.12 input  -60.11 | X-H torsion
[ 7974 7965 7964 7962 ] final  -43.61 input  175.53 | X-H torsion
[ 8008 7997 7996 7995 ] final  109.89 input   59.86 | X-H torsion
[ 10167 10162 10161 10158 ] final   42.07 input  -65.29 | X-H torsion
[ 10718 10713 10712 10709 ] final   -7.43 input   66.30 | X-H torsion
[ 10763 10752 10751 10750 ] final   64.69 input  -60.55 | X-H torsion
[ 11005 11000 10999 10996 ] final   98.29 input  -57.11 | X-H torsion

> <Gold.Protein.ActiveResidues>
 VAL166  LYS551  ARG553  GLY616  TRP617  ASP618  TYR619  PRO620  LYS621  CYS622 
 ASP623  PHE694  ASN695  SER759  ASP760  ASP761  ALA762  ILE779  LEU786  VAL792 
 PHE793  MET794  SER795  GLU796  ALA797  LYS798  CYS799  TRP800  GLU811  SER814 

> <Gold.Protein.RotatedAtoms>
  151.5026  133.3501  159.2871 H   0  0  0  0  0  0  0  0  0  0  0  0  # atno 6907 bound_to 6896
  150.8763  134.8148  159.7203 H   0  0  0  0  0  0  0  0  0  0  0  0  # atno 6908 bound_to 6896
  152.4733  134.4918  159.9749 H   0  0  0  0  0  0  0  0  0  0  0  0  # atno 6909 bound_to 6896
  146.0002  140.7082  142.9274 H   0  0  0  0  0  0  0  0  0  0  0  0  # atno 7974 bound_to 7965
  156.2013  140.3049  155.9532 H   0  0  0  0  0  0  0  0  0  0  0  0  # atno 8008 bound_to 7997
  155.2948  140.0443  157.3042 H   0  0  0  0  0  0  0  0  0  0  0  0  # atno 8009 bound_to 7997
  154.5574  140.2310  155.8397 H   0  0  0  0  0  0  0  0  0  0  0  0  # atno 8010 bound_to 7997
  140.3580  144.2265  150.6140 H   0  0  0  0  0  0  0  0  0  0  0  0  # atno 10167 bound_to 10162
  156.7174  130.5140  149.5877 H   0  0  0  0  0  0  0  0  0  0  0  0  # atno 10718 bound_to 10713
  153.0066  135.5384  154.6549 H   0  0  0  0  0  0  0  0  0  0  0  0  # atno 10763 bound_to 10752
  154.5772  135.2847  155.0771 H   0  0  0  0  0  0  0  0  0  0  0  0  # atno 10764 bound_to 10752
  154.1914  135.6499  153.5113 H   0  0  0  0  0  0  0  0  0  0  0  0  # atno 10765 bound_to 10752
  139.8773  134.9042  156.4434 H   0  0  0  0  0  0  0  0  0  0  0  0  # atno 11005 bound_to 11000
  144.6917  140.3221  143.7230 LP  0  0  0  0  0  0  0  0  0  0  0  0  # atno 17320 bound_to 7965
  145.7498  139.1790  143.2328 LP  0  0  0  0  0  0  0  0  0  0  0  0  # atno 17321 bound_to 7965
  140.5155  143.2279  151.8470 LP  0  0  0  0  0  0  0  0  0  0  0  0  # atno 17342 bound_to 10162
  139.4817  144.4900  151.9198 LP  0  0  0  0  0  0  0  0  0  0  0  0  # atno 17343 bound_to 10162
  156.1618  130.6379  151.0729 LP  0  0  0  0  0  0  0  0  0  0  0  0  # atno 17370 bound_to 10713
  157.6912  131.0809  150.7102 LP  0  0  0  0  0  0  0  0  0  0  0  0  # atno 17371 bound_to 10713
  140.8983  133.7798  155.9651 LP  0  0  0  0  0  0  0  0  0  0  0  0  # atno 17394 bound_to 11000
  140.8678  134.2763  157.5205 LP  0  0  0  0  0  0  0  0  0  0  0  0  # atno 17395 bound_to 11000

$$$$
