AV-unprocessed.smi:1019|AV-procd|sdf|4447|dock7
  -GOLD-   22720 2413D 1   1.00000     0.00000
 Structure written by MMmdl.
 45 47  0  0  0  0  0  0  0  0  3 V2000
  150.4250  137.0793  157.6711 C   0  0  0  0  0  0  0  0  0  0  0  0
  151.2057  136.6178  156.5006 N   0  3  1  0  0  0  0  0  0  0  0  0
  150.3371  136.1372  155.3984 C   0  0  0  0  0  0  0  0  0  0  0  0
  150.4921  134.6411  155.1843 C   0  0  0  0  0  0  0  0  0  0  0  0
  149.7740  134.0007  154.1519 C   0  0  0  0  0  0  0  0  0  0  0  0
  149.8981  132.6112  153.9590 C   0  0  0  0  0  0  0  0  0  0  0  0
  150.7441  131.8570  154.7944 C   0  0  0  0  0  0  0  0  0  0  0  0
  151.4673  132.4928  155.8220 C   0  0  0  0  0  0  0  0  0  0  0  0
  151.3428  133.8823  156.0162 C   0  0  0  0  0  0  0  0  0  0  0  0
  152.2259  137.6087  156.0685 C   0  0  0  0  0  0  0  0  0  0  0  0
  151.6431  139.0321  156.0060 C   0  0  2  0  0  0  0  0  0  0  0  0
  152.1877  139.6793  154.8741 O   0  0  0  0  0  0  0  0  0  0  0  0
  151.9671  139.8566  157.2704 C   0  0  0  0  0  0  0  0  0  0  0  0
  151.4286  141.2219  157.2204 N   0  0  0  0  0  0  0  0  0  0  0  0
  150.6234  141.8119  156.2948 C   0  0  0  0  0  0  0  0  0  0  0  0
  150.4067  143.0950  156.6972 N   0  3  0  0  0  0  0  0  0  0  0  0
  151.0871  143.3303  157.8940 C   0  0  0  0  0  0  0  0  0  0  0  0
  151.1735  144.4719  158.6852 C   0  0  0  0  0  0  0  0  0  0  0  0
  151.9599  144.3749  159.8522 C   0  0  0  0  0  0  0  0  0  0  0  0
  152.6231  143.1783  160.1943 C   0  0  0  0  0  0  0  0  0  0  0  0
  152.5282  142.0265  159.3851 C   0  0  0  0  0  0  0  0  0  0  0  0
  151.7481  142.1309  158.2343 C   0  0  0  0  0  0  0  0  0  0  0  0
  149.8009  137.9358  157.4116 H   0  0  0  0  0  0  0  0  0  0  0  0
  151.0837  137.3719  158.4891 H   0  0  0  0  0  0  0  0  0  0  0  0
  149.7767  136.2840  158.0399 H   0  0  0  0  0  0  0  0  0  0  0  0
  149.2901  136.3274  155.6395 H   0  0  0  0  0  0  0  0  0  0  0  0
  150.5509  136.6880  154.4809 H   0  0  0  0  0  0  0  0  0  0  0  0
  149.1216  134.5724  153.5078 H   0  0  0  0  0  0  0  0  0  0  0  0
  149.3450  132.1234  153.1699 H   0  0  0  0  0  0  0  0  0  0  0  0
  150.8402  130.7916  154.6454 H   0  0  0  0  0  0  0  0  0  0  0  0
  152.1179  131.9141  156.4610 H   0  0  0  0  0  0  0  0  0  0  0  0
  151.8995  134.3613  156.8085 H   0  0  0  0  0  0  0  0  0  0  0  0
  153.0789  137.6143  156.7469 H   0  0  0  0  0  0  0  0  0  0  0  0
  152.6277  137.3125  155.0978 H   0  0  0  0  0  0  0  0  0  0  0  0
  150.5639  138.9833  155.8599 H   0  0  0  0  0  0  0  0  0  0  0  0
  152.7351  139.0646  154.4094 H   0  0  0  0  0  0  0  0  0  0  0  0
  151.5830  139.3718  158.1687 H   0  0  0  0  0  0  0  0  0  0  0  0
  153.0471  139.9376  157.4036 H   0  0  0  0  0  0  0  0  0  0  0  0
  150.2266  141.3467  155.4035 H   0  0  0  0  0  0  0  0  0  0  0  0
  150.6675  145.3903  158.4258 H   0  0  0  0  0  0  0  0  0  0  0  0
  152.0566  145.2361  160.4978 H   0  0  0  0  0  0  0  0  0  0  0  0
  153.2170  143.1439  161.0963 H   0  0  0  0  0  0  0  0  0  0  0  0
  153.0400  141.1152  159.6561 H   0  0  0  0  0  0  0  0  0  0  0  0
  151.7171  135.8026  156.8064 H   0  0  0  0  0  0  0  0  0  0  0  0
  149.8377  143.7601  156.1888 H   0  0  0  0  0  0  0  0  0  0  0  0
  1  2  1  0  0  0  0
  1 23  1  0  0  0  0
  1 24  1  0  0  0  0
  1 25  1  0  0  0  0
  2  3  1  0  0  0  0
  2 10  1  0  0  0  0
  2 44  1  0  0  0  0
  3  4  1  0  0  0  0
  3 26  1  0  0  0  0
  3 27  1  0  0  0  0
  4  9  1  0  0  0  0
  4  5  2  0  0  0  0
  5  6  1  0  0  0  0
  5 28  1  0  0  0  0
  6  7  2  0  0  0  0
  6 29  1  0  0  0  0
  7  8  1  0  0  0  0
  7 30  1  0  0  0  0
  8  9  2  0  0  0  0
  8 31  1  0  0  0  0
  9 32  1  0  0  0  0
 10 11  1  0  0  0  0
 10 33  1  0  0  0  0
 10 34  1  0  0  0  0
 11 12  1  0  0  0  0
 11 13  1  0  0  0  0
 11 35  1  0  0  0  0
 12 36  1  0  0  0  0
 13 14  1  0  0  0  0
 13 37  1  0  0  0  0
 13 38  1  0  0  0  0
 14 22  1  0  0  0  0
 14 15  1  0  0  0  0
 15 16  2  0  0  0  0
 15 39  1  0  0  0  0
 16 17  1  0  0  0  0
 16 45  1  0  0  0  0
 17 22  2  0  0  0  0
 17 18  1  0  0  0  0
 18 19  2  0  0  0  0
 18 40  1  0  0  0  0
 19 20  1  0  0  0  0
 19 41  1  0  0  0  0
 20 21  2  0  0  0  0
 20 42  1  0  0  0  0
 21 22  1  0  0  0  0
 21 43  1  0  0  0  0
M  CHG  1   2   1
M  CHG  1  16   1
M  END
> <s_m_source_file>
AV-unprocessed.smi

> <i_m_source_file_index>
1019

> <i_lp_mmshare_version>
43012

> <i_f3d_flags>
0

> <s_epik_input>
W2NIXTFbY0hdW2NIXVtjSF1bY0hdYzFbQ0gyXU4oW0NIM10pW0NIMl1bQ0BIXShbT0hdKVtDSDJdbihbY0hdbjIpYyhjMjMpW2NIXVtjSF1bY0hdW2NIXTM=

> <s_epik_cmdline>
J2VwaWtfcHl0aG9uJywgJy1waCcsICc3LjAnLCAnLXRuJywgJzgnLCAnLW1hJywgJzIwMCcsICctbWV0YWxfYmluZGluZycsICctaW1hZScsICc8aW5maWxlLm1hZT4nLCAnLW9tYWUnLCAnPG91dGZpbGUubWFlPic=

> <r_epik_Ionization_Penalty>
1.5198

> <r_epik_Ionization_Penalty_Charging>
1.5198

> <r_epik_Ionization_Penalty_Neutral>
3.13312e-06

> <r_epik_State_Penalty>
1.624

> <r_epik_Charging_Adjusted_Penalty>
3.1438

> <i_epik_Tot_Q>
2

> <i_epik_Tot_abs_Q>
2

> <r_epik_Metal_State_Penalty>
5.67392

> <b_epik_Metal_Only>
0

> <s_lp_Force_Field>
OPLS_2005

> <r_lp_Energy>
24.5939

> <b_lp_Chiralities_Consistent>
1

> <s_lp_Variant>
AV-unprocessed.smi:1019-5

> <Gold.Version>
5.8.1

> <Gold.Id.Protein>
6NUR|6NUR_protein|mol2

> <Gold.PLP.Fitness>
53.1400

> <Gold.PLP.PLP>
-47.4437

> <Gold.PLP.part.hbond>
-1.8930

> <Gold.PLP.part.metal>
0.0000

> <Gold.PLP.part.buried>
-7.0799

> <Gold.PLP.part.nonpolar>
-39.0773

> <Gold.PLP.part.repulsive>
0.1648

> <Gold.PLP.ligand.clash>
0.0000

> <Gold.PLP.ligand.torsion>
1.4832

> <Gold.PLP.Chemscore.Hbond>
2.8160

> <Gold.PLP.Chemscore.CHOScore>
0.0000

> <Gold.PLP.Chemscore.Metal>
0.0000

> <Gold.Chemscore.Hbonds>
donor molecule, donor type, donor heavy atom, donor atom, acceptor molecule, acceptor atom, score
      L1  H    16    45       P1  8028  1.59
      P1  H  7989  7998       L1    12  0.80

> <Gold.PLP.Chemscore.Internal.Correction>
0.2147

> <Gold.Rescore>
     Score         DG    S(hbond)    S(metal)    S(lipo)     H(rot)  DE(clash)    DE(int)     intcor
     17.74     -19.35       1.69        0.00     124.13       2.46       0.17       1.44       ----

> <Gold.Chemscore.Fitness>
17.7437

> <Gold.Chemscore.DG>
-19.3517

> <Gold.Chemscore.ZeroCoef>
-5.4800

> <Gold.Chemscore.Hbond>
1.6867

> <Gold.Chemscore.Metal>
0.0000

> <Gold.Chemscore.Lipo>
124.1329

> <Gold.Chemscore.Internal_Hbond>
0.0000

> <Gold.Chemscore.DEClash>
0.1667

> <Gold.Chemscore.DEInternal>
1.4413

> <Gold.Chemscore.Rot>
2.4552

> <Gold.Chemscore.Internal.Correction>
   9.000000E+99

> <Gold.Chemscore.Hbonds>
donor molecule, donor type, donor heavy atom, donor atom, acceptor molecule, acceptor atom, score
      L1  H    16    45       P1  8028  0.79
      P1  H  7989  7998       L1    12  0.28

> <Gold.Chemscore.Hbond.Weighted>
-5.6335

> <Gold.Chemscore.Metal.Weighted>
-0.0000

> <Gold.Chemscore.Lipo.Weighted>
-14.5236

> <Gold.Chemscore.Internal_Hbond.Weighted>
0.0000

> <Gold.Chemscore.DEClash.Weighted>
0.1667

> <Gold.Chemscore.DEInternal.Weighted>
1.4413

> <Gold.Chemscore.Rot.Weighted>
6.2854

> <Gold.Chemscore.Internal.Correction.Weighted>
   9.000000E+99

> <Gold.Protein.RotatedTorsions>
[ 6907 6896 6895 6894 ] final   17.73 input  -60.11 | X-H torsion
[ 7974 7965 7964 7962 ] final   69.52 input  175.53 | X-H torsion
[ 8008 7997 7996 7995 ] final -173.52 input   59.86 | X-H torsion
[ 10167 10162 10161 10158 ] final -147.96 input  -65.29 | X-H torsion
[ 10718 10713 10712 10709 ] final  -10.44 input   66.30 | X-H torsion
[ 10763 10752 10751 10750 ] final  108.55 input  -60.55 | X-H torsion
[ 11005 11000 10999 10996 ] final   84.06 input  -57.11 | X-H torsion

> <Gold.Protein.ActiveResidues>
 VAL166  LYS551  ARG553  GLY616  TRP617  ASP618  TYR619  PRO620  LYS621  CYS622 
 ASP623  PHE694  ASN695  SER759  ASP760  ASP761  ALA762  ILE779  LEU786  VAL792 
 PHE793  MET794  SER795  GLU796  ALA797  LYS798  CYS799  TRP800  GLU811  SER814 

> <Gold.Protein.RotatedAtoms>
  151.8542  135.0547  160.0462 H   0  0  0  0  0  0  0  0  0  0  0  0  # atno 6907 bound_to 6896
  152.2713  133.5380  159.5449 H   0  0  0  0  0  0  0  0  0  0  0  0  # atno 6908 bound_to 6896
  150.7152  134.0610  159.3873 H   0  0  0  0  0  0  0  0  0  0  0  0  # atno 6909 bound_to 6896
  145.7894  139.2926  143.1219 H   0  0  0  0  0  0  0  0  0  0  0  0  # atno 7974 bound_to 7965
  155.9585  140.1140  157.0916 H   0  0  0  0  0  0  0  0  0  0  0  0  # atno 8008 bound_to 7997
  154.4126  140.1186  156.5214 H   0  0  0  0  0  0  0  0  0  0  0  0  # atno 8009 bound_to 7997
  155.6751  140.3473  155.4835 H   0  0  0  0  0  0  0  0  0  0  0  0  # atno 8010 bound_to 7997
  139.7575  143.8426  152.2600 H   0  0  0  0  0  0  0  0  0  0  0  0  # atno 10167 bound_to 10162
  156.6735  130.5016  149.5993 H   0  0  0  0  0  0  0  0  0  0  0  0  # atno 10718 bound_to 10713
  153.4223  135.3808  155.2119 H   0  0  0  0  0  0  0  0  0  0  0  0  # atno 10763 bound_to 10752
  154.8745  135.3820  154.4369 H   0  0  0  0  0  0  0  0  0  0  0  0  # atno 10764 bound_to 10752
  153.4891  135.7088  153.5957 H   0  0  0  0  0  0  0  0  0  0  0  0  # atno 10765 bound_to 10752
  139.9011  134.8190  156.2394 H   0  0  0  0  0  0  0  0  0  0  0  0  # atno 11005 bound_to 11000
  145.9993  140.8535  143.0027 LP  0  0  0  0  0  0  0  0  0  0  0  0  # atno 17320 bound_to 7965
  144.6784  140.2328  143.7353 LP  0  0  0  0  0  0  0  0  0  0  0  0  # atno 17321 bound_to 7965
  139.8423  144.7204  150.9316 LP  0  0  0  0  0  0  0  0  0  0  0  0  # atno 17342 bound_to 10162
  140.7804  143.3973  151.1209 LP  0  0  0  0  0  0  0  0  0  0  0  0  # atno 17343 bound_to 10162
  156.1921  130.6566  151.1073 LP  0  0  0  0  0  0  0  0  0  0  0  0  # atno 17370 bound_to 10713
  157.7069  131.0752  150.6636 LP  0  0  0  0  0  0  0  0  0  0  0  0  # atno 17371 bound_to 10713
  141.0294  133.6997  156.1404 LP  0  0  0  0  0  0  0  0  0  0  0  0  # atno 17394 bound_to 11000
  140.7118  134.4453  157.5581 LP  0  0  0  0  0  0  0  0  0  0  0  0  # atno 17395 bound_to 11000

$$$$
