AV-unprocessed.smi:1082|AV-procd|sdf|4714|dock4
  -GOLD-   22720 3243D 1   1.00000     0.00000
 Structure written by MMmdl.
 48 50  0  0  0  0  0  0  0  0  4 V2000
  153.2711  138.4099  156.1624 O   0  0  0  0  0  0  0  0  0  0  0  0
  152.1456  138.0378  155.8115 C   0  0  0  0  0  0  0  0  0  0  0  0
  151.7980  136.8501  155.2491 N   0  5  0  0  0  0  0  0  0  0  0  0
  150.5261  136.1594  155.4753 C   0  0  0  0  0  0  0  0  0  0  0  0
  150.3785  134.9930  154.4768 C   0  0  0  0  0  0  0  0  0  0  0  0
  149.2637  134.0708  154.8238 N   0  3  0  0  0  0  0  0  0  0  0  0
  147.9236  134.7048  154.8361 C   0  0  0  0  0  0  0  0  0  0  0  0
  146.9383  133.6859  154.2464 C   0  0  0  0  0  0  0  0  0  0  0  0
  147.7149  132.3741  154.1976 C   0  0  0  0  0  0  0  0  0  0  0  0
  149.1555  132.8364  154.0120 C   0  0  0  0  0  0  0  0  0  0  0  0
  151.0893  138.8556  155.9593 N   0  0  0  0  0  0  0  0  0  0  0  0
  151.0827  140.2003  156.4210 C   0  0  0  0  0  0  0  0  0  0  0  0
  151.9261  140.6029  157.4867 C   0  0  0  0  0  0  0  0  0  0  0  0
  151.8531  141.9187  157.9808 C   0  0  0  0  0  0  0  0  0  0  0  0
  150.9241  142.8072  157.4123 C   0  0  0  0  0  0  0  0  0  0  0  0
  150.1252  142.3886  156.4088 N   0  3  0  0  0  0  0  0  0  0  0  0
  150.1582  141.1395  155.8800 C   0  0  0  0  0  0  0  0  0  0  0  0
  149.2681  140.8461  154.8216 N   0  0  0  0  0  0  0  0  0  0  0  0
  148.5480  141.9370  154.1712 C   0  0  0  0  0  0  0  0  0  0  0  0
  147.1693  141.3816  153.7982 C   0  0  0  0  0  0  0  0  0  0  0  0
  147.3815  139.8707  153.7741 C   0  0  0  0  0  0  0  0  0  0  0  0
  148.4133  139.6664  154.8801 C   0  0  0  0  0  0  0  0  0  0  0  0
  150.4671  135.7635  156.4890 H   0  0  0  0  0  0  0  0  0  0  0  0
  149.6647  136.8196  155.3660 H   0  0  0  0  0  0  0  0  0  0  0  0
  150.1927  135.4174  153.4887 H   0  0  0  0  0  0  0  0  0  0  0  0
  151.3122  134.4354  154.3961 H   0  0  0  0  0  0  0  0  0  0  0  0
  147.6650  134.9614  155.8638 H   0  0  0  0  0  0  0  0  0  0  0  0
  147.9048  135.6248  154.2498 H   0  0  0  0  0  0  0  0  0  0  0  0
  146.0191  133.6054  154.8273 H   0  0  0  0  0  0  0  0  0  0  0  0
  146.6646  133.9863  153.2341 H   0  0  0  0  0  0  0  0  0  0  0  0
  147.6142  131.8468  155.1473 H   0  0  0  0  0  0  0  0  0  0  0  0
  147.3767  131.7081  153.4033 H   0  0  0  0  0  0  0  0  0  0  0  0
  149.3347  133.0655  152.9602 H   0  0  0  0  0  0  0  0  0  0  0  0
  149.8758  132.0783  154.3220 H   0  0  0  0  0  0  0  0  0  0  0  0
  150.2242  138.5240  155.5585 H   0  0  0  0  0  0  0  0  0  0  0  0
  152.6154  139.9089  157.9447 H   0  0  0  0  0  0  0  0  0  0  0  0
  152.4922  142.2360  158.7917 H   0  0  0  0  0  0  0  0  0  0  0  0
  150.7924  143.8314  157.7297 H   0  0  0  0  0  0  0  0  0  0  0  0
  148.4611  142.8146  154.8138 H   0  0  0  0  0  0  0  0  0  0  0  0
  149.0891  142.2280  153.2703 H   0  0  0  0  0  0  0  0  0  0  0  0
  146.4485  141.6368  154.5764 H   0  0  0  0  0  0  0  0  0  0  0  0
  146.7958  141.7756  152.8526 H   0  0  0  0  0  0  0  0  0  0  0  0
  146.4633  139.3060  153.9383 H   0  0  0  0  0  0  0  0  0  0  0  0
  147.7994  139.5696  152.8123 H   0  0  0  0  0  0  0  0  0  0  0  0
  148.9866  138.7501  154.7351 H   0  0  0  0  0  0  0  0  0  0  0  0
  147.9093  139.6095  155.8459 H   0  0  0  0  0  0  0  0  0  0  0  0
  149.4339  133.7744  155.7749 H   0  0  0  0  0  0  0  0  0  0  0  0
  149.4603  143.0560  156.0178 H   0  0  0  0  0  0  0  0  0  0  0  0
  1  2  2  0  0  0  0
  2  3  1  0  0  0  0
  2 11  1  0  0  0  0
  3  4  1  0  0  0  0
  4  5  1  0  0  0  0
  4 23  1  0  0  0  0
  4 24  1  0  0  0  0
  5  6  1  0  0  0  0
  5 25  1  0  0  0  0
  5 26  1  0  0  0  0
  6 10  1  0  0  0  0
  6  7  1  0  0  0  0
  6 47  1  0  0  0  0
  7  8  1  0  0  0  0
  7 27  1  0  0  0  0
  7 28  1  0  0  0  0
  8  9  1  0  0  0  0
  8 29  1  0  0  0  0
  8 30  1  0  0  0  0
  9 10  1  0  0  0  0
  9 31  1  0  0  0  0
  9 32  1  0  0  0  0
 10 33  1  0  0  0  0
 10 34  1  0  0  0  0
 11 12  1  0  0  0  0
 11 35  1  0  0  0  0
 12 17  1  0  0  0  0
 12 13  2  0  0  0  0
 13 14  1  0  0  0  0
 13 36  1  0  0  0  0
 14 15  2  0  0  0  0
 14 37  1  0  0  0  0
 15 16  1  0  0  0  0
 15 38  1  0  0  0  0
 16 17  2  0  0  0  0
 16 48  1  0  0  0  0
 17 18  1  0  0  0  0
 18 22  1  0  0  0  0
 18 19  1  0  0  0  0
 19 20  1  0  0  0  0
 19 39  1  0  0  0  0
 19 40  1  0  0  0  0
 20 21  1  0  0  0  0
 20 41  1  0  0  0  0
 20 42  1  0  0  0  0
 21 22  1  0  0  0  0
 21 43  1  0  0  0  0
 21 44  1  0  0  0  0
 22 45  1  0  0  0  0
 22 46  1  0  0  0  0
M  CHG  1   3  -1
M  CHG  1   6   1
M  CHG  1  16   1
M  END
> <s_m_source_file>
AV-unprocessed.smi

> <i_m_source_file_index>
1082

> <i_lp_mmshare_version>
43012

> <i_f3d_flags>
0

> <s_epik_input>
W0NIMl0xW0NIMl1bQ0gyXVtDSDJdTjFbQ0gyXVtDSDJdW05IXUMoPU8pW05IXWMyW2NIXVtjSF1bY0hdbmMyTjNbQ0gyXVtDSDJdW0NIMl1bQ0gyXTM=

> <s_epik_cmdline>
J2VwaWtfcHl0aG9uJywgJy1waCcsICc3LjAnLCAnLXRuJywgJzgnLCAnLW1hJywgJzIwMCcsICctbWV0YWxfYmluZGluZycsICctaW1hZScsICc8aW5maWxlLm1hZT4nLCAnLW9tYWUnLCAnPG91dGZpbGUubWFlPic=

> <r_lp_tautomer_probability>
0.999994

> <r_epik_Ionization_Penalty>
8.55934

> <r_epik_Ionization_Penalty_Charging>
8.55934

> <r_epik_Ionization_Penalty_Neutral>
3.77642e-06

> <r_epik_State_Penalty>
8.06887

> <r_epik_Charging_Adjusted_Penalty>
16.6282

> <i_epik_Tot_Q>
1

> <i_epik_Tot_abs_Q>
3

> <r_epik_Metal_State_Penalty>
4.05607

> <b_epik_Metal_Only>
1

> <s_lp_Force_Field>
OPLS_2005

> <r_lp_Energy>
53.4939

> <b_lp_Chiralities_Consistent>
1

> <s_lp_Variant>
AV-unprocessed.smi:1082-3

> <Gold.Version>
5.8.1

> <Gold.Id.Protein>
6NUR|6NUR_protein|mol2

> <Gold.PLP.Fitness>
44.2228

> <Gold.PLP.PLP>
-30.5764

> <Gold.PLP.part.hbond>
-3.0000

> <Gold.PLP.part.metal>
0.0000

> <Gold.PLP.part.buried>
-1.4302

> <Gold.PLP.part.nonpolar>
-25.9674

> <Gold.PLP.part.repulsive>
0.3655

> <Gold.PLP.ligand.clash>
0.0927

> <Gold.PLP.ligand.torsion>
0.8144

> <Gold.PLP.Chemscore.Hbond>
4.9120

> <Gold.PLP.Chemscore.CHOScore>
0.0000

> <Gold.PLP.Chemscore.Metal>
0.0000

> <Gold.Chemscore.Hbonds>
donor molecule, donor type, donor heavy atom, donor atom, acceptor molecule, acceptor atom, score
      L1  H    16    48       P1  8028  2.00
      P1  H  7997  8010       L1     1  0.90
      P1  H 10752 10763       L1     3  2.00

> <Gold.PLP.Chemscore.Internal.Correction>
0.6320

> <Gold.Rescore>
     Score         DG    S(hbond)    S(metal)    S(lipo)     H(rot)  DE(clash)    DE(int)     intcor
     16.27     -18.42       2.46        0.00      75.44       1.60       0.01       2.13       ----

> <Gold.Chemscore.Fitness>
16.2743

> <Gold.Chemscore.DG>
-18.4194

> <Gold.Chemscore.ZeroCoef>
-5.4800

> <Gold.Chemscore.Hbond>
2.4577

> <Gold.Chemscore.Metal>
0.0000

> <Gold.Chemscore.Lipo>
75.4385

> <Gold.Chemscore.Internal_Hbond>
0.0000

> <Gold.Chemscore.DEClash>
0.0103

> <Gold.Chemscore.DEInternal>
2.1348

> <Gold.Chemscore.Rot>
1.5998

> <Gold.Chemscore.Internal.Correction>
   9.000000E+99

> <Gold.Chemscore.Hbonds>
donor molecule, donor type, donor heavy atom, donor atom, acceptor molecule, acceptor atom, score
      L1  H    16    48       P1  8028  0.97
      P1  H  7997  8010       L1     1  0.84
      P1  H 10752 10763       L1     3  0.57

> <Gold.Chemscore.Hbond.Weighted>
-8.2087

> <Gold.Chemscore.Metal.Weighted>
-0.0000

> <Gold.Chemscore.Lipo.Weighted>
-8.8263

> <Gold.Chemscore.Internal_Hbond.Weighted>
0.0000

> <Gold.Chemscore.DEClash.Weighted>
0.0103

> <Gold.Chemscore.DEInternal.Weighted>
2.1348

> <Gold.Chemscore.Rot.Weighted>
4.0956

> <Gold.Chemscore.Internal.Correction.Weighted>
   9.000000E+99

> <Gold.Protein.RotatedTorsions>
[ 6907 6896 6895 6894 ] final  136.05 input  -60.11 | X-H torsion
[ 7974 7965 7964 7962 ] final   97.59 input  175.53 | X-H torsion
[ 8008 7997 7996 7995 ] final   68.73 input   59.86 | X-H torsion
[ 10167 10162 10161 10158 ] final  -97.94 input  -65.29 | X-H torsion
[ 10718 10713 10712 10709 ] final  123.07 input   66.30 | X-H torsion
[ 10763 10752 10751 10750 ] final   50.49 input  -60.55 | X-H torsion
[ 11005 11000 10999 10996 ] final  148.96 input  -57.11 | X-H torsion

> <Gold.Protein.ActiveResidues>
 VAL166  LYS551  ARG553  GLY616  TRP617  ASP618  TYR619  PRO620  LYS621  CYS622 
 ASP623  PHE694  ASN695  SER759  ASP760  ASP761  ALA762  ILE779  LEU786  VAL792 
 PHE793  MET794  SER795  GLU796  ALA797  LYS798  CYS799  TRP800  GLU811  SER814 

> <Gold.Protein.RotatedAtoms>
  152.2937  133.5586  159.5573 H   0  0  0  0  0  0  0  0  0  0  0  0  # atno 6907 bound_to 6896
  150.7246  134.0392  159.3769 H   0  0  0  0  0  0  0  0  0  0  0  0  # atno 6908 bound_to 6896
  151.8296  135.0626  160.0486 H   0  0  0  0  0  0  0  0  0  0  0  0  # atno 6909 bound_to 6896
  145.4235  139.2318  143.3183 H   0  0  0  0  0  0  0  0  0  0  0  0  # atno 7974 bound_to 7965
  155.7129  140.3494  155.4981 H   0  0  0  0  0  0  0  0  0  0  0  0  # atno 8008 bound_to 7997
  155.9340  140.1089  157.1131 H   0  0  0  0  0  0  0  0  0  0  0  0  # atno 8009 bound_to 7997
  154.4090  140.1225  156.4826 H   0  0  0  0  0  0  0  0  0  0  0  0  # atno 8010 bound_to 7997
  140.2782  143.3299  152.0468 H   0  0  0  0  0  0  0  0  0  0  0  0  # atno 10167 bound_to 10162
  157.5694  131.1084  150.8396 H   0  0  0  0  0  0  0  0  0  0  0  0  # atno 10718 bound_to 10713
  152.9784  135.5877  154.4261 H   0  0  0  0  0  0  0  0  0  0  0  0  # atno 10763 bound_to 10752
  154.3880  135.2767  155.2174 H   0  0  0  0  0  0  0  0  0  0  0  0  # atno 10764 bound_to 10752
  154.4058  135.6093  153.5978 H   0  0  0  0  0  0  0  0  0  0  0  0  # atno 10765 bound_to 10752
  140.1004  134.8987  157.1787 H   0  0  0  0  0  0  0  0  0  0  0  0  # atno 11005 bound_to 11000
  146.2644  140.4962  142.8840 LP  0  0  0  0  0  0  0  0  0  0  0  0  # atno 17320 bound_to 7965
  144.8230  140.6581  143.6341 LP  0  0  0  0  0  0  0  0  0  0  0  0  # atno 17321 bound_to 7965
  139.4970  144.6610  151.6464 LP  0  0  0  0  0  0  0  0  0  0  0  0  # atno 17342 bound_to 10162
  140.5834  143.9907  150.6281 LP  0  0  0  0  0  0  0  0  0  0  0  0  # atno 17343 bound_to 10162
  156.8871  130.5200  149.5288 LP  0  0  0  0  0  0  0  0  0  0  0  0  # atno 17370 bound_to 10713
  156.0740  130.5766  150.9438 LP  0  0  0  0  0  0  0  0  0  0  0  0  # atno 17371 bound_to 10713
  140.3228  134.2897  155.7243 LP  0  0  0  0  0  0  0  0  0  0  0  0  # atno 17394 bound_to 11000
  141.2104  133.7721  156.9935 LP  0  0  0  0  0  0  0  0  0  0  0  0  # atno 17395 bound_to 11000

$$$$
