AV-unprocessed.smi:2063|AV-procd|sdf|8413|dock10
  -GOLD-   2272011103D 1   1.00000     0.00000
 Structure written by MMmdl.
 38 39  0  0  0  0  0  0  0  0  2 V2000
  151.9442  144.8025  159.5484 C   0  0  0  0  0  0  0  0  0  0  0  0
  151.9246  143.6787  160.5947 C   0  0  0  0  0  0  0  0  0  0  0  0
  152.5358  144.0965  161.9399 C   0  0  0  0  0  0  0  0  0  0  0  0
  152.5241  142.4114  160.0704 C   0  0  0  0  0  0  0  0  0  0  0  0
  153.5009  141.7500  160.6990 N   0  0  0  0  0  0  0  0  0  0  0  0
  153.8914  140.6114  160.0096 N   0  0  0  0  0  0  0  0  0  0  0  0
  153.2154  140.4313  158.8662 C   0  0  0  0  0  0  0  0  0  0  0  0
  153.4453  139.3905  158.0484 N   0  5  0  0  0  0  0  0  0  0  0  0
  152.4559  138.9292  157.2492 C   0  0  0  0  0  0  0  0  0  0  0  0
  151.5839  138.1157  157.5636 O   0  0  0  0  0  0  0  0  0  0  0  0
  152.4782  139.4417  156.0102 N   0  0  0  0  0  0  0  0  0  0  0  0
  151.5480  139.1254  154.9279 C   0  0  1  0  0  0  0  0  0  0  0  0
  151.5422  137.6065  154.6785 C   0  0  0  0  0  0  0  0  0  0  0  0
  150.1491  139.6627  155.2885 C   0  0  2  0  0  0  0  0  0  0  0  0
  149.0186  139.1494  154.3960 C   0  0  0  0  0  0  0  0  0  0  0  0
  147.9642  140.2138  154.5949 C   0  0  0  0  0  0  0  0  0  0  0  0
  148.8050  141.4847  154.6820 C   0  0  0  0  0  0  0  0  0  0  0  0
  150.0976  141.0783  155.1254 O   0  0  0  0  0  0  0  0  0  0  0  0
  151.9992  141.6720  158.5660 S   0  0  0  0  0  0  0  0  0  0  0  0
  151.4294  144.4975  158.6367 H   0  0  0  0  0  0  0  0  0  0  0  0
  152.9648  145.0759  159.2789 H   0  0  0  0  0  0  0  0  0  0  0  0
  151.4485  145.6978  159.9241 H   0  0  0  0  0  0  0  0  0  0  0  0
  150.8738  143.4621  160.7908 H   0  0  0  0  0  0  0  0  0  0  0  0
  152.4291  143.3043  162.6815 H   0  0  0  0  0  0  0  0  0  0  0  0
  152.0452  144.9868  162.3347 H   0  0  0  0  0  0  0  0  0  0  0  0
  153.5986  144.3195  161.8404 H   0  0  0  0  0  0  0  0  0  0  0  0
  153.2143  140.0990  155.7972 H   0  0  0  0  0  0  0  0  0  0  0  0
  151.8785  139.6280  154.0171 H   0  0  0  0  0  0  0  0  0  0  0  0
  150.8860  137.3405  153.8501 H   0  0  0  0  0  0  0  0  0  0  0  0
  151.2039  137.0620  155.5606 H   0  0  0  0  0  0  0  0  0  0  0  0
  152.5394  137.2437  154.4275 H   0  0  0  0  0  0  0  0  0  0  0  0
  149.9134  139.4371  156.3301 H   0  0  0  0  0  0  0  0  0  0  0  0
  149.3332  139.1257  153.3518 H   0  0  0  0  0  0  0  0  0  0  0  0
  148.6730  138.1533  154.6737 H   0  0  0  0  0  0  0  0  0  0  0  0
  147.2264  140.2444  153.7928 H   0  0  0  0  0  0  0  0  0  0  0  0
  147.4394  140.0458  155.5362 H   0  0  0  0  0  0  0  0  0  0  0  0
  148.9063  141.9479  153.7001 H   0  0  0  0  0  0  0  0  0  0  0  0
  148.3678  142.2190  155.3588 H   0  0  0  0  0  0  0  0  0  0  0  0
  1  2  1  0  0  0  0
  1 20  1  0  0  0  0
  1 21  1  0  0  0  0
  1 22  1  0  0  0  0
  2  3  1  0  0  0  0
  2  4  1  0  0  0  0
  2 23  1  0  0  0  0
  3 24  1  0  0  0  0
  3 25  1  0  0  0  0
  3 26  1  0  0  0  0
  4 19  1  0  0  0  0
  4  5  2  0  0  0  0
  5  6  1  0  0  0  0
  6  7  2  0  0  0  0
  7  8  1  0  0  0  0
  7 19  1  0  0  0  0
  8  9  1  0  0  0  0
  9 10  2  0  0  0  0
  9 11  1  0  0  0  0
 11 12  1  0  0  0  0
 11 27  1  0  0  0  0
 12 13  1  0  0  0  0
 12 14  1  0  0  0  0
 12 28  1  0  0  0  0
 13 29  1  0  0  0  0
 13 30  1  0  0  0  0
 13 31  1  0  0  0  0
 14 18  1  0  0  0  0
 14 15  1  0  0  0  0
 14 32  1  0  0  0  0
 15 16  1  0  0  0  0
 15 33  1  0  0  0  0
 15 34  1  0  0  0  0
 16 17  1  0  0  0  0
 16 35  1  0  0  0  0
 16 36  1  0  0  0  0
 17 18  1  0  0  0  0
 17 37  1  0  0  0  0
 17 38  1  0  0  0  0
M  CHG  1   8  -1
M  END
> <s_m_source_file>
AV-unprocessed.smi

> <i_m_source_file_index>
2063

> <i_lp_mmshare_version>
43012

> <i_f3d_flags>
0

> <s_epik_input>
W0NIM11bQ0hdKFtDSDNdKWMxbm5jKHMxKVtOSF1DKD1PKVtOSF1bQ0BIXShbQ0gzXSlbQ0BASF0yW0NIMl1bQ0gyXVtDSDJdTzI=

> <s_epik_cmdline>
J2VwaWtfcHl0aG9uJywgJy1waCcsICc3LjAnLCAnLXRuJywgJzgnLCAnLW1hJywgJzIwMCcsICctbWV0YWxfYmluZGluZycsICctaW1hZScsICc8aW5maWxlLm1hZT4nLCAnLW9tYWUnLCAnPG91dGZpbGUubWFlPic=

> <r_lp_tautomer_probability>
1

> <r_epik_Ionization_Penalty>
4.37022

> <r_epik_Ionization_Penalty_Charging>
4.21437

> <r_epik_Ionization_Penalty_Neutral>
0.15585

> <r_epik_State_Penalty>
4.21389

> <r_epik_Charging_Adjusted_Penalty>
8.42826

> <i_epik_Tot_Q>
-1

> <i_epik_Tot_abs_Q>
1

> <r_epik_Metal_State_Penalty>
0.693772

> <b_epik_Metal_Only>
1

> <s_lp_Force_Field>
OPLS_2005

> <r_lp_Energy>
10.2416

> <b_lp_Chiralities_Consistent>
1

> <s_lp_Variant>
AV-unprocessed.smi:2063-6

> <Gold.Version>
5.8.1

> <Gold.Id.Protein>
6NUR|6NUR_protein|mol2

> <Gold.PLP.Fitness>
42.2924

> <Gold.PLP.PLP>
-37.6209

> <Gold.PLP.part.hbond>
-2.0000

> <Gold.PLP.part.metal>
0.0000

> <Gold.PLP.part.buried>
-2.7526

> <Gold.PLP.part.nonpolar>
-32.6008

> <Gold.PLP.part.repulsive>
1.2157

> <Gold.PLP.ligand.clash>
0.0000

> <Gold.PLP.ligand.torsion>
1.1971

> <Gold.PLP.Chemscore.Hbond>
2.3200

> <Gold.PLP.Chemscore.CHOScore>
0.0000

> <Gold.PLP.Chemscore.Metal>
0.0000

> <Gold.Chemscore.Hbonds>
donor molecule, donor type, donor heavy atom, donor atom, acceptor molecule, acceptor atom, score
      P1  H  7989  7998       L1    18  0.15
      P1  H  7997  8009       L1     8  2.00

> <Gold.PLP.Chemscore.Internal.Correction>
0.1058

> <Gold.Rescore>
     Score         DG    S(hbond)    S(metal)    S(lipo)     H(rot)  DE(clash)    DE(int)     intcor
     11.34     -13.82       0.21        0.00      95.70       1.39       0.18       2.30       ----

> <Gold.Chemscore.Fitness>
11.3386

> <Gold.Chemscore.DG>
-13.8212

> <Gold.Chemscore.ZeroCoef>
-5.4800

> <Gold.Chemscore.Hbond>
0.2099

> <Gold.Chemscore.Metal>
0.0000

> <Gold.Chemscore.Lipo>
95.6984

> <Gold.Chemscore.Internal_Hbond>
0.0000

> <Gold.Chemscore.DEClash>
0.1816

> <Gold.Chemscore.DEInternal>
2.3010

> <Gold.Chemscore.Rot>
1.3893

> <Gold.Chemscore.Internal.Correction>
   9.000000E+99

> <Gold.Chemscore.Hbonds>
donor molecule, donor type, donor heavy atom, donor atom, acceptor molecule, acceptor atom, score
      P1  H  7997  8009       L1     8  0.17

> <Gold.Chemscore.Hbond.Weighted>
-0.7012

> <Gold.Chemscore.Metal.Weighted>
-0.0000

> <Gold.Chemscore.Lipo.Weighted>
-11.1967

> <Gold.Chemscore.Internal_Hbond.Weighted>
0.0000

> <Gold.Chemscore.DEClash.Weighted>
0.1816

> <Gold.Chemscore.DEInternal.Weighted>
2.3010

> <Gold.Chemscore.Rot.Weighted>
3.5567

> <Gold.Chemscore.Internal.Correction.Weighted>
   9.000000E+99

> <Gold.Protein.RotatedTorsions>
[ 6907 6896 6895 6894 ] final  173.67 input  -60.11 | X-H torsion
[ 7974 7965 7964 7962 ] final   74.38 input  175.53 | X-H torsion
[ 8008 7997 7996 7995 ] final  154.09 input   59.86 | X-H torsion
[ 10167 10162 10161 10158 ] final -152.21 input  -65.29 | X-H torsion
[ 10718 10713 10712 10709 ] final   79.88 input   66.30 | X-H torsion
[ 10763 10752 10751 10750 ] final  146.61 input  -60.55 | X-H torsion
[ 11005 11000 10999 10996 ] final   73.35 input  -57.11 | X-H torsion

> <Gold.Protein.ActiveResidues>
 VAL166  LYS551  ARG553  GLY616  TRP617  ASP618  TYR619  PRO620  LYS621  CYS622 
 ASP623  PHE694  ASN695  SER759  ASP760  ASP761  ALA762  ILE779  LEU786  VAL792 
 PHE793  MET794  SER795  GLU796  ALA797  LYS798  CYS799  TRP800  GLU811  SER814 

> <Gold.Protein.RotatedAtoms>
  151.7645  133.3336  159.3426 H   0  0  0  0  0  0  0  0  0  0  0  0  # atno 6907 bound_to 6896
  150.7485  134.6075  159.6078 H   0  0  0  0  0  0  0  0  0  0  0  0  # atno 6908 bound_to 6896
  152.3383  134.7171  160.0322 H   0  0  0  0  0  0  0  0  0  0  0  0  # atno 6909 bound_to 6896
  145.7289  139.2676  143.1552 H   0  0  0  0  0  0  0  0  0  0  0  0  # atno 7974 bound_to 7965
  156.2549  140.1976  156.6591 H   0  0  0  0  0  0  0  0  0  0  0  0  # atno 8008 bound_to 7997
  154.6478  140.0575  156.9945 H   0  0  0  0  0  0  0  0  0  0  0  0  # atno 8009 bound_to 7997
  155.1464  140.3247  155.4443 H   0  0  0  0  0  0  0  0  0  0  0  0  # atno 8010 bound_to 7997
  139.7201  143.8970  152.2500 H   0  0  0  0  0  0  0  0  0  0  0  0  # atno 10167 bound_to 10162
  157.6790  130.9934  150.1998 H   0  0  0  0  0  0  0  0  0  0  0  0  # atno 10718 bound_to 10713
  154.0246  135.2903  155.3376 H   0  0  0  0  0  0  0  0  0  0  0  0  # atno 10763 bound_to 10752
  154.7025  135.5182  153.8550 H   0  0  0  0  0  0  0  0  0  0  0  0  # atno 10764 bound_to 10752
  153.0666  135.6633  154.0465 H   0  0  0  0  0  0  0  0  0  0  0  0  # atno 10765 bound_to 10752
  139.9445  134.7339  156.1015 H   0  0  0  0  0  0  0  0  0  0  0  0  # atno 11005 bound_to 11000
  146.0556  140.8025  142.9760 LP  0  0  0  0  0  0  0  0  0  0  0  0  # atno 17320 bound_to 7965
  144.6898  140.3118  143.7247 LP  0  0  0  0  0  0  0  0  0  0  0  0  # atno 17321 bound_to 7965
  139.8864  144.6990  150.8820 LP  0  0  0  0  0  0  0  0  0  0  0  0  # atno 17342 bound_to 10162
  140.7752  143.3620  151.1809 LP  0  0  0  0  0  0  0  0  0  0  0  0  # atno 17343 bound_to 10162
  156.2691  130.3719  149.8050 LP  0  0  0  0  0  0  0  0  0  0  0  0  # atno 17370 bound_to 10713
  156.5772  130.8450  151.3373 LP  0  0  0  0  0  0  0  0  0  0  0  0  # atno 17371 bound_to 10713
  141.1090  133.6650  156.2934 LP  0  0  0  0  0  0  0  0  0  0  0  0  # atno 17394 bound_to 11000
  140.5870  134.5689  157.5491 LP  0  0  0  0  0  0  0  0  0  0  0  0  # atno 17395 bound_to 11000

$$$$
