AV-unprocessed.smi:1006|AV-procd|sdf|4391|dock10
  -GOLD-   22720 2323D 1   1.00000     0.00000
 Structure written by MMmdl.
 45 47  0  0  0  0  0  0  0  0  1 V2000
  143.0814  145.7122  156.2877 C   0  0  0  0  0  0  0  0  0  0  0  0
  143.9989  144.9997  155.3165 C   0  0  0  0  0  0  0  0  0  0  0  0
  144.0554  145.3634  153.9541 C   0  0  0  0  0  0  0  0  0  0  0  0
  144.9505  144.6274  153.1494 C   0  0  0  0  0  0  0  0  0  0  0  0
  145.0823  144.9064  151.7914 N   0  0  0  0  0  0  0  0  0  0  0  0
  145.7099  143.6315  153.6552 N   0  0  0  0  0  0  0  0  0  0  0  0
  145.5717  143.3783  154.9588 C   0  0  0  0  0  0  0  0  0  0  0  0
  146.5871  142.0498  155.5897 S   0  0  0  0  0  0  0  0  0  0  0  0
  147.7186  141.7317  154.2009 C   0  0  0  0  0  0  0  0  0  0  0  0
  149.0503  141.1003  154.6470 C   0  0  1  0  0  0  0  0  0  0  0  0
  149.8028  140.7391  153.5067 O   0  0  0  0  0  0  0  0  0  0  0  0
  149.9190  142.0410  155.5069 C   0  0  0  0  0  0  0  0  0  0  0  0
  150.6676  141.3359  156.5322 N   0  0  0  0  0  0  0  0  0  0  0  0
  150.9934  140.0294  156.5423 C   0  0  0  0  0  0  0  0  0  0  0  0
  151.6777  139.5807  157.5908 N   0  0  0  0  0  0  0  0  0  0  0  0
  151.8111  140.7304  158.3503 C   0  0  0  0  0  0  0  0  0  0  0  0
  152.4341  140.9368  159.6007 C   0  0  0  0  0  0  0  0  0  0  0  0
  152.4435  142.2145  160.2042 C   0  0  0  0  0  0  0  0  0  0  0  0
  153.1234  142.3904  161.5507 C   0  0  0  0  0  0  0  0  0  0  0  0
  151.8227  143.3116  159.5549 C   0  0  0  0  0  0  0  0  0  0  0  0
  151.8152  144.6926  160.1856 C   0  0  0  0  0  0  0  0  0  0  0  0
  151.1997  143.1239  158.3037 C   0  0  0  0  0  0  0  0  0  0  0  0
  151.1946  141.8471  157.7141 C   0  0  0  0  0  0  0  0  0  0  0  0
  144.7624  144.0051  155.8185 N   0  0  0  0  0  0  0  0  0  0  0  0
  143.5686  146.6050  156.6794 H   0  0  0  0  0  0  0  0  0  0  0  0
  142.8212  145.0661  157.1270 H   0  0  0  0  0  0  0  0  0  0  0  0
  142.1571  146.0133  155.7942 H   0  0  0  0  0  0  0  0  0  0  0  0
  143.4471  146.1606  153.5521 H   0  0  0  0  0  0  0  0  0  0  0  0
  144.5462  145.6369  151.3462 H   0  0  0  0  0  0  0  0  0  0  0  0
  145.7197  144.3835  151.2084 H   0  0  0  0  0  0  0  0  0  0  0  0
  147.2228  141.0876  153.4735 H   0  0  0  0  0  0  0  0  0  0  0  0
  147.9087  142.6877  153.7138 H   0  0  0  0  0  0  0  0  0  0  0  0
  148.8414  140.1916  155.2130 H   0  0  0  0  0  0  0  0  0  0  0  0
  149.2683  140.1822  152.9611 H   0  0  0  0  0  0  0  0  0  0  0  0
  150.6256  142.5839  154.8775 H   0  0  0  0  0  0  0  0  0  0  0  0
  149.2967  142.7930  155.9937 H   0  0  0  0  0  0  0  0  0  0  0  0
  150.7076  139.3696  155.7360 H   0  0  0  0  0  0  0  0  0  0  0  0
  152.9043  140.1002  160.0963 H   0  0  0  0  0  0  0  0  0  0  0  0
  153.9038  143.1495  161.4895 H   0  0  0  0  0  0  0  0  0  0  0  0
  153.5870  141.4624  161.8873 H   0  0  0  0  0  0  0  0  0  0  0  0
  152.3993  142.6969  162.3057 H   0  0  0  0  0  0  0  0  0  0  0  0
  151.2383  145.3991  159.5881 H   0  0  0  0  0  0  0  0  0  0  0  0
  152.8317  145.0767  160.2725 H   0  0  0  0  0  0  0  0  0  0  0  0
  151.3711  144.6582  161.1806 H   0  0  0  0  0  0  0  0  0  0  0  0
  150.7206  143.9502  157.7997 H   0  0  0  0  0  0  0  0  0  0  0  0
  1  2  1  0  0  0  0
  1 25  1  0  0  0  0
  1 26  1  0  0  0  0
  1 27  1  0  0  0  0
  2 24  1  0  0  0  0
  2  3  2  0  0  0  0
  3  4  1  0  0  0  0
  3 28  1  0  0  0  0
  4  5  1  0  0  0  0
  4  6  2  0  0  0  0
  5 29  1  0  0  0  0
  5 30  1  0  0  0  0
  6  7  1  0  0  0  0
  7  8  1  0  0  0  0
  7 24  2  0  0  0  0
  8  9  1  0  0  0  0
  9 10  1  0  0  0  0
  9 31  1  0  0  0  0
  9 32  1  0  0  0  0
 10 11  1  0  0  0  0
 10 12  1  0  0  0  0
 10 33  1  0  0  0  0
 11 34  1  0  0  0  0
 12 13  1  0  0  0  0
 12 35  1  0  0  0  0
 12 36  1  0  0  0  0
 13 23  1  0  0  0  0
 13 14  1  0  0  0  0
 14 15  2  0  0  0  0
 14 37  1  0  0  0  0
 15 16  1  0  0  0  0
 16 23  2  0  0  0  0
 16 17  1  0  0  0  0
 17 18  2  0  0  0  0
 17 38  1  0  0  0  0
 18 19  1  0  0  0  0
 18 20  1  0  0  0  0
 19 39  1  0  0  0  0
 19 40  1  0  0  0  0
 19 41  1  0  0  0  0
 20 21  1  0  0  0  0
 20 22  2  0  0  0  0
 21 42  1  0  0  0  0
 21 43  1  0  0  0  0
 21 44  1  0  0  0  0
 22 23  1  0  0  0  0
 22 45  1  0  0  0  0
M  END
> <s_m_source_file>
AV-unprocessed.smi

> <i_m_source_file_index>
1006

> <i_lp_mmshare_version>
43012

> <i_f3d_flags>
0

> <s_epik_input>
W0NIM11jMVtjSF1jKFtOSDJdKW5jKG4xKVNbQ0gyXVtDQEhdKFtPSF0pW0NIMl1uKFtjSF1uMiljKGMyMylbY0hdYyhbQ0gzXSljKFtjSF0zKVtDSDNd

> <s_epik_cmdline>
J2VwaWtfcHl0aG9uJywgJy1waCcsICc3LjAnLCAnLXRuJywgJzgnLCAnLW1hJywgJzIwMCcsICctbWV0YWxfYmluZGluZycsICctaW1hZScsICc8aW5maWxlLm1hZT4nLCAnLW9tYWUnLCAnPG91dGZpbGUubWFlPic=

> <r_lp_tautomer_probability>
1

> <r_epik_Ionization_Penalty>
0.490208

> <r_epik_Ionization_Penalty_Charging>
0

> <r_epik_Ionization_Penalty_Neutral>
0.490208

> <r_epik_State_Penalty>
0.473203

> <r_epik_Charging_Adjusted_Penalty>
0.473203

> <i_epik_Tot_Q>
0

> <i_epik_Tot_abs_Q>
0

> <r_epik_Metal_State_Penalty>
0.354099

> <b_epik_Metal_Only>
0

> <s_lp_Force_Field>
OPLS_2005

> <r_lp_Energy>
2.6746

> <b_lp_Chiralities_Consistent>
1

> <s_lp_Variant>
AV-unprocessed.smi:1006-2

> <Gold.Version>
5.8.1

> <Gold.Id.Protein>
6NUR|6NUR_protein|mol2

> <Gold.PLP.Fitness>
54.8967

> <Gold.PLP.PLP>
-51.7636

> <Gold.PLP.part.hbond>
-2.4260

> <Gold.PLP.part.metal>
0.0000

> <Gold.PLP.part.buried>
-6.3736

> <Gold.PLP.part.nonpolar>
-44.0346

> <Gold.PLP.part.repulsive>
1.2306

> <Gold.PLP.ligand.clash>
0.0000

> <Gold.PLP.ligand.torsion>
1.0345

> <Gold.PLP.Chemscore.Hbond>
1.7273

> <Gold.PLP.Chemscore.CHOScore>
0.0000

> <Gold.PLP.Chemscore.Metal>
0.0000

> <Gold.Chemscore.Hbonds>
donor molecule, donor type, donor heavy atom, donor atom, acceptor molecule, acceptor atom, score
      L1  H    11    34       P1  7957  0.40
      P1  H  7989  7998       L1    11  0.38
      P1  H  8011  8017       L1    11  0.93

> <Gold.PLP.Chemscore.Internal.Correction>
0.0203

> <Gold.Rescore>
     Score         DG    S(hbond)    S(metal)    S(lipo)     H(rot)  DE(clash)    DE(int)     intcor
     13.20     -14.42       0.78        0.00     115.96       2.82       0.17       1.04       ----

> <Gold.Chemscore.Fitness>
13.2046

> <Gold.Chemscore.DG>
-14.4200

> <Gold.Chemscore.ZeroCoef>
-5.4800

> <Gold.Chemscore.Hbond>
0.7767

> <Gold.Chemscore.Metal>
0.0000

> <Gold.Chemscore.Lipo>
115.9591

> <Gold.Chemscore.Internal_Hbond>
0.0000

> <Gold.Chemscore.DEClash>
0.1724

> <Gold.Chemscore.DEInternal>
1.0430

> <Gold.Chemscore.Rot>
2.8209

> <Gold.Chemscore.Internal.Correction>
   9.000000E+99

> <Gold.Chemscore.Hbonds>
donor molecule, donor type, donor heavy atom, donor atom, acceptor molecule, acceptor atom, score
      L1  H    11    34       P1  7957  0.40
      P1  H  7989  7998       L1    11  0.38
      P1  H  8011  8017       L1    11  0.10

> <Gold.Chemscore.Hbond.Weighted>
-2.5943

> <Gold.Chemscore.Metal.Weighted>
-0.0000

> <Gold.Chemscore.Lipo.Weighted>
-13.5672

> <Gold.Chemscore.Internal_Hbond.Weighted>
0.0000

> <Gold.Chemscore.DEClash.Weighted>
0.1724

> <Gold.Chemscore.DEInternal.Weighted>
1.0430

> <Gold.Chemscore.Rot.Weighted>
7.2215

> <Gold.Chemscore.Internal.Correction.Weighted>
   9.000000E+99

> <Gold.Protein.RotatedTorsions>
[ 6907 6896 6895 6894 ] final   58.12 input  -60.11 | X-H torsion
[ 7974 7965 7964 7962 ] final   10.50 input  175.53 | X-H torsion
[ 8008 7997 7996 7995 ] final  -38.86 input   59.86 | X-H torsion
[ 10167 10162 10161 10158 ] final   65.36 input  -65.29 | X-H torsion
[ 10718 10713 10712 10709 ] final  152.66 input   66.30 | X-H torsion
[ 10763 10752 10751 10750 ] final  152.15 input  -60.55 | X-H torsion
[ 11005 11000 10999 10996 ] final  -99.45 input  -57.11 | X-H torsion

> <Gold.Protein.ActiveResidues>
 VAL166  LYS551  ARG553  GLY616  TRP617  ASP618  TYR619  PRO620  LYS621  CYS622 
 ASP623  PHE694  ASN695  SER759  ASP760  ASP761  ALA762  ILE779  LEU786  VAL792 
 PHE793  MET794  SER795  GLU796  ALA797  LYS798  CYS799  TRP800  GLU811  SER814 

> <Gold.Protein.RotatedAtoms>
  152.3795  134.6613  160.0147 H   0  0  0  0  0  0  0  0  0  0  0  0  # atno 6907 bound_to 6896
  151.6880  133.3306  159.3244 H   0  0  0  0  0  0  0  0  0  0  0  0  # atno 6908 bound_to 6896
  150.7736  134.6659  159.6409 H   0  0  0  0  0  0  0  0  0  0  0  0  # atno 6909 bound_to 6896
  146.2387  139.9625  142.8457 H   0  0  0  0  0  0  0  0  0  0  0  0  # atno 7974 bound_to 7965
  154.4031  140.1567  156.2769 H   0  0  0  0  0  0  0  0  0  0  0  0  # atno 8008 bound_to 7997
  155.8904  140.3439  155.5930 H   0  0  0  0  0  0  0  0  0  0  0  0  # atno 8009 bound_to 7997
  155.7565  140.0812  157.2167 H   0  0  0  0  0  0  0  0  0  0  0  0  # atno 8010 bound_to 7997
  140.1122  144.4808  150.6971 H   0  0  0  0  0  0  0  0  0  0  0  0  # atno 10167 bound_to 10162
  157.2549  131.0786  151.1705 H   0  0  0  0  0  0  0  0  0  0  0  0  # atno 10718 bound_to 10713
  154.1153  135.2836  155.3221 H   0  0  0  0  0  0  0  0  0  0  0  0  # atno 10763 bound_to 10752
  154.6461  135.5385  153.7849 H   0  0  0  0  0  0  0  0  0  0  0  0  # atno 10764 bound_to 10752
  153.0331  135.6498  154.1310 H   0  0  0  0  0  0  0  0  0  0  0  0  # atno 10765 bound_to 10752
  141.1308  133.8322  157.0973 H   0  0  0  0  0  0  0  0  0  0  0  0  # atno 11005 bound_to 11000
  145.1757  140.9743  143.4295 LP  0  0  0  0  0  0  0  0  0  0  0  0  # atno 17320 bound_to 7965
  144.9988  139.3618  143.6178 LP  0  0  0  0  0  0  0  0  0  0  0  0  # atno 17321 bound_to 7965
  140.6919  143.2381  151.5107 LP  0  0  0  0  0  0  0  0  0  0  0  0  # atno 17342 bound_to 10162
  139.5613  144.2149  152.1696 LP  0  0  0  0  0  0  0  0  0  0  0  0  # atno 17343 bound_to 10162
  157.3238  130.6950  149.6284 LP  0  0  0  0  0  0  0  0  0  0  0  0  # atno 17370 bound_to 10713
  155.9665  130.4327  150.4977 LP  0  0  0  0  0  0  0  0  0  0  0  0  # atno 17371 bound_to 10713
  140.0355  134.9880  157.0863 LP  0  0  0  0  0  0  0  0  0  0  0  0  # atno 17394 bound_to 11000
  140.4217  134.1873  155.7165 LP  0  0  0  0  0  0  0  0  0  0  0  0  # atno 17395 bound_to 11000

$$$$
