AV-unprocessed.smi:2076|AV-procd|sdf|8457|dock2
  -GOLD-   2272011153D 1   1.00000     0.00000
 Structure written by MMmdl.
 44 45  0  0  0  0  0  0  0  0  1 V2000
  146.6646  128.8336  152.0365 C   0  0  0  0  0  0  0  0  0  0  0  0
  146.1105  130.2175  151.8694 C   0  0  0  0  0  0  0  0  0  0  0  0
  144.8038  130.6006  151.4564 C   0  0  0  0  0  0  0  0  0  0  0  0
  144.8333  131.9667  151.4668 C   0  0  0  0  0  0  0  0  0  0  0  0
  143.7693  132.9554  151.1198 C   0  0  0  0  0  0  0  0  0  0  0  0
  146.1030  132.3376  151.8730 N   0  0  0  0  0  0  0  0  0  0  0  0
  146.6651  133.6714  152.0260 C   0  0  0  0  0  0  0  0  0  0  0  0
  147.3259  133.8284  153.3960 C   0  0  0  0  0  0  0  0  0  0  0  0
  147.2141  132.9407  154.2411 O   0  0  0  0  0  0  0  0  0  0  0  0
  147.9882  134.9759  153.6087 N   0  0  0  0  0  0  0  0  0  0  0  0
  148.5604  135.3918  154.8845 C   0  0  0  0  0  0  0  0  0  0  0  0
  150.0825  135.7083  154.7942 C   0  0  2  0  0  0  0  0  0  0  0  0
  150.8559  134.7337  155.7205 C   0  0  0  0  0  0  0  0  0  0  0  0
  150.4005  137.1301  155.0625 N   0  0  0  0  0  0  0  0  0  0  0  0
  149.4487  138.0524  154.4320 C   0  0  0  0  0  0  0  0  0  0  0  0
  149.7948  139.5311  154.6793 C   0  0  0  0  0  0  0  0  0  0  0  0
  151.1126  139.7995  154.2213 O   0  0  0  0  0  0  0  0  0  0  0  0
  152.0778  138.9807  154.8663 C   0  0  0  0  0  0  0  0  0  0  0  0
  151.7494  137.4987  154.6166 C   0  0  0  0  0  0  0  0  0  0  0  0
  146.8825  131.2618  152.1203 N   0  0  0  0  0  0  0  0  0  0  0  0
  145.9670  128.0826  151.6656 H   0  0  0  0  0  0  0  0  0  0  0  0
  146.8610  128.6148  153.0861 H   0  0  0  0  0  0  0  0  0  0  0  0
  147.6003  128.7147  151.4893 H   0  0  0  0  0  0  0  0  0  0  0  0
  143.9708  129.9675  151.1880 H   0  0  0  0  0  0  0  0  0  0  0  0
  142.8377  132.4508  150.8633 H   0  0  0  0  0  0  0  0  0  0  0  0
  144.0669  133.5622  150.2645 H   0  0  0  0  0  0  0  0  0  0  0  0
  143.5687  133.6229  151.9580 H   0  0  0  0  0  0  0  0  0  0  0  0
  147.3923  133.8454  151.2322 H   0  0  0  0  0  0  0  0  0  0  0  0
  145.8777  134.4175  151.9067 H   0  0  0  0  0  0  0  0  0  0  0  0
  148.0286  135.6437  152.8520 H   0  0  0  0  0  0  0  0  0  0  0  0
  147.9818  136.2488  155.2268 H   0  0  0  0  0  0  0  0  0  0  0  0
  148.3898  134.5941  155.6078 H   0  0  0  0  0  0  0  0  0  0  0  0
  150.3957  135.4857  153.7728 H   0  0  0  0  0  0  0  0  0  0  0  0
  150.5937  133.6910  155.5438 H   0  0  0  0  0  0  0  0  0  0  0  0
  150.6569  134.9476  156.7711 H   0  0  0  0  0  0  0  0  0  0  0  0
  151.9325  134.7800  155.5646 H   0  0  0  0  0  0  0  0  0  0  0  0
  149.4069  137.8651  153.3580 H   0  0  0  0  0  0  0  0  0  0  0  0
  148.4448  137.8964  154.8208 H   0  0  0  0  0  0  0  0  0  0  0  0
  149.0961  140.1765  154.1472 H   0  0  0  0  0  0  0  0  0  0  0  0
  149.7124  139.7755  155.7398 H   0  0  0  0  0  0  0  0  0  0  0  0
  153.0662  139.2203  154.4745 H   0  0  0  0  0  0  0  0  0  0  0  0
  152.0964  139.1980  155.9355 H   0  0  0  0  0  0  0  0  0  0  0  0
  152.5014  136.9144  155.1436 H   0  0  0  0  0  0  0  0  0  0  0  0
  151.8617  137.2773  153.5541 H   0  0  0  0  0  0  0  0  0  0  0  0
  1  2  1  0  0  0  0
  1 21  1  0  0  0  0
  1 22  1  0  0  0  0
  1 23  1  0  0  0  0
  2 20  2  0  0  0  0
  2  3  1  0  0  0  0
  3  4  2  0  0  0  0
  3 24  1  0  0  0  0
  4  5  1  0  0  0  0
  4  6  1  0  0  0  0
  5 25  1  0  0  0  0
  5 26  1  0  0  0  0
  5 27  1  0  0  0  0
  6  7  1  0  0  0  0
  6 20  1  0  0  0  0
  7  8  1  0  0  0  0
  7 28  1  0  0  0  0
  7 29  1  0  0  0  0
  8  9  2  0  0  0  0
  8 10  1  0  0  0  0
 10 11  1  0  0  0  0
 10 30  1  0  0  0  0
 11 12  1  0  0  0  0
 11 31  1  0  0  0  0
 11 32  1  0  0  0  0
 12 13  1  0  0  0  0
 12 14  1  0  0  0  0
 12 33  1  0  0  0  0
 13 34  1  0  0  0  0
 13 35  1  0  0  0  0
 13 36  1  0  0  0  0
 14 19  1  0  0  0  0
 14 15  1  0  0  0  0
 15 16  1  0  0  0  0
 15 37  1  0  0  0  0
 15 38  1  0  0  0  0
 16 17  1  0  0  0  0
 16 39  1  0  0  0  0
 16 40  1  0  0  0  0
 17 18  1  0  0  0  0
 18 19  1  0  0  0  0
 18 41  1  0  0  0  0
 18 42  1  0  0  0  0
 19 43  1  0  0  0  0
 19 44  1  0  0  0  0
M  END
> <s_m_source_file>
AV-unprocessed.smi

> <i_m_source_file_index>
2076

> <i_lp_mmshare_version>
43012

> <i_f3d_flags>
0

> <s_epik_input>
W0NIM11jMVtjSF1jKFtDSDNdKW4objEpW0NIMl1DKD1PKVtOSF1bQ0gyXVtDQEhdKFtDSDNdKU4yW0NIMl1bQ0gyXU9bQ0gyXVtDSDJdMg==

> <s_epik_cmdline>
J2VwaWtfcHl0aG9uJywgJy1waCcsICc3LjAnLCAnLXRuJywgJzgnLCAnLW1hJywgJzIwMCcsICctbWV0YWxfYmluZGluZycsICctaW1hZScsICc8aW5maWxlLm1hZT4nLCAnLW9tYWUnLCAnPG91dGZpbGUubWFlPic=

> <r_lp_tautomer_probability>
1

> <r_epik_Ionization_Penalty>
0.197284

> <r_epik_Ionization_Penalty_Charging>
0

> <r_epik_Ionization_Penalty_Neutral>
0.197284

> <r_epik_State_Penalty>
0.186684

> <r_epik_Charging_Adjusted_Penalty>
0.186684

> <i_epik_Tot_Q>
0

> <i_epik_Tot_abs_Q>
0

> <r_epik_Metal_State_Penalty>
0.186636

> <b_epik_Metal_Only>
0

> <s_lp_Force_Field>
OPLS_2005

> <r_lp_Energy>
25.7273

> <b_lp_Chiralities_Consistent>
1

> <s_lp_Variant>
AV-unprocessed.smi:2076-1

> <Gold.Version>
5.8.1

> <Gold.Id.Protein>
6NUR|6NUR_protein|mol2

> <Gold.PLP.Fitness>
36.8818

> <Gold.PLP.PLP>
-33.1393

> <Gold.PLP.part.hbond>
-1.7053

> <Gold.PLP.part.metal>
0.0000

> <Gold.PLP.part.buried>
-5.7073

> <Gold.PLP.part.nonpolar>
-27.7616

> <Gold.PLP.part.repulsive>
1.2643

> <Gold.PLP.ligand.clash>
0.0000

> <Gold.PLP.ligand.torsion>
1.0948

> <Gold.PLP.Chemscore.Hbond>
1.9675

> <Gold.PLP.Chemscore.CHOScore>
0.0000

> <Gold.PLP.Chemscore.Metal>
0.0000

> <Gold.Chemscore.Hbonds>
donor molecule, donor type, donor heavy atom, donor atom, acceptor molecule, acceptor atom, score
      L1  H    10    30       P1  7948  0.69
      P1  H  7989  7998       L1    17  0.65

> <Gold.PLP.Chemscore.Internal.Correction>
0.0298

> <Gold.Rescore>
     Score         DG    S(hbond)    S(metal)    S(lipo)     H(rot)  DE(clash)    DE(int)     intcor
     15.09     -17.51       1.95        0.00      84.26       1.70       0.06       2.35       ----

> <Gold.Chemscore.Fitness>
15.0935

> <Gold.Chemscore.DG>
-17.5093

> <Gold.Chemscore.ZeroCoef>
-5.4800

> <Gold.Chemscore.Hbond>
1.9523

> <Gold.Chemscore.Metal>
0.0000

> <Gold.Chemscore.Lipo>
84.2627

> <Gold.Chemscore.Internal_Hbond>
0.0000

> <Gold.Chemscore.DEClash>
0.0618

> <Gold.Chemscore.DEInternal>
2.3540

> <Gold.Chemscore.Rot>
1.6993

> <Gold.Chemscore.Internal.Correction>
   9.000000E+99

> <Gold.Chemscore.Hbonds>
donor molecule, donor type, donor heavy atom, donor atom, acceptor molecule, acceptor atom, score
      L1  H    10    30       P1  7948  0.67
      P1  H  7989  7998       L1    17  0.59

> <Gold.Chemscore.Hbond.Weighted>
-6.5208

> <Gold.Chemscore.Metal.Weighted>
-0.0000

> <Gold.Chemscore.Lipo.Weighted>
-9.8587

> <Gold.Chemscore.Internal_Hbond.Weighted>
0.0000

> <Gold.Chemscore.DEClash.Weighted>
0.0618

> <Gold.Chemscore.DEInternal.Weighted>
2.3540

> <Gold.Chemscore.Rot.Weighted>
4.3502

> <Gold.Chemscore.Internal.Correction.Weighted>
   9.000000E+99

> <Gold.Protein.RotatedTorsions>
[ 6907 6896 6895 6894 ] final  -31.11 input  -60.11 | X-H torsion
[ 7974 7965 7964 7962 ] final  151.27 input  175.53 | X-H torsion
[ 8008 7997 7996 7995 ] final -103.49 input   59.86 | X-H torsion
[ 10167 10162 10161 10158 ] final  -12.48 input  -65.29 | X-H torsion
[ 10718 10713 10712 10709 ] final   26.14 input   66.30 | X-H torsion
[ 10763 10752 10751 10750 ] final   57.69 input  -60.55 | X-H torsion
[ 11005 11000 10999 10996 ] final  -15.71 input  -57.11 | X-H torsion

> <Gold.Protein.ActiveResidues>
 VAL166  LYS551  ARG553  GLY616  TRP617  ASP618  TYR619  PRO620  LYS621  CYS622 
 ASP623  PHE694  ASN695  SER759  ASP760  ASP761  ALA762  ILE779  LEU786  VAL792 
 PHE793  MET794  SER795  GLU796  ALA797  LYS798  CYS799  TRP800  GLU811  SER814 

> <Gold.Protein.RotatedAtoms>
  151.0965  134.9947  159.8427 H   0  0  0  0  0  0  0  0  0  0  0  0  # atno 6907 bound_to 6896
  152.5433  134.2002  159.8719 H   0  0  0  0  0  0  0  0  0  0  0  0  # atno 6908 bound_to 6896
  151.2042  133.4549  159.2630 H   0  0  0  0  0  0  0  0  0  0  0  0  # atno 6909 bound_to 6896
  144.8304  139.6516  143.6061 H   0  0  0  0  0  0  0  0  0  0  0  0  # atno 7974 bound_to 7965
  154.8716  140.0422  157.1728 H   0  0  0  0  0  0  0  0  0  0  0  0  # atno 8008 bound_to 7997
  154.8732  140.2961  155.5448 H   0  0  0  0  0  0  0  0  0  0  0  0  # atno 8009 bound_to 7997
  156.2999  140.2425  156.3724 H   0  0  0  0  0  0  0  0  0  0  0  0  # atno 8010 bound_to 7997
  140.7162  143.5527  150.9283 H   0  0  0  0  0  0  0  0  0  0  0  0  # atno 10167 bound_to 10162
  157.2028  130.6898  149.6195 H   0  0  0  0  0  0  0  0  0  0  0  0  # atno 10718 bound_to 10713
  152.9855  135.5633  154.5431 H   0  0  0  0  0  0  0  0  0  0  0  0  # atno 10763 bound_to 10752
  154.4882  135.2791  155.1519 H   0  0  0  0  0  0  0  0  0  0  0  0  # atno 10764 bound_to 10752
  154.3000  135.6309  153.5474 H   0  0  0  0  0  0  0  0  0  0  0  0  # atno 10765 bound_to 10752
  140.7994  133.8225  155.9455 H   0  0  0  0  0  0  0  0  0  0  0  0  # atno 11005 bound_to 11000
  146.2607  139.6404  142.9364 LP  0  0  0  0  0  0  0  0  0  0  0  0  # atno 17320 bound_to 7965
  145.4908  141.0438  143.2594 LP  0  0  0  0  0  0  0  0  0  0  0  0  # atno 17321 bound_to 7965
  139.9252  143.6559  152.3088 LP  0  0  0  0  0  0  0  0  0  0  0  0  # atno 17342 bound_to 10162
  139.6990  144.7637  151.1307 LP  0  0  0  0  0  0  0  0  0  0  0  0  # atno 17343 bound_to 10162
  155.9698  130.4577  150.5972 LP  0  0  0  0  0  0  0  0  0  0  0  0  # atno 17370 bound_to 10713
  157.3750  131.0772  151.1525 LP  0  0  0  0  0  0  0  0  0  0  0  0  # atno 17371 bound_to 10713
  140.9310  134.2022  157.4864 LP  0  0  0  0  0  0  0  0  0  0  0  0  # atno 17394 bound_to 11000
  139.8723  134.9832  156.5190 LP  0  0  0  0  0  0  0  0  0  0  0  0  # atno 17395 bound_to 11000

$$$$
