AV-unprocessed.smi:910|AV-procd|sdf|4124|dock6
  -GOLD-   22720 2 23D 1   1.00000     0.00000
 Structure written by MMmdl.
 46 47  0  0  0  0  0  0  0  0  1 V2000
  151.4279  132.4296  155.8946 C   0  0  0  0  0  0  0  0  0  0  0  0
  150.6534  133.7209  155.7479 C   0  0  0  0  0  0  0  0  0  0  0  0
  150.8142  134.7663  156.6146 N   0  0  0  0  0  0  0  0  0  0  0  0
  149.9694  135.7990  156.2144 C   0  0  0  0  0  0  0  0  0  0  0  0
  149.7437  136.9884  156.6824 N   0  0  0  0  0  0  0  0  0  0  0  0
  150.4092  137.4229  157.8198 C   0  0  0  0  0  0  0  0  0  0  0  0
  150.8557  136.7473  158.7524 O   0  0  0  0  0  0  0  0  0  0  0  0
  150.5447  138.7570  157.7921 N   0  0  0  0  0  0  0  0  0  0  0  0
  151.2144  139.5652  158.8064 C   0  0  0  0  0  0  0  0  0  0  0  0
  152.2490  140.5154  158.1866 C   0  0  0  0  0  0  0  0  0  0  0  0
  152.8660  141.2611  159.2256 O   0  0  0  0  0  0  0  0  0  0  0  0
  152.1413  142.4133  159.6361 C   0  0  2  0  0  0  0  0  0  0  0  0
  151.9691  143.3674  158.4356 C   0  0  0  0  0  0  0  0  0  0  0  0
  151.3173  144.6928  158.8560 C   0  0  0  0  0  0  0  0  0  0  0  0
  152.1144  145.3661  159.9819 C   0  0  0  0  0  0  0  0  0  0  0  0
  152.2778  144.4218  161.1826 C   0  0  0  0  0  0  0  0  0  0  0  0
  152.9361  143.0877  160.7766 C   0  0  1  0  0  0  0  0  0  0  0  0
  153.0808  142.1598  161.9948 C   0  0  0  0  0  0  0  0  0  0  0  0
  149.3110  135.3435  155.0999 O   0  0  0  0  0  0  0  0  0  0  0  0
  149.7464  134.0784  154.8427 C   0  0  0  0  0  0  0  0  0  0  0  0
  149.1728  133.3386  153.6554 C   0  0  0  0  0  0  0  0  0  0  0  0
  152.0340  132.2510  155.0063 H   0  0  0  0  0  0  0  0  0  0  0  0
  150.7428  131.5909  156.0184 H   0  0  0  0  0  0  0  0  0  0  0  0
  152.0893  132.4651  156.7607 H   0  0  0  0  0  0  0  0  0  0  0  0
  151.4488  134.7485  157.3999 H   0  0  0  0  0  0  0  0  0  0  0  0
  150.1659  139.2512  156.9972 H   0  0  0  0  0  0  0  0  0  0  0  0
  150.4587  140.1395  159.3428 H   0  0  0  0  0  0  0  0  0  0  0  0
  151.6910  138.9163  159.5427 H   0  0  0  0  0  0  0  0  0  0  0  0
  152.9950  139.9378  157.6410 H   0  0  0  0  0  0  0  0  0  0  0  0
  151.7679  141.1827  157.4701 H   0  0  0  0  0  0  0  0  0  0  0  0
  151.1606  142.1293  160.0231 H   0  0  0  0  0  0  0  0  0  0  0  0
  152.9432  143.5694  157.9881 H   0  0  0  0  0  0  0  0  0  0  0  0
  151.3644  142.9000  157.6588 H   0  0  0  0  0  0  0  0  0  0  0  0
  151.2480  145.3616  157.9976 H   0  0  0  0  0  0  0  0  0  0  0  0
  150.2950  144.5088  159.1891 H   0  0  0  0  0  0  0  0  0  0  0  0
  153.0970  145.6600  159.6107 H   0  0  0  0  0  0  0  0  0  0  0  0
  151.6143  146.2832  160.2947 H   0  0  0  0  0  0  0  0  0  0  0  0
  152.8738  144.9126  161.9527 H   0  0  0  0  0  0  0  0  0  0  0  0
  151.3000  144.2298  161.6266 H   0  0  0  0  0  0  0  0  0  0  0  0
  153.9388  143.3081  160.4067 H   0  0  0  0  0  0  0  0  0  0  0  0
  152.1081  141.9008  162.4137 H   0  0  0  0  0  0  0  0  0  0  0  0
  153.6665  142.6357  162.7816 H   0  0  0  0  0  0  0  0  0  0  0  0
  153.5858  141.2301  161.7308 H   0  0  0  0  0  0  0  0  0  0  0  0
  149.0019  132.2913  153.9051 H   0  0  0  0  0  0  0  0  0  0  0  0
  149.8622  133.3865  152.8124 H   0  0  0  0  0  0  0  0  0  0  0  0
  148.2230  133.7799  153.3524 H   0  0  0  0  0  0  0  0  0  0  0  0
  1 22  1  0  0  0  0
  1 23  1  0  0  0  0
  1 24  1  0  0  0  0
  1  2  1  0  0  0  0
  2  3  1  0  0  0  0
  2 20  2  0  0  0  0
  3 25  1  0  0  0  0
  3  4  1  0  0  0  0
  4 19  1  0  0  0  0
  4  5  2  0  0  0  0
  5  6  1  0  0  0  0
  6  8  1  0  0  0  0
  6  7  2  0  0  0  0
  8  9  1  0  0  0  0
  8 26  1  0  0  0  0
  9 10  1  0  0  0  0
  9 27  1  0  0  0  0
  9 28  1  0  0  0  0
 10 11  1  0  0  0  0
 10 29  1  0  0  0  0
 10 30  1  0  0  0  0
 11 12  1  0  0  0  0
 12 17  1  0  0  0  0
 12 13  1  0  0  0  0
 12 31  1  0  0  0  0
 13 14  1  0  0  0  0
 13 32  1  0  0  0  0
 13 33  1  0  0  0  0
 14 15  1  0  0  0  0
 14 34  1  0  0  0  0
 14 35  1  0  0  0  0
 15 16  1  0  0  0  0
 15 36  1  0  0  0  0
 15 37  1  0  0  0  0
 16 17  1  0  0  0  0
 16 38  1  0  0  0  0
 16 39  1  0  0  0  0
 17 18  1  0  0  0  0
 17 40  1  0  0  0  0
 18 41  1  0  0  0  0
 18 42  1  0  0  0  0
 18 43  1  0  0  0  0
 19 20  1  0  0  0  0
 20 21  1  0  0  0  0
 21 44  1  0  0  0  0
 21 45  1  0  0  0  0
 21 46  1  0  0  0  0
M  END
> <s_m_source_file>
AV-unprocessed.smi

> <i_m_source_file_index>
910

> <i_lp_mmshare_version>
43012

> <i_f3d_flags>
0

> <s_epik_input>
W0NIM11jMW5jKG9jMVtDSDNdKVtOSF1DKD1PKVtOSF1bQ0gyXVtDSDJdT1tDQEBIXTJbQ0gyXVtDSDJdW0NIMl1bQ0gyXVtDQEhdMltDSDNd

> <s_epik_cmdline>
J2VwaWtfcHl0aG9uJywgJy1waCcsICc3LjAnLCAnLXRuJywgJzgnLCAnLW1hJywgJzIwMCcsICctbWV0YWxfYmluZGluZycsICctaW1hZScsICc8aW5maWxlLm1hZT4nLCAnLW9tYWUnLCAnPG91dGZpbGUubWFlPic=

> <r_lp_tautomer_probability>
0.107061

> <r_epik_Ionization_Penalty>
0.727192

> <r_epik_Ionization_Penalty_Charging>
0.726719

> <r_epik_Ionization_Penalty_Neutral>
0.000473387

> <r_epik_State_Penalty>
2.53712

> <r_epik_Charging_Adjusted_Penalty>
3.26383

> <i_epik_Tot_Q>
0

> <i_epik_Tot_abs_Q>
0

> <r_epik_Metal_State_Penalty>
3.71015

> <b_epik_Metal_Only>
0

> <s_lp_Force_Field>
OPLS_2005

> <r_lp_Energy>
31.238

> <b_lp_Chiralities_Consistent>
1

> <s_lp_Variant>
AV-unprocessed.smi:910-9

> <Gold.Version>
5.8.1

> <Gold.Id.Protein>
6NUR|6NUR_protein|mol2

> <Gold.PLP.Fitness>
44.1226

> <Gold.PLP.PLP>
-41.7833

> <Gold.PLP.part.hbond>
-1.0000

> <Gold.PLP.part.metal>
0.0000

> <Gold.PLP.part.buried>
-7.0942

> <Gold.PLP.part.nonpolar>
-33.9184

> <Gold.PLP.part.repulsive>
0.3332

> <Gold.PLP.ligand.clash>
0.0000

> <Gold.PLP.ligand.torsion>
0.3347

> <Gold.PLP.Chemscore.Hbond>
0.9920

> <Gold.PLP.Chemscore.CHOScore>
0.0000

> <Gold.PLP.Chemscore.Metal>
0.0000

> <Gold.Chemscore.Hbonds>
donor molecule, donor type, donor heavy atom, donor atom, acceptor molecule, acceptor atom, score
      P1  H  6896  6907       L1     7  0.96

> <Gold.PLP.Chemscore.Internal.Correction>
0.0326

> <Gold.Rescore>
     Score         DG    S(hbond)    S(metal)    S(lipo)     H(rot)  DE(clash)    DE(int)     intcor
     16.12     -17.68       0.98        0.00     112.51       1.66       0.01       1.55       ----

> <Gold.Chemscore.Fitness>
16.1218

> <Gold.Chemscore.DG>
-17.6826

> <Gold.Chemscore.ZeroCoef>
-5.4800

> <Gold.Chemscore.Hbond>
0.9826

> <Gold.Chemscore.Metal>
0.0000

> <Gold.Chemscore.Lipo>
112.5147

> <Gold.Chemscore.Internal_Hbond>
0.0000

> <Gold.Chemscore.DEClash>
0.0060

> <Gold.Chemscore.DEInternal>
1.5549

> <Gold.Chemscore.Rot>
1.6576

> <Gold.Chemscore.Internal.Correction>
   9.000000E+99

> <Gold.Chemscore.Hbonds>
donor molecule, donor type, donor heavy atom, donor atom, acceptor molecule, acceptor atom, score
      P1  H  6896  6907       L1     7  0.87

> <Gold.Chemscore.Hbond.Weighted>
-3.2820

> <Gold.Chemscore.Metal.Weighted>
-0.0000

> <Gold.Chemscore.Lipo.Weighted>
-13.1642

> <Gold.Chemscore.Internal_Hbond.Weighted>
0.0000

> <Gold.Chemscore.DEClash.Weighted>
0.0060

> <Gold.Chemscore.DEInternal.Weighted>
1.5549

> <Gold.Chemscore.Rot.Weighted>
4.2436

> <Gold.Chemscore.Internal.Correction.Weighted>
   9.000000E+99

> <Gold.Protein.RotatedTorsions>
[ 6907 6896 6895 6894 ] final  -36.54 input  -60.11 | X-H torsion
[ 7974 7965 7964 7962 ] final -113.24 input  175.53 | X-H torsion
[ 8008 7997 7996 7995 ] final  160.67 input   59.86 | X-H torsion
[ 10167 10162 10161 10158 ] final  128.45 input  -65.29 | X-H torsion
[ 10718 10713 10712 10709 ] final  -26.89 input   66.30 | X-H torsion
[ 10763 10752 10751 10750 ] final  177.21 input  -60.55 | X-H torsion
[ 11005 11000 10999 10996 ] final   80.33 input  -57.11 | X-H torsion

> <Gold.Protein.ActiveResidues>
 VAL166  LYS551  ARG553  GLY616  TRP617  ASP618  TYR619  PRO620  LYS621  CYS622 
 ASP623  PHE694  ASN695  SER759  ASP760  ASP761  ALA762  ILE779  LEU786  VAL792 
 PHE793  MET794  SER795  GLU796  ALA797  LYS798  CYS799  TRP800  GLU811  SER814 

> <Gold.Protein.RotatedAtoms>
  151.0259  134.9504  159.8084 H   0  0  0  0  0  0  0  0  0  0  0  0  # atno 6907 bound_to 6896
  152.5335  134.2843  159.9029 H   0  0  0  0  0  0  0  0  0  0  0  0  # atno 6908 bound_to 6896
  151.2851  133.4149  159.2663 H   0  0  0  0  0  0  0  0  0  0  0  0  # atno 6909 bound_to 6896
  145.1343  140.8742  143.3739 H   0  0  0  0  0  0  0  0  0  0  0  0  # atno 7974 bound_to 7965
  156.2156  140.1798  156.7596 H   0  0  0  0  0  0  0  0  0  0  0  0  # atno 8008 bound_to 7997
  154.5787  140.0670  156.9101 H   0  0  0  0  0  0  0  0  0  0  0  0  # atno 8009 bound_to 7997
  155.2542  140.3331  155.4282 H   0  0  0  0  0  0  0  0  0  0  0  0  # atno 8010 bound_to 7997
  139.5526  144.6825  151.4277 H   0  0  0  0  0  0  0  0  0  0  0  0  # atno 10167 bound_to 10162
  156.4453  130.4472  149.7026 H   0  0  0  0  0  0  0  0  0  0  0  0  # atno 10718 bound_to 10713
  154.4915  135.2779  155.1493 H   0  0  0  0  0  0  0  0  0  0  0  0  # atno 10763 bound_to 10752
  154.3163  135.6219  153.5491 H   0  0  0  0  0  0  0  0  0  0  0  0  # atno 10764 bound_to 10752
  152.9888  135.5732  154.5337 H   0  0  0  0  0  0  0  0  0  0  0  0  # atno 10765 bound_to 10752
  139.9139  134.7912  156.1895 H   0  0  0  0  0  0  0  0  0  0  0  0  # atno 11005 bound_to 11000
  145.0601  139.3112  143.5885 LP  0  0  0  0  0  0  0  0  0  0  0  0  # atno 17320 bound_to 7965
  146.3511  140.0039  142.8673 LP  0  0  0  0  0  0  0  0  0  0  0  0  # atno 17321 bound_to 7965
  140.6792  143.8120  150.7099 LP  0  0  0  0  0  0  0  0  0  0  0  0  # atno 17342 bound_to 10162
  140.1568  143.4310  152.2094 LP  0  0  0  0  0  0  0  0  0  0  0  0  # atno 17343 bound_to 10162
  156.3874  130.7610  151.2608 LP  0  0  0  0  0  0  0  0  0  0  0  0  # atno 17370 bound_to 10713
  157.7505  131.0278  150.4020 LP  0  0  0  0  0  0  0  0  0  0  0  0  # atno 17371 bound_to 10713
  141.0593  133.6850  156.1921 LP  0  0  0  0  0  0  0  0  0  0  0  0  # atno 17394 bound_to 11000
  140.6687  134.4891  157.5586 LP  0  0  0  0  0  0  0  0  0  0  0  0  # atno 17395 bound_to 11000

$$$$
