AV-unprocessed.smi:199|AV-procd|sdf|1571|dock1
  -GOLD-   2262019453D 1   1.00000     0.00000
 Structure written by MMmdl.
 51 55  0  0  0  0  0  0  0  0  1 V2000
  148.8579  139.9093  154.6647 C   0  0  0  0  0  0  0  0  0  0  0  0
  150.1655  139.1804  154.3186 C   0  0  1  0  0  0  0  0  0  0  0  0
  151.2448  140.0415  154.6730 O   0  0  0  0  0  0  0  0  0  0  0  0
  152.3577  139.2511  155.0518 C   0  0  0  0  0  0  0  0  0  0  0  0
  151.7068  138.1320  155.8495 C   0  0  0  0  0  0  0  0  0  0  0  0
  150.4369  137.8377  155.0554 C   0  0  2  0  0  0  0  0  0  0  0  0
  150.7580  136.8670  154.0726 O   0  0  0  0  0  0  0  0  0  0  0  0
  149.2776  137.2739  155.9194 C   0  0  0  0  0  0  0  0  0  0  0  0
  148.2722  136.5652  155.1414 N   0  0  0  0  0  0  0  0  0  0  0  0
  147.0726  137.0660  154.6917 C   0  0  0  0  0  0  0  0  0  0  0  0
  146.3450  136.2295  154.0046 N   0  0  0  0  0  0  0  0  0  0  0  0
  147.0951  135.0590  153.9752 C   0  0  0  0  0  0  0  0  0  0  0  0
  146.9127  133.7658  153.4010 C   0  0  0  0  0  0  0  0  0  0  0  0
  145.8276  133.3965  152.6646 N   0  0  0  0  0  0  0  0  0  0  0  0
  144.6881  134.2907  152.5130 C   0  0  1  0  0  0  0  0  0  0  0  0
  145.1949  135.3770  151.5446 C   0  0  0  0  0  0  0  0  0  0  0  0
  146.1170  134.5547  150.6316 C   0  0  0  0  0  0  0  0  0  0  0  0
  145.9613  133.1392  151.2360 C   0  0  2  0  0  0  0  0  0  0  0  0
  144.5810  132.5310  150.9061 C   0  0  2  0  0  0  0  0  0  0  0  0
  144.2058  132.4548  149.4145 C   0  0  0  0  0  0  0  0  0  0  0  0
  142.8729  132.0117  149.2750 O   0  0  0  0  0  0  0  0  0  0  0  0
  143.6629  133.4095  151.7761 C   0  0  0  0  0  0  0  0  0  0  0  0
  147.8853  132.8436  153.6312 N   0  0  0  0  0  0  0  0  0  0  0  0
  148.9704  133.1605  154.3417 C   0  0  0  0  0  0  0  0  0  0  0  0
  149.2807  134.3241  154.9131 N   0  0  0  0  0  0  0  0  0  0  0  0
  148.3043  135.2524  154.7045 C   0  0  0  0  0  0  0  0  0  0  0  0
  147.9859  139.3059  154.4119 H   0  0  0  0  0  0  0  0  0  0  0  0
  148.7803  140.8430  154.1074 H   0  0  0  0  0  0  0  0  0  0  0  0
  148.8072  140.1590  155.7247 H   0  0  0  0  0  0  0  0  0  0  0  0
  150.2016  139.0350  153.2371 H   0  0  0  0  0  0  0  0  0  0  0  0
  152.8582  138.8643  154.1625 H   0  0  0  0  0  0  0  0  0  0  0  0
  153.0786  139.8233  155.6359 H   0  0  0  0  0  0  0  0  0  0  0  0
  152.3551  137.2650  155.9848 H   0  0  0  0  0  0  0  0  0  0  0  0
  151.4516  138.5139  156.8386 H   0  0  0  0  0  0  0  0  0  0  0  0
  149.9875  136.7030  153.5509 H   0  0  0  0  0  0  0  0  0  0  0  0
  149.6605  136.5815  156.6693 H   0  0  0  0  0  0  0  0  0  0  0  0
  148.7817  138.0768  156.4665 H   0  0  0  0  0  0  0  0  0  0  0  0
  146.7545  138.0801  154.8854 H   0  0  0  0  0  0  0  0  0  0  0  0
  144.2765  134.6958  153.4351 H   0  0  0  0  0  0  0  0  0  0  0  0
  144.3873  135.8688  151.0017 H   0  0  0  0  0  0  0  0  0  0  0  0
  145.7615  136.1429  152.0758 H   0  0  0  0  0  0  0  0  0  0  0  0
  145.8484  134.6181  149.5782 H   0  0  0  0  0  0  0  0  0  0  0  0
  147.1461  134.9041  150.7230 H   0  0  0  0  0  0  0  0  0  0  0  0
  146.7775  132.4666  150.9699 H   0  0  0  0  0  0  0  0  0  0  0  0
  144.5731  131.5162  151.3092 H   0  0  0  0  0  0  0  0  0  0  0  0
  144.3027  133.4221  148.9222 H   0  0  0  0  0  0  0  0  0  0  0  0
  144.8596  131.7543  148.8947 H   0  0  0  0  0  0  0  0  0  0  0  0
  142.2952  132.7433  149.4307 H   0  0  0  0  0  0  0  0  0  0  0  0
  143.0986  132.7936  152.4774 H   0  0  0  0  0  0  0  0  0  0  0  0
  142.9496  133.9990  151.1988 H   0  0  0  0  0  0  0  0  0  0  0  0
  149.6933  132.3685  154.4698 H   0  0  0  0  0  0  0  0  0  0  0  0
  1  2  1  0  0  0  0
  1 27  1  0  0  0  0
  1 28  1  0  0  0  0
  1 29  1  0  0  0  0
  2  6  1  0  0  0  0
  2  3  1  0  0  0  0
  2 30  1  0  0  0  0
  3  4  1  0  0  0  0
  4  5  1  0  0  0  0
  4 31  1  0  0  0  0
  4 32  1  0  0  0  0
  5  6  1  0  0  0  0
  5 33  1  0  0  0  0
  5 34  1  0  0  0  0
  6  7  1  0  0  0  0
  6  8  1  0  0  0  0
  7 35  1  0  0  0  0
  8  9  1  0  0  0  0
  8 36  1  0  0  0  0
  8 37  1  0  0  0  0
  9 26  1  0  0  0  0
  9 10  1  0  0  0  0
 10 11  2  0  0  0  0
 10 38  1  0  0  0  0
 11 12  1  0  0  0  0
 12 26  2  0  0  0  0
 12 13  1  0  0  0  0
 13 14  1  0  0  0  0
 13 23  2  0  0  0  0
 14 18  1  0  0  0  0
 14 15  1  0  0  0  0
 15 22  1  0  0  0  0
 15 16  1  0  0  0  0
 15 39  1  0  0  0  0
 16 17  1  0  0  0  0
 16 40  1  0  0  0  0
 16 41  1  0  0  0  0
 17 18  1  0  0  0  0
 17 42  1  0  0  0  0
 17 43  1  0  0  0  0
 18 19  1  0  0  0  0
 18 44  1  0  0  0  0
 19 20  1  0  0  0  0
 19 22  1  0  0  0  0
 19 45  1  0  0  0  0
 20 21  1  0  0  0  0
 20 46  1  0  0  0  0
 20 47  1  0  0  0  0
 21 48  1  0  0  0  0
 22 49  1  0  0  0  0
 22 50  1  0  0  0  0
 23 24  1  0  0  0  0
 24 25  2  0  0  0  0
 24 51  1  0  0  0  0
 25 26  1  0  0  0  0
M  END
> <s_m_source_file>
AV-unprocessed.smi

> <i_m_source_file_index>
199

> <i_lp_mmshare_version>
43012

> <i_f3d_flags>
0

> <s_epik_input>
W0NIMl0xW0NIMl1PW0NAQEhdKFtDSDNdKVtDQEBdMShbT0hdKVtDSDJdbihbY0hdbjIpYyhjMjMpbltjSF1uYzNOKFtDQEBIXTQ1KVtDQEhdKFtDSDJdW0NIMl00KVtDQEhdKFtDSDJdNSlbQ0gyXVtPSF0=

> <s_epik_cmdline>
J2VwaWtfcHl0aG9uJywgJy1waCcsICc3LjAnLCAnLXRuJywgJzgnLCAnLW1hJywgJzIwMCcsICctbWV0YWxfYmluZGluZycsICctaW1hZScsICc8aW5maWxlLm1hZT4nLCAnLW9tYWUnLCAnPG91dGZpbGUubWFlPic=

> <r_lp_tautomer_probability>
1

> <r_epik_Ionization_Penalty>
0.00583903

> <r_epik_Ionization_Penalty_Charging>
0

> <r_epik_Ionization_Penalty_Neutral>
0.00583903

> <r_epik_State_Penalty>
-0

> <r_epik_Charging_Adjusted_Penalty>
0

> <i_epik_Tot_Q>
0

> <i_epik_Tot_abs_Q>
0

> <r_epik_Metal_State_Penalty>
-0

> <b_epik_Metal_Only>
0

> <s_lp_Force_Field>
OPLS_2005

> <r_lp_Energy>
83.1527

> <b_lp_Chiralities_Consistent>
1

> <s_lp_Variant>
AV-unprocessed.smi:199-12

> <Gold.Version>
5.8.1

> <Gold.Id.Protein>
6NUR|6NUR_protein|mol2

> <Gold.PLP.Fitness>
49.0059

> <Gold.PLP.PLP>
-39.1444

> <Gold.PLP.part.hbond>
-6.0000

> <Gold.PLP.part.metal>
0.0000

> <Gold.PLP.part.buried>
-4.6224

> <Gold.PLP.part.nonpolar>
-28.0854

> <Gold.PLP.part.repulsive>
0.4655

> <Gold.PLP.ligand.clash>
0.0000

> <Gold.PLP.ligand.torsion>
0.7510

> <Gold.PLP.Chemscore.Hbond>
3.7667

> <Gold.PLP.Chemscore.CHOScore>
0.0000

> <Gold.PLP.Chemscore.Metal>
0.0000

> <Gold.Chemscore.Hbonds>
donor molecule, donor type, donor heavy atom, donor atom, acceptor molecule, acceptor atom, score
      L1  H     7    35       P1  7948  0.95
      L1  H    21    48       P1 10186  0.80
      P1  H  7989  7998       L1     3  0.89
      P1  H 10785 10796       L1    21  1.00

> <Gold.PLP.Chemscore.Internal.Correction>
0.0636

> <Gold.Rescore>
     Score         DG    S(hbond)    S(metal)    S(lipo)     H(rot)  DE(clash)    DE(int)     intcor
     11.69     -13.58       1.90        0.00      82.31       3.07       0.11       1.78       ----

> <Gold.Chemscore.Fitness>
11.6902

> <Gold.Chemscore.DG>
-13.5767

> <Gold.Chemscore.ZeroCoef>
-5.4800

> <Gold.Chemscore.Hbond>
1.8961

> <Gold.Chemscore.Metal>
0.0000

> <Gold.Chemscore.Lipo>
82.3110

> <Gold.Chemscore.Internal_Hbond>
0.0000

> <Gold.Chemscore.DEClash>
0.1096

> <Gold.Chemscore.DEInternal>
1.7769

> <Gold.Chemscore.Rot>
3.0729

> <Gold.Chemscore.Internal.Correction>
   9.000000E+99

> <Gold.Chemscore.Hbonds>
donor molecule, donor type, donor heavy atom, donor atom, acceptor molecule, acceptor atom, score
      L1  H     7    35       P1  7948  0.20
      L1  H    21    48       P1 10186  0.79
      P1  H  7989  7998       L1     3  0.42
      P1  H 10785 10796       L1    21  0.25

> <Gold.Chemscore.Hbond.Weighted>
-6.3330

> <Gold.Chemscore.Metal.Weighted>
-0.0000

> <Gold.Chemscore.Lipo.Weighted>
-9.6304

> <Gold.Chemscore.Internal_Hbond.Weighted>
0.0000

> <Gold.Chemscore.DEClash.Weighted>
0.1096

> <Gold.Chemscore.DEInternal.Weighted>
1.7769

> <Gold.Chemscore.Rot.Weighted>
7.8667

> <Gold.Chemscore.Internal.Correction.Weighted>
   9.000000E+99

> <Gold.Protein.RotatedTorsions>
[ 6907 6896 6895 6894 ] final   66.25 input  -60.11 | X-H torsion
[ 7974 7965 7964 7962 ] final  -98.37 input  175.53 | X-H torsion
[ 8008 7997 7996 7995 ] final  -34.25 input   59.86 | X-H torsion
[ 10167 10162 10161 10158 ] final   10.71 input  -65.29 | X-H torsion
[ 10718 10713 10712 10709 ] final    4.65 input   66.30 | X-H torsion
[ 10763 10752 10751 10750 ] final  -11.13 input  -60.55 | X-H torsion
[ 11005 11000 10999 10996 ] final  -71.55 input  -57.11 | X-H torsion

> <Gold.Protein.ActiveResidues>
 VAL166  LYS551  ARG553  GLY616  TRP617  ASP618  TYR619  PRO620  LYS621  CYS622 
 ASP623  PHE694  ASN695  SER759  ASP760  ASP761  ALA762  ILE779  LEU786  VAL792 
 PHE793  MET794  SER795  GLU796  ALA797  LYS798  CYS799  TRP800  GLU811  SER814 

> <Gold.Protein.RotatedAtoms>
  152.4467  134.5480  159.9858 H   0  0  0  0  0  0  0  0  0  0  0  0  # atno 6907 bound_to 6896
  151.5563  133.3404  159.2970 H   0  0  0  0  0  0  0  0  0  0  0  0  # atno 6908 bound_to 6896
  150.8385  134.7700  159.6976 H   0  0  0  0  0  0  0  0  0  0  0  0  # atno 6909 bound_to 6896
  145.3215  140.9422  143.2713 H   0  0  0  0  0  0  0  0  0  0  0  0  # atno 7974 bound_to 7965
  154.4126  140.1689  156.2019 H   0  0  0  0  0  0  0  0  0  0  0  0  # atno 8008 bound_to 7997
  155.9517  140.3400  155.6390 H   0  0  0  0  0  0  0  0  0  0  0  0  # atno 8009 bound_to 7997
  155.6862  140.0728  157.2456 H   0  0  0  0  0  0  0  0  0  0  0  0  # atno 8010 bound_to 7997
  140.6177  143.8272  150.7138 H   0  0  0  0  0  0  0  0  0  0  0  0  # atno 10167 bound_to 10162
  156.8957  130.5703  149.5649 H   0  0  0  0  0  0  0  0  0  0  0  0  # atno 10718 bound_to 10713
  153.4793  135.7017  153.5947 H   0  0  0  0  0  0  0  0  0  0  0  0  # atno 10763 bound_to 10752
  153.4167  135.3835  155.2085 H   0  0  0  0  0  0  0  0  0  0  0  0  # atno 10764 bound_to 10752
  154.8722  135.3918  154.4241 H   0  0  0  0  0  0  0  0  0  0  0  0  # atno 10765 bound_to 10752
  141.1594  133.6821  156.6923 H   0  0  0  0  0  0  0  0  0  0  0  0  # atno 11005 bound_to 11000
  144.8936  139.4742  143.6666 LP  0  0  0  0  0  0  0  0  0  0  0  0  # atno 17320 bound_to 7965
  146.3080  139.7648  142.9041 LP  0  0  0  0  0  0  0  0  0  0  0  0  # atno 17321 bound_to 7965
  140.1855  143.4079  152.1902 LP  0  0  0  0  0  0  0  0  0  0  0  0  # atno 17342 bound_to 10162
  139.5412  144.7258  151.4727 LP  0  0  0  0  0  0  0  0  0  0  0  0  # atno 17343 bound_to 10162
  156.0607  130.5660  150.9186 LP  0  0  0  0  0  0  0  0  0  0  0  0  # atno 17370 bound_to 10713
  157.6057  131.0939  150.8884 LP  0  0  0  0  0  0  0  0  0  0  0  0  # atno 17371 bound_to 10713
  140.3021  134.8155  157.4106 LP  0  0  0  0  0  0  0  0  0  0  0  0  # atno 17394 bound_to 11000
  140.1253  134.5166  155.8150 LP  0  0  0  0  0  0  0  0  0  0  0  0  # atno 17395 bound_to 11000

$$$$
