AV-unprocessed.smi:311|AV-procd|sdf|2298|dock2
  -GOLD-   2262022203D 1   1.00000     0.00000
 Structure written by MMmdl.
 44 46  0  0  0  0  0  0  0  0  2 V2000
  150.0583  131.1475  155.0206 C   0  0  0  0  0  0  0  0  0  0  0  0
  150.6808  132.3089  155.7408 C   0  0  0  0  0  0  0  0  0  0  0  0
  151.4729  132.0861  156.7757 N   0  0  0  0  0  0  0  0  0  0  0  0
  151.8798  133.3458  157.2253 O   0  0  0  0  0  0  0  0  0  0  0  0
  151.3097  134.2890  156.4340 C   0  0  0  0  0  0  0  0  0  0  0  0
  151.6127  135.7104  156.7675 C   0  0  0  0  0  0  0  0  0  0  0  0
  150.5338  133.7003  155.4729 C   0  0  0  0  0  0  0  0  0  0  0  0
  149.7021  134.3570  154.3996 C   0  0  0  0  0  0  0  0  0  0  0  0
  148.2213  134.1135  154.6898 C   0  0  0  0  0  0  0  0  0  0  0  0
  147.8750  133.6005  155.7533 O   0  0  0  0  0  0  0  0  0  0  0  0
  147.3591  134.4551  153.7197 N   0  0  0  0  0  0  0  0  0  0  0  0
  145.9255  134.1870  153.7476 C   0  0  1  0  0  0  0  0  0  0  0  0
  145.0793  135.3832  153.3321 C   0  0  0  0  0  0  0  0  0  0  0  0
  143.7334  134.7448  152.9731 C   0  0  0  0  0  0  0  0  0  0  0  0
  144.0175  133.3506  152.5521 N   0  3  1  0  0  0  0  0  0  0  0  0
  143.5057  133.0106  151.1974 C   0  0  0  0  0  0  0  0  0  0  0  0
  144.1608  131.7261  150.6685 C   0  0  0  0  0  0  0  0  0  0  0  0
  145.6852  131.8909  150.5199 C   0  0  0  0  0  0  0  0  0  0  0  0
  146.2522  132.9859  151.4430 C   0  0  0  0  0  0  0  0  0  0  0  0
  145.4667  133.0820  152.7755 C   0  0  1  0  0  0  0  0  0  0  0  0
  150.1055  130.2332  155.6134 H   0  0  0  0  0  0  0  0  0  0  0  0
  150.5677  130.9574  154.0758 H   0  0  0  0  0  0  0  0  0  0  0  0
  149.0087  131.3412  154.7995 H   0  0  0  0  0  0  0  0  0  0  0  0
  151.0209  136.0380  157.6222 H   0  0  0  0  0  0  0  0  0  0  0  0
  151.3846  136.3668  155.9279 H   0  0  0  0  0  0  0  0  0  0  0  0
  152.6668  135.8351  157.0159 H   0  0  0  0  0  0  0  0  0  0  0  0
  149.8893  135.4305  154.3559 H   0  0  0  0  0  0  0  0  0  0  0  0
  149.9389  133.9666  153.4093 H   0  0  0  0  0  0  0  0  0  0  0  0
  147.7323  134.8754  152.8808 H   0  0  0  0  0  0  0  0  0  0  0  0
  145.6346  133.9085  154.7628 H   0  0  0  0  0  0  0  0  0  0  0  0
  144.9932  136.1363  154.1159 H   0  0  0  0  0  0  0  0  0  0  0  0
  145.5076  135.8627  152.4504 H   0  0  0  0  0  0  0  0  0  0  0  0
  143.0934  134.7025  153.8552 H   0  0  0  0  0  0  0  0  0  0  0  0
  143.2033  135.3246  152.2162 H   0  0  0  0  0  0  0  0  0  0  0  0
  142.4221  132.8979  151.2457 H   0  0  0  0  0  0  0  0  0  0  0  0
  143.7076  133.8273  150.5020 H   0  0  0  0  0  0  0  0  0  0  0  0
  143.9477  130.9091  151.3595 H   0  0  0  0  0  0  0  0  0  0  0  0
  143.7228  131.4378  149.7125 H   0  0  0  0  0  0  0  0  0  0  0  0
  146.1682  130.9361  150.7317 H   0  0  0  0  0  0  0  0  0  0  0  0
  145.9376  132.1346  149.4873 H   0  0  0  0  0  0  0  0  0  0  0  0
  147.3083  132.7831  151.6185 H   0  0  0  0  0  0  0  0  0  0  0  0
  146.2113  133.9477  150.9299 H   0  0  0  0  0  0  0  0  0  0  0  0
  145.5557  132.1168  153.2763 H   0  0  0  0  0  0  0  0  0  0  0  0
  143.5262  132.7544  153.2029 H   0  0  0  0  0  0  0  0  0  0  0  0
  1  2  1  0  0  0  0
  1 21  1  0  0  0  0
  1 22  1  0  0  0  0
  1 23  1  0  0  0  0
  2  7  1  0  0  0  0
  2  3  2  0  0  0  0
  3  4  1  0  0  0  0
  4  5  1  0  0  0  0
  5  6  1  0  0  0  0
  5  7  2  0  0  0  0
  6 24  1  0  0  0  0
  6 25  1  0  0  0  0
  6 26  1  0  0  0  0
  7  8  1  0  0  0  0
  8  9  1  0  0  0  0
  8 27  1  0  0  0  0
  8 28  1  0  0  0  0
  9 10  2  0  0  0  0
  9 11  1  0  0  0  0
 11 12  1  0  0  0  0
 11 29  1  0  0  0  0
 12 20  1  0  0  0  0
 12 13  1  0  0  0  0
 12 30  1  0  0  0  0
 13 14  1  0  0  0  0
 13 31  1  0  0  0  0
 13 32  1  0  0  0  0
 14 15  1  0  0  0  0
 14 33  1  0  0  0  0
 14 34  1  0  0  0  0
 15 20  1  0  0  0  0
 15 16  1  0  0  0  0
 15 44  1  0  0  0  0
 16 17  1  0  0  0  0
 16 35  1  0  0  0  0
 16 36  1  0  0  0  0
 17 18  1  0  0  0  0
 17 37  1  0  0  0  0
 17 38  1  0  0  0  0
 18 19  1  0  0  0  0
 18 39  1  0  0  0  0
 18 40  1  0  0  0  0
 19 20  1  0  0  0  0
 19 41  1  0  0  0  0
 19 42  1  0  0  0  0
 20 43  1  0  0  0  0
M  CHG  1  15   1
M  END
> <s_m_source_file>
AV-unprocessed.smi

> <i_m_source_file_index>
311

> <i_lp_mmshare_version>
43012

> <i_f3d_flags>
0

> <s_epik_input>
W0NIM11jMW5vYyhbQ0gzXSljMVtDSDJdQyg9TylbTkhdW0NASF0oW0NIMl1bQ0gyXTIpW0NAQEhdKE4yMylbQ0gyXVtDSDJdW0NIMl1bQ0gyXTM=

> <s_epik_cmdline>
J2VwaWtfcHl0aG9uJywgJy1waCcsICc3LjAnLCAnLXRuJywgJzgnLCAnLW1hJywgJzIwMCcsICctbWV0YWxfYmluZGluZycsICctaW1hZScsICc8aW5maWxlLm1hZT4nLCAnLW9tYWUnLCAnPG91dGZpbGUubWFlPic=

> <r_epik_Ionization_Penalty>
0.00173669

> <r_epik_Ionization_Penalty_Charging>
0.0017366

> <r_epik_Ionization_Penalty_Neutral>
9.2145e-08

> <r_epik_State_Penalty>
0.00117499

> <r_epik_Charging_Adjusted_Penalty>
0.00291159

> <i_epik_Tot_Q>
1

> <i_epik_Tot_abs_Q>
1

> <r_epik_Metal_State_Penalty>
-0

> <b_epik_Metal_Only>
0

> <s_lp_Force_Field>
OPLS_2005

> <r_lp_Energy>
33.1606

> <b_lp_Chiralities_Consistent>
1

> <s_lp_Variant>
AV-unprocessed.smi:311-2

> <Gold.Version>
5.8.1

> <Gold.Id.Protein>
6NUR|6NUR_protein|mol2

> <Gold.PLP.Fitness>
40.1167

> <Gold.PLP.PLP>
-30.1345

> <Gold.PLP.part.hbond>
-2.9731

> <Gold.PLP.part.metal>
0.0000

> <Gold.PLP.part.buried>
-4.6892

> <Gold.PLP.part.nonpolar>
-23.0391

> <Gold.PLP.part.repulsive>
0.0076

> <Gold.PLP.ligand.clash>
0.0000

> <Gold.PLP.ligand.torsion>
0.2866

> <Gold.PLP.Chemscore.Hbond>
3.5168

> <Gold.PLP.Chemscore.CHOScore>
0.0000

> <Gold.PLP.Chemscore.Metal>
0.0000

> <Gold.Chemscore.Hbonds>
donor molecule, donor type, donor heavy atom, donor atom, acceptor molecule, acceptor atom, score
      L1  H    11    29       P1  7948  0.93
      L1  H    15    44       P1 10957  1.95
      P1  H  6896  6908       L1     4  0.62

> <Gold.PLP.Chemscore.Internal.Correction>
0.0053

> <Gold.Rescore>
     Score         DG    S(hbond)    S(metal)    S(lipo)     H(rot)  DE(clash)    DE(int)     intcor
     18.13     -18.75       2.48        0.00      72.39       1.36       0.00       0.61       ----

> <Gold.Chemscore.Fitness>
18.1350

> <Gold.Chemscore.DG>
-18.7475

> <Gold.Chemscore.ZeroCoef>
-5.4800

> <Gold.Chemscore.Hbond>
2.4764

> <Gold.Chemscore.Metal>
0.0000

> <Gold.Chemscore.Lipo>
72.3892

> <Gold.Chemscore.Internal_Hbond>
0.0000

> <Gold.Chemscore.DEClash>
0.0000

> <Gold.Chemscore.DEInternal>
0.6125

> <Gold.Chemscore.Rot>
1.3567

> <Gold.Chemscore.Internal.Correction>
   9.000000E+99

> <Gold.Chemscore.Hbonds>
donor molecule, donor type, donor heavy atom, donor atom, acceptor molecule, acceptor atom, score
      L1  H    11    29       P1  7948  0.84
      L1  H    15    44       P1 10957  0.36
      P1  H  6896  6908       L1     4  0.31

> <Gold.Chemscore.Hbond.Weighted>
-8.2711

> <Gold.Chemscore.Metal.Weighted>
-0.0000

> <Gold.Chemscore.Lipo.Weighted>
-8.4695

> <Gold.Chemscore.Internal_Hbond.Weighted>
0.0000

> <Gold.Chemscore.DEClash.Weighted>
0.0000

> <Gold.Chemscore.DEInternal.Weighted>
0.6125

> <Gold.Chemscore.Rot.Weighted>
3.4731

> <Gold.Chemscore.Internal.Correction.Weighted>
   9.000000E+99

> <Gold.Protein.RotatedTorsions>
[ 6907 6896 6895 6894 ] final   68.03 input  -60.11 | X-H torsion
[ 7974 7965 7964 7962 ] final  121.27 input  175.53 | X-H torsion
[ 8008 7997 7996 7995 ] final  176.88 input   59.86 | X-H torsion
[ 10167 10162 10161 10158 ] final   37.36 input  -65.29 | X-H torsion
[ 10718 10713 10712 10709 ] final   26.56 input   66.30 | X-H torsion
[ 10763 10752 10751 10750 ] final   90.95 input  -60.55 | X-H torsion
[ 11005 11000 10999 10996 ] final -101.53 input  -57.11 | X-H torsion

> <Gold.Protein.ActiveResidues>
 VAL166  LYS551  ARG553  GLY616  TRP617  ASP618  TYR619  PRO620  LYS621  CYS622 
 ASP623  PHE694  ASN695  SER759  ASP760  ASP761  ALA762  ILE779  LEU786  VAL792 
 PHE793  MET794  SER795  GLU796  ALA797  LYS798  CYS799  TRP800  GLU811  SER814 

> <Gold.Protein.RotatedAtoms>
  152.4593  134.5221  159.9785 H   0  0  0  0  0  0  0  0  0  0  0  0  # atno 6907 bound_to 6896
  151.5274  133.3449  159.2920 H   0  0  0  0  0  0  0  0  0  0  0  0  # atno 6908 bound_to 6896
  150.8549  134.7915  159.7100 H   0  0  0  0  0  0  0  0  0  0  0  0  # atno 6909 bound_to 6896
  145.1213  139.3387  143.4713 H   0  0  0  0  0  0  0  0  0  0  0  0  # atno 7974 bound_to 7965
  156.0717  140.1372  156.9820 H   0  0  0  0  0  0  0  0  0  0  0  0  # atno 8008 bound_to 7997
  154.4535  140.0970  156.6741 H   0  0  0  0  0  0  0  0  0  0  0  0  # atno 8009 bound_to 7997
  155.5217  140.3456  155.4410 H   0  0  0  0  0  0  0  0  0  0  0  0  # atno 8010 bound_to 7997
  140.4040  144.1685  150.6135 H   0  0  0  0  0  0  0  0  0  0  0  0  # atno 10167 bound_to 10162
  157.2085  130.6923  149.6218 H   0  0  0  0  0  0  0  0  0  0  0  0  # atno 10718 bound_to 10713
  153.2030  135.4415  155.0289 H   0  0  0  0  0  0  0  0  0  0  0  0  # atno 10763 bound_to 10752
  154.8158  135.3314  154.7183 H   0  0  0  0  0  0  0  0  0  0  0  0  # atno 10764 bound_to 10752
  153.7627  135.6990  153.4978 H   0  0  0  0  0  0  0  0  0  0  0  0  # atno 10765 bound_to 10752
  141.1227  133.8486  157.1244 H   0  0  0  0  0  0  0  0  0  0  0  0  # atno 11005 bound_to 11000
  146.3521  140.1173  142.8601 LP  0  0  0  0  0  0  0  0  0  0  0  0  # atno 17320 bound_to 7965
  145.0737  140.9173  143.4866 LP  0  0  0  0  0  0  0  0  0  0  0  0  # atno 17321 bound_to 7965
  140.4710  143.2413  151.9089 LP  0  0  0  0  0  0  0  0  0  0  0  0  # atno 17342 bound_to 10162
  139.4784  144.5370  151.8584 LP  0  0  0  0  0  0  0  0  0  0  0  0  # atno 17343 bound_to 10162
  155.9693  130.4559  150.5904 LP  0  0  0  0  0  0  0  0  0  0  0  0  # atno 17370 bound_to 10713
  157.3696  131.0763  151.1569 LP  0  0  0  0  0  0  0  0  0  0  0  0  # atno 17371 bound_to 10713
  140.0197  134.9951  157.0567 LP  0  0  0  0  0  0  0  0  0  0  0  0  # atno 17394 bound_to 11000
  140.4460  134.1632  155.7177 LP  0  0  0  0  0  0  0  0  0  0  0  0  # atno 17395 bound_to 11000

$$$$
