AV-unprocessed.smi:1248|AV-procd|sdf|5250|dock3
  -GOLD-   22720 4363D 1   1.00000     0.00000
 Structure written by MMmdl.
 44 46  0  0  0  0  0  0  0  0  2 V2000
  151.1164  145.2466  160.1399 C   0  0  0  0  0  0  0  0  0  0  0  0
  151.9384  144.9834  158.8729 C   0  0  0  0  0  0  0  0  0  0  0  0
  151.9207  143.5821  158.5021 N   0  0  0  0  0  0  0  0  0  0  0  0
  151.1937  142.9734  157.4986 C   0  0  0  0  0  0  0  0  0  0  0  0
  151.5202  141.6520  157.5526 C   0  0  0  0  0  0  0  0  0  0  0  0
  150.9968  140.6540  156.6936 N   0  0  0  0  0  0  0  0  0  0  0  0
  150.8069  139.3560  156.9792 C   0  0  0  0  0  0  0  0  0  0  0  0
  151.0788  138.8190  158.0528 O   0  0  0  0  0  0  0  0  0  0  0  0
  150.2724  138.7008  155.9387 N   0  0  0  0  0  0  0  0  0  0  0  0
  149.9368  137.2801  155.9237 C   0  0  2  0  0  0  0  0  0  0  0  0
  150.8430  136.5414  154.9245 C   0  0  0  0  0  0  0  0  0  0  0  0
  150.4520  135.0586  154.8095 C   0  0  0  0  0  0  0  0  0  0  0  0
  149.0250  134.9128  154.4299 N   0  3  1  0  0  0  0  0  0  0  0  0
  148.6521  133.5015  154.1921 C   0  0  0  0  0  0  0  0  0  0  0  0
  149.6189  132.7616  153.2974 C   0  0  0  0  0  0  0  0  0  0  0  0
  148.2769  133.2052  152.7588 C   0  0  0  0  0  0  0  0  0  0  0  0
  148.1268  135.5731  155.4089 C   0  0  0  0  0  0  0  0  0  0  0  0
  148.4596  137.0687  155.5393 C   0  0  0  0  0  0  0  0  0  0  0  0
  152.4576  141.5263  158.6169 C   0  0  0  0  0  0  0  0  0  0  0  0
  152.6916  142.6998  159.1845 N   0  0  0  0  0  0  0  0  0  0  0  0
  151.1425  146.3033  160.4058 H   0  0  0  0  0  0  0  0  0  0  0  0
  151.5060  144.6798  160.9858 H   0  0  0  0  0  0  0  0  0  0  0  0
  150.0722  144.9654  159.9995 H   0  0  0  0  0  0  0  0  0  0  0  0
  151.5520  145.5717  158.0397 H   0  0  0  0  0  0  0  0  0  0  0  0
  152.9734  145.2913  159.0252 H   0  0  0  0  0  0  0  0  0  0  0  0
  150.5248  143.5213  156.8513 H   0  0  0  0  0  0  0  0  0  0  0  0
  150.7304  140.9633  155.7705 H   0  0  0  0  0  0  0  0  0  0  0  0
  150.0834  139.2237  155.0958 H   0  0  0  0  0  0  0  0  0  0  0  0
  150.1101  136.8621  156.9176 H   0  0  0  0  0  0  0  0  0  0  0  0
  150.7736  137.0100  153.9414 H   0  0  0  0  0  0  0  0  0  0  0  0
  151.8857  136.6239  155.2335 H   0  0  0  0  0  0  0  0  0  0  0  0
  151.0812  134.5737  154.0621 H   0  0  0  0  0  0  0  0  0  0  0  0
  150.6330  134.5463  155.7560 H   0  0  0  0  0  0  0  0  0  0  0  0
  148.1515  132.9882  155.0114 H   0  0  0  0  0  0  0  0  0  0  0  0
  150.5014  133.2904  152.9415 H   0  0  0  0  0  0  0  0  0  0  0  0
  149.7561  131.6972  153.4766 H   0  0  0  0  0  0  0  0  0  0  0  0
  147.5298  132.4334  152.5849 H   0  0  0  0  0  0  0  0  0  0  0  0
  148.2687  134.0287  152.0469 H   0  0  0  0  0  0  0  0  0  0  0  0
  147.0899  135.4577  155.0913 H   0  0  0  0  0  0  0  0  0  0  0  0
  148.2172  135.0813  156.3787 H   0  0  0  0  0  0  0  0  0  0  0  0
  147.8054  137.5243  156.2837 H   0  0  0  0  0  0  0  0  0  0  0  0
  148.2473  137.5702  154.5938 H   0  0  0  0  0  0  0  0  0  0  0  0
  152.9676  140.6529  158.9945 H   0  0  0  0  0  0  0  0  0  0  0  0
  148.9042  135.3956  153.5510 H   0  0  0  0  0  0  0  0  0  0  0  0
  1  2  1  0  0  0  0
  1 21  1  0  0  0  0
  1 22  1  0  0  0  0
  1 23  1  0  0  0  0
  2  3  1  0  0  0  0
  2 24  1  0  0  0  0
  2 25  1  0  0  0  0
  3 20  1  0  0  0  0
  3  4  1  0  0  0  0
  4  5  2  0  0  0  0
  4 26  1  0  0  0  0
  5  6  1  0  0  0  0
  5 19  1  0  0  0  0
  6  7  1  0  0  0  0
  6 27  1  0  0  0  0
  7  8  2  0  0  0  0
  7  9  1  0  0  0  0
  9 10  1  0  0  0  0
  9 28  1  0  0  0  0
 10 18  1  0  0  0  0
 10 11  1  0  0  0  0
 10 29  1  0  0  0  0
 11 12  1  0  0  0  0
 11 30  1  0  0  0  0
 11 31  1  0  0  0  0
 12 13  1  0  0  0  0
 12 32  1  0  0  0  0
 12 33  1  0  0  0  0
 13 14  1  0  0  0  0
 13 17  1  0  0  0  0
 13 44  1  0  0  0  0
 14 16  1  0  0  0  0
 14 15  1  0  0  0  0
 14 34  1  0  0  0  0
 15 16  1  0  0  0  0
 15 35  1  0  0  0  0
 15 36  1  0  0  0  0
 16 37  1  0  0  0  0
 16 38  1  0  0  0  0
 17 18  1  0  0  0  0
 17 39  1  0  0  0  0
 17 40  1  0  0  0  0
 18 41  1  0  0  0  0
 18 42  1  0  0  0  0
 19 20  2  0  0  0  0
 19 43  1  0  0  0  0
M  CHG  1  13   1
M  END
> <s_m_source_file>
AV-unprocessed.smi

> <i_m_source_file_index>
1248

> <i_lp_mmshare_version>
43012

> <i_f3d_flags>
0

> <s_epik_input>
W0NIM11bQ0gyXW4xW2NIXWMoW2NIXW4xKVtOSF1DKD1PKVtOSF1bQ0hdMltDSDJdW0NIMl1OKFtDSDJdW0NIMl0yKVtDSF0zW0NIMl1bQ0gyXTM=

> <s_epik_cmdline>
J2VwaWtfcHl0aG9uJywgJy1waCcsICc3LjAnLCAnLXRuJywgJzgnLCAnLW1hJywgJzIwMCcsICctbWV0YWxfYmluZGluZycsICctaW1hZScsICc8aW5maWxlLm1hZT4nLCAnLW9tYWUnLCAnPG91dGZpbGUubWFlPic=

> <r_lp_tautomer_probability>
1

> <r_epik_Ionization_Penalty>
0.115699

> <r_epik_Ionization_Penalty_Charging>
0.115549

> <r_epik_Ionization_Penalty_Neutral>
0.00014958

> <r_epik_State_Penalty>
0.105184

> <r_epik_Charging_Adjusted_Penalty>
0.220733

> <i_epik_Tot_Q>
1

> <i_epik_Tot_abs_Q>
1

> <r_epik_Metal_State_Penalty>
0.105189

> <b_epik_Metal_Only>
0

> <s_lp_Force_Field>
OPLS_2005

> <r_lp_Energy>
30.1422

> <b_lp_Chiralities_Consistent>
1

> <s_lp_Variant>
AV-unprocessed.smi:1248-1

> <Gold.Version>
5.8.1

> <Gold.Id.Protein>
6NUR|6NUR_protein|mol2

> <Gold.PLP.Fitness>
42.6790

> <Gold.PLP.PLP>
-34.8700

> <Gold.PLP.part.hbond>
-1.0000

> <Gold.PLP.part.metal>
0.0000

> <Gold.PLP.part.buried>
-5.7777

> <Gold.PLP.part.nonpolar>
-27.6995

> <Gold.PLP.part.repulsive>
0.1105

> <Gold.PLP.ligand.clash>
0.0000

> <Gold.PLP.ligand.torsion>
1.2284

> <Gold.PLP.Chemscore.Hbond>
2.0000

> <Gold.PLP.Chemscore.CHOScore>
1.0000

> <Gold.PLP.Chemscore.Metal>
0.0000

> <Gold.Chemscore.Hbonds>
donor molecule, donor type, donor heavy atom, donor atom, acceptor molecule, acceptor atom, score
      L1  H    13    44       P1  7948  2.00
      L1  C     4    26       P1  8028  1.00

> <Gold.PLP.Chemscore.Internal.Correction>
1.2658

> <Gold.Rescore>
     Score         DG    S(hbond)    S(metal)    S(lipo)     H(rot)  DE(clash)    DE(int)     intcor
     14.01     -15.35       0.99        0.00      85.55       1.34       0.04       1.30       ----

> <Gold.Chemscore.Fitness>
14.0085

> <Gold.Chemscore.DG>
-15.3513

> <Gold.Chemscore.ZeroCoef>
-5.4800

> <Gold.Chemscore.Hbond>
0.9885

> <Gold.Chemscore.Metal>
0.0000

> <Gold.Chemscore.Lipo>
85.5532

> <Gold.Chemscore.Internal_Hbond>
0.0000

> <Gold.Chemscore.DEClash>
0.0450

> <Gold.Chemscore.DEInternal>
1.2978

> <Gold.Chemscore.Rot>
1.3438

> <Gold.Chemscore.Internal.Correction>
   9.000000E+99

> <Gold.Chemscore.Hbonds>
donor molecule, donor type, donor heavy atom, donor atom, acceptor molecule, acceptor atom, score
      L1  H    13    44       P1  7948  0.78

> <Gold.Chemscore.Hbond.Weighted>
-3.3016

> <Gold.Chemscore.Metal.Weighted>
-0.0000

> <Gold.Chemscore.Lipo.Weighted>
-10.0097

> <Gold.Chemscore.Internal_Hbond.Weighted>
0.0000

> <Gold.Chemscore.DEClash.Weighted>
0.0450

> <Gold.Chemscore.DEInternal.Weighted>
1.2978

> <Gold.Chemscore.Rot.Weighted>
3.4401

> <Gold.Chemscore.Internal.Correction.Weighted>
   9.000000E+99

> <Gold.Protein.RotatedTorsions>
[ 6907 6896 6895 6894 ] final  -37.87 input  -60.11 | X-H torsion
[ 7974 7965 7964 7962 ] final   34.81 input  175.53 | X-H torsion
[ 8008 7997 7996 7995 ] final   45.53 input   59.86 | X-H torsion
[ 10167 10162 10161 10158 ] final  -62.53 input  -65.29 | X-H torsion
[ 10718 10713 10712 10709 ] final  -68.54 input   66.30 | X-H torsion
[ 10763 10752 10751 10750 ] final   -7.26 input  -60.55 | X-H torsion
[ 11005 11000 10999 10996 ] final   34.86 input  -57.11 | X-H torsion

> <Gold.Protein.ActiveResidues>
 VAL166  LYS551  ARG553  GLY616  TRP617  ASP618  TYR619  PRO620  LYS621  CYS622 
 ASP623  PHE694  ASN695  SER759  ASP760  ASP761  ALA762  ILE779  LEU786  VAL792 
 PHE793  MET794  SER795  GLU796  ALA797  LYS798  CYS799  TRP800  GLU811  SER814 

> <Gold.Protein.RotatedAtoms>
  151.0094  134.9385  159.7998 H   0  0  0  0  0  0  0  0  0  0  0  0  # atno 6907 bound_to 6896
  152.5298  134.3048  159.9102 H   0  0  0  0  0  0  0  0  0  0  0  0  # atno 6908 bound_to 6896
  151.3054  133.4062  159.2677 H   0  0  0  0  0  0  0  0  0  0  0  0  # atno 6909 bound_to 6896
  146.1327  139.6222  142.9216 H   0  0  0  0  0  0  0  0  0  0  0  0  # atno 7974 bound_to 7965
  155.3373  140.3406  155.4239 H   0  0  0  0  0  0  0  0  0  0  0  0  # atno 8008 bound_to 7997
  156.1831  140.1671  156.8273 H   0  0  0  0  0  0  0  0  0  0  0  0  # atno 8009 bound_to 7997
  154.5356  140.0736  156.8404 H   0  0  0  0  0  0  0  0  0  0  0  0  # atno 8010 bound_to 7997
  140.5933  143.2346  151.6092 H   0  0  0  0  0  0  0  0  0  0  0  0  # atno 10167 bound_to 10162
  156.0500  130.4296  150.2016 H   0  0  0  0  0  0  0  0  0  0  0  0  # atno 10718 bound_to 10713
  153.4239  135.7010  153.6276 H   0  0  0  0  0  0  0  0  0  0  0  0  # atno 10763 bound_to 10752
  153.4719  135.3713  155.2396 H   0  0  0  0  0  0  0  0  0  0  0  0  # atno 10764 bound_to 10752
  154.8723  135.4045  154.3611 H   0  0  0  0  0  0  0  0  0  0  0  0  # atno 10765 bound_to 10752
  140.2486  134.3330  155.7899 H   0  0  0  0  0  0  0  0  0  0  0  0  # atno 11005 bound_to 11000
  145.5224  141.0431  143.2428 LP  0  0  0  0  0  0  0  0  0  0  0  0  # atno 17320 bound_to 7965
  144.7707  139.6741  143.7196 LP  0  0  0  0  0  0  0  0  0  0  0  0  # atno 17321 bound_to 7965
  139.5241  144.3113  152.0991 LP  0  0  0  0  0  0  0  0  0  0  0  0  # atno 17342 bound_to 10162
  140.2281  144.4397  150.6312 LP  0  0  0  0  0  0  0  0  0  0  0  0  # atno 17343 bound_to 10162
  157.0101  130.9948  151.3368 LP  0  0  0  0  0  0  0  0  0  0  0  0  # atno 17370 bound_to 10713
  157.5416  130.8123  149.8035 LP  0  0  0  0  0  0  0  0  0  0  0  0  # atno 17371 bound_to 10713
  141.2204  133.7340  156.9000 LP  0  0  0  0  0  0  0  0  0  0  0  0  # atno 17394 bound_to 11000
  140.1581  134.9184  157.2680 LP  0  0  0  0  0  0  0  0  0  0  0  0  # atno 17395 bound_to 11000

$$$$
