AV-unprocessed.smi:3009|AV-procd|sdf|11452|dock6
  -GOLD-   2272016383D 1   1.00000     0.00000
 Structure written by MMmdl.
 44 45  0  0  0  0  0  0  0  0  2 V2000
  143.7600  132.4476  151.0000 C   0  0  0  0  0  0  0  0  0  0  0  0
  144.8984  133.4733  151.1294 C   0  0  0  0  0  0  0  0  0  0  0  0
  144.4960  134.8049  150.4778 C   0  0  0  0  0  0  0  0  0  0  0  0
  146.2166  132.9481  150.5203 C   0  0  0  0  0  0  0  0  0  0  0  0
  147.0493  132.1888  151.4886 N   0  3  2  0  0  0  0  0  0  0  0  0
  146.3417  131.0419  152.1101 C   0  0  0  0  0  0  0  0  0  0  0  0
  147.2730  130.2961  153.0792 C   0  0  0  0  0  0  0  0  0  0  0  0
  147.7614  131.2017  154.0599 O   0  0  0  0  0  0  0  0  0  0  0  0
  148.5337  132.2515  153.4866 C   0  0  2  0  0  0  0  0  0  0  0  0
  149.0889  133.1213  154.6286 C   0  0  0  0  0  0  0  0  0  0  0  0
  149.4175  134.4690  154.1772 N   0  0  0  0  0  0  0  0  0  0  0  0
  150.1812  135.3399  154.8512 C   0  0  0  0  0  0  0  0  0  0  0  0
  150.6876  135.0931  155.9461 O   0  0  0  0  0  0  0  0  0  0  0  0
  150.3084  136.4973  154.1826 N   0  0  0  0  0  0  0  0  0  0  0  0
  151.0555  137.6382  154.5700 C   0  0  0  0  0  0  0  0  0  0  0  0
  150.7850  138.9660  154.1412 C   0  0  0  0  0  0  0  0  0  0  0  0
  151.6483  139.8271  154.6602 N   0  0  0  0  0  0  0  0  0  0  0  0
  152.4689  139.0613  155.4143 N   0  0  0  0  0  0  0  0  0  0  0  0
  152.1465  137.7224  155.3889 C   0  0  0  0  0  0  0  0  0  0  0  0
  147.6338  133.0628  152.5342 C   0  0  0  0  0  0  0  0  0  0  0  0
  153.2360  139.4624  155.9347 H   0  0  0  0  0  0  0  0  0  0  0  0
  143.5655  132.2010  149.9558 H   0  0  0  0  0  0  0  0  0  0  0  0
  142.8339  132.8339  151.4264 H   0  0  0  0  0  0  0  0  0  0  0  0
  143.9954  131.5207  151.5232 H   0  0  0  0  0  0  0  0  0  0  0  0
  145.0474  133.6775  152.1889 H   0  0  0  0  0  0  0  0  0  0  0  0
  144.3224  134.6876  149.4077 H   0  0  0  0  0  0  0  0  0  0  0  0
  145.2741  135.5576  150.6084 H   0  0  0  0  0  0  0  0  0  0  0  0
  143.5818  135.2000  150.9217 H   0  0  0  0  0  0  0  0  0  0  0  0
  145.9679  132.3045  149.6749 H   0  0  0  0  0  0  0  0  0  0  0  0
  146.8058  133.7702  150.1109 H   0  0  0  0  0  0  0  0  0  0  0  0
  145.4613  131.4011  152.6453 H   0  0  0  0  0  0  0  0  0  0  0  0
  145.9907  130.3480  151.3475 H   0  0  0  0  0  0  0  0  0  0  0  0
  146.7294  129.4945  153.5794 H   0  0  0  0  0  0  0  0  0  0  0  0
  148.1042  129.8322  152.5457 H   0  0  0  0  0  0  0  0  0  0  0  0
  149.3637  131.8248  152.9200 H   0  0  0  0  0  0  0  0  0  0  0  0
  148.3706  133.1765  155.4482 H   0  0  0  0  0  0  0  0  0  0  0  0
  149.9912  132.6683  155.0400 H   0  0  0  0  0  0  0  0  0  0  0  0
  149.0387  134.7564  153.2865 H   0  0  0  0  0  0  0  0  0  0  0  0
  149.8259  136.5686  153.2988 H   0  0  0  0  0  0  0  0  0  0  0  0
  150.0068  139.3264  153.4845 H   0  0  0  0  0  0  0  0  0  0  0  0
  152.7088  136.9822  155.9386 H   0  0  0  0  0  0  0  0  0  0  0  0
  148.2204  133.8529  152.0635 H   0  0  0  0  0  0  0  0  0  0  0  0
  146.8314  133.5478  153.0928 H   0  0  0  0  0  0  0  0  0  0  0  0
  147.8282  131.8120  150.9672 H   0  0  0  0  0  0  0  0  0  0  0  0
  1  2  1  0  0  0  0
  1 22  1  0  0  0  0
  1 23  1  0  0  0  0
  1 24  1  0  0  0  0
  2  3  1  0  0  0  0
  2  4  1  0  0  0  0
  2 25  1  0  0  0  0
  3 26  1  0  0  0  0
  3 27  1  0  0  0  0
  3 28  1  0  0  0  0
  4  5  1  0  0  0  0
  4 29  1  0  0  0  0
  4 30  1  0  0  0  0
  5 20  1  0  0  0  0
  5  6  1  0  0  0  0
  5 44  1  0  0  0  0
  6  7  1  0  0  0  0
  6 31  1  0  0  0  0
  6 32  1  0  0  0  0
  7  8  1  0  0  0  0
  7 33  1  0  0  0  0
  7 34  1  0  0  0  0
  8  9  1  0  0  0  0
  9 10  1  0  0  0  0
  9 20  1  0  0  0  0
  9 35  1  0  0  0  0
 10 11  1  0  0  0  0
 10 36  1  0  0  0  0
 10 37  1  0  0  0  0
 11 12  1  0  0  0  0
 11 38  1  0  0  0  0
 12 13  2  0  0  0  0
 12 14  1  0  0  0  0
 14 15  1  0  0  0  0
 14 39  1  0  0  0  0
 15 19  2  0  0  0  0
 15 16  1  0  0  0  0
 16 17  2  0  0  0  0
 16 40  1  0  0  0  0
 17 18  1  0  0  0  0
 18 21  1  0  0  0  0
 18 19  1  0  0  0  0
 19 41  1  0  0  0  0
 20 42  1  0  0  0  0
 20 43  1  0  0  0  0
M  CHG  1   5   1
M  END
> <s_m_source_file>
AV-unprocessed.smi

> <i_m_source_file_index>
3009

> <i_lp_mmshare_version>
43012

> <i_f3d_flags>
0

> <s_epik_input>
W0NIM11bQ0hdKFtDSDNdKVtDSDJdTjFbQ0gyXVtDSDJdT1tDQEhdKFtDSDJdMSlbQ0gyXVtOSF1DKD1PKVtOSF1jMltjSF1uW25IXVtjSF0y

> <s_epik_cmdline>
J2VwaWtfcHl0aG9uJywgJy1waCcsICc3LjAnLCAnLXRuJywgJzgnLCAnLW1hJywgJzIwMCcsICctbWV0YWxfYmluZGluZycsICctaW1hZScsICc8aW5maWxlLm1hZT4nLCAnLW9tYWUnLCAnPG91dGZpbGUubWFlPic=

> <r_lp_tautomer_probability>
0.5

> <r_epik_Ionization_Penalty>
0.0974064

> <r_epik_Ionization_Penalty_Charging>
0.0973651

> <r_epik_Ionization_Penalty_Neutral>
4.13573e-05

> <r_epik_State_Penalty>
0.0874853

> <r_epik_Charging_Adjusted_Penalty>
0.18485

> <i_epik_Tot_Q>
1

> <i_epik_Tot_abs_Q>
1

> <r_epik_Metal_State_Penalty>
0.0874855

> <b_epik_Metal_Only>
0

> <s_lp_Force_Field>
OPLS_2005

> <r_lp_Energy>
20.2975

> <b_lp_Chiralities_Consistent>
1

> <s_lp_Variant>
AV-unprocessed.smi:3009-4

> <Gold.Version>
5.8.1

> <Gold.Id.Protein>
6NUR|6NUR_protein|mol2

> <Gold.PLP.Fitness>
50.4059

> <Gold.PLP.PLP>
-37.5314

> <Gold.PLP.part.hbond>
-5.0000

> <Gold.PLP.part.metal>
0.0000

> <Gold.PLP.part.buried>
-5.5463

> <Gold.PLP.part.nonpolar>
-28.3353

> <Gold.PLP.part.repulsive>
0.4568

> <Gold.PLP.ligand.clash>
0.0000

> <Gold.PLP.ligand.torsion>
0.8840

> <Gold.PLP.Chemscore.Hbond>
3.8664

> <Gold.PLP.Chemscore.CHOScore>
1.0000

> <Gold.PLP.Chemscore.Metal>
0.0000

> <Gold.Chemscore.Hbonds>
donor molecule, donor type, donor heavy atom, donor atom, acceptor molecule, acceptor atom, score
      L1  H     5    44       P1 10747  1.00
      L1  H    11    38       P1  7948  0.74
      L1  H    14    39       P1  7948  0.95
      P1  H  7989  7998       L1    17  0.90
      L1  C    16    40       P1  7957  1.00

> <Gold.PLP.Chemscore.Internal.Correction>
0.0434

> <Gold.Rescore>
     Score         DG    S(hbond)    S(metal)    S(lipo)     H(rot)  DE(clash)    DE(int)     intcor
     18.00     -20.22       2.89        0.00      82.68       1.80       0.27       1.95       ----

> <Gold.Chemscore.Fitness>
17.9975

> <Gold.Chemscore.DG>
-20.2169

> <Gold.Chemscore.ZeroCoef>
-5.4800

> <Gold.Chemscore.Hbond>
2.8928

> <Gold.Chemscore.Metal>
0.0000

> <Gold.Chemscore.Lipo>
82.6787

> <Gold.Chemscore.Internal_Hbond>
0.0000

> <Gold.Chemscore.DEClash>
0.2698

> <Gold.Chemscore.DEInternal>
1.9497

> <Gold.Chemscore.Rot>
1.7963

> <Gold.Chemscore.Internal.Correction>
   9.000000E+99

> <Gold.Chemscore.Hbonds>
donor molecule, donor type, donor heavy atom, donor atom, acceptor molecule, acceptor atom, score
      L1  H     5    44       P1 10747  1.00
      L1  H    11    38       P1  7948  0.10
      L1  H    14    39       P1  7948  0.22
      P1  H  7989  7998       L1    17  0.17

> <Gold.Chemscore.Hbond.Weighted>
-9.6620

> <Gold.Chemscore.Metal.Weighted>
-0.0000

> <Gold.Chemscore.Lipo.Weighted>
-9.6734

> <Gold.Chemscore.Internal_Hbond.Weighted>
0.0000

> <Gold.Chemscore.DEClash.Weighted>
0.2698

> <Gold.Chemscore.DEInternal.Weighted>
1.9497

> <Gold.Chemscore.Rot.Weighted>
4.5985

> <Gold.Chemscore.Internal.Correction.Weighted>
   9.000000E+99

> <Gold.Protein.RotatedTorsions>
[ 6907 6896 6895 6894 ] final  170.10 input  -60.11 | X-H torsion
[ 7974 7965 7964 7962 ] final  116.14 input  175.53 | X-H torsion
[ 8008 7997 7996 7995 ] final -176.82 input   59.86 | X-H torsion
[ 10167 10162 10161 10158 ] final  -17.91 input  -65.29 | X-H torsion
[ 10718 10713 10712 10709 ] final -131.65 input   66.30 | X-H torsion
[ 10763 10752 10751 10750 ] final   -6.66 input  -60.55 | X-H torsion
[ 11005 11000 10999 10996 ] final  -83.91 input  -57.11 | X-H torsion

> <Gold.Protein.ActiveResidues>
 VAL166  LYS551  ARG553  GLY616  TRP617  ASP618  TYR619  PRO620  LYS621  CYS622 
 ASP623  PHE694  ASN695  SER759  ASP760  ASP761  ALA762  ILE779  LEU786  VAL792 
 PHE793  MET794  SER795  GLU796  ALA797  LYS798  CYS799  TRP800  GLU811  SER814 

> <Gold.Protein.RotatedAtoms>
  151.8214  133.3395  159.3585 H   0  0  0  0  0  0  0  0  0  0  0  0  # atno 6907 bound_to 6896
  150.7293  134.5570  159.5832 H   0  0  0  0  0  0  0  0  0  0  0  0  # atno 6908 bound_to 6896
  152.3003  134.7620  160.0410 H   0  0  0  0  0  0  0  0  0  0  0  0  # atno 6909 bound_to 6896
  145.1833  139.3038  143.4406 H   0  0  0  0  0  0  0  0  0  0  0  0  # atno 7974 bound_to 7965
  155.9995  140.1217  157.0561 H   0  0  0  0  0  0  0  0  0  0  0  0  # atno 8008 bound_to 7997
  154.4238  140.1109  156.5746 H   0  0  0  0  0  0  0  0  0  0  0  0  # atno 8009 bound_to 7997
  155.6231  140.3472  155.4661 H   0  0  0  0  0  0  0  0  0  0  0  0  # atno 8010 bound_to 7997
  140.7253  143.4968  150.9920 H   0  0  0  0  0  0  0  0  0  0  0  0  # atno 10167 bound_to 10162
  156.2265  130.7011  151.0813 H   0  0  0  0  0  0  0  0  0  0  0  0  # atno 10718 bound_to 10713
  153.4155  135.7008  153.6330 H   0  0  0  0  0  0  0  0  0  0  0  0  # atno 10763 bound_to 10752
  153.4806  135.3694  155.2440 H   0  0  0  0  0  0  0  0  0  0  0  0  # atno 10764 bound_to 10752
  154.8719  135.4065  154.3514 H   0  0  0  0  0  0  0  0  0  0  0  0  # atno 10765 bound_to 10752
  141.1654  133.7318  156.8790 H   0  0  0  0  0  0  0  0  0  0  0  0  # atno 11005 bound_to 11000
  146.3449  140.2020  142.8589 LP  0  0  0  0  0  0  0  0  0  0  0  0  # atno 17320 bound_to 7965
  145.0114  140.8717  143.5222 LP  0  0  0  0  0  0  0  0  0  0  0  0  # atno 17321 bound_to 7965
  139.8675  143.7235  152.3169 LP  0  0  0  0  0  0  0  0  0  0  0  0  # atno 17342 bound_to 10162
  139.7472  144.7544  151.0562 LP  0  0  0  0  0  0  0  0  0  0  0  0  # atno 17343 bound_to 10162
  157.7113  131.0733  150.6490 LP  0  0  0  0  0  0  0  0  0  0  0  0  # atno 17370 bound_to 10713
  156.6556  130.4497  149.5705 LP  0  0  0  0  0  0  0  0  0  0  0  0  # atno 17371 bound_to 10713
  140.1728  134.9088  157.2854 LP  0  0  0  0  0  0  0  0  0  0  0  0  # atno 17394 bound_to 11000
  140.2482  134.3714  155.7452 LP  0  0  0  0  0  0  0  0  0  0  0  0  # atno 17395 bound_to 11000

$$$$
