AV-unprocessed.smi:720|AV-procd|sdf|3499|dock7
  -GOLD-   22720 0493D 1   1.00000     0.00000
 Structure written by MMmdl.
 46 48  0  0  0  0  0  0  0  0  1 V2000
  151.8228  143.8306  158.0561 C   0  0  0  0  0  0  0  0  0  0  0  0
  151.2352  142.5210  157.7978 N   0  0  0  0  0  0  0  0  0  0  0  0
  152.1598  141.5080  158.2901 C   0  0  0  0  0  0  0  0  0  0  0  0
  151.0018  142.2946  156.3701 C   0  0  0  0  0  0  0  0  0  0  0  0
  150.7666  140.8127  156.0062 C   0  0  0  0  0  0  0  0  0  0  0  0
  149.6564  140.6078  155.0921 N   0  0  0  0  0  0  0  0  0  0  0  0
  148.7126  141.5224  154.6684 C   0  0  0  0  0  0  0  0  0  0  0  0
  147.8759  140.8798  153.8009 C   0  0  0  0  0  0  0  0  0  0  0  0
  148.4101  139.5575  153.7532 C   0  0  0  0  0  0  0  0  0  0  0  0
  147.9033  138.4781  152.9864 N   0  0  0  0  0  0  0  0  0  0  0  0
  146.6234  138.0938  152.8200 C   0  0  0  0  0  0  0  0  0  0  0  0
  145.6487  138.6721  153.2962 O   0  0  0  0  0  0  0  0  0  0  0  0
  146.4771  136.9840  152.0743 N   0  0  0  0  0  0  0  0  0  0  0  0
  145.2320  136.3043  151.7039 C   0  0  2  0  0  0  0  0  0  0  0  0
  144.5305  135.7139  152.9471 C   0  0  0  0  0  0  0  0  0  0  0  0
  144.4209  134.2155  152.6091 C   0  0  2  0  0  0  0  0  0  0  0  0
  145.8170  133.5668  152.6741 C   0  0  0  0  0  0  0  0  0  0  0  0
  146.5039  134.1071  151.4057 C   0  0  0  0  0  0  0  0  0  0  0  0
  145.4306  135.0469  150.8165 C   0  0  1  0  0  0  0  0  0  0  0  0
  144.1598  134.2563  151.1097 C   0  0  0  0  0  0  0  0  0  0  0  0
  149.4841  139.4022  154.5075 N   0  0  0  0  0  0  0  0  0  0  0  0
  151.1259  144.6313  157.8170 H   0  0  0  0  0  0  0  0  0  0  0  0
  152.7346  143.9807  157.4762 H   0  0  0  0  0  0  0  0  0  0  0  0
  152.0711  143.9365  159.1128 H   0  0  0  0  0  0  0  0  0  0  0  0
  151.7458  140.5084  158.1534 H   0  0  0  0  0  0  0  0  0  0  0  0
  152.3446  141.6418  159.3568 H   0  0  0  0  0  0  0  0  0  0  0  0
  153.1171  141.5560  157.7685 H   0  0  0  0  0  0  0  0  0  0  0  0
  150.1971  142.9313  155.9993 H   0  0  0  0  0  0  0  0  0  0  0  0
  151.9015  142.6071  155.8380 H   0  0  0  0  0  0  0  0  0  0  0  0
  151.6580  140.4224  155.5143 H   0  0  0  0  0  0  0  0  0  0  0  0
  150.6259  140.2106  156.9057 H   0  0  0  0  0  0  0  0  0  0  0  0
  148.7120  142.5439  155.0190 H   0  0  0  0  0  0  0  0  0  0  0  0
  147.0251  141.3036  153.2894 H   0  0  0  0  0  0  0  0  0  0  0  0
  148.6019  137.8948  152.5495 H   0  0  0  0  0  0  0  0  0  0  0  0
  147.3261  136.5603  151.7286 H   0  0  0  0  0  0  0  0  0  0  0  0
  144.5566  137.0091  151.2153 H   0  0  0  0  0  0  0  0  0  0  0  0
  145.0787  135.8818  153.8753 H   0  0  0  0  0  0  0  0  0  0  0  0
  143.5400  136.1543  153.0677 H   0  0  0  0  0  0  0  0  0  0  0  0
  143.6664  133.6902  153.1951 H   0  0  0  0  0  0  0  0  0  0  0  0
  146.3541  133.8366  153.5841 H   0  0  0  0  0  0  0  0  0  0  0  0
  145.7455  132.4793  152.6368 H   0  0  0  0  0  0  0  0  0  0  0  0
  147.4514  134.6024  151.6175 H   0  0  0  0  0  0  0  0  0  0  0  0
  146.7147  133.2909  150.7133 H   0  0  0  0  0  0  0  0  0  0  0  0
  145.5866  135.2751  149.7617 H   0  0  0  0  0  0  0  0  0  0  0  0
  144.1453  133.2687  150.6448 H   0  0  0  0  0  0  0  0  0  0  0  0
  143.2462  134.7907  150.8428 H   0  0  0  0  0  0  0  0  0  0  0  0
  1  2  1  0  0  0  0
  1 22  1  0  0  0  0
  1 23  1  0  0  0  0
  1 24  1  0  0  0  0
  2  3  1  0  0  0  0
  2  4  1  0  0  0  0
  3 25  1  0  0  0  0
  3 26  1  0  0  0  0
  3 27  1  0  0  0  0
  4  5  1  0  0  0  0
  4 28  1  0  0  0  0
  4 29  1  0  0  0  0
  5  6  1  0  0  0  0
  5 30  1  0  0  0  0
  5 31  1  0  0  0  0
  6 21  1  0  0  0  0
  6  7  1  0  0  0  0
  7  8  2  0  0  0  0
  7 32  1  0  0  0  0
  8  9  1  0  0  0  0
  8 33  1  0  0  0  0
  9 10  1  0  0  0  0
  9 21  2  0  0  0  0
 10 11  1  0  0  0  0
 10 34  1  0  0  0  0
 11 12  2  0  0  0  0
 11 13  1  0  0  0  0
 13 14  1  0  0  0  0
 13 35  1  0  0  0  0
 14 19  1  0  0  0  0
 14 15  1  0  0  0  0
 14 36  1  0  0  0  0
 15 16  1  0  0  0  0
 15 37  1  0  0  0  0
 15 38  1  0  0  0  0
 16 20  1  0  0  0  0
 16 17  1  0  0  0  0
 16 39  1  0  0  0  0
 17 18  1  0  0  0  0
 17 40  1  0  0  0  0
 17 41  1  0  0  0  0
 18 19  1  0  0  0  0
 18 42  1  0  0  0  0
 18 43  1  0  0  0  0
 19 20  1  0  0  0  0
 19 44  1  0  0  0  0
 20 45  1  0  0  0  0
 20 46  1  0  0  0  0
M  END
> <s_m_source_file>
AV-unprocessed.smi

> <i_m_source_file_index>
720

> <i_lp_mmshare_version>
43012

> <i_f3d_flags>
0

> <s_epik_input>
W0NIM11OKFtDSDNdKVtDSDJdW0NIMl1uMVtjSF1bY0hdYyhuMSlbTkhdQyg9TylbTkhdW0NASF0oW0NIMl1bQ0BIXTIzKVtDQEhdKFtDSDJdMylbQ0gyXVtDSDJdMg==

> <s_epik_cmdline>
J2VwaWtfcHl0aG9uJywgJy1waCcsICc3LjAnLCAnLXRuJywgJzgnLCAnLW1hJywgJzIwMCcsICctbWV0YWxfYmluZGluZycsICctaW1hZScsICc8aW5maWxlLm1hZT4nLCAnLW9tYWUnLCAnPG91dGZpbGUubWFlPic=

> <r_lp_tautomer_probability>
1

> <r_epik_Ionization_Penalty>
1.83819

> <r_epik_Ionization_Penalty_Charging>
0

> <r_epik_Ionization_Penalty_Neutral>
1.83819

> <r_epik_State_Penalty>
1.95467

> <r_epik_Charging_Adjusted_Penalty>
1.95467

> <i_epik_Tot_Q>
0

> <i_epik_Tot_abs_Q>
0

> <r_epik_Metal_State_Penalty>
1.95467

> <b_epik_Metal_Only>
0

> <s_lp_Force_Field>
OPLS_2005

> <r_lp_Energy>
64.6773

> <b_lp_Chiralities_Consistent>
1

> <s_lp_Variant>
AV-unprocessed.smi:720-5

> <Gold.Version>
5.8.1

> <Gold.Id.Protein>
6NUR|6NUR_protein|mol2

> <Gold.PLP.Fitness>
42.9160

> <Gold.PLP.PLP>
-35.9226

> <Gold.PLP.part.hbond>
-3.0000

> <Gold.PLP.part.metal>
0.0000

> <Gold.PLP.part.buried>
-2.7707

> <Gold.PLP.part.nonpolar>
-32.3628

> <Gold.PLP.part.repulsive>
2.6859

> <Gold.PLP.ligand.clash>
0.0000

> <Gold.PLP.ligand.torsion>
0.9149

> <Gold.PLP.Chemscore.Hbond>
1.9280

> <Gold.PLP.Chemscore.CHOScore>
1.0000

> <Gold.PLP.Chemscore.Metal>
0.0000

> <Gold.Chemscore.Hbonds>
donor molecule, donor type, donor heavy atom, donor atom, acceptor molecule, acceptor atom, score
      L1  H    10    34       P1  7948  0.93
      L1  H    13    35       P1  7948  1.00
      L1  C     7    32       P1  8028  1.00

> <Gold.PLP.Chemscore.Internal.Correction>
0.0393

> <Gold.Rescore>
     Score         DG    S(hbond)    S(metal)    S(lipo)     H(rot)  DE(clash)    DE(int)     intcor
     15.69     -17.16       1.91        0.00      78.74       1.53       0.45       1.02       ----

> <Gold.Chemscore.Fitness>
15.6879

> <Gold.Chemscore.DG>
-17.1575

> <Gold.Chemscore.ZeroCoef>
-5.4800

> <Gold.Chemscore.Hbond>
1.9117

> <Gold.Chemscore.Metal>
0.0000

> <Gold.Chemscore.Lipo>
78.7382

> <Gold.Chemscore.Internal_Hbond>
0.0000

> <Gold.Chemscore.DEClash>
0.4459

> <Gold.Chemscore.DEInternal>
1.0237

> <Gold.Chemscore.Rot>
1.5312

> <Gold.Chemscore.Internal.Correction>
   9.000000E+99

> <Gold.Chemscore.Hbonds>
donor molecule, donor type, donor heavy atom, donor atom, acceptor molecule, acceptor atom, score
      L1  H    10    34       P1  7948  0.90
      L1  H    13    35       P1  7948  0.96

> <Gold.Chemscore.Hbond.Weighted>
-6.3850

> <Gold.Chemscore.Metal.Weighted>
-0.0000

> <Gold.Chemscore.Lipo.Weighted>
-9.2124

> <Gold.Chemscore.Internal_Hbond.Weighted>
0.0000

> <Gold.Chemscore.DEClash.Weighted>
0.4459

> <Gold.Chemscore.DEInternal.Weighted>
1.0237

> <Gold.Chemscore.Rot.Weighted>
3.9199

> <Gold.Chemscore.Internal.Correction.Weighted>
   9.000000E+99

> <Gold.Protein.RotatedTorsions>
[ 6907 6896 6895 6894 ] final -157.46 input  -60.11 | X-H torsion
[ 7974 7965 7964 7962 ] final   31.09 input  175.53 | X-H torsion
[ 8008 7997 7996 7995 ] final  -42.38 input   59.86 | X-H torsion
[ 10167 10162 10161 10158 ] final  -26.16 input  -65.29 | X-H torsion
[ 10718 10713 10712 10709 ] final   77.86 input   66.30 | X-H torsion
[ 10763 10752 10751 10750 ] final  -29.98 input  -60.55 | X-H torsion
[ 11005 11000 10999 10996 ] final   68.05 input  -57.11 | X-H torsion

> <Gold.Protein.ActiveResidues>
 VAL166  LYS551  ARG553  GLY616  TRP617  ASP618  TYR619  PRO620  LYS621  CYS622 
 ASP623  PHE694  ASN695  SER759  ASP760  ASP761  ALA762  ILE779  LEU786  VAL792 
 PHE793  MET794  SER795  GLU796  ALA797  LYS798  CYS799  TRP800  GLU811  SER814 

> <Gold.Protein.RotatedAtoms>
  151.3032  133.4113  159.2641 H   0  0  0  0  0  0  0  0  0  0  0  0  # atno 6907 bound_to 6896
  151.0177  134.9446  159.8052 H   0  0  0  0  0  0  0  0  0  0  0  0  # atno 6908 bound_to 6896
  152.5316  134.2996  159.9126 H   0  0  0  0  0  0  0  0  0  0  0  0  # atno 6909 bound_to 6896
  146.1572  139.6702  142.9058 H   0  0  0  0  0  0  0  0  0  0  0  0  # atno 7974 bound_to 7965
  154.3999  140.1475  156.3346 H   0  0  0  0  0  0  0  0  0  0  0  0  # atno 8008 bound_to 7997
  155.8412  140.3462  155.5612 H   0  0  0  0  0  0  0  0  0  0  0  0  # atno 8009 bound_to 7997
  155.8084  140.0880  157.1908 H   0  0  0  0  0  0  0  0  0  0  0  0  # atno 8010 bound_to 7997
  140.7284  143.4202  151.0964 H   0  0  0  0  0  0  0  0  0  0  0  0  # atno 10167 bound_to 10162
  157.6725  130.9841  150.1703 H   0  0  0  0  0  0  0  0  0  0  0  0  # atno 10718 bound_to 10713
  153.7735  135.6910  153.4902 H   0  0  0  0  0  0  0  0  0  0  0  0  # atno 10763 bound_to 10752
  153.1859  135.4489  155.0086 H   0  0  0  0  0  0  0  0  0  0  0  0  # atno 10764 bound_to 10752
  154.8109  135.3377  154.7242 H   0  0  0  0  0  0  0  0  0  0  0  0  # atno 10765 bound_to 10752
  139.9734  134.6862  156.0402 H   0  0  0  0  0  0  0  0  0  0  0  0  # atno 11005 bound_to 11000
  145.4679  141.0435  143.2715 LP  0  0  0  0  0  0  0  0  0  0  0  0  # atno 17320 bound_to 7965
  144.7978  139.6199  143.7085 LP  0  0  0  0  0  0  0  0  0  0  0  0  # atno 17321 bound_to 7965
  139.7846  143.8305  152.3143 LP  0  0  0  0  0  0  0  0  0  0  0  0  # atno 17342 bound_to 10162
  139.8268  144.7271  150.9501 LP  0  0  0  0  0  0  0  0  0  0  0  0  # atno 17343 bound_to 10162
  156.2459  130.3695  149.8286 LP  0  0  0  0  0  0  0  0  0  0  0  0  # atno 17370 bound_to 10713
  156.6073  130.8571  151.3446 LP  0  0  0  0  0  0  0  0  0  0  0  0  # atno 17371 bound_to 10713
  141.1412  133.6564  156.3737 LP  0  0  0  0  0  0  0  0  0  0  0  0  # atno 17394 bound_to 11000
  140.5245  134.6272  157.5329 LP  0  0  0  0  0  0  0  0  0  0  0  0  # atno 17395 bound_to 11000

$$$$
