AV-unprocessed.smi:240|AV-procd|sdf|1833|dock2
  -GOLD-   2262020443D 1   1.00000     0.00000
 Structure written by MMmdl.
 55 59  0  0  0  0  0  0  0  0  1 V2000
  151.3315  143.9129  156.8490 O   0  0  0  0  0  0  0  0  0  0  0  0
  151.3392  142.8801  157.8136 C   0  0  1  0  0  0  0  0  0  0  0  0
  150.9704  143.5099  159.1621 C   0  0  0  0  0  0  0  0  0  0  0  0
  149.4327  143.5002  159.2234 C   0  0  0  0  0  0  0  0  0  0  0  0
  148.9535  142.5490  158.1140 C   0  0  0  0  0  0  0  0  0  0  0  0
  150.2215  141.8400  157.6159 C   0  0  1  0  0  0  0  0  0  0  0  0
  150.1245  141.0677  156.2574 C   0  0  2  0  0  0  0  0  0  0  0  0
  149.6686  141.9429  155.0584 C   0  0  0  0  0  0  0  0  0  0  0  0
  149.5565  141.1677  153.8710 O   0  0  0  0  0  0  0  0  0  0  0  0
  148.5854  140.1412  153.9987 C   0  0  0  0  0  0  0  0  0  0  0  0
  149.0437  139.1787  155.0978 C   0  0  0  0  0  0  0  0  0  0  0  0
  149.2381  139.8947  156.3539 N   0  0  0  0  0  0  0  0  0  0  0  0
  149.4777  139.0086  157.3482 C   0  0  0  0  0  0  0  0  0  0  0  0
  150.7514  138.7611  157.7545 N   0  0  0  0  0  0  0  0  0  0  0  0
  150.9790  137.8791  158.7325 C   0  0  0  0  0  0  0  0  0  0  0  0
  150.0980  137.1460  159.4177 N   0  0  0  0  0  0  0  0  0  0  0  0
  148.8210  137.3857  159.0015 C   0  0  0  0  0  0  0  0  0  0  0  0
  148.4273  138.2946  157.9809 C   0  0  0  0  0  0  0  0  0  0  0  0
  147.0469  138.2808  157.8330 N   0  0  0  0  0  0  0  0  0  0  0  0
  146.6450  137.4105  158.7188 C   0  0  0  0  0  0  0  0  0  0  0  0
  147.6446  136.8167  159.4581 N   0  0  0  0  0  0  0  0  0  0  0  0
  147.4793  135.8190  160.5050 C   0  0  0  0  0  0  0  0  0  0  0  0
  146.3798  136.1741  161.5352 C   0  0  2  0  0  0  0  0  0  0  0  0
  146.6102  137.4861  162.0168 O   0  0  0  0  0  0  0  0  0  0  0  0
  146.3568  135.2061  162.7204 C   0  0  0  0  0  0  0  0  0  0  0  0
  145.0860  134.3958  162.4961 C   0  0  0  0  0  0  0  0  0  0  0  0
  144.2057  135.3518  161.9333 O   0  0  0  0  0  0  0  0  0  0  0  0
  144.9479  136.0844  160.9689 C   0  0  0  0  0  0  0  0  0  0  0  0
  150.5822  143.7904  156.2862 H   0  0  0  0  0  0  0  0  0  0  0  0
  152.3279  142.4205  157.8349 H   0  0  0  0  0  0  0  0  0  0  0  0
  151.3607  142.8832  159.9653 H   0  0  0  0  0  0  0  0  0  0  0  0
  151.3928  144.5058  159.3026 H   0  0  0  0  0  0  0  0  0  0  0  0
  149.0910  143.1695  160.2048 H   0  0  0  0  0  0  0  0  0  0  0  0
  149.0312  144.5008  159.0597 H   0  0  0  0  0  0  0  0  0  0  0  0
  148.2060  141.8422  158.4756 H   0  0  0  0  0  0  0  0  0  0  0  0
  148.4923  143.1314  157.3174 H   0  0  0  0  0  0  0  0  0  0  0  0
  150.4508  141.0954  158.3787 H   0  0  0  0  0  0  0  0  0  0  0  0
  151.1223  140.6962  156.0187 H   0  0  0  0  0  0  0  0  0  0  0  0
  148.7163  142.4355  155.2558 H   0  0  0  0  0  0  0  0  0  0  0  0
  150.3947  142.7219  154.8398 H   0  0  0  0  0  0  0  0  0  0  0  0
  147.6059  140.5646  154.2269 H   0  0  0  0  0  0  0  0  0  0  0  0
  148.4959  139.6139  153.0490 H   0  0  0  0  0  0  0  0  0  0  0  0
  148.3016  138.3889  155.2248 H   0  0  0  0  0  0  0  0  0  0  0  0
  149.9781  138.6986  154.8026 H   0  0  0  0  0  0  0  0  0  0  0  0
  152.0150  137.7390  159.0035 H   0  0  0  0  0  0  0  0  0  0  0  0
  145.6001  137.1721  158.8553 H   0  0  0  0  0  0  0  0  0  0  0  0
  147.2511  134.8623  160.0334 H   0  0  0  0  0  0  0  0  0  0  0  0
  148.4397  135.6887  161.0056 H   0  0  0  0  0  0  0  0  0  0  0  0
  146.2299  137.5583  162.8791 H   0  0  0  0  0  0  0  0  0  0  0  0
  147.2440  134.5753  162.7857 H   0  0  0  0  0  0  0  0  0  0  0  0
  146.2696  135.7448  163.6655 H   0  0  0  0  0  0  0  0  0  0  0  0
  145.2568  133.5854  161.7852 H   0  0  0  0  0  0  0  0  0  0  0  0
  144.6874  133.9713  163.4177 H   0  0  0  0  0  0  0  0  0  0  0  0
  144.4934  137.0557  160.7692 H   0  0  0  0  0  0  0  0  0  0  0  0
  144.9262  135.5151  160.0395 H   0  0  0  0  0  0  0  0  0  0  0  0
  1  2  1  0  0  0  0
  1 29  1  0  0  0  0
  2  6  1  0  0  0  0
  2  3  1  0  0  0  0
  2 30  1  0  0  0  0
  3  4  1  0  0  0  0
  3 31  1  0  0  0  0
  3 32  1  0  0  0  0
  4  5  1  0  0  0  0
  4 33  1  0  0  0  0
  4 34  1  0  0  0  0
  5  6  1  0  0  0  0
  5 35  1  0  0  0  0
  5 36  1  0  0  0  0
  6  7  1  0  0  0  0
  6 37  1  0  0  0  0
  7 12  1  0  0  0  0
  7  8  1  0  0  0  0
  7 38  1  0  0  0  0
  8  9  1  0  0  0  0
  8 39  1  0  0  0  0
  8 40  1  0  0  0  0
  9 10  1  0  0  0  0
 10 11  1  0  0  0  0
 10 41  1  0  0  0  0
 10 42  1  0  0  0  0
 11 12  1  0  0  0  0
 11 43  1  0  0  0  0
 11 44  1  0  0  0  0
 12 13  1  0  0  0  0
 13 18  1  0  0  0  0
 13 14  2  0  0  0  0
 14 15  1  0  0  0  0
 15 16  2  0  0  0  0
 15 45  1  0  0  0  0
 16 17  1  0  0  0  0
 17 21  1  0  0  0  0
 17 18  2  0  0  0  0
 18 19  1  0  0  0  0
 19 20  2  0  0  0  0
 20 21  1  0  0  0  0
 20 46  1  0  0  0  0
 21 22  1  0  0  0  0
 22 23  1  0  0  0  0
 22 47  1  0  0  0  0
 22 48  1  0  0  0  0
 23 28  1  0  0  0  0
 23 24  1  0  0  0  0
 23 25  1  0  0  0  0
 24 49  1  0  0  0  0
 25 26  1  0  0  0  0
 25 50  1  0  0  0  0
 25 51  1  0  0  0  0
 26 27  1  0  0  0  0
 26 52  1  0  0  0  0
 26 53  1  0  0  0  0
 27 28  1  0  0  0  0
 28 54  1  0  0  0  0
 28 55  1  0  0  0  0
M  END
> <s_m_source_file>
AV-unprocessed.smi

> <i_m_source_file_index>
240

> <i_lp_mmshare_version>
43012

> <i_f3d_flags>
0

> <s_epik_input>
W09IXVtDQEBIXTFbQ0gyXVtDSDJdW0NIMl1bQ0BIXTFbQ0BASF0yW0NIMl1PW0NIMl1bQ0gyXU4yYyhuW2NIXW4zKWMoYzM0KW5bY0hdbjRbQ0gyXVtDQEBdNShbT0hdKVtDSDJdW0NIMl1PW0NIMl01

> <s_epik_cmdline>
J2VwaWtfcHl0aG9uJywgJy1waCcsICc3LjAnLCAnLXRuJywgJzgnLCAnLW1hJywgJzIwMCcsICctbWV0YWxfYmluZGluZycsICctaW1hZScsICc8aW5maWxlLm1hZT4nLCAnLW9tYWUnLCAnPG91dGZpbGUubWFlPic=

> <r_lp_tautomer_probability>
1

> <r_epik_Ionization_Penalty>
0.000130618

> <r_epik_Ionization_Penalty_Charging>
0

> <r_epik_Ionization_Penalty_Neutral>
0.000130618

> <r_epik_State_Penalty>
-0

> <r_epik_Charging_Adjusted_Penalty>
0

> <i_epik_Tot_Q>
0

> <i_epik_Tot_abs_Q>
0

> <r_epik_Metal_State_Penalty>
-0

> <b_epik_Metal_Only>
0

> <s_lp_Force_Field>
OPLS_2005

> <r_lp_Energy>
64.6726

> <b_lp_Chiralities_Consistent>
1

> <s_lp_Variant>
AV-unprocessed.smi:240-10

> <Gold.Version>
5.8.1

> <Gold.Id.Protein>
6NUR|6NUR_protein|mol2

> <Gold.PLP.Fitness>
49.5439

> <Gold.PLP.PLP>
-39.4939

> <Gold.PLP.part.hbond>
-5.6699

> <Gold.PLP.part.metal>
0.0000

> <Gold.PLP.part.buried>
-2.4340

> <Gold.PLP.part.nonpolar>
-32.5714

> <Gold.PLP.part.repulsive>
1.8358

> <Gold.PLP.ligand.clash>
0.0000

> <Gold.PLP.ligand.torsion>
0.9366

> <Gold.PLP.Chemscore.Hbond>
3.8945

> <Gold.PLP.Chemscore.CHOScore>
0.0000

> <Gold.PLP.Chemscore.Metal>
0.0000

> <Gold.Chemscore.Hbonds>
donor molecule, donor type, donor heavy atom, donor atom, acceptor molecule, acceptor atom, score
      L1  H     1    29       P1  8028  0.82
      P1  H  6896  6907       L1    16  0.23
      P1  H  6934  6947       L1    24  0.80
      P1  H  7989  7998       L1     9  0.25
      P1  H  8011  8017       L1     9  0.86

> <Gold.PLP.Chemscore.Internal.Correction>
0.2396

> <Gold.Rescore>
     Score         DG    S(hbond)    S(metal)    S(lipo)     H(rot)  DE(clash)    DE(int)     intcor
     16.48     -19.12       2.96        0.00      97.68       3.00       1.54       1.10       ----

> <Gold.Chemscore.Fitness>
16.4769

> <Gold.Chemscore.DG>
-19.1152

> <Gold.Chemscore.ZeroCoef>
-5.4800

> <Gold.Chemscore.Hbond>
2.9632

> <Gold.Chemscore.Metal>
0.0000

> <Gold.Chemscore.Lipo>
97.6751

> <Gold.Chemscore.Internal_Hbond>
0.0000

> <Gold.Chemscore.DEClash>
1.5394

> <Gold.Chemscore.DEInternal>
1.0989

> <Gold.Chemscore.Rot>
3.0039

> <Gold.Chemscore.Internal.Correction>
   9.000000E+99

> <Gold.Chemscore.Hbonds>
donor molecule, donor type, donor heavy atom, donor atom, acceptor molecule, acceptor atom, score
      L1  H     1    29       P1  8028  0.77
      P1  H  6896  6907       L1    16  0.14
      P1  H  6934  6947       L1    24  0.78
      P1  H  7989  7998       L1     9  0.06
      P1  H  8011  8017       L1     9  0.50

> <Gold.Chemscore.Hbond.Weighted>
-9.8972

> <Gold.Chemscore.Metal.Weighted>
-0.0000

> <Gold.Chemscore.Lipo.Weighted>
-11.4280

> <Gold.Chemscore.Internal_Hbond.Weighted>
0.0000

> <Gold.Chemscore.DEClash.Weighted>
1.5394

> <Gold.Chemscore.DEInternal.Weighted>
1.0989

> <Gold.Chemscore.Rot.Weighted>
7.6899

> <Gold.Chemscore.Internal.Correction.Weighted>
   9.000000E+99

> <Gold.Protein.RotatedTorsions>
[ 6907 6896 6895 6894 ] final  -29.30 input  -60.11 | X-H torsion
[ 7974 7965 7964 7962 ] final -162.03 input  175.53 | X-H torsion
[ 8008 7997 7996 7995 ] final  -36.08 input   59.86 | X-H torsion
[ 10167 10162 10161 10158 ] final -136.38 input  -65.29 | X-H torsion
[ 10718 10713 10712 10709 ] final  108.71 input   66.30 | X-H torsion
[ 10763 10752 10751 10750 ] final  -34.02 input  -60.55 | X-H torsion
[ 11005 11000 10999 10996 ] final   63.32 input  -57.11 | X-H torsion

> <Gold.Protein.ActiveResidues>
 VAL166  LYS551  ARG553  GLY616  TRP617  ASP618  TYR619  PRO620  LYS621  CYS622 
 ASP623  PHE694  ASN695  SER759  ASP760  ASP761  ALA762  ILE779  LEU786  VAL792 
 PHE793  MET794  SER795  GLU796  ALA797  LYS798  CYS799  TRP800  GLU811  SER814 

> <Gold.Protein.RotatedAtoms>
  151.1211  135.0079  159.8538 H   0  0  0  0  0  0  0  0  0  0  0  0  # atno 6907 bound_to 6896
  152.5448  134.1722  159.8611 H   0  0  0  0  0  0  0  0  0  0  0  0  # atno 6908 bound_to 6896
  151.1780  133.4698  159.2627 H   0  0  0  0  0  0  0  0  0  0  0  0  # atno 6909 bound_to 6896
  144.7371  140.3311  143.6153 H   0  0  0  0  0  0  0  0  0  0  0  0  # atno 7974 bound_to 7965
  154.4081  140.1640  156.2316 H   0  0  0  0  0  0  0  0  0  0  0  0  # atno 8008 bound_to 7997
  155.9278  140.3417  155.6201 H   0  0  0  0  0  0  0  0  0  0  0  0  # atno 8009 bound_to 7997
  155.7144  140.0760  157.2348 H   0  0  0  0  0  0  0  0  0  0  0  0  # atno 8010 bound_to 7997
  139.8684  143.6988  152.2642 H   0  0  0  0  0  0  0  0  0  0  0  0  # atno 10167 bound_to 10162
  157.6574  131.0899  150.6346 H   0  0  0  0  0  0  0  0  0  0  0  0  # atno 10718 bound_to 10713
  153.8398  135.6858  153.4804 H   0  0  0  0  0  0  0  0  0  0  0  0  # atno 10763 bound_to 10752
  153.1460  135.4637  154.9565 H   0  0  0  0  0  0  0  0  0  0  0  0  # atno 10764 bound_to 10752
  154.7850  135.3281  154.7853 H   0  0  0  0  0  0  0  0  0  0  0  0  # atno 10765 bound_to 10752
  140.0032  134.6410  155.9897 H   0  0  0  0  0  0  0  0  0  0  0  0  # atno 11005 bound_to 11000
  145.7470  139.1782  143.2343 LP  0  0  0  0  0  0  0  0  0  0  0  0  # atno 17320 bound_to 7965
  146.1090  140.7452  142.9512 LP  0  0  0  0  0  0  0  0  0  0  0  0  # atno 17321 bound_to 7965
  139.7307  144.7583  151.0806 LP  0  0  0  0  0  0  0  0  0  0  0  0  # atno 17342 bound_to 10162
  140.7764  143.5092  150.9674 LP  0  0  0  0  0  0  0  0  0  0  0  0  # atno 17343 bound_to 10162
  156.6651  130.4523  149.5675 LP  0  0  0  0  0  0  0  0  0  0  0  0  # atno 17370 bound_to 10713
  156.2038  130.6636  151.1196 LP  0  0  0  0  0  0  0  0  0  0  0  0  # atno 17371 bound_to 10713
  141.1658  133.6537  156.4473 LP  0  0  0  0  0  0  0  0  0  0  0  0  # atno 17394 bound_to 11000
  140.4689  134.6772  157.5120 LP  0  0  0  0  0  0  0  0  0  0  0  0  # atno 17395 bound_to 11000

$$$$
