AV-unprocessed.smi:2446|AV-procd|sdf|9642|dock3
  -GOLD-   2272013273D 1   1.00000     0.00000
 Structure written by MMmdl.
 39 40  0  0  0  0  0  0  0  0  1 V2000
  150.9278  138.2816  154.4929 C   0  0  0  0  0  0  0  0  0  0  0  0
  149.9689  139.4468  154.6688 C   0  0  0  0  0  0  0  0  0  0  0  0
  150.4265  140.6560  155.2349 C   0  0  0  0  0  0  0  0  0  0  0  0
  149.6398  141.7346  155.4274 N   0  0  0  0  0  0  0  0  0  0  0  0
  148.3451  141.6417  155.0612 C   0  0  0  0  0  0  0  0  0  0  0  0
  147.7824  140.4852  154.4871 C   0  0  0  0  0  0  0  0  0  0  0  0
  148.6126  139.3585  154.2712 C   0  0  0  0  0  0  0  0  0  0  0  0
  148.1472  138.1342  153.7151 N   0  0  0  0  0  0  0  0  0  0  0  0
  146.9655  137.5097  153.8882 C   0  0  0  0  0  0  0  0  0  0  0  0
  146.0585  137.9084  154.6153 O   0  0  0  0  0  0  0  0  0  0  0  0
  146.8307  136.3807  153.1675 N   0  0  0  0  0  0  0  0  0  0  0  0
  145.6890  135.4640  153.1155 C   0  0  1  0  0  0  0  0  0  0  0  0
  144.4499  136.2172  152.5997 C   0  0  0  0  0  0  0  0  0  0  0  0
  143.2398  135.2795  152.4722 C   0  0  0  0  0  0  0  0  0  0  0  0
  143.5606  134.0719  151.5775 C   0  0  0  0  0  0  0  0  0  0  0  0
  144.7945  133.2986  152.0882 C   0  0  1  0  0  0  0  0  0  0  0  0
  145.1157  132.0717  151.2101 C   0  0  0  0  0  0  0  0  0  0  0  0
  145.7195  132.4412  150.0801 F   0  0  0  0  0  0  0  0  0  0  0  0
  145.9148  131.2345  151.8720 F   0  0  0  0  0  0  0  0  0  0  0  0
  143.9925  131.4213  150.9062 F   0  0  0  0  0  0  0  0  0  0  0  0
  146.0019  134.2521  152.2116 C   0  0  0  0  0  0  0  0  0  0  0  0
  151.9204  138.5246  154.8731 H   0  0  0  0  0  0  0  0  0  0  0  0
  151.0248  138.0244  153.4377 H   0  0  0  0  0  0  0  0  0  0  0  0
  150.5661  137.4049  155.0310 H   0  0  0  0  0  0  0  0  0  0  0  0
  151.4555  140.7634  155.5455 H   0  0  0  0  0  0  0  0  0  0  0  0
  147.7347  142.5154  155.2367 H   0  0  0  0  0  0  0  0  0  0  0  0
  146.7326  140.4849  154.2391 H   0  0  0  0  0  0  0  0  0  0  0  0
  148.7632  137.7146  153.0346 H   0  0  0  0  0  0  0  0  0  0  0  0
  147.6188  136.1259  152.5898 H   0  0  0  0  0  0  0  0  0  0  0  0
  145.4615  135.1091  154.1225 H   0  0  0  0  0  0  0  0  0  0  0  0
  144.2059  137.0405  153.2724 H   0  0  0  0  0  0  0  0  0  0  0  0
  144.6640  136.6646  151.6280 H   0  0  0  0  0  0  0  0  0  0  0  0
  142.9403  134.9323  153.4618 H   0  0  0  0  0  0  0  0  0  0  0  0
  142.3885  135.8265  152.0661 H   0  0  0  0  0  0  0  0  0  0  0  0
  142.6936  133.4122  151.5379 H   0  0  0  0  0  0  0  0  0  0  0  0
  143.7342  134.4135  150.5563 H   0  0  0  0  0  0  0  0  0  0  0  0
  144.5626  132.9288  153.0883 H   0  0  0  0  0  0  0  0  0  0  0  0
  146.2955  134.6010  151.2205 H   0  0  0  0  0  0  0  0  0  0  0  0
  146.8584  133.7060  152.6068 H   0  0  0  0  0  0  0  0  0  0  0  0
  1  2  1  0  0  0  0
  1 22  1  0  0  0  0
  1 23  1  0  0  0  0
  1 24  1  0  0  0  0
  2  7  1  0  0  0  0
  2  3  2  0  0  0  0
  3  4  1  0  0  0  0
  3 25  1  0  0  0  0
  4  5  2  0  0  0  0
  5  6  1  0  0  0  0
  5 26  1  0  0  0  0
  6  7  2  0  0  0  0
  6 27  1  0  0  0  0
  7  8  1  0  0  0  0
  8  9  1  0  0  0  0
  8 28  1  0  0  0  0
  9 10  2  0  0  0  0
  9 11  1  0  0  0  0
 11 12  1  0  0  0  0
 11 29  1  0  0  0  0
 12 21  1  0  0  0  0
 12 13  1  0  0  0  0
 12 30  1  0  0  0  0
 13 14  1  0  0  0  0
 13 31  1  0  0  0  0
 13 32  1  0  0  0  0
 14 15  1  0  0  0  0
 14 33  1  0  0  0  0
 14 34  1  0  0  0  0
 15 16  1  0  0  0  0
 15 35  1  0  0  0  0
 15 36  1  0  0  0  0
 16 17  1  0  0  0  0
 16 21  1  0  0  0  0
 16 37  1  0  0  0  0
 17 18  1  0  0  0  0
 17 19  1  0  0  0  0
 17 20  1  0  0  0  0
 21 38  1  0  0  0  0
 21 39  1  0  0  0  0
M  END
> <s_m_source_file>
AV-unprocessed.smi

> <i_m_source_file_index>
2446

> <i_lp_mmshare_version>
43012

> <i_f3d_flags>
0

> <s_epik_input>
W0NIM11jMVtjSF1uW2NIXVtjSF1jMVtOSF1DKD1PKVtOSF1bQ0BASF0yW0NIMl1bQ0gyXVtDSDJdW0NAQEhdKEMoRikoRilGKVtDSDJdMg==

> <s_epik_cmdline>
J2VwaWtfcHl0aG9uJywgJy1waCcsICc3LjAnLCAnLXRuJywgJzgnLCAnLW1hJywgJzIwMCcsICctbWV0YWxfYmluZGluZycsICctaW1hZScsICc8aW5maWxlLm1hZT4nLCAnLW9tYWUnLCAnPG91dGZpbGUubWFlPic=

> <r_epik_Ionization_Penalty>
0.20168

> <r_epik_Ionization_Penalty_Charging>
0

> <r_epik_Ionization_Penalty_Neutral>
0.20168

> <r_epik_State_Penalty>
0.191514

> <r_epik_Charging_Adjusted_Penalty>
0.191514

> <i_epik_Tot_Q>
0

> <i_epik_Tot_abs_Q>
0

> <r_epik_Metal_State_Penalty>
0.142371

> <b_epik_Metal_Only>
0

> <s_lp_Force_Field>
OPLS_2005

> <r_lp_Energy>
26.2068

> <b_lp_Chiralities_Consistent>
1

> <s_lp_Variant>
AV-unprocessed.smi:2446-2

> <Gold.Version>
5.8.1

> <Gold.Id.Protein>
6NUR|6NUR_protein|mol2

> <Gold.PLP.Fitness>
40.8296

> <Gold.PLP.PLP>
-33.9742

> <Gold.PLP.part.hbond>
-1.8961

> <Gold.PLP.part.metal>
0.0000

> <Gold.PLP.part.buried>
-3.6136

> <Gold.PLP.part.nonpolar>
-30.1437

> <Gold.PLP.part.repulsive>
0.5601

> <Gold.PLP.ligand.clash>
0.0000

> <Gold.PLP.ligand.torsion>
0.6201

> <Gold.PLP.Chemscore.Hbond>
1.8873

> <Gold.PLP.Chemscore.CHOScore>
0.8053

> <Gold.PLP.Chemscore.Metal>
0.0000

> <Gold.Chemscore.Hbonds>
donor molecule, donor type, donor heavy atom, donor atom, acceptor molecule, acceptor atom, score
      L1  H     8    28       P1  7948  0.90
      L1  H    11    29       P1  7948  0.96
      L1  C     5    26       P1  8028  0.79

> <Gold.PLP.Chemscore.Internal.Correction>
0.0179

> <Gold.Rescore>
     Score         DG    S(hbond)    S(metal)    S(lipo)     H(rot)  DE(clash)    DE(int)     intcor
     16.46     -17.32       1.91        0.00      68.72       1.00       0.14       0.73       ----

> <Gold.Chemscore.Fitness>
16.4561

> <Gold.Chemscore.DG>
-17.3236

> <Gold.Chemscore.ZeroCoef>
-5.4800

> <Gold.Chemscore.Hbond>
1.9050

> <Gold.Chemscore.Metal>
0.0000

> <Gold.Chemscore.Lipo>
68.7245

> <Gold.Chemscore.Internal_Hbond>
0.0000

> <Gold.Chemscore.DEClash>
0.1386

> <Gold.Chemscore.DEInternal>
0.7289

> <Gold.Chemscore.Rot>
1.0000

> <Gold.Chemscore.Internal.Correction>
   9.000000E+99

> <Gold.Chemscore.Hbonds>
donor molecule, donor type, donor heavy atom, donor atom, acceptor molecule, acceptor atom, score
      L1  H     8    28       P1  7948  0.88
      L1  H    11    29       P1  7948  0.91

> <Gold.Chemscore.Hbond.Weighted>
-6.3628

> <Gold.Chemscore.Metal.Weighted>
-0.0000

> <Gold.Chemscore.Lipo.Weighted>
-8.0408

> <Gold.Chemscore.Internal_Hbond.Weighted>
0.0000

> <Gold.Chemscore.DEClash.Weighted>
0.1386

> <Gold.Chemscore.DEInternal.Weighted>
0.7289

> <Gold.Chemscore.Rot.Weighted>
2.5600

> <Gold.Chemscore.Internal.Correction.Weighted>
   9.000000E+99

> <Gold.Protein.RotatedTorsions>
[ 6907 6896 6895 6894 ] final   54.26 input  -60.11 | X-H torsion
[ 7974 7965 7964 7962 ] final   36.35 input  175.53 | X-H torsion
[ 8008 7997 7996 7995 ] final -108.55 input   59.86 | X-H torsion
[ 10167 10162 10161 10158 ] final -161.86 input  -65.29 | X-H torsion
[ 10718 10713 10712 10709 ] final   59.68 input   66.30 | X-H torsion
[ 10763 10752 10751 10750 ] final  108.53 input  -60.55 | X-H torsion
[ 11005 11000 10999 10996 ] final  -61.88 input  -57.11 | X-H torsion

> <Gold.Protein.ActiveResidues>
 VAL166  LYS551  ARG553  GLY616  TRP617  ASP618  TYR619  PRO620  LYS621  CYS622 
 ASP623  PHE694  ASN695  SER759  ASP760  ASP761  ALA762  ILE779  LEU786  VAL792 
 PHE793  MET794  SER795  GLU796  ALA797  LYS798  CYS799  TRP800  GLU811  SER814 

> <Gold.Protein.RotatedAtoms>
  152.3421  134.7121  160.0260 H   0  0  0  0  0  0  0  0  0  0  0  0  # atno 6907 bound_to 6896
  151.7502  133.3321  159.3397 H   0  0  0  0  0  0  0  0  0  0  0  0  # atno 6908 bound_to 6896
  150.7486  134.6131  159.6141 H   0  0  0  0  0  0  0  0  0  0  0  0  # atno 6909 bound_to 6896
  146.1218  139.6029  142.9285 H   0  0  0  0  0  0  0  0  0  0  0  0  # atno 7974 bound_to 7965
  154.9460  140.0402  157.2120 H   0  0  0  0  0  0  0  0  0  0  0  0  # atno 8008 bound_to 7997
  154.8024  140.2854  155.5890 H   0  0  0  0  0  0  0  0  0  0  0  0  # atno 8009 bound_to 7997
  156.2963  140.2552  156.2894 H   0  0  0  0  0  0  0  0  0  0  0  0  # atno 8010 bound_to 7997
  139.6434  144.0217  152.2109 H   0  0  0  0  0  0  0  0  0  0  0  0  # atno 10167 bound_to 10162
  157.5694  130.8896  149.9242 H   0  0  0  0  0  0  0  0  0  0  0  0  # atno 10718 bound_to 10713
  153.4220  135.3809  155.2117 H   0  0  0  0  0  0  0  0  0  0  0  0  # atno 10763 bound_to 10752
  154.8745  135.3819  154.4373 H   0  0  0  0  0  0  0  0  0  0  0  0  # atno 10764 bound_to 10752
  153.4894  135.7088  153.5955 H   0  0  0  0  0  0  0  0  0  0  0  0  # atno 10765 bound_to 10752
  141.1340  133.6634  156.5443 H   0  0  0  0  0  0  0  0  0  0  0  0  # atno 11005 bound_to 11000
  145.5451  141.0418  143.2309 LP  0  0  0  0  0  0  0  0  0  0  0  0  # atno 17320 bound_to 7965
  144.7604  139.6971  143.7237 LP  0  0  0  0  0  0  0  0  0  0  0  0  # atno 17321 bound_to 7965
  139.9912  144.6360  150.7812 LP  0  0  0  0  0  0  0  0  0  0  0  0  # atno 17342 bound_to 10162
  140.7502  143.2952  151.3224 LP  0  0  0  0  0  0  0  0  0  0  0  0  # atno 17343 bound_to 10162
  156.0740  130.3681  150.0715 LP  0  0  0  0  0  0  0  0  0  0  0  0  # atno 17370 bound_to 10713
  156.8870  130.9576  151.3593 LP  0  0  0  0  0  0  0  0  0  0  0  0  # atno 17371 bound_to 10713
  140.4115  134.7268  157.4838 LP  0  0  0  0  0  0  0  0  0  0  0  0  # atno 17394 bound_to 11000
  140.0424  134.6248  155.8964 LP  0  0  0  0  0  0  0  0  0  0  0  0  # atno 17395 bound_to 11000

$$$$
