AV-unprocessed.smi:3266|AV-procd|sdf|12501|dock6
  -GOLD-   2272018403D 1   1.00000     0.00000
 Structure written by MMmdl.
 38 39  0  0  0  0  0  0  0  0  1 V2000
  150.0960  140.4264  154.7459 O   0  0  0  0  0  0  0  0  0  0  0  0
  149.8160  141.5014  155.2770 C   0  0  0  0  0  0  0  0  0  0  0  0
  150.7182  142.0799  156.3697 C   0  0  0  0  0  0  0  0  0  0  0  0
  149.9871  142.2226  157.7162 C   0  0  0  0  0  0  0  0  0  0  0  0
  150.7080  143.1716  158.6842 C   0  0  1  0  0  0  0  0  0  0  0  0
  152.1128  142.7146  159.0646 C   0  0  0  0  0  0  0  0  0  0  0  0
  152.7745  144.0028  159.5204 C   0  0  0  0  0  0  0  0  0  0  0  0
  151.9538  145.1019  158.8366 C   0  0  0  0  0  0  0  0  0  0  0  0
  150.9570  144.4290  158.0758 O   0  0  0  0  0  0  0  0  0  0  0  0
  148.7366  142.2262  154.9458 N   0  0  0  0  0  0  0  0  0  0  0  0
  147.7609  141.8548  153.9255 C   0  0  0  0  0  0  0  0  0  0  0  0
  146.3326  141.7061  154.4860 C   0  0  0  0  0  0  0  0  0  0  0  0
  145.5071  142.9800  154.4047 C   0  0  0  0  0  0  0  0  0  0  0  0
  145.4215  143.6995  153.1935 C   0  0  0  0  0  0  0  0  0  0  0  0
  144.6393  144.8701  153.1606 C   0  0  0  0  0  0  0  0  0  0  0  0
  143.9740  145.2741  154.3339 C   0  0  0  0  0  0  0  0  0  0  0  0
  144.1227  144.4868  155.4932 C   0  0  0  0  0  0  0  0  0  0  0  0
  144.8708  143.3633  155.5353 N   0  0  0  0  0  0  0  0  0  0  0  0
  151.5832  141.4250  156.4815 H   0  0  0  0  0  0  0  0  0  0  0  0
  151.1019  143.0514  156.0541 H   0  0  0  0  0  0  0  0  0  0  0  0
  148.9789  142.5996  157.5381 H   0  0  0  0  0  0  0  0  0  0  0  0
  149.8715  141.2449  158.1867 H   0  0  0  0  0  0  0  0  0  0  0  0
  150.1130  143.3234  159.5867 H   0  0  0  0  0  0  0  0  0  0  0  0
  152.1139  141.9400  159.8321 H   0  0  0  0  0  0  0  0  0  0  0  0
  152.6330  142.3247  158.1884 H   0  0  0  0  0  0  0  0  0  0  0  0
  152.7109  144.1054  160.6043 H   0  0  0  0  0  0  0  0  0  0  0  0
  153.8280  144.0362  159.2410 H   0  0  0  0  0  0  0  0  0  0  0  0
  151.4758  145.7428  159.5785 H   0  0  0  0  0  0  0  0  0  0  0  0
  152.5647  145.7303  158.1881 H   0  0  0  0  0  0  0  0  0  0  0  0
  148.5852  143.1010  155.4268 H   0  0  0  0  0  0  0  0  0  0  0  0
  147.7708  142.5886  153.1179 H   0  0  0  0  0  0  0  0  0  0  0  0
  148.0807  140.9110  153.4831 H   0  0  0  0  0  0  0  0  0  0  0  0
  145.8079  140.9078  153.9592 H   0  0  0  0  0  0  0  0  0  0  0  0
  146.3857  141.3888  155.5281 H   0  0  0  0  0  0  0  0  0  0  0  0
  145.9420  143.3627  152.3090 H   0  0  0  0  0  0  0  0  0  0  0  0
  144.5507  145.4465  152.2517 H   0  0  0  0  0  0  0  0  0  0  0  0
  143.3647  146.1655  154.3455 H   0  0  0  0  0  0  0  0  0  0  0  0
  143.6274  144.7669  156.4111 H   0  0  0  0  0  0  0  0  0  0  0  0
  1  2  2  0  0  0  0
  2  3  1  0  0  0  0
  2 10  1  0  0  0  0
  3  4  1  0  0  0  0
  3 19  1  0  0  0  0
  3 20  1  0  0  0  0
  4  5  1  0  0  0  0
  4 21  1  0  0  0  0
  4 22  1  0  0  0  0
  5  9  1  0  0  0  0
  5  6  1  0  0  0  0
  5 23  1  0  0  0  0
  6  7  1  0  0  0  0
  6 24  1  0  0  0  0
  6 25  1  0  0  0  0
  7  8  1  0  0  0  0
  7 26  1  0  0  0  0
  7 27  1  0  0  0  0
  8  9  1  0  0  0  0
  8 28  1  0  0  0  0
  8 29  1  0  0  0  0
 10 11  1  0  0  0  0
 10 30  1  0  0  0  0
 11 12  1  0  0  0  0
 11 31  1  0  0  0  0
 11 32  1  0  0  0  0
 12 13  1  0  0  0  0
 12 33  1  0  0  0  0
 12 34  1  0  0  0  0
 13 18  1  0  0  0  0
 13 14  2  0  0  0  0
 14 15  1  0  0  0  0
 14 35  1  0  0  0  0
 15 16  2  0  0  0  0
 15 36  1  0  0  0  0
 16 17  1  0  0  0  0
 16 37  1  0  0  0  0
 17 18  2  0  0  0  0
 17 38  1  0  0  0  0
M  END
> <s_m_source_file>
AV-unprocessed.smi

> <i_m_source_file_index>
3266

> <i_lp_mmshare_version>
43012

> <i_f3d_flags>
0

> <s_epik_input>
TzFbQ0gyXVtDSDJdW0NIMl1bQ0BIXTFbQ0gyXVtDSDJdQyg9TylbTkhdW0NIMl1bQ0gyXWMyW2NIXVtjSF1bY0hdW2NIXW4y

> <s_epik_cmdline>
J2VwaWtfcHl0aG9uJywgJy1waCcsICc3LjAnLCAnLXRuJywgJzgnLCAnLW1hJywgJzIwMCcsICctbWV0YWxfYmluZGluZycsICctaW1hZScsICc8aW5maWxlLm1hZT4nLCAnLW9tYWUnLCAnPG91dGZpbGUubWFlPic=

> <r_epik_Ionization_Penalty>
0.0267142

> <r_epik_Ionization_Penalty_Charging>
0

> <r_epik_Ionization_Penalty_Neutral>
0.0267142

> <r_epik_State_Penalty>
0.0218233

> <r_epik_Charging_Adjusted_Penalty>
0.0218233

> <i_epik_Tot_Q>
0

> <i_epik_Tot_abs_Q>
0

> <r_epik_Metal_State_Penalty>
0.0208786

> <b_epik_Metal_Only>
0

> <s_lp_Force_Field>
OPLS_2005

> <r_lp_Energy>
16.882

> <b_lp_Chiralities_Consistent>
1

> <s_lp_Variant>
AV-unprocessed.smi:3266-2

> <Gold.Version>
5.8.1

> <Gold.Id.Protein>
6NUR|6NUR_protein|mol2

> <Gold.PLP.Fitness>
49.1093

> <Gold.PLP.PLP>
-43.9255

> <Gold.PLP.part.hbond>
-2.0000

> <Gold.PLP.part.metal>
0.0000

> <Gold.PLP.part.buried>
-7.7410

> <Gold.PLP.part.nonpolar>
-35.8432

> <Gold.PLP.part.repulsive>
0.6230

> <Gold.PLP.ligand.clash>
0.0000

> <Gold.PLP.ligand.torsion>
0.3985

> <Gold.PLP.Chemscore.Hbond>
1.9760

> <Gold.PLP.Chemscore.CHOScore>
0.0000

> <Gold.PLP.Chemscore.Metal>
0.0000

> <Gold.Chemscore.Hbonds>
donor molecule, donor type, donor heavy atom, donor atom, acceptor molecule, acceptor atom, score
      L1  H    10    30       P1  8028  1.00
      P1  H  7989  7998       L1     1  0.96

> <Gold.PLP.Chemscore.Internal.Correction>
0.0529

> <Gold.Rescore>
     Score         DG    S(hbond)    S(metal)    S(lipo)     H(rot)  DE(clash)    DE(int)     intcor
     18.40     -18.77       1.60        0.00     105.34       1.71       0.04       0.34       ----

> <Gold.Chemscore.Fitness>
18.3961

> <Gold.Chemscore.DG>
-18.7693

> <Gold.Chemscore.ZeroCoef>
-5.4800

> <Gold.Chemscore.Hbond>
1.6014

> <Gold.Chemscore.Metal>
0.0000

> <Gold.Chemscore.Lipo>
105.3442

> <Gold.Chemscore.Internal_Hbond>
0.0000

> <Gold.Chemscore.DEClash>
0.0378

> <Gold.Chemscore.DEInternal>
0.3355

> <Gold.Chemscore.Rot>
1.7127

> <Gold.Chemscore.Internal.Correction>
   9.000000E+99

> <Gold.Chemscore.Hbonds>
donor molecule, donor type, donor heavy atom, donor atom, acceptor molecule, acceptor atom, score
      L1  H    10    30       P1  8028  0.96
      P1  H  7989  7998       L1     1  0.39

> <Gold.Chemscore.Hbond.Weighted>
-5.3486

> <Gold.Chemscore.Metal.Weighted>
-0.0000

> <Gold.Chemscore.Lipo.Weighted>
-12.3253

> <Gold.Chemscore.Internal_Hbond.Weighted>
0.0000

> <Gold.Chemscore.DEClash.Weighted>
0.0378

> <Gold.Chemscore.DEInternal.Weighted>
0.3355

> <Gold.Chemscore.Rot.Weighted>
4.3846

> <Gold.Chemscore.Internal.Correction.Weighted>
   9.000000E+99

> <Gold.Protein.RotatedTorsions>
[ 6907 6896 6895 6894 ] final  160.24 input  -60.11 | X-H torsion
[ 7974 7965 7964 7962 ] final -172.96 input  175.53 | X-H torsion
[ 8008 7997 7996 7995 ] final   69.87 input   59.86 | X-H torsion
[ 10167 10162 10161 10158 ] final -164.79 input  -65.29 | X-H torsion
[ 10718 10713 10712 10709 ] final  -15.06 input   66.30 | X-H torsion
[ 10763 10752 10751 10750 ] final   18.57 input  -60.55 | X-H torsion
[ 11005 11000 10999 10996 ] final   15.94 input  -57.11 | X-H torsion

> <Gold.Protein.ActiveResidues>
 VAL166  LYS551  ARG553  GLY616  TRP617  ASP618  TYR619  PRO620  LYS621  CYS622 
 ASP623  PHE694  ASN695  SER759  ASP760  ASP761  ALA762  ILE779  LEU786  VAL792 
 PHE793  MET794  SER795  GLU796  ALA797  LYS798  CYS799  TRP800  GLU811  SER814 

> <Gold.Protein.RotatedAtoms>
  151.9735  133.3734  159.4079 H   0  0  0  0  0  0  0  0  0  0  0  0  # atno 6907 bound_to 6896
  150.6945  134.4114  159.5173 H   0  0  0  0  0  0  0  0  0  0  0  0  # atno 6908 bound_to 6896
  152.1822  134.8744  160.0576 H   0  0  0  0  0  0  0  0  0  0  0  0  # atno 6909 bound_to 6896
  144.7142  140.1693  143.6369 H   0  0  0  0  0  0  0  0  0  0  0  0  # atno 7974 bound_to 7965
  155.7302  140.3492  155.5056 H   0  0  0  0  0  0  0  0  0  0  0  0  # atno 8008 bound_to 7997
  155.9189  140.1063  157.1243 H   0  0  0  0  0  0  0  0  0  0  0  0  # atno 8009 bound_to 7997
  154.4067  140.1253  156.4641 H   0  0  0  0  0  0  0  0  0  0  0  0  # atno 8010 bound_to 7997
  139.6226  144.0594  152.1947 H   0  0  0  0  0  0  0  0  0  0  0  0  # atno 10167 bound_to 10162
  156.6071  130.4839  149.6216 H   0  0  0  0  0  0  0  0  0  0  0  0  # atno 10718 bound_to 10713
  153.1237  135.6725  153.9292 H   0  0  0  0  0  0  0  0  0  0  0  0  # atno 10763 bound_to 10752
  153.8800  135.3059  155.3446 H   0  0  0  0  0  0  0  0  0  0  0  0  # atno 10764 bound_to 10752
  154.7645  135.4971  153.9608 H   0  0  0  0  0  0  0  0  0  0  0  0  # atno 10765 bound_to 10752
  140.4527  134.1207  155.7705 H   0  0  0  0  0  0  0  0  0  0  0  0  # atno 11005 bound_to 11000
  145.8958  139.2402  143.1523 LP  0  0  0  0  0  0  0  0  0  0  0  0  # atno 17320 bound_to 7965
  145.9859  140.8644  143.0091 LP  0  0  0  0  0  0  0  0  0  0  0  0  # atno 17321 bound_to 7965
  140.0239  144.6132  150.7543 LP  0  0  0  0  0  0  0  0  0  0  0  0  # atno 17342 bound_to 10162
  140.7392  143.2787  151.3662 LP  0  0  0  0  0  0  0  0  0  0  0  0  # atno 17343 bound_to 10162
  156.2420  130.6857  151.1565 LP  0  0  0  0  0  0  0  0  0  0  0  0  # atno 17370 bound_to 10713
  157.7264  131.0646  150.5910 LP  0  0  0  0  0  0  0  0  0  0  0  0  # atno 17371 bound_to 10713
  141.1657  133.8708  157.1722 LP  0  0  0  0  0  0  0  0  0  0  0  0  # atno 17394 bound_to 11000
  139.9996  135.0033  157.0160 LP  0  0  0  0  0  0  0  0  0  0  0  0  # atno 17395 bound_to 11000

$$$$
