AV-unprocessed.smi:1645|AV-procd|sdf|6619|dock5
  -GOLD-   22720 7313D 1   1.00000     0.00000
 Structure written by MMmdl.
 55 58  0  0  0  0  0  0  0  0  4 V2000
  147.1380  135.6707  156.3696 O   0  0  0  0  0  0  0  0  0  0  0  0
  147.5701  135.4713  155.2283 C   0  0  0  0  0  0  0  0  0  0  0  0
  148.5571  136.2382  154.7328 N   0  0  0  0  0  0  0  0  0  0  0  0
  149.2061  137.3468  155.3372 C   0  0  0  0  0  0  0  0  0  0  0  0
  149.3353  137.3532  156.7420 C   0  0  0  0  0  0  0  0  0  0  0  0
  149.9882  138.4289  157.3774 C   0  0  0  0  0  0  0  0  0  0  0  0
  150.5151  139.4800  156.5922 C   0  0  0  0  0  0  0  0  0  0  0  0
  151.1769  140.5893  157.1341 N   0  0  0  0  0  0  0  0  0  0  0  0
  151.5157  140.4089  158.5435 C   0  0  0  0  0  0  0  0  0  0  0  0
  152.3960  141.5655  159.0484 C   0  0  0  0  0  0  0  0  0  0  0  0
  151.7309  142.9236  158.7719 C   0  0  0  0  0  0  0  0  0  0  0  0
  151.3776  143.0466  157.2811 C   0  0  0  0  0  0  0  0  0  0  0  0
  150.5184  141.8557  156.8226 C   0  0  0  0  0  0  0  0  0  0  0  0
  150.3913  139.4266  155.2483 N   0  3  0  0  0  0  0  0  0  0  0  0
  149.7711  138.4161  154.6013 C   0  0  0  0  0  0  0  0  0  0  0  0
  147.1824  134.5053  154.3527 N   0  5  0  0  0  0  0  0  0  0  0  0
  145.7902  134.1363  154.0840 C   0  0  1  0  0  0  0  0  0  0  0  0
  144.9479  135.3307  153.6175 C   0  0  0  0  0  0  0  0  0  0  0  0
  143.8443  134.7075  152.7434 C   0  0  0  0  0  0  0  0  0  0  0  0
  144.1893  133.2733  152.6093 N   0  3  1  0  0  0  0  0  0  0  0  0
  143.7110  132.5811  151.3851 C   0  0  0  0  0  0  0  0  0  0  0  0
  144.5974  132.8613  150.1612 C   0  0  0  0  0  0  0  0  0  0  0  0
  146.0637  132.5492  150.4752 C   0  0  0  0  0  0  0  0  0  0  0  0
  146.5174  133.3856  151.6765 C   0  0  0  0  0  0  0  0  0  0  0  0
  145.6278  133.1245  152.9301 C   0  0  1  0  0  0  0  0  0  0  0  0
  148.9272  135.9460  153.8403 H   0  0  0  0  0  0  0  0  0  0  0  0
  148.9298  136.5439  157.3319 H   0  0  0  0  0  0  0  0  0  0  0  0
  150.0824  138.4408  158.4534 H   0  0  0  0  0  0  0  0  0  0  0  0
  150.6005  140.3555  159.1345 H   0  0  0  0  0  0  0  0  0  0  0  0
  152.0386  139.4609  158.6775 H   0  0  0  0  0  0  0  0  0  0  0  0
  152.5871  141.4515  160.1159 H   0  0  0  0  0  0  0  0  0  0  0  0
  153.3674  141.5276  158.5536 H   0  0  0  0  0  0  0  0  0  0  0  0
  150.8255  143.0186  159.3726 H   0  0  0  0  0  0  0  0  0  0  0  0
  152.3921  143.7369  159.0724 H   0  0  0  0  0  0  0  0  0  0  0  0
  150.8495  143.9823  157.0959 H   0  0  0  0  0  0  0  0  0  0  0  0
  152.2940  143.0853  156.6902 H   0  0  0  0  0  0  0  0  0  0  0  0
  150.3374  141.9210  155.7488 H   0  0  0  0  0  0  0  0  0  0  0  0
  149.5455  141.8943  157.3144 H   0  0  0  0  0  0  0  0  0  0  0  0
  149.7614  138.4984  153.5245 H   0  0  0  0  0  0  0  0  0  0  0  0
  145.3060  133.7188  154.9690 H   0  0  0  0  0  0  0  0  0  0  0  0
  144.5422  135.8951  154.4576 H   0  0  0  0  0  0  0  0  0  0  0  0
  145.5432  136.0202  153.0163 H   0  0  0  0  0  0  0  0  0  0  0  0
  142.8578  134.8067  153.1981 H   0  0  0  0  0  0  0  0  0  0  0  0
  143.8118  135.2000  151.7705 H   0  0  0  0  0  0  0  0  0  0  0  0
  143.7114  131.5095  151.5881 H   0  0  0  0  0  0  0  0  0  0  0  0
  142.6754  132.8577  151.1851 H   0  0  0  0  0  0  0  0  0  0  0  0
  144.2615  132.2602  149.3158 H   0  0  0  0  0  0  0  0  0  0  0  0
  144.4985  133.9036  149.8564 H   0  0  0  0  0  0  0  0  0  0  0  0
  146.1850  131.4870  150.6915 H   0  0  0  0  0  0  0  0  0  0  0  0
  146.6882  132.7675  149.6084 H   0  0  0  0  0  0  0  0  0  0  0  0
  147.5604  133.1516  151.8966 H   0  0  0  0  0  0  0  0  0  0  0  0
  146.4994  134.4367  151.3798 H   0  0  0  0  0  0  0  0  0  0  0  0
  145.8087  132.1094  153.2864 H   0  0  0  0  0  0  0  0  0  0  0  0
  143.7116  132.8317  153.3818 H   0  0  0  0  0  0  0  0  0  0  0  0
  150.7863  140.1858  154.6930 H   0  0  0  0  0  0  0  0  0  0  0  0
  1  2  2  0  0  0  0
  2  3  1  0  0  0  0
  2 16  1  0  0  0  0
  3  4  1  0  0  0  0
  3 26  1  0  0  0  0
  4 15  1  0  0  0  0
  4  5  2  0  0  0  0
  5  6  1  0  0  0  0
  5 27  1  0  0  0  0
  6  7  2  0  0  0  0
  6 28  1  0  0  0  0
  7  8  1  0  0  0  0
  7 14  1  0  0  0  0
  8 13  1  0  0  0  0
  8  9  1  0  0  0  0
  9 10  1  0  0  0  0
  9 29  1  0  0  0  0
  9 30  1  0  0  0  0
 10 11  1  0  0  0  0
 10 31  1  0  0  0  0
 10 32  1  0  0  0  0
 11 12  1  0  0  0  0
 11 33  1  0  0  0  0
 11 34  1  0  0  0  0
 12 13  1  0  0  0  0
 12 35  1  0  0  0  0
 12 36  1  0  0  0  0
 13 37  1  0  0  0  0
 13 38  1  0  0  0  0
 14 15  2  0  0  0  0
 14 55  1  0  0  0  0
 15 39  1  0  0  0  0
 16 17  1  0  0  0  0
 17 25  1  0  0  0  0
 17 18  1  0  0  0  0
 17 40  1  0  0  0  0
 18 19  1  0  0  0  0
 18 41  1  0  0  0  0
 18 42  1  0  0  0  0
 19 20  1  0  0  0  0
 19 43  1  0  0  0  0
 19 44  1  0  0  0  0
 20 25  1  0  0  0  0
 20 21  1  0  0  0  0
 20 54  1  0  0  0  0
 21 22  1  0  0  0  0
 21 45  1  0  0  0  0
 21 46  1  0  0  0  0
 22 23  1  0  0  0  0
 22 47  1  0  0  0  0
 22 48  1  0  0  0  0
 23 24  1  0  0  0  0
 23 49  1  0  0  0  0
 23 50  1  0  0  0  0
 24 25  1  0  0  0  0
 24 51  1  0  0  0  0
 24 52  1  0  0  0  0
 25 53  1  0  0  0  0
M  CHG  1  14   1
M  CHG  1  16  -1
M  CHG  1  20   1
M  END
> <s_m_source_file>
AV-unprocessed.smi

> <i_m_source_file_index>
1645

> <i_lp_mmshare_version>
43012

> <i_f3d_flags>
0

> <s_epik_input>
W0NIMl0xW0NIMl1bQ0gyXVtDSDJdW0NASF0oTjEyKVtDQEBIXShbQ0gyXVtDSDJdMilbTkhdQyg9TylbTkhdYzNbY0hdW2NIXWMobltjSF0zKU40W0NIMl1bQ0gyXVtDSDJdW0NIMl1bQ0gyXTQ=

> <s_epik_cmdline>
J2VwaWtfcHl0aG9uJywgJy1waCcsICc3LjAnLCAnLXRuJywgJzgnLCAnLW1hJywgJzIwMCcsICctbWV0YWxfYmluZGluZycsICctaW1hZScsICc8aW5maWxlLm1hZT4nLCAnLW9tYWUnLCAnPG91dGZpbGUubWFlPic=

> <r_lp_tautomer_probability>
0.999994

> <r_epik_Ionization_Penalty>
8.55589

> <r_epik_Ionization_Penalty_Charging>
8.55589

> <r_epik_Ionization_Penalty_Neutral>
3.8092e-06

> <r_epik_State_Penalty>
8.15703

> <r_epik_Charging_Adjusted_Penalty>
16.7129

> <i_epik_Tot_Q>
1

> <i_epik_Tot_abs_Q>
3

> <r_epik_Metal_State_Penalty>
4.13781

> <b_epik_Metal_Only>
1

> <s_lp_Force_Field>
OPLS_2005

> <r_lp_Energy>
57.4093

> <b_lp_Chiralities_Consistent>
1

> <s_lp_Variant>
AV-unprocessed.smi:1645-20

> <Gold.Version>
5.8.1

> <Gold.Id.Protein>
6NUR|6NUR_protein|mol2

> <Gold.PLP.Fitness>
40.6310

> <Gold.PLP.PLP>
-32.9465

> <Gold.PLP.part.hbond>
-1.9710

> <Gold.PLP.part.metal>
0.0000

> <Gold.PLP.part.buried>
-7.5202

> <Gold.PLP.part.nonpolar>
-25.1524

> <Gold.PLP.part.repulsive>
0.1680

> <Gold.PLP.ligand.clash>
0.0000

> <Gold.PLP.ligand.torsion>
0.7091

> <Gold.PLP.Chemscore.Hbond>
2.9825

> <Gold.PLP.Chemscore.CHOScore>
0.0000

> <Gold.PLP.Chemscore.Metal>
0.0000

> <Gold.Chemscore.Hbonds>
donor molecule, donor type, donor heavy atom, donor atom, acceptor molecule, acceptor atom, score
      L1  H     3    26       P1  7948  0.96
      L1  H    20    54       P1 10957  1.95

> <Gold.PLP.Chemscore.Internal.Correction>
0.1551

> <Gold.Rescore>
     Score         DG    S(hbond)    S(metal)    S(lipo)     H(rot)  DE(clash)    DE(int)     intcor
     18.34     -20.50       1.92        0.00      99.19       1.17       0.03       2.12       ----

> <Gold.Chemscore.Fitness>
18.3423

> <Gold.Chemscore.DG>
-20.4958

> <Gold.Chemscore.ZeroCoef>
-5.4800

> <Gold.Chemscore.Hbond>
1.9204

> <Gold.Chemscore.Metal>
0.0000

> <Gold.Chemscore.Lipo>
99.1882

> <Gold.Chemscore.Internal_Hbond>
0.0000

> <Gold.Chemscore.DEClash>
0.0323

> <Gold.Chemscore.DEInternal>
2.1213

> <Gold.Chemscore.Rot>
1.1731

> <Gold.Chemscore.Internal.Correction>
   9.000000E+99

> <Gold.Chemscore.Hbonds>
donor molecule, donor type, donor heavy atom, donor atom, acceptor molecule, acceptor atom, score
      L1  H     3    26       P1  7948  0.87
      L1  H    20    54       P1 10957  0.56

> <Gold.Chemscore.Hbond.Weighted>
-6.4141

> <Gold.Chemscore.Metal.Weighted>
-0.0000

> <Gold.Chemscore.Lipo.Weighted>
-11.6050

> <Gold.Chemscore.Internal_Hbond.Weighted>
0.0000

> <Gold.Chemscore.DEClash.Weighted>
0.0323

> <Gold.Chemscore.DEInternal.Weighted>
2.1213

> <Gold.Chemscore.Rot.Weighted>
3.0032

> <Gold.Chemscore.Internal.Correction.Weighted>
   9.000000E+99

> <Gold.Protein.RotatedTorsions>
[ 6907 6896 6895 6894 ] final   33.18 input  -60.11 | X-H torsion
[ 7974 7965 7964 7962 ] final  -53.84 input  175.53 | X-H torsion
[ 8008 7997 7996 7995 ] final  -67.61 input   59.86 | X-H torsion
[ 10167 10162 10161 10158 ] final -116.50 input  -65.29 | X-H torsion
[ 10718 10713 10712 10709 ] final   53.64 input   66.30 | X-H torsion
[ 10763 10752 10751 10750 ] final   72.32 input  -60.55 | X-H torsion
[ 11005 11000 10999 10996 ] final  167.42 input  -57.11 | X-H torsion

> <Gold.Protein.ActiveResidues>
 VAL166  LYS551  ARG553  GLY616  TRP617  ASP618  TYR619  PRO620  LYS621  CYS622 
 ASP623  PHE694  ASN695  SER759  ASP760  ASP761  ALA762  ILE779  LEU786  VAL792 
 PHE793  MET794  SER795  GLU796  ALA797  LYS798  CYS799  TRP800  GLU811  SER814 

> <Gold.Protein.RotatedAtoms>
  152.0849  134.9446  160.0572 H   0  0  0  0  0  0  0  0  0  0  0  0  # atno 6907 bound_to 6896
  152.0720  133.4106  159.4471 H   0  0  0  0  0  0  0  0  0  0  0  0  # atno 6908 bound_to 6896
  150.6836  134.3001  159.4746 H   0  0  0  0  0  0  0  0  0  0  0  0  # atno 6909 bound_to 6896
  145.8923  140.8060  142.9785 H   0  0  0  0  0  0  0  0  0  0  0  0  # atno 7974 bound_to 7965
  154.4812  140.0889  156.7381 H   0  0  0  0  0  0  0  0  0  0  0  0  # atno 8008 bound_to 7997
  155.4467  140.3456  155.4278 H   0  0  0  0  0  0  0  0  0  0  0  0  # atno 8009 bound_to 7997
  156.1193  140.1469  156.9215 H   0  0  0  0  0  0  0  0  0  0  0  0  # atno 8010 bound_to 7997
  140.0786  143.4809  152.1939 H   0  0  0  0  0  0  0  0  0  0  0  0  # atno 10167 bound_to 10162
  157.5185  130.8549  149.8527 H   0  0  0  0  0  0  0  0  0  0  0  0  # atno 10718 bound_to 10713
  153.0451  135.5104  154.7725 H   0  0  0  0  0  0  0  0  0  0  0  0  # atno 10763 bound_to 10752
  154.6631  135.2941  154.9842 H   0  0  0  0  0  0  0  0  0  0  0  0  # atno 10764 bound_to 10752
  154.0686  135.6681  153.4874 H   0  0  0  0  0  0  0  0  0  0  0  0  # atno 10765 bound_to 10752
  140.2766  134.7784  157.3722 H   0  0  0  0  0  0  0  0  0  0  0  0  # atno 11005 bound_to 11000
  144.6731  140.1549  143.7427 LP  0  0  0  0  0  0  0  0  0  0  0  0  # atno 17320 bound_to 7965
  145.8892  139.2366  143.1559 LP  0  0  0  0  0  0  0  0  0  0  0  0  # atno 17321 bound_to 7965
  139.5793  144.7503  151.3681 LP  0  0  0  0  0  0  0  0  0  0  0  0  # atno 17342 bound_to 10162
  140.7089  143.7441  150.7532 LP  0  0  0  0  0  0  0  0  0  0  0  0  # atno 17343 bound_to 10162
  156.0337  130.3757  150.1618 LP  0  0  0  0  0  0  0  0  0  0  0  0  # atno 17370 bound_to 10713
  156.9807  130.9863  151.3438 LP  0  0  0  0  0  0  0  0  0  0  0  0  # atno 17371 bound_to 10713
  140.1322  134.5080  155.8096 LP  0  0  0  0  0  0  0  0  0  0  0  0  # atno 17394 bound_to 11000
  141.2169  133.6794  156.7060 LP  0  0  0  0  0  0  0  0  0  0  0  0  # atno 17395 bound_to 11000

$$$$
