AV-unprocessed.smi:2083|AV-procd|sdf|8503|dock9
  -GOLD-   2272011213D 1   1.00000     0.00000
 Structure written by MMmdl.
 44 45  0  0  0  0  0  0  0  0  3 V2000
  152.9231  142.1141  160.5153 C   0  0  0  0  0  0  0  0  0  0  0  0
  152.4070  141.5144  159.2523 C   0  0  0  0  0  0  0  0  0  0  0  0
  151.2196  141.6324  158.5874 C   0  0  0  0  0  0  0  0  0  0  0  0
  151.3940  140.7847  157.4595 C   0  0  0  0  0  0  0  0  0  0  0  0
  150.4937  140.5670  156.4885 N   0  5  0  0  0  0  0  0  0  0  0  0
  150.7119  139.6049  155.5638 C   0  0  0  0  0  0  0  0  0  0  0  0
  151.5686  139.6218  154.6767 O   0  0  0  0  0  0  0  0  0  0  0  0
  149.8887  138.5526  155.6756 N   0  0  0  0  0  0  0  0  0  0  0  0
  149.9029  137.3662  154.8246 C   0  0  0  0  0  0  0  0  0  0  0  0
  148.6225  136.4980  154.9771 C   0  0  1  0  0  0  0  0  0  0  0  0
  147.3803  137.2916  154.5127 C   0  0  0  0  0  0  0  0  0  0  0  0
  148.6791  135.1817  154.2600 N   0  3  1  0  0  0  0  0  0  0  0  0
  149.8686  134.3274  154.5469 C   0  0  0  0  0  0  0  0  0  0  0  0
  149.8975  133.0762  153.6527 C   0  0  0  0  0  0  0  0  0  0  0  0
  148.6007  132.2677  153.7727 C   0  0  0  0  0  0  0  0  0  0  0  0
  147.3733  133.1576  153.5189 C   0  0  2  0  0  0  0  0  0  0  0  0
  147.1931  133.5271  152.0358 C   0  0  0  0  0  0  0  0  0  0  0  0
  147.4188  134.4009  154.4288 C   0  0  0  0  0  0  0  0  0  0  0  0
  152.5883  140.2179  157.4324 N   0  0  0  0  0  0  0  0  0  0  0  0
  153.2424  140.6763  158.5820 O   0  0  0  0  0  0  0  0  0  0  0  0
  153.0834  143.1854  160.3944 H   0  0  0  0  0  0  0  0  0  0  0  0
  153.8703  141.6606  160.8081 H   0  0  0  0  0  0  0  0  0  0  0  0
  152.2132  141.9671  161.3292 H   0  0  0  0  0  0  0  0  0  0  0  0
  150.3613  142.2258  158.8649 H   0  0  0  0  0  0  0  0  0  0  0  0
  149.1985  138.5813  156.4120 H   0  0  0  0  0  0  0  0  0  0  0  0
  150.0114  137.6998  153.7921 H   0  0  0  0  0  0  0  0  0  0  0  0
  150.8026  136.8005  155.0710 H   0  0  0  0  0  0  0  0  0  0  0  0
  148.5103  136.2810  156.0405 H   0  0  0  0  0  0  0  0  0  0  0  0
  147.2662  138.2245  155.0652 H   0  0  0  0  0  0  0  0  0  0  0  0
  146.4522  136.7413  154.6572 H   0  0  0  0  0  0  0  0  0  0  0  0
  147.4506  137.5433  153.4542 H   0  0  0  0  0  0  0  0  0  0  0  0
  150.7937  134.8687  154.3530 H   0  0  0  0  0  0  0  0  0  0  0  0
  149.8709  134.0430  155.6006 H   0  0  0  0  0  0  0  0  0  0  0  0
  150.0563  133.3713  152.6152 H   0  0  0  0  0  0  0  0  0  0  0  0
  150.7479  132.4491  153.9222 H   0  0  0  0  0  0  0  0  0  0  0  0
  148.6129  131.4231  153.0827 H   0  0  0  0  0  0  0  0  0  0  0  0
  148.5369  131.8430  154.7756 H   0  0  0  0  0  0  0  0  0  0  0  0
  146.4923  132.5790  153.7999 H   0  0  0  0  0  0  0  0  0  0  0  0
  148.0153  134.1385  151.6641 H   0  0  0  0  0  0  0  0  0  0  0  0
  146.2719  134.0904  151.8841 H   0  0  0  0  0  0  0  0  0  0  0  0
  147.1360  132.6337  151.4132 H   0  0  0  0  0  0  0  0  0  0  0  0
  147.3344  134.0921  155.4722 H   0  0  0  0  0  0  0  0  0  0  0  0
  146.5432  135.0155  154.2259 H   0  0  0  0  0  0  0  0  0  0  0  0
  148.7478  135.4123  153.2792 H   0  0  0  0  0  0  0  0  0  0  0  0
  1  2  1  0  0  0  0
  1 21  1  0  0  0  0
  1 22  1  0  0  0  0
  1 23  1  0  0  0  0
  2 20  1  0  0  0  0
  2  3  2  0  0  0  0
  3  4  1  0  0  0  0
  3 24  1  0  0  0  0
  4  5  1  0  0  0  0
  4 19  2  0  0  0  0
  5  6  1  0  0  0  0
  6  7  2  0  0  0  0
  6  8  1  0  0  0  0
  8  9  1  0  0  0  0
  8 25  1  0  0  0  0
  9 10  1  0  0  0  0
  9 26  1  0  0  0  0
  9 27  1  0  0  0  0
 10 11  1  0  0  0  0
 10 12  1  0  0  0  0
 10 28  1  0  0  0  0
 11 29  1  0  0  0  0
 11 30  1  0  0  0  0
 11 31  1  0  0  0  0
 12 18  1  0  0  0  0
 12 13  1  0  0  0  0
 12 44  1  0  0  0  0
 13 14  1  0  0  0  0
 13 32  1  0  0  0  0
 13 33  1  0  0  0  0
 14 15  1  0  0  0  0
 14 34  1  0  0  0  0
 14 35  1  0  0  0  0
 15 16  1  0  0  0  0
 15 36  1  0  0  0  0
 15 37  1  0  0  0  0
 16 17  1  0  0  0  0
 16 18  1  0  0  0  0
 16 38  1  0  0  0  0
 17 39  1  0  0  0  0
 17 40  1  0  0  0  0
 17 41  1  0  0  0  0
 18 42  1  0  0  0  0
 18 43  1  0  0  0  0
 19 20  1  0  0  0  0
M  CHG  1   5  -1
M  CHG  1  12   1
M  END
> <s_m_source_file>
AV-unprocessed.smi

> <i_m_source_file_index>
2083

> <i_lp_mmshare_version>
43012

> <i_f3d_flags>
0

> <s_epik_input>
W0NIM11jMVtjSF1jKG5vMSlbTkhdQyg9TylbTkhdW0NIMl1bQ0BIXShbQ0gzXSlOMltDSDJdW0NIMl1bQ0gyXVtDQEBIXShbQ0gzXSlbQ0gyXTI=

> <s_epik_cmdline>
J2VwaWtfcHl0aG9uJywgJy1waCcsICc3LjAnLCAnLXRuJywgJzgnLCAnLW1hJywgJzIwMCcsICctbWV0YWxfYmluZGluZycsICctaW1hZScsICc8aW5maWxlLm1hZT4nLCAnLW9tYWUnLCAnPG91dGZpbGUubWFlPic=

> <r_epik_Ionization_Penalty>
6.22434

> <r_epik_Ionization_Penalty_Charging>
6.22425

> <r_epik_Ionization_Penalty_Neutral>
9.62407e-05

> <r_epik_State_Penalty>
6.22423

> <r_epik_Charging_Adjusted_Penalty>
12.4485

> <i_epik_Tot_Q>
0

> <i_epik_Tot_abs_Q>
2

> <r_epik_Metal_State_Penalty>
2.16764

> <b_epik_Metal_Only>
1

> <s_lp_Force_Field>
OPLS_2005

> <r_lp_Energy>
12.2098

> <b_lp_Chiralities_Consistent>
1

> <s_lp_Variant>
AV-unprocessed.smi:2083-14

> <Gold.Version>
5.8.1

> <Gold.Id.Protein>
6NUR|6NUR_protein|mol2

> <Gold.PLP.Fitness>
38.3721

> <Gold.PLP.PLP>
-29.2756

> <Gold.PLP.part.hbond>
-3.9134

> <Gold.PLP.part.metal>
0.0000

> <Gold.PLP.part.buried>
-2.8395

> <Gold.PLP.part.nonpolar>
-22.8716

> <Gold.PLP.part.repulsive>
0.0987

> <Gold.PLP.ligand.clash>
0.0000

> <Gold.PLP.ligand.torsion>
0.8068

> <Gold.PLP.Chemscore.Hbond>
3.5368

> <Gold.PLP.Chemscore.CHOScore>
0.0000

> <Gold.PLP.Chemscore.Metal>
0.0000

> <Gold.Chemscore.Hbonds>
donor molecule, donor type, donor heavy atom, donor atom, acceptor molecule, acceptor atom, score
      L1  H    12    44       P1  7948  2.00
      P1  H  7989  7998       L1     7  1.00
      P1  H  7997  8008       L1    19  0.34

> <Gold.PLP.Chemscore.Internal.Correction>
0.0998

> <Gold.Rescore>
     Score         DG    S(hbond)    S(metal)    S(lipo)     H(rot)  DE(clash)    DE(int)     intcor
     14.77     -15.59       1.97        0.00      63.33       1.52       0.01       0.81       ----

> <Gold.Chemscore.Fitness>
14.7662

> <Gold.Chemscore.DG>
-15.5860

> <Gold.Chemscore.ZeroCoef>
-5.4800

> <Gold.Chemscore.Hbond>
1.9715

> <Gold.Chemscore.Metal>
0.0000

> <Gold.Chemscore.Lipo>
63.3309

> <Gold.Chemscore.Internal_Hbond>
0.0000

> <Gold.Chemscore.DEClash>
0.0064

> <Gold.Chemscore.DEInternal>
0.8135

> <Gold.Chemscore.Rot>
1.5190

> <Gold.Chemscore.Internal.Correction>
   9.000000E+99

> <Gold.Chemscore.Hbonds>
donor molecule, donor type, donor heavy atom, donor atom, acceptor molecule, acceptor atom, score
      L1  H    12    44       P1  7948  0.85
      P1  H  7989  7998       L1     7  0.99
      P1  H  7997  8008       L1    19  0.01

> <Gold.Chemscore.Hbond.Weighted>
-6.5850

> <Gold.Chemscore.Metal.Weighted>
-0.0000

> <Gold.Chemscore.Lipo.Weighted>
-7.4097

> <Gold.Chemscore.Internal_Hbond.Weighted>
0.0000

> <Gold.Chemscore.DEClash.Weighted>
0.0064

> <Gold.Chemscore.DEInternal.Weighted>
0.8135

> <Gold.Chemscore.Rot.Weighted>
3.8886

> <Gold.Chemscore.Internal.Correction.Weighted>
   9.000000E+99

> <Gold.Protein.RotatedTorsions>
[ 6907 6896 6895 6894 ] final   43.20 input  -60.11 | X-H torsion
[ 7974 7965 7964 7962 ] final -144.58 input  175.53 | X-H torsion
[ 8008 7997 7996 7995 ] final  -55.95 input   59.86 | X-H torsion
[ 10167 10162 10161 10158 ] final   69.06 input  -65.29 | X-H torsion
[ 10718 10713 10712 10709 ] final -138.04 input   66.30 | X-H torsion
[ 10763 10752 10751 10750 ] final -159.15 input  -60.55 | X-H torsion
[ 11005 11000 10999 10996 ] final   48.55 input  -57.11 | X-H torsion

> <Gold.Protein.ActiveResidues>
 VAL166  LYS551  ARG553  GLY616  TRP617  ASP618  TYR619  PRO620  LYS621  CYS622 
 ASP623  PHE694  ASN695  SER759  ASP760  ASP761  ALA762  ILE779  LEU786  VAL792 
 PHE793  MET794  SER795  GLU796  ALA797  LYS798  CYS799  TRP800  GLU811  SER814 

> <Gold.Protein.RotatedAtoms>
  152.2173  134.8445  160.0489 H   0  0  0  0  0  0  0  0  0  0  0  0  # atno 6907 bound_to 6896
  151.9242  133.3588  159.3916 H   0  0  0  0  0  0  0  0  0  0  0  0  # atno 6908 bound_to 6896
  150.6991  134.4529  159.5389 H   0  0  0  0  0  0  0  0  0  0  0  0  # atno 6909 bound_to 6896
  144.8287  140.5692  143.5529 H   0  0  0  0  0  0  0  0  0  0  0  0  # atno 7974 bound_to 7965
  154.4212  140.1141  156.5559 H   0  0  0  0  0  0  0  0  0  0  0  0  # atno 8008 bound_to 7997
  155.6362  140.3496  155.4680 H   0  0  0  0  0  0  0  0  0  0  0  0  # atno 8009 bound_to 7997
  155.9908  140.1179  157.0630 H   0  0  0  0  0  0  0  0  0  0  0  0  # atno 8010 bound_to 7997
  140.0718  144.5146  150.7222 H   0  0  0  0  0  0  0  0  0  0  0  0  # atno 10167 bound_to 10162
  156.2949  130.7396  151.1432 H   0  0  0  0  0  0  0  0  0  0  0  0  # atno 10718 bound_to 10713
  154.7498  135.3089  154.8577 H   0  0  0  0  0  0  0  0  0  0  0  0  # atno 10763 bound_to 10752
  153.9368  135.6779  153.4749 H   0  0  0  0  0  0  0  0  0  0  0  0  # atno 10764 bound_to 10752
  153.1095  135.4873  154.8937 H   0  0  0  0  0  0  0  0  0  0  0  0  # atno 10765 bound_to 10752
  140.1181  134.4866  155.8620 H   0  0  0  0  0  0  0  0  0  0  0  0  # atno 11005 bound_to 11000
  145.4943  139.1487  143.3692 LP  0  0  0  0  0  0  0  0  0  0  0  0  # atno 17320 bound_to 7965
  146.2591  140.5081  142.8861 LP  0  0  0  0  0  0  0  0  0  0  0  0  # atno 17321 bound_to 7965
  140.7121  143.2514  151.4547 LP  0  0  0  0  0  0  0  0  0  0  0  0  # atno 17342 bound_to 10162
  139.5831  144.1665  152.1994 LP  0  0  0  0  0  0  0  0  0  0  0  0  # atno 17343 bound_to 10162
  157.7352  131.0574  150.5480 LP  0  0  0  0  0  0  0  0  0  0  0  0  # atno 17370 bound_to 10713
  156.5601  130.4253  149.6067 LP  0  0  0  0  0  0  0  0  0  0  0  0  # atno 17371 bound_to 10713
  141.2146  133.6751  156.6836 LP  0  0  0  0  0  0  0  0  0  0  0  0  # atno 17394 bound_to 11000
  140.3001  134.8170  157.4090 LP  0  0  0  0  0  0  0  0  0  0  0  0  # atno 17395 bound_to 11000

$$$$
