AV-unprocessed.smi:2302|AV-procd|sdf|9241|dock8
  -GOLD-   2272012463D 1   1.00000     0.00000
 Structure written by MMmdl.
 39 40  0  0  0  0  0  0  0  0  1 V2000
  152.6473  142.5482  162.1146 C   0  0  0  0  0  0  0  0  0  0  0  0
  152.2806  143.2396  160.8182 C   0  0  0  0  0  0  0  0  0  0  0  0
  153.2192  143.3703  159.7759 C   0  0  0  0  0  0  0  0  0  0  0  0
  152.8162  144.0276  158.5998 C   0  0  0  0  0  0  0  0  0  0  0  0
  151.5008  144.5235  158.5148 C   0  0  0  0  0  0  0  0  0  0  0  0
  150.6207  144.3512  159.6071 C   0  0  0  0  0  0  0  0  0  0  0  0
  149.3196  144.8909  159.4240 N   0  0  0  0  0  0  0  0  0  0  0  0
  148.2655  144.8185  160.2558 C   0  0  0  0  0  0  0  0  0  0  0  0
  148.2507  144.2288  161.3368 O   0  0  0  0  0  0  0  0  0  0  0  0
  147.2093  145.4777  159.7578 N   0  0  0  0  0  0  0  0  0  0  0  0
  145.9042  145.5857  160.4047 C   0  0  0  0  0  0  0  0  0  0  0  0
  144.7353  145.3473  159.4299 C   0  0  1  0  0  0  0  0  0  0  0  0
  144.7066  146.3348  158.2431 C   0  0  0  0  0  0  0  0  0  0  0  0
  143.6063  146.0499  157.3316 N   0  0  0  0  0  0  0  0  0  0  0  0
  143.5789  146.9812  156.2142 C   0  0  0  0  0  0  0  0  0  0  0  0
  143.6941  144.6680  156.8786 C   0  0  0  0  0  0  0  0  0  0  0  0
  143.7229  143.6837  158.0601 C   0  0  0  0  0  0  0  0  0  0  0  0
  144.7996  144.0118  158.9328 O   0  0  0  0  0  0  0  0  0  0  0  0
  151.0198  143.7162  160.7373 N   0  0  0  0  0  0  0  0  0  0  0  0
  153.5801  141.9927  162.0146 H   0  0  0  0  0  0  0  0  0  0  0  0
  151.8660  141.8473  162.4102 H   0  0  0  0  0  0  0  0  0  0  0  0
  152.7697  143.2828  162.9110 H   0  0  0  0  0  0  0  0  0  0  0  0
  154.2216  142.9797  159.8730 H   0  0  0  0  0  0  0  0  0  0  0  0
  153.5040  144.1504  157.7763 H   0  0  0  0  0  0  0  0  0  0  0  0
  151.1755  145.0313  157.6185 H   0  0  0  0  0  0  0  0  0  0  0  0
  149.1789  145.4011  158.5649 H   0  0  0  0  0  0  0  0  0  0  0  0
  147.3115  145.9334  158.8630 H   0  0  0  0  0  0  0  0  0  0  0  0
  145.8348  144.9009  161.2515 H   0  0  0  0  0  0  0  0  0  0  0  0
  145.8265  146.5896  160.8227 H   0  0  0  0  0  0  0  0  0  0  0  0
  143.8069  145.4505  159.9945 H   0  0  0  0  0  0  0  0  0  0  0  0
  144.6161  147.3538  158.6213 H   0  0  0  0  0  0  0  0  0  0  0  0
  145.6508  146.2870  157.6984 H   0  0  0  0  0  0  0  0  0  0  0  0
  142.7289  146.7765  155.5624 H   0  0  0  0  0  0  0  0  0  0  0  0
  144.4897  146.9096  155.6182 H   0  0  0  0  0  0  0  0  0  0  0  0
  143.4844  148.0077  156.5696 H   0  0  0  0  0  0  0  0  0  0  0  0
  142.8470  144.4352  156.2325 H   0  0  0  0  0  0  0  0  0  0  0  0
  144.5937  144.5329  156.2758 H   0  0  0  0  0  0  0  0  0  0  0  0
  142.7805  143.7119  158.6091 H   0  0  0  0  0  0  0  0  0  0  0  0
  143.8539  142.6631  157.7004 H   0  0  0  0  0  0  0  0  0  0  0  0
  1  2  1  0  0  0  0
  1 20  1  0  0  0  0
  1 21  1  0  0  0  0
  1 22  1  0  0  0  0
  2 19  1  0  0  0  0
  2  3  2  0  0  0  0
  3  4  1  0  0  0  0
  3 23  1  0  0  0  0
  4  5  2  0  0  0  0
  4 24  1  0  0  0  0
  5  6  1  0  0  0  0
  5 25  1  0  0  0  0
  6  7  1  0  0  0  0
  6 19  2  0  0  0  0
  7  8  1  0  0  0  0
  7 26  1  0  0  0  0
  8  9  2  0  0  0  0
  8 10  1  0  0  0  0
 10 11  1  0  0  0  0
 10 27  1  0  0  0  0
 11 12  1  0  0  0  0
 11 28  1  0  0  0  0
 11 29  1  0  0  0  0
 12 18  1  0  0  0  0
 12 13  1  0  0  0  0
 12 30  1  0  0  0  0
 13 14  1  0  0  0  0
 13 31  1  0  0  0  0
 13 32  1  0  0  0  0
 14 15  1  0  0  0  0
 14 16  1  0  0  0  0
 15 33  1  0  0  0  0
 15 34  1  0  0  0  0
 15 35  1  0  0  0  0
 16 17  1  0  0  0  0
 16 36  1  0  0  0  0
 16 37  1  0  0  0  0
 17 18  1  0  0  0  0
 17 38  1  0  0  0  0
 17 39  1  0  0  0  0
M  END
> <s_m_source_file>
AV-unprocessed.smi

> <i_m_source_file_index>
2302

> <i_lp_mmshare_version>
43012

> <i_f3d_flags>
0

> <s_epik_input>
W0NIM11jMVtjSF1bY0hdW2NIXWMobjEpW05IXUMoPU8pW05IXVtDSDJdW0NAQEhdMltDSDJdTihbQ0gzXSlbQ0gyXVtDSDJdTzI=

> <s_epik_cmdline>
J2VwaWtfcHl0aG9uJywgJy1waCcsICc3LjAnLCAnLXRuJywgJzgnLCAnLW1hJywgJzIwMCcsICctbWV0YWxfYmluZGluZycsICctaW1hZScsICc8aW5maWxlLm1hZT4nLCAnLW9tYWUnLCAnPG91dGZpbGUubWFlPic=

> <r_epik_Ionization_Penalty>
0.729465

> <r_epik_Ionization_Penalty_Charging>
0

> <r_epik_Ionization_Penalty_Neutral>
0.729465

> <r_epik_State_Penalty>
0.754525

> <r_epik_Charging_Adjusted_Penalty>
0.754525

> <i_epik_Tot_Q>
0

> <i_epik_Tot_abs_Q>
0

> <r_epik_Metal_State_Penalty>
0.754521

> <b_epik_Metal_Only>
0

> <s_lp_Force_Field>
OPLS_2005

> <r_lp_Energy>
21.4946

> <b_lp_Chiralities_Consistent>
1

> <s_lp_Variant>
AV-unprocessed.smi:2302-6

> <Gold.Version>
5.8.1

> <Gold.Id.Protein>
6NUR|6NUR_protein|mol2

> <Gold.PLP.Fitness>
46.2624

> <Gold.PLP.PLP>
-37.7476

> <Gold.PLP.part.hbond>
-3.9476

> <Gold.PLP.part.metal>
0.0000

> <Gold.PLP.part.buried>
-6.2220

> <Gold.PLP.part.nonpolar>
-29.6087

> <Gold.PLP.part.repulsive>
0.7388

> <Gold.PLP.ligand.clash>
0.0000

> <Gold.PLP.ligand.torsion>
0.0999

> <Gold.PLP.Chemscore.Hbond>
2.9040

> <Gold.PLP.Chemscore.CHOScore>
0.0000

> <Gold.PLP.Chemscore.Metal>
0.0000

> <Gold.Chemscore.Hbonds>
donor molecule, donor type, donor heavy atom, donor atom, acceptor molecule, acceptor atom, score
      L1  H     7    26       P1  8029  0.91
      L1  H    10    27       P1  8029  1.00
      P1  H  6933  6944       L1     9  0.99

> <Gold.PLP.Chemscore.Internal.Correction>
0.0027

> <Gold.Rescore>
     Score         DG    S(hbond)    S(metal)    S(lipo)     H(rot)  DE(clash)    DE(int)     intcor
     20.50     -21.89       2.89        0.00      85.30       1.25       0.00       1.39       ----

> <Gold.Chemscore.Fitness>
20.4998

> <Gold.Chemscore.DG>
-21.8946

> <Gold.Chemscore.ZeroCoef>
-5.4800

> <Gold.Chemscore.Hbond>
2.8851

> <Gold.Chemscore.Metal>
0.0000

> <Gold.Chemscore.Lipo>
85.2978

> <Gold.Chemscore.Internal_Hbond>
0.0000

> <Gold.Chemscore.DEClash>
0.0000

> <Gold.Chemscore.DEInternal>
1.3947

> <Gold.Chemscore.Rot>
1.2506

> <Gold.Chemscore.Internal.Correction>
   9.000000E+99

> <Gold.Chemscore.Hbonds>
donor molecule, donor type, donor heavy atom, donor atom, acceptor molecule, acceptor atom, score
      L1  H     7    26       P1  8029  0.86
      L1  H    10    27       P1  8029  0.96
      P1  H  6933  6944       L1     9  0.92

> <Gold.Chemscore.Hbond.Weighted>
-9.6362

> <Gold.Chemscore.Metal.Weighted>
-0.0000

> <Gold.Chemscore.Lipo.Weighted>
-9.9798

> <Gold.Chemscore.Internal_Hbond.Weighted>
0.0000

> <Gold.Chemscore.DEClash.Weighted>
0.0000

> <Gold.Chemscore.DEInternal.Weighted>
1.3947

> <Gold.Chemscore.Rot.Weighted>
3.2015

> <Gold.Chemscore.Internal.Correction.Weighted>
   9.000000E+99

> <Gold.Protein.RotatedTorsions>
[ 6907 6896 6895 6894 ] final   48.07 input  -60.11 | X-H torsion
[ 7974 7965 7964 7962 ] final  124.94 input  175.53 | X-H torsion
[ 8008 7997 7996 7995 ] final    4.00 input   59.86 | X-H torsion
[ 10167 10162 10161 10158 ] final  132.44 input  -65.29 | X-H torsion
[ 10718 10713 10712 10709 ] final  -23.27 input   66.30 | X-H torsion
[ 10763 10752 10751 10750 ] final -129.12 input  -60.55 | X-H torsion
[ 11005 11000 10999 10996 ] final  -23.71 input  -57.11 | X-H torsion

> <Gold.Protein.ActiveResidues>
 VAL166  LYS551  ARG553  GLY616  TRP617  ASP618  TYR619  PRO620  LYS621  CYS622 
 ASP623  PHE694  ASN695  SER759  ASP760  ASP761  ALA762  ILE779  LEU786  VAL792 
 PHE793  MET794  SER795  GLU796  ALA797  LYS798  CYS799  TRP800  GLU811  SER814 

> <Gold.Protein.RotatedAtoms>
  152.2754  134.7888  160.0406 H   0  0  0  0  0  0  0  0  0  0  0  0  # atno 6907 bound_to 6896
  151.8486  133.3430  159.3674 H   0  0  0  0  0  0  0  0  0  0  0  0  # atno 6908 bound_to 6896
  150.7168  134.5249  159.5716 H   0  0  0  0  0  0  0  0  0  0  0  0  # atno 6909 bound_to 6896
  145.0787  139.3674  143.4920 H   0  0  0  0  0  0  0  0  0  0  0  0  # atno 7974 bound_to 7965
  154.7105  140.2691  155.6634 H   0  0  0  0  0  0  0  0  0  0  0  0  # atno 8008 bound_to 7997
  156.2794  140.2754  156.1669 H   0  0  0  0  0  0  0  0  0  0  0  0  # atno 8009 bound_to 7997
  155.0641  140.0371  157.2577 H   0  0  0  0  0  0  0  0  0  0  0  0  # atno 8010 bound_to 7997
  139.5340  144.6662  151.4852 H   0  0  0  0  0  0  0  0  0  0  0  0  # atno 10167 bound_to 10162
  156.4933  130.4571  149.6743 H   0  0  0  0  0  0  0  0  0  0  0  0  # atno 10718 bound_to 10713
  154.8757  135.3906  154.3868 H   0  0  0  0  0  0  0  0  0  0  0  0  # atno 10763 bound_to 10752
  153.4608  135.7029  153.6056 H   0  0  0  0  0  0  0  0  0  0  0  0  # atno 10764 bound_to 10752
  153.4556  135.3824  155.2277 H   0  0  0  0  0  0  0  0  0  0  0  0  # atno 10765 bound_to 10752
  140.8777  133.7676  156.0263 H   0  0  0  0  0  0  0  0  0  0  0  0  # atno 11005 bound_to 11000
  146.3530  140.0566  142.8632 LP  0  0  0  0  0  0  0  0  0  0  0  0  # atno 17320 bound_to 7965
  145.1205  140.9459  143.4603 LP  0  0  0  0  0  0  0  0  0  0  0  0  # atno 17321 bound_to 7965
  140.6535  143.8648  150.6810 LP  0  0  0  0  0  0  0  0  0  0  0  0  # atno 17342 bound_to 10162
  140.2020  143.3952  152.1784 LP  0  0  0  0  0  0  0  0  0  0  0  0  # atno 17343 bound_to 10162
  156.3405  130.7379  151.2324 LP  0  0  0  0  0  0  0  0  0  0  0  0  # atno 17370 bound_to 10713
  157.7471  131.0405  150.4601 LP  0  0  0  0  0  0  0  0  0  0  0  0  # atno 17371 bound_to 10713
  140.8499  134.2967  157.5280 LP  0  0  0  0  0  0  0  0  0  0  0  0  # atno 17394 bound_to 11000
  139.8717  134.9462  156.3931 LP  0  0  0  0  0  0  0  0  0  0  0  0  # atno 17395 bound_to 11000

$$$$
