AV-unprocessed.smi:2895|AV-procd|sdf|11131|dock4
  -GOLD-   2272016 03D 1   1.00000     0.00000
 Structure written by MMmdl.
 53 56  0  0  0  0  0  0  0  0  2 V2000
  148.8441  141.8716  153.7631 O   0  0  0  0  0  0  0  0  0  0  0  0
  148.4648  141.0037  154.5504 C   0  0  0  0  0  0  0  0  0  0  0  0
  148.9927  140.8776  155.7799 N   0  0  0  0  0  0  0  0  0  0  0  0
  150.0634  141.7044  156.3251 C   0  0  0  0  0  0  0  0  0  0  0  0
  149.6377  142.3973  157.6305 C   0  0  0  0  0  0  0  0  0  0  0  0
  150.8275  142.8492  158.4548 C   0  0  0  0  0  0  0  0  0  0  0  0
  151.7253  141.9063  158.9962 C   0  0  0  0  0  0  0  0  0  0  0  0
  152.8165  142.3757  159.7545 C   0  0  0  0  0  0  0  0  0  0  0  0
  153.0472  143.6853  159.9900 N   0  0  0  0  0  0  0  0  0  0  0  0
  152.1829  144.5822  159.4679 C   0  0  0  0  0  0  0  0  0  0  0  0
  151.0614  144.2187  158.6957 C   0  0  0  0  0  0  0  0  0  0  0  0
  147.4700  140.1258  154.2638 N   0  0  0  0  0  0  0  0  0  0  0  0
  147.1163  138.9273  155.0408 C   0  0  0  0  0  0  0  0  0  0  0  0
  147.5329  137.6749  154.2443 C   0  0  0  0  0  0  0  0  0  0  0  0
  146.9127  137.6426  152.8882 N   0  3  0  0  0  0  0  0  0  0  0  0
  145.4815  137.2125  152.8699 C   0  0  1  0  0  0  0  0  0  0  0  0
  144.8848  137.0736  151.4477 C   0  0  0  0  0  0  0  0  0  0  0  0
  144.2285  135.6806  151.4747 C   0  0  1  0  0  0  0  0  0  0  0  0
  145.3305  134.6117  151.3817 C   0  0  0  0  0  0  0  0  0  0  0  0
  146.0077  134.7098  152.7602 C   0  0  0  0  0  0  0  0  0  0  0  0
  145.1923  135.8128  153.4699 C   0  0  2  0  0  0  0  0  0  0  0  0
  143.7910  135.5496  152.9283 C   0  0  0  0  0  0  0  0  0  0  0  0
  147.1549  138.9161  152.1499 C   0  0  0  0  0  0  0  0  0  0  0  0
  146.7586  140.1540  152.9810 C   0  0  0  0  0  0  0  0  0  0  0  0
  148.6232  140.1576  156.3834 H   0  0  0  0  0  0  0  0  0  0  0  0
  150.9567  141.0979  156.4838 H   0  0  0  0  0  0  0  0  0  0  0  0
  150.3251  142.4533  155.5770 H   0  0  0  0  0  0  0  0  0  0  0  0
  149.0057  143.2580  157.4068 H   0  0  0  0  0  0  0  0  0  0  0  0
  149.0341  141.7233  158.2399 H   0  0  0  0  0  0  0  0  0  0  0  0
  151.5841  140.8474  158.8345 H   0  0  0  0  0  0  0  0  0  0  0  0
  153.5231  141.6802  160.1826 H   0  0  0  0  0  0  0  0  0  0  0  0
  152.3907  145.6221  159.6719 H   0  0  0  0  0  0  0  0  0  0  0  0
  150.3999  144.9761  158.3015 H   0  0  0  0  0  0  0  0  0  0  0  0
  147.5699  138.8905  156.0310 H   0  0  0  0  0  0  0  0  0  0  0  0
  146.0405  138.9226  155.2191 H   0  0  0  0  0  0  0  0  0  0  0  0
  148.6158  137.6846  154.1138 H   0  0  0  0  0  0  0  0  0  0  0  0
  147.3219  136.7693  154.8104 H   0  0  0  0  0  0  0  0  0  0  0  0
  144.8918  137.9419  153.4264 H   0  0  0  0  0  0  0  0  0  0  0  0
  144.1444  137.8538  151.2679 H   0  0  0  0  0  0  0  0  0  0  0  0
  145.6312  137.1368  150.6546 H   0  0  0  0  0  0  0  0  0  0  0  0
  143.4347  135.5545  150.7377 H   0  0  0  0  0  0  0  0  0  0  0  0
  144.8985  133.6205  151.2366 H   0  0  0  0  0  0  0  0  0  0  0  0
  146.0241  134.7967  150.5607 H   0  0  0  0  0  0  0  0  0  0  0  0
  145.9179  133.7626  153.2939 H   0  0  0  0  0  0  0  0  0  0  0  0
  147.0695  134.9449  152.6860 H   0  0  0  0  0  0  0  0  0  0  0  0
  145.2534  135.7753  154.5578 H   0  0  0  0  0  0  0  0  0  0  0  0
  143.0586  136.3008  153.2294 H   0  0  0  0  0  0  0  0  0  0  0  0
  143.4087  134.5580  153.1778 H   0  0  0  0  0  0  0  0  0  0  0  0
  148.2193  138.9711  151.9172 H   0  0  0  0  0  0  0  0  0  0  0  0
  146.6417  138.9275  151.1891 H   0  0  0  0  0  0  0  0  0  0  0  0
  145.6843  140.1657  153.1675 H   0  0  0  0  0  0  0  0  0  0  0  0
  146.9592  141.0591  152.4063 H   0  0  0  0  0  0  0  0  0  0  0  0
  147.4035  136.9224  152.3776 H   0  0  0  0  0  0  0  0  0  0  0  0
  1  2  2  0  0  0  0
  2  3  1  0  0  0  0
  2 12  1  0  0  0  0
  3  4  1  0  0  0  0
  3 25  1  0  0  0  0
  4  5  1  0  0  0  0
  4 26  1  0  0  0  0
  4 27  1  0  0  0  0
  5  6  1  0  0  0  0
  5 28  1  0  0  0  0
  5 29  1  0  0  0  0
  6 11  1  0  0  0  0
  6  7  2  0  0  0  0
  7  8  1  0  0  0  0
  7 30  1  0  0  0  0
  8  9  2  0  0  0  0
  8 31  1  0  0  0  0
  9 10  1  0  0  0  0
 10 11  2  0  0  0  0
 10 32  1  0  0  0  0
 11 33  1  0  0  0  0
 12 24  1  0  0  0  0
 12 13  1  0  0  0  0
 13 14  1  0  0  0  0
 13 34  1  0  0  0  0
 13 35  1  0  0  0  0
 14 15  1  0  0  0  0
 14 36  1  0  0  0  0
 14 37  1  0  0  0  0
 15 16  1  0  0  0  0
 15 23  1  0  0  0  0
 15 53  1  0  0  0  0
 16 21  1  0  0  0  0
 16 17  1  0  0  0  0
 16 38  1  0  0  0  0
 17 18  1  0  0  0  0
 17 39  1  0  0  0  0
 17 40  1  0  0  0  0
 18 22  1  0  0  0  0
 18 19  1  0  0  0  0
 18 41  1  0  0  0  0
 19 20  1  0  0  0  0
 19 42  1  0  0  0  0
 19 43  1  0  0  0  0
 20 21  1  0  0  0  0
 20 44  1  0  0  0  0
 20 45  1  0  0  0  0
 21 22  1  0  0  0  0
 21 46  1  0  0  0  0
 22 47  1  0  0  0  0
 22 48  1  0  0  0  0
 23 24  1  0  0  0  0
 23 49  1  0  0  0  0
 23 50  1  0  0  0  0
 24 51  1  0  0  0  0
 24 52  1  0  0  0  0
M  CHG  1  15   1
M  END
> <s_m_source_file>
AV-unprocessed.smi

> <i_m_source_file_index>
2895

> <i_lp_mmshare_version>
43012

> <i_f3d_flags>
0

> <s_epik_input>
W0NIMl0xW0NIMl1bQ0BASF0oW0NIMl0yKVtDQEBIXShbQ0gyXVtDQEhdMTIpTihbQ0gyXVtDSDJdMylbQ0gyXVtDSDJdTjNDKD1PKVtOSF1bQ0gyXVtDSDJdYzRbY0hdW2NIXW5bY0hdW2NIXTQ=

> <s_epik_cmdline>
J2VwaWtfcHl0aG9uJywgJy1waCcsICc3LjAnLCAnLXRuJywgJzgnLCAnLW1hJywgJzIwMCcsICctbWV0YWxfYmluZGluZycsICctaW1hZScsICc8aW5maWxlLm1hZT4nLCAnLW9tYWUnLCAnPG91dGZpbGUubWFlPic=

> <r_epik_Ionization_Penalty>
0.0566172

> <r_epik_Ionization_Penalty_Charging>
0.00262064

> <r_epik_Ionization_Penalty_Neutral>
0.0539965

> <r_epik_State_Penalty>
0.0463959

> <r_epik_Charging_Adjusted_Penalty>
0.0490165

> <i_epik_Tot_Q>
1

> <i_epik_Tot_abs_Q>
1

> <r_epik_Metal_State_Penalty>
0.0424856

> <b_epik_Metal_Only>
0

> <s_lp_Force_Field>
OPLS_2005

> <r_lp_Energy>
99.8283

> <b_lp_Chiralities_Consistent>
1

> <s_lp_Variant>
AV-unprocessed.smi:2895-4

> <Gold.Version>
5.8.1

> <Gold.Id.Protein>
6NUR|6NUR_protein|mol2

> <Gold.PLP.Fitness>
42.4765

> <Gold.PLP.PLP>
-35.3059

> <Gold.PLP.part.hbond>
-2.1329

> <Gold.PLP.part.metal>
0.0000

> <Gold.PLP.part.buried>
2.6712

> <Gold.PLP.part.nonpolar>
-36.8217

> <Gold.PLP.part.repulsive>
0.2929

> <Gold.PLP.ligand.clash>
0.0000

> <Gold.PLP.ligand.torsion>
0.1752

> <Gold.PLP.Chemscore.Hbond>
2.4800

> <Gold.PLP.Chemscore.CHOScore>
0.0000

> <Gold.PLP.Chemscore.Metal>
0.0000

> <Gold.Chemscore.Hbonds>
donor molecule, donor type, donor heavy atom, donor atom, acceptor molecule, acceptor atom, score
      L1  H    15    53       P1  7948  1.95
      P1  H  8011  8017       L1     1  0.53

> <Gold.PLP.Chemscore.Internal.Correction>
0.0811

> <Gold.Rescore>
     Score         DG    S(hbond)    S(metal)    S(lipo)     H(rot)  DE(clash)    DE(int)     intcor
     18.07     -20.09       1.47        0.00     112.83       1.37       1.89       0.13       ----

> <Gold.Chemscore.Fitness>
18.0666

> <Gold.Chemscore.DG>
-20.0875

> <Gold.Chemscore.ZeroCoef>
-5.4800

> <Gold.Chemscore.Hbond>
1.4733

> <Gold.Chemscore.Metal>
0.0000

> <Gold.Chemscore.Lipo>
112.8350

> <Gold.Chemscore.Internal_Hbond>
0.0000

> <Gold.Chemscore.DEClash>
1.8892

> <Gold.Chemscore.DEInternal>
0.1317

> <Gold.Chemscore.Rot>
1.3731

> <Gold.Chemscore.Internal.Correction>
   9.000000E+99

> <Gold.Chemscore.Hbonds>
donor molecule, donor type, donor heavy atom, donor atom, acceptor molecule, acceptor atom, score
      L1  H    15    53       P1  7948  0.93
      P1  H  8011  8017       L1     1  0.54

> <Gold.Chemscore.Hbond.Weighted>
-4.9209

> <Gold.Chemscore.Metal.Weighted>
-0.0000

> <Gold.Chemscore.Lipo.Weighted>
-13.2017

> <Gold.Chemscore.Internal_Hbond.Weighted>
0.0000

> <Gold.Chemscore.DEClash.Weighted>
1.8892

> <Gold.Chemscore.DEInternal.Weighted>
0.1317

> <Gold.Chemscore.Rot.Weighted>
3.5152

> <Gold.Chemscore.Internal.Correction.Weighted>
   9.000000E+99

> <Gold.Protein.RotatedTorsions>
[ 6907 6896 6895 6894 ] final -140.46 input  -60.11 | X-H torsion
[ 7974 7965 7964 7962 ] final  -60.91 input  175.53 | X-H torsion
[ 8008 7997 7996 7995 ] final  170.95 input   59.86 | X-H torsion
[ 10167 10162 10161 10158 ] final  133.15 input  -65.29 | X-H torsion
[ 10718 10713 10712 10709 ] final -128.41 input   66.30 | X-H torsion
[ 10763 10752 10751 10750 ] final  147.65 input  -60.55 | X-H torsion
[ 11005 11000 10999 10996 ] final  -21.08 input  -57.11 | X-H torsion

> <Gold.Protein.ActiveResidues>
 VAL166  LYS551  ARG553  GLY616  TRP617  ASP618  TYR619  PRO620  LYS621  CYS622 
 ASP623  PHE694  ASN695  SER759  ASP760  ASP761  ALA762  ILE779  LEU786  VAL792 
 PHE793  MET794  SER795  GLU796  ALA797  LYS798  CYS799  TRP800  GLU811  SER814 

> <Gold.Protein.RotatedAtoms>
  151.0611  133.5544  159.2634 H   0  0  0  0  0  0  0  0  0  0  0  0  # atno 6907 bound_to 6896
  151.2519  135.0624  159.9075 H   0  0  0  0  0  0  0  0  0  0  0  0  # atno 6908 bound_to 6896
  152.5397  134.0370  159.8104 H   0  0  0  0  0  0  0  0  0  0  0  0  # atno 6909 bound_to 6896
  145.8098  140.8605  143.0187 H   0  0  0  0  0  0  0  0  0  0  0  0  # atno 7974 bound_to 7965
  156.1317  140.1524  156.9055 H   0  0  0  0  0  0  0  0  0  0  0  0  # atno 8008 bound_to 7997
  154.4914  140.0850  156.7643 H   0  0  0  0  0  0  0  0  0  0  0  0  # atno 8009 bound_to 7997
  155.4244  140.3424  155.4276 H   0  0  0  0  0  0  0  0  0  0  0  0  # atno 8010 bound_to 7997
  139.5309  144.6629  151.4954 H   0  0  0  0  0  0  0  0  0  0  0  0  # atno 10167 bound_to 10162
  156.1949  130.6819  151.0469 H   0  0  0  0  0  0  0  0  0  0  0  0  # atno 10718 bound_to 10713
  154.0418  135.2889  155.3354 H   0  0  0  0  0  0  0  0  0  0  0  0  # atno 10763 bound_to 10752
  154.6924  135.5221  153.8415 H   0  0  0  0  0  0  0  0  0  0  0  0  # atno 10764 bound_to 10752
  153.0597  135.6609  154.0621 H   0  0  0  0  0  0  0  0  0  0  0  0  # atno 10765 bound_to 10752
  140.8526  133.7845  155.9984 H   0  0  0  0  0  0  0  0  0  0  0  0  # atno 11005 bound_to 11000
  144.6758  140.0380  143.7481 LP  0  0  0  0  0  0  0  0  0  0  0  0  # atno 17320 bound_to 7965
  145.9789  139.2926  143.1054 LP  0  0  0  0  0  0  0  0  0  0  0  0  # atno 17321 bound_to 7965
  140.6486  143.8743  150.6762 LP  0  0  0  0  0  0  0  0  0  0  0  0  # atno 17342 bound_to 10162
  140.2100  143.3891  152.1725 LP  0  0  0  0  0  0  0  0  0  0  0  0  # atno 17343 bound_to 10162
  157.6951  131.0796  150.6992 LP  0  0  0  0  0  0  0  0  0  0  0  0  # atno 17370 bound_to 10713
  156.7049  130.4634  149.5563 LP  0  0  0  0  0  0  0  0  0  0  0  0  # atno 17371 bound_to 10713
  140.8772  134.2655  157.5162 LP  0  0  0  0  0  0  0  0  0  0  0  0  # atno 17394 bound_to 11000
  139.8704  134.9597  156.4341 LP  0  0  0  0  0  0  0  0  0  0  0  0  # atno 17395 bound_to 11000

$$$$
