AV-unprocessed.smi:1295|AV-procd|sdf|5402|dock6
  -GOLD-   22720 4563D 1   1.00000     0.00000
 Structure written by MMmdl.
 43 44  0  0  0  0  0  0  0  0  1 V2000
  146.6749  140.5069  152.3475 C   0  0  0  0  0  0  0  0  0  0  0  0
  147.2639  140.7686  153.7171 C   0  0  0  0  0  0  0  0  0  0  0  0
  146.6072  141.3027  154.6936 N   0  0  0  0  0  0  0  0  0  0  0  0
  147.2615  141.4994  155.9177 C   0  0  0  0  0  0  0  0  0  0  0  0
  146.4250  142.1386  157.0133 C   0  0  0  0  0  0  0  0  0  0  0  0
  148.5658  141.1379  156.0982 C   0  0  0  0  0  0  0  0  0  0  0  0
  149.3066  141.3464  157.4175 C   0  0  0  0  0  0  0  0  0  0  0  0
  150.5993  142.1604  157.3250 C   0  0  0  0  0  0  0  0  0  0  0  0
  150.9533  142.6388  156.2476 O   0  0  0  0  0  0  0  0  0  0  0  0
  151.2867  142.3108  158.4676 N   0  0  0  0  0  0  0  0  0  0  0  0
  152.5261  143.0709  158.6394 C   0  0  1  0  0  0  0  0  0  0  0  0
  152.3604  144.4795  158.0344 C   0  0  0  0  0  0  0  0  0  0  0  0
  151.3948  145.3543  158.8533 C   0  0  0  0  0  0  0  0  0  0  0  0
  151.8273  145.4317  160.3253 C   0  0  0  0  0  0  0  0  0  0  0  0
  151.9762  144.0311  160.9414 C   0  0  0  0  0  0  0  0  0  0  0  0
  152.9500  143.1533  160.1279 C   0  0  1  0  0  0  0  0  0  0  0  0
  153.1450  141.7720  160.7761 C   0  0  0  0  0  0  0  0  0  0  0  0
  149.3051  140.5258  154.9771 C   0  0  0  0  0  0  0  0  0  0  0  0
  150.4799  140.1653  155.0291 O   0  0  0  0  0  0  0  0  0  0  0  0
  148.5965  140.3776  153.8355 N   0  0  0  0  0  0  0  0  0  0  0  0
  149.0595  139.9670  153.0379 H   0  0  0  0  0  0  0  0  0  0  0  0
  146.3378  141.4419  151.8995 H   0  0  0  0  0  0  0  0  0  0  0  0
  145.8187  139.8371  152.4294 H   0  0  0  0  0  0  0  0  0  0  0  0
  147.4032  140.0497  151.6759 H   0  0  0  0  0  0  0  0  0  0  0  0
  146.3094  141.4555  157.8551 H   0  0  0  0  0  0  0  0  0  0  0  0
  145.4282  142.3943  156.6519 H   0  0  0  0  0  0  0  0  0  0  0  0
  146.8931  143.0557  157.3713 H   0  0  0  0  0  0  0  0  0  0  0  0
  148.6275  141.8335  158.1183 H   0  0  0  0  0  0  0  0  0  0  0  0
  149.5429  140.3891  157.8828 H   0  0  0  0  0  0  0  0  0  0  0  0
  150.9126  141.8734  159.2970 H   0  0  0  0  0  0  0  0  0  0  0  0
  153.3293  142.5783  158.0884 H   0  0  0  0  0  0  0  0  0  0  0  0
  153.3352  144.9676  157.9950 H   0  0  0  0  0  0  0  0  0  0  0  0
  152.0167  144.4088  157.0016 H   0  0  0  0  0  0  0  0  0  0  0  0
  151.3512  146.3566  158.4264 H   0  0  0  0  0  0  0  0  0  0  0  0
  150.3839  144.9499  158.7892 H   0  0  0  0  0  0  0  0  0  0  0  0
  152.7760  145.9646  160.3990 H   0  0  0  0  0  0  0  0  0  0  0  0
  151.1020  146.0131  160.8951 H   0  0  0  0  0  0  0  0  0  0  0  0
  152.3295  144.1241  161.9689 H   0  0  0  0  0  0  0  0  0  0  0  0
  150.9987  143.5504  160.9967 H   0  0  0  0  0  0  0  0  0  0  0  0
  153.9228  143.6468  160.1526 H   0  0  0  0  0  0  0  0  0  0  0  0
  152.2053  141.2245  160.8532 H   0  0  0  0  0  0  0  0  0  0  0  0
  153.5524  141.8677  161.7826 H   0  0  0  0  0  0  0  0  0  0  0  0
  153.8390  141.1626  160.1966 H   0  0  0  0  0  0  0  0  0  0  0  0
  1  2  1  0  0  0  0
  1 22  1  0  0  0  0
  1 23  1  0  0  0  0
  1 24  1  0  0  0  0
  2 20  1  0  0  0  0
  2  3  2  0  0  0  0
  3  4  1  0  0  0  0
  4  5  1  0  0  0  0
  4  6  2  0  0  0  0
  5 25  1  0  0  0  0
  5 26  1  0  0  0  0
  5 27  1  0  0  0  0
  6  7  1  0  0  0  0
  6 18  1  0  0  0  0
  7  8  1  0  0  0  0
  7 28  1  0  0  0  0
  7 29  1  0  0  0  0
  8  9  2  0  0  0  0
  8 10  1  0  0  0  0
 10 11  1  0  0  0  0
 10 30  1  0  0  0  0
 11 16  1  0  0  0  0
 11 12  1  0  0  0  0
 11 31  1  0  0  0  0
 12 13  1  0  0  0  0
 12 32  1  0  0  0  0
 12 33  1  0  0  0  0
 13 14  1  0  0  0  0
 13 34  1  0  0  0  0
 13 35  1  0  0  0  0
 14 15  1  0  0  0  0
 14 36  1  0  0  0  0
 14 37  1  0  0  0  0
 15 16  1  0  0  0  0
 15 38  1  0  0  0  0
 15 39  1  0  0  0  0
 16 17  1  0  0  0  0
 16 40  1  0  0  0  0
 17 41  1  0  0  0  0
 17 42  1  0  0  0  0
 17 43  1  0  0  0  0
 18 19  2  0  0  0  0
 18 20  1  0  0  0  0
 20 21  1  0  0  0  0
M  END
> <s_m_source_file>
AV-unprocessed.smi

> <i_m_source_file_index>
1295

> <i_lp_mmshare_version>
43012

> <i_f3d_flags>
0

> <s_epik_input>
W0NIM11jMW5jKFtDSDNdKWMoYyg9TylbbkhdMSlbQ0gyXUMoPU8pW05IXVtDQEBIXTJbQ0gyXVtDSDJdW0NIMl1bQ0gyXVtDQEhdMltDSDNd

> <s_epik_cmdline>
J2VwaWtfcHl0aG9uJywgJy1waCcsICc3LjAnLCAnLXRuJywgJzgnLCAnLW1hJywgJzIwMCcsICctbWV0YWxfYmluZGluZycsICctaW1hZScsICc8aW5maWxlLm1hZT4nLCAnLW9tYWUnLCAnPG91dGZpbGUubWFlPic=

> <r_lp_tautomer_probability>
0.839158

> <r_epik_Ionization_Penalty>
0.00037085

> <r_epik_Ionization_Penalty_Charging>
0.000336002

> <r_epik_Ionization_Penalty_Neutral>
3.48485e-05

> <r_epik_State_Penalty>
0.09125

> <r_epik_Charging_Adjusted_Penalty>
0.091586

> <i_epik_Tot_Q>
0

> <i_epik_Tot_abs_Q>
0

> <r_epik_Metal_State_Penalty>
0.251445

> <b_epik_Metal_Only>
0

> <s_lp_Force_Field>
OPLS_2005

> <r_lp_Energy>
11.7893

> <b_lp_Chiralities_Consistent>
1

> <s_lp_Variant>
AV-unprocessed.smi:1295-2

> <Gold.Version>
5.8.1

> <Gold.Id.Protein>
6NUR|6NUR_protein|mol2

> <Gold.PLP.Fitness>
48.3915

> <Gold.PLP.PLP>
-42.5637

> <Gold.PLP.part.hbond>
-2.0000

> <Gold.PLP.part.metal>
0.0000

> <Gold.PLP.part.buried>
-2.9779

> <Gold.PLP.part.nonpolar>
-38.1209

> <Gold.PLP.part.repulsive>
1.1595

> <Gold.PLP.ligand.clash>
0.0000

> <Gold.PLP.ligand.torsion>
0.0902

> <Gold.PLP.Chemscore.Hbond>
2.0000

> <Gold.PLP.Chemscore.CHOScore>
0.0000

> <Gold.PLP.Chemscore.Metal>
0.0000

> <Gold.Chemscore.Hbonds>
donor molecule, donor type, donor heavy atom, donor atom, acceptor molecule, acceptor atom, score
      L1  H    20    21       P1  7957  1.00
      P1  H  7989  7998       L1    19  0.98

> <Gold.PLP.Chemscore.Internal.Correction>
0.0081

> <Gold.Rescore>
     Score         DG    S(hbond)    S(metal)    S(lipo)     H(rot)  DE(clash)    DE(int)     intcor
     19.13     -19.30       1.98        0.00      93.97       1.48       0.06       0.11       ----

> <Gold.Chemscore.Fitness>
19.1312

> <Gold.Chemscore.DG>
-19.2964

> <Gold.Chemscore.ZeroCoef>
-5.4800

> <Gold.Chemscore.Hbond>
1.9795

> <Gold.Chemscore.Metal>
0.0000

> <Gold.Chemscore.Lipo>
93.9664

> <Gold.Chemscore.Internal_Hbond>
0.0000

> <Gold.Chemscore.DEClash>
0.0597

> <Gold.Chemscore.DEInternal>
0.1054

> <Gold.Chemscore.Rot>
1.4801

> <Gold.Chemscore.Internal.Correction>
   9.000000E+99

> <Gold.Chemscore.Hbonds>
donor molecule, donor type, donor heavy atom, donor atom, acceptor molecule, acceptor atom, score
      L1  H    20    21       P1  7957  0.94
      P1  H  7989  7998       L1    19  0.80

> <Gold.Chemscore.Hbond.Weighted>
-6.6114

> <Gold.Chemscore.Metal.Weighted>
-0.0000

> <Gold.Chemscore.Lipo.Weighted>
-10.9941

> <Gold.Chemscore.Internal_Hbond.Weighted>
0.0000

> <Gold.Chemscore.DEClash.Weighted>
0.0597

> <Gold.Chemscore.DEInternal.Weighted>
0.1054

> <Gold.Chemscore.Rot.Weighted>
3.7891

> <Gold.Chemscore.Internal.Correction.Weighted>
   9.000000E+99

> <Gold.Protein.RotatedTorsions>
[ 6907 6896 6895 6894 ] final  170.36 input  -60.11 | X-H torsion
[ 7974 7965 7964 7962 ] final  105.21 input  175.53 | X-H torsion
[ 8008 7997 7996 7995 ] final -135.82 input   59.86 | X-H torsion
[ 10167 10162 10161 10158 ] final  155.42 input  -65.29 | X-H torsion
[ 10718 10713 10712 10709 ] final -175.24 input   66.30 | X-H torsion
[ 10763 10752 10751 10750 ] final  168.89 input  -60.55 | X-H torsion
[ 11005 11000 10999 10996 ] final -123.72 input  -57.11 | X-H torsion

> <Gold.Protein.ActiveResidues>
 VAL166  LYS551  ARG553  GLY616  TRP617  ASP618  TYR619  PRO620  LYS621  CYS622 
 ASP623  PHE694  ASN695  SER759  ASP760  ASP761  ALA762  ILE779  LEU786  VAL792 
 PHE793  MET794  SER795  GLU796  ALA797  LYS798  CYS799  TRP800  GLU811  SER814 

> <Gold.Protein.RotatedAtoms>
  151.8174  133.3390  159.3573 H   0  0  0  0  0  0  0  0  0  0  0  0  # atno 6907 bound_to 6896
  150.7306  134.5606  159.5850 H   0  0  0  0  0  0  0  0  0  0  0  0  # atno 6908 bound_to 6896
  152.3031  134.7588  160.0404 H   0  0  0  0  0  0  0  0  0  0  0  0  # atno 6909 bound_to 6896
  145.3226  139.2508  143.3703 H   0  0  0  0  0  0  0  0  0  0  0  0  # atno 7974 bound_to 7965
  155.3850  140.0496  157.3042 H   0  0  0  0  0  0  0  0  0  0  0  0  # atno 8008 bound_to 7997
  154.5064  140.2175  155.9205 H   0  0  0  0  0  0  0  0  0  0  0  0  # atno 8009 bound_to 7997
  156.1530  140.3132  155.8685 H   0  0  0  0  0  0  0  0  0  0  0  0  # atno 8010 bound_to 7997
  139.4821  144.5100  151.8039 H   0  0  0  0  0  0  0  0  0  0  0  0  # atno 10167 bound_to 10162
  156.7969  130.9538  151.3119 H   0  0  0  0  0  0  0  0  0  0  0  0  # atno 10718 bound_to 10713
  154.3752  135.2753  155.2243 H   0  0  0  0  0  0  0  0  0  0  0  0  # atno 10763 bound_to 10752
  154.4373  135.5963  153.6110 H   0  0  0  0  0  0  0  0  0  0  0  0  # atno 10764 bound_to 10752
  152.9836  135.6010  154.3988 H   0  0  0  0  0  0  0  0  0  0  0  0  # atno 10765 bound_to 10752
  140.9897  134.0557  157.3669 H   0  0  0  0  0  0  0  0  0  0  0  0  # atno 11005 bound_to 11000
  146.3076  140.3787  142.8681 LP  0  0  0  0  0  0  0  0  0  0  0  0  # atno 17320 bound_to 7965
  144.8927  140.7544  143.5916 LP  0  0  0  0  0  0  0  0  0  0  0  0  # atno 17321 bound_to 7965
  140.4602  144.1733  150.5905 LP  0  0  0  0  0  0  0  0  0  0  0  0  # atno 17342 bound_to 10162
  140.4493  143.2493  151.9369 LP  0  0  0  0  0  0  0  0  0  0  0  0  # atno 17343 bound_to 10162
  157.6573  130.8935  149.9755 LP  0  0  0  0  0  0  0  0  0  0  0  0  # atno 17370 bound_to 10713
  156.1125  130.3649  150.0025 LP  0  0  0  0  0  0  0  0  0  0  0  0  # atno 17371 bound_to 10713
  139.8986  135.0155  156.7158 LP  0  0  0  0  0  0  0  0  0  0  0  0  # atno 17394 bound_to 11000
  140.7060  133.9265  155.8054 LP  0  0  0  0  0  0  0  0  0  0  0  0  # atno 17395 bound_to 11000

$$$$
