AV-unprocessed.smi:634|AV-procd|sdf|3133|dock5
  -GOLD-   22720 0 53D 1   1.00000     0.00000
 Structure written by MMmdl.
 33 34  0  0  0  0  0  0  0  0  1 V2000
  143.8050  143.8997  162.4078 C   0  0  0  0  0  0  0  0  0  0  0  0
  144.8424  143.5877  161.3844 C   0  0  0  0  0  0  0  0  0  0  0  0
  145.8881  144.3028  160.8719 C   0  0  0  0  0  0  0  0  0  0  0  0
  146.4667  143.4000  159.9404 C   0  0  0  0  0  0  0  0  0  0  0  0
  147.6082  143.7684  159.1839 N   0  0  0  0  0  0  0  0  0  0  0  0
  148.6855  143.0148  158.9063 C   0  0  0  0  0  0  0  0  0  0  0  0
  148.8432  141.8484  159.2671 O   0  0  0  0  0  0  0  0  0  0  0  0
  149.5816  143.7044  158.1804 N   0  0  0  0  0  0  0  0  0  0  0  0
  150.8949  143.2599  157.6932 C   0  0  1  0  0  0  0  0  0  0  0  0
  150.7904  142.7619  156.2360 C   0  0  0  0  0  0  0  0  0  0  0  0
  151.8463  144.4786  157.7670 C   0  0  0  0  0  0  0  0  0  0  0  0
  152.2582  144.7277  159.2236 C   0  0  0  0  0  0  0  0  0  0  0  0
  152.2961  143.0792  160.0164 S   0  0  0  0  0  0  0  0  0  0  0  0
  153.6888  142.6256  160.1487 O   0  0  0  0  0  0  0  0  0  0  0  0
  151.3885  143.0884  161.1738 O   0  0  0  0  0  0  0  0  0  0  0  0
  151.5032  142.1855  158.6254 C   0  0  0  0  0  0  0  0  0  0  0  0
  145.8291  142.2407  159.8856 N   0  0  0  0  0  0  0  0  0  0  0  0
  144.7845  142.3553  160.8105 O   0  0  0  0  0  0  0  0  0  0  0  0
  144.0603  144.8056  162.9579 H   0  0  0  0  0  0  0  0  0  0  0  0
  143.7119  143.0849  163.1260 H   0  0  0  0  0  0  0  0  0  0  0  0
  142.8332  144.0509  161.9381 H   0  0  0  0  0  0  0  0  0  0  0  0
  146.1894  145.3079  161.1268 H   0  0  0  0  0  0  0  0  0  0  0  0
  147.6102  144.7124  158.8275 H   0  0  0  0  0  0  0  0  0  0  0  0
  149.3354  144.6550  157.9463 H   0  0  0  0  0  0  0  0  0  0  0  0
  151.7732  142.5225  155.8287 H   0  0  0  0  0  0  0  0  0  0  0  0
  150.3445  143.5191  155.5902 H   0  0  0  0  0  0  0  0  0  0  0  0
  150.1853  141.8592  156.1546 H   0  0  0  0  0  0  0  0  0  0  0  0
  152.7494  144.2594  157.1958 H   0  0  0  0  0  0  0  0  0  0  0  0
  151.4086  145.3716  157.3186 H   0  0  0  0  0  0  0  0  0  0  0  0
  153.2300  145.2129  159.3147 H   0  0  0  0  0  0  0  0  0  0  0  0
  151.5149  145.3342  159.7413 H   0  0  0  0  0  0  0  0  0  0  0  0
  150.7907  141.4556  159.0087 H   0  0  0  0  0  0  0  0  0  0  0  0
  152.2898  141.6346  158.1093 H   0  0  0  0  0  0  0  0  0  0  0  0
  1  2  1  0  0  0  0
  1 19  1  0  0  0  0
  1 20  1  0  0  0  0
  1 21  1  0  0  0  0
  2 18  1  0  0  0  0
  2  3  2  0  0  0  0
  3  4  1  0  0  0  0
  3 22  1  0  0  0  0
  4  5  1  0  0  0  0
  4 17  2  0  0  0  0
  5  6  1  0  0  0  0
  5 23  1  0  0  0  0
  6  7  2  0  0  0  0
  6  8  1  0  0  0  0
  8  9  1  0  0  0  0
  8 24  1  0  0  0  0
  9 16  1  0  0  0  0
  9 10  1  0  0  0  0
  9 11  1  0  0  0  0
 10 25  1  0  0  0  0
 10 26  1  0  0  0  0
 10 27  1  0  0  0  0
 11 12  1  0  0  0  0
 11 28  1  0  0  0  0
 11 29  1  0  0  0  0
 12 13  1  0  0  0  0
 12 30  1  0  0  0  0
 12 31  1  0  0  0  0
 13 14  2  0  0  0  0
 13 15  2  0  0  0  0
 13 16  1  0  0  0  0
 16 32  1  0  0  0  0
 16 33  1  0  0  0  0
 17 18  1  0  0  0  0
M  END
> <s_m_source_file>
AV-unprocessed.smi

> <i_m_source_file_index>
634

> <i_lp_mmshare_version>
43012

> <i_f3d_flags>
0

> <s_epik_input>
W0NIM11jMVtjSF1jKG5vMSlbTkhdQyg9TylbTkhdW0NAQF0yKFtDSDNdKVtDSDJdW0NIMl1TKD1PKSg9TylbQ0gyXTI=

> <s_epik_cmdline>
J2VwaWtfcHl0aG9uJywgJy1waCcsICc3LjAnLCAnLXRuJywgJzgnLCAnLW1hJywgJzIwMCcsICctbWV0YWxfYmluZGluZycsICctaW1hZScsICc8aW5maWxlLm1hZT4nLCAnLW9tYWUnLCAnPG91dGZpbGUubWFlPic=

> <r_lp_tautomer_probability>
1

> <r_epik_Ionization_Penalty>
3.87281e-05

> <r_epik_Ionization_Penalty_Charging>
0

> <r_epik_Ionization_Penalty_Neutral>
3.87281e-05

> <r_epik_State_Penalty>
-0

> <r_epik_Charging_Adjusted_Penalty>
0

> <i_epik_Tot_Q>
0

> <i_epik_Tot_abs_Q>
0

> <r_epik_Metal_State_Penalty>
0.0249287

> <b_epik_Metal_Only>
0

> <s_lp_Force_Field>
OPLS_2005

> <r_lp_Energy>
3.17223

> <b_lp_Chiralities_Consistent>
1

> <s_lp_Variant>
AV-unprocessed.smi:634-1

> <Gold.Version>
5.8.1

> <Gold.Id.Protein>
6NUR|6NUR_protein|mol2

> <Gold.PLP.Fitness>
38.6709

> <Gold.PLP.PLP>
-31.8668

> <Gold.PLP.part.hbond>
-7.0000

> <Gold.PLP.part.metal>
0.0000

> <Gold.PLP.part.buried>
3.0528

> <Gold.PLP.part.nonpolar>
-28.5867

> <Gold.PLP.part.repulsive>
0.3148

> <Gold.PLP.ligand.clash>
0.0000

> <Gold.PLP.ligand.torsion>
0.8557

> <Gold.PLP.Chemscore.Hbond>
2.8334

> <Gold.PLP.Chemscore.CHOScore>
0.0000

> <Gold.PLP.Chemscore.Metal>
0.0000

> <Gold.Chemscore.Hbonds>
donor molecule, donor type, donor heavy atom, donor atom, acceptor molecule, acceptor atom, score
      L1  H     5    23       P1  8029  0.96
      L1  H     8    24       P1  8029  0.62
      P1  H  6933  6945       L1    15  0.23
      P1  H  6934  6946       L1    17  1.00

> <Gold.PLP.Chemscore.Internal.Correction>
0.0151

> <Gold.Rescore>
     Score         DG    S(hbond)    S(metal)    S(lipo)     H(rot)  DE(clash)    DE(int)     intcor
     13.86     -18.72       2.32        0.00      68.73       1.00       1.63       3.23       ----

> <Gold.Chemscore.Fitness>
13.8556

> <Gold.Chemscore.DG>
-18.7224

> <Gold.Chemscore.ZeroCoef>
-5.4800

> <Gold.Chemscore.Hbond>
2.3238

> <Gold.Chemscore.Metal>
0.0000

> <Gold.Chemscore.Lipo>
68.7268

> <Gold.Chemscore.Internal_Hbond>
0.0000

> <Gold.Chemscore.DEClash>
1.6345

> <Gold.Chemscore.DEInternal>
3.2323

> <Gold.Chemscore.Rot>
1.0000

> <Gold.Chemscore.Internal.Correction>
   9.000000E+99

> <Gold.Chemscore.Hbonds>
donor molecule, donor type, donor heavy atom, donor atom, acceptor molecule, acceptor atom, score
      L1  H     5    23       P1  8029  0.89
      L1  H     8    24       P1  8029  0.05
      P1  H  6933  6945       L1    15  0.23
      P1  H  6934  6946       L1    17  0.22

> <Gold.Chemscore.Hbond.Weighted>
-7.7614

> <Gold.Chemscore.Metal.Weighted>
-0.0000

> <Gold.Chemscore.Lipo.Weighted>
-8.0410

> <Gold.Chemscore.Internal_Hbond.Weighted>
0.0000

> <Gold.Chemscore.DEClash.Weighted>
1.6345

> <Gold.Chemscore.DEInternal.Weighted>
3.2323

> <Gold.Chemscore.Rot.Weighted>
2.5600

> <Gold.Chemscore.Internal.Correction.Weighted>
   9.000000E+99

> <Gold.Protein.RotatedTorsions>
[ 6907 6896 6895 6894 ] final -101.34 input  -60.11 | X-H torsion
[ 7974 7965 7964 7962 ] final  -49.20 input  175.53 | X-H torsion
[ 8008 7997 7996 7995 ] final  146.41 input   59.86 | X-H torsion
[ 10167 10162 10161 10158 ] final -133.59 input  -65.29 | X-H torsion
[ 10718 10713 10712 10709 ] final -168.52 input   66.30 | X-H torsion
[ 10763 10752 10751 10750 ] final -136.37 input  -60.55 | X-H torsion
[ 11005 11000 10999 10996 ] final   86.62 input  -57.11 | X-H torsion

> <Gold.Protein.ActiveResidues>
 VAL166  LYS551  ARG553  GLY616  TRP617  ASP618  TYR619  PRO620  LYS621  CYS622 
 ASP623  PHE694  ASN695  SER759  ASP760  ASP761  ALA762  ILE779  LEU786  VAL792 
 PHE793  MET794  SER795  GLU796  ALA797  LYS798  CYS799  TRP800  GLU811  SER814 

> <Gold.Protein.RotatedAtoms>
  150.7151  134.0749  159.3877 H   0  0  0  0  0  0  0  0  0  0  0  0  # atno 6907 bound_to 6896
  151.8732  135.0479  160.0491 H   0  0  0  0  0  0  0  0  0  0  0  0  # atno 6908 bound_to 6896
  152.2626  133.5275  159.5427 H   0  0  0  0  0  0  0  0  0  0  0  0  # atno 6909 bound_to 6896
  145.9431  140.7643  142.9542 H   0  0  0  0  0  0  0  0  0  0  0  0  # atno 7974 bound_to 7965
  156.2856  140.2183  156.5373 H   0  0  0  0  0  0  0  0  0  0  0  0  # atno 8008 bound_to 7997
  154.7399  140.0488  157.0824 H   0  0  0  0  0  0  0  0  0  0  0  0  # atno 8009 bound_to 7997
  155.0244  140.3128  155.4784 H   0  0  0  0  0  0  0  0  0  0  0  0  # atno 8010 bound_to 7997
  139.8967  143.6657  152.2602 H   0  0  0  0  0  0  0  0  0  0  0  0  # atno 10167 bound_to 10162
  156.6981  130.9186  151.3077 H   0  0  0  0  0  0  0  0  0  0  0  0  # atno 10718 bound_to 10713
  154.8685  135.3674  154.5050 H   0  0  0  0  0  0  0  0  0  0  0  0  # atno 10763 bound_to 10752
  153.5688  135.7021  153.5519 H   0  0  0  0  0  0  0  0  0  0  0  0  # atno 10764 bound_to 10752
  153.3561  135.4059  155.1646 H   0  0  0  0  0  0  0  0  0  0  0  0  # atno 10765 bound_to 10752
  139.8940  134.8367  156.2746 H   0  0  0  0  0  0  0  0  0  0  0  0  # atno 11005 bound_to 11000
  144.6782  140.2312  143.7355 LP  0  0  0  0  0  0  0  0  0  0  0  0  # atno 17320 bound_to 7965
  145.8273  139.2070  143.1903 LP  0  0  0  0  0  0  0  0  0  0  0  0  # atno 17321 bound_to 7965
  139.7061  144.7627  151.1190 LP  0  0  0  0  0  0  0  0  0  0  0  0  # atno 17342 bound_to 10162
  140.7715  143.5392  150.9332 LP  0  0  0  0  0  0  0  0  0  0  0  0  # atno 17343 bound_to 10162
  157.6983  130.9306  150.0710 LP  0  0  0  0  0  0  0  0  0  0  0  0  # atno 17370 bound_to 10713
  156.1748  130.3648  149.9115 LP  0  0  0  0  0  0  0  0  0  0  0  0  # atno 17371 bound_to 10713
  141.0079  133.7113  156.1064 LP  0  0  0  0  0  0  0  0  0  0  0  0  # atno 17394 bound_to 11000
  140.7408  134.4152  157.5555 LP  0  0  0  0  0  0  0  0  0  0  0  0  # atno 17395 bound_to 11000

$$$$
