AV-unprocessed.smi:788|AV-procd|sdf|3737|dock9
  -GOLD-   22720 1173D 1   1.00000     0.00000
 Structure written by MMmdl.
 34 35  0  0  0  0  0  0  0  0  2 V2000
  151.9566  143.8617  158.0618 C   0  0  0  0  0  0  0  0  0  0  0  0
  152.0087  143.2025  159.4523 C   0  0  2  0  0  0  0  0  0  0  0  0
  151.8860  144.2693  160.5568 C   0  0  0  0  0  0  0  0  0  0  0  0
  151.9097  143.6409  161.9557 C   0  0  0  0  0  0  0  0  0  0  0  0
  153.1824  142.8100  162.1603 C   0  0  0  0  0  0  0  0  0  0  0  0
  153.3273  141.7196  161.0817 C   0  0  2  0  0  0  0  0  0  0  0  0
  154.6013  140.8899  161.3250 C   0  0  0  0  0  0  0  0  0  0  0  0
  153.2807  142.3391  159.6605 C   0  0  1  0  0  0  0  0  0  0  0  0
  153.3264  141.2702  158.6607 N   0  0  0  0  0  0  0  0  0  0  0  0
  152.3163  140.4623  158.2804 C   0  0  0  0  0  0  0  0  0  0  0  0
  151.2165  140.5814  158.8180 O   0  0  0  0  0  0  0  0  0  0  0  0
  152.5725  139.5463  157.3094 N   0  5  0  0  0  0  0  0  0  0  0  0
  151.8856  139.5063  156.1527 C   0  0  0  0  0  0  0  0  0  0  0  0
  151.2964  140.5923  155.6265 N   0  0  0  0  0  0  0  0  0  0  0  0
  150.6348  140.3303  154.4346 N   0  0  0  0  0  0  0  0  0  0  0  0
  150.7510  139.0492  154.0856 C   0  0  0  0  0  0  0  0  0  0  0  0
  151.6768  138.0459  155.1819 S   0  0  0  0  0  0  0  0  0  0  0  0
  152.8274  144.4955  157.8922 H   0  0  0  0  0  0  0  0  0  0  0  0
  151.0670  144.4828  157.9553 H   0  0  0  0  0  0  0  0  0  0  0  0
  151.9257  143.1195  157.2639 H   0  0  0  0  0  0  0  0  0  0  0  0
  151.1400  142.5468  159.5318 H   0  0  0  0  0  0  0  0  0  0  0  0
  152.7020  144.9879  160.4674 H   0  0  0  0  0  0  0  0  0  0  0  0
  150.9622  144.8345  160.4292 H   0  0  0  0  0  0  0  0  0  0  0  0
  151.8503  144.4214  162.7146 H   0  0  0  0  0  0  0  0  0  0  0  0
  151.0312  143.0088  162.0908 H   0  0  0  0  0  0  0  0  0  0  0  0
  154.0529  143.4670  162.1405 H   0  0  0  0  0  0  0  0  0  0  0  0
  153.1623  142.3550  163.1512 H   0  0  0  0  0  0  0  0  0  0  0  0
  152.4763  141.0439  161.1825 H   0  0  0  0  0  0  0  0  0  0  0  0
  155.4977  141.4971  161.1958 H   0  0  0  0  0  0  0  0  0  0  0  0
  154.6706  140.0455  160.6389 H   0  0  0  0  0  0  0  0  0  0  0  0
  154.6173  140.4834  162.3362 H   0  0  0  0  0  0  0  0  0  0  0  0
  154.1492  142.9917  159.5562 H   0  0  0  0  0  0  0  0  0  0  0  0
  154.2145  141.1320  158.2016 H   0  0  0  0  0  0  0  0  0  0  0  0
  150.2893  138.6930  153.1770 H   0  0  0  0  0  0  0  0  0  0  0  0
  1  2  1  0  0  0  0
  1 18  1  0  0  0  0
  1 19  1  0  0  0  0
  1 20  1  0  0  0  0
  2  8  1  0  0  0  0
  2  3  1  0  0  0  0
  2 21  1  0  0  0  0
  3  4  1  0  0  0  0
  3 22  1  0  0  0  0
  3 23  1  0  0  0  0
  4  5  1  0  0  0  0
  4 24  1  0  0  0  0
  4 25  1  0  0  0  0
  5  6  1  0  0  0  0
  5 26  1  0  0  0  0
  5 27  1  0  0  0  0
  6  7  1  0  0  0  0
  6  8  1  0  0  0  0
  6 28  1  0  0  0  0
  7 29  1  0  0  0  0
  7 30  1  0  0  0  0
  7 31  1  0  0  0  0
  8  9  1  0  0  0  0
  8 32  1  0  0  0  0
  9 10  1  0  0  0  0
  9 33  1  0  0  0  0
 10 11  2  0  0  0  0
 10 12  1  0  0  0  0
 12 13  1  0  0  0  0
 13 17  1  0  0  0  0
 13 14  2  0  0  0  0
 14 15  1  0  0  0  0
 15 16  2  0  0  0  0
 16 17  1  0  0  0  0
 16 34  1  0  0  0  0
M  CHG  1  12  -1
M  END
> <s_m_source_file>
AV-unprocessed.smi

> <i_m_source_file_index>
788

> <i_lp_mmshare_version>
43012

> <i_f3d_flags>
0

> <s_epik_input>
W0NIM11bQ0BASF0xW0NIMl1bQ0gyXVtDSDJdW0NAQEhdKFtDSDNdKVtDQEhdMVtOSF1DKD1PKVtOSF1jMm5uW2NIXXMy

> <s_epik_cmdline>
J2VwaWtfcHl0aG9uJywgJy1waCcsICc3LjAnLCAnLXRuJywgJzgnLCAnLW1hJywgJzIwMCcsICctbWV0YWxfYmluZGluZycsICctaW1hZScsICc8aW5maWxlLm1hZT4nLCAnLW9tYWUnLCAnPG91dGZpbGUubWFlPic=

> <r_lp_tautomer_probability>
1

> <r_epik_Ionization_Penalty>
4.58638

> <r_epik_Ionization_Penalty_Charging>
4.53816

> <r_epik_Ionization_Penalty_Neutral>
0.048215

> <r_epik_State_Penalty>
4.53788

> <r_epik_Charging_Adjusted_Penalty>
9.07605

> <i_epik_Tot_Q>
-1

> <i_epik_Tot_abs_Q>
1

> <r_epik_Metal_State_Penalty>
0.838628

> <b_epik_Metal_Only>
1

> <s_lp_Force_Field>
OPLS_2005

> <r_lp_Energy>
11.4954

> <b_lp_Chiralities_Consistent>
1

> <s_lp_Variant>
AV-unprocessed.smi:788-7

> <Gold.Version>
5.8.1

> <Gold.Id.Protein>
6NUR|6NUR_protein|mol2

> <Gold.PLP.Fitness>
46.6644

> <Gold.PLP.PLP>
-37.0662

> <Gold.PLP.part.hbond>
-2.7852

> <Gold.PLP.part.metal>
0.0000

> <Gold.PLP.part.buried>
1.3620

> <Gold.PLP.part.nonpolar>
-35.0223

> <Gold.PLP.part.repulsive>
0.7612

> <Gold.PLP.ligand.clash>
0.0000

> <Gold.PLP.ligand.torsion>
0.8973

> <Gold.PLP.Chemscore.Hbond>
2.8771

> <Gold.PLP.Chemscore.CHOScore>
0.9184

> <Gold.PLP.Chemscore.Metal>
0.0000

> <Gold.Chemscore.Hbonds>
donor molecule, donor type, donor heavy atom, donor atom, acceptor molecule, acceptor atom, score
      P1  H  7989  7998       L1    15  0.72
      P1  H  7997  8010       L1    12  2.00
      L1  C    16    34       P1  7957  0.97

> <Gold.PLP.Chemscore.Internal.Correction>
0.0063

> <Gold.Rescore>
     Score         DG    S(hbond)    S(metal)    S(lipo)     H(rot)  DE(clash)    DE(int)     intcor
     15.68     -18.17       0.91        0.00     104.48       1.00       0.12       2.37       ----

> <Gold.Chemscore.Fitness>
15.6810

> <Gold.Chemscore.DG>
-18.1744

> <Gold.Chemscore.ZeroCoef>
-5.4800

> <Gold.Chemscore.Hbond>
0.9072

> <Gold.Chemscore.Metal>
0.0000

> <Gold.Chemscore.Lipo>
104.4804

> <Gold.Chemscore.Internal_Hbond>
0.0000

> <Gold.Chemscore.DEClash>
0.1249

> <Gold.Chemscore.DEInternal>
2.3684

> <Gold.Chemscore.Rot>
1.0000

> <Gold.Chemscore.Internal.Correction>
   9.000000E+99

> <Gold.Chemscore.Hbonds>
donor molecule, donor type, donor heavy atom, donor atom, acceptor molecule, acceptor atom, score
      P1  H  7989  7998       L1    15  0.03
      P1  H  7997  8010       L1    12  0.12

> <Gold.Chemscore.Hbond.Weighted>
-3.0302

> <Gold.Chemscore.Metal.Weighted>
-0.0000

> <Gold.Chemscore.Lipo.Weighted>
-12.2242

> <Gold.Chemscore.Internal_Hbond.Weighted>
0.0000

> <Gold.Chemscore.DEClash.Weighted>
0.1249

> <Gold.Chemscore.DEInternal.Weighted>
2.3684

> <Gold.Chemscore.Rot.Weighted>
2.5600

> <Gold.Chemscore.Internal.Correction.Weighted>
   9.000000E+99

> <Gold.Protein.RotatedTorsions>
[ 6907 6896 6895 6894 ] final -161.42 input  -60.11 | X-H torsion
[ 7974 7965 7964 7962 ] final  -74.10 input  175.53 | X-H torsion
[ 8008 7997 7996 7995 ] final   58.17 input   59.86 | X-H torsion
[ 10167 10162 10161 10158 ] final    7.00 input  -65.29 | X-H torsion
[ 10718 10713 10712 10709 ] final  102.04 input   66.30 | X-H torsion
[ 10763 10752 10751 10750 ] final  122.63 input  -60.55 | X-H torsion
[ 11005 11000 10999 10996 ] final  153.30 input  -57.11 | X-H torsion

> <Gold.Protein.ActiveResidues>
 VAL166  LYS551  ARG553  GLY616  TRP617  ASP618  TYR619  PRO620  LYS621  CYS622 
 ASP623  PHE694  ASN695  SER759  ASP760  ASP761  ALA762  ILE779  LEU786  VAL792 
 PHE793  MET794  SER795  GLU796  ALA797  LYS798  CYS799  TRP800  GLU811  SER814 

> <Gold.Protein.RotatedAtoms>
  151.3644  133.3878  159.2692 H   0  0  0  0  0  0  0  0  0  0  0  0  # atno 6907 bound_to 6896
  150.9700  134.9076  159.7793 H   0  0  0  0  0  0  0  0  0  0  0  0  # atno 6908 bound_to 6896
  152.5181  134.3605  159.9335 H   0  0  0  0  0  0  0  0  0  0  0  0  # atno 6909 bound_to 6896
  145.6435  140.9304  143.1023 H   0  0  0  0  0  0  0  0  0  0  0  0  # atno 7974 bound_to 7965
  155.5457  140.3485  155.4457 H   0  0  0  0  0  0  0  0  0  0  0  0  # atno 8008 bound_to 7997
  156.0620  140.1342  156.9956 H   0  0  0  0  0  0  0  0  0  0  0  0  # atno 8009 bound_to 7997
  154.4484  140.0983  156.6515 H   0  0  0  0  0  0  0  0  0  0  0  0  # atno 8010 bound_to 7997
  140.6396  143.7805  150.7409 H   0  0  0  0  0  0  0  0  0  0  0  0  # atno 10167 bound_to 10162
  157.6813  131.0742  150.5343 H   0  0  0  0  0  0  0  0  0  0  0  0  # atno 10718 bound_to 10713
  153.6328  135.3393  155.3047 H   0  0  0  0  0  0  0  0  0  0  0  0  # atno 10763 bound_to 10752
  154.8576  135.4299  154.2087 H   0  0  0  0  0  0  0  0  0  0  0  0  # atno 10764 bound_to 10752
  153.2987  135.7023  153.7297 H   0  0  0  0  0  0  0  0  0  0  0  0  # atno 10765 bound_to 10752
  140.1385  134.8755  157.2299 H   0  0  0  0  0  0  0  0  0  0  0  0  # atno 11005 bound_to 11000
  144.7149  139.8235  143.7402 LP  0  0  0  0  0  0  0  0  0  0  0  0  # atno 17320 bound_to 7965
  146.1262  139.4288  143.0197 LP  0  0  0  0  0  0  0  0  0  0  0  0  # atno 17321 bound_to 7965
  140.1434  143.4421  152.2179 LP  0  0  0  0  0  0  0  0  0  0  0  0  # atno 17342 bound_to 10162
  139.5605  144.7402  151.4168 LP  0  0  0  0  0  0  0  0  0  0  0  0  # atno 17343 bound_to 10162
  156.5652  130.4266  149.6044 LP  0  0  0  0  0  0  0  0  0  0  0  0  # atno 17370 bound_to 10713
  156.2787  130.7058  151.1876 LP  0  0  0  0  0  0  0  0  0  0  0  0  # atno 17371 bound_to 10713
  140.2752  134.3414  155.7360 LP  0  0  0  0  0  0  0  0  0  0  0  0  # atno 17394 bound_to 11000
  141.2182  133.7446  156.9282 LP  0  0  0  0  0  0  0  0  0  0  0  0  # atno 17395 bound_to 11000

$$$$
