AV-unprocessed.smi:72|AV-procd|sdf|684|dock3
  -GOLD-   2262016593D 1   1.00000     0.00000
 Structure written by MMmdl.
 29 30  0  0  0  0  0  0  0  0  1 V2000
  145.2961  142.5836  154.3838 N   0  0  0  0  0  0  0  0  0  0  0  0
  146.3332  141.8263  154.3427 C   0  0  0  0  0  0  0  0  0  0  0  0
  147.5380  142.0614  155.0210 N   0  0  0  0  0  0  0  0  0  0  0  0
  148.5094  141.2141  154.8728 C   0  0  0  0  0  0  0  0  0  0  0  0
  148.4008  140.0416  154.0191 N   0  0  0  0  0  0  0  0  0  0  0  0
  149.5851  139.0915  153.9293 C   0  0  1  0  0  0  0  0  0  0  0  0
  150.6900  139.6427  154.5860 O   0  0  0  0  0  0  0  0  0  0  0  0
  151.1587  138.7645  155.6103 C   0  0  2  0  0  0  0  0  0  0  0  0
  152.6785  138.9084  155.8084 C   0  0  0  0  0  0  0  0  0  0  0  0
  153.2528  139.5831  154.7096 O   0  0  0  0  0  0  0  0  0  0  0  0
  150.6738  137.3732  155.1747 C   0  0  2  0  0  0  0  0  0  0  0  0
  151.5822  136.7746  154.2670 O   0  0  0  0  0  0  0  0  0  0  0  0
  149.3545  137.6633  154.4735 C   0  0  1  0  0  0  0  0  0  0  0  0
  148.2634  137.5322  155.3647 O   0  0  0  0  0  0  0  0  0  0  0  0
  147.1726  139.7711  153.3576 C   0  0  0  0  0  0  0  0  0  0  0  0
  146.9928  138.7790  152.6552 O   0  0  0  0  0  0  0  0  0  0  0  0
  146.1962  140.6857  153.5429 N   0  0  0  0  0  0  0  0  0  0  0  0
  149.8551  139.0620  152.8728 H   0  0  0  0  0  0  0  0  0  0  0  0
  150.6504  139.0068  156.5436 H   0  0  0  0  0  0  0  0  0  0  0  0
  150.5573  136.6992  156.0246 H   0  0  0  0  0  0  0  0  0  0  0  0
  149.1742  136.9848  153.6384 H   0  0  0  0  0  0  0  0  0  0  0  0
  145.4721  143.3812  154.9779 H   0  0  0  0  0  0  0  0  0  0  0  0
  149.4706  141.3315  155.3752 H   0  0  0  0  0  0  0  0  0  0  0  0
  152.8868  139.5051  156.6970 H   0  0  0  0  0  0  0  0  0  0  0  0
  153.1562  137.9378  155.9464 H   0  0  0  0  0  0  0  0  0  0  0  0
  152.7684  139.3565  153.9305 H   0  0  0  0  0  0  0  0  0  0  0  0
  151.1533  136.6826  153.4300 H   0  0  0  0  0  0  0  0  0  0  0  0
  148.1324  136.6145  155.5461 H   0  0  0  0  0  0  0  0  0  0  0  0
  145.3136  140.5275  153.0791 H   0  0  0  0  0  0  0  0  0  0  0  0
  1  2  2  0  0  0  0
  1 22  1  0  0  0  0
  2 17  1  0  0  0  0
  2  3  1  0  0  0  0
  3  4  2  0  0  0  0
  4  5  1  0  0  0  0
  4 23  1  0  0  0  0
  5  6  1  0  0  0  0
  5 15  1  0  0  0  0
  6 18  1  0  0  0  0
  6 13  1  0  0  0  0
  6  7  1  0  0  0  0
  7  8  1  0  0  0  0
  8 19  1  0  0  0  0
  8  9  1  0  0  0  0
  8 11  1  0  0  0  0
  9 10  1  0  0  0  0
  9 24  1  0  0  0  0
  9 25  1  0  0  0  0
 10 26  1  0  0  0  0
 11 20  1  0  0  0  0
 11 12  1  0  0  0  0
 11 13  1  0  0  0  0
 12 27  1  0  0  0  0
 13 21  1  0  0  0  0
 13 14  1  0  0  0  0
 14 28  1  0  0  0  0
 15 16  2  0  0  0  0
 15 17  1  0  0  0  0
 17 29  1  0  0  0  0
M  END
> <s_m_source_file>
AV-unprocessed.smi

> <i_m_source_file_index>
72

> <i_lp_mmshare_version>
43012

> <i_f3d_flags>
0

> <s_epik_input>
W05IMl1jMW5bY0hdbihjKD1PKW4xKVtDQEBIXTJPW0NASF0oW0NIMl1bT0hdKVtDQEBIXShbT0hdKVtDQEhdMltPSF0=

> <s_epik_cmdline>
J2VwaWtfcHl0aG9uJywgJy1waCcsICc3LjAnLCAnLXRuJywgJzgnLCAnLW1hJywgJzIwMCcsICctbWV0YWxfYmluZGluZycsICctaW1hZScsICc8aW5maWxlLm1hZT4nLCAnLW9tYWUnLCAnPG91dGZpbGUubWFlPic=

> <r_lp_tautomer_probability>
7.17554e-07

> <r_epik_Ionization_Penalty>
0.0066451

> <r_epik_Ionization_Penalty_Charging>
0.00663793

> <r_epik_Ionization_Penalty_Neutral>
7.17052e-06

> <r_epik_State_Penalty>
0.419231

> <r_epik_Charging_Adjusted_Penalty>
0.425868

> <i_epik_Tot_Q>
0

> <i_epik_Tot_abs_Q>
0

> <r_epik_Metal_State_Penalty>
1.44144

> <b_epik_Metal_Only>
0

> <s_epik_Chemistry_Notes>
This compound contains an acetal/aminal-like group ( X-CH(R)-Y where X, Y are N, S, or O) that may be acid/base labile, releasing an aldehyde.

> <s_lp_Force_Field>
OPLS_2005

> <r_lp_Energy>
43.3095

> <b_lp_Chiralities_Consistent>
1

> <s_lp_Variant>
AV-unprocessed.smi:72-22

> <Gold.Version>
5.8.1

> <Gold.Id.Protein>
6NUR|6NUR_protein|mol2

> <Gold.PLP.Fitness>
37.1031

> <Gold.PLP.PLP>
-23.4417

> <Gold.PLP.part.hbond>
-6.3374

> <Gold.PLP.part.metal>
0.0000

> <Gold.PLP.part.buried>
0.4238

> <Gold.PLP.part.nonpolar>
-18.7674

> <Gold.PLP.part.repulsive>
1.1448

> <Gold.PLP.ligand.clash>
0.0000

> <Gold.PLP.ligand.torsion>
0.6720

> <Gold.PLP.Chemscore.Hbond>
4.9920

> <Gold.PLP.Chemscore.CHOScore>
0.0000

> <Gold.PLP.Chemscore.Metal>
0.0000

> <Gold.Chemscore.Hbonds>
donor molecule, donor type, donor heavy atom, donor atom, acceptor molecule, acceptor atom, score
      L1  H    12    27       P1  7949  0.92
      L1  H    17    29       P1 10175  1.00
      P1  H  7989  7998       L1     7  1.00
      P1  H  7997  8008       L1    10  0.90
      P1  H 10752 10763       L1    12  1.00

> <Gold.PLP.Chemscore.Internal.Correction>
0.0295

> <Gold.Rescore>
     Score         DG    S(hbond)    S(metal)    S(lipo)     H(rot)  DE(clash)    DE(int)     intcor
      7.97     -10.63       3.81        0.00      24.08       4.06       1.90       0.76       ----

> <Gold.Chemscore.Fitness>
7.9654

> <Gold.Chemscore.DG>
-10.6280

> <Gold.Chemscore.ZeroCoef>
-5.4800

> <Gold.Chemscore.Hbond>
3.8097

> <Gold.Chemscore.Metal>
0.0000

> <Gold.Chemscore.Lipo>
24.0781

> <Gold.Chemscore.Internal_Hbond>
0.0000

> <Gold.Chemscore.DEClash>
1.9008

> <Gold.Chemscore.DEInternal>
0.7618

> <Gold.Chemscore.Rot>
4.0600

> <Gold.Chemscore.Internal.Correction>
   9.000000E+99

> <Gold.Chemscore.Hbonds>
donor molecule, donor type, donor heavy atom, donor atom, acceptor molecule, acceptor atom, score
      L1  H    12    27       P1  7949  0.37
      L1  H    17    29       P1 10175  0.91
      P1  H  7989  7998       L1     7  0.82
      P1  H  7997  8008       L1    10  0.17
      P1  H 10752 10763       L1    12  0.45

> <Gold.Chemscore.Hbond.Weighted>
-12.7245

> <Gold.Chemscore.Metal.Weighted>
-0.0000

> <Gold.Chemscore.Lipo.Weighted>
-2.8171

> <Gold.Chemscore.Internal_Hbond.Weighted>
0.0000

> <Gold.Chemscore.DEClash.Weighted>
1.9008

> <Gold.Chemscore.DEInternal.Weighted>
0.7618

> <Gold.Chemscore.Rot.Weighted>
10.3936

> <Gold.Chemscore.Internal.Correction.Weighted>
   9.000000E+99

> <Gold.Protein.RotatedTorsions>
[ 6907 6896 6895 6894 ] final   -8.44 input  -60.11 | X-H torsion
[ 7974 7965 7964 7962 ] final  -31.19 input  175.53 | X-H torsion
[ 8008 7997 7996 7995 ] final   10.10 input   59.86 | X-H torsion
[ 10167 10162 10161 10158 ] final   11.40 input  -65.29 | X-H torsion
[ 10718 10713 10712 10709 ] final -169.34 input   66.30 | X-H torsion
[ 10763 10752 10751 10750 ] final   32.96 input  -60.55 | X-H torsion
[ 11005 11000 10999 10996 ] final -130.09 input  -57.11 | X-H torsion

> <Gold.Protein.ActiveResidues>
 VAL166  LYS551  ARG553  GLY616  TRP617  ASP618  TYR619  PRO620  LYS621  CYS622 
 ASP623  PHE694  ASN695  SER759  ASP760  ASP761  ALA762  ILE779  LEU786  VAL792 
 PHE793  MET794  SER795  GLU796  ALA797  LYS798  CYS799  TRP800  GLU811  SER814 

> <Gold.Protein.RotatedAtoms>
  151.4337  135.1012  159.9649 H   0  0  0  0  0  0  0  0  0  0  0  0  # atno 6907 bound_to 6896
  152.4947  133.8593  159.7252 H   0  0  0  0  0  0  0  0  0  0  0  0  # atno 6908 bound_to 6896
  150.9137  133.6907  159.2876 H   0  0  0  0  0  0  0  0  0  0  0  0  # atno 6909 bound_to 6896
  146.1086  140.5636  142.8788 H   0  0  0  0  0  0  0  0  0  0  0  0  # atno 7974 bound_to 7965
  154.7888  140.2832  155.6007 H   0  0  0  0  0  0  0  0  0  0  0  0  # atno 8008 bound_to 7997
  156.2961  140.2609  156.2659 H   0  0  0  0  0  0  0  0  0  0  0  0  # atno 8009 bound_to 7997
  154.9695  140.0376  157.2217 H   0  0  0  0  0  0  0  0  0  0  0  0  # atno 8010 bound_to 7997
  140.6134  143.8360  150.7091 H   0  0  0  0  0  0  0  0  0  0  0  0  # atno 10167 bound_to 10162
  156.7101  130.9230  151.3088 H   0  0  0  0  0  0  0  0  0  0  0  0  # atno 10718 bound_to 10713
  153.0236  135.6399  154.1436 H   0  0  0  0  0  0  0  0  0  0  0  0  # atno 10763 bound_to 10752
  154.1168  135.2849  155.3219 H   0  0  0  0  0  0  0  0  0  0  0  0  # atno 10764 bound_to 10752
  154.6292  135.5498  153.7724 H   0  0  0  0  0  0  0  0  0  0  0  0  # atno 10765 bound_to 10752
  140.9376  134.1236  157.4180 H   0  0  0  0  0  0  0  0  0  0  0  0  # atno 11005 bound_to 11000
  144.7492  140.5147  143.6814 LP  0  0  0  0  0  0  0  0  0  0  0  0  # atno 17320 bound_to 7965
  145.5710  139.1483  143.3288 LP  0  0  0  0  0  0  0  0  0  0  0  0  # atno 17321 bound_to 7965
  140.1933  143.4018  152.1847 LP  0  0  0  0  0  0  0  0  0  0  0  0  # atno 17342 bound_to 10162
  139.5379  144.7228  151.4831 LP  0  0  0  0  0  0  0  0  0  0  0  0  # atno 17343 bound_to 10162
  157.6939  130.9262  150.0591 LP  0  0  0  0  0  0  0  0  0  0  0  0  # atno 17370 bound_to 10713
  156.1667  130.3645  149.9222 LP  0  0  0  0  0  0  0  0  0  0  0  0  # atno 17371 bound_to 10713
  139.8812  135.0026  156.6136 LP  0  0  0  0  0  0  0  0  0  0  0  0  # atno 17394 bound_to 11000
  140.7778  133.8685  155.8543 LP  0  0  0  0  0  0  0  0  0  0  0  0  # atno 17395 bound_to 11000

$$$$
