AV-unprocessed.smi:1056|AV-procd|sdf|4643|dock10
  -GOLD-   22720 3153D 1   1.00000     0.00000
 Structure written by MMmdl.
 44 46  0  0  0  0  0  0  0  0  3 V2000
  152.5837  143.2418  161.5900 C   0  0  0  0  0  0  0  0  0  0  0  0
  152.1955  142.6501  160.2464 C   0  0  0  0  0  0  0  0  0  0  0  0
  152.7588  141.4160  159.8508 C   0  0  0  0  0  0  0  0  0  0  0  0
  152.4241  140.8317  158.6098 C   0  0  0  0  0  0  0  0  0  0  0  0
  152.8497  139.6501  158.0276 N   0  0  0  0  0  0  0  0  0  0  0  0
  152.1834  139.6618  156.8769 C   0  0  0  0  0  0  0  0  0  0  0  0
  151.3803  140.7171  156.6413 N   0  0  0  0  0  0  0  0  0  0  0  0
  150.5626  140.9538  155.4652 C   0  0  0  0  0  0  0  0  0  0  0  0
  149.3440  140.0143  155.4012 C   0  0  1  0  0  0  0  0  0  0  0  0
  148.1592  140.7871  155.3870 O   0  0  0  0  0  0  0  0  0  0  0  0
  149.3705  139.1265  154.1421 C   0  0  0  0  0  0  0  0  0  0  0  0
  149.4386  137.6817  154.4745 N   0  3  2  0  0  0  0  0  0  0  0  0
  148.1625  137.1306  155.0013 C   0  0  0  0  0  0  0  0  0  0  0  0
  148.2160  135.5914  155.0195 C   0  0  0  0  0  0  0  0  0  0  0  0
  149.4699  135.1338  155.6305 N   0  5  0  0  0  0  0  0  0  0  0  0
  150.6360  135.8465  155.7254 C   0  0  0  0  0  0  0  0  0  0  0  0
  151.7130  135.4020  156.1158 O   0  0  0  0  0  0  0  0  0  0  0  0
  150.5894  137.3555  155.3614 C   0  0  0  0  0  0  0  0  0  0  0  0
  151.5033  141.5218  157.7685 C   0  0  0  0  0  0  0  0  0  0  0  0
  150.9353  142.7498  158.1508 C   0  0  0  0  0  0  0  0  0  0  0  0
  151.2811  143.3197  159.3941 C   0  0  0  0  0  0  0  0  0  0  0  0
  150.6643  144.6471  159.7980 C   0  0  0  0  0  0  0  0  0  0  0  0
  153.2858  142.5982  162.1210 H   0  0  0  0  0  0  0  0  0  0  0  0
  151.7036  143.3681  162.2210 H   0  0  0  0  0  0  0  0  0  0  0  0
  153.0574  144.2145  161.4564 H   0  0  0  0  0  0  0  0  0  0  0  0
  153.4551  140.9057  160.5000 H   0  0  0  0  0  0  0  0  0  0  0  0
  152.2897  138.8595  156.1613 H   0  0  0  0  0  0  0  0  0  0  0  0
  150.2434  141.9972  155.4625 H   0  0  0  0  0  0  0  0  0  0  0  0
  151.1910  140.8167  154.5844 H   0  0  0  0  0  0  0  0  0  0  0  0
  149.3329  139.3981  156.2995 H   0  0  0  0  0  0  0  0  0  0  0  0
  148.0503  141.1861  156.2371 H   0  0  0  0  0  0  0  0  0  0  0  0
  148.4747  139.3306  153.5532 H   0  0  0  0  0  0  0  0  0  0  0  0
  150.2177  139.3846  153.5048 H   0  0  0  0  0  0  0  0  0  0  0  0
  147.9879  137.5175  156.0067 H   0  0  0  0  0  0  0  0  0  0  0  0
  147.3155  137.4480  154.3946 H   0  0  0  0  0  0  0  0  0  0  0  0
  147.3420  135.2067  155.5444 H   0  0  0  0  0  0  0  0  0  0  0  0
  148.1311  135.2288  153.9949 H   0  0  0  0  0  0  0  0  0  0  0  0
  151.5214  137.6309  154.8657 H   0  0  0  0  0  0  0  0  0  0  0  0
  150.5255  137.9364  156.2828 H   0  0  0  0  0  0  0  0  0  0  0  0
  150.2400  143.2491  157.4924 H   0  0  0  0  0  0  0  0  0  0  0  0
  149.9910  145.0241  159.0278 H   0  0  0  0  0  0  0  0  0  0  0  0
  151.4405  145.3954  159.9595 H   0  0  0  0  0  0  0  0  0  0  0  0
  150.0916  144.5375  160.7191 H   0  0  0  0  0  0  0  0  0  0  0  0
  149.6190  137.1964  153.6072 H   0  0  0  0  0  0  0  0  0  0  0  0
  1  2  1  0  0  0  0
  1 23  1  0  0  0  0
  1 24  1  0  0  0  0
  1 25  1  0  0  0  0
  2 21  1  0  0  0  0
  2  3  2  0  0  0  0
  3  4  1  0  0  0  0
  3 26  1  0  0  0  0
  4 19  2  0  0  0  0
  4  5  1  0  0  0  0
  5  6  2  0  0  0  0
  6  7  1  0  0  0  0
  6 27  1  0  0  0  0
  7  8  1  0  0  0  0
  7 19  1  0  0  0  0
  8  9  1  0  0  0  0
  8 28  1  0  0  0  0
  8 29  1  0  0  0  0
  9 10  1  0  0  0  0
  9 11  1  0  0  0  0
  9 30  1  0  0  0  0
 10 31  1  0  0  0  0
 11 12  1  0  0  0  0
 11 32  1  0  0  0  0
 11 33  1  0  0  0  0
 12 18  1  0  0  0  0
 12 13  1  0  0  0  0
 12 44  1  0  0  0  0
 13 14  1  0  0  0  0
 13 34  1  0  0  0  0
 13 35  1  0  0  0  0
 14 15  1  0  0  0  0
 14 36  1  0  0  0  0
 14 37  1  0  0  0  0
 15 16  1  0  0  0  0
 16 17  2  0  0  0  0
 16 18  1  0  0  0  0
 18 38  1  0  0  0  0
 18 39  1  0  0  0  0
 19 20  1  0  0  0  0
 20 21  2  0  0  0  0
 20 40  1  0  0  0  0
 21 22  1  0  0  0  0
 22 41  1  0  0  0  0
 22 42  1  0  0  0  0
 22 43  1  0  0  0  0
M  CHG  1  12   1
M  CHG  1  15  -1
M  END
> <s_m_source_file>
AV-unprocessed.smi

> <i_m_source_file_index>
1056

> <i_lp_mmshare_version>
43012

> <i_f3d_flags>
0

> <s_epik_input>
W0NIM11jKFtjSF0xKWMoW0NIM10pW2NIXWMoYzEyKW4oW2NIXW4yKVtDSDJdW0NASF0oW09IXSlbQ0gyXU4zW0NIMl1bQ0gyXVtOSF1DKD1PKVtDSDJdMw==

> <s_epik_cmdline>
J2VwaWtfcHl0aG9uJywgJy1waCcsICc3LjAnLCAnLXRuJywgJzgnLCAnLW1hJywgJzIwMCcsICctbWV0YWxfYmluZGluZycsICctaW1hZScsICc8aW5maWxlLm1hZT4nLCAnLW9tYWUnLCAnPG91dGZpbGUubWFlPic=

> <r_epik_Ionization_Penalty>
5.13411

> <r_epik_Ionization_Penalty_Charging>
5.04792

> <r_epik_Ionization_Penalty_Neutral>
0.0861879

> <r_epik_State_Penalty>
5.18224

> <r_epik_Charging_Adjusted_Penalty>
10.2302

> <i_epik_Tot_Q>
0

> <i_epik_Tot_abs_Q>
2

> <r_epik_Metal_State_Penalty>
1.33873

> <b_epik_Metal_Only>
1

> <s_lp_Force_Field>
OPLS_2005

> <r_lp_Energy>
15.7703

> <b_lp_Chiralities_Consistent>
1

> <s_lp_Variant>
AV-unprocessed.smi:1056-14

> <Gold.Version>
5.8.1

> <Gold.Id.Protein>
6NUR|6NUR_protein|mol2

> <Gold.PLP.Fitness>
45.5038

> <Gold.PLP.PLP>
-36.9760

> <Gold.PLP.part.hbond>
-3.0000

> <Gold.PLP.part.metal>
0.0000

> <Gold.PLP.part.buried>
-2.2068

> <Gold.PLP.part.nonpolar>
-31.1186

> <Gold.PLP.part.repulsive>
0.1071

> <Gold.PLP.ligand.clash>
0.0000

> <Gold.PLP.ligand.torsion>
1.6796

> <Gold.PLP.Chemscore.Hbond>
3.9424

> <Gold.PLP.Chemscore.CHOScore>
0.0000

> <Gold.PLP.Chemscore.Metal>
0.0000

> <Gold.Chemscore.Hbonds>
donor molecule, donor type, donor heavy atom, donor atom, acceptor molecule, acceptor atom, score
      L1  H    12    44       P1  7948  1.79
      P1  H  7997  8008       L1     5  0.57
      P1  H 10752 10764       L1    17  1.00

> <Gold.PLP.Chemscore.Internal.Correction>
0.0599

> <Gold.Rescore>
     Score         DG    S(hbond)    S(metal)    S(lipo)     H(rot)  DE(clash)    DE(int)     intcor
     16.66     -18.45       1.87        0.00     108.05       2.31       0.24       1.54       ----

> <Gold.Chemscore.Fitness>
16.6619

> <Gold.Chemscore.DG>
-18.4454

> <Gold.Chemscore.ZeroCoef>
-5.4800

> <Gold.Chemscore.Hbond>
1.8710

> <Gold.Chemscore.Metal>
0.0000

> <Gold.Chemscore.Lipo>
108.0496

> <Gold.Chemscore.Internal_Hbond>
0.0000

> <Gold.Chemscore.DEClash>
0.2418

> <Gold.Chemscore.DEInternal>
1.5417

> <Gold.Chemscore.Rot>
2.3147

> <Gold.Chemscore.Internal.Correction>
   9.000000E+99

> <Gold.Chemscore.Hbonds>
donor molecule, donor type, donor heavy atom, donor atom, acceptor molecule, acceptor atom, score
      L1  H    12    44       P1  7948  0.69
      P1  H  7997  8008       L1     5  0.04
      P1  H 10752 10764       L1    17  0.87

> <Gold.Chemscore.Hbond.Weighted>
-6.2492

> <Gold.Chemscore.Metal.Weighted>
-0.0000

> <Gold.Chemscore.Lipo.Weighted>
-12.6418

> <Gold.Chemscore.Internal_Hbond.Weighted>
0.0000

> <Gold.Chemscore.DEClash.Weighted>
0.2418

> <Gold.Chemscore.DEInternal.Weighted>
1.5417

> <Gold.Chemscore.Rot.Weighted>
5.9256

> <Gold.Chemscore.Internal.Correction.Weighted>
   9.000000E+99

> <Gold.Protein.RotatedTorsions>
[ 6907 6896 6895 6894 ] final  -56.27 input  -60.11 | X-H torsion
[ 7974 7965 7964 7962 ] final  144.22 input  175.53 | X-H torsion
[ 8008 7997 7996 7995 ] final  -98.12 input   59.86 | X-H torsion
[ 10167 10162 10161 10158 ] final  168.28 input  -65.29 | X-H torsion
[ 10718 10713 10712 10709 ] final  107.81 input   66.30 | X-H torsion
[ 10763 10752 10751 10750 ] final  -41.06 input  -60.55 | X-H torsion
[ 11005 11000 10999 10996 ] final  -13.31 input  -57.11 | X-H torsion

> <Gold.Protein.ActiveResidues>
 VAL166  LYS551  ARG553  GLY616  TRP617  ASP618  TYR619  PRO620  LYS621  CYS622 
 ASP623  PHE694  ASN695  SER759  ASP760  ASP761  ALA762  ILE779  LEU786  VAL792 
 PHE793  MET794  SER795  GLU796  ALA797  LYS798  CYS799  TRP800  GLU811  SER814 

> <Gold.Protein.RotatedAtoms>
  150.8182  134.7375  159.6748 H   0  0  0  0  0  0  0  0  0  0  0  0  # atno 6907 bound_to 6896
  152.4299  134.5794  159.9953 H   0  0  0  0  0  0  0  0  0  0  0  0  # atno 6908 bound_to 6896
  151.5985  133.3321  159.3078 H   0  0  0  0  0  0  0  0  0  0  0  0  # atno 6909 bound_to 6896
  144.8854  139.5636  143.5823 H   0  0  0  0  0  0  0  0  0  0  0  0  # atno 7974 bound_to 7965
  154.7969  140.0457  157.1243 H   0  0  0  0  0  0  0  0  0  0  0  0  # atno 8008 bound_to 7997
  154.9524  140.3067  155.5049 H   0  0  0  0  0  0  0  0  0  0  0  0  # atno 8009 bound_to 7997
  156.2957  140.2285  156.4603 H   0  0  0  0  0  0  0  0  0  0  0  0  # atno 8010 bound_to 7997
  139.4964  144.3832  151.9599 H   0  0  0  0  0  0  0  0  0  0  0  0  # atno 10167 bound_to 10162
  157.6613  131.0880  150.6212 H   0  0  0  0  0  0  0  0  0  0  0  0  # atno 10718 bound_to 10713
  153.9563  135.6745  153.4744 H   0  0  0  0  0  0  0  0  0  0  0  0  # atno 10763 bound_to 10752
  153.0860  135.4899  154.8594 H   0  0  0  0  0  0  0  0  0  0  0  0  # atno 10764 bound_to 10752
  154.7298  135.3135  154.8871 H   0  0  0  0  0  0  0  0  0  0  0  0  # atno 10765 bound_to 10752
  140.7748  133.8409  155.9239 H   0  0  0  0  0  0  0  0  0  0  0  0  # atno 11005 bound_to 11000
  146.3021  139.7460  142.9083 LP  0  0  0  0  0  0  0  0  0  0  0  0  # atno 17320 bound_to 7965
  145.3878  141.0368  143.3141 LP  0  0  0  0  0  0  0  0  0  0  0  0  # atno 17321 bound_to 7965
  140.3268  144.3363  150.5996 LP  0  0  0  0  0  0  0  0  0  0  0  0  # atno 17342 bound_to 10162
  140.5677  143.2184  151.7654 LP  0  0  0  0  0  0  0  0  0  0  0  0  # atno 17343 bound_to 10162
  156.6515  130.4486  149.5718 LP  0  0  0  0  0  0  0  0  0  0  0  0  # atno 17370 bound_to 10713
  156.2134  130.6693  151.1293 LP  0  0  0  0  0  0  0  0  0  0  0  0  # atno 17371 bound_to 10713
  140.9539  134.1743  157.4706 LP  0  0  0  0  0  0  0  0  0  0  0  0  # atno 17394 bound_to 11000
  139.8750  134.9919  156.5573 LP  0  0  0  0  0  0  0  0  0  0  0  0  # atno 17395 bound_to 11000

$$$$
