AV-unprocessed.smi:3231|AV-procd|sdf|12335|dock9
  -GOLD-   2272018193D 1   1.00000     0.00000
 Structure written by MMmdl.
 42 43  0  0  0  0  0  0  0  0  3 V2000
  147.2028  138.3768  151.0982 O   0  0  0  0  0  0  0  0  0  0  0  0
  146.5002  138.5332  152.3163 C   0  0  2  0  0  0  0  0  0  0  0  0
  147.5283  138.5103  153.4623 C   0  0  0  0  0  0  0  0  0  0  0  0
  148.4368  139.6736  153.3989 N   0  3  0  0  0  0  0  0  0  0  0  0
  149.3892  139.7557  154.5231 C   0  0  0  0  0  0  0  0  0  0  0  0
  149.7411  141.2164  154.8407 C   0  0  0  0  0  0  0  0  0  0  0  0
  150.5731  141.3255  156.0234 N   0  0  0  0  0  0  0  0  0  0  0  0
  151.0462  142.4649  156.6401 C   0  0  0  0  0  0  0  0  0  0  0  0
  151.7908  142.0660  157.7130 C   0  0  0  0  0  0  0  0  0  0  0  0
  151.7159  140.6456  157.6677 C   0  0  0  0  0  0  0  0  0  0  0  0
  150.9870  140.2055  156.6545 N   0  0  0  0  0  0  0  0  0  0  0  0
  145.4765  137.3845  152.4515 C   0  0  0  0  0  0  0  0  0  0  0  0
  146.0685  136.0354  152.2510 N   0  3  0  0  0  0  0  0  0  0  0  0
  146.1372  135.2613  153.5143 C   0  0  0  0  0  0  0  0  0  0  0  0
  146.8023  133.8946  153.2782 C   0  0  0  0  0  0  0  0  0  0  0  0
  146.0853  133.1835  152.2775 O   0  0  0  0  0  0  0  0  0  0  0  0
  146.0888  133.8699  151.0326 C   0  0  0  0  0  0  0  0  0  0  0  0
  145.4003  135.2369  151.1926 C   0  0  0  0  0  0  0  0  0  0  0  0
  148.0466  138.7965  151.1722 H   0  0  0  0  0  0  0  0  0  0  0  0
  145.9969  139.4995  152.3153 H   0  0  0  0  0  0  0  0  0  0  0  0
  147.0116  138.5333  154.4229 H   0  0  0  0  0  0  0  0  0  0  0  0
  148.1087  137.5865  153.4355 H   0  0  0  0  0  0  0  0  0  0  0  0
  148.9644  139.6154  152.5390 H   0  0  0  0  0  0  0  0  0  0  0  0
  148.9541  139.2772  155.4017 H   0  0  0  0  0  0  0  0  0  0  0  0
  150.2914  139.1991  154.2654 H   0  0  0  0  0  0  0  0  0  0  0  0
  150.2702  141.6743  154.0035 H   0  0  0  0  0  0  0  0  0  0  0  0
  148.8334  141.8003  154.9999 H   0  0  0  0  0  0  0  0  0  0  0  0
  150.8170  143.4536  156.2697 H   0  0  0  0  0  0  0  0  0  0  0  0
  152.3117  142.6930  158.4215 H   0  0  0  0  0  0  0  0  0  0  0  0
  152.1667  139.9265  158.3356 H   0  0  0  0  0  0  0  0  0  0  0  0
  145.0276  137.4378  153.4449 H   0  0  0  0  0  0  0  0  0  0  0  0
  144.6578  137.5202  151.7429 H   0  0  0  0  0  0  0  0  0  0  0  0
  146.7051  135.8180  154.2605 H   0  0  0  0  0  0  0  0  0  0  0  0
  145.1314  135.1222  153.9144 H   0  0  0  0  0  0  0  0  0  0  0  0
  147.8459  134.0135  152.9820 H   0  0  0  0  0  0  0  0  0  0  0  0
  146.7977  133.3105  154.1986 H   0  0  0  0  0  0  0  0  0  0  0  0
  147.1117  133.9878  150.6710 H   0  0  0  0  0  0  0  0  0  0  0  0
  145.5590  133.2663  150.2955 H   0  0  0  0  0  0  0  0  0  0  0  0
  144.3492  135.0942  151.4487 H   0  0  0  0  0  0  0  0  0  0  0  0
  145.4286  135.7617  150.2387 H   0  0  0  0  0  0  0  0  0  0  0  0
  147.8834  140.5181  153.3816 H   0  0  0  0  0  0  0  0  0  0  0  0
  147.0249  136.1766  151.9586 H   0  0  0  0  0  0  0  0  0  0  0  0
  1  2  1  0  0  0  0
  1 19  1  0  0  0  0
  2  3  1  0  0  0  0
  2 12  1  0  0  0  0
  2 20  1  0  0  0  0
  3  4  1  0  0  0  0
  3 21  1  0  0  0  0
  3 22  1  0  0  0  0
  4  5  1  0  0  0  0
  4 23  1  0  0  0  0
  4 41  1  0  0  0  0
  5  6  1  0  0  0  0
  5 24  1  0  0  0  0
  5 25  1  0  0  0  0
  6  7  1  0  0  0  0
  6 26  1  0  0  0  0
  6 27  1  0  0  0  0
  7 11  1  0  0  0  0
  7  8  1  0  0  0  0
  8  9  2  0  0  0  0
  8 28  1  0  0  0  0
  9 10  1  0  0  0  0
  9 29  1  0  0  0  0
 10 11  2  0  0  0  0
 10 30  1  0  0  0  0
 12 13  1  0  0  0  0
 12 31  1  0  0  0  0
 12 32  1  0  0  0  0
 13 18  1  0  0  0  0
 13 14  1  0  0  0  0
 13 42  1  0  0  0  0
 14 15  1  0  0  0  0
 14 33  1  0  0  0  0
 14 34  1  0  0  0  0
 15 16  1  0  0  0  0
 15 35  1  0  0  0  0
 15 36  1  0  0  0  0
 16 17  1  0  0  0  0
 17 18  1  0  0  0  0
 17 37  1  0  0  0  0
 17 38  1  0  0  0  0
 18 39  1  0  0  0  0
 18 40  1  0  0  0  0
M  CHG  1   4   1
M  CHG  1  13   1
M  END
> <s_m_source_file>
AV-unprocessed.smi

> <i_m_source_file_index>
3231

> <i_lp_mmshare_version>
43012

> <i_f3d_flags>
0

> <s_epik_input>
W0NIMl0xW0NIMl1PW0NIMl1bQ0gyXU4xW0NIMl1bQ0BIXShbT0hdKVtDSDJdW05IXVtDSDJdW0NIMl1uMltjSF1bY0hdW2NIXW4y

> <s_epik_cmdline>
J2VwaWtfcHl0aG9uJywgJy1waCcsICc3LjAnLCAnLXRuJywgJzgnLCAnLW1hJywgJzIwMCcsICctbWV0YWxfYmluZGluZycsICctaW1hZScsICc8aW5maWxlLm1hZT4nLCAnLW9tYWUnLCAnPG91dGZpbGUubWFlPic=

> <r_lp_tautomer_probability>
1

> <r_epik_Ionization_Penalty>
2.09881

> <r_epik_Ionization_Penalty_Charging>
2.09628

> <r_epik_Ionization_Penalty_Neutral>
0.0025303

> <r_epik_State_Penalty>
1.58657

> <r_epik_Charging_Adjusted_Penalty>
3.68285

> <i_epik_Tot_Q>
2

> <i_epik_Tot_abs_Q>
2

> <r_epik_Metal_State_Penalty>
1.58685

> <b_epik_Metal_Only>
0

> <s_lp_Force_Field>
OPLS_2005

> <r_lp_Energy>
26.6316

> <b_lp_Chiralities_Consistent>
1

> <s_lp_Variant>
AV-unprocessed.smi:3231-5

> <Gold.Version>
5.8.1

> <Gold.Id.Protein>
6NUR|6NUR_protein|mol2

> <Gold.PLP.Fitness>
46.4134

> <Gold.PLP.PLP>
-33.2735

> <Gold.PLP.part.hbond>
-5.0000

> <Gold.PLP.part.metal>
0.0000

> <Gold.PLP.part.buried>
-2.6923

> <Gold.PLP.part.nonpolar>
-25.4643

> <Gold.PLP.part.repulsive>
0.2502

> <Gold.PLP.ligand.clash>
0.0000

> <Gold.PLP.ligand.torsion>
0.9739

> <Gold.PLP.Chemscore.Hbond>
4.0000

> <Gold.PLP.Chemscore.CHOScore>
1.0000

> <Gold.PLP.Chemscore.Metal>
0.0000

> <Gold.Chemscore.Hbonds>
donor molecule, donor type, donor heavy atom, donor atom, acceptor molecule, acceptor atom, score
      L1  H     1    19       P1  7957  1.00
      L1  H     4    23       P1  7957  1.00
      L1  H    13    42       P1  7948  2.00
      L1  C     8    28       P1  8028  1.00

> <Gold.PLP.Chemscore.Internal.Correction>
0.0877

> <Gold.Rescore>
     Score         DG    S(hbond)    S(metal)    S(lipo)     H(rot)  DE(clash)    DE(int)     intcor
     15.11     -16.10       2.90        0.00      72.49       2.94       0.00       0.99       ----

> <Gold.Chemscore.Fitness>
15.1069

> <Gold.Chemscore.DG>
-16.1032

> <Gold.Chemscore.ZeroCoef>
-5.4800

> <Gold.Chemscore.Hbond>
2.8975

> <Gold.Chemscore.Metal>
0.0000

> <Gold.Chemscore.Lipo>
72.4897

> <Gold.Chemscore.Internal_Hbond>
0.0000

> <Gold.Chemscore.DEClash>
0.0015

> <Gold.Chemscore.DEInternal>
0.9949

> <Gold.Chemscore.Rot>
2.9437

> <Gold.Chemscore.Internal.Correction>
   9.000000E+99

> <Gold.Chemscore.Hbonds>
donor molecule, donor type, donor heavy atom, donor atom, acceptor molecule, acceptor atom, score
      L1  H     1    19       P1  7957  0.25
      L1  H     4    23       P1  7957  0.97
      L1  H    13    42       P1  7948  1.00

> <Gold.Chemscore.Hbond.Weighted>
-9.6778

> <Gold.Chemscore.Metal.Weighted>
-0.0000

> <Gold.Chemscore.Lipo.Weighted>
-8.4813

> <Gold.Chemscore.Internal_Hbond.Weighted>
0.0000

> <Gold.Chemscore.DEClash.Weighted>
0.0015

> <Gold.Chemscore.DEInternal.Weighted>
0.9949

> <Gold.Chemscore.Rot.Weighted>
7.5359

> <Gold.Chemscore.Internal.Correction.Weighted>
   9.000000E+99

> <Gold.Protein.RotatedTorsions>
[ 6907 6896 6895 6894 ] final  154.50 input  -60.11 | X-H torsion
[ 7974 7965 7964 7962 ] final   23.94 input  175.53 | X-H torsion
[ 8008 7997 7996 7995 ] final  -48.39 input   59.86 | X-H torsion
[ 10167 10162 10161 10158 ] final  170.62 input  -65.29 | X-H torsion
[ 10718 10713 10712 10709 ] final  -69.64 input   66.30 | X-H torsion
[ 10763 10752 10751 10750 ] final   52.07 input  -60.55 | X-H torsion
[ 11005 11000 10999 10996 ] final   -5.82 input  -57.11 | X-H torsion

> <Gold.Protein.ActiveResidues>
 VAL166  LYS551  ARG553  GLY616  TRP617  ASP618  TYR619  PRO620  LYS621  CYS622 
 ASP623  PHE694  ASN695  SER759  ASP760  ASP761  ALA762  ILE779  LEU786  VAL792 
 PHE793  MET794  SER795  GLU796  ALA797  LYS798  CYS799  TRP800  GLU811  SER814 

> <Gold.Protein.RotatedAtoms>
  152.0577  133.4047  159.4403 H   0  0  0  0  0  0  0  0  0  0  0  0  # atno 6907 bound_to 6896
  150.6867  134.3236  159.4806 H   0  0  0  0  0  0  0  0  0  0  0  0  # atno 6908 bound_to 6896
  152.1054  134.9312  160.0619 H   0  0  0  0  0  0  0  0  0  0  0  0  # atno 6909 bound_to 6896
  146.1961  139.7674  142.8796 H   0  0  0  0  0  0  0  0  0  0  0  0  # atno 7974 bound_to 7965
  154.4028  140.1322  156.4331 H   0  0  0  0  0  0  0  0  0  0  0  0  # atno 8008 bound_to 7997
  155.7531  140.3487  155.5140 H   0  0  0  0  0  0  0  0  0  0  0  0  # atno 8009 bound_to 7997
  155.8930  140.1006  157.1395 H   0  0  0  0  0  0  0  0  0  0  0  0  # atno 8010 bound_to 7997
  139.5024  144.3576  151.9858 H   0  0  0  0  0  0  0  0  0  0  0  0  # atno 10167 bound_to 10162
  156.0446  130.4316  150.2177 H   0  0  0  0  0  0  0  0  0  0  0  0  # atno 10718 bound_to 10713
  152.9787  135.5825  154.4518 H   0  0  0  0  0  0  0  0  0  0  0  0  # atno 10763 bound_to 10752
  154.4106  135.2770  155.2041 H   0  0  0  0  0  0  0  0  0  0  0  0  # atno 10764 bound_to 10752
  154.3832  135.6142  153.5856 H   0  0  0  0  0  0  0  0  0  0  0  0  # atno 10765 bound_to 10752
  140.6952  133.9036  155.8645 H   0  0  0  0  0  0  0  0  0  0  0  0  # atno 11005 bound_to 11000
  145.3639  141.0331  143.3269 LP  0  0  0  0  0  0  0  0  0  0  0  0  # atno 17320 bound_to 7965
  144.8583  139.5216  143.6824 LP  0  0  0  0  0  0  0  0  0  0  0  0  # atno 17321 bound_to 7965
  140.3012  144.3644  150.6059 LP  0  0  0  0  0  0  0  0  0  0  0  0  # atno 17342 bound_to 10162
  140.5872  143.2169  151.7321 LP  0  0  0  0  0  0  0  0  0  0  0  0  # atno 17343 bound_to 10162
  157.0268  130.9995  151.3324 LP  0  0  0  0  0  0  0  0  0  0  0  0  # atno 17370 bound_to 10713
  157.5305  130.8055  149.7912 LP  0  0  0  0  0  0  0  0  0  0  0  0  # atno 17371 bound_to 10713
  141.0208  134.0891  157.4122 LP  0  0  0  0  0  0  0  0  0  0  0  0  # atno 17394 bound_to 11000
  139.8912  135.0117  156.6778 LP  0  0  0  0  0  0  0  0  0  0  0  0  # atno 17395 bound_to 11000

$$$$
