AV-unprocessed.smi:2336|AV-procd|sdf|9331|dock5
  -GOLD-   2272012553D 1   1.00000     0.00000
 Structure written by MMmdl.
 49 50  0  0  0  0  0  0  0  0  1 V2000
  146.6365  141.6794  153.7623 C   0  0  0  0  0  0  0  0  0  0  0  0
  147.7280  140.8513  154.4657 C   0  0  0  0  0  0  0  0  0  0  0  0
  148.9994  141.6862  154.7108 C   0  0  0  0  0  0  0  0  0  0  0  0
  147.9955  139.4514  153.7997 C   0  0  2  0  0  0  0  0  0  0  0  0
  146.6660  138.6776  153.5276 C   0  0  0  0  0  0  0  0  0  0  0  0
  146.8756  137.3609  152.9375 N   0  0  0  0  0  0  0  0  0  0  0  0
  145.9139  136.4761  152.6400 C   0  0  0  0  0  0  0  0  0  0  0  0
  144.7198  136.6642  152.8710 O   0  0  0  0  0  0  0  0  0  0  0  0
  146.4354  135.3734  152.0758 N   0  0  0  0  0  0  0  0  0  0  0  0
  145.7679  134.2312  151.5544 C   0  0  0  0  0  0  0  0  0  0  0  0
  144.4233  134.2265  151.1096 C   0  0  0  0  0  0  0  0  0  0  0  0
  143.8883  133.0302  150.5908 C   0  0  0  0  0  0  0  0  0  0  0  0
  144.5923  131.8831  150.4868 N   0  0  0  0  0  0  0  0  0  0  0  0
  145.8767  131.8941  150.9013 C   0  0  0  0  0  0  0  0  0  0  0  0
  146.5080  133.0356  151.4349 C   0  0  0  0  0  0  0  0  0  0  0  0
  147.8039  132.9792  151.8270 F   0  0  0  0  0  0  0  0  0  0  0  0
  149.0074  138.6559  154.5471 N   0  0  0  0  0  0  0  0  0  0  0  0
  148.8204  138.7408  156.0094 C   0  0  0  0  0  0  0  0  0  0  0  0
  149.8419  137.8908  156.7858 C   0  0  0  0  0  0  0  0  0  0  0  0
  151.2075  138.3101  156.4978 N   0  0  0  0  0  0  0  0  0  0  0  0
  152.1783  137.5192  157.2386 C   0  0  0  0  0  0  0  0  0  0  0  0
  151.4230  138.2152  155.0594 C   0  0  0  0  0  0  0  0  0  0  0  0
  150.3986  139.0584  154.2769 C   0  0  0  0  0  0  0  0  0  0  0  0
  146.9565  142.0375  152.7843 H   0  0  0  0  0  0  0  0  0  0  0  0
  146.3724  142.5559  154.3546 H   0  0  0  0  0  0  0  0  0  0  0  0
  145.7277  141.0933  153.6240 H   0  0  0  0  0  0  0  0  0  0  0  0
  147.3436  140.7026  155.4688 H   0  0  0  0  0  0  0  0  0  0  0  0
  149.4067  142.1179  153.7989 H   0  0  0  0  0  0  0  0  0  0  0  0
  149.7807  141.0879  155.1801 H   0  0  0  0  0  0  0  0  0  0  0  0
  148.7854  142.5197  155.3802 H   0  0  0  0  0  0  0  0  0  0  0  0
  148.4248  139.6474  152.8159 H   0  0  0  0  0  0  0  0  0  0  0  0
  146.1417  138.4644  154.4580 H   0  0  0  0  0  0  0  0  0  0  0  0
  145.9900  139.2866  152.9250 H   0  0  0  0  0  0  0  0  0  0  0  0
  147.8295  137.1137  152.7187 H   0  0  0  0  0  0  0  0  0  0  0  0
  147.4434  135.3332  152.0342 H   0  0  0  0  0  0  0  0  0  0  0  0
  143.8008  135.1070  151.1409 H   0  0  0  0  0  0  0  0  0  0  0  0
  142.8667  132.9961  150.2425 H   0  0  0  0  0  0  0  0  0  0  0  0
  146.4192  130.9657  150.8020 H   0  0  0  0  0  0  0  0  0  0  0  0
  148.8955  139.7802  156.3328 H   0  0  0  0  0  0  0  0  0  0  0  0
  147.8372  138.3982  156.3170 H   0  0  0  0  0  0  0  0  0  0  0  0
  149.6473  137.9827  157.8548 H   0  0  0  0  0  0  0  0  0  0  0  0
  149.7096  136.8372  156.5339 H   0  0  0  0  0  0  0  0  0  0  0  0
  153.1931  137.8566  157.0261 H   0  0  0  0  0  0  0  0  0  0  0  0
  152.1091  136.4626  156.9766 H   0  0  0  0  0  0  0  0  0  0  0  0
  152.0149  137.6143  158.3125 H   0  0  0  0  0  0  0  0  0  0  0  0
  152.4301  138.5553  154.8157 H   0  0  0  0  0  0  0  0  0  0  0  0
  151.3599  137.1739  154.7388 H   0  0  0  0  0  0  0  0  0  0  0  0
  150.6363  138.9223  153.2229 H   0  0  0  0  0  0  0  0  0  0  0  0
  150.5363  140.1167  154.5044 H   0  0  0  0  0  0  0  0  0  0  0  0
  1  2  1  0  0  0  0
  1 24  1  0  0  0  0
  1 25  1  0  0  0  0
  1 26  1  0  0  0  0
  2  3  1  0  0  0  0
  2  4  1  0  0  0  0
  2 27  1  0  0  0  0
  3 28  1  0  0  0  0
  3 29  1  0  0  0  0
  3 30  1  0  0  0  0
  4  5  1  0  0  0  0
  4 17  1  0  0  0  0
  4 31  1  0  0  0  0
  5  6  1  0  0  0  0
  5 32  1  0  0  0  0
  5 33  1  0  0  0  0
  6  7  1  0  0  0  0
  6 34  1  0  0  0  0
  7  8  2  0  0  0  0
  7  9  1  0  0  0  0
  9 10  1  0  0  0  0
  9 35  1  0  0  0  0
 10 15  1  0  0  0  0
 10 11  2  0  0  0  0
 11 12  1  0  0  0  0
 11 36  1  0  0  0  0
 12 13  2  0  0  0  0
 12 37  1  0  0  0  0
 13 14  1  0  0  0  0
 14 15  2  0  0  0  0
 14 38  1  0  0  0  0
 15 16  1  0  0  0  0
 17 23  1  0  0  0  0
 17 18  1  0  0  0  0
 18 19  1  0  0  0  0
 18 39  1  0  0  0  0
 18 40  1  0  0  0  0
 19 20  1  0  0  0  0
 19 41  1  0  0  0  0
 19 42  1  0  0  0  0
 20 21  1  0  0  0  0
 20 22  1  0  0  0  0
 21 43  1  0  0  0  0
 21 44  1  0  0  0  0
 21 45  1  0  0  0  0
 22 23  1  0  0  0  0
 22 46  1  0  0  0  0
 22 47  1  0  0  0  0
 23 48  1  0  0  0  0
 23 49  1  0  0  0  0
M  END
> <s_m_source_file>
AV-unprocessed.smi

> <i_m_source_file_index>
2336

> <i_lp_mmshare_version>
43012

> <i_f3d_flags>
0

> <s_epik_input>
W0NIMl0xW0NIMl1OKFtDSDNdKVtDSDJdW0NIMl1OMVtDQEhdKFtDSF0oW0NIM10pW0NIM10pW0NIMl1bTkhdQyg9TylbTkhdYzJbY0hdW2NIXW5bY0hdYzJG

> <s_epik_cmdline>
J2VwaWtfcHl0aG9uJywgJy1waCcsICc3LjAnLCAnLXRuJywgJzgnLCAnLW1hJywgJzIwMCcsICctbWV0YWxfYmluZGluZycsICctaW1hZScsICc8aW5maWxlLm1hZT4nLCAnLW9tYWUnLCAnPG91dGZpbGUubWFlPic=

> <r_epik_Ionization_Penalty>
2.58102

> <r_epik_Ionization_Penalty_Charging>
0

> <r_epik_Ionization_Penalty_Neutral>
2.58102

> <r_epik_State_Penalty>
2.00874

> <r_epik_Charging_Adjusted_Penalty>
2.00874

> <i_epik_Tot_Q>
0

> <i_epik_Tot_abs_Q>
0

> <r_epik_Metal_State_Penalty>
2.00867

> <b_epik_Metal_Only>
0

> <s_lp_Force_Field>
OPLS_2005

> <r_lp_Energy>
52.971

> <b_lp_Chiralities_Consistent>
1

> <s_lp_Variant>
AV-unprocessed.smi:2336-5

> <Gold.Version>
5.8.1

> <Gold.Id.Protein>
6NUR|6NUR_protein|mol2

> <Gold.PLP.Fitness>
42.5330

> <Gold.PLP.PLP>
-32.2939

> <Gold.PLP.part.hbond>
-2.0000

> <Gold.PLP.part.metal>
0.0000

> <Gold.PLP.part.buried>
-1.4537

> <Gold.PLP.part.nonpolar>
-28.4751

> <Gold.PLP.part.repulsive>
0.5243

> <Gold.PLP.ligand.clash>
0.0000

> <Gold.PLP.ligand.torsion>
0.6556

> <Gold.PLP.Chemscore.Hbond>
1.9760

> <Gold.PLP.Chemscore.CHOScore>
1.7310

> <Gold.PLP.Chemscore.Metal>
0.0000

> <Gold.Chemscore.Hbonds>
donor molecule, donor type, donor heavy atom, donor atom, acceptor molecule, acceptor atom, score
      L1  H     6    34       P1  7948  1.00
      L1  H     9    35       P1  7948  0.96
      L1  C    12    37       P1 10186  1.00
      L1  C    14    38       P1 10747  0.71

> <Gold.PLP.Chemscore.Internal.Correction>
0.4291

> <Gold.Rescore>
     Score         DG    S(hbond)    S(metal)    S(lipo)     H(rot)  DE(clash)    DE(int)     intcor
     16.16     -18.03       1.92        0.00      88.08       1.63       0.23       1.63       ----

> <Gold.Chemscore.Fitness>
16.1639

> <Gold.Chemscore.DG>
-18.0275

> <Gold.Chemscore.ZeroCoef>
-5.4800

> <Gold.Chemscore.Hbond>
1.9188

> <Gold.Chemscore.Metal>
0.0000

> <Gold.Chemscore.Lipo>
88.0812

> <Gold.Chemscore.Internal_Hbond>
0.0000

> <Gold.Chemscore.DEClash>
0.2321

> <Gold.Chemscore.DEInternal>
1.6314

> <Gold.Chemscore.Rot>
1.6277

> <Gold.Chemscore.Internal.Correction>
   9.000000E+99

> <Gold.Chemscore.Hbonds>
donor molecule, donor type, donor heavy atom, donor atom, acceptor molecule, acceptor atom, score
      L1  H     6    34       P1  7948  0.95
      L1  H     9    35       P1  7948  0.92

> <Gold.Chemscore.Hbond.Weighted>
-6.4089

> <Gold.Chemscore.Metal.Weighted>
-0.0000

> <Gold.Chemscore.Lipo.Weighted>
-10.3055

> <Gold.Chemscore.Internal_Hbond.Weighted>
0.0000

> <Gold.Chemscore.DEClash.Weighted>
0.2321

> <Gold.Chemscore.DEInternal.Weighted>
1.6314

> <Gold.Chemscore.Rot.Weighted>
4.1670

> <Gold.Chemscore.Internal.Correction.Weighted>
   9.000000E+99

> <Gold.Protein.RotatedTorsions>
[ 6907 6896 6895 6894 ] final  171.04 input  -60.11 | X-H torsion
[ 7974 7965 7964 7962 ] final  -82.39 input  175.53 | X-H torsion
[ 8008 7997 7996 7995 ] final  -38.17 input   59.86 | X-H torsion
[ 10167 10162 10161 10158 ] final -133.94 input  -65.29 | X-H torsion
[ 10718 10713 10712 10709 ] final  -18.46 input   66.30 | X-H torsion
[ 10763 10752 10751 10750 ] final -107.80 input  -60.55 | X-H torsion
[ 11005 11000 10999 10996 ] final  -12.71 input  -57.11 | X-H torsion

> <Gold.Protein.ActiveResidues>
 VAL166  LYS551  ARG553  GLY616  TRP617  ASP618  TYR619  PRO620  LYS621  CYS622 
 ASP623  PHE694  ASN695  SER759  ASP760  ASP761  ALA762  ILE779  LEU786  VAL792 
 PHE793  MET794  SER795  GLU796  ALA797  LYS798  CYS799  TRP800  GLU811  SER814 

> <Gold.Protein.RotatedAtoms>
  151.8066  133.3376  159.3542 H   0  0  0  0  0  0  0  0  0  0  0  0  # atno 6907 bound_to 6896
  150.7340  134.5703  159.5896 H   0  0  0  0  0  0  0  0  0  0  0  0  # atno 6908 bound_to 6896
  152.3105  134.7504  160.0389 H   0  0  0  0  0  0  0  0  0  0  0  0  # atno 6909 bound_to 6896
  145.5340  140.9518  143.1587 H   0  0  0  0  0  0  0  0  0  0  0  0  # atno 7974 bound_to 7965
  154.4041  140.1585  156.2656 H   0  0  0  0  0  0  0  0  0  0  0  0  # atno 8008 bound_to 7997
  155.8998  140.3434  155.5996 H   0  0  0  0  0  0  0  0  0  0  0  0  # atno 8009 bound_to 7997
  155.7461  140.0799  157.2214 H   0  0  0  0  0  0  0  0  0  0  0  0  # atno 8010 bound_to 7997
  139.8931  143.6698  152.2608 H   0  0  0  0  0  0  0  0  0  0  0  0  # atno 10167 bound_to 10162
  156.5592  130.4721  149.6414 H   0  0  0  0  0  0  0  0  0  0  0  0  # atno 10718 bound_to 10713
  154.8097  135.4661  154.0484 H   0  0  0  0  0  0  0  0  0  0  0  0  # atno 10763 bound_to 10752
  153.1925  135.6857  153.8341 H   0  0  0  0  0  0  0  0  0  0  0  0  # atno 10764 bound_to 10752
  153.7854  135.3250  155.3349 H   0  0  0  0  0  0  0  0  0  0  0  0  # atno 10765 bound_to 10752
  140.7685  133.8457  155.9186 H   0  0  0  0  0  0  0  0  0  0  0  0  # atno 11005 bound_to 11000
  144.7611  139.6955  143.7234 LP  0  0  0  0  0  0  0  0  0  0  0  0  # atno 17320 bound_to 7965
  146.2025  139.5329  142.9734 LP  0  0  0  0  0  0  0  0  0  0  0  0  # atno 17321 bound_to 7965
  139.7092  144.7623  151.1141 LP  0  0  0  0  0  0  0  0  0  0  0  0  # atno 17342 bound_to 10162
  140.7722  143.5354  150.9375 LP  0  0  0  0  0  0  0  0  0  0  0  0  # atno 17343 bound_to 10162
  156.2814  130.7073  151.1898 LP  0  0  0  0  0  0  0  0  0  0  0  0  # atno 17370 bound_to 10713
  157.7372  131.0554  150.5370 LP  0  0  0  0  0  0  0  0  0  0  0  0  # atno 17371 bound_to 10713
  140.9596  134.1673  157.4664 LP  0  0  0  0  0  0  0  0  0  0  0  0  # atno 17394 bound_to 11000
  139.8759  134.9940  156.5671 LP  0  0  0  0  0  0  0  0  0  0  0  0  # atno 17395 bound_to 11000

$$$$
