AV-unprocessed.smi:940|AV-procd|sdf|4219|dock3
  -GOLD-   22720 2133D 1   1.00000     0.00000
 Structure written by MMmdl.
 36 36  0  0  0  0  0  0  0  0  1 V2000
  152.8607  143.2232  160.2330 C   0  0  0  0  0  0  0  0  0  0  0  0
  152.2328  141.9180  159.7271 C   0  0  0  0  0  0  0  0  0  0  0  0
  151.6742  142.0755  158.3896 N   0  0  0  0  0  0  0  0  0  0  0  0
  151.0146  141.1228  157.7114 C   0  0  0  0  0  0  0  0  0  0  0  0
  150.8006  139.9965  158.1586 O   0  0  0  0  0  0  0  0  0  0  0  0
  150.5142  141.4987  156.3155 C   0  0  0  0  0  0  0  0  0  0  0  0
  150.3552  140.3226  155.4790 N   0  0  0  0  0  0  0  0  0  0  0  0
  151.2872  139.3469  155.1869 C   0  0  0  0  0  0  0  0  0  0  0  0
  150.6851  138.4341  154.3688 C   0  0  0  0  0  0  0  0  0  0  0  0
  149.3625  138.9502  154.2210 C   0  0  0  0  0  0  0  0  0  0  0  0
  148.3206  138.3723  153.4507 N   0  0  0  0  0  0  0  0  0  0  0  0
  147.1027  138.8745  153.1780 C   0  0  0  0  0  0  0  0  0  0  0  0
  146.6943  139.9715  153.5575 O   0  0  0  0  0  0  0  0  0  0  0  0
  146.1933  137.9904  152.3257 C   0  0  0  0  0  0  0  0  0  0  0  0
  145.9029  136.8063  153.0504 O   0  0  0  0  0  0  0  0  0  0  0  0
  144.9859  135.9614  152.3769 C   0  0  0  0  0  0  0  0  0  0  0  0
  145.5951  135.5380  151.0383 C   0  0  0  0  0  0  0  0  0  0  0  0
  149.1691  140.0805  154.8785 N   0  0  0  0  0  0  0  0  0  0  0  0
  153.2968  143.0843  161.2224 H   0  0  0  0  0  0  0  0  0  0  0  0
  152.1185  144.0183  160.3078 H   0  0  0  0  0  0  0  0  0  0  0  0
  153.6527  143.5642  159.5657 H   0  0  0  0  0  0  0  0  0  0  0  0
  152.9913  141.1359  159.6892 H   0  0  0  0  0  0  0  0  0  0  0  0
  151.4648  141.5715  160.4208 H   0  0  0  0  0  0  0  0  0  0  0  0
  151.8017  142.9730  157.9453 H   0  0  0  0  0  0  0  0  0  0  0  0
  149.5594  142.0223  156.3871 H   0  0  0  0  0  0  0  0  0  0  0  0
  151.2185  142.1809  155.8377 H   0  0  0  0  0  0  0  0  0  0  0  0
  152.2916  139.3828  155.5822 H   0  0  0  0  0  0  0  0  0  0  0  0
  151.1352  137.5461  153.9514 H   0  0  0  0  0  0  0  0  0  0  0  0
  148.5310  137.4705  153.0485 H   0  0  0  0  0  0  0  0  0  0  0  0
  145.2757  138.5371  152.1026 H   0  0  0  0  0  0  0  0  0  0  0  0
  146.6753  137.7438  151.3779 H   0  0  0  0  0  0  0  0  0  0  0  0
  144.7714  135.0803  152.9834 H   0  0  0  0  0  0  0  0  0  0  0  0
  144.0438  136.4852  152.2085 H   0  0  0  0  0  0  0  0  0  0  0  0
  144.9163  134.8843  150.4906 H   0  0  0  0  0  0  0  0  0  0  0  0
  146.5313  134.9994  151.1879 H   0  0  0  0  0  0  0  0  0  0  0  0
  145.8038  136.4053  150.4115 H   0  0  0  0  0  0  0  0  0  0  0  0
  1  2  1  0  0  0  0
  1 19  1  0  0  0  0
  1 20  1  0  0  0  0
  1 21  1  0  0  0  0
  2  3  1  0  0  0  0
  2 22  1  0  0  0  0
  2 23  1  0  0  0  0
  3  4  1  0  0  0  0
  3 24  1  0  0  0  0
  4  5  2  0  0  0  0
  4  6  1  0  0  0  0
  6  7  1  0  0  0  0
  6 25  1  0  0  0  0
  6 26  1  0  0  0  0
  7 18  1  0  0  0  0
  7  8  1  0  0  0  0
  8  9  2  0  0  0  0
  8 27  1  0  0  0  0
  9 10  1  0  0  0  0
  9 28  1  0  0  0  0
 10 11  1  0  0  0  0
 10 18  2  0  0  0  0
 11 12  1  0  0  0  0
 11 29  1  0  0  0  0
 12 13  2  0  0  0  0
 12 14  1  0  0  0  0
 14 15  1  0  0  0  0
 14 30  1  0  0  0  0
 14 31  1  0  0  0  0
 15 16  1  0  0  0  0
 16 17  1  0  0  0  0
 16 32  1  0  0  0  0
 16 33  1  0  0  0  0
 17 34  1  0  0  0  0
 17 35  1  0  0  0  0
 17 36  1  0  0  0  0
M  END
> <s_m_source_file>
AV-unprocessed.smi

> <i_m_source_file_index>
940

> <i_lp_mmshare_version>
43012

> <i_f3d_flags>
0

> <s_epik_input>
W0NIM11bQ0gyXVtOSF1DKD1PKVtDSDJdbjFbY0hdW2NIXWMobjEpW05IXUMoPU8pW0NIMl1PW0NIMl1bQ0gzXQ==

> <s_epik_cmdline>
J2VwaWtfcHl0aG9uJywgJy1waCcsICc3LjAnLCAnLXRuJywgJzgnLCAnLW1hJywgJzIwMCcsICctbWV0YWxfYmluZGluZycsICctaW1hZScsICc8aW5maWxlLm1hZT4nLCAnLW9tYWUnLCAnPG91dGZpbGUubWFlPic=

> <r_lp_tautomer_probability>
1

> <r_epik_Ionization_Penalty>
3.22351e-06

> <r_epik_Ionization_Penalty_Charging>
0

> <r_epik_Ionization_Penalty_Neutral>
3.22351e-06

> <r_epik_State_Penalty>
-0

> <r_epik_Charging_Adjusted_Penalty>
0

> <i_epik_Tot_Q>
0

> <i_epik_Tot_abs_Q>
0

> <r_epik_Metal_State_Penalty>
-0

> <b_epik_Metal_Only>
0

> <s_lp_Force_Field>
OPLS_2005

> <r_lp_Energy>
6.8138

> <b_lp_Chiralities_Consistent>
1

> <s_lp_Variant>
AV-unprocessed.smi:940-1

> <Gold.Version>
5.8.1

> <Gold.Id.Protein>
6NUR|6NUR_protein|mol2

> <Gold.PLP.Fitness>
38.2837

> <Gold.PLP.PLP>
-36.0505

> <Gold.PLP.part.hbond>
-2.0000

> <Gold.PLP.part.metal>
0.0000

> <Gold.PLP.part.buried>
-1.9333

> <Gold.PLP.part.nonpolar>
-32.6623

> <Gold.PLP.part.repulsive>
0.6130

> <Gold.PLP.ligand.clash>
0.0000

> <Gold.PLP.ligand.torsion>
0.4142

> <Gold.PLP.Chemscore.Hbond>
1.0000

> <Gold.PLP.Chemscore.CHOScore>
0.0000

> <Gold.PLP.Chemscore.Metal>
0.0000

> <Gold.Chemscore.Hbonds>
donor molecule, donor type, donor heavy atom, donor atom, acceptor molecule, acceptor atom, score
      L1  H    11    29       P1  7948  1.00

> <Gold.PLP.Chemscore.Internal.Correction>
0.0617

> <Gold.Rescore>
     Score         DG    S(hbond)    S(metal)    S(lipo)     H(rot)  DE(clash)    DE(int)     intcor
      8.34     -10.38       1.00        0.00      64.51       2.34       0.19       1.85       ----

> <Gold.Chemscore.Fitness>
8.3414

> <Gold.Chemscore.DG>
-10.3806

> <Gold.Chemscore.ZeroCoef>
-5.4800

> <Gold.Chemscore.Hbond>
0.9989

> <Gold.Chemscore.Metal>
0.0000

> <Gold.Chemscore.Lipo>
64.5085

> <Gold.Chemscore.Internal_Hbond>
0.0000

> <Gold.Chemscore.DEClash>
0.1893

> <Gold.Chemscore.DEInternal>
1.8500

> <Gold.Chemscore.Rot>
2.3372

> <Gold.Chemscore.Internal.Correction>
   9.000000E+99

> <Gold.Chemscore.Hbonds>
donor molecule, donor type, donor heavy atom, donor atom, acceptor molecule, acceptor atom, score
      L1  H    11    29       P1  7948  1.00

> <Gold.Chemscore.Hbond.Weighted>
-3.3364

> <Gold.Chemscore.Metal.Weighted>
-0.0000

> <Gold.Chemscore.Lipo.Weighted>
-7.5475

> <Gold.Chemscore.Internal_Hbond.Weighted>
0.0000

> <Gold.Chemscore.DEClash.Weighted>
0.1893

> <Gold.Chemscore.DEInternal.Weighted>
1.8500

> <Gold.Chemscore.Rot.Weighted>
5.9833

> <Gold.Chemscore.Internal.Correction.Weighted>
   9.000000E+99

> <Gold.Protein.RotatedTorsions>
[ 6907 6896 6895 6894 ] final  -42.02 input  -60.11 | X-H torsion
[ 7974 7965 7964 7962 ] final  -56.19 input  175.53 | X-H torsion
[ 8008 7997 7996 7995 ] final  175.25 input   59.86 | X-H torsion
[ 10167 10162 10161 10158 ] final  157.74 input  -65.29 | X-H torsion
[ 10718 10713 10712 10709 ] final   85.70 input   66.30 | X-H torsion
[ 10763 10752 10751 10750 ] final -124.83 input  -60.55 | X-H torsion
[ 11005 11000 10999 10996 ] final  -64.76 input  -57.11 | X-H torsion

> <Gold.Protein.ActiveResidues>
 VAL166  LYS551  ARG553  GLY616  TRP617  ASP618  TYR619  PRO620  LYS621  CYS622 
 ASP623  PHE694  ASN695  SER759  ASP760  ASP761  ALA762  ILE779  LEU786  VAL792 
 PHE793  MET794  SER795  GLU796  ALA797  LYS798  CYS799  TRP800  GLU811  SER814 

> <Gold.Protein.RotatedAtoms>
  150.9600  134.8989  159.7724 H   0  0  0  0  0  0  0  0  0  0  0  0  # atno 6907 bound_to 6896
  152.5152  134.3686  159.9320 H   0  0  0  0  0  0  0  0  0  0  0  0  # atno 6908 bound_to 6896
  151.3698  133.3818  159.2733 H   0  0  0  0  0  0  0  0  0  0  0  0  # atno 6909 bound_to 6896
  145.8656  140.8254  142.9915 H   0  0  0  0  0  0  0  0  0  0  0  0  # atno 7974 bound_to 7965
  156.0889  140.1413  156.9617 H   0  0  0  0  0  0  0  0  0  0  0  0  # atno 8008 bound_to 7997
  154.4630  140.0936  156.6992 H   0  0  0  0  0  0  0  0  0  0  0  0  # atno 8009 bound_to 7997
  155.4952  140.3449  155.4364 H   0  0  0  0  0  0  0  0  0  0  0  0  # atno 8010 bound_to 7997
  139.4824  144.4889  151.8337 H   0  0  0  0  0  0  0  0  0  0  0  0  # atno 10167 bound_to 10162
  157.6918  131.0185  150.2862 H   0  0  0  0  0  0  0  0  0  0  0  0  # atno 10718 bound_to 10713
  154.8728  135.4050  154.3169 H   0  0  0  0  0  0  0  0  0  0  0  0  # atno 10763 bound_to 10752
  153.4004  135.7018  153.6436 H   0  0  0  0  0  0  0  0  0  0  0  0  # atno 10764 bound_to 10752
  153.5181  135.3693  155.2590 H   0  0  0  0  0  0  0  0  0  0  0  0  # atno 10765 bound_to 10752
  141.1434  133.6671  156.5883 H   0  0  0  0  0  0  0  0  0  0  0  0  # atno 11005 bound_to 11000
  144.6726  140.1161  143.7452 LP  0  0  0  0  0  0  0  0  0  0  0  0  # atno 17320 bound_to 7965
  145.9197  139.2538  143.1388 LP  0  0  0  0  0  0  0  0  0  0  0  0  # atno 17321 bound_to 7965
  140.4371  144.2036  150.5890 LP  0  0  0  0  0  0  0  0  0  0  0  0  # atno 17342 bound_to 10162
  140.4720  143.2409  151.9075 LP  0  0  0  0  0  0  0  0  0  0  0  0  # atno 17343 bound_to 10162
  156.3400  130.3814  149.7417 LP  0  0  0  0  0  0  0  0  0  0  0  0  # atno 17370 bound_to 10713
  156.4928  130.8093  151.3102 LP  0  0  0  0  0  0  0  0  0  0  0  0  # atno 17371 bound_to 10713
  140.3783  134.7545  157.4644 LP  0  0  0  0  0  0  0  0  0  0  0  0  # atno 17394 bound_to 11000
  140.0657  134.5933  155.8698 LP  0  0  0  0  0  0  0  0  0  0  0  0  # atno 17395 bound_to 11000

$$$$
