AV-unprocessed.smi:1380|AV-procd|sdf|5600|dock4
  -GOLD-   22720 5203D 1   1.00000     0.00000
 Structure written by MMmdl.
 33 34  0  0  0  0  0  0  0  0  1 V2000
  145.9294  138.7061  153.7852 O   0  0  0  0  0  0  0  0  0  0  0  0
  146.7838  138.0568  153.1818 C   0  0  0  0  0  0  0  0  0  0  0  0
  146.5063  137.0501  152.3424 N   0  0  0  0  0  0  0  0  0  0  0  0
  145.1654  136.5504  152.0540 C   0  0  0  0  0  0  0  0  0  0  0  0
  145.0867  135.8011  150.7093 C   0  0  0  0  0  0  0  0  0  0  0  0
  145.2337  134.2957  150.8483 C   0  0  0  0  0  0  0  0  0  0  0  0
  144.2081  133.4282  150.4201 C   0  0  0  0  0  0  0  0  0  0  0  0
  144.3921  132.0392  150.5602 C   0  0  0  0  0  0  0  0  0  0  0  0
  145.5973  131.5760  151.1250 C   0  0  0  0  0  0  0  0  0  0  0  0
  146.5866  132.3971  151.5385 N   0  0  0  0  0  0  0  0  0  0  0  0
  146.4015  133.7278  151.4022 C   0  0  0  0  0  0  0  0  0  0  0  0
  148.1032  138.2585  153.2975 N   0  0  0  0  0  0  0  0  0  0  0  0
  148.7184  139.2444  154.1758 C   0  0  0  0  0  0  0  0  0  0  0  0
  149.8268  138.7045  155.0596 C   0  0  0  0  0  0  0  0  0  0  0  0
  151.0172  139.5585  155.4317 C   0  0  0  0  0  0  0  0  0  0  0  0
  151.1879  138.4011  154.4784 C   0  0  0  0  0  0  0  0  0  0  0  0
  147.2763  136.5752  151.8944 H   0  0  0  0  0  0  0  0  0  0  0  0
  144.8181  135.9111  152.8670 H   0  0  0  0  0  0  0  0  0  0  0  0
  144.4949  137.4098  152.0308 H   0  0  0  0  0  0  0  0  0  0  0  0
  144.1372  136.0197  150.2187 H   0  0  0  0  0  0  0  0  0  0  0  0
  145.8622  136.1709  150.0377 H   0  0  0  0  0  0  0  0  0  0  0  0
  143.2982  133.8190  149.9891 H   0  0  0  0  0  0  0  0  0  0  0  0
  143.6282  131.3452  150.2423 H   0  0  0  0  0  0  0  0  0  0  0  0
  145.7715  130.5172  151.2467 H   0  0  0  0  0  0  0  0  0  0  0  0
  147.2134  134.3566  151.7374 H   0  0  0  0  0  0  0  0  0  0  0  0
  148.7260  137.6722  152.7612 H   0  0  0  0  0  0  0  0  0  0  0  0
  149.1384  140.0286  153.5459 H   0  0  0  0  0  0  0  0  0  0  0  0
  147.9556  139.7238  154.7921 H   0  0  0  0  0  0  0  0  0  0  0  0
  149.4792  138.0070  155.8195 H   0  0  0  0  0  0  0  0  0  0  0  0
  151.0704  140.5633  155.0172 H   0  0  0  0  0  0  0  0  0  0  0  0
  151.4183  139.4479  156.4371 H   0  0  0  0  0  0  0  0  0  0  0  0
  151.7061  137.5182  154.8471 H   0  0  0  0  0  0  0  0  0  0  0  0
  151.3576  138.6378  153.4299 H   0  0  0  0  0  0  0  0  0  0  0  0
  1  2  2  0  0  0  0
  2  3  1  0  0  0  0
  2 12  1  0  0  0  0
  3  4  1  0  0  0  0
  3 17  1  0  0  0  0
  4  5  1  0  0  0  0
  4 18  1  0  0  0  0
  4 19  1  0  0  0  0
  5  6  1  0  0  0  0
  5 20  1  0  0  0  0
  5 21  1  0  0  0  0
  6 11  1  0  0  0  0
  6  7  2  0  0  0  0
  7  8  1  0  0  0  0
  7 22  1  0  0  0  0
  8  9  2  0  0  0  0
  8 23  1  0  0  0  0
  9 10  1  0  0  0  0
  9 24  1  0  0  0  0
 10 11  2  0  0  0  0
 11 25  1  0  0  0  0
 12 13  1  0  0  0  0
 12 26  1  0  0  0  0
 13 14  1  0  0  0  0
 13 27  1  0  0  0  0
 13 28  1  0  0  0  0
 14 16  1  0  0  0  0
 14 15  1  0  0  0  0
 14 29  1  0  0  0  0
 15 16  1  0  0  0  0
 15 30  1  0  0  0  0
 15 31  1  0  0  0  0
 16 32  1  0  0  0  0
 16 33  1  0  0  0  0
M  END
> <s_m_source_file>
AV-unprocessed.smi

> <i_m_source_file_index>
1380

> <i_lp_mmshare_version>
43012

> <i_f3d_flags>
0

> <s_epik_input>
W0NIMl0xW0NIMl1bQ0hdMVtDSDJdW05IXUMoPU8pW05IXVtDSDJdW0NIMl1jMltjSF1bY0hdW2NIXW5bY0hdMg==

> <s_epik_cmdline>
J2VwaWtfcHl0aG9uJywgJy1waCcsICc3LjAnLCAnLXRuJywgJzgnLCAnLW1hJywgJzIwMCcsICctbWV0YWxfYmluZGluZycsICctaW1hZScsICc8aW5maWxlLm1hZT4nLCAnLW9tYWUnLCAnPG91dGZpbGUubWFlPic=

> <r_epik_Ionization_Penalty>
0.0144004

> <r_epik_Ionization_Penalty_Charging>
0

> <r_epik_Ionization_Penalty_Neutral>
0.0144004

> <r_epik_State_Penalty>
0.0112076

> <r_epik_Charging_Adjusted_Penalty>
0.0112076

> <i_epik_Tot_Q>
0

> <i_epik_Tot_abs_Q>
0

> <r_epik_Metal_State_Penalty>
0.0109423

> <b_epik_Metal_Only>
0

> <s_lp_Force_Field>
OPLS_2005

> <r_lp_Energy>
8.98924

> <b_lp_Chiralities_Consistent>
1

> <s_lp_Variant>
AV-unprocessed.smi:1380-1

> <Gold.Version>
5.8.1

> <Gold.Id.Protein>
6NUR|6NUR_protein|mol2

> <Gold.PLP.Fitness>
38.8878

> <Gold.PLP.PLP>
-30.7745

> <Gold.PLP.part.hbond>
-2.7286

> <Gold.PLP.part.metal>
0.0000

> <Gold.PLP.part.buried>
-4.0931

> <Gold.PLP.part.nonpolar>
-25.2876

> <Gold.PLP.part.repulsive>
0.3915

> <Gold.PLP.ligand.clash>
0.0000

> <Gold.PLP.ligand.torsion>
0.7205

> <Gold.PLP.Chemscore.Hbond>
1.9920

> <Gold.PLP.Chemscore.CHOScore>
1.0000

> <Gold.PLP.Chemscore.Metal>
0.0000

> <Gold.Chemscore.Hbonds>
donor molecule, donor type, donor heavy atom, donor atom, acceptor molecule, acceptor atom, score
      L1  H     3    17       P1  7948  0.99
      L1  H    12    26       P1  7948  0.99
      L1  C    11    25       P1  7948  1.00

> <Gold.PLP.Chemscore.Internal.Correction>
0.5784

> <Gold.Rescore>
     Score         DG    S(hbond)    S(metal)    S(lipo)     H(rot)  DE(clash)    DE(int)     intcor
     15.70     -16.59       1.90        0.00      77.85       1.70       0.07       0.82       ----

> <Gold.Chemscore.Fitness>
15.7021

> <Gold.Chemscore.DG>
-16.5858

> <Gold.Chemscore.ZeroCoef>
-5.4800

> <Gold.Chemscore.Hbond>
1.9013

> <Gold.Chemscore.Metal>
0.0000

> <Gold.Chemscore.Lipo>
77.8539

> <Gold.Chemscore.Internal_Hbond>
0.0000

> <Gold.Chemscore.DEClash>
0.0654

> <Gold.Chemscore.DEInternal>
0.8184

> <Gold.Chemscore.Rot>
1.7006

> <Gold.Chemscore.Internal.Correction>
   9.000000E+99

> <Gold.Chemscore.Hbonds>
donor molecule, donor type, donor heavy atom, donor atom, acceptor molecule, acceptor atom, score
      L1  H     3    17       P1  7948  0.94
      L1  H    12    26       P1  7948  0.94

> <Gold.Chemscore.Hbond.Weighted>
-6.3504

> <Gold.Chemscore.Metal.Weighted>
-0.0000

> <Gold.Chemscore.Lipo.Weighted>
-9.1089

> <Gold.Chemscore.Internal_Hbond.Weighted>
0.0000

> <Gold.Chemscore.DEClash.Weighted>
0.0654

> <Gold.Chemscore.DEInternal.Weighted>
0.8184

> <Gold.Chemscore.Rot.Weighted>
4.3534

> <Gold.Chemscore.Internal.Correction.Weighted>
   9.000000E+99

> <Gold.Protein.RotatedTorsions>
[ 6907 6896 6895 6894 ] final -106.12 input  -60.11 | X-H torsion
[ 7974 7965 7964 7962 ] final -165.25 input  175.53 | X-H torsion
[ 8008 7997 7996 7995 ] final  -99.10 input   59.86 | X-H torsion
[ 10167 10162 10161 10158 ] final   29.53 input  -65.29 | X-H torsion
[ 10718 10713 10712 10709 ] final   20.79 input   66.30 | X-H torsion
[ 10763 10752 10751 10750 ] final   42.33 input  -60.55 | X-H torsion
[ 11005 11000 10999 10996 ] final  -52.47 input  -57.11 | X-H torsion

> <Gold.Protein.ActiveResidues>
 VAL166  LYS551  ARG553  GLY616  TRP617  ASP618  TYR619  PRO620  LYS621  CYS622 
 ASP623  PHE694  ASN695  SER759  ASP760  ASP761  ALA762  ILE779  LEU786  VAL792 
 PHE793  MET794  SER795  GLU796  ALA797  LYS798  CYS799  TRP800  GLU811  SER814 

> <Gold.Protein.RotatedAtoms>
  150.7372  134.0024  159.3642 H   0  0  0  0  0  0  0  0  0  0  0  0  # atno 6907 bound_to 6896
  151.7979  135.0715  160.0405 H   0  0  0  0  0  0  0  0  0  0  0  0  # atno 6908 bound_to 6896
  152.3162  133.5768  159.5750 H   0  0  0  0  0  0  0  0  0  0  0  0  # atno 6909 bound_to 6896
  144.7275  140.2841  143.6231 H   0  0  0  0  0  0  0  0  0  0  0  0  # atno 7974 bound_to 7965
  154.8102  140.0450  157.1337 H   0  0  0  0  0  0  0  0  0  0  0  0  # atno 8008 bound_to 7997
  154.9378  140.3048  155.5116 H   0  0  0  0  0  0  0  0  0  0  0  0  # atno 8009 bound_to 7997
  156.2971  140.2311  156.4444 H   0  0  0  0  0  0  0  0  0  0  0  0  # atno 8010 bound_to 7997
  140.4758  144.0692  150.6250 H   0  0  0  0  0  0  0  0  0  0  0  0  # atno 10167 bound_to 10162
  157.1294  130.6584  149.5947 H   0  0  0  0  0  0  0  0  0  0  0  0  # atno 10718 bound_to 10713
  152.9886  135.6135  154.2931 H   0  0  0  0  0  0  0  0  0  0  0  0  # atno 10763 bound_to 10752
  154.2655  135.2781  155.2762 H   0  0  0  0  0  0  0  0  0  0  0  0  # atno 10764 bound_to 10752
  154.5168  135.5826  153.6705 H   0  0  0  0  0  0  0  0  0  0  0  0  # atno 10765 bound_to 10752
  141.0926  133.6630  156.4029 H   0  0  0  0  0  0  0  0  0  0  0  0  # atno 11005 bound_to 11000
  145.7920  139.1930  143.2097 LP  0  0  0  0  0  0  0  0  0  0  0  0  # atno 17320 bound_to 7965
  146.0748  140.7829  142.9670 LP  0  0  0  0  0  0  0  0  0  0  0  0  # atno 17321 bound_to 7965
  140.3920  143.2747  152.0049 LP  0  0  0  0  0  0  0  0  0  0  0  0  # atno 17342 bound_to 10162
  139.4825  144.6069  151.7505 LP  0  0  0  0  0  0  0  0  0  0  0  0  # atno 17343 bound_to 10162
  155.9811  130.4816  150.6810 LP  0  0  0  0  0  0  0  0  0  0  0  0  # atno 17370 bound_to 10713
  157.4406  131.0861  151.0947 LP  0  0  0  0  0  0  0  0  0  0  0  0  # atno 17371 bound_to 10713
  140.5217  134.6298  157.5320 LP  0  0  0  0  0  0  0  0  0  0  0  0  # atno 17394 bound_to 11000
  139.9755  134.7223  155.9959 LP  0  0  0  0  0  0  0  0  0  0  0  0  # atno 17395 bound_to 11000

$$$$
