AV-unprocessed.smi:651|AV-procd|sdf|3185|dock5
  -GOLD-   22720 0113D 1   1.00000     0.00000
 Structure written by MMmdl.
 38 39  0  0  0  0  0  0  0  0  1 V2000
  153.4005  143.2407  163.2485 C   0  0  0  0  0  0  0  0  0  0  0  0
  153.1570  142.6033  161.8968 C   0  0  0  0  0  0  0  0  0  0  0  0
  153.8274  141.4193  161.5235 C   0  0  0  0  0  0  0  0  0  0  0  0
  153.5615  140.8696  160.2545 C   0  0  0  0  0  0  0  0  0  0  0  0
  152.6389  141.5221  159.4104 C   0  0  0  0  0  0  0  0  0  0  0  0
  152.3079  140.9644  158.0359 C   0  0  0  0  0  0  0  0  0  0  0  0
  150.8127  141.0857  157.7289 C   0  0  0  0  0  0  0  0  0  0  0  0
  150.0114  141.2691  158.6447 O   0  0  0  0  0  0  0  0  0  0  0  0
  150.4464  140.9606  156.4435 N   0  0  0  0  0  0  0  0  0  0  0  0
  149.0731  141.0297  155.9434 C   0  0  1  0  0  0  0  0  0  0  0  0
  148.8999  142.2044  154.9617 C   0  0  0  0  0  0  0  0  0  0  0  0
  148.0630  141.6840  153.7865 C   0  0  0  0  0  0  0  0  0  0  0  0
  147.5426  140.3110  154.2195 C   0  0  0  0  0  0  0  0  0  0  0  0
  148.5888  139.7570  155.1985 C   0  0  1  0  0  0  0  0  0  0  0  0
  149.6903  138.9776  154.4472 C   0  0  0  0  0  0  0  0  0  0  0  0
  149.3221  137.8492  153.8353 N   0  0  0  0  0  0  0  0  0  0  0  0
  150.8526  139.3790  154.4238 O   0  0  0  0  0  0  0  0  0  0  0  0
  152.0272  142.7048  159.8783 C   0  0  0  0  0  0  0  0  0  0  0  0
  152.2749  143.2377  161.0936 N   0  0  0  0  0  0  0  0  0  0  0  0
  153.9264  142.5582  163.9169 H   0  0  0  0  0  0  0  0  0  0  0  0
  152.4558  143.5144  163.7195 H   0  0  0  0  0  0  0  0  0  0  0  0
  154.0028  144.1425  163.1366 H   0  0  0  0  0  0  0  0  0  0  0  0
  154.5281  140.9409  162.1919 H   0  0  0  0  0  0  0  0  0  0  0  0
  154.0535  139.9616  159.9382 H   0  0  0  0  0  0  0  0  0  0  0  0
  152.8740  141.4955  157.2696 H   0  0  0  0  0  0  0  0  0  0  0  0
  152.6132  139.9181  157.9869 H   0  0  0  0  0  0  0  0  0  0  0  0
  151.1722  140.8039  155.7590 H   0  0  0  0  0  0  0  0  0  0  0  0
  148.4008  141.2038  156.7860 H   0  0  0  0  0  0  0  0  0  0  0  0
  148.4029  143.0397  155.4564 H   0  0  0  0  0  0  0  0  0  0  0  0
  149.8586  142.5747  154.5952 H   0  0  0  0  0  0  0  0  0  0  0  0
  147.2518  142.3635  153.5240 H   0  0  0  0  0  0  0  0  0  0  0  0
  148.6949  141.5791  152.9037 H   0  0  0  0  0  0  0  0  0  0  0  0
  146.5913  140.4295  154.7401 H   0  0  0  0  0  0  0  0  0  0  0  0
  147.3596  139.6565  153.3658 H   0  0  0  0  0  0  0  0  0  0  0  0
  148.1114  139.0764  155.9057 H   0  0  0  0  0  0  0  0  0  0  0  0
  150.0041  137.3050  153.3270 H   0  0  0  0  0  0  0  0  0  0  0  0
  148.3600  137.5462  153.8803 H   0  0  0  0  0  0  0  0  0  0  0  0
  151.3129  143.2344  159.2651 H   0  0  0  0  0  0  0  0  0  0  0  0
  1  2  1  0  0  0  0
  1 20  1  0  0  0  0
  1 21  1  0  0  0  0
  1 22  1  0  0  0  0
  2 19  1  0  0  0  0
  2  3  2  0  0  0  0
  3  4  1  0  0  0  0
  3 23  1  0  0  0  0
  4  5  2  0  0  0  0
  4 24  1  0  0  0  0
  5  6  1  0  0  0  0
  5 18  1  0  0  0  0
  6  7  1  0  0  0  0
  6 25  1  0  0  0  0
  6 26  1  0  0  0  0
  7  8  2  0  0  0  0
  7  9  1  0  0  0  0
  9 10  1  0  0  0  0
  9 27  1  0  0  0  0
 10 14  1  0  0  0  0
 10 11  1  0  0  0  0
 10 28  1  0  0  0  0
 11 12  1  0  0  0  0
 11 29  1  0  0  0  0
 11 30  1  0  0  0  0
 12 13  1  0  0  0  0
 12 31  1  0  0  0  0
 12 32  1  0  0  0  0
 13 14  1  0  0  0  0
 13 33  1  0  0  0  0
 13 34  1  0  0  0  0
 14 15  1  0  0  0  0
 14 35  1  0  0  0  0
 15 16  1  0  0  0  0
 15 17  2  0  0  0  0
 16 36  1  0  0  0  0
 16 37  1  0  0  0  0
 18 19  2  0  0  0  0
 18 38  1  0  0  0  0
M  END
> <s_m_source_file>
AV-unprocessed.smi

> <i_m_source_file_index>
651

> <i_lp_mmshare_version>
43012

> <i_f3d_flags>
0

> <s_epik_input>
W0NIM11jMVtjSF1bY0hdYyhbY0hdbjEpW0NIMl1DKD1PKVtOSF1bQ0BASF0yW0NIMl1bQ0gyXVtDSDJdW0NASF0yQyg9TylbTkgyXQ==

> <s_epik_cmdline>
J2VwaWtfcHl0aG9uJywgJy1waCcsICc3LjAnLCAnLXRuJywgJzgnLCAnLW1hJywgJzIwMCcsICctbWV0YWxfYmluZGluZycsICctaW1hZScsICc8aW5maWxlLm1hZT4nLCAnLW9tYWUnLCAnPG91dGZpbGUubWFlPic=

> <r_epik_Ionization_Penalty>
0.0159502

> <r_epik_Ionization_Penalty_Charging>
0

> <r_epik_Ionization_Penalty_Neutral>
0.0159502

> <r_epik_State_Penalty>
0.012563

> <r_epik_Charging_Adjusted_Penalty>
0.012563

> <i_epik_Tot_Q>
0

> <i_epik_Tot_abs_Q>
0

> <r_epik_Metal_State_Penalty>
0.0122326

> <b_epik_Metal_Only>
0

> <s_lp_Force_Field>
OPLS_2005

> <r_lp_Energy>
12.2285

> <b_lp_Chiralities_Consistent>
1

> <s_lp_Variant>
AV-unprocessed.smi:651-2

> <Gold.Version>
5.8.1

> <Gold.Id.Protein>
6NUR|6NUR_protein|mol2

> <Gold.PLP.Fitness>
37.8750

> <Gold.PLP.PLP>
-35.4424

> <Gold.PLP.part.hbond>
-2.3925

> <Gold.PLP.part.metal>
0.0000

> <Gold.PLP.part.buried>
-1.6670

> <Gold.PLP.part.nonpolar>
-30.6435

> <Gold.PLP.part.repulsive>
0.3230

> <Gold.PLP.ligand.clash>
0.0000

> <Gold.PLP.ligand.torsion>
0.5533

> <Gold.PLP.Chemscore.Hbond>
1.1687

> <Gold.PLP.Chemscore.CHOScore>
0.0000

> <Gold.PLP.Chemscore.Metal>
0.0000

> <Gold.Chemscore.Hbonds>
donor molecule, donor type, donor heavy atom, donor atom, acceptor molecule, acceptor atom, score
      L1  H    16    36       P1  7948  0.17
      P1  H  7989  7998       L1    17  1.00

> <Gold.PLP.Chemscore.Internal.Correction>
0.0330

> <Gold.Rescore>
     Score         DG    S(hbond)    S(metal)    S(lipo)     H(rot)  DE(clash)    DE(int)     intcor
     11.46     -15.77       1.05        0.00     101.00       1.97       0.68       3.62       ----

> <Gold.Chemscore.Fitness>
11.4568

> <Gold.Chemscore.DG>
-15.7651

> <Gold.Chemscore.ZeroCoef>
-5.4800

> <Gold.Chemscore.Hbond>
1.0515

> <Gold.Chemscore.Metal>
0.0000

> <Gold.Chemscore.Lipo>
101.0042

> <Gold.Chemscore.Internal_Hbond>
0.0000

> <Gold.Chemscore.DEClash>
0.6837

> <Gold.Chemscore.DEInternal>
3.6246

> <Gold.Chemscore.Rot>
1.9704

> <Gold.Chemscore.Internal.Correction>
   9.000000E+99

> <Gold.Chemscore.Hbonds>
donor molecule, donor type, donor heavy atom, donor atom, acceptor molecule, acceptor atom, score
      L1  H    16    36       P1  7948  0.05
      P1  H  7989  7998       L1    17  1.00

> <Gold.Chemscore.Hbond.Weighted>
-3.5119

> <Gold.Chemscore.Metal.Weighted>
-0.0000

> <Gold.Chemscore.Lipo.Weighted>
-11.8175

> <Gold.Chemscore.Internal_Hbond.Weighted>
0.0000

> <Gold.Chemscore.DEClash.Weighted>
0.6837

> <Gold.Chemscore.DEInternal.Weighted>
3.6246

> <Gold.Chemscore.Rot.Weighted>
5.0443

> <Gold.Chemscore.Internal.Correction.Weighted>
   9.000000E+99

> <Gold.Protein.RotatedTorsions>
[ 6907 6896 6895 6894 ] final   26.87 input  -60.11 | X-H torsion
[ 7974 7965 7964 7962 ] final    3.47 input  175.53 | X-H torsion
[ 8008 7997 7996 7995 ] final  161.74 input   59.86 | X-H torsion
[ 10167 10162 10161 10158 ] final  143.67 input  -65.29 | X-H torsion
[ 10718 10713 10712 10709 ] final   16.65 input   66.30 | X-H torsion
[ 10763 10752 10751 10750 ] final  -28.79 input  -60.55 | X-H torsion
[ 11005 11000 10999 10996 ] final   91.61 input  -57.11 | X-H torsion

> <Gold.Protein.ActiveResidues>
 VAL166  LYS551  ARG553  GLY616  TRP617  ASP618  TYR619  PRO620  LYS621  CYS622 
 ASP623  PHE694  ASN695  SER759  ASP760  ASP761  ALA762  ILE779  LEU786  VAL792 
 PHE793  MET794  SER795  GLU796  ALA797  LYS798  CYS799  TRP800  GLU811  SER814 

> <Gold.Protein.RotatedAtoms>
  151.9939  134.9965  160.0562 H   0  0  0  0  0  0  0  0  0  0  0  0  # atno 6907 bound_to 6896
  152.1583  133.4561  159.4856 H   0  0  0  0  0  0  0  0  0  0  0  0  # atno 6908 bound_to 6896
  150.6884  134.2021  159.4369 H   0  0  0  0  0  0  0  0  0  0  0  0  # atno 6909 bound_to 6896
  146.2445  140.0680  142.8364 H   0  0  0  0  0  0  0  0  0  0  0  0  # atno 7974 bound_to 7965
  156.2082  140.1769  156.7754 H   0  0  0  0  0  0  0  0  0  0  0  0  # atno 8008 bound_to 7997
  154.5684  140.0687  156.8957 H   0  0  0  0  0  0  0  0  0  0  0  0  # atno 8009 bound_to 7997
  155.2718  140.3343  155.4267 H   0  0  0  0  0  0  0  0  0  0  0  0  # atno 8010 bound_to 7997
  139.4964  144.6024  151.6452 H   0  0  0  0  0  0  0  0  0  0  0  0  # atno 10167 bound_to 10162
  157.0709  130.6348  149.5805 H   0  0  0  0  0  0  0  0  0  0  0  0  # atno 10718 bound_to 10713
  153.7541  135.6924  153.4939 H   0  0  0  0  0  0  0  0  0  0  0  0  # atno 10763 bound_to 10752
  153.1983  135.4446  155.0234 H   0  0  0  0  0  0  0  0  0  0  0  0  # atno 10764 bound_to 10752
  154.8177  135.3406  154.7060 H   0  0  0  0  0  0  0  0  0  0  0  0  # atno 10765 bound_to 10752
  139.8836  134.8684  156.3452 H   0  0  0  0  0  0  0  0  0  0  0  0  # atno 11005 bound_to 11000
  145.0841  140.9241  143.4808 LP  0  0  0  0  0  0  0  0  0  0  0  0  # atno 17320 bound_to 7965
  145.0839  139.2939  143.5769 LP  0  0  0  0  0  0  0  0  0  0  0  0  # atno 17321 bound_to 7965
  140.5677  144.0161  150.6201 LP  0  0  0  0  0  0  0  0  0  0  0  0  # atno 17342 bound_to 10162
  140.3268  143.3102  152.0728 LP  0  0  0  0  0  0  0  0  0  0  0  0  # atno 17343 bound_to 10162
  155.9950  130.5016  150.7444 LP  0  0  0  0  0  0  0  0  0  0  0  0  # atno 17370 bound_to 10713
  157.4878  131.0908  151.0462 LP  0  0  0  0  0  0  0  0  0  0  0  0  # atno 17371 bound_to 10713
  140.9631  133.7375  156.0429 LP  0  0  0  0  0  0  0  0  0  0  0  0  # atno 17394 bound_to 11000
  140.7964  134.3558  157.5451 LP  0  0  0  0  0  0  0  0  0  0  0  0  # atno 17395 bound_to 11000

$$$$
