AV-unprocessed.smi:54|AV-procd|sdf|556|dock1
  -GOLD-   2262016453D 1   1.00000     0.00000
 Structure written by MMmdl.
 43 45  0  0  0  0  0  0  0  0  2 V2000
  151.9352  144.4884  158.6887 C   0  0  0  0  0  0  0  0  0  0  0  0
  151.8870  143.0568  159.2473 C   0  0  0  0  0  0  0  0  0  0  0  0
  153.1513  142.7319  160.0601 C   0  0  0  0  0  0  0  0  0  0  0  0
  151.6911  142.0386  158.1152 C   0  0  0  0  0  0  0  0  0  0  0  0
  151.1523  142.4024  157.0676 O   0  0  0  0  0  0  0  0  0  0  0  0
  152.1279  140.7882  158.3827 N   0  0  0  0  0  0  0  0  0  0  0  0
  152.0636  139.6422  157.5826 C   0  0  0  0  0  0  0  0  0  0  0  0
  150.8668  139.4234  157.0964 N   0  0  0  0  0  0  0  0  0  0  0  0
  150.8088  138.2924  156.3054 C   0  0  0  0  0  0  0  0  0  0  0  0
  151.8252  137.4223  156.0190 C   0  0  0  0  0  0  0  0  0  0  0  0
  151.3976  136.3957  155.1855 N   0  0  0  0  0  0  0  0  0  0  0  0
  150.1145  136.7023  155.0032 C   0  0  0  0  0  0  0  0  0  0  0  0
  149.6866  137.8138  155.6335 N   0  0  0  0  0  0  0  0  0  0  0  0
  148.3013  138.3752  155.5899 C   0  0  1  0  0  0  0  0  0  0  0  0
  148.3955  139.7441  155.3479 O   0  0  0  0  0  0  0  0  0  0  0  0
  147.3680  140.1395  154.4524 C   0  0  1  0  0  0  0  0  0  0  0  0
  147.7248  141.4757  153.7773 C   0  0  0  0  0  0  0  0  0  0  0  0
  149.0120  141.4083  153.2010 O   0  0  0  0  0  0  0  0  0  0  0  0
  147.1684  138.9216  153.5368 C   0  0  1  0  0  0  0  0  0  0  0  0
  148.0419  138.9443  152.4244 O   0  0  0  0  0  0  0  0  0  0  0  0
  147.4874  137.7389  154.4478 C   0  0  2  0  0  0  0  0  0  0  0  0
  146.2836  137.1816  154.9374 O   0  0  0  0  0  0  0  0  0  0  0  0
  153.1476  137.7141  156.6213 C   0  0  0  0  0  0  0  0  0  0  0  0
  154.0876  136.9539  156.3973 O   0  0  0  0  0  0  0  0  0  0  0  0
  153.2049  138.8370  157.3980 N   0  5  0  0  0  0  0  0  0  0  0  0
  147.8898  138.1873  156.5828 H   0  0  0  0  0  0  0  0  0  0  0  0
  146.4662  140.2716  155.0530 H   0  0  0  0  0  0  0  0  0  0  0  0
  146.1507  138.8851  153.1453 H   0  0  0  0  0  0  0  0  0  0  0  0
  148.0576  136.9592  153.9392 H   0  0  0  0  0  0  0  0  0  0  0  0
  151.0413  144.7169  158.1069 H   0  0  0  0  0  0  0  0  0  0  0  0
  152.8009  144.6386  158.0424 H   0  0  0  0  0  0  0  0  0  0  0  0
  151.9950  145.2193  159.4953 H   0  0  0  0  0  0  0  0  0  0  0  0
  151.0316  142.9915  159.9219 H   0  0  0  0  0  0  0  0  0  0  0  0
  153.1197  141.7142  160.4511 H   0  0  0  0  0  0  0  0  0  0  0  0
  153.2505  143.4063  160.9111 H   0  0  0  0  0  0  0  0  0  0  0  0
  154.0538  142.8289  159.4555 H   0  0  0  0  0  0  0  0  0  0  0  0
  152.4795  140.6547  159.3190 H   0  0  0  0  0  0  0  0  0  0  0  0
  149.4634  136.0986  154.3881 H   0  0  0  0  0  0  0  0  0  0  0  0
  147.0068  141.6917  152.9859 H   0  0  0  0  0  0  0  0  0  0  0  0
  147.6762  142.3073  154.4810 H   0  0  0  0  0  0  0  0  0  0  0  0
  149.0416  140.6630  152.6205 H   0  0  0  0  0  0  0  0  0  0  0  0
  148.5253  138.1326  152.4080 H   0  0  0  0  0  0  0  0  0  0  0  0
  146.4578  136.2987  155.2254 H   0  0  0  0  0  0  0  0  0  0  0  0
  1  2  1  0  0  0  0
  1 30  1  0  0  0  0
  1 31  1  0  0  0  0
  1 32  1  0  0  0  0
  2  3  1  0  0  0  0
  2  4  1  0  0  0  0
  2 33  1  0  0  0  0
  3 34  1  0  0  0  0
  3 35  1  0  0  0  0
  3 36  1  0  0  0  0
  4  5  2  0  0  0  0
  4  6  1  0  0  0  0
  6 37  1  0  0  0  0
  6  7  1  0  0  0  0
  7 25  1  0  0  0  0
  7  8  2  0  0  0  0
  8  9  1  0  0  0  0
  9 13  1  0  0  0  0
  9 10  2  0  0  0  0
 10 11  1  0  0  0  0
 10 23  1  0  0  0  0
 11 12  2  0  0  0  0
 12 13  1  0  0  0  0
 12 38  1  0  0  0  0
 13 14  1  0  0  0  0
 14 26  1  0  0  0  0
 14 21  1  0  0  0  0
 14 15  1  0  0  0  0
 15 16  1  0  0  0  0
 16 27  1  0  0  0  0
 16 17  1  0  0  0  0
 16 19  1  0  0  0  0
 17 18  1  0  0  0  0
 17 39  1  0  0  0  0
 17 40  1  0  0  0  0
 18 41  1  0  0  0  0
 19 28  1  0  0  0  0
 19 20  1  0  0  0  0
 19 21  1  0  0  0  0
 20 42  1  0  0  0  0
 21 29  1  0  0  0  0
 21 22  1  0  0  0  0
 22 43  1  0  0  0  0
 23 24  2  0  0  0  0
 23 25  1  0  0  0  0
M  CHG  1  25  -1
M  END
> <s_m_source_file>
AV-unprocessed.smi

> <i_m_source_file_index>
54

> <i_lp_mmshare_version>
43012

> <i_f3d_flags>
0

> <s_epik_input>
W0NIM11bQ0hdKFtDSDNdKUMoPU8pW05IXWMobjEpW25IXWMoPU8pYyhjMTIpbltjSF1uMltDQEBIXTNPW0NASF0oW0NIMl1bT0hdKVtDQEBIXShbT0hdKVtDQEhdM1tPSF0=

> <s_epik_cmdline>
J2VwaWtfcHl0aG9uJywgJy1waCcsICc3LjAnLCAnLXRuJywgJzgnLCAnLW1hJywgJzIwMCcsICctbWV0YWxfYmluZGluZycsICctaW1hZScsICc8aW5maWxlLm1hZT4nLCAnLW9tYWUnLCAnPG91dGZpbGUubWFlPic=

> <r_lp_tautomer_probability>
0.85571

> <r_epik_Ionization_Penalty>
1.75936

> <r_epik_Ionization_Penalty_Charging>
4.55893e-11

> <r_epik_Ionization_Penalty_Neutral>
1.75936

> <r_epik_State_Penalty>
1.72072

> <r_epik_Charging_Adjusted_Penalty>
1.72072

> <i_epik_Tot_Q>
-1

> <i_epik_Tot_abs_Q>
1

> <r_epik_Metal_State_Penalty>
0.400338

> <b_epik_Metal_Only>
1

> <s_epik_Chemistry_Notes>
This compound contains an acetal/aminal-like group ( X-CH(R)-Y where X, Y are N, S, or O) that may be acid/base labile, releasing an aldehyde.

> <s_lp_Force_Field>
OPLS_2005

> <r_lp_Energy>
57.3422

> <b_lp_Chiralities_Consistent>
1

> <s_lp_Variant>
AV-unprocessed.smi:54-28

> <Gold.Version>
5.8.1

> <Gold.Id.Protein>
6NUR|6NUR_protein|mol2

> <Gold.PLP.Fitness>
52.0512

> <Gold.PLP.PLP>
-32.9705

> <Gold.PLP.part.hbond>
-6.9226

> <Gold.PLP.part.metal>
0.0000

> <Gold.PLP.part.buried>
-4.8947

> <Gold.PLP.part.nonpolar>
-21.6664

> <Gold.PLP.part.repulsive>
0.3365

> <Gold.PLP.ligand.clash>
0.0000

> <Gold.PLP.ligand.torsion>
1.5054

> <Gold.PLP.Chemscore.Hbond>
6.3584

> <Gold.PLP.Chemscore.CHOScore>
0.9882

> <Gold.PLP.Chemscore.Metal>
0.0000

> <Gold.Chemscore.Hbonds>
donor molecule, donor type, donor heavy atom, donor atom, acceptor molecule, acceptor atom, score
      L1  H    18    41       P1  7957  0.91
      L1  H    20    42       P1  7948  1.00
      P1  H  7997  8009       L1    25  2.00
      P1  H  8011  8017       L1    18  0.94
      P1  H 10752 10763       L1    11  0.99
      P1  H 10752 10764       L1    24  0.51
      L1  C    12    38       P1  7948  0.94

> <Gold.PLP.Chemscore.Internal.Correction>
0.0518

> <Gold.Rescore>
     Score         DG    S(hbond)    S(metal)    S(lipo)     H(rot)  DE(clash)    DE(int)     intcor
     13.38     -15.61       4.01        0.00      60.07       4.02       0.36       1.87       ----

> <Gold.Chemscore.Fitness>
13.3792

> <Gold.Chemscore.DG>
-15.6097

> <Gold.Chemscore.ZeroCoef>
-5.4800

> <Gold.Chemscore.Hbond>
4.0092

> <Gold.Chemscore.Metal>
0.0000

> <Gold.Chemscore.Lipo>
60.0716

> <Gold.Chemscore.Internal_Hbond>
0.0000

> <Gold.Chemscore.DEClash>
0.3600

> <Gold.Chemscore.DEInternal>
1.8704

> <Gold.Chemscore.Rot>
4.0192

> <Gold.Chemscore.Internal.Correction>
   9.000000E+99

> <Gold.Chemscore.Hbonds>
donor molecule, donor type, donor heavy atom, donor atom, acceptor molecule, acceptor atom, score
      L1  H    18    41       P1  7957  0.89
      L1  H    20    42       P1  7948  0.96
      P1  H  7997  8009       L1    25  0.22
      P1  H  8011  8017       L1    18  0.19
      P1  H 10752 10763       L1    11  0.61
      P1  H 10752 10764       L1    24  0.49

> <Gold.Chemscore.Hbond.Weighted>
-13.3906

> <Gold.Chemscore.Metal.Weighted>
-0.0000

> <Gold.Chemscore.Lipo.Weighted>
-7.0284

> <Gold.Chemscore.Internal_Hbond.Weighted>
0.0000

> <Gold.Chemscore.DEClash.Weighted>
0.3600

> <Gold.Chemscore.DEInternal.Weighted>
1.8704

> <Gold.Chemscore.Rot.Weighted>
10.2893

> <Gold.Chemscore.Internal.Correction.Weighted>
   9.000000E+99

> <Gold.Protein.RotatedTorsions>
[ 6907 6896 6895 6894 ] final -160.36 input  -60.11 | X-H torsion
[ 7974 7965 7964 7962 ] final  121.86 input  175.53 | X-H torsion
[ 8008 7997 7996 7995 ] final -179.18 input   59.86 | X-H torsion
[ 10167 10162 10161 10158 ] final -142.97 input  -65.29 | X-H torsion
[ 10718 10713 10712 10709 ] final  106.48 input   66.30 | X-H torsion
[ 10763 10752 10751 10750 ] final   41.46 input  -60.55 | X-H torsion
[ 11005 11000 10999 10996 ] final   -7.80 input  -57.11 | X-H torsion

> <Gold.Protein.ActiveResidues>
 VAL166  LYS551  ARG553  GLY616  TRP617  ASP618  TYR619  PRO620  LYS621  CYS622 
 ASP623  PHE694  ASN695  SER759  ASP760  ASP761  ALA762  ILE779  LEU786  VAL792 
 PHE793  MET794  SER795  GLU796  ALA797  LYS798  CYS799  TRP800  GLU811  SER814 

> <Gold.Protein.RotatedAtoms>
  151.3478  133.3937  159.2677 H   0  0  0  0  0  0  0  0  0  0  0  0  # atno 6907 bound_to 6896
  150.9826  134.9178  159.7863 H   0  0  0  0  0  0  0  0  0  0  0  0  # atno 6908 bound_to 6896
  152.5222  134.3442  159.9280 H   0  0  0  0  0  0  0  0  0  0  0  0  # atno 6909 bound_to 6896
  145.1143  139.3431  143.4747 H   0  0  0  0  0  0  0  0  0  0  0  0  # atno 7974 bound_to 7965
  156.0275  140.1274  157.0293 H   0  0  0  0  0  0  0  0  0  0  0  0  # atno 8008 bound_to 7997
  154.4336  140.1056  156.6121 H   0  0  0  0  0  0  0  0  0  0  0  0  # atno 8009 bound_to 7997
  155.5856  140.3468  155.4554 H   0  0  0  0  0  0  0  0  0  0  0  0  # atno 8010 bound_to 7997
  139.8038  143.7797  152.2660 H   0  0  0  0  0  0  0  0  0  0  0  0  # atno 10167 bound_to 10162
  157.6666  131.0851  150.6013 H   0  0  0  0  0  0  0  0  0  0  0  0  # atno 10718 bound_to 10713
  152.9908  135.6161  154.2790 H   0  0  0  0  0  0  0  0  0  0  0  0  # atno 10763 bound_to 10752
  154.2520  135.2785  155.2814 H   0  0  0  0  0  0  0  0  0  0  0  0  # atno 10764 bound_to 10752
  154.5279  135.5796  153.6792 H   0  0  0  0  0  0  0  0  0  0  0  0  # atno 10765 bound_to 10752
  140.7166  133.8863  155.8790 H   0  0  0  0  0  0  0  0  0  0  0  0  # atno 11005 bound_to 11000
  146.3524  140.1076  142.8605 LP  0  0  0  0  0  0  0  0  0  0  0  0  # atno 17320 bound_to 7965
  145.0811  140.9222  143.4824 LP  0  0  0  0  0  0  0  0  0  0  0  0  # atno 17321 bound_to 7965
  139.7925  144.7405  150.9936 LP  0  0  0  0  0  0  0  0  0  0  0  0  # atno 17342 bound_to 10162
  140.7819  143.4428  151.0527 LP  0  0  0  0  0  0  0  0  0  0  0  0  # atno 17343 bound_to 10162
  156.6314  130.4433  149.5785 LP  0  0  0  0  0  0  0  0  0  0  0  0  # atno 17370 bound_to 10713
  156.2279  130.6777  151.1434 LP  0  0  0  0  0  0  0  0  0  0  0  0  # atno 17371 bound_to 10713
  141.0039  134.1113  157.4290 LP  0  0  0  0  0  0  0  0  0  0  0  0  # atno 17394 bound_to 11000
  139.8858  135.0076  156.6459 LP  0  0  0  0  0  0  0  0  0  0  0  0  # atno 17395 bound_to 11000

$$$$
