AV-unprocessed.smi:283|AV-procd|sdf|2137|dock1
  -GOLD-   2262021453D 1   1.00000     0.00000
 Structure written by MMmdl.
 48 51  0  0  0  0  0  0  0  0  1 V2000
  149.7183  141.5408  156.9048 C   0  0  0  0  0  0  0  0  0  0  0  0
  151.2362  141.7641  156.9187 C   0  0  2  0  0  0  0  0  0  0  0  0
  151.9296  140.4806  156.8210 N   0  0  0  0  0  0  0  0  0  0  0  0
  151.4814  139.5107  155.9926 C   0  0  0  0  0  0  0  0  0  0  0  0
  150.8627  139.8158  154.8218 N   0  0  0  0  0  0  0  0  0  0  0  0
  150.4272  138.8388  154.0213 C   0  0  0  0  0  0  0  0  0  0  0  0
  150.5061  137.5178  154.1980 N   0  0  0  0  0  0  0  0  0  0  0  0
  151.1249  137.2067  155.3741 C   0  0  0  0  0  0  0  0  0  0  0  0
  151.6332  138.1388  156.3204 C   0  0  0  0  0  0  0  0  0  0  0  0
  152.1862  137.4599  157.3970 N   0  0  0  0  0  0  0  0  0  0  0  0
  152.0069  136.2004  157.1015 C   0  0  0  0  0  0  0  0  0  0  0  0
  151.3884  135.9557  155.8908 N   0  0  0  0  0  0  0  0  0  0  0  0
  150.9985  134.6548  155.2470 C   0  0  2  0  0  0  0  0  0  0  0  0
  149.6317  134.6953  154.9931 O   0  0  0  0  0  0  0  0  0  0  0  0
  148.9270  134.2316  156.1359 C   0  0  1  0  0  0  0  0  0  0  0  0
  147.5224  133.7622  155.7273 C   0  0  0  0  0  0  0  0  0  0  0  0
  147.6136  132.7542  154.7434 O   0  0  0  0  0  0  0  0  0  0  0  0
  149.8228  133.0957  156.6574 C   0  0  2  0  0  0  0  0  0  0  0  0
  149.7679  133.0495  158.0699 O   0  0  0  0  0  0  0  0  0  0  0  0
  151.2343  133.4569  156.1816 C   0  0  1  0  0  0  0  0  0  0  0  0
  151.8178  132.3755  155.4840 O   0  0  0  0  0  0  0  0  0  0  0  0
  151.6425  142.6084  158.1290 C   0  0  0  0  0  0  0  0  0  0  0  0
  151.2881  143.9768  158.1802 C   0  0  0  0  0  0  0  0  0  0  0  0
  151.6511  144.7721  159.2832 C   0  0  0  0  0  0  0  0  0  0  0  0
  152.3792  144.2083  160.3461 C   0  0  0  0  0  0  0  0  0  0  0  0
  152.7468  142.8509  160.3011 C   0  0  0  0  0  0  0  0  0  0  0  0
  152.3861  142.0498  159.1989 C   0  0  0  0  0  0  0  0  0  0  0  0
  152.8760  140.3916  159.1927 Cl  0  0  0  0  0  0  0  0  0  0  0  0
  151.5792  134.6161  154.3247 H   0  0  0  0  0  0  0  0  0  0  0  0
  148.8655  135.0353  156.8720 H   0  0  0  0  0  0  0  0  0  0  0  0
  149.5056  132.1367  156.2438 H   0  0  0  0  0  0  0  0  0  0  0  0
  151.9073  133.7309  156.9951 H   0  0  0  0  0  0  0  0  0  0  0  0
  149.1833  142.4909  156.8935 H   0  0  0  0  0  0  0  0  0  0  0  0
  149.3896  140.9843  157.7832 H   0  0  0  0  0  0  0  0  0  0  0  0
  149.4115  140.9813  156.0207 H   0  0  0  0  0  0  0  0  0  0  0  0
  151.4872  142.3084  156.0090 H   0  0  0  0  0  0  0  0  0  0  0  0
  152.8299  140.4349  157.2762 H   0  0  0  0  0  0  0  0  0  0  0  0
  149.9471  139.1617  153.1092 H   0  0  0  0  0  0  0  0  0  0  0  0
  152.3271  135.4169  157.7715 H   0  0  0  0  0  0  0  0  0  0  0  0
  146.9566  133.4041  156.5878 H   0  0  0  0  0  0  0  0  0  0  0  0
  146.9625  134.5912  155.2937 H   0  0  0  0  0  0  0  0  0  0  0  0
  146.8879  132.8498  154.1458 H   0  0  0  0  0  0  0  0  0  0  0  0
  148.9124  133.3365  158.3491 H   0  0  0  0  0  0  0  0  0  0  0  0
  151.8061  131.6148  156.0447 H   0  0  0  0  0  0  0  0  0  0  0  0
  150.7324  144.4260  157.3701 H   0  0  0  0  0  0  0  0  0  0  0  0
  151.3719  145.8150  159.3125 H   0  0  0  0  0  0  0  0  0  0  0  0
  152.6589  144.8168  161.1935 H   0  0  0  0  0  0  0  0  0  0  0  0
  153.3103  142.4225  161.1169 H   0  0  0  0  0  0  0  0  0  0  0  0
  1  2  1  0  0  0  0
  1 33  1  0  0  0  0
  1 34  1  0  0  0  0
  1 35  1  0  0  0  0
  2  3  1  0  0  0  0
  2 22  1  0  0  0  0
  2 36  1  0  0  0  0
  3  4  1  0  0  0  0
  3 37  1  0  0  0  0
  4  9  1  0  0  0  0
  4  5  2  0  0  0  0
  5  6  1  0  0  0  0
  6  7  2  0  0  0  0
  6 38  1  0  0  0  0
  7  8  1  0  0  0  0
  8 12  1  0  0  0  0
  8  9  2  0  0  0  0
  9 10  1  0  0  0  0
 10 11  2  0  0  0  0
 11 12  1  0  0  0  0
 11 39  1  0  0  0  0
 12 13  1  0  0  0  0
 13 29  1  0  0  0  0
 13 20  1  0  0  0  0
 13 14  1  0  0  0  0
 14 15  1  0  0  0  0
 15 30  1  0  0  0  0
 15 16  1  0  0  0  0
 15 18  1  0  0  0  0
 16 17  1  0  0  0  0
 16 40  1  0  0  0  0
 16 41  1  0  0  0  0
 17 42  1  0  0  0  0
 18 31  1  0  0  0  0
 18 19  1  0  0  0  0
 18 20  1  0  0  0  0
 19 43  1  0  0  0  0
 20 32  1  0  0  0  0
 20 21  1  0  0  0  0
 21 44  1  0  0  0  0
 22 27  1  0  0  0  0
 22 23  2  0  0  0  0
 23 24  1  0  0  0  0
 23 45  1  0  0  0  0
 24 25  2  0  0  0  0
 24 46  1  0  0  0  0
 25 26  1  0  0  0  0
 25 47  1  0  0  0  0
 26 27  2  0  0  0  0
 26 48  1  0  0  0  0
 27 28  1  0  0  0  0
M  END
> <s_m_source_file>
AV-unprocessed.smi

> <i_m_source_file_index>
283

> <i_lp_mmshare_version>
43012

> <i_f3d_flags>
0

> <s_epik_input>
Q2xjMVtjSF1bY0hdW2NIXVtjSF1jMVtDQEhdKFtDSDNdKVtOSF1jKG5bY0hdbjIpYyhjMjMpbltjSF1uM1tDQEBIXTRPW0NASF0oW0NIMl1bT0hdKVtDQEBIXShbT0hdKVtDQEhdNFtPSF0=

> <s_epik_cmdline>
J2VwaWtfcHl0aG9uJywgJy1waCcsICc3LjAnLCAnLXRuJywgJzgnLCAnLW1hJywgJzIwMCcsICctbWV0YWxfYmluZGluZycsICctaW1hZScsICc8aW5maWxlLm1hZT4nLCAnLW9tYWUnLCAnPG91dGZpbGUubWFlPic=

> <r_lp_tautomer_probability>
1

> <r_epik_Ionization_Penalty>
0.000266407

> <r_epik_Ionization_Penalty_Charging>
0

> <r_epik_Ionization_Penalty_Neutral>
0.000266407

> <r_epik_State_Penalty>
-0

> <r_epik_Charging_Adjusted_Penalty>
0

> <i_epik_Tot_Q>
0

> <i_epik_Tot_abs_Q>
0

> <r_epik_Metal_State_Penalty>
-0

> <b_epik_Metal_Only>
0

> <s_epik_Chemistry_Notes>
This compound contains an acetal/aminal-like group ( X-CH(R)-Y where X, Y are N, S, or O) that may be acid/base labile, releasing an aldehyde.

> <s_lp_Force_Field>
OPLS_2005

> <r_lp_Energy>
39.6204

> <b_lp_Chiralities_Consistent>
1

> <s_lp_Variant>
AV-unprocessed.smi:283-13

> <Gold.Version>
5.8.1

> <Gold.Id.Protein>
6NUR|6NUR_protein|mol2

> <Gold.PLP.Fitness>
48.8336

> <Gold.PLP.PLP>
-41.2213

> <Gold.PLP.part.hbond>
-2.0000

> <Gold.PLP.part.metal>
0.0000

> <Gold.PLP.part.buried>
-6.9328

> <Gold.PLP.part.nonpolar>
-33.1981

> <Gold.PLP.part.repulsive>
1.0822

> <Gold.PLP.ligand.clash>
0.0000

> <Gold.PLP.ligand.torsion>
0.7802

> <Gold.PLP.Chemscore.Hbond>
2.0000

> <Gold.PLP.Chemscore.CHOScore>
1.0000

> <Gold.PLP.Chemscore.Metal>
0.0000

> <Gold.Chemscore.Hbonds>
donor molecule, donor type, donor heavy atom, donor atom, acceptor molecule, acceptor atom, score
      P1  H  6896  6908       L1    19  1.00
      P1  H  7989  7998       L1     5  0.85
      L1  C     6    38       P1  7957  1.00

> <Gold.PLP.Chemscore.Internal.Correction>
0.1727

> <Gold.Rescore>
     Score         DG    S(hbond)    S(metal)    S(lipo)     H(rot)  DE(clash)    DE(int)     intcor
      7.82     -12.22       1.52        0.00     103.87       4.10       0.14       4.26       ----

> <Gold.Chemscore.Fitness>
7.8240

> <Gold.Chemscore.DG>
-12.2189

> <Gold.Chemscore.ZeroCoef>
-5.4800

> <Gold.Chemscore.Hbond>
1.5191

> <Gold.Chemscore.Metal>
0.0000

> <Gold.Chemscore.Lipo>
103.8728

> <Gold.Chemscore.Internal_Hbond>
0.0000

> <Gold.Chemscore.DEClash>
0.1390

> <Gold.Chemscore.DEInternal>
4.2559

> <Gold.Chemscore.Rot>
4.0968

> <Gold.Chemscore.Internal.Correction>
   9.000000E+99

> <Gold.Chemscore.Hbonds>
donor molecule, donor type, donor heavy atom, donor atom, acceptor molecule, acceptor atom, score
      P1  H  6896  6908       L1    19  0.55
      P1  H  7989  7998       L1     5  0.15

> <Gold.Chemscore.Hbond.Weighted>
-5.0737

> <Gold.Chemscore.Metal.Weighted>
-0.0000

> <Gold.Chemscore.Lipo.Weighted>
-12.1531

> <Gold.Chemscore.Internal_Hbond.Weighted>
0.0000

> <Gold.Chemscore.DEClash.Weighted>
0.1390

> <Gold.Chemscore.DEInternal.Weighted>
4.2559

> <Gold.Chemscore.Rot.Weighted>
10.4879

> <Gold.Chemscore.Internal.Correction.Weighted>
   9.000000E+99

> <Gold.Protein.RotatedTorsions>
[ 6907 6896 6895 6894 ] final  111.40 input  -60.11 | X-H torsion
[ 7974 7965 7964 7962 ] final  129.80 input  175.53 | X-H torsion
[ 8008 7997 7996 7995 ] final  165.00 input   59.86 | X-H torsion
[ 10167 10162 10161 10158 ] final  134.92 input  -65.29 | X-H torsion
[ 10718 10713 10712 10709 ] final  158.85 input   66.30 | X-H torsion
[ 10763 10752 10751 10750 ] final  -91.22 input  -60.55 | X-H torsion
[ 11005 11000 10999 10996 ] final  -46.17 input  -57.11 | X-H torsion

> <Gold.Protein.ActiveResidues>
 VAL166  LYS551  ARG553  GLY616  TRP617  ASP618  TYR619  PRO620  LYS621  CYS622 
 ASP623  PHE694  ASN695  SER759  ASP760  ASP761  ALA762  ILE779  LEU786  VAL792 
 PHE793  MET794  SER795  GLU796  ALA797  LYS798  CYS799  TRP800  GLU811  SER814 

> <Gold.Protein.RotatedAtoms>
  152.4971  133.8663  159.7275 H   0  0  0  0  0  0  0  0  0  0  0  0  # atno 6907 bound_to 6896
  150.9161  133.6928  159.2850 H   0  0  0  0  0  0  0  0  0  0  0  0  # atno 6908 bound_to 6896
  151.4321  135.1015  159.9698 H   0  0  0  0  0  0  0  0  0  0  0  0  # atno 6909 bound_to 6896
  145.0247  139.4099  143.5179 H   0  0  0  0  0  0  0  0  0  0  0  0  # atno 7974 bound_to 7965
  156.1836  140.1682  156.8228 H   0  0  0  0  0  0  0  0  0  0  0  0  # atno 8008 bound_to 7997
  154.5388  140.0741  156.8506 H   0  0  0  0  0  0  0  0  0  0  0  0  # atno 8009 bound_to 7997
  155.3257  140.3376  155.4242 H   0  0  0  0  0  0  0  0  0  0  0  0  # atno 8010 bound_to 7997
  139.5237  144.6543  151.5208 H   0  0  0  0  0  0  0  0  0  0  0  0  # atno 10167 bound_to 10162
  157.1722  131.0613  151.2176 H   0  0  0  0  0  0  0  0  0  0  0  0  # atno 10718 bound_to 10713
  154.6739  135.5275  153.8174 H   0  0  0  0  0  0  0  0  0  0  0  0  # atno 10763 bound_to 10752
  153.0519  135.6535  154.0682 H   0  0  0  0  0  0  0  0  0  0  0  0  # atno 10764 bound_to 10752
  154.0578  135.2964  155.3310 H   0  0  0  0  0  0  0  0  0  0  0  0  # atno 10765 bound_to 10752
  141.0562  133.6725  156.3117 H   0  0  0  0  0  0  0  0  0  0  0  0  # atno 11005 bound_to 11000
  146.3490  139.9765  142.8700 LP  0  0  0  0  0  0  0  0  0  0  0  0  # atno 17320 bound_to 7965
  145.1849  140.9784  143.4245 LP  0  0  0  0  0  0  0  0  0  0  0  0  # atno 17321 bound_to 7965
  140.6362  143.8979  150.6649 LP  0  0  0  0  0  0  0  0  0  0  0  0  # atno 17342 bound_to 10162
  140.2299  143.3743  152.1574 LP  0  0  0  0  0  0  0  0  0  0  0  0  # atno 17343 bound_to 10162
  157.4032  130.7344  149.6783 LP  0  0  0  0  0  0  0  0  0  0  0  0  # atno 17370 bound_to 10713
  155.9736  130.4115  150.3985 LP  0  0  0  0  0  0  0  0  0  0  0  0  # atno 17371 bound_to 10713
  140.5959  134.5603  157.5508 LP  0  0  0  0  0  0  0  0  0  0  0  0  # atno 17394 bound_to 11000
  139.9392  134.7818  156.0723 LP  0  0  0  0  0  0  0  0  0  0  0  0  # atno 17395 bound_to 11000

$$$$
