AV-unprocessed.smi:35|AV-procd|sdf|266|dock6
  -GOLD-   2262016 33D 1   1.00000     0.00000
 Structure written by MMmdl.
 28 29  0  0  0  0  0  0  0  0  2 V2000
  151.0540  134.5228  157.0721 O   0  0  0  0  0  0  0  0  0  0  0  0
  151.0385  135.6473  156.5750 C   0  0  0  0  0  0  0  0  0  0  0  0
  152.1510  136.4318  156.4814 N   0  5  0  0  0  0  0  0  0  0  0  0
  152.1281  137.6798  155.9277 C   0  0  0  0  0  0  0  0  0  0  0  0
  153.1218  138.4030  155.8545 O   0  0  0  0  0  0  0  0  0  0  0  0
  150.9003  138.1851  155.4192 N   0  0  0  0  0  0  0  0  0  0  0  0
  150.8776  139.5714  154.8032 C   0  0  1  0  0  0  0  0  0  0  0  0
  149.5973  139.8364  154.3012 O   0  0  0  0  0  0  0  0  0  0  0  0
  148.9786  140.8504  155.0828 C   0  0  2  0  0  0  0  0  0  0  0  0
  147.8422  141.5292  154.2972 C   0  0  0  0  0  0  0  0  0  0  0  0
  147.2531  142.5904  155.0205 O   0  0  0  0  0  0  0  0  0  0  0  0
  150.1472  141.7309  155.5252 C   0  0  1  0  0  0  0  0  0  0  0  0
  149.8338  142.5529  156.6347 O   0  0  0  0  0  0  0  0  0  0  0  0
  151.2281  140.6929  155.8159 C   0  0  1  0  0  0  0  0  0  0  0  0
  151.2065  140.2637  157.1696 O   0  0  0  0  0  0  0  0  0  0  0  0
  149.7528  137.4136  155.5058 C   0  0  0  0  0  0  0  0  0  0  0  0
  149.7826  136.1838  156.0575 C   0  0  0  0  0  0  0  0  0  0  0  0
  148.0675  135.1930  156.1167 Br  0  0  0  0  0  0  0  0  0  0  0  0
  151.5589  139.5290  153.9519 H   0  0  0  0  0  0  0  0  0  0  0  0
  148.5491  140.3616  155.9591 H   0  0  0  0  0  0  0  0  0  0  0  0
  148.2074  141.8979  153.3384 H   0  0  0  0  0  0  0  0  0  0  0  0
  147.0610  140.7998  154.0818 H   0  0  0  0  0  0  0  0  0  0  0  0
  147.8815  143.2930  155.0881 H   0  0  0  0  0  0  0  0  0  0  0  0
  150.4839  142.3612  154.7017 H   0  0  0  0  0  0  0  0  0  0  0  0
  149.3399  143.2959  156.3235 H   0  0  0  0  0  0  0  0  0  0  0  0
  152.2236  141.0805  155.5972 H   0  0  0  0  0  0  0  0  0  0  0  0
  150.4325  139.7366  157.3002 H   0  0  0  0  0  0  0  0  0  0  0  0
  148.8125  137.7888  155.1326 H   0  0  0  0  0  0  0  0  0  0  0  0
  1  2  2  0  0  0  0
  2 17  1  0  0  0  0
  2  3  1  0  0  0  0
  3  4  1  0  0  0  0
  4  5  2  0  0  0  0
  4  6  1  0  0  0  0
  6  7  1  0  0  0  0
  6 16  1  0  0  0  0
  7 14  1  0  0  0  0
  7  8  1  0  0  0  0
  7 19  1  0  0  0  0
  8  9  1  0  0  0  0
  9 10  1  0  0  0  0
  9 12  1  0  0  0  0
  9 20  1  0  0  0  0
 10 11  1  0  0  0  0
 10 21  1  0  0  0  0
 10 22  1  0  0  0  0
 11 23  1  0  0  0  0
 12 13  1  0  0  0  0
 12 14  1  0  0  0  0
 12 24  1  0  0  0  0
 13 25  1  0  0  0  0
 14 15  1  0  0  0  0
 14 26  1  0  0  0  0
 15 27  1  0  0  0  0
 16 17  2  0  0  0  0
 16 28  1  0  0  0  0
 17 18  1  0  0  0  0
M  CHG  1   3  -1
M  END
> <s_m_source_file>
AV-unprocessed.smi

> <i_m_source_file_index>
35

> <i_lp_mmshare_version>
43012

> <i_f3d_flags>
0

> <s_epik_input>
Tz1jMVtuSF1jKD1PKW4oW2NIXWMxQnIpW0NAQEhdMk9bQ0BASF0oW0NIMl1bT0hdKVtDQEBIXShbT0hdKVtDQEhdMltPSF0=

> <s_epik_cmdline>
J2VwaWtfcHl0aG9uJywgJy1waCcsICc3LjAnLCAnLXRuJywgJzgnLCAnLW1hJywgJzIwMCcsICctbWV0YWxfYmluZGluZycsICctaW1hZScsICc8aW5maWxlLm1hZT4nLCAnLW9tYWUnLCAnPG91dGZpbGUubWFlPic=

> <r_epik_Ionization_Penalty>
1.06112

> <r_epik_Ionization_Penalty_Charging>
2.1796e-09

> <r_epik_Ionization_Penalty_Neutral>
1.06112

> <r_epik_State_Penalty>
1.11484

> <r_epik_Charging_Adjusted_Penalty>
1.11484

> <i_epik_Tot_Q>
-1

> <i_epik_Tot_abs_Q>
1

> <r_epik_Metal_State_Penalty>
0.0032876

> <b_epik_Metal_Only>
0

> <s_epik_Chemistry_Notes>
This compound contains an acetal/aminal-like group ( X-CH(R)-Y where X, Y are N, S, or O) that may be acid/base labile, releasing an aldehyde.

> <s_lp_Force_Field>
OPLS_2005

> <r_lp_Energy>
48.0259

> <b_lp_Chiralities_Consistent>
1

> <s_lp_Variant>
AV-unprocessed.smi:35-20

> <Gold.Version>
5.8.1

> <Gold.Id.Protein>
6NUR|6NUR_protein|mol2

> <Gold.PLP.Fitness>
39.1954

> <Gold.PLP.PLP>
-24.5438

> <Gold.PLP.part.hbond>
-5.1173

> <Gold.PLP.part.metal>
0.0000

> <Gold.PLP.part.buried>
-3.5332

> <Gold.PLP.part.nonpolar>
-16.9596

> <Gold.PLP.part.repulsive>
0.1302

> <Gold.PLP.ligand.clash>
0.0000

> <Gold.PLP.ligand.torsion>
0.0304

> <Gold.PLP.Chemscore.Hbond>
4.8913

> <Gold.PLP.Chemscore.CHOScore>
0.0000

> <Gold.PLP.Chemscore.Metal>
0.0000

> <Gold.Chemscore.Hbonds>
donor molecule, donor type, donor heavy atom, donor atom, acceptor molecule, acceptor atom, score
      L1  H    11    23       P1  8028  1.00
      L1  H    13    25       P1  8028  1.00
      P1  H  6896  6908       L1     1  0.12
      P1  H  7997  8009       L1     5  0.69
      P1  H 10752 10764       L1     3  2.00

> <Gold.PLP.Chemscore.Internal.Correction>
0.0386

> <Gold.Rescore>
     Score         DG    S(hbond)    S(metal)    S(lipo)     H(rot)  DE(clash)    DE(int)     intcor
     10.40     -10.69       3.03        0.00      37.20       3.63       0.06       0.23       ----

> <Gold.Chemscore.Fitness>
10.3954

> <Gold.Chemscore.DG>
-10.6860

> <Gold.Chemscore.ZeroCoef>
-5.4800

> <Gold.Chemscore.Hbond>
3.0349

> <Gold.Chemscore.Metal>
0.0000

> <Gold.Chemscore.Lipo>
37.1988

> <Gold.Chemscore.Internal_Hbond>
0.0000

> <Gold.Chemscore.DEClash>
0.0580

> <Gold.Chemscore.DEInternal>
0.2326

> <Gold.Chemscore.Rot>
3.6261

> <Gold.Chemscore.Internal.Correction>
   9.000000E+99

> <Gold.Chemscore.Hbonds>
donor molecule, donor type, donor heavy atom, donor atom, acceptor molecule, acceptor atom, score
      L1  H    11    23       P1  8028  0.65
      L1  H    13    25       P1  8028  0.99
      P1  H  6896  6908       L1     1  0.13
      P1  H  7997  8009       L1     5  0.65
      P1  H 10752 10764       L1     3  0.08

> <Gold.Chemscore.Hbond.Weighted>
-10.1365

> <Gold.Chemscore.Metal.Weighted>
-0.0000

> <Gold.Chemscore.Lipo.Weighted>
-4.3523

> <Gold.Chemscore.Internal_Hbond.Weighted>
0.0000

> <Gold.Chemscore.DEClash.Weighted>
0.0580

> <Gold.Chemscore.DEInternal.Weighted>
0.2326

> <Gold.Chemscore.Rot.Weighted>
9.2828

> <Gold.Chemscore.Internal.Correction.Weighted>
   9.000000E+99

> <Gold.Protein.RotatedTorsions>
[ 6907 6896 6895 6894 ] final  122.77 input  -60.11 | X-H torsion
[ 7974 7965 7964 7962 ] final   17.17 input  175.53 | X-H torsion
[ 8008 7997 7996 7995 ] final -156.17 input   59.86 | X-H torsion
[ 10167 10162 10161 10158 ] final  -85.44 input  -65.29 | X-H torsion
[ 10718 10713 10712 10709 ] final  -83.37 input   66.30 | X-H torsion
[ 10763 10752 10751 10750 ] final  -25.29 input  -60.55 | X-H torsion
[ 11005 11000 10999 10996 ] final  133.08 input  -57.11 | X-H torsion

> <Gold.Protein.ActiveResidues>
 VAL166  LYS551  ARG553  GLY616  TRP617  ASP618  TYR619  PRO620  LYS621  CYS622 
 ASP623  PHE694  ASN695  SER759  ASP760  ASP761  ALA762  ILE779  LEU786  VAL792 
 PHE793  MET794  SER795  GLU796  ALA797  LYS798  CYS799  TRP800  GLU811  SER814 

> <Gold.Protein.RotatedAtoms>
  152.4216  133.7125  159.6486 H   0  0  0  0  0  0  0  0  0  0  0  0  # atno 6907 bound_to 6896
  150.8092  133.8443  159.3196 H   0  0  0  0  0  0  0  0  0  0  0  0  # atno 6908 bound_to 6896
  151.6158  135.1038  160.0142 H   0  0  0  0  0  0  0  0  0  0  0  0  # atno 6909 bound_to 6896
  146.2227  139.8641  142.8599 H   0  0  0  0  0  0  0  0  0  0  0  0  # atno 7974 bound_to 7965
  155.7131  140.0781  157.2362 H   0  0  0  0  0  0  0  0  0  0  0  0  # atno 8008 bound_to 7997
  154.4055  140.1626  156.2372 H   0  0  0  0  0  0  0  0  0  0  0  0  # atno 8009 bound_to 7997
  155.9264  140.3394  155.6217 H   0  0  0  0  0  0  0  0  0  0  0  0  # atno 8010 bound_to 7997
  140.4037  143.2652  151.9109 H   0  0  0  0  0  0  0  0  0  0  0  0  # atno 10167 bound_to 10162
  156.0019  130.4663  150.4247 H   0  0  0  0  0  0  0  0  0  0  0  0  # atno 10718 bound_to 10713
  153.6974  135.6958  153.5072 H   0  0  0  0  0  0  0  0  0  0  0  0  # atno 10763 bound_to 10752
  153.2368  135.4319  155.0654 H   0  0  0  0  0  0  0  0  0  0  0  0  # atno 10764 bound_to 10752
  154.8354  135.3498  154.6514 H   0  0  0  0  0  0  0  0  0  0  0  0  # atno 10765 bound_to 10752
  139.9830  134.9542  156.9674 H   0  0  0  0  0  0  0  0  0  0  0  0  # atno 11005 bound_to 11000
  145.2674  141.0097  143.3791 LP  0  0  0  0  0  0  0  0  0  0  0  0  # atno 17320 bound_to 7965
  144.9250  139.4366  143.6523 LP  0  0  0  0  0  0  0  0  0  0  0  0  # atno 17321 bound_to 7965
  139.4784  144.5608  151.8242 LP  0  0  0  0  0  0  0  0  0  0  0  0  # atno 17342 bound_to 10162
  140.4713  144.1583  150.5918 LP  0  0  0  0  0  0  0  0  0  0  0  0  # atno 17343 bound_to 10162
  157.2300  131.0502  151.2497 LP  0  0  0  0  0  0  0  0  0  0  0  0  # atno 17370 bound_to 10713
  157.3720  130.7186  149.6571 LP  0  0  0  0  0  0  0  0  0  0  0  0  # atno 17371 bound_to 10713
  140.5059  134.1051  155.7260 LP  0  0  0  0  0  0  0  0  0  0  0  0  # atno 17394 bound_to 11000
  141.1499  133.8988  157.2124 LP  0  0  0  0  0  0  0  0  0  0  0  0  # atno 17395 bound_to 11000

$$$$
