AV-unprocessed.smi:2107|AV-procd|sdf|8603|dock4
  -GOLD-   2272011343D 1   1.00000     0.00000
 Structure written by MMmdl.
 46 47  0  0  0  0  0  0  0  0  3 V2000
  146.5908  132.6143  160.6645 C   0  0  0  0  0  0  0  0  0  0  0  0
  147.6758  133.5728  160.1561 C   0  0  0  0  0  0  0  0  0  0  0  0
  147.5241  134.9074  160.7581 N   0  0  0  0  0  0  0  0  0  0  0  0
  146.8308  134.9727  162.0562 C   0  0  0  0  0  0  0  0  0  0  0  0
  145.7452  136.0572  162.0545 C   0  0  0  0  0  0  0  0  0  0  0  0
  147.6891  136.3413  159.7819 S   0  0  0  0  0  0  0  0  0  0  0  0
  146.5996  136.3180  158.7903 O   0  0  0  0  0  0  0  0  0  0  0  0
  147.7105  137.4602  160.7360 O   0  0  0  0  0  0  0  0  0  0  0  0
  149.1649  136.0363  159.1615 N   0  5  0  0  0  0  0  0  0  0  0  0
  149.5644  136.5432  157.8548 C   0  0  0  0  0  0  0  0  0  0  0  0
  149.0847  135.6281  156.7210 C   0  0  0  0  0  0  0  0  0  0  0  0
  148.4698  134.3977  157.0653 C   0  0  0  0  0  0  0  0  0  0  0  0
  147.9997  133.5338  156.0568 C   0  0  0  0  0  0  0  0  0  0  0  0
  148.1501  133.9098  154.7112 C   0  0  0  0  0  0  0  0  0  0  0  0
  148.7410  135.0831  154.4069 N   0  3  0  0  0  0  0  0  0  0  0  0
  149.2147  135.9555  155.3327 C   0  0  0  0  0  0  0  0  0  0  0  0
  149.8277  137.1280  154.8435 N   0  0  0  0  0  0  0  0  0  0  0  0
  149.0178  138.3250  155.0330 C   0  0  0  0  0  0  0  0  0  0  0  0
  149.6751  139.5266  154.3322 C   0  0  0  0  0  0  0  0  0  0  0  0
  151.0156  139.6769  154.7923 O   0  0  0  0  0  0  0  0  0  0  0  0
  151.8092  138.5270  154.5124 C   0  0  0  0  0  0  0  0  0  0  0  0
  151.2172  137.3097  155.2417 C   0  0  0  0  0  0  0  0  0  0  0  0
  146.6935  131.6338  160.1997 H   0  0  0  0  0  0  0  0  0  0  0  0
  145.5937  132.9892  160.4322 H   0  0  0  0  0  0  0  0  0  0  0  0
  146.6500  132.4745  161.7436 H   0  0  0  0  0  0  0  0  0  0  0  0
  148.6673  133.1838  160.3901 H   0  0  0  0  0  0  0  0  0  0  0  0
  147.6224  133.6417  159.0690 H   0  0  0  0  0  0  0  0  0  0  0  0
  146.3720  134.0074  162.2733 H   0  0  0  0  0  0  0  0  0  0  0  0
  147.5571  135.1525  162.8493 H   0  0  0  0  0  0  0  0  0  0  0  0
  145.2116  136.0694  163.0048 H   0  0  0  0  0  0  0  0  0  0  0  0
  145.0134  135.8783  161.2662 H   0  0  0  0  0  0  0  0  0  0  0  0
  146.1680  137.0499  161.9015 H   0  0  0  0  0  0  0  0  0  0  0  0
  149.1816  137.5509  157.6907 H   0  0  0  0  0  0  0  0  0  0  0  0
  150.6460  136.6329  157.7542 H   0  0  0  0  0  0  0  0  0  0  0  0
  148.3473  134.0959  158.0971 H   0  0  0  0  0  0  0  0  0  0  0  0
  147.5312  132.5956  156.3150 H   0  0  0  0  0  0  0  0  0  0  0  0
  147.8221  133.3114  153.8740 H   0  0  0  0  0  0  0  0  0  0  0  0
  148.0167  138.1622  154.6317 H   0  0  0  0  0  0  0  0  0  0  0  0
  148.9097  138.5296  156.0990 H   0  0  0  0  0  0  0  0  0  0  0  0
  149.6642  139.4020  153.2488 H   0  0  0  0  0  0  0  0  0  0  0  0
  149.1190  140.4382  154.5507 H   0  0  0  0  0  0  0  0  0  0  0  0
  151.8523  138.3536  153.4356 H   0  0  0  0  0  0  0  0  0  0  0  0
  152.8302  138.7079  154.8485 H   0  0  0  0  0  0  0  0  0  0  0  0
  151.2796  137.4591  156.3202 H   0  0  0  0  0  0  0  0  0  0  0  0
  151.7893  136.4125  155.0031 H   0  0  0  0  0  0  0  0  0  0  0  0
  148.8442  135.3270  153.4220 H   0  0  0  0  0  0  0  0  0  0  0  0
  1  2  1  0  0  0  0
  1 23  1  0  0  0  0
  1 24  1  0  0  0  0
  1 25  1  0  0  0  0
  2  3  1  0  0  0  0
  2 26  1  0  0  0  0
  2 27  1  0  0  0  0
  3  4  1  0  0  0  0
  3  6  1  0  0  0  0
  4  5  1  0  0  0  0
  4 28  1  0  0  0  0
  4 29  1  0  0  0  0
  5 30  1  0  0  0  0
  5 31  1  0  0  0  0
  5 32  1  0  0  0  0
  6  7  2  0  0  0  0
  6  8  2  0  0  0  0
  6  9  1  0  0  0  0
  9 10  1  0  0  0  0
 10 11  1  0  0  0  0
 10 33  1  0  0  0  0
 10 34  1  0  0  0  0
 11 16  1  0  0  0  0
 11 12  2  0  0  0  0
 12 13  1  0  0  0  0
 12 35  1  0  0  0  0
 13 14  2  0  0  0  0
 13 36  1  0  0  0  0
 14 15  1  0  0  0  0
 14 37  1  0  0  0  0
 15 16  2  0  0  0  0
 15 46  1  0  0  0  0
 16 17  1  0  0  0  0
 17 22  1  0  0  0  0
 17 18  1  0  0  0  0
 18 19  1  0  0  0  0
 18 38  1  0  0  0  0
 18 39  1  0  0  0  0
 19 20  1  0  0  0  0
 19 40  1  0  0  0  0
 19 41  1  0  0  0  0
 20 21  1  0  0  0  0
 21 22  1  0  0  0  0
 21 42  1  0  0  0  0
 21 43  1  0  0  0  0
 22 44  1  0  0  0  0
 22 45  1  0  0  0  0
M  CHG  1   9  -1
M  CHG  1  15   1
M  END
> <s_m_source_file>
AV-unprocessed.smi

> <i_m_source_file_index>
2107

> <i_lp_mmshare_version>
43012

> <i_f3d_flags>
0

> <s_epik_input>
W0NIM11bQ0gyXU4oW0NIMl1bQ0gzXSlTKD1PKSg9TylbTkhdW0NIMl1jMVtjSF1bY0hdW2NIXW5jMU4yW0NIMl1bQ0gyXU9bQ0gyXVtDSDJdMg==

> <s_epik_cmdline>
J2VwaWtfcHl0aG9uJywgJy1waCcsICc3LjAnLCAnLXRuJywgJzgnLCAnLW1hJywgJzIwMCcsICctbWV0YWxfYmluZGluZycsICctaW1hZScsICc8aW5maWxlLm1hZT4nLCAnLW9tYWUnLCAnPG91dGZpbGUubWFlPic=

> <r_lp_tautomer_probability>
0.999994

> <r_epik_Ionization_Penalty>
2.67026

> <r_epik_Ionization_Penalty_Charging>
2.67026

> <r_epik_Ionization_Penalty_Neutral>
4.07977e-08

> <r_epik_State_Penalty>
4.05768

> <r_epik_Charging_Adjusted_Penalty>
6.72795

> <i_epik_Tot_Q>
0

> <i_epik_Tot_abs_Q>
2

> <r_epik_Metal_State_Penalty>
2.91237

> <b_epik_Metal_Only>
1

> <s_lp_Force_Field>
OPLS_2005

> <r_lp_Energy>
19.7011

> <b_lp_Chiralities_Consistent>
1

> <s_lp_Variant>
AV-unprocessed.smi:2107-4

> <Gold.Version>
5.8.1

> <Gold.Id.Protein>
6NUR|6NUR_protein|mol2

> <Gold.PLP.Fitness>
48.0213

> <Gold.PLP.PLP>
-29.7508

> <Gold.PLP.part.hbond>
-5.0000

> <Gold.PLP.part.metal>
0.0000

> <Gold.PLP.part.buried>
-5.1015

> <Gold.PLP.part.nonpolar>
-20.2710

> <Gold.PLP.part.repulsive>
0.2261

> <Gold.PLP.ligand.clash>
0.0413

> <Gold.PLP.ligand.torsion>
2.6362

> <Gold.PLP.Chemscore.Hbond>
6.6480

> <Gold.PLP.Chemscore.CHOScore>
0.0000

> <Gold.PLP.Chemscore.Metal>
0.0000

> <Gold.Chemscore.Hbonds>
donor molecule, donor type, donor heavy atom, donor atom, acceptor molecule, acceptor atom, score
      L1  H    15    46       P1  7948  2.00
      P1  H  6896  6909       L1     9  1.66
      P1  H  6931  6943       L1     8  0.69
      P1  H  6934  6947       L1     8  0.86
      P1  H  7989  7998       L1    20  0.95

> <Gold.PLP.Chemscore.Internal.Correction>
3.6402

> <Gold.Rescore>
     Score         DG    S(hbond)    S(metal)    S(lipo)     H(rot)  DE(clash)    DE(int)     intcor
     15.19     -19.36       3.20        0.00      64.81       1.72       0.20       3.97       ----

> <Gold.Chemscore.Fitness>
15.1948

> <Gold.Chemscore.DG>
-19.3616

> <Gold.Chemscore.ZeroCoef>
-5.4800

> <Gold.Chemscore.Hbond>
3.2009

> <Gold.Chemscore.Metal>
0.0000

> <Gold.Chemscore.Lipo>
64.8138

> <Gold.Chemscore.Internal_Hbond>
0.0000

> <Gold.Chemscore.DEClash>
0.1984

> <Gold.Chemscore.DEInternal>
3.9684

> <Gold.Chemscore.Rot>
1.7159

> <Gold.Chemscore.Internal.Correction>
   9.000000E+99

> <Gold.Chemscore.Hbonds>
donor molecule, donor type, donor heavy atom, donor atom, acceptor molecule, acceptor atom, score
      L1  H    15    46       P1  7948  0.74
      P1  H  6896  6909       L1     9  0.28
      P1  H  6931  6943       L1     8  0.70
      P1  H  6934  6947       L1     8  0.85
      P1  H  7989  7998       L1    20  0.06

> <Gold.Chemscore.Hbond.Weighted>
-10.6909

> <Gold.Chemscore.Metal.Weighted>
-0.0000

> <Gold.Chemscore.Lipo.Weighted>
-7.5832

> <Gold.Chemscore.Internal_Hbond.Weighted>
0.0000

> <Gold.Chemscore.DEClash.Weighted>
0.1984

> <Gold.Chemscore.DEInternal.Weighted>
3.9684

> <Gold.Chemscore.Rot.Weighted>
4.3926

> <Gold.Chemscore.Internal.Correction.Weighted>
   9.000000E+99

> <Gold.Protein.RotatedTorsions>
[ 6907 6896 6895 6894 ] final   57.14 input  -60.11 | X-H torsion
[ 7974 7965 7964 7962 ] final -169.98 input  175.53 | X-H torsion
[ 8008 7997 7996 7995 ] final -173.28 input   59.86 | X-H torsion
[ 10167 10162 10161 10158 ] final -105.24 input  -65.29 | X-H torsion
[ 10718 10713 10712 10709 ] final  132.74 input   66.30 | X-H torsion
[ 10763 10752 10751 10750 ] final   73.14 input  -60.55 | X-H torsion
[ 11005 11000 10999 10996 ] final  166.88 input  -57.11 | X-H torsion

> <Gold.Protein.ActiveResidues>
 VAL166  LYS551  ARG553  GLY616  TRP617  ASP618  TYR619  PRO620  LYS621  CYS622 
 ASP623  PHE694  ASN695  SER759  ASP760  ASP761  ALA762  ILE779  LEU786  VAL792 
 PHE793  MET794  SER795  GLU796  ALA797  LYS798  CYS799  TRP800  GLU811  SER814 

> <Gold.Protein.RotatedAtoms>
  152.3703  134.6744  160.0178 H   0  0  0  0  0  0  0  0  0  0  0  0  # atno 6907 bound_to 6896
  151.7039  133.3306  159.3281 H   0  0  0  0  0  0  0  0  0  0  0  0  # atno 6908 bound_to 6896
  150.7668  134.6526  159.6341 H   0  0  0  0  0  0  0  0  0  0  0  0  # atno 6909 bound_to 6896
  144.7177  140.2140  143.6324 H   0  0  0  0  0  0  0  0  0  0  0  0  # atno 7974 bound_to 7965
  155.9555  140.1134  157.0941 H   0  0  0  0  0  0  0  0  0  0  0  0  # atno 8008 bound_to 7997
  154.4119  140.1192  156.5175 H   0  0  0  0  0  0  0  0  0  0  0  0  # atno 8009 bound_to 7997
  155.6788  140.3473  155.4849 H   0  0  0  0  0  0  0  0  0  0  0  0  # atno 8010 bound_to 7997
  140.2007  143.3821  152.1132 H   0  0  0  0  0  0  0  0  0  0  0  0  # atno 10167 bound_to 10162
  157.4841  131.1087  150.9643 H   0  0  0  0  0  0  0  0  0  0  0  0  # atno 10718 bound_to 10713
  153.0502  135.5074  154.7849 H   0  0  0  0  0  0  0  0  0  0  0  0  # atno 10763 bound_to 10752
  154.6717  135.2954  154.9736 H   0  0  0  0  0  0  0  0  0  0  0  0  # atno 10764 bound_to 10752
  154.0552  135.6698  153.4857 H   0  0  0  0  0  0  0  0  0  0  0  0  # atno 10765 bound_to 10752
  140.2710  134.7827  157.3675 H   0  0  0  0  0  0  0  0  0  0  0  0  # atno 11005 bound_to 11000
  145.8564  139.2200  143.1742 LP  0  0  0  0  0  0  0  0  0  0  0  0  # atno 17320 bound_to 7965
  146.0214  140.8344  142.9921 LP  0  0  0  0  0  0  0  0  0  0  0  0  # atno 17321 bound_to 7965
  139.5218  144.7051  151.5378 LP  0  0  0  0  0  0  0  0  0  0  0  0  # atno 17342 bound_to 10162
  140.6392  143.8922  150.6676 LP  0  0  0  0  0  0  0  0  0  0  0  0  # atno 17343 bound_to 10162
  157.0366  130.5732  149.5350 LP  0  0  0  0  0  0  0  0  0  0  0  0  # atno 17370 bound_to 10713
  156.0137  130.5230  150.8070 LP  0  0  0  0  0  0  0  0  0  0  0  0  # atno 17371 bound_to 10713
  140.1373  134.5017  155.8058 LP  0  0  0  0  0  0  0  0  0  0  0  0  # atno 17394 bound_to 11000
  141.2177  133.6812  156.7148 LP  0  0  0  0  0  0  0  0  0  0  0  0  # atno 17395 bound_to 11000

$$$$
