AV-unprocessed.smi:1817|AV-procd|sdf|7375|dock4
  -GOLD-   22720 9 43D 1   1.00000     0.00000
 Structure written by MMmdl.
 42 43  0  0  0  0  0  0  0  0  3 V2000
  147.2302  142.6797  158.4398 C   0  0  0  0  0  0  0  0  0  0  0  0
  147.1836  141.9952  157.0660 C   0  0  0  0  0  0  0  0  0  0  0  0
  148.5322  141.7871  156.4828 N   0  3  0  0  0  0  0  0  0  0  0  0
  148.5056  140.8620  155.3223 C   0  0  0  0  0  0  0  0  0  0  0  0
  149.9223  140.6727  154.7334 C   0  0  0  0  0  0  0  0  0  0  0  0
  150.8737  140.1607  155.7314 N   0  0  0  0  0  0  0  0  0  0  0  0
  150.6060  138.7752  156.1786 C   0  0  1  0  0  0  0  0  0  0  0  0
  150.8448  137.7824  155.0167 C   0  0  0  0  0  0  0  0  0  0  0  0
  151.4657  138.3740  157.4089 C   0  0  0  0  0  0  0  0  0  0  0  0
  150.9194  137.2152  158.1091 N   0  0  0  0  0  0  0  0  0  0  0  0
  149.8070  137.2137  158.8587 C   0  0  0  0  0  0  0  0  0  0  0  0
  149.1705  138.2589  159.0166 O   0  0  0  0  0  0  0  0  0  0  0  0
  149.4970  136.0031  159.3739 N   0  5  0  0  0  0  0  0  0  0  0  0
  148.6153  135.9100  160.3830 C   0  0  0  0  0  0  0  0  0  0  0  0
  148.1266  136.9905  161.0126 N   0  0  0  0  0  0  0  0  0  0  0  0
  147.2268  136.6743  162.0214 N   0  0  0  0  0  0  0  0  0  0  0  0
  147.0533  135.3568  162.1219 C   0  0  0  0  0  0  0  0  0  0  0  0
  147.9735  134.3831  160.9943 S   0  0  0  0  0  0  0  0  0  0  0  0
  150.9207  141.1755  156.7933 C   0  0  0  0  0  0  0  0  0  0  0  0
  149.5481  141.3532  157.4748 C   0  0  0  0  0  0  0  0  0  0  0  0
  146.2220  142.9042  158.7885 H   0  0  0  0  0  0  0  0  0  0  0  0
  147.7804  143.6199  158.3949 H   0  0  0  0  0  0  0  0  0  0  0  0
  147.6976  142.0492  159.1957 H   0  0  0  0  0  0  0  0  0  0  0  0
  146.6528  141.0440  157.1290 H   0  0  0  0  0  0  0  0  0  0  0  0
  146.6030  142.6299  156.3952 H   0  0  0  0  0  0  0  0  0  0  0  0
  148.0629  139.9077  155.6096 H   0  0  0  0  0  0  0  0  0  0  0  0
  147.8559  141.2788  154.5520 H   0  0  0  0  0  0  0  0  0  0  0  0
  149.8869  140.0326  153.8540 H   0  0  0  0  0  0  0  0  0  0  0  0
  150.2880  141.6325  154.3653 H   0  0  0  0  0  0  0  0  0  0  0  0
  149.5616  138.6917  156.4733 H   0  0  0  0  0  0  0  0  0  0  0  0
  150.7447  136.7475  155.3436 H   0  0  0  0  0  0  0  0  0  0  0  0
  151.8449  137.8953  154.5973 H   0  0  0  0  0  0  0  0  0  0  0  0
  150.1228  137.9033  154.2107 H   0  0  0  0  0  0  0  0  0  0  0  0
  152.4852  138.1432  157.0989 H   0  0  0  0  0  0  0  0  0  0  0  0
  151.5381  139.1720  158.1462 H   0  0  0  0  0  0  0  0  0  0  0  0
  151.4134  136.3409  158.0058 H   0  0  0  0  0  0  0  0  0  0  0  0
  146.3780  134.9558  162.8630 H   0  0  0  0  0  0  0  0  0  0  0  0
  151.6940  140.9522  157.5251 H   0  0  0  0  0  0  0  0  0  0  0  0
  151.2284  142.1258  156.3543 H   0  0  0  0  0  0  0  0  0  0  0  0
  149.6459  142.1074  158.2546 H   0  0  0  0  0  0  0  0  0  0  0  0
  149.2298  140.4352  157.9706 H   0  0  0  0  0  0  0  0  0  0  0  0
  148.8387  142.6795  156.1231 H   0  0  0  0  0  0  0  0  0  0  0  0
  1  2  1  0  0  0  0
  1 21  1  0  0  0  0
  1 22  1  0  0  0  0
  1 23  1  0  0  0  0
  2  3  1  0  0  0  0
  2 24  1  0  0  0  0
  2 25  1  0  0  0  0
  3 20  1  0  0  0  0
  3  4  1  0  0  0  0
  3 42  1  0  0  0  0
  4  5  1  0  0  0  0
  4 26  1  0  0  0  0
  4 27  1  0  0  0  0
  5  6  1  0  0  0  0
  5 28  1  0  0  0  0
  5 29  1  0  0  0  0
  6  7  1  0  0  0  0
  6 19  1  0  0  0  0
  7  8  1  0  0  0  0
  7  9  1  0  0  0  0
  7 30  1  0  0  0  0
  8 31  1  0  0  0  0
  8 32  1  0  0  0  0
  8 33  1  0  0  0  0
  9 10  1  0  0  0  0
  9 34  1  0  0  0  0
  9 35  1  0  0  0  0
 10 11  1  0  0  0  0
 10 36  1  0  0  0  0
 11 12  2  0  0  0  0
 11 13  1  0  0  0  0
 13 14  1  0  0  0  0
 14 18  1  0  0  0  0
 14 15  2  0  0  0  0
 15 16  1  0  0  0  0
 16 17  2  0  0  0  0
 17 18  1  0  0  0  0
 17 37  1  0  0  0  0
 19 20  1  0  0  0  0
 19 38  1  0  0  0  0
 19 39  1  0  0  0  0
 20 40  1  0  0  0  0
 20 41  1  0  0  0  0
M  CHG  1   3   1
M  CHG  1  13  -1
M  END
> <s_m_source_file>
AV-unprocessed.smi

> <i_m_source_file_index>
1817

> <i_lp_mmshare_version>
43012

> <i_f3d_flags>
0

> <s_epik_input>
W0NIM11bQ0gyXU4xW0NIMl1bQ0gyXU4oW0NIMl1bQ0gyXTEpW0NASF0oW0NIM10pW0NIMl1bTkhdQyg9TylbTkhdYzJubltjSF1zMg==

> <s_epik_cmdline>
J2VwaWtfcHl0aG9uJywgJy1waCcsICc3LjAnLCAnLXRuJywgJzgnLCAnLW1hJywgJzIwMCcsICctbWV0YWxfYmluZGluZycsICctaW1hZScsICc8aW5maWxlLm1hZT4nLCAnLW9tYWUnLCAnPG91dGZpbGUubWFlPic=

> <r_lp_tautomer_probability>
1

> <r_epik_Ionization_Penalty>
3.58527

> <r_epik_Ionization_Penalty_Charging>
3.54445

> <r_epik_Ionization_Penalty_Neutral>
0.0408199

> <r_epik_State_Penalty>
3.6633

> <r_epik_Charging_Adjusted_Penalty>
7.20774

> <i_epik_Tot_Q>
0

> <i_epik_Tot_abs_Q>
2

> <r_epik_Metal_State_Penalty>
0.683711

> <b_epik_Metal_Only>
1

> <s_lp_Force_Field>
OPLS_2005

> <r_lp_Energy>
13.2913

> <b_lp_Chiralities_Consistent>
1

> <s_lp_Variant>
AV-unprocessed.smi:1817-8

> <Gold.Version>
5.8.1

> <Gold.Id.Protein>
6NUR|6NUR_protein|mol2

> <Gold.PLP.Fitness>
42.7608

> <Gold.PLP.PLP>
-27.6872

> <Gold.PLP.part.hbond>
-6.2841

> <Gold.PLP.part.metal>
0.0000

> <Gold.PLP.part.buried>
-2.7809

> <Gold.PLP.part.nonpolar>
-19.4016

> <Gold.PLP.part.repulsive>
0.1054

> <Gold.PLP.ligand.clash>
0.0000

> <Gold.PLP.ligand.torsion>
0.5254

> <Gold.PLP.Chemscore.Hbond>
5.3219

> <Gold.PLP.Chemscore.CHOScore>
0.0000

> <Gold.PLP.Chemscore.Metal>
0.0000

> <Gold.Chemscore.Hbonds>
donor molecule, donor type, donor heavy atom, donor atom, acceptor molecule, acceptor atom, score
      L1  H     3    42       P1  8028  1.72
      P1  H  6896  6907       L1    13  2.00
      P1  H  6931  6943       L1    15  0.90
      P1  H  6934  6947       L1    15  0.14

> <Gold.PLP.Chemscore.Internal.Correction>
0.1587

> <Gold.Rescore>
     Score         DG    S(hbond)    S(metal)    S(lipo)     H(rot)  DE(clash)    DE(int)     intcor
     13.49     -15.93       2.74        0.00      52.23       1.88       0.46       1.98       ----

> <Gold.Chemscore.Fitness>
13.4887

> <Gold.Chemscore.DG>
-15.9265

> <Gold.Chemscore.ZeroCoef>
-5.4800

> <Gold.Chemscore.Hbond>
2.7409

> <Gold.Chemscore.Metal>
0.0000

> <Gold.Chemscore.Lipo>
52.2310

> <Gold.Chemscore.Internal_Hbond>
0.0000

> <Gold.Chemscore.DEClash>
0.4571

> <Gold.Chemscore.DEInternal>
1.9807

> <Gold.Chemscore.Rot>
1.8825

> <Gold.Chemscore.Internal.Correction>
   9.000000E+99

> <Gold.Chemscore.Hbonds>
donor molecule, donor type, donor heavy atom, donor atom, acceptor molecule, acceptor atom, score
      L1  H     3    42       P1  8028  0.84
      P1  H  6896  6907       L1    13  0.59
      P1  H  6931  6943       L1    15  0.17

> <Gold.Chemscore.Hbond.Weighted>
-9.1546

> <Gold.Chemscore.Metal.Weighted>
-0.0000

> <Gold.Chemscore.Lipo.Weighted>
-6.1110

> <Gold.Chemscore.Internal_Hbond.Weighted>
0.0000

> <Gold.Chemscore.DEClash.Weighted>
0.4571

> <Gold.Chemscore.DEInternal.Weighted>
1.9807

> <Gold.Chemscore.Rot.Weighted>
4.8191

> <Gold.Chemscore.Internal.Correction.Weighted>
   9.000000E+99

> <Gold.Protein.RotatedTorsions>
[ 6907 6896 6895 6894 ] final  -54.92 input  -60.11 | X-H torsion
[ 7974 7965 7964 7962 ] final  -64.68 input  175.53 | X-H torsion
[ 8008 7997 7996 7995 ] final -163.48 input   59.86 | X-H torsion
[ 10167 10162 10161 10158 ] final  113.63 input  -65.29 | X-H torsion
[ 10718 10713 10712 10709 ] final -140.82 input   66.30 | X-H torsion
[ 10763 10752 10751 10750 ] final -113.19 input  -60.55 | X-H torsion
[ 11005 11000 10999 10996 ] final  143.91 input  -57.11 | X-H torsion

> <Gold.Protein.ActiveResidues>
 VAL166  LYS551  ARG553  GLY616  TRP617  ASP618  TYR619  PRO620  LYS621  CYS622 
 ASP623  PHE694  ASN695  SER759  ASP760  ASP761  ALA762  ILE779  LEU786  VAL792 
 PHE793  MET794  SER795  GLU796  ALA797  LYS798  CYS799  TRP800  GLU811  SER814 

> <Gold.Protein.RotatedAtoms>
  150.8296  134.7543  159.6842 H   0  0  0  0  0  0  0  0  0  0  0  0  # atno 6907 bound_to 6896
  152.4403  134.5602  159.9901 H   0  0  0  0  0  0  0  0  0  0  0  0  # atno 6908 bound_to 6896
  151.5766  133.3345  159.3036 H   0  0  0  0  0  0  0  0  0  0  0  0  # atno 6909 bound_to 6896
  145.7637  140.8848  143.0416 H   0  0  0  0  0  0  0  0  0  0  0  0  # atno 7974 bound_to 7965
  155.8219  140.0921  157.1844 H   0  0  0  0  0  0  0  0  0  0  0  0  # atno 8008 bound_to 7997
  154.3979  140.1435  156.3570 H   0  0  0  0  0  0  0  0  0  0  0  0  # atno 8009 bound_to 7997
  155.8257  140.3444  155.5544 H   0  0  0  0  0  0  0  0  0  0  0  0  # atno 8010 bound_to 7997
  139.6447  144.7126  151.2166 H   0  0  0  0  0  0  0  0  0  0  0  0  # atno 10167 bound_to 10162
  156.3268  130.7564  151.1674 H   0  0  0  0  0  0  0  0  0  0  0  0  # atno 10718 bound_to 10713
  154.8385  135.4463  154.1311 H   0  0  0  0  0  0  0  0  0  0  0  0  # atno 10763 bound_to 10752
  153.2521  135.6927  153.7674 H   0  0  0  0  0  0  0  0  0  0  0  0  # atno 10764 bound_to 10752
  153.6983  135.3376  155.3194 H   0  0  0  0  0  0  0  0  0  0  0  0  # atno 10765 bound_to 10752
  140.0590  134.9215  157.1151 H   0  0  0  0  0  0  0  0  0  0  0  0  # atno 11005 bound_to 11000
  144.6825  139.9758  143.7483 LP  0  0  0  0  0  0  0  0  0  0  0  0  # atno 17320 bound_to 7965
  146.0239  139.3275  143.0796 LP  0  0  0  0  0  0  0  0  0  0  0  0  # atno 17321 bound_to 7965
  140.7509  143.6251  150.8476 LP  0  0  0  0  0  0  0  0  0  0  0  0  # atno 17342 bound_to 10162
  139.9892  143.5865  152.2916 LP  0  0  0  0  0  0  0  0  0  0  0  0  # atno 17343 bound_to 10162
  157.7423  131.0492  150.5036 LP  0  0  0  0  0  0  0  0  0  0  0  0  # atno 17370 bound_to 10713
  156.5196  130.4158  149.6258 LP  0  0  0  0  0  0  0  0  0  0  0  0  # atno 17371 bound_to 10713
  140.3799  134.2298  155.7171 LP  0  0  0  0  0  0  0  0  0  0  0  0  # atno 17394 bound_to 11000
  141.1965  133.8081  157.0669 LP  0  0  0  0  0  0  0  0  0  0  0  0  # atno 17395 bound_to 11000

$$$$
