AV-unprocessed.smi:2881|AV-procd|sdf|11066|dock9
  -GOLD-   2272015543D 1   1.00000     0.00000
 Structure written by MMmdl.
 40 42  0  0  0  0  0  0  0  0  1 V2000
  146.8896  138.4705  152.9806 C   0  0  0  0  0  0  0  0  0  0  0  0
  147.6960  139.4647  153.7637 C   0  0  0  0  0  0  0  0  0  0  0  0
  149.0683  139.3778  154.1397 C   0  0  0  0  0  0  0  0  0  0  0  0
  149.3054  140.5363  154.8256 C   0  0  0  0  0  0  0  0  0  0  0  0
  150.5513  141.0724  155.4574 C   0  0  0  0  0  0  0  0  0  0  0  0
  150.3863  141.1702  156.9744 C   0  0  0  0  0  0  0  0  0  0  0  0
  149.2743  141.0364  157.4841 O   0  0  0  0  0  0  0  0  0  0  0  0
  151.4992  141.4334  157.6773 N   0  0  0  0  0  0  0  0  0  0  0  0
  151.5582  141.7006  159.1135 C   0  0  1  0  0  0  0  0  0  0  0  0
  153.0227  141.9047  159.5572 C   0  0  2  0  0  0  0  0  0  0  0  0
  153.1009  141.8118  161.0920 C   0  0  0  0  0  0  0  0  0  0  0  0
  152.4281  143.1232  161.5404 C   0  0  0  0  0  0  0  0  0  0  0  0
  152.0570  143.7943  160.2027 C   0  0  1  0  0  0  0  0  0  0  0  0
  153.2377  143.3958  159.3264 C   0  0  0  0  0  0  0  0  0  0  0  0
  150.8748  143.0316  159.5551 C   0  0  1  0  0  0  0  0  0  0  0  0
  150.1641  143.8370  158.4413 C   0  0  0  0  0  0  0  0  0  0  0  0
  148.8359  143.3884  158.2749 O   0  0  0  0  0  0  0  0  0  0  0  0
  148.1135  141.2252  154.8368 N   0  0  0  0  0  0  0  0  0  0  0  0
  147.1252  140.5823  154.1884 N   0  0  0  0  0  0  0  0  0  0  0  0
  147.9658  142.1266  155.2686 H   0  0  0  0  0  0  0  0  0  0  0  0
  147.4827  138.0340  152.1769 H   0  0  0  0  0  0  0  0  0  0  0  0
  146.0107  138.9313  152.5280 H   0  0  0  0  0  0  0  0  0  0  0  0
  146.5474  137.6571  153.6203 H   0  0  0  0  0  0  0  0  0  0  0  0
  149.7737  138.5882  153.9279 H   0  0  0  0  0  0  0  0  0  0  0  0
  150.7826  142.0604  155.0577 H   0  0  0  0  0  0  0  0  0  0  0  0
  151.3999  140.4296  155.2191 H   0  0  0  0  0  0  0  0  0  0  0  0
  152.3664  141.5197  157.1672 H   0  0  0  0  0  0  0  0  0  0  0  0
  151.1277  140.8540  159.6518 H   0  0  0  0  0  0  0  0  0  0  0  0
  153.7357  141.2519  159.0520 H   0  0  0  0  0  0  0  0  0  0  0  0
  152.5967  140.9276  161.4839 H   0  0  0  0  0  0  0  0  0  0  0  0
  154.1385  141.7800  161.4267 H   0  0  0  0  0  0  0  0  0  0  0  0
  151.5585  142.9505  162.1755 H   0  0  0  0  0  0  0  0  0  0  0  0
  153.1314  143.7401  162.1011 H   0  0  0  0  0  0  0  0  0  0  0  0
  151.8985  144.8690  160.2952 H   0  0  0  0  0  0  0  0  0  0  0  0
  154.1965  143.7576  159.7020 H   0  0  0  0  0  0  0  0  0  0  0  0
  153.1299  143.6956  158.2831 H   0  0  0  0  0  0  0  0  0  0  0  0
  150.1265  142.8057  160.3168 H   0  0  0  0  0  0  0  0  0  0  0  0
  150.1541  144.9053  158.6589 H   0  0  0  0  0  0  0  0  0  0  0  0
  150.6753  143.7047  157.4879 H   0  0  0  0  0  0  0  0  0  0  0  0
  148.2988  144.1266  158.0296 H   0  0  0  0  0  0  0  0  0  0  0  0
  1 21  1  0  0  0  0
  1 22  1  0  0  0  0
  1 23  1  0  0  0  0
  1  2  1  0  0  0  0
  2 19  2  0  0  0  0
  2  3  1  0  0  0  0
  3  4  2  0  0  0  0
  3 24  1  0  0  0  0
  4 18  1  0  0  0  0
  4  5  1  0  0  0  0
  5  6  1  0  0  0  0
  5 25  1  0  0  0  0
  5 26  1  0  0  0  0
  6  7  2  0  0  0  0
  6  8  1  0  0  0  0
  8  9  1  0  0  0  0
  8 27  1  0  0  0  0
  9 15  1  0  0  0  0
  9 10  1  0  0  0  0
  9 28  1  0  0  0  0
 10 14  1  0  0  0  0
 10 11  1  0  0  0  0
 10 29  1  0  0  0  0
 11 12  1  0  0  0  0
 11 30  1  0  0  0  0
 11 31  1  0  0  0  0
 12 13  1  0  0  0  0
 12 32  1  0  0  0  0
 12 33  1  0  0  0  0
 13 14  1  0  0  0  0
 13 15  1  0  0  0  0
 13 34  1  0  0  0  0
 14 35  1  0  0  0  0
 14 36  1  0  0  0  0
 15 16  1  0  0  0  0
 15 37  1  0  0  0  0
 16 17  1  0  0  0  0
 16 38  1  0  0  0  0
 16 39  1  0  0  0  0
 17 40  1  0  0  0  0
 18 19  1  0  0  0  0
 18 20  1  0  0  0  0
M  END
> <s_m_source_file>
AV-unprocessed.smi

> <i_m_source_file_index>
2881

> <i_lp_mmshare_version>
43012

> <i_f3d_flags>
0

> <s_epik_input>
W0NIM11jMVtjSF1jKG5bbkhdMSlbQ0gyXUMoPU8pW05IXVtDQEhdKFtDQEBIXTIzKVtDQEhdKFtDSDJdW09IXSlbQ0BASF0oW0NIMl0zKVtDSDJdW0NIMl0y

> <s_epik_cmdline>
J2VwaWtfcHl0aG9uJywgJy1waCcsICc3LjAnLCAnLXRuJywgJzgnLCAnLW1hJywgJzIwMCcsICctbWV0YWxfYmluZGluZycsICctaW1hZScsICc8aW5maWxlLm1hZT4nLCAnLW9tYWUnLCAnPG91dGZpbGUubWFlPic=

> <r_lp_tautomer_probability>
0.5

> <r_epik_Ionization_Penalty>
0.00013396

> <r_epik_Ionization_Penalty_Charging>
0

> <r_epik_Ionization_Penalty_Neutral>
0.00013396

> <r_epik_State_Penalty>
0.41068

> <r_epik_Charging_Adjusted_Penalty>
0.41068

> <i_epik_Tot_Q>
0

> <i_epik_Tot_abs_Q>
0

> <r_epik_Metal_State_Penalty>
0.41066

> <b_epik_Metal_Only>
0

> <s_lp_Force_Field>
OPLS_2005

> <r_lp_Energy>
46.6503

> <b_lp_Chiralities_Consistent>
1

> <s_lp_Variant>
AV-unprocessed.smi:2881-12

> <Gold.Version>
5.8.1

> <Gold.Id.Protein>
6NUR|6NUR_protein|mol2

> <Gold.PLP.Fitness>
43.2836

> <Gold.PLP.PLP>
-38.1581

> <Gold.PLP.part.hbond>
-3.0000

> <Gold.PLP.part.metal>
0.0000

> <Gold.PLP.part.buried>
-2.0902

> <Gold.PLP.part.nonpolar>
-31.6230

> <Gold.PLP.part.repulsive>
0.4935

> <Gold.PLP.ligand.clash>
0.0000

> <Gold.PLP.ligand.torsion>
0.4485

> <Gold.PLP.Chemscore.Hbond>
2.0000

> <Gold.PLP.Chemscore.CHOScore>
0.0000

> <Gold.PLP.Chemscore.Metal>
0.0000

> <Gold.Chemscore.Hbonds>
donor molecule, donor type, donor heavy atom, donor atom, acceptor molecule, acceptor atom, score
      L1  H    17    40       P1  8029  0.80

> <Gold.PLP.Chemscore.Internal.Correction>
0.0226

> <Gold.Rescore>
     Score         DG    S(hbond)    S(metal)    S(lipo)     H(rot)  DE(clash)    DE(int)     intcor
     17.36     -18.74       1.55        0.00     118.97       2.28       0.03       1.35       ----

> <Gold.Chemscore.Fitness>
17.3623

> <Gold.Chemscore.DG>
-18.7422

> <Gold.Chemscore.ZeroCoef>
-5.4800

> <Gold.Chemscore.Hbond>
1.5474

> <Gold.Chemscore.Metal>
0.0000

> <Gold.Chemscore.Lipo>
118.9676

> <Gold.Chemscore.Internal_Hbond>
0.0000

> <Gold.Chemscore.DEClash>
0.0280

> <Gold.Chemscore.DEInternal>
1.3519

> <Gold.Chemscore.Rot>
2.2755

> <Gold.Chemscore.Internal.Correction>
   9.000000E+99

> <Gold.Chemscore.Hbonds>
donor molecule, donor type, donor heavy atom, donor atom, acceptor molecule, acceptor atom, score
      L1  H    17    40       P1  8029  0.11

> <Gold.Chemscore.Hbond.Weighted>
-5.1682

> <Gold.Chemscore.Metal.Weighted>
-0.0000

> <Gold.Chemscore.Lipo.Weighted>
-13.9192

> <Gold.Chemscore.Internal_Hbond.Weighted>
0.0000

> <Gold.Chemscore.DEClash.Weighted>
0.0280

> <Gold.Chemscore.DEInternal.Weighted>
1.3519

> <Gold.Chemscore.Rot.Weighted>
5.8252

> <Gold.Chemscore.Internal.Correction.Weighted>
   9.000000E+99

> <Gold.Protein.RotatedTorsions>
[ 6907 6896 6895 6894 ] final   93.44 input  -60.11 | X-H torsion
[ 7974 7965 7964 7962 ] final  -39.13 input  175.53 | X-H torsion
[ 8008 7997 7996 7995 ] final  -91.57 input   59.86 | X-H torsion
[ 10167 10162 10161 10158 ] final  111.04 input  -65.29 | X-H torsion
[ 10718 10713 10712 10709 ] final   16.78 input   66.30 | X-H torsion
[ 10763 10752 10751 10750 ] final   66.38 input  -60.55 | X-H torsion
[ 11005 11000 10999 10996 ] final -158.74 input  -57.11 | X-H torsion

> <Gold.Protein.ActiveResidues>
 VAL166  LYS551  ARG553  GLY616  TRP617  ASP618  TYR619  PRO620  LYS621  CYS622 
 ASP623  PHE694  ASN695  SER759  ASP760  ASP761  ALA762  ILE779  LEU786  VAL792 
 PHE793  MET794  SER795  GLU796  ALA797  LYS798  CYS799  TRP800  GLU811  SER814 

> <Gold.Protein.RotatedAtoms>
  152.5452  134.1347  159.8453 H   0  0  0  0  0  0  0  0  0  0  0  0  # atno 6907 bound_to 6896
  151.1389  133.4977  159.2605 H   0  0  0  0  0  0  0  0  0  0  0  0  # atno 6908 bound_to 6896
  151.1594  135.0276  159.8758 H   0  0  0  0  0  0  0  0  0  0  0  0  # atno 6909 bound_to 6896
  146.0424  140.6591  142.9081 H   0  0  0  0  0  0  0  0  0  0  0  0  # atno 7974 bound_to 7965
  154.7123  140.0518  157.0562 H   0  0  0  0  0  0  0  0  0  0  0  0  # atno 8008 bound_to 7997
  155.0538  140.3182  155.4664 H   0  0  0  0  0  0  0  0  0  0  0  0  # atno 8009 bound_to 7997
  156.2793  140.2111  156.5664 H   0  0  0  0  0  0  0  0  0  0  0  0  # atno 8010 bound_to 7997
  139.6642  144.7128  151.1808 H   0  0  0  0  0  0  0  0  0  0  0  0  # atno 10167 bound_to 10162
  157.0728  130.6355  149.5809 H   0  0  0  0  0  0  0  0  0  0  0  0  # atno 10718 bound_to 10713
  153.0137  135.5322  154.6814 H   0  0  0  0  0  0  0  0  0  0  0  0  # atno 10763 bound_to 10752
  154.5973  135.2864  155.0575 H   0  0  0  0  0  0  0  0  0  0  0  0  # atno 10764 bound_to 10752
  154.1645  135.6542  153.5046 H   0  0  0  0  0  0  0  0  0  0  0  0  # atno 10765 bound_to 10752
  140.6503  134.4458  157.5235 H   0  0  0  0  0  0  0  0  0  0  0  0  # atno 11005 bound_to 11000
  144.7081  140.3932  143.7102 LP  0  0  0  0  0  0  0  0  0  0  0  0  # atno 17320 bound_to 7965
  145.6862  139.1629  143.2672 LP  0  0  0  0  0  0  0  0  0  0  0  0  # atno 17321 bound_to 7965
  140.7592  143.5946  150.8761 LP  0  0  0  0  0  0  0  0  0  0  0  0  # atno 17342 bound_to 10162
  139.9606  143.6168  152.3003 LP  0  0  0  0  0  0  0  0  0  0  0  0  # atno 17343 bound_to 10162
  155.9945  130.5010  150.7424 LP  0  0  0  0  0  0  0  0  0  0  0  0  # atno 17370 bound_to 10713
  157.4864  131.0907  151.0477 LP  0  0  0  0  0  0  0  0  0  0  0  0  # atno 17371 bound_to 10713
  139.9048  134.8473  156.1749 LP  0  0  0  0  0  0  0  0  0  0  0  0  # atno 17394 bound_to 11000
  141.0542  133.6874  156.1828 LP  0  0  0  0  0  0  0  0  0  0  0  0  # atno 17395 bound_to 11000

$$$$
