AV-unprocessed.smi:1954|AV-procd|sdf|7895|dock9
  -GOLD-   2272010 53D 1   1.00000     0.00000
 Structure written by MMmdl.
 44 46  0  0  0  0  0  0  0  0  1 V2000
  145.6458  134.2389  154.1406 O   0  0  0  0  0  0  0  0  0  0  0  0
  146.5023  134.7063  153.3896 C   0  0  0  0  0  0  0  0  0  0  0  0
  147.4933  135.5087  153.8038 N   0  0  0  0  0  0  0  0  0  0  0  0
  147.7203  135.9463  155.1809 C   0  0  0  0  0  0  0  0  0  0  0  0
  149.2393  136.0307  155.5488 C   0  0  2  0  0  0  0  0  0  0  0  0
  149.8615  137.2335  154.9137 N   0  0  0  0  0  0  0  0  0  0  0  0
  151.2731  137.4808  155.2418 C   0  0  0  0  0  0  0  0  0  0  0  0
  151.8498  138.6861  154.4800 C   0  0  0  0  0  0  0  0  0  0  0  0
  151.0694  139.8429  154.7480 O   0  0  0  0  0  0  0  0  0  0  0  0
  149.7106  139.6712  154.3703 C   0  0  0  0  0  0  0  0  0  0  0  0
  149.1087  138.4769  155.1294 C   0  0  0  0  0  0  0  0  0  0  0  0
  149.9129  134.6916  155.1284 C   0  0  0  0  0  0  0  0  0  0  0  0
  149.4326  133.5716  156.0570 C   0  0  0  0  0  0  0  0  0  0  0  0
  149.1600  134.3070  157.6860 S   0  0  0  0  0  0  0  0  0  0  0  0
  149.3618  136.0107  157.0942 C   0  0  0  0  0  0  0  0  0  0  0  0
  146.5788  134.4868  152.0653 N   0  0  0  0  0  0  0  0  0  0  0  0
  145.7252  133.6901  151.2567 C   0  0  0  0  0  0  0  0  0  0  0  0
  146.3805  132.9312  150.2606 C   0  0  0  0  0  0  0  0  0  0  0  0
  145.6223  132.1084  149.4052 C   0  0  0  0  0  0  0  0  0  0  0  0
  144.2265  132.0644  149.5690 C   0  0  0  0  0  0  0  0  0  0  0  0
  143.6532  132.8498  150.5860 C   0  0  0  0  0  0  0  0  0  0  0  0
  144.3777  133.6393  151.4066 N   0  0  0  0  0  0  0  0  0  0  0  0
  148.1567  135.8338  153.1160 H   0  0  0  0  0  0  0  0  0  0  0  0
  147.2363  136.9146  155.2991 H   0  0  0  0  0  0  0  0  0  0  0  0
  147.1703  135.3084  155.8725 H   0  0  0  0  0  0  0  0  0  0  0  0
  151.3957  137.6516  156.3106 H   0  0  0  0  0  0  0  0  0  0  0  0
  151.8920  136.6264  154.9786 H   0  0  0  0  0  0  0  0  0  0  0  0
  152.8787  138.8716  154.7890 H   0  0  0  0  0  0  0  0  0  0  0  0
  151.8691  138.4908  153.4065 H   0  0  0  0  0  0  0  0  0  0  0  0
  149.1598  140.5829  154.6018 H   0  0  0  0  0  0  0  0  0  0  0  0
  149.6395  139.5192  153.2921 H   0  0  0  0  0  0  0  0  0  0  0  0
  148.0775  138.3742  154.7991 H   0  0  0  0  0  0  0  0  0  0  0  0
  149.0762  138.7130  156.1935 H   0  0  0  0  0  0  0  0  0  0  0  0
  149.7528  134.4446  154.0792 H   0  0  0  0  0  0  0  0  0  0  0  0
  150.9905  134.7310  155.2700 H   0  0  0  0  0  0  0  0  0  0  0  0
  148.4948  133.1454  155.7010 H   0  0  0  0  0  0  0  0  0  0  0  0
  150.1554  132.7575  156.1167 H   0  0  0  0  0  0  0  0  0  0  0  0
  150.3490  136.3329  157.4216 H   0  0  0  0  0  0  0  0  0  0  0  0
  148.6383  136.6657  157.5805 H   0  0  0  0  0  0  0  0  0  0  0  0
  147.3351  134.9438  151.5781 H   0  0  0  0  0  0  0  0  0  0  0  0
  147.4541  132.9772  150.1482 H   0  0  0  0  0  0  0  0  0  0  0  0
  146.1044  131.5218  148.6372 H   0  0  0  0  0  0  0  0  0  0  0  0
  143.6114  131.4457  148.9325 H   0  0  0  0  0  0  0  0  0  0  0  0
  142.5852  132.8442  150.7457 H   0  0  0  0  0  0  0  0  0  0  0  0
  1  2  2  0  0  0  0
  2  3  1  0  0  0  0
  2 16  1  0  0  0  0
  3  4  1  0  0  0  0
  3 23  1  0  0  0  0
  4  5  1  0  0  0  0
  4 24  1  0  0  0  0
  4 25  1  0  0  0  0
  5 15  1  0  0  0  0
  5  6  1  0  0  0  0
  5 12  1  0  0  0  0
  6 11  1  0  0  0  0
  6  7  1  0  0  0  0
  7  8  1  0  0  0  0
  7 26  1  0  0  0  0
  7 27  1  0  0  0  0
  8  9  1  0  0  0  0
  8 28  1  0  0  0  0
  8 29  1  0  0  0  0
  9 10  1  0  0  0  0
 10 11  1  0  0  0  0
 10 30  1  0  0  0  0
 10 31  1  0  0  0  0
 11 32  1  0  0  0  0
 11 33  1  0  0  0  0
 12 13  1  0  0  0  0
 12 34  1  0  0  0  0
 12 35  1  0  0  0  0
 13 14  1  0  0  0  0
 13 36  1  0  0  0  0
 13 37  1  0  0  0  0
 14 15  1  0  0  0  0
 15 38  1  0  0  0  0
 15 39  1  0  0  0  0
 16 17  1  0  0  0  0
 16 40  1  0  0  0  0
 17 22  1  0  0  0  0
 17 18  2  0  0  0  0
 18 19  1  0  0  0  0
 18 41  1  0  0  0  0
 19 20  2  0  0  0  0
 19 42  1  0  0  0  0
 20 21  1  0  0  0  0
 20 43  1  0  0  0  0
 21 22  2  0  0  0  0
 21 44  1  0  0  0  0
M  END
> <s_m_source_file>
AV-unprocessed.smi

> <i_m_source_file_index>
1954

> <i_lp_mmshare_version>
43012

> <i_f3d_flags>
0

> <s_epik_input>
bjFbY0hdW2NIXVtjSF1bY0hdYzFbTkhdQyg9TylbTkhdW0NIMl1bQ0BdMihbQ0gyXVtDSDJdU1tDSDJdMilOM1tDSDJdW0NIMl1PW0NIMl1bQ0gyXTM=

> <s_epik_cmdline>
J2VwaWtfcHl0aG9uJywgJy1waCcsICc3LjAnLCAnLXRuJywgJzgnLCAnLW1hJywgJzIwMCcsICctbWV0YWxfYmluZGluZycsICctaW1hZScsICc8aW5maWxlLm1hZT4nLCAnLW9tYWUnLCAnPG91dGZpbGUubWFlPic=

> <r_epik_Ionization_Penalty>
0.0195535

> <r_epik_Ionization_Penalty_Charging>
0

> <r_epik_Ionization_Penalty_Neutral>
0.0195535

> <r_epik_State_Penalty>
0.0155843

> <r_epik_Charging_Adjusted_Penalty>
0.0155843

> <i_epik_Tot_Q>
0

> <i_epik_Tot_abs_Q>
0

> <r_epik_Metal_State_Penalty>
0.0155842

> <b_epik_Metal_Only>
0

> <s_lp_Force_Field>
OPLS_2005

> <r_lp_Energy>
55.0934

> <b_lp_Chiralities_Consistent>
1

> <s_lp_Variant>
AV-unprocessed.smi:1954-2

> <Gold.Version>
5.8.1

> <Gold.Id.Protein>
6NUR|6NUR_protein|mol2

> <Gold.PLP.Fitness>
42.5244

> <Gold.PLP.PLP>
-32.6120

> <Gold.PLP.part.hbond>
-2.9834

> <Gold.PLP.part.metal>
0.0000

> <Gold.PLP.part.buried>
-2.7422

> <Gold.PLP.part.nonpolar>
-26.9365

> <Gold.PLP.part.repulsive>
0.4597

> <Gold.PLP.ligand.clash>
0.0000

> <Gold.PLP.ligand.torsion>
0.7354

> <Gold.PLP.Chemscore.Hbond>
2.8960

> <Gold.PLP.Chemscore.CHOScore>
0.8756

> <Gold.PLP.Chemscore.Metal>
0.0000

> <Gold.Chemscore.Hbonds>
donor molecule, donor type, donor heavy atom, donor atom, acceptor molecule, acceptor atom, score
      L1  H     3    23       P1  7948  0.99
      L1  H    16    40       P1  7948  0.87
      P1  H  7989  7998       L1     9  0.95
      L1  C    21    44       P1 10186  0.87

> <Gold.PLP.Chemscore.Internal.Correction>
0.0684

> <Gold.Rescore>
     Score         DG    S(hbond)    S(metal)    S(lipo)     H(rot)  DE(clash)    DE(int)     intcor
     16.40     -17.76       1.86        0.00      84.60       1.49       0.08       1.28       ----

> <Gold.Chemscore.Fitness>
16.4030

> <Gold.Chemscore.DG>
-17.7575

> <Gold.Chemscore.ZeroCoef>
-5.4800

> <Gold.Chemscore.Hbond>
1.8574

> <Gold.Chemscore.Metal>
0.0000

> <Gold.Chemscore.Lipo>
84.6017

> <Gold.Chemscore.Internal_Hbond>
0.0000

> <Gold.Chemscore.DEClash>
0.0757

> <Gold.Chemscore.DEInternal>
1.2789

> <Gold.Chemscore.Rot>
1.4940

> <Gold.Chemscore.Internal.Correction>
   9.000000E+99

> <Gold.Chemscore.Hbonds>
donor molecule, donor type, donor heavy atom, donor atom, acceptor molecule, acceptor atom, score
      L1  H     3    23       P1  7948  0.93
      L1  H    16    40       P1  7948  0.56
      P1  H  7989  7998       L1     9  0.06

> <Gold.Chemscore.Hbond.Weighted>
-6.2038

> <Gold.Chemscore.Metal.Weighted>
-0.0000

> <Gold.Chemscore.Lipo.Weighted>
-9.8984

> <Gold.Chemscore.Internal_Hbond.Weighted>
0.0000

> <Gold.Chemscore.DEClash.Weighted>
0.0757

> <Gold.Chemscore.DEInternal.Weighted>
1.2789

> <Gold.Chemscore.Rot.Weighted>
3.8246

> <Gold.Chemscore.Internal.Correction.Weighted>
   9.000000E+99

> <Gold.Protein.RotatedTorsions>
[ 6907 6896 6895 6894 ] final  157.98 input  -60.11 | X-H torsion
[ 7974 7965 7964 7962 ] final  -58.83 input  175.53 | X-H torsion
[ 8008 7997 7996 7995 ] final  135.37 input   59.86 | X-H torsion
[ 10167 10162 10161 10158 ] final  106.22 input  -65.29 | X-H torsion
[ 10718 10713 10712 10709 ] final  -61.67 input   66.30 | X-H torsion
[ 10763 10752 10751 10750 ] final   -5.42 input  -60.55 | X-H torsion
[ 11005 11000 10999 10996 ] final -121.89 input  -57.11 | X-H torsion

> <Gold.Protein.ActiveResidues>
 VAL166  LYS551  ARG553  GLY616  TRP617  ASP618  TYR619  PRO620  LYS621  CYS622 
 ASP623  PHE694  ASN695  SER759  ASP760  ASP761  ALA762  ILE779  LEU786  VAL792 
 PHE793  MET794  SER795  GLU796  ALA797  LYS798  CYS799  TRP800  GLU811  SER814 

> <Gold.Protein.RotatedAtoms>
  152.0072  133.3847  159.4204 H   0  0  0  0  0  0  0  0  0  0  0  0  # atno 6907 bound_to 6896
  150.6903  134.3770  159.5026 H   0  0  0  0  0  0  0  0  0  0  0  0  # atno 6908 bound_to 6896
  152.1526  134.8976  160.0598 H   0  0  0  0  0  0  0  0  0  0  0  0  # atno 6909 bound_to 6896
  145.8346  140.8457  143.0065 H   0  0  0  0  0  0  0  0  0  0  0  0  # atno 7974 bound_to 7965
  156.3002  140.2472  156.3569 H   0  0  0  0  0  0  0  0  0  0  0  0  # atno 8008 bound_to 7997
  154.8913  140.0409  157.1859 H   0  0  0  0  0  0  0  0  0  0  0  0  # atno 8009 bound_to 7997
  154.8595  140.2918  155.5552 H   0  0  0  0  0  0  0  0  0  0  0  0  # atno 8010 bound_to 7997
  139.7028  144.7091  151.1157 H   0  0  0  0  0  0  0  0  0  0  0  0  # atno 10167 bound_to 10162
  156.0906  130.4201  150.1026 H   0  0  0  0  0  0  0  0  0  0  0  0  # atno 10718 bound_to 10713
  153.3982  135.7004  153.6445 H   0  0  0  0  0  0  0  0  0  0  0  0  # atno 10763 bound_to 10752
  153.4989  135.3656  155.2530 H   0  0  0  0  0  0  0  0  0  0  0  0  # atno 10764 bound_to 10752
  154.8708  135.4107  154.3312 H   0  0  0  0  0  0  0  0  0  0  0  0  # atno 10765 bound_to 10752
  141.0036  134.0366  157.3505 H   0  0  0  0  0  0  0  0  0  0  0  0  # atno 11005 bound_to 11000
  144.6737  140.0723  143.7472 LP  0  0  0  0  0  0  0  0  0  0  0  0  # atno 17320 bound_to 7965
  145.9532  139.2748  143.1199 LP  0  0  0  0  0  0  0  0  0  0  0  0  # atno 17321 bound_to 7965
  140.7714  143.5401  150.9323 LP  0  0  0  0  0  0  0  0  0  0  0  0  # atno 17342 bound_to 10162
  139.9083  143.6751  152.3119 LP  0  0  0  0  0  0  0  0  0  0  0  0  # atno 17343 bound_to 10162
  156.9037  130.9629  151.3573 LP  0  0  0  0  0  0  0  0  0  0  0  0  # atno 17370 bound_to 10713
  157.6054  130.8543  149.8867 LP  0  0  0  0  0  0  0  0  0  0  0  0  # atno 17371 bound_to 10713
  139.9052  135.0177  156.7451 LP  0  0  0  0  0  0  0  0  0  0  0  0  # atno 17394 bound_to 11000
  140.6848  133.9442  155.7931 LP  0  0  0  0  0  0  0  0  0  0  0  0  # atno 17395 bound_to 11000

$$$$
