AV-unprocessed.smi:1803|AV-procd|sdf|7294|dock1
  -GOLD-   22720 8553D 1   1.00000     0.00000
 Structure written by MMmdl.
 35 37  0  0  0  0  0  0  0  0  3 V2000
  147.4752  132.8024  154.0614 O   0  0  0  0  0  0  0  0  0  0  0  0
  148.0101  133.8949  153.8782 C   0  0  0  0  0  0  0  0  0  0  0  0
  149.1825  134.2606  154.4588 N   0  5  0  0  0  0  0  0  0  0  0  0
  149.8389  133.4705  155.3287 C   0  0  0  0  0  0  0  0  0  0  0  0
  150.3536  133.9352  156.4786 N   0  0  0  0  0  0  0  0  0  0  0  0
  150.9976  132.9565  157.2230 N   0  0  0  0  0  0  0  0  0  0  0  0
  150.9380  131.7694  156.6201 C   0  0  0  0  0  0  0  0  0  0  0  0
  150.1005  131.7418  155.0827 S   0  0  0  0  0  0  0  0  0  0  0  0
  147.4109  134.7829  153.0630 N   0  0  0  0  0  0  0  0  0  0  0  0
  146.1609  134.5731  152.3430 C   0  0  1  0  0  0  0  0  0  0  0  0
  145.4608  135.8719  151.9128 C   0  0  0  0  0  0  0  0  0  0  0  0
  144.9044  135.5878  150.5038 C   0  0  0  0  0  0  0  0  0  0  0  0
  145.1889  134.1637  150.2128 N   0  3  2  0  0  0  0  0  0  0  0  0
  144.0163  133.2899  150.4914 C   0  0  0  0  0  0  0  0  0  0  0  0
  144.3758  131.8000  150.4210 C   0  0  0  0  0  0  0  0  0  0  0  0
  145.4986  131.4799  151.4112 C   0  0  0  0  0  0  0  0  0  0  0  0
  146.7231  132.3446  151.0927 C   0  0  0  0  0  0  0  0  0  0  0  0
  146.3973  133.8529  151.0134 C   0  0  2  0  0  0  0  0  0  0  0  0
  151.3914  130.9054  157.0827 H   0  0  0  0  0  0  0  0  0  0  0  0
  147.8666  135.6749  152.9366 H   0  0  0  0  0  0  0  0  0  0  0  0
  145.4800  133.9836  152.9594 H   0  0  0  0  0  0  0  0  0  0  0  0
  144.6694  136.1365  152.6148 H   0  0  0  0  0  0  0  0  0  0  0  0
  146.1581  136.7101  151.8749 H   0  0  0  0  0  0  0  0  0  0  0  0
  143.8443  135.8303  150.4164 H   0  0  0  0  0  0  0  0  0  0  0  0
  145.4358  136.1981  149.7727 H   0  0  0  0  0  0  0  0  0  0  0  0
  143.6098  133.5168  151.4784 H   0  0  0  0  0  0  0  0  0  0  0  0
  143.2283  133.5149  149.7718 H   0  0  0  0  0  0  0  0  0  0  0  0
  143.4975  131.1946  150.6468 H   0  0  0  0  0  0  0  0  0  0  0  0
  144.6837  131.5372  149.4081 H   0  0  0  0  0  0  0  0  0  0  0  0
  145.1620  131.6626  152.4322 H   0  0  0  0  0  0  0  0  0  0  0  0
  145.7616  130.4232  151.3547 H   0  0  0  0  0  0  0  0  0  0  0  0
  147.5102  132.1670  151.8264 H   0  0  0  0  0  0  0  0  0  0  0  0
  147.1310  132.0249  150.1329 H   0  0  0  0  0  0  0  0  0  0  0  0
  147.2354  134.3435  150.5138 H   0  0  0  0  0  0  0  0  0  0  0  0
  145.4144  134.0605  149.2338 H   0  0  0  0  0  0  0  0  0  0  0  0
  1  2  2  0  0  0  0
  2  3  1  0  0  0  0
  2  9  1  0  0  0  0
  3  4  1  0  0  0  0
  4  8  1  0  0  0  0
  4  5  2  0  0  0  0
  5  6  1  0  0  0  0
  6  7  2  0  0  0  0
  7  8  1  0  0  0  0
  7 19  1  0  0  0  0
  9 10  1  0  0  0  0
  9 20  1  0  0  0  0
 10 18  1  0  0  0  0
 10 11  1  0  0  0  0
 10 21  1  0  0  0  0
 11 12  1  0  0  0  0
 11 22  1  0  0  0  0
 11 23  1  0  0  0  0
 12 13  1  0  0  0  0
 12 24  1  0  0  0  0
 12 25  1  0  0  0  0
 13 18  1  0  0  0  0
 13 14  1  0  0  0  0
 13 35  1  0  0  0  0
 14 15  1  0  0  0  0
 14 26  1  0  0  0  0
 14 27  1  0  0  0  0
 15 16  1  0  0  0  0
 15 28  1  0  0  0  0
 15 29  1  0  0  0  0
 16 17  1  0  0  0  0
 16 30  1  0  0  0  0
 16 31  1  0  0  0  0
 17 18  1  0  0  0  0
 17 32  1  0  0  0  0
 17 33  1  0  0  0  0
 18 34  1  0  0  0  0
M  CHG  1   3  -1
M  CHG  1  13   1
M  END
> <s_m_source_file>
AV-unprocessed.smi

> <i_m_source_file_index>
1803

> <i_lp_mmshare_version>
43012

> <i_f3d_flags>
0

> <s_epik_input>
czFbY0hdbm5jMVtOSF1DKD1PKVtOSF1bQ0BIXShbQ0gyXVtDSDJdMilbQ0BASF0oTjIzKVtDSDJdW0NIMl1bQ0gyXVtDSDJdMw==

> <s_epik_cmdline>
J2VwaWtfcHl0aG9uJywgJy1waCcsICc3LjAnLCAnLXRuJywgJzgnLCAnLW1hJywgJzIwMCcsICctbWV0YWxfYmluZGluZycsICctaW1hZScsICc8aW5maWxlLm1hZT4nLCAnLW9tYWUnLCAnPG91dGZpbGUubWFlPic=

> <r_lp_tautomer_probability>
1

> <r_epik_Ionization_Penalty>
3.78828

> <r_epik_Ionization_Penalty_Charging>
3.7591

> <r_epik_Ionization_Penalty_Neutral>
0.0291838

> <r_epik_State_Penalty>
3.757

> <r_epik_Charging_Adjusted_Penalty>
7.51609

> <i_epik_Tot_Q>
0

> <i_epik_Tot_abs_Q>
2

> <r_epik_Metal_State_Penalty>
0.558016

> <b_epik_Metal_Only>
1

> <s_lp_Force_Field>
OPLS_2005

> <r_lp_Energy>
31.4395

> <b_lp_Chiralities_Consistent>
1

> <s_lp_Variant>
AV-unprocessed.smi:1803-16

> <Gold.Version>
5.8.1

> <Gold.Id.Protein>
6NUR|6NUR_protein|mol2

> <Gold.PLP.Fitness>
35.6625

> <Gold.PLP.PLP>
-29.2285

> <Gold.PLP.part.hbond>
-2.6227

> <Gold.PLP.part.metal>
0.0000

> <Gold.PLP.part.buried>
-0.6671

> <Gold.PLP.part.nonpolar>
-25.0864

> <Gold.PLP.part.repulsive>
0.2783

> <Gold.PLP.ligand.clash>
0.0000

> <Gold.PLP.ligand.torsion>
0.6998

> <Gold.PLP.Chemscore.Hbond>
2.6080

> <Gold.PLP.Chemscore.CHOScore>
0.0000

> <Gold.PLP.Chemscore.Metal>
0.0000

> <Gold.Chemscore.Hbonds>
donor molecule, donor type, donor heavy atom, donor atom, acceptor molecule, acceptor atom, score
      L1  H     9    20       P1  7948  0.64
      L1  H    13    35       P1  7921  0.99
      P1  H  6896  6908       L1     6  0.95

> <Gold.PLP.Chemscore.Internal.Correction>
0.0095

> <Gold.Rescore>
     Score         DG    S(hbond)    S(metal)    S(lipo)     H(rot)  DE(clash)    DE(int)     intcor
     18.48     -20.30       2.86        0.00      66.79       1.00       1.08       0.74       ----

> <Gold.Chemscore.Fitness>
18.4757

> <Gold.Chemscore.DG>
-20.3006

> <Gold.Chemscore.ZeroCoef>
-5.4800

> <Gold.Chemscore.Hbond>
2.8640

> <Gold.Chemscore.Metal>
0.0000

> <Gold.Chemscore.Lipo>
66.7944

> <Gold.Chemscore.Internal_Hbond>
0.0000

> <Gold.Chemscore.DEClash>
1.0816

> <Gold.Chemscore.DEInternal>
0.7433

> <Gold.Chemscore.Rot>
1.0000

> <Gold.Chemscore.Internal.Correction>
   9.000000E+99

> <Gold.Chemscore.Hbonds>
donor molecule, donor type, donor heavy atom, donor atom, acceptor molecule, acceptor atom, score
      L1  H     9    20       P1  7948  0.63
      L1  H    13    35       P1  7921  0.79
      P1  H  6896  6908       L1     6  0.77

> <Gold.Chemscore.Hbond.Weighted>
-9.5656

> <Gold.Chemscore.Metal.Weighted>
-0.0000

> <Gold.Chemscore.Lipo.Weighted>
-7.8149

> <Gold.Chemscore.Internal_Hbond.Weighted>
0.0000

> <Gold.Chemscore.DEClash.Weighted>
1.0816

> <Gold.Chemscore.DEInternal.Weighted>
0.7433

> <Gold.Chemscore.Rot.Weighted>
2.5600

> <Gold.Chemscore.Internal.Correction.Weighted>
   9.000000E+99

> <Gold.Protein.RotatedTorsions>
[ 6907 6896 6895 6894 ] final   83.94 input  -60.11 | X-H torsion
[ 7974 7965 7964 7962 ] final  -47.40 input  175.53 | X-H torsion
[ 8008 7997 7996 7995 ] final -141.92 input   59.86 | X-H torsion
[ 10167 10162 10161 10158 ] final  -74.18 input  -65.29 | X-H torsion
[ 10718 10713 10712 10709 ] final -152.51 input   66.30 | X-H torsion
[ 10763 10752 10751 10750 ] final  -25.32 input  -60.55 | X-H torsion
[ 11005 11000 10999 10996 ] final  138.61 input  -57.11 | X-H torsion

> <Gold.Protein.ActiveResidues>
 VAL166  LYS551  ARG553  GLY616  TRP617  ASP618  TYR619  PRO620  LYS621  CYS622 
 ASP623  PHE694  ASN695  SER759  ASP760  ASP761  ALA762  ILE779  LEU786  VAL792 
 PHE793  MET794  SER795  GLU796  ALA797  LYS798  CYS799  TRP800  GLU811  SER814 

> <Gold.Protein.RotatedAtoms>
  152.5340  134.2818  159.9010 H   0  0  0  0  0  0  0  0  0  0  0  0  # atno 6907 bound_to 6896
  151.2772  133.4220  159.2632 H   0  0  0  0  0  0  0  0  0  0  0  0  # atno 6908 bound_to 6896
  151.0315  134.9558  159.8170 H   0  0  0  0  0  0  0  0  0  0  0  0  # atno 6909 bound_to 6896
  145.9620  140.7469  142.9452 H   0  0  0  0  0  0  0  0  0  0  0  0  # atno 7974 bound_to 7965
  155.4857  140.0564  157.2961 H   0  0  0  0  0  0  0  0  0  0  0  0  # atno 8008 bound_to 7997
  154.4642  140.2011  156.0113 H   0  0  0  0  0  0  0  0  0  0  0  0  # atno 8009 bound_to 7997
  156.0946  140.3228  155.7864 H   0  0  0  0  0  0  0  0  0  0  0  0  # atno 8010 bound_to 7997
  140.5048  143.2355  151.7692 H   0  0  0  0  0  0  0  0  0  0  0  0  # atno 10167 bound_to 10162
  156.4734  130.8269  151.2498 H   0  0  0  0  0  0  0  0  0  0  0  0  # atno 10718 bound_to 10713
  153.6980  135.6958  153.5071 H   0  0  0  0  0  0  0  0  0  0  0  0  # atno 10763 bound_to 10752
  153.2363  135.4320  155.0649 H   0  0  0  0  0  0  0  0  0  0  0  0  # atno 10764 bound_to 10752
  154.8353  135.3497  154.6520 H   0  0  0  0  0  0  0  0  0  0  0  0  # atno 10765 bound_to 10752
  140.0196  134.9402  157.0447 H   0  0  0  0  0  0  0  0  0  0  0  0  # atno 11005 bound_to 11000
  144.6817  140.2607  143.7319 LP  0  0  0  0  0  0  0  0  0  0  0  0  # atno 17320 bound_to 7965
  145.8026  139.1970  143.2039 LP  0  0  0  0  0  0  0  0  0  0  0  0  # atno 17321 bound_to 7965
  139.4881  144.4472  151.9696 LP  0  0  0  0  0  0  0  0  0  0  0  0  # atno 17342 bound_to 10162
  140.3562  144.3028  150.5941 LP  0  0  0  0  0  0  0  0  0  0  0  0  # atno 17343 bound_to 10162
  157.7489  131.0068  150.3167 LP  0  0  0  0  0  0  0  0  0  0  0  0  # atno 17370 bound_to 10713
  156.3595  130.3844  149.7263 LP  0  0  0  0  0  0  0  0  0  0  0  0  # atno 17371 bound_to 10713
  140.4410  134.1681  155.7174 LP  0  0  0  0  0  0  0  0  0  0  0  0  # atno 17394 bound_to 11000
  141.1765  133.8503  157.1403 LP  0  0  0  0  0  0  0  0  0  0  0  0  # atno 17395 bound_to 11000

$$$$
