AV-unprocessed.smi:943|AV-procd|sdf|4229|dock10
  -GOLD-   22720 2133D 1   1.00000     0.00000
 Structure written by MMmdl.
 43 44  0  0  0  0  0  0  0  0  1 V2000
  151.3620  139.6983  156.0150 C   0  0  0  0  0  0  0  0  0  0  0  0
  151.1318  140.0103  157.5039 C   0  0  2  0  0  0  0  0  0  0  0  0
  152.2048  140.9920  158.0334 C   0  0  0  0  0  0  0  0  0  0  0  0
  151.7028  142.1306  158.9551 C   0  0  0  0  0  0  0  0  0  0  0  0
  151.3016  143.4009  158.1719 C   0  0  0  0  0  0  0  0  0  0  0  0
  150.8550  144.5346  159.1091 C   0  0  0  0  0  0  0  0  0  0  0  0
  151.9332  144.8608  160.1513 C   0  0  0  0  0  0  0  0  0  0  0  0
  152.3198  143.6063  160.9470 C   0  0  0  0  0  0  0  0  0  0  0  0
  152.7743  142.4751  160.0112 C   0  0  0  0  0  0  0  0  0  0  0  0
  151.0933  138.7083  158.3168 C   0  0  0  0  0  0  0  0  0  0  0  0
  151.9641  138.4708  159.1544 O   0  0  0  0  0  0  0  0  0  0  0  0
  150.0683  137.8816  158.0684 N   0  0  0  0  0  0  0  0  0  0  0  0
  149.8284  136.6279  158.7709 C   0  0  0  0  0  0  0  0  0  0  0  0
  148.3431  136.4595  159.1309 C   0  0  0  0  0  0  0  0  0  0  0  0
  148.1246  135.8504  160.4858 C   0  0  0  0  0  0  0  0  0  0  0  0
  147.9093  134.5221  160.7670 C   0  0  0  0  0  0  0  0  0  0  0  0
  147.7048  134.2384  162.4747 S   0  0  0  0  0  0  0  0  0  0  0  0
  147.9207  135.9605  162.7376 C   0  0  0  0  0  0  0  0  0  0  0  0
  148.1265  136.6640  161.6240 N   0  0  0  0  0  0  0  0  0  0  0  0
  150.6188  138.9953  155.6361 H   0  0  0  0  0  0  0  0  0  0  0  0
  152.3482  139.2653  155.8421 H   0  0  0  0  0  0  0  0  0  0  0  0
  151.2894  140.6035  155.4117 H   0  0  0  0  0  0  0  0  0  0  0  0
  150.1554  140.4907  157.5774 H   0  0  0  0  0  0  0  0  0  0  0  0
  152.9664  140.4207  158.5667 H   0  0  0  0  0  0  0  0  0  0  0  0
  152.7208  141.4364  157.1812 H   0  0  0  0  0  0  0  0  0  0  0  0
  150.8236  141.7796  159.4970 H   0  0  0  0  0  0  0  0  0  0  0  0
  152.1411  143.7400  157.5635 H   0  0  0  0  0  0  0  0  0  0  0  0
  150.4870  143.1819  157.4819 H   0  0  0  0  0  0  0  0  0  0  0  0
  150.6194  145.4261  158.5274 H   0  0  0  0  0  0  0  0  0  0  0  0
  149.9353  144.2440  159.6177 H   0  0  0  0  0  0  0  0  0  0  0  0
  152.8146  145.2666  159.6533 H   0  0  0  0  0  0  0  0  0  0  0  0
  151.5741  145.6363  160.8285 H   0  0  0  0  0  0  0  0  0  0  0  0
  153.1148  143.8455  161.6538 H   0  0  0  0  0  0  0  0  0  0  0  0
  151.4679  143.2716  161.5404 H   0  0  0  0  0  0  0  0  0  0  0  0
  153.0108  141.5906  160.6039 H   0  0  0  0  0  0  0  0  0  0  0  0
  153.7002  142.7681  159.5145 H   0  0  0  0  0  0  0  0  0  0  0  0
  149.3941  138.1531  157.3677 H   0  0  0  0  0  0  0  0  0  0  0  0
  150.1592  135.7929  158.1519 H   0  0  0  0  0  0  0  0  0  0  0  0
  150.4305  136.6094  159.6810 H   0  0  0  0  0  0  0  0  0  0  0  0
  147.8543  137.4332  159.0824 H   0  0  0  0  0  0  0  0  0  0  0  0
  147.8583  135.8503  158.3671 H   0  0  0  0  0  0  0  0  0  0  0  0
  147.8598  133.6951  160.0743 H   0  0  0  0  0  0  0  0  0  0  0  0
  147.8943  136.4485  163.7006 H   0  0  0  0  0  0  0  0  0  0  0  0
  1  2  1  0  0  0  0
  1 20  1  0  0  0  0
  1 21  1  0  0  0  0
  1 22  1  0  0  0  0
  2  3  1  0  0  0  0
  2 10  1  0  0  0  0
  2 23  1  0  0  0  0
  3  4  1  0  0  0  0
  3 24  1  0  0  0  0
  3 25  1  0  0  0  0
  4  9  1  0  0  0  0
  4  5  1  0  0  0  0
  4 26  1  0  0  0  0
  5  6  1  0  0  0  0
  5 27  1  0  0  0  0
  5 28  1  0  0  0  0
  6  7  1  0  0  0  0
  6 29  1  0  0  0  0
  6 30  1  0  0  0  0
  7  8  1  0  0  0  0
  7 31  1  0  0  0  0
  7 32  1  0  0  0  0
  8  9  1  0  0  0  0
  8 33  1  0  0  0  0
  8 34  1  0  0  0  0
  9 35  1  0  0  0  0
  9 36  1  0  0  0  0
 10 11  2  0  0  0  0
 10 12  1  0  0  0  0
 12 13  1  0  0  0  0
 12 37  1  0  0  0  0
 13 14  1  0  0  0  0
 13 38  1  0  0  0  0
 13 39  1  0  0  0  0
 14 15  1  0  0  0  0
 14 40  1  0  0  0  0
 14 41  1  0  0  0  0
 15 19  1  0  0  0  0
 15 16  2  0  0  0  0
 16 17  1  0  0  0  0
 16 42  1  0  0  0  0
 17 18  1  0  0  0  0
 18 19  2  0  0  0  0
 18 43  1  0  0  0  0
M  END
> <s_m_source_file>
AV-unprocessed.smi

> <i_m_source_file_index>
943

> <i_lp_mmshare_version>
43012

> <i_f3d_flags>
0

> <s_epik_input>
W0NIMl0xW0NIMl1bQ0gyXVtDSDJdW0NIMl1bQ0hdMVtDSDJdW0NAQEhdKFtDSDNdKUMoPU8pW05IXVtDSDJdW0NIMl1jMltjSF1zW2NIXW4y

> <s_epik_cmdline>
J2VwaWtfcHl0aG9uJywgJy1waCcsICc3LjAnLCAnLXRuJywgJzgnLCAnLW1hJywgJzIwMCcsICctbWV0YWxfYmluZGluZycsICctaW1hZScsICc8aW5maWxlLm1hZT4nLCAnLW9tYWUnLCAnPG91dGZpbGUubWFlPic=

> <r_lp_tautomer_probability>
1

> <r_epik_Ionization_Penalty>
0.000194757

> <r_epik_Ionization_Penalty_Charging>
0

> <r_epik_Ionization_Penalty_Neutral>
0.000194757

> <r_epik_State_Penalty>
-0

> <r_epik_Charging_Adjusted_Penalty>
0

> <i_epik_Tot_Q>
0

> <i_epik_Tot_abs_Q>
0

> <r_epik_Metal_State_Penalty>
-0

> <b_epik_Metal_Only>
0

> <s_lp_Force_Field>
OPLS_2005

> <r_lp_Energy>
6.00362

> <b_lp_Chiralities_Consistent>
1

> <s_lp_Variant>
AV-unprocessed.smi:943-1

> <Gold.Version>
5.8.1

> <Gold.Id.Protein>
6NUR|6NUR_protein|mol2

> <Gold.PLP.Fitness>
46.9329

> <Gold.PLP.PLP>
-45.3075

> <Gold.PLP.part.hbond>
-2.0000

> <Gold.PLP.part.metal>
0.0000

> <Gold.PLP.part.buried>
-5.3534

> <Gold.PLP.part.nonpolar>
-37.9331

> <Gold.PLP.part.repulsive>
0.1044

> <Gold.PLP.ligand.clash>
0.0000

> <Gold.PLP.ligand.torsion>
1.8285

> <Gold.PLP.Chemscore.Hbond>
1.7200

> <Gold.PLP.Chemscore.CHOScore>
0.0000

> <Gold.PLP.Chemscore.Metal>
0.0000

> <Gold.Chemscore.Hbonds>
donor molecule, donor type, donor heavy atom, donor atom, acceptor molecule, acceptor atom, score
      P1  H  6931  6943       L1    19  1.00

> <Gold.PLP.Chemscore.Internal.Correction>
0.1225

> <Gold.Rescore>
     Score         DG    S(hbond)    S(metal)    S(lipo)     H(rot)  DE(clash)    DE(int)     intcor
     18.49     -19.60       0.99        0.00     127.04       1.58       0.00       1.11       ----

> <Gold.Chemscore.Fitness>
18.4910

> <Gold.Chemscore.DG>
-19.5979

> <Gold.Chemscore.ZeroCoef>
-5.4800

> <Gold.Chemscore.Hbond>
0.9867

> <Gold.Chemscore.Metal>
0.0000

> <Gold.Chemscore.Lipo>
127.0433

> <Gold.Chemscore.Internal_Hbond>
0.0000

> <Gold.Chemscore.DEClash>
0.0004

> <Gold.Chemscore.DEInternal>
1.1064

> <Gold.Chemscore.Rot>
1.5789

> <Gold.Chemscore.Internal.Correction>
   9.000000E+99

> <Gold.Chemscore.Hbonds>
donor molecule, donor type, donor heavy atom, donor atom, acceptor molecule, acceptor atom, score
      P1  H  6931  6943       L1    19  0.85

> <Gold.Chemscore.Hbond.Weighted>
-3.2957

> <Gold.Chemscore.Metal.Weighted>
-0.0000

> <Gold.Chemscore.Lipo.Weighted>
-14.8641

> <Gold.Chemscore.Internal_Hbond.Weighted>
0.0000

> <Gold.Chemscore.DEClash.Weighted>
0.0004

> <Gold.Chemscore.DEInternal.Weighted>
1.1064

> <Gold.Chemscore.Rot.Weighted>
4.0419

> <Gold.Chemscore.Internal.Correction.Weighted>
   9.000000E+99

> <Gold.Protein.RotatedTorsions>
[ 6907 6896 6895 6894 ] final  -44.81 input  -60.11 | X-H torsion
[ 7974 7965 7964 7962 ] final  105.04 input  175.53 | X-H torsion
[ 8008 7997 7996 7995 ] final -166.97 input   59.86 | X-H torsion
[ 10167 10162 10161 10158 ] final -121.59 input  -65.29 | X-H torsion
[ 10718 10713 10712 10709 ] final  -62.78 input   66.30 | X-H torsion
[ 10763 10752 10751 10750 ] final  154.17 input  -60.55 | X-H torsion
[ 11005 11000 10999 10996 ] final  115.69 input  -57.11 | X-H torsion

> <Gold.Protein.ActiveResidues>
 VAL166  LYS551  ARG553  GLY616  TRP617  ASP618  TYR619  PRO620  LYS621  CYS622 
 ASP623  PHE694  ASN695  SER759  ASP760  ASP761  ALA762  ILE779  LEU786  VAL792 
 PHE793  MET794  SER795  GLU796  ALA797  LYS798  CYS799  TRP800  GLU811  SER814 

> <Gold.Protein.RotatedAtoms>
  150.9287  134.8703  159.7536 H   0  0  0  0  0  0  0  0  0  0  0  0  # atno 6907 bound_to 6896
  152.5028  134.4111  159.9459 H   0  0  0  0  0  0  0  0  0  0  0  0  # atno 6908 bound_to 6896
  151.4139  133.3679  159.2782 H   0  0  0  0  0  0  0  0  0  0  0  0  # atno 6909 bound_to 6896
  145.3249  139.2502  143.3692 H   0  0  0  0  0  0  0  0  0  0  0  0  # atno 7974 bound_to 7965
  155.8713  140.0994  157.1548 H   0  0  0  0  0  0  0  0  0  0  0  0  # atno 8008 bound_to 7997
  154.3997  140.1346  156.4144 H   0  0  0  0  0  0  0  0  0  0  0  0  # atno 8009 bound_to 7997
  155.7748  140.3460  155.5268 H   0  0  0  0  0  0  0  0  0  0  0  0  # atno 8010 bound_to 7997
  140.0233  143.5322  152.2210 H   0  0  0  0  0  0  0  0  0  0  0  0  # atno 10167 bound_to 10162
  156.0833  130.4213  150.1184 H   0  0  0  0  0  0  0  0  0  0  0  0  # atno 10718 bound_to 10713
  154.1480  135.2817  155.3143 H   0  0  0  0  0  0  0  0  0  0  0  0  # atno 10763 bound_to 10752
  154.6238  135.5458  153.7608 H   0  0  0  0  0  0  0  0  0  0  0  0  # atno 10764 bound_to 10752
  153.0230  135.6445  154.1625 H   0  0  0  0  0  0  0  0  0  0  0  0  # atno 10765 bound_to 10752
  139.9018  134.9587  156.7084 H   0  0  0  0  0  0  0  0  0  0  0  0  # atno 11005 bound_to 11000
  146.3068  140.3815  142.8684 LP  0  0  0  0  0  0  0  0  0  0  0  0  # atno 17320 bound_to 7965
  144.8910  140.7523  143.5927 LP  0  0  0  0  0  0  0  0  0  0  0  0  # atno 17321 bound_to 7965
  139.6125  144.7612  151.2920 LP  0  0  0  0  0  0  0  0  0  0  0  0  # atno 17342 bound_to 10162
  140.7333  143.6798  150.8010 LP  0  0  0  0  0  0  0  0  0  0  0  0  # atno 17343 bound_to 10162
  156.9211  130.9683  151.3548 LP  0  0  0  0  0  0  0  0  0  0  0  0  # atno 17370 bound_to 10713
  157.5958  130.8476  149.8727 LP  0  0  0  0  0  0  0  0  0  0  0  0  # atno 17371 bound_to 10713
  140.7095  133.9235  155.8075 LP  0  0  0  0  0  0  0  0  0  0  0  0  # atno 17394 bound_to 11000
  141.0311  134.0755  157.4013 LP  0  0  0  0  0  0  0  0  0  0  0  0  # atno 17395 bound_to 11000

$$$$
