AV-unprocessed.smi:1603|AV-procd|sdf|6443|dock2
  -GOLD-   22720 7 93D 1   1.00000     0.00000
 Structure written by MMmdl.
 45 47  0  0  0  0  0  0  0  0  2 V2000
  149.8659  138.8593  156.9163 O   0  0  0  0  0  0  0  0  0  0  0  0
  150.1722  139.9516  157.3955 C   0  0  0  0  0  0  0  0  0  0  0  0
  151.3955  140.1804  158.1791 C   0  0  0  0  0  0  0  0  0  0  0  0
  152.3086  138.9865  158.4448 C   0  0  0  0  0  0  0  0  0  0  0  0
  153.3572  139.3244  159.1967 F   0  0  0  0  0  0  0  0  0  0  0  0
  151.6452  138.0205  159.0816 F   0  0  0  0  0  0  0  0  0  0  0  0
  152.7710  138.4884  157.2977 F   0  0  0  0  0  0  0  0  0  0  0  0
  151.6752  141.4179  158.6557 C   0  0  0  0  0  0  0  0  0  0  0  0
  150.7769  142.5241  158.3920 C   0  0  0  0  0  0  0  0  0  0  0  0
  151.0394  143.9246  158.8663 C   0  0  0  0  0  0  0  0  0  0  0  0
  152.2379  144.7129  158.3926 C   0  0  0  0  0  0  0  0  0  0  0  0
  152.1583  144.2503  159.8289 C   0  0  0  0  0  0  0  0  0  0  0  0
  149.6944  142.3164  157.7208 N   0  0  0  0  0  0  0  0  0  0  0  0
  149.3854  141.0576  157.2433 N   0  0  0  0  0  0  0  0  0  0  0  0
  148.1101  140.9912  156.5163 C   0  0  0  0  0  0  0  0  0  0  0  0
  148.2969  140.8637  154.9876 C   0  0  2  0  0  0  0  0  0  0  0  0
  149.1167  141.9365  154.5680 O   0  0  0  0  0  0  0  0  0  0  0  0
  146.9661  140.9142  154.2042 C   0  0  0  0  0  0  0  0  0  0  0  0
  146.3617  139.5710  154.0162 N   0  3  0  0  0  0  0  0  0  0  0  0
  147.1910  138.6608  153.1866 C   0  0  0  0  0  0  0  0  0  0  0  0
  146.4848  137.3066  153.0051 C   0  0  0  0  0  0  0  0  0  0  0  0
  146.2103  136.7372  154.2790 O   0  0  0  0  0  0  0  0  0  0  0  0
  145.3456  137.5584  155.0537 C   0  0  0  0  0  0  0  0  0  0  0  0
  146.0139  138.9215  155.3022 C   0  0  0  0  0  0  0  0  0  0  0  0
  152.5650  141.6046  159.2381 H   0  0  0  0  0  0  0  0  0  0  0  0
  150.1060  144.4700  158.9929 H   0  0  0  0  0  0  0  0  0  0  0  0
  152.9562  144.2125  157.7455 H   0  0  0  0  0  0  0  0  0  0  0  0
  152.0946  145.7736  158.1971 H   0  0  0  0  0  0  0  0  0  0  0  0
  151.9632  145.0037  160.5894 H   0  0  0  0  0  0  0  0  0  0  0  0
  152.8314  143.4493  160.1295 H   0  0  0  0  0  0  0  0  0  0  0  0
  147.5134  140.1522  156.8809 H   0  0  0  0  0  0  0  0  0  0  0  0
  147.5222  141.8819  156.7467 H   0  0  0  0  0  0  0  0  0  0  0  0
  148.8347  139.9412  154.7746 H   0  0  0  0  0  0  0  0  0  0  0  0
  148.8434  142.7247  155.0113 H   0  0  0  0  0  0  0  0  0  0  0  0
  146.2353  141.5477  154.7080 H   0  0  0  0  0  0  0  0  0  0  0  0
  147.1498  141.3821  153.2355 H   0  0  0  0  0  0  0  0  0  0  0  0
  147.3847  139.0998  152.2085 H   0  0  0  0  0  0  0  0  0  0  0  0
  148.1605  138.5101  153.6640 H   0  0  0  0  0  0  0  0  0  0  0  0
  145.5605  137.4214  152.4365 H   0  0  0  0  0  0  0  0  0  0  0  0
  147.1216  136.6232  152.4431 H   0  0  0  0  0  0  0  0  0  0  0  0
  144.3874  137.6805  154.5460 H   0  0  0  0  0  0  0  0  0  0  0  0
  145.1424  137.0611  156.0023 H   0  0  0  0  0  0  0  0  0  0  0  0
  146.9154  138.7923  155.9035 H   0  0  0  0  0  0  0  0  0  0  0  0
  145.3376  139.5620  155.8696 H   0  0  0  0  0  0  0  0  0  0  0  0
  145.4894  139.7115  153.5271 H   0  0  0  0  0  0  0  0  0  0  0  0
  1  2  2  0  0  0  0
  2 14  1  0  0  0  0
  2  3  1  0  0  0  0
  3  4  1  0  0  0  0
  3  8  2  0  0  0  0
  4  5  1  0  0  0  0
  4  6  1  0  0  0  0
  4  7  1  0  0  0  0
  8  9  1  0  0  0  0
  8 25  1  0  0  0  0
  9 10  1  0  0  0  0
  9 13  2  0  0  0  0
 10 12  1  0  0  0  0
 10 11  1  0  0  0  0
 10 26  1  0  0  0  0
 11 12  1  0  0  0  0
 11 27  1  0  0  0  0
 11 28  1  0  0  0  0
 12 29  1  0  0  0  0
 12 30  1  0  0  0  0
 13 14  1  0  0  0  0
 14 15  1  0  0  0  0
 15 16  1  0  0  0  0
 15 31  1  0  0  0  0
 15 32  1  0  0  0  0
 16 17  1  0  0  0  0
 16 18  1  0  0  0  0
 16 33  1  0  0  0  0
 17 34  1  0  0  0  0
 18 19  1  0  0  0  0
 18 35  1  0  0  0  0
 18 36  1  0  0  0  0
 19 24  1  0  0  0  0
 19 20  1  0  0  0  0
 19 45  1  0  0  0  0
 20 21  1  0  0  0  0
 20 37  1  0  0  0  0
 20 38  1  0  0  0  0
 21 22  1  0  0  0  0
 21 39  1  0  0  0  0
 21 40  1  0  0  0  0
 22 23  1  0  0  0  0
 23 24  1  0  0  0  0
 23 41  1  0  0  0  0
 23 42  1  0  0  0  0
 24 43  1  0  0  0  0
 24 44  1  0  0  0  0
M  CHG  1  19   1
M  END
> <s_m_source_file>
AV-unprocessed.smi

> <i_m_source_file_index>
1603

> <i_lp_mmshare_version>
43012

> <i_f3d_flags>
0

> <s_epik_input>
Tz1jMWMoQyhGKShGKUYpW2NIXWMoW0NIXTJbQ0gyXVtDSDJdMilubjFbQ0gyXVtDQEhdKFtPSF0pW0NIMl1OM1tDSDJdW0NIMl1PW0NIMl1bQ0gyXTM=

> <s_epik_cmdline>
J2VwaWtfcHl0aG9uJywgJy1waCcsICc3LjAnLCAnLXRuJywgJzgnLCAnLW1hJywgJzIwMCcsICctbWV0YWxfYmluZGluZycsICctaW1hZScsICc8aW5maWxlLm1hZT4nLCAnLW9tYWUnLCAnPG91dGZpbGUubWFlPic=

> <r_lp_tautomer_probability>
1

> <r_epik_Ionization_Penalty>
0.373533

> <r_epik_Ionization_Penalty_Charging>
0.373533

> <r_epik_Ionization_Penalty_Neutral>
6.58334e-07

> <r_epik_State_Penalty>
0.37113

> <r_epik_Charging_Adjusted_Penalty>
0.744662

> <i_epik_Tot_Q>
1

> <i_epik_Tot_abs_Q>
1

> <r_epik_Metal_State_Penalty>
0.37113

> <b_epik_Metal_Only>
0

> <s_lp_Force_Field>
OPLS_2005

> <r_lp_Energy>
41.4102

> <b_lp_Chiralities_Consistent>
1

> <s_lp_Variant>
AV-unprocessed.smi:1603-1

> <Gold.Version>
5.8.1

> <Gold.Id.Protein>
6NUR|6NUR_protein|mol2

> <Gold.PLP.Fitness>
48.7923

> <Gold.PLP.PLP>
-40.3021

> <Gold.PLP.part.hbond>
-3.1050

> <Gold.PLP.part.metal>
0.0000

> <Gold.PLP.part.buried>
-5.0963

> <Gold.PLP.part.nonpolar>
-33.0927

> <Gold.PLP.part.repulsive>
1.2439

> <Gold.PLP.ligand.clash>
0.3835

> <Gold.PLP.ligand.torsion>
0.6454

> <Gold.PLP.Chemscore.Hbond>
3.1555

> <Gold.PLP.Chemscore.CHOScore>
0.0000

> <Gold.PLP.Chemscore.Metal>
0.0000

> <Gold.Chemscore.Hbonds>
donor molecule, donor type, donor heavy atom, donor atom, acceptor molecule, acceptor atom, score
      L1  H    17    34       P1  8028  0.86
      L1  H    19    45       P1 10175  1.01
      P1  H  8011  8017       L1    17  0.05

> <Gold.PLP.Chemscore.Internal.Correction>
0.6981

> <Gold.Rescore>
     Score         DG    S(hbond)    S(metal)    S(lipo)     H(rot)  DE(clash)    DE(int)     intcor
     14.31     -17.16       2.15        0.00      93.57       2.52       0.00       2.85       ----

> <Gold.Chemscore.Fitness>
14.3128

> <Gold.Chemscore.DG>
-17.1605

> <Gold.Chemscore.ZeroCoef>
-5.4800

> <Gold.Chemscore.Hbond>
2.1480

> <Gold.Chemscore.Metal>
0.0000

> <Gold.Chemscore.Lipo>
93.5652

> <Gold.Chemscore.Internal_Hbond>
0.0000

> <Gold.Chemscore.DEClash>
0.0024

> <Gold.Chemscore.DEInternal>
2.8454

> <Gold.Chemscore.Rot>
2.5160

> <Gold.Chemscore.Internal.Correction>
   9.000000E+99

> <Gold.Chemscore.Hbonds>
donor molecule, donor type, donor heavy atom, donor atom, acceptor molecule, acceptor atom, score
      L1  H    17    34       P1  8028  0.83
      L1  H    19    45       P1 10175  0.50
      P1  H  8011  8017       L1    17  0.04

> <Gold.Chemscore.Hbond.Weighted>
-7.1745

> <Gold.Chemscore.Metal.Weighted>
-0.0000

> <Gold.Chemscore.Lipo.Weighted>
-10.9471

> <Gold.Chemscore.Internal_Hbond.Weighted>
0.0000

> <Gold.Chemscore.DEClash.Weighted>
0.0024

> <Gold.Chemscore.DEInternal.Weighted>
2.8454

> <Gold.Chemscore.Rot.Weighted>
6.4411

> <Gold.Chemscore.Internal.Correction.Weighted>
   9.000000E+99

> <Gold.Protein.RotatedTorsions>
[ 6907 6896 6895 6894 ] final   -8.69 input  -60.11 | X-H torsion
[ 7974 7965 7964 7962 ] final  123.61 input  175.53 | X-H torsion
[ 8008 7997 7996 7995 ] final -104.14 input   59.86 | X-H torsion
[ 10167 10162 10161 10158 ] final   95.81 input  -65.29 | X-H torsion
[ 10718 10713 10712 10709 ] final   54.08 input   66.30 | X-H torsion
[ 10763 10752 10751 10750 ] final  -69.34 input  -60.55 | X-H torsion
[ 11005 11000 10999 10996 ] final  -25.62 input  -57.11 | X-H torsion

> <Gold.Protein.ActiveResidues>
 VAL166  LYS551  ARG553  GLY616  TRP617  ASP618  TYR619  PRO620  LYS621  CYS622 
 ASP623  PHE694  ASN695  SER759  ASP760  ASP761  ALA762  ILE779  LEU786  VAL792 
 PHE793  MET794  SER795  GLU796  ALA797  LYS798  CYS799  TRP800  GLU811  SER814 

> <Gold.Protein.RotatedAtoms>
  151.4296  135.1008  159.9638 H   0  0  0  0  0  0  0  0  0  0  0  0  # atno 6907 bound_to 6896
  152.4960  133.8630  159.7270 H   0  0  0  0  0  0  0  0  0  0  0  0  # atno 6908 bound_to 6896
  150.9164  133.6875  159.2870 H   0  0  0  0  0  0  0  0  0  0  0  0  # atno 6909 bound_to 6896
  145.0940  139.3566  143.4846 H   0  0  0  0  0  0  0  0  0  0  0  0  # atno 7974 bound_to 7965
  154.8811  140.0419  157.1782 H   0  0  0  0  0  0  0  0  0  0  0  0  # atno 8008 bound_to 7997
  154.8638  140.2948  155.5501 H   0  0  0  0  0  0  0  0  0  0  0  0  # atno 8009 bound_to 7997
  156.2999  140.2442  156.3617 H   0  0  0  0  0  0  0  0  0  0  0  0  # atno 8010 bound_to 7997
  139.7954  144.6835  150.9836 H   0  0  0  0  0  0  0  0  0  0  0  0  # atno 10167 bound_to 10162
  157.5225  130.8574  149.8577 H   0  0  0  0  0  0  0  0  0  0  0  0  # atno 10718 bound_to 10713
  154.4021  135.6028  153.5903 H   0  0  0  0  0  0  0  0  0  0  0  0  # atno 10763 bound_to 10752
  152.9788  135.5909  154.4172 H   0  0  0  0  0  0  0  0  0  0  0  0  # atno 10764 bound_to 10752
  154.3972  135.2842  155.2097 H   0  0  0  0  0  0  0  0  0  0  0  0  # atno 10765 bound_to 10752
  140.8954  133.7560  156.0475 H   0  0  0  0  0  0  0  0  0  0  0  0  # atno 11005 bound_to 11000
  146.3531  140.0787  142.8619 LP  0  0  0  0  0  0  0  0  0  0  0  0  # atno 17320 bound_to 7965
  145.1033  140.9359  143.4700 LP  0  0  0  0  0  0  0  0  0  0  0  0  # atno 17321 bound_to 7965
  140.7820  143.4337  151.0655 LP  0  0  0  0  0  0  0  0  0  0  0  0  # atno 17342 bound_to 10162
  139.8012  143.8081  152.3163 LP  0  0  0  0  0  0  0  0  0  0  0  0  # atno 17343 bound_to 10162
  156.0363  130.3750  150.1551 LP  0  0  0  0  0  0  0  0  0  0  0  0  # atno 17370 bound_to 10713
  156.9739  130.9843  151.3453 LP  0  0  0  0  0  0  0  0  0  0  0  0  # atno 17371 bound_to 10713
  140.8295  134.3194  157.5354 LP  0  0  0  0  0  0  0  0  0  0  0  0  # atno 17394 bound_to 11000
  139.8735  134.9355  156.3636 LP  0  0  0  0  0  0  0  0  0  0  0  0  # atno 17395 bound_to 11000

$$$$
