AV-unprocessed.smi:1358|AV-procd|sdf|5549|dock7
  -GOLD-   22720 5143D 1   1.00000     0.00000
 Structure written by MMmdl.
 37 38  0  0  0  0  0  0  0  0  1 V2000
  152.7471  143.3324  159.5077 C   0  0  0  0  0  0  0  0  0  0  0  0
  152.4469  144.1057  158.2189 C   0  0  0  0  0  0  0  0  0  0  0  0
  151.0670  143.7662  157.6394 C   0  0  0  0  0  0  0  0  0  0  0  0
  151.0269  142.3796  156.9770 C   0  0  0  0  0  0  0  0  0  0  0  0
  149.9924  142.3279  155.9528 N   0  0  0  0  0  0  0  0  0  0  0  0
  149.8167  141.3253  155.0778 C   0  0  0  0  0  0  0  0  0  0  0  0
  150.4537  140.2724  155.1101 O   0  0  0  0  0  0  0  0  0  0  0  0
  148.7850  141.5645  153.9730 C   0  0  0  0  0  0  0  0  0  0  0  0
  147.4450  141.8732  154.5795 C   0  0  0  0  0  0  0  0  0  0  0  0
  146.7474  141.1007  155.4761 C   0  0  0  0  0  0  0  0  0  0  0  0
  145.2180  141.8182  155.9081 S   0  0  0  0  0  0  0  0  0  0  0  0
  145.5834  143.1642  154.8316 C   0  0  0  0  0  0  0  0  0  0  0  0
  144.6985  144.2600  154.6084 N   0  0  0  0  0  0  0  0  0  0  0  0
  144.8911  145.1714  153.4874 C   0  0  0  0  0  0  0  0  0  0  0  0
  143.7468  146.1712  153.6290 C   0  0  0  0  0  0  0  0  0  0  0  0
  143.0754  145.7002  154.8179 N   0  0  0  0  0  0  0  0  0  0  0  0
  143.6363  144.6172  155.3604 C   0  0  0  0  0  0  0  0  0  0  0  0
  143.2250  144.0659  156.3807 O   0  0  0  0  0  0  0  0  0  0  0  0
  146.7778  143.0559  154.2406 N   0  0  0  0  0  0  0  0  0  0  0  0
  153.7319  143.5918  159.8966 H   0  0  0  0  0  0  0  0  0  0  0  0
  152.7309  142.2563  159.3334 H   0  0  0  0  0  0  0  0  0  0  0  0
  152.0133  143.5578  160.2819 H   0  0  0  0  0  0  0  0  0  0  0  0
  152.5069  145.1759  158.4190 H   0  0  0  0  0  0  0  0  0  0  0  0
  153.2180  143.8851  157.4802 H   0  0  0  0  0  0  0  0  0  0  0  0
  150.3202  143.8101  158.4336 H   0  0  0  0  0  0  0  0  0  0  0  0
  150.7849  144.5272  156.9108 H   0  0  0  0  0  0  0  0  0  0  0  0
  152.0000  142.1255  156.5535 H   0  0  0  0  0  0  0  0  0  0  0  0
  150.8024  141.6169  157.7230 H   0  0  0  0  0  0  0  0  0  0  0  0
  149.4217  143.1540  155.8430 H   0  0  0  0  0  0  0  0  0  0  0  0
  149.1234  142.3870  153.3416 H   0  0  0  0  0  0  0  0  0  0  0  0
  148.7234  140.6862  153.3289 H   0  0  0  0  0  0  0  0  0  0  0  0
  147.0366  140.1510  155.9008 H   0  0  0  0  0  0  0  0  0  0  0  0
  145.8611  145.6661  153.5554 H   0  0  0  0  0  0  0  0  0  0  0  0
  144.8382  144.6339  152.5395 H   0  0  0  0  0  0  0  0  0  0  0  0
  144.1074  147.1909  153.7694 H   0  0  0  0  0  0  0  0  0  0  0  0
  143.0718  146.1464  152.7728 H   0  0  0  0  0  0  0  0  0  0  0  0
  142.2624  146.1617  155.1995 H   0  0  0  0  0  0  0  0  0  0  0  0
  1  2  1  0  0  0  0
  1 20  1  0  0  0  0
  1 21  1  0  0  0  0
  1 22  1  0  0  0  0
  2  3  1  0  0  0  0
  2 23  1  0  0  0  0
  2 24  1  0  0  0  0
  3  4  1  0  0  0  0
  3 25  1  0  0  0  0
  3 26  1  0  0  0  0
  4  5  1  0  0  0  0
  4 27  1  0  0  0  0
  4 28  1  0  0  0  0
  5  6  1  0  0  0  0
  5 29  1  0  0  0  0
  6  7  2  0  0  0  0
  6  8  1  0  0  0  0
  8  9  1  0  0  0  0
  8 30  1  0  0  0  0
  8 31  1  0  0  0  0
  9 19  1  0  0  0  0
  9 10  2  0  0  0  0
 10 11  1  0  0  0  0
 10 32  1  0  0  0  0
 11 12  1  0  0  0  0
 12 13  1  0  0  0  0
 12 19  2  0  0  0  0
 13 17  1  0  0  0  0
 13 14  1  0  0  0  0
 14 15  1  0  0  0  0
 14 33  1  0  0  0  0
 14 34  1  0  0  0  0
 15 16  1  0  0  0  0
 15 35  1  0  0  0  0
 15 36  1  0  0  0  0
 16 17  1  0  0  0  0
 16 37  1  0  0  0  0
 17 18  2  0  0  0  0
M  END
> <s_m_source_file>
AV-unprocessed.smi

> <i_m_source_file_index>
1358

> <i_lp_mmshare_version>
43012

> <i_f3d_flags>
0

> <s_epik_input>
W0NIM11bQ0gyXVtDSDJdW0NIMl1bTkhdQyg9TylbQ0gyXWMxW2NIXXNjKG4xKU4yW0NIMl1bQ0gyXVtOSF1DMj1P

> <s_epik_cmdline>
J2VwaWtfcHl0aG9uJywgJy1waCcsICc3LjAnLCAnLXRuJywgJzgnLCAnLW1hJywgJzIwMCcsICctbWV0YWxfYmluZGluZycsICctaW1hZScsICc8aW5maWxlLm1hZT4nLCAnLW9tYWUnLCAnPG91dGZpbGUubWFlPic=

> <r_lp_tautomer_probability>
1

> <r_epik_Ionization_Penalty>
0.000120185

> <r_epik_Ionization_Penalty_Charging>
0

> <r_epik_Ionization_Penalty_Neutral>
0.000120185

> <r_epik_State_Penalty>
-0

> <r_epik_Charging_Adjusted_Penalty>
0

> <i_epik_Tot_Q>
0

> <i_epik_Tot_abs_Q>
0

> <r_epik_Metal_State_Penalty>
-0

> <b_epik_Metal_Only>
0

> <s_lp_Force_Field>
OPLS_2005

> <r_lp_Energy>
29.7034

> <b_lp_Chiralities_Consistent>
1

> <s_lp_Variant>
AV-unprocessed.smi:1358-1

> <Gold.Version>
5.8.1

> <Gold.Id.Protein>
6NUR|6NUR_protein|mol2

> <Gold.PLP.Fitness>
40.8098

> <Gold.PLP.PLP>
-35.5209

> <Gold.PLP.part.hbond>
-2.0000

> <Gold.PLP.part.metal>
0.0000

> <Gold.PLP.part.buried>
-2.2127

> <Gold.PLP.part.nonpolar>
-32.3355

> <Gold.PLP.part.repulsive>
0.7316

> <Gold.PLP.ligand.clash>
0.0000

> <Gold.PLP.ligand.torsion>
0.3733

> <Gold.PLP.Chemscore.Hbond>
2.0000

> <Gold.PLP.Chemscore.CHOScore>
0.0000

> <Gold.PLP.Chemscore.Metal>
0.0000

> <Gold.Chemscore.Hbonds>
donor molecule, donor type, donor heavy atom, donor atom, acceptor molecule, acceptor atom, score
      L1  H     5    29       P1  8028  1.00
      P1  H  7989  7998       L1     7  0.48

> <Gold.PLP.Chemscore.Internal.Correction>
0.0355

> <Gold.Rescore>
     Score         DG    S(hbond)    S(metal)    S(lipo)     H(rot)  DE(clash)    DE(int)     intcor
     12.04     -13.41       1.00        0.00      82.48       1.97       0.27       1.10       ----

> <Gold.Chemscore.Fitness>
12.0390

> <Gold.Chemscore.DG>
-13.4114

> <Gold.Chemscore.ZeroCoef>
-5.4800

> <Gold.Chemscore.Hbond>
0.9967

> <Gold.Chemscore.Metal>
0.0000

> <Gold.Chemscore.Lipo>
82.4809

> <Gold.Chemscore.Internal_Hbond>
0.0000

> <Gold.Chemscore.DEClash>
0.2719

> <Gold.Chemscore.DEInternal>
1.1006

> <Gold.Chemscore.Rot>
1.9718

> <Gold.Chemscore.Internal.Correction>
   9.000000E+99

> <Gold.Chemscore.Hbonds>
donor molecule, donor type, donor heavy atom, donor atom, acceptor molecule, acceptor atom, score
      L1  H     5    29       P1  8028  1.00
      P1  H  7989  7998       L1     7  0.03

> <Gold.Chemscore.Hbond.Weighted>
-3.3289

> <Gold.Chemscore.Metal.Weighted>
-0.0000

> <Gold.Chemscore.Lipo.Weighted>
-9.6503

> <Gold.Chemscore.Internal_Hbond.Weighted>
0.0000

> <Gold.Chemscore.DEClash.Weighted>
0.2719

> <Gold.Chemscore.DEInternal.Weighted>
1.1006

> <Gold.Chemscore.Rot.Weighted>
5.0478

> <Gold.Chemscore.Internal.Correction.Weighted>
   9.000000E+99

> <Gold.Protein.RotatedTorsions>
[ 6907 6896 6895 6894 ] final  112.95 input  -60.11 | X-H torsion
[ 7974 7965 7964 7962 ] final  155.65 input  175.53 | X-H torsion
[ 8008 7997 7996 7995 ] final  -46.71 input   59.86 | X-H torsion
[ 10167 10162 10161 10158 ] final   33.60 input  -65.29 | X-H torsion
[ 10718 10713 10712 10709 ] final  -27.15 input   66.30 | X-H torsion
[ 10763 10752 10751 10750 ] final  168.76 input  -60.55 | X-H torsion
[ 11005 11000 10999 10996 ] final  -12.26 input  -57.11 | X-H torsion

> <Gold.Protein.ActiveResidues>
 VAL166  LYS551  ARG553  GLY616  TRP617  ASP618  TYR619  PRO620  LYS621  CYS622 
 ASP623  PHE694  ASN695  SER759  ASP760  ASP761  ALA762  ILE779  LEU786  VAL792 
 PHE793  MET794  SER795  GLU796  ALA797  LYS798  CYS799  TRP800  GLU811  SER814 

> <Gold.Protein.RotatedAtoms>
  152.4888  133.8444  159.7168 H   0  0  0  0  0  0  0  0  0  0  0  0  # atno 6907 bound_to 6896
  150.8998  133.7123  159.2888 H   0  0  0  0  0  0  0  0  0  0  0  0  # atno 6908 bound_to 6896
  151.4568  135.1039  159.9766 H   0  0  0  0  0  0  0  0  0  0  0  0  # atno 6909 bound_to 6896
  144.8012  139.7096  143.6181 H   0  0  0  0  0  0  0  0  0  0  0  0  # atno 7974 bound_to 7965
  154.4010  140.1364  156.4056 H   0  0  0  0  0  0  0  0  0  0  0  0  # atno 8008 bound_to 7997
  155.7783  140.3482  155.5263 H   0  0  0  0  0  0  0  0  0  0  0  0  # atno 8009 bound_to 7997
  155.8699  140.0970  157.1547 H   0  0  0  0  0  0  0  0  0  0  0  0  # atno 8010 bound_to 7997
  140.4392  144.1212  150.6171 H   0  0  0  0  0  0  0  0  0  0  0  0  # atno 10167 bound_to 10162
  156.4420  130.4466  149.7047 H   0  0  0  0  0  0  0  0  0  0  0  0  # atno 10718 bound_to 10713
  154.3733  135.2753  155.2254 H   0  0  0  0  0  0  0  0  0  0  0  0  # atno 10763 bound_to 10752
  154.4392  135.5958  153.6122 H   0  0  0  0  0  0  0  0  0  0  0  0  # atno 10764 bound_to 10752
  152.9837  135.6014  154.3967 H   0  0  0  0  0  0  0  0  0  0  0  0  # atno 10765 bound_to 10752
  140.7638  133.8493  155.9148 H   0  0  0  0  0  0  0  0  0  0  0  0  # atno 11005 bound_to 11000
  146.2293  139.5783  142.9566 LP  0  0  0  0  0  0  0  0  0  0  0  0  # atno 17320 bound_to 7965
  145.5549  141.0410  143.2258 LP  0  0  0  0  0  0  0  0  0  0  0  0  # atno 17321 bound_to 7965
  140.4338  143.2556  151.9562 LP  0  0  0  0  0  0  0  0  0  0  0  0  # atno 17342 bound_to 10162
  139.4788  144.5719  151.8074 LP  0  0  0  0  0  0  0  0  0  0  0  0  # atno 17343 bound_to 10162
  156.3908  130.7626  151.2627 LP  0  0  0  0  0  0  0  0  0  0  0  0  # atno 17370 bound_to 10713
  157.7506  131.0268  150.3980 LP  0  0  0  0  0  0  0  0  0  0  0  0  # atno 17371 bound_to 10713
  140.9638  134.1621  157.4632 LP  0  0  0  0  0  0  0  0  0  0  0  0  # atno 17394 bound_to 11000
  139.8766  134.9954  156.5743 LP  0  0  0  0  0  0  0  0  0  0  0  0  # atno 17395 bound_to 11000

$$$$
