AV-unprocessed.smi:103|AV-procd|sdf|988|dock9
  -GOLD-   2262017563D 1   1.00000     0.00000
 Structure written by MMmdl.
 53 55  0  0  0  0  0  0  0  0  1 V2000
  152.9479  142.0746  159.4088 C   0  0  0  0  0  0  0  0  0  0  0  0
  153.2625  140.5951  159.5844 C   0  0  0  0  0  0  0  0  0  0  0  0
  154.3014  140.2165  160.1258 O   0  0  0  0  0  0  0  0  0  0  0  0
  152.2953  139.8071  159.0945 O   0  0  0  0  0  0  0  0  0  0  0  0
  152.4450  138.3978  159.1381 C   0  0  0  0  0  0  0  0  0  0  0  0
  151.2688  137.7349  158.4121 C   0  0  1  0  0  0  0  0  0  0  0  0
  150.1095  137.8018  159.2274 O   0  0  0  0  0  0  0  0  0  0  0  0
  148.9699  137.7264  158.4325 C   0  0  2  0  0  0  0  0  0  0  0  0
  148.4530  136.3118  158.4677 N   0  0  0  0  0  0  0  0  0  0  0  0
  147.7810  135.6765  159.4958 C   0  0  0  0  0  0  0  0  0  0  0  0
  147.2798  136.4026  161.0540 S   0  0  0  0  0  0  0  0  0  0  0  0
  146.2890  135.0480  161.8064 C   0  0  0  0  0  0  0  0  0  0  0  0
  148.5029  136.6057  161.8464 O   0  0  0  0  0  0  0  0  0  0  0  0
  146.3973  137.5374  160.7423 O   0  0  0  0  0  0  0  0  0  0  0  0
  147.3891  134.4516  159.2780 N   0  0  0  0  0  0  0  0  0  0  0  0
  147.9085  134.1748  158.0240 C   0  0  0  0  0  0  0  0  0  0  0  0
  147.8955  133.0278  157.1908 C   0  0  0  0  0  0  0  0  0  0  0  0
  147.2917  131.8819  157.5346 N   0  0  0  0  0  0  0  0  0  0  0  0
  148.5239  133.0884  155.9946 N   0  0  0  0  0  0  0  0  0  0  0  0
  149.1354  134.2189  155.6311 C   0  0  0  0  0  0  0  0  0  0  0  0
  149.2261  135.3696  156.3015 N   0  0  0  0  0  0  0  0  0  0  0  0
  148.5914  135.3163  157.5107 C   0  0  0  0  0  0  0  0  0  0  0  0
  149.3509  138.1902  157.0147 C   0  0  1  0  0  0  0  0  0  0  0  0
  148.6773  139.3966  156.6797 O   0  0  0  0  0  0  0  0  0  0  0  0
  148.8601  140.4994  157.4273 C   0  0  0  0  0  0  0  0  0  0  0  0
  147.9439  141.6421  157.0116 C   0  0  0  0  0  0  0  0  0  0  0  0
  149.6703  140.6252  158.3458 O   0  0  0  0  0  0  0  0  0  0  0  0
  150.8508  138.4422  157.1163 C   0  0  2  0  0  0  0  0  0  0  0  0
  151.4902  137.8709  155.9815 O   0  0  0  0  0  0  0  0  0  0  0  0
  151.6685  138.5885  154.8597 C   0  0  0  0  0  0  0  0  0  0  0  0
  152.6298  137.9152  153.8898 C   0  0  0  0  0  0  0  0  0  0  0  0
  151.1471  139.6724  154.5984 O   0  0  0  0  0  0  0  0  0  0  0  0
  152.7931  142.3065  158.3549 H   0  0  0  0  0  0  0  0  0  0  0  0
  153.7687  142.6880  159.7809 H   0  0  0  0  0  0  0  0  0  0  0  0
  152.0433  142.3358  159.9583 H   0  0  0  0  0  0  0  0  0  0  0  0
  153.3827  138.1305  158.6496 H   0  0  0  0  0  0  0  0  0  0  0  0
  152.4999  138.0422  160.1683 H   0  0  0  0  0  0  0  0  0  0  0  0
  151.4911  136.6833  158.2330 H   0  0  0  0  0  0  0  0  0  0  0  0
  148.1707  138.3262  158.8616 H   0  0  0  0  0  0  0  0  0  0  0  0
  145.9332  135.3613  162.7875 H   0  0  0  0  0  0  0  0  0  0  0  0
  146.9114  134.1597  161.9130 H   0  0  0  0  0  0  0  0  0  0  0  0
  145.4365  134.8173  161.1695 H   0  0  0  0  0  0  0  0  0  0  0  0
  146.8181  131.8101  158.4237 H   0  0  0  0  0  0  0  0  0  0  0  0
  147.3128  131.0923  156.9056 H   0  0  0  0  0  0  0  0  0  0  0  0
  149.6192  134.2004  154.6656 H   0  0  0  0  0  0  0  0  0  0  0  0
  149.1215  137.4186  156.2810 H   0  0  0  0  0  0  0  0  0  0  0  0
  146.9012  141.3697  157.1763 H   0  0  0  0  0  0  0  0  0  0  0  0
  148.0800  141.8722  155.9549 H   0  0  0  0  0  0  0  0  0  0  0  0
  148.1629  142.5390  157.5911 H   0  0  0  0  0  0  0  0  0  0  0  0
  151.0280  139.5154  157.2071 H   0  0  0  0  0  0  0  0  0  0  0  0
  152.2054  136.9799  153.5245 H   0  0  0  0  0  0  0  0  0  0  0  0
  153.5761  137.6969  154.3850 H   0  0  0  0  0  0  0  0  0  0  0  0
  152.8285  138.5628  153.0355 H   0  0  0  0  0  0  0  0  0  0  0  0
  1  2  1  0  0  0  0
  1 33  1  0  0  0  0
  1 34  1  0  0  0  0
  1 35  1  0  0  0  0
  2  3  2  0  0  0  0
  2  4  1  0  0  0  0
  4  5  1  0  0  0  0
  5  6  1  0  0  0  0
  5 36  1  0  0  0  0
  5 37  1  0  0  0  0
  6 28  1  0  0  0  0
  6  7  1  0  0  0  0
  6 38  1  0  0  0  0
  7  8  1  0  0  0  0
  8  9  1  0  0  0  0
  8 23  1  0  0  0  0
  8 39  1  0  0  0  0
  9 22  1  0  0  0  0
  9 10  1  0  0  0  0
 10 11  1  0  0  0  0
 10 15  2  0  0  0  0
 11 12  1  0  0  0  0
 11 13  2  0  0  0  0
 11 14  2  0  0  0  0
 12 40  1  0  0  0  0
 12 41  1  0  0  0  0
 12 42  1  0  0  0  0
 15 16  1  0  0  0  0
 16 22  2  0  0  0  0
 16 17  1  0  0  0  0
 17 18  1  0  0  0  0
 17 19  2  0  0  0  0
 18 43  1  0  0  0  0
 18 44  1  0  0  0  0
 19 20  1  0  0  0  0
 20 21  2  0  0  0  0
 20 45  1  0  0  0  0
 21 22  1  0  0  0  0
 23 24  1  0  0  0  0
 23 28  1  0  0  0  0
 23 46  1  0  0  0  0
 24 25  1  0  0  0  0
 25 26  1  0  0  0  0
 25 27  2  0  0  0  0
 26 47  1  0  0  0  0
 26 48  1  0  0  0  0
 26 49  1  0  0  0  0
 28 29  1  0  0  0  0
 28 50  1  0  0  0  0
 29 30  1  0  0  0  0
 30 31  1  0  0  0  0
 30 32  2  0  0  0  0
 31 51  1  0  0  0  0
 31 52  1  0  0  0  0
 31 53  1  0  0  0  0
M  END
> <s_m_source_file>
AV-unprocessed.smi

> <i_m_source_file_index>
103

> <i_lp_mmshare_version>
43012

> <i_f3d_flags>
0

> <s_epik_input>
W0NIM11DKD1PKU9bQ0gyXVtDQEBIXTFPW0NASF0oW0NAQEhdKE9DKD1PKVtDSDNdKVtDQEhdMU9DKD1PKVtDSDNdKW4oYyhuMilTKD1PKSg9TylbQ0gzXSljKGMyMyluW2NIXW5jM1tOSDJd

> <s_epik_cmdline>
J2VwaWtfcHl0aG9uJywgJy1waCcsICc3LjAnLCAnLXRuJywgJzgnLCAnLW1hJywgJzIwMCcsICctbWV0YWxfYmluZGluZycsICctaW1hZScsICc8aW5maWxlLm1hZT4nLCAnLW9tYWUnLCAnPG91dGZpbGUubWFlPic=

> <r_lp_tautomer_probability>
1

> <r_epik_Ionization_Penalty>
1.51338e-05

> <r_epik_Ionization_Penalty_Charging>
0

> <r_epik_Ionization_Penalty_Neutral>
1.51338e-05

> <r_epik_State_Penalty>
-0

> <r_epik_Charging_Adjusted_Penalty>
0

> <i_epik_Tot_Q>
0

> <i_epik_Tot_abs_Q>
0

> <r_epik_Metal_State_Penalty>
-0

> <b_epik_Metal_Only>
0

> <s_epik_Chemistry_Notes>
This compound has an ester and may undergo hydrolysis at high or low pH. This compound contains an acetal/aminal-like group ( X-CH(R)-Y where X, Y are N, S, or O) that may be acid/base labile, releasing an aldehyde.

> <s_lp_Force_Field>
OPLS_2005

> <r_lp_Energy>
13.207

> <b_lp_Chiralities_Consistent>
1

> <s_lp_Variant>
AV-unprocessed.smi:103-12

> <Gold.Version>
5.8.1

> <Gold.Id.Protein>
6NUR|6NUR_protein|mol2

> <Gold.PLP.Fitness>
43.5781

> <Gold.PLP.PLP>
-36.9162

> <Gold.PLP.part.hbond>
-4.0148

> <Gold.PLP.part.metal>
0.0000

> <Gold.PLP.part.buried>
-7.0088

> <Gold.PLP.part.nonpolar>
-26.6880

> <Gold.PLP.part.repulsive>
0.0900

> <Gold.PLP.ligand.clash>
0.0000

> <Gold.PLP.ligand.torsion>
2.3152

> <Gold.PLP.Chemscore.Hbond>
2.9913

> <Gold.PLP.Chemscore.CHOScore>
0.0000

> <Gold.PLP.Chemscore.Metal>
0.0000

> <Gold.Chemscore.Hbonds>
donor molecule, donor type, donor heavy atom, donor atom, acceptor molecule, acceptor atom, score
      P1  H  6931  6943       L1    13  1.00
      P1  H  6934  6947       L1    14  1.00
      P1  H  7989  7998       L1    32  1.00

> <Gold.PLP.Chemscore.Internal.Correction>
2.3186

> <Gold.Rescore>
     Score         DG    S(hbond)    S(metal)    S(lipo)     H(rot)  DE(clash)    DE(int)     intcor
      2.91      -9.24       2.74        0.00      46.91       4.25       0.00       6.33       ----

> <Gold.Chemscore.Fitness>
2.9116

> <Gold.Chemscore.DG>
-9.2448

> <Gold.Chemscore.ZeroCoef>
-5.4800

> <Gold.Chemscore.Hbond>
2.7380

> <Gold.Chemscore.Metal>
0.0000

> <Gold.Chemscore.Lipo>
46.9097

> <Gold.Chemscore.Internal_Hbond>
0.0000

> <Gold.Chemscore.DEClash>
0.0024

> <Gold.Chemscore.DEInternal>
6.3309

> <Gold.Chemscore.Rot>
4.2456

> <Gold.Chemscore.Internal.Correction>
   9.000000E+99

> <Gold.Chemscore.Hbonds>
donor molecule, donor type, donor heavy atom, donor atom, acceptor molecule, acceptor atom, score
      P1  H  6931  6943       L1    13  0.91
      P1  H  6934  6947       L1    14  0.85
      P1  H  7989  7998       L1    32  1.00

> <Gold.Chemscore.Hbond.Weighted>
-9.1450

> <Gold.Chemscore.Metal.Weighted>
-0.0000

> <Gold.Chemscore.Lipo.Weighted>
-5.4884

> <Gold.Chemscore.Internal_Hbond.Weighted>
0.0000

> <Gold.Chemscore.DEClash.Weighted>
0.0024

> <Gold.Chemscore.DEInternal.Weighted>
6.3309

> <Gold.Chemscore.Rot.Weighted>
10.8687

> <Gold.Chemscore.Internal.Correction.Weighted>
   9.000000E+99

> <Gold.Protein.RotatedTorsions>
[ 6907 6896 6895 6894 ] final  147.01 input  -60.11 | X-H torsion
[ 7974 7965 7964 7962 ] final   22.20 input  175.53 | X-H torsion
[ 8008 7997 7996 7995 ] final  -32.87 input   59.86 | X-H torsion
[ 10167 10162 10161 10158 ] final   43.22 input  -65.29 | X-H torsion
[ 10718 10713 10712 10709 ] final   19.61 input   66.30 | X-H torsion
[ 10763 10752 10751 10750 ] final -169.75 input  -60.55 | X-H torsion
[ 11005 11000 10999 10996 ] final    8.76 input  -57.11 | X-H torsion

> <Gold.Protein.ActiveResidues>
 VAL166  LYS551  ARG553  GLY616  TRP617  ASP618  TYR619  PRO620  LYS621  CYS622 
 ASP623  PHE694  ASN695  SER759  ASP760  ASP761  ALA762  ILE779  LEU786  VAL792 
 PHE793  MET794  SER795  GLU796  ALA797  LYS798  CYS799  TRP800  GLU811  SER814 

> <Gold.Protein.RotatedAtoms>
  152.1604  133.4578  159.4857 H   0  0  0  0  0  0  0  0  0  0  0  0  # atno 6907 bound_to 6896
  150.6906  134.2079  159.4357 H   0  0  0  0  0  0  0  0  0  0  0  0  # atno 6908 bound_to 6896
  151.9981  134.9943  160.0614 H   0  0  0  0  0  0  0  0  0  0  0  0  # atno 6909 bound_to 6896
  146.2039  139.7919  142.8741 H   0  0  0  0  0  0  0  0  0  0  0  0  # atno 7974 bound_to 7965
  154.4166  140.1726  156.1797 H   0  0  0  0  0  0  0  0  0  0  0  0  # atno 8008 bound_to 7997
  155.9692  140.3387  155.6536 H   0  0  0  0  0  0  0  0  0  0  0  0  # atno 8009 bound_to 7997
  155.6647  140.0705  157.2532 H   0  0  0  0  0  0  0  0  0  0  0  0  # atno 8010 bound_to 7997
  140.3466  144.2403  150.6150 H   0  0  0  0  0  0  0  0  0  0  0  0  # atno 10167 bound_to 10162
  157.1129  130.6516  149.5902 H   0  0  0  0  0  0  0  0  0  0  0  0  # atno 10718 bound_to 10713
  154.6490  135.2909  155.0011 H   0  0  0  0  0  0  0  0  0  0  0  0  # atno 10763 bound_to 10752
  154.1110  135.6562  153.4889 H   0  0  0  0  0  0  0  0  0  0  0  0  # atno 10764 bound_to 10752
  153.0366  135.5265  154.7389 H   0  0  0  0  0  0  0  0  0  0  0  0  # atno 10765 bound_to 10752
  140.5334  134.0444  155.7880 H   0  0  0  0  0  0  0  0  0  0  0  0  # atno 11005 bound_to 11000
  145.3388  141.0283  143.3404 LP  0  0  0  0  0  0  0  0  0  0  0  0  # atno 17320 bound_to 7965
  144.8747  139.4989  143.6751 LP  0  0  0  0  0  0  0  0  0  0  0  0  # atno 17321 bound_to 7965
  140.5259  143.2254  151.8316 LP  0  0  0  0  0  0  0  0  0  0  0  0  # atno 17342 bound_to 10162
  139.4832  144.4780  151.9342 LP  0  0  0  0  0  0  0  0  0  0  0  0  # atno 17343 bound_to 10162
  155.9846  130.4872  150.6992 LP  0  0  0  0  0  0  0  0  0  0  0  0  # atno 17370 bound_to 10713
  157.4544  131.0876  151.0812 LP  0  0  0  0  0  0  0  0  0  0  0  0  # atno 17371 bound_to 10713
  141.1268  133.9369  157.2618 LP  0  0  0  0  0  0  0  0  0  0  0  0  # atno 17394 bound_to 11000
  139.9542  135.0169  156.9081 LP  0  0  0  0  0  0  0  0  0  0  0  0  # atno 17395 bound_to 11000

$$$$
