AV-unprocessed.smi:2632|AV-procd|sdf|10251|dock5
  -GOLD-   2272014263D 1   1.00000     0.00000
 Structure written by MMmdl.
 37 38  0  0  0  0  0  0  0  0  2 V2000
  149.1975  135.2672  160.8720 C   0  0  0  0  0  0  0  0  0  0  0  0
  149.3961  135.1382  159.4758 O   0  0  0  0  0  0  0  0  0  0  0  0
  149.7914  136.3555  158.8664 C   0  0  0  0  0  0  0  0  0  0  0  0
  149.4789  136.3141  157.3604 C   0  0  0  0  0  0  0  0  0  0  0  0
  150.2146  137.3576  156.6148 N   0  0  0  0  0  0  0  0  0  0  0  0
  149.9332  138.7227  156.8873 C   0  0  0  0  0  0  0  0  0  0  0  0
  148.9872  139.0594  157.8418 N   0  0  0  0  0  0  0  0  0  0  0  0
  150.6003  139.6849  156.2113 C   0  0  0  0  0  0  0  0  0  0  0  0
  150.4000  141.4395  156.4257 S   0  0  0  0  0  0  0  0  0  0  0  0
  151.3461  141.7051  157.8886 C   0  0  0  0  0  0  0  0  0  0  0  0
  152.0680  140.6407  158.4632 C   0  0  0  0  0  0  0  0  0  0  0  0
  152.8305  140.8577  159.6276 C   0  0  0  0  0  0  0  0  0  0  0  0
  152.8701  142.1369  160.2206 C   0  0  0  0  0  0  0  0  0  0  0  0
  153.6945  142.3640  161.4709 C   0  0  0  0  0  0  0  0  0  0  0  0
  152.1442  143.1996  159.6427 C   0  0  0  0  0  0  0  0  0  0  0  0
  151.3819  142.9840  158.4784 C   0  0  0  0  0  0  0  0  0  0  0  0
  151.6021  139.3279  155.2049 C   0  0  0  0  0  0  0  0  0  0  0  0
  152.2104  140.1927  154.5729 O   0  0  0  0  0  0  0  0  0  0  0  0
  151.8241  137.9991  155.0111 N   0  5  0  0  0  0  0  0  0  0  0  0
  151.1656  137.0125  155.6899 C   0  0  0  0  0  0  0  0  0  0  0  0
  151.4067  135.8216  155.4887 O   0  0  0  0  0  0  0  0  0  0  0  0
  148.8925  134.3071  161.2877 H   0  0  0  0  0  0  0  0  0  0  0  0
  148.4155  135.9943  161.0940 H   0  0  0  0  0  0  0  0  0  0  0  0
  150.1157  135.5754  161.3738 H   0  0  0  0  0  0  0  0  0  0  0  0
  149.2454  137.1805  159.3261 H   0  0  0  0  0  0  0  0  0  0  0  0
  150.8537  136.5384  159.0349 H   0  0  0  0  0  0  0  0  0  0  0  0
  149.6787  135.3137  156.9736 H   0  0  0  0  0  0  0  0  0  0  0  0
  148.4064  136.4353  157.2076 H   0  0  0  0  0  0  0  0  0  0  0  0
  148.4828  138.3537  158.3586 H   0  0  0  0  0  0  0  0  0  0  0  0
  148.8275  140.0180  158.1157 H   0  0  0  0  0  0  0  0  0  0  0  0
  152.0419  139.6600  158.0117 H   0  0  0  0  0  0  0  0  0  0  0  0
  153.3857  140.0403  160.0642 H   0  0  0  0  0  0  0  0  0  0  0  0
  153.4679  143.3291  161.9251 H   0  0  0  0  0  0  0  0  0  0  0  0
  154.7574  142.3402  161.2302 H   0  0  0  0  0  0  0  0  0  0  0  0
  153.4907  141.5869  162.2078 H   0  0  0  0  0  0  0  0  0  0  0  0
  152.1699  144.1833  160.0878 H   0  0  0  0  0  0  0  0  0  0  0  0
  150.8300  143.8011  158.0372 H   0  0  0  0  0  0  0  0  0  0  0  0
  1  2  1  0  0  0  0
  1 22  1  0  0  0  0
  1 23  1  0  0  0  0
  1 24  1  0  0  0  0
  2  3  1  0  0  0  0
  3  4  1  0  0  0  0
  3 25  1  0  0  0  0
  3 26  1  0  0  0  0
  4  5  1  0  0  0  0
  4 27  1  0  0  0  0
  4 28  1  0  0  0  0
  5 20  1  0  0  0  0
  5  6  1  0  0  0  0
  6  7  1  0  0  0  0
  6  8  2  0  0  0  0
  7 29  1  0  0  0  0
  7 30  1  0  0  0  0
  8  9  1  0  0  0  0
  8 17  1  0  0  0  0
  9 10  1  0  0  0  0
 10 16  1  0  0  0  0
 10 11  2  0  0  0  0
 11 12  1  0  0  0  0
 11 31  1  0  0  0  0
 12 13  2  0  0  0  0
 12 32  1  0  0  0  0
 13 14  1  0  0  0  0
 13 15  1  0  0  0  0
 14 33  1  0  0  0  0
 14 34  1  0  0  0  0
 14 35  1  0  0  0  0
 15 16  2  0  0  0  0
 15 36  1  0  0  0  0
 16 37  1  0  0  0  0
 17 18  2  0  0  0  0
 17 19  1  0  0  0  0
 19 20  1  0  0  0  0
 20 21  2  0  0  0  0
M  CHG  1  19  -1
M  END
> <s_m_source_file>
AV-unprocessed.smi

> <i_m_source_file_index>
2632

> <i_lp_mmshare_version>
43012

> <i_f3d_flags>
0

> <s_epik_input>
W0NIM11PW0NIMl1bQ0gyXW4xYyhbTkgyXSljKGMoPU8pW25IXWMxPU8pU2MyW2NIXVtjSF1jKFtDSDNdKVtjSF1bY0hdMg==

> <s_epik_cmdline>
J2VwaWtfcHl0aG9uJywgJy1waCcsICc3LjAnLCAnLXRuJywgJzgnLCAnLW1hJywgJzIwMCcsICctbWV0YWxfYmluZGluZycsICctaW1hZScsICc8aW5maWxlLm1hZT4nLCAnLW9tYWUnLCAnPG91dGZpbGUubWFlPic=

> <r_lp_tautomer_probability>
1

> <r_epik_Ionization_Penalty>
6.52921

> <r_epik_Ionization_Penalty_Charging>
0.111036

> <r_epik_Ionization_Penalty_Neutral>
6.41817

> <r_epik_State_Penalty>
6.41816

> <r_epik_Charging_Adjusted_Penalty>
6.5292

> <i_epik_Tot_Q>
-1

> <i_epik_Tot_abs_Q>
1

> <r_epik_Metal_State_Penalty>
2.337

> <b_epik_Metal_Only>
1

> <s_epik_Chemistry_Notes>
This compound has an imine and may undergo hydrolysis.

> <s_lp_Force_Field>
OPLS_2005

> <r_lp_Energy>
30.26

> <b_lp_Chiralities_Consistent>
1

> <s_lp_Variant>
AV-unprocessed.smi:2632-2

> <Gold.Version>
5.8.1

> <Gold.Id.Protein>
6NUR|6NUR_protein|mol2

> <Gold.PLP.Fitness>
44.8045

> <Gold.PLP.PLP>
-37.2101

> <Gold.PLP.part.hbond>
-4.3954

> <Gold.PLP.part.metal>
0.0000

> <Gold.PLP.part.buried>
-3.9727

> <Gold.PLP.part.nonpolar>
-29.1500

> <Gold.PLP.part.repulsive>
0.2083

> <Gold.PLP.ligand.clash>
0.0000

> <Gold.PLP.ligand.torsion>
0.4825

> <Gold.PLP.Chemscore.Hbond>
2.8276

> <Gold.PLP.Chemscore.CHOScore>
0.0000

> <Gold.PLP.Chemscore.Metal>
0.0000

> <Gold.Chemscore.Hbonds>
donor molecule, donor type, donor heavy atom, donor atom, acceptor molecule, acceptor atom, score
      P1  H  6896  6909       L1     2  0.73
      P1  H  7989  7998       L1    18  0.38
      P1  H 10752 10765       L1    21  1.00

> <Gold.PLP.Chemscore.Internal.Correction>
0.0765

> <Gold.Rescore>
     Score         DG    S(hbond)    S(metal)    S(lipo)     H(rot)  DE(clash)    DE(int)     intcor
     14.32     -15.16       1.42        0.00      85.48       1.97       0.04       0.80       ----

> <Gold.Chemscore.Fitness>
14.3159

> <Gold.Chemscore.DG>
-15.1566

> <Gold.Chemscore.ZeroCoef>
-5.4800

> <Gold.Chemscore.Hbond>
1.4161

> <Gold.Chemscore.Metal>
0.0000

> <Gold.Chemscore.Lipo>
85.4820

> <Gold.Chemscore.Internal_Hbond>
0.0000

> <Gold.Chemscore.DEClash>
0.0436

> <Gold.Chemscore.DEInternal>
0.7971

> <Gold.Chemscore.Rot>
1.9744

> <Gold.Chemscore.Internal.Correction>
   9.000000E+99

> <Gold.Chemscore.Hbonds>
donor molecule, donor type, donor heavy atom, donor atom, acceptor molecule, acceptor atom, score
      P1  H  6896  6909       L1     2  0.05
      P1  H  7989  7998       L1    18  0.39
      P1  H 10752 10765       L1    21  0.88

> <Gold.Chemscore.Hbond.Weighted>
-4.7298

> <Gold.Chemscore.Metal.Weighted>
-0.0000

> <Gold.Chemscore.Lipo.Weighted>
-10.0014

> <Gold.Chemscore.Internal_Hbond.Weighted>
0.0000

> <Gold.Chemscore.DEClash.Weighted>
0.0436

> <Gold.Chemscore.DEInternal.Weighted>
0.7971

> <Gold.Chemscore.Rot.Weighted>
5.0546

> <Gold.Chemscore.Internal.Correction.Weighted>
   9.000000E+99

> <Gold.Protein.RotatedTorsions>
[ 6907 6896 6895 6894 ] final   37.16 input  -60.11 | X-H torsion
[ 7974 7965 7964 7962 ] final  -13.44 input  175.53 | X-H torsion
[ 8008 7997 7996 7995 ] final   89.53 input   59.86 | X-H torsion
[ 10167 10162 10161 10158 ] final -111.35 input  -65.29 | X-H torsion
[ 10718 10713 10712 10709 ] final -117.41 input   66.30 | X-H torsion
[ 10763 10752 10751 10750 ] final -165.97 input  -60.55 | X-H torsion
[ 11005 11000 10999 10996 ] final  123.86 input  -57.11 | X-H torsion

> <Gold.Protein.ActiveResidues>
 VAL166  LYS551  ARG553  GLY616  TRP617  ASP618  TYR619  PRO620  LYS621  CYS622 
 ASP623  PHE694  ASN695  SER759  ASP760  ASP761  ALA762  ILE779  LEU786  VAL792 
 PHE793  MET794  SER795  GLU796  ALA797  LYS798  CYS799  TRP800  GLU811  SER814 

> <Gold.Protein.RotatedAtoms>
  152.1394  134.9074  160.0554 H   0  0  0  0  0  0  0  0  0  0  0  0  # atno 6907 bound_to 6896
  152.0148  133.3870  159.4242 H   0  0  0  0  0  0  0  0  0  0  0  0  # atno 6908 bound_to 6896
  150.6863  134.3613  159.4995 H   0  0  0  0  0  0  0  0  0  0  0  0  # atno 6909 bound_to 6896
  146.2114  140.3204  142.8390 H   0  0  0  0  0  0  0  0  0  0  0  0  # atno 7974 bound_to 7965
  156.0011  140.3359  155.6846 H   0  0  0  0  0  0  0  0  0  0  0  0  # atno 8008 bound_to 7997
  155.6289  140.0683  157.2673 H   0  0  0  0  0  0  0  0  0  0  0  0  # atno 8009 bound_to 7997
  154.4249  140.1763  156.1438 H   0  0  0  0  0  0  0  0  0  0  0  0  # atno 8010 bound_to 7997
  140.1345  143.4331  152.1604 H   0  0  0  0  0  0  0  0  0  0  0  0  # atno 10167 bound_to 10162
  156.1032  130.6189  150.9161 H   0  0  0  0  0  0  0  0  0  0  0  0  # atno 10718 bound_to 10713
  154.6880  135.2966  154.9520 H   0  0  0  0  0  0  0  0  0  0  0  0  # atno 10763 bound_to 10752
  154.0493  135.6646  153.4802 H   0  0  0  0  0  0  0  0  0  0  0  0  # atno 10764 bound_to 10752
  153.0592  135.5126  154.7957 H   0  0  0  0  0  0  0  0  0  0  0  0  # atno 10765 bound_to 10752
  139.9332  134.9641  156.8322 H   0  0  0  0  0  0  0  0  0  0  0  0  # atno 11005 bound_to 11000
  144.8924  140.7541  143.5918 LP  0  0  0  0  0  0  0  0  0  0  0  0  # atno 17320 bound_to 7965
  145.3127  139.1813  143.4630 LP  0  0  0  0  0  0  0  0  0  0  0  0  # atno 17321 bound_to 7965
  139.5502  144.7332  151.4457 LP  0  0  0  0  0  0  0  0  0  0  0  0  # atno 17342 bound_to 10162
  140.6797  143.8110  150.7105 LP  0  0  0  0  0  0  0  0  0  0  0  0  # atno 17343 bound_to 10162
  157.6205  131.0930  150.8630 LP  0  0  0  0  0  0  0  0  0  0  0  0  # atno 17370 bound_to 10713
  156.8754  130.5161  149.5294 LP  0  0  0  0  0  0  0  0  0  0  0  0  # atno 17371 bound_to 10713
  140.6147  134.0050  155.7592 LP  0  0  0  0  0  0  0  0  0  0  0  0  # atno 17394 bound_to 11000
  141.0932  133.9885  157.3204 LP  0  0  0  0  0  0  0  0  0  0  0  0  # atno 17395 bound_to 11000

$$$$
