AV-unprocessed.smi:1870|AV-procd|sdf|7597|dock10
  -GOLD-   22720 9313D 1   1.00000     0.00000
 Structure written by MMmdl.
 47 49  0  0  0  0  0  0  0  0  1 V2000
  147.0659  136.9900  162.8631 C   0  0  0  0  0  0  0  0  0  0  0  0
  147.5802  136.1618  161.7168 C   0  0  0  0  0  0  0  0  0  0  0  0
  148.2768  136.7795  160.8203 N   0  0  0  0  0  0  0  0  0  0  0  0
  148.7933  136.1140  159.7250 N   0  0  0  0  0  0  0  0  0  0  0  0
  149.5486  136.9743  158.8057 C   0  0  0  0  0  0  0  0  0  0  0  0
  148.6303  137.6678  157.7764 C   0  0  2  0  0  0  0  0  0  0  0  0
  148.0743  136.6794  156.9326 O   0  0  0  0  0  0  0  0  0  0  0  0
  149.4288  138.6315  156.8737 C   0  0  0  0  0  0  0  0  0  0  0  0
  150.1085  139.7299  157.5643 N   0  0  0  0  0  0  0  0  0  0  0  0
  150.3213  140.8588  156.6638 C   0  0  0  0  0  0  0  0  0  0  0  0
  150.7968  142.1091  157.4195 C   0  0  0  0  0  0  0  0  0  0  0  0
  151.9253  141.7986  158.3881 C   0  0  0  0  0  0  0  0  0  0  0  0
  152.6882  142.8452  158.9453 C   0  0  0  0  0  0  0  0  0  0  0  0
  153.7168  142.5575  159.8630 C   0  0  0  0  0  0  0  0  0  0  0  0
  153.9843  141.2235  160.2264 C   0  0  0  0  0  0  0  0  0  0  0  0
  153.2234  140.1755  159.6730 C   0  0  0  0  0  0  0  0  0  0  0  0
  152.1892  140.4579  158.7571 C   0  0  0  0  0  0  0  0  0  0  0  0
  151.3954  139.3154  158.1355 C   0  0  0  0  0  0  0  0  0  0  0  0
  148.6260  134.7841  159.4748 C   0  0  0  0  0  0  0  0  0  0  0  0
  149.0968  134.2297  158.4806 O   0  0  0  0  0  0  0  0  0  0  0  0
  147.8395  134.0896  160.4970 C   0  0  0  0  0  0  0  0  0  0  0  0
  147.6439  132.6932  160.2760 C   0  0  0  0  0  0  0  0  0  0  0  0
  147.5063  131.5575  160.0988 N   0  0  0  0  0  0  0  0  0  0  0  0
  147.3317  134.7305  161.5794 C   0  0  0  0  0  0  0  0  0  0  0  0
  146.5080  134.0552  162.6677 C   0  0  0  0  0  0  0  0  0  0  0  0
  147.4787  136.6394  163.8091 H   0  0  0  0  0  0  0  0  0  0  0  0
  145.9792  136.9323  162.9256 H   0  0  0  0  0  0  0  0  0  0  0  0
  147.3336  138.0425  162.7574 H   0  0  0  0  0  0  0  0  0  0  0  0
  150.0479  137.7350  159.4085 H   0  0  0  0  0  0  0  0  0  0  0  0
  150.3617  136.4398  158.3103 H   0  0  0  0  0  0  0  0  0  0  0  0
  147.8323  138.1961  158.2967 H   0  0  0  0  0  0  0  0  0  0  0  0
  147.9306  135.8980  157.4448 H   0  0  0  0  0  0  0  0  0  0  0  0
  150.1681  138.0638  156.3065 H   0  0  0  0  0  0  0  0  0  0  0  0
  148.7421  139.0408  156.1307 H   0  0  0  0  0  0  0  0  0  0  0  0
  151.0539  140.5853  155.9025 H   0  0  0  0  0  0  0  0  0  0  0  0
  149.4002  141.1021  156.1330 H   0  0  0  0  0  0  0  0  0  0  0  0
  151.1160  142.8754  156.7125 H   0  0  0  0  0  0  0  0  0  0  0  0
  149.9685  142.5298  157.9907 H   0  0  0  0  0  0  0  0  0  0  0  0
  152.4837  143.8704  158.6733 H   0  0  0  0  0  0  0  0  0  0  0  0
  154.3000  143.3601  160.2895 H   0  0  0  0  0  0  0  0  0  0  0  0
  154.7750  141.0039  160.9286 H   0  0  0  0  0  0  0  0  0  0  0  0
  153.4380  139.1539  159.9506 H   0  0  0  0  0  0  0  0  0  0  0  0
  151.2407  138.5629  158.9077 H   0  0  0  0  0  0  0  0  0  0  0  0
  152.0171  138.8566  157.3652 H   0  0  0  0  0  0  0  0  0  0  0  0
  146.4214  132.9800  162.5133 H   0  0  0  0  0  0  0  0  0  0  0  0
  145.4984  134.4661  162.6920 H   0  0  0  0  0  0  0  0  0  0  0  0
  146.9648  134.2065  163.6463 H   0  0  0  0  0  0  0  0  0  0  0  0
  1  2  1  0  0  0  0
  1 26  1  0  0  0  0
  1 27  1  0  0  0  0
  1 28  1  0  0  0  0
  2 24  1  0  0  0  0
  2  3  2  0  0  0  0
  3  4  1  0  0  0  0
  4  5  1  0  0  0  0
  4 19  1  0  0  0  0
  5  6  1  0  0  0  0
  5 29  1  0  0  0  0
  5 30  1  0  0  0  0
  6  7  1  0  0  0  0
  6  8  1  0  0  0  0
  6 31  1  0  0  0  0
  7 32  1  0  0  0  0
  8  9  1  0  0  0  0
  8 33  1  0  0  0  0
  8 34  1  0  0  0  0
  9 18  1  0  0  0  0
  9 10  1  0  0  0  0
 10 11  1  0  0  0  0
 10 35  1  0  0  0  0
 10 36  1  0  0  0  0
 11 12  1  0  0  0  0
 11 37  1  0  0  0  0
 11 38  1  0  0  0  0
 12 17  2  0  0  0  0
 12 13  1  0  0  0  0
 13 14  2  0  0  0  0
 13 39  1  0  0  0  0
 14 15  1  0  0  0  0
 14 40  1  0  0  0  0
 15 16  2  0  0  0  0
 15 41  1  0  0  0  0
 16 17  1  0  0  0  0
 16 42  1  0  0  0  0
 17 18  1  0  0  0  0
 18 43  1  0  0  0  0
 18 44  1  0  0  0  0
 19 20  2  0  0  0  0
 19 21  1  0  0  0  0
 21 22  1  0  0  0  0
 21 24  2  0  0  0  0
 22 23  3  0  0  0  0
 24 25  1  0  0  0  0
 25 45  1  0  0  0  0
 25 46  1  0  0  0  0
 25 47  1  0  0  0  0
M  END
> <s_m_source_file>
AV-unprocessed.smi

> <i_m_source_file_index>
1870

> <i_lp_mmshare_version>
43012

> <i_f3d_flags>
0

> <s_epik_input>
TiNDYyhjMVtDSDNdKWMoPU8pbihuYzFbQ0gzXSlbQ0gyXVtDQEhdKFtPSF0pW0NIMl1OKFtDSDJdW0NIMl0yKVtDSDJdYyhjMjMpW2NIXVtjSF1bY0hdW2NIXTM=

> <s_epik_cmdline>
J2VwaWtfcHl0aG9uJywgJy1waCcsICc3LjAnLCAnLXRuJywgJzgnLCAnLW1hJywgJzIwMCcsICctbWV0YWxfYmluZGluZycsICctaW1hZScsICc8aW5maWxlLm1hZT4nLCAnLW9tYWUnLCAnPG91dGZpbGUubWFlPic=

> <r_epik_Ionization_Penalty>
2.30251

> <r_epik_Ionization_Penalty_Charging>
1.06171e-10

> <r_epik_Ionization_Penalty_Neutral>
2.30251

> <r_epik_State_Penalty>
2.45335

> <r_epik_Charging_Adjusted_Penalty>
2.45335

> <i_epik_Tot_Q>
0

> <i_epik_Tot_abs_Q>
0

> <r_epik_Metal_State_Penalty>
2.45335

> <b_epik_Metal_Only>
0

> <s_lp_Force_Field>
OPLS_2005

> <r_lp_Energy>
46.0919

> <b_lp_Chiralities_Consistent>
1

> <s_lp_Variant>
AV-unprocessed.smi:1870-5

> <Gold.Version>
5.8.1

> <Gold.Id.Protein>
6NUR|6NUR_protein|mol2

> <Gold.PLP.Fitness>
52.8343

> <Gold.PLP.PLP>
-45.9659

> <Gold.PLP.part.hbond>
-3.0000

> <Gold.PLP.part.metal>
0.0000

> <Gold.PLP.part.buried>
-3.9783

> <Gold.PLP.part.nonpolar>
-39.6991

> <Gold.PLP.part.repulsive>
0.0000

> <Gold.PLP.ligand.clash>
0.0000

> <Gold.PLP.ligand.torsion>
0.6189

> <Gold.PLP.Chemscore.Hbond>
2.6960

> <Gold.PLP.Chemscore.CHOScore>
0.0000

> <Gold.PLP.Chemscore.Metal>
0.0000

> <Gold.Chemscore.Hbonds>
donor molecule, donor type, donor heavy atom, donor atom, acceptor molecule, acceptor atom, score
      P1  H  6896  6907       L1    20  0.35
      P1  H  6931  6943       L1     3  1.00

> <Gold.PLP.Chemscore.Internal.Correction>
0.0182

> <Gold.Rescore>
     Score         DG    S(hbond)    S(metal)    S(lipo)     H(rot)  DE(clash)    DE(int)     intcor
     19.74     -20.66       1.91        0.00     121.23       2.10       0.21       0.71       ----

> <Gold.Chemscore.Fitness>
19.7422

> <Gold.Chemscore.DG>
-20.6628

> <Gold.Chemscore.ZeroCoef>
-5.4800

> <Gold.Chemscore.Hbond>
1.9064

> <Gold.Chemscore.Metal>
0.0000

> <Gold.Chemscore.Lipo>
121.2304

> <Gold.Chemscore.Internal_Hbond>
0.0000

> <Gold.Chemscore.DEClash>
0.2056

> <Gold.Chemscore.DEInternal>
0.7149

> <Gold.Chemscore.Rot>
2.0971

> <Gold.Chemscore.Internal.Correction>
   9.000000E+99

> <Gold.Chemscore.Hbonds>
donor molecule, donor type, donor heavy atom, donor atom, acceptor molecule, acceptor atom, score
      P1  H  6896  6907       L1    20  0.01
      P1  H  6931  6943       L1     3  0.28

> <Gold.Chemscore.Hbond.Weighted>
-6.3673

> <Gold.Chemscore.Metal.Weighted>
-0.0000

> <Gold.Chemscore.Lipo.Weighted>
-14.1840

> <Gold.Chemscore.Internal_Hbond.Weighted>
0.0000

> <Gold.Chemscore.DEClash.Weighted>
0.2056

> <Gold.Chemscore.DEInternal.Weighted>
0.7149

> <Gold.Chemscore.Rot.Weighted>
5.3685

> <Gold.Chemscore.Internal.Correction.Weighted>
   9.000000E+99

> <Gold.Protein.RotatedTorsions>
[ 6907 6896 6895 6894 ] final  -97.25 input  -60.11 | X-H torsion
[ 7974 7965 7964 7962 ] final  -46.45 input  175.53 | X-H torsion
[ 8008 7997 7996 7995 ] final  147.29 input   59.86 | X-H torsion
[ 10167 10162 10161 10158 ] final -147.58 input  -65.29 | X-H torsion
[ 10718 10713 10712 10709 ] final   62.74 input   66.30 | X-H torsion
[ 10763 10752 10751 10750 ] final   51.85 input  -60.55 | X-H torsion
[ 11005 11000 10999 10996 ] final  -97.74 input  -57.11 | X-H torsion

> <Gold.Protein.ActiveResidues>
 VAL166  LYS551  ARG553  GLY616  TRP617  ASP618  TYR619  PRO620  LYS621  CYS622 
 ASP623  PHE694  ASN695  SER759  ASP760  ASP761  ALA762  ILE779  LEU786  VAL792 
 PHE793  MET794  SER795  GLU796  ALA797  LYS798  CYS799  TRP800  GLU811  SER814 

> <Gold.Protein.RotatedAtoms>
  150.7011  134.1377  159.4093 H   0  0  0  0  0  0  0  0  0  0  0  0  # atno 6907 bound_to 6896
  151.9362  135.0232  160.0542 H   0  0  0  0  0  0  0  0  0  0  0  0  # atno 6908 bound_to 6896
  152.2133  133.4892  159.5158 H   0  0  0  0  0  0  0  0  0  0  0  0  # atno 6909 bound_to 6896
  145.9718  140.7375  142.9407 H   0  0  0  0  0  0  0  0  0  0  0  0  # atno 7974 bound_to 7965
  156.2829  140.2159  156.5515 H   0  0  0  0  0  0  0  0  0  0  0  0  # atno 8008 bound_to 7997
  154.7287  140.0497  157.0729 H   0  0  0  0  0  0  0  0  0  0  0  0  # atno 8009 bound_to 7997
  155.0382  140.3142  155.4737 H   0  0  0  0  0  0  0  0  0  0  0  0  # atno 8010 bound_to 7997
  139.7609  143.8378  152.2607 H   0  0  0  0  0  0  0  0  0  0  0  0  # atno 10167 bound_to 10162
  157.5922  130.9067  149.9626 H   0  0  0  0  0  0  0  0  0  0  0  0  # atno 10718 bound_to 10713
  152.9786  135.5832  154.4482 H   0  0  0  0  0  0  0  0  0  0  0  0  # atno 10763 bound_to 10752
  154.4075  135.2769  155.2060 H   0  0  0  0  0  0  0  0  0  0  0  0  # atno 10764 bound_to 10752
  154.3864  135.6135  153.5873 H   0  0  0  0  0  0  0  0  0  0  0  0  # atno 10765 bound_to 10752
  141.1369  133.8193  157.0746 H   0  0  0  0  0  0  0  0  0  0  0  0  # atno 11005 bound_to 11000
  144.6838  140.2761  143.7299 LP  0  0  0  0  0  0  0  0  0  0  0  0  # atno 17320 bound_to 7965
  145.7896  139.1922  143.2111 LP  0  0  0  0  0  0  0  0  0  0  0  0  # atno 17321 bound_to 7965
  139.8384  144.7221  150.9362 LP  0  0  0  0  0  0  0  0  0  0  0  0  # atno 17342 bound_to 10162
  140.7807  143.4005  151.1156 LP  0  0  0  0  0  0  0  0  0  0  0  0  # atno 17343 bound_to 10162
  156.0978  130.3658  150.0273 LP  0  0  0  0  0  0  0  0  0  0  0  0  # atno 17370 bound_to 10713
  156.8394  130.9420  151.3633 LP  0  0  0  0  0  0  0  0  0  0  0  0  # atno 17371 bound_to 10713
  140.0490  134.9815  157.1101 LP  0  0  0  0  0  0  0  0  0  0  0  0  # atno 17394 bound_to 11000
  140.4019  134.2073  155.7163 LP  0  0  0  0  0  0  0  0  0  0  0  0  # atno 17395 bound_to 11000

$$$$
