AV-unprocessed.smi:1046|AV-procd|sdf|4549|dock10
  -GOLD-   22720 2573D 1   1.00000     0.00000
 Structure written by MMmdl.
 53 55  0  0  0  0  0  0  0  0  2 V2000
  153.9548  142.7668  163.7424 C   0  0  0  0  0  0  0  0  0  0  0  0
  153.3278  142.8864  162.3646 C   0  0  0  0  0  0  0  0  0  0  0  0
  152.4395  143.9540  162.1045 C   0  0  0  0  0  0  0  0  0  0  0  0
  151.8373  144.1019  160.8362 C   0  0  0  0  0  0  0  0  0  0  0  0
  150.9540  145.0588  160.3667 N   0  0  0  0  0  0  0  0  0  0  0  0
  150.7633  144.6563  159.1141 C   0  0  0  0  0  0  0  0  0  0  0  0
  151.4212  143.5509  158.7140 N   0  0  0  0  0  0  0  0  0  0  0  0
  151.3690  142.9317  157.4017 C   0  0  0  0  0  0  0  0  0  0  0  0
  150.1337  142.0241  157.2293 C   0  0  1  0  0  0  0  0  0  0  0  0
  148.9618  142.7860  157.4392 O   0  0  0  0  0  0  0  0  0  0  0  0
  150.0386  141.3963  155.8231 C   0  0  0  0  0  0  0  0  0  0  0  0
  148.7106  140.7952  155.5374 N   0  3  0  0  0  0  0  0  0  0  0  0
  148.8196  139.4127  155.0044 C   0  0  0  0  0  0  0  0  0  0  0  0
  147.4176  138.8011  154.8048 C   0  0  0  0  0  0  0  0  0  0  0  0
  146.5591  139.5960  153.9270 N   0  0  0  0  0  0  0  0  0  0  0  0
  146.9611  139.5227  152.5188 C   0  0  0  0  0  0  0  0  0  0  0  0
  146.2178  138.4629  151.6898 C   0  0  0  0  0  0  0  0  0  0  0  0
  145.0715  138.0374  152.3927 O   0  0  0  0  0  0  0  0  0  0  0  0
  146.4733  140.9556  154.4658 C   0  0  0  0  0  0  0  0  0  0  0  0
  147.8485  141.6276  154.6562 C   0  0  0  0  0  0  0  0  0  0  0  0
  152.1493  143.1440  159.8272 C   0  0  0  0  0  0  0  0  0  0  0  0
  153.0310  142.0772  160.0742 C   0  0  0  0  0  0  0  0  0  0  0  0
  153.6246  141.9446  161.3469 C   0  0  0  0  0  0  0  0  0  0  0  0
  154.5767  140.7900  161.6036 C   0  0  0  0  0  0  0  0  0  0  0  0
  153.6366  143.5788  164.3968 H   0  0  0  0  0  0  0  0  0  0  0  0
  155.0420  142.8013  163.6715 H   0  0  0  0  0  0  0  0  0  0  0  0
  153.6671  141.8260  164.2120 H   0  0  0  0  0  0  0  0  0  0  0  0
  152.2131  144.6713  162.8797 H   0  0  0  0  0  0  0  0  0  0  0  0
  150.1084  145.1978  158.4470 H   0  0  0  0  0  0  0  0  0  0  0  0
  151.3799  143.7155  156.6429 H   0  0  0  0  0  0  0  0  0  0  0  0
  152.2860  142.3572  157.2667 H   0  0  0  0  0  0  0  0  0  0  0  0
  150.1415  141.2460  157.9920 H   0  0  0  0  0  0  0  0  0  0  0  0
  148.8669  143.3990  156.7253 H   0  0  0  0  0  0  0  0  0  0  0  0
  150.2659  142.1389  155.0564 H   0  0  0  0  0  0  0  0  0  0  0  0
  150.8062  140.6252  155.7379 H   0  0  0  0  0  0  0  0  0  0  0  0
  149.3805  139.4169  154.0690 H   0  0  0  0  0  0  0  0  0  0  0  0
  149.3824  138.7945  155.7048 H   0  0  0  0  0  0  0  0  0  0  0  0
  147.5077  137.7859  154.4162 H   0  0  0  0  0  0  0  0  0  0  0  0
  146.9352  138.7025  155.7782 H   0  0  0  0  0  0  0  0  0  0  0  0
  146.8570  140.4951  152.0378 H   0  0  0  0  0  0  0  0  0  0  0  0
  148.0249  139.2849  152.4757 H   0  0  0  0  0  0  0  0  0  0  0  0
  145.9127  138.8717  150.7261 H   0  0  0  0  0  0  0  0  0  0  0  0
  146.8435  137.5922  151.4967 H   0  0  0  0  0  0  0  0  0  0  0  0
  144.3750  138.6568  152.2365 H   0  0  0  0  0  0  0  0  0  0  0  0
  145.8382  141.5778  153.8364 H   0  0  0  0  0  0  0  0  0  0  0  0
  145.9691  140.9176  155.4325 H   0  0  0  0  0  0  0  0  0  0  0  0
  147.6933  142.6099  155.1000 H   0  0  0  0  0  0  0  0  0  0  0  0
  148.3396  141.7919  153.6962 H   0  0  0  0  0  0  0  0  0  0  0  0
  153.2510  141.3683  159.2897 H   0  0  0  0  0  0  0  0  0  0  0  0
  154.6745  140.1513  160.7253 H   0  0  0  0  0  0  0  0  0  0  0  0
  154.2161  140.1729  162.4268 H   0  0  0  0  0  0  0  0  0  0  0  0
  155.5687  141.1633  161.8586 H   0  0  0  0  0  0  0  0  0  0  0  0
  148.2329  140.7151  156.4235 H   0  0  0  0  0  0  0  0  0  0  0  0
  1  2  1  0  0  0  0
  1 25  1  0  0  0  0
  1 26  1  0  0  0  0
  1 27  1  0  0  0  0
  2 23  1  0  0  0  0
  2  3  2  0  0  0  0
  3  4  1  0  0  0  0
  3 28  1  0  0  0  0
  4 21  2  0  0  0  0
  4  5  1  0  0  0  0
  5  6  2  0  0  0  0
  6  7  1  0  0  0  0
  6 29  1  0  0  0  0
  7  8  1  0  0  0  0
  7 21  1  0  0  0  0
  8  9  1  0  0  0  0
  8 30  1  0  0  0  0
  8 31  1  0  0  0  0
  9 10  1  0  0  0  0
  9 11  1  0  0  0  0
  9 32  1  0  0  0  0
 10 33  1  0  0  0  0
 11 12  1  0  0  0  0
 11 34  1  0  0  0  0
 11 35  1  0  0  0  0
 12 20  1  0  0  0  0
 12 13  1  0  0  0  0
 12 53  1  0  0  0  0
 13 14  1  0  0  0  0
 13 36  1  0  0  0  0
 13 37  1  0  0  0  0
 14 15  1  0  0  0  0
 14 38  1  0  0  0  0
 14 39  1  0  0  0  0
 15 16  1  0  0  0  0
 15 19  1  0  0  0  0
 16 17  1  0  0  0  0
 16 40  1  0  0  0  0
 16 41  1  0  0  0  0
 17 18  1  0  0  0  0
 17 42  1  0  0  0  0
 17 43  1  0  0  0  0
 18 44  1  0  0  0  0
 19 20  1  0  0  0  0
 19 45  1  0  0  0  0
 19 46  1  0  0  0  0
 20 47  1  0  0  0  0
 20 48  1  0  0  0  0
 21 22  1  0  0  0  0
 22 23  2  0  0  0  0
 22 49  1  0  0  0  0
 23 24  1  0  0  0  0
 24 50  1  0  0  0  0
 24 51  1  0  0  0  0
 24 52  1  0  0  0  0
M  CHG  1  12   1
M  END
> <s_m_source_file>
AV-unprocessed.smi

> <i_m_source_file_index>
1046

> <i_lp_mmshare_version>
43012

> <i_f3d_flags>
0

> <s_epik_input>
W0NIM11jKFtjSF0xKWMoW0NIM10pW2NIXWMoYzEyKW4oW2NIXW4yKVtDSDJdW0NASF0oW09IXSlbQ0gyXU4zW0NIMl1bQ0gyXU4oW0NIMl1bQ0gyXTMpW0NIMl1bQ0gyXVtPSF0=

> <s_epik_cmdline>
J2VwaWtfcHl0aG9uJywgJy1waCcsICc3LjAnLCAnLXRuJywgJzgnLCAnLW1hJywgJzIwMCcsICctbWV0YWxfYmluZGluZycsICctaW1hZScsICc8aW5maWxlLm1hZT4nLCAnLW9tYWUnLCAnPG91dGZpbGUubWFlPic=

> <r_epik_Ionization_Penalty>
0.131947

> <r_epik_Ionization_Penalty_Charging>
0.00213896

> <r_epik_Ionization_Penalty_Neutral>
0.129808

> <r_epik_State_Penalty>
0.319681

> <r_epik_Charging_Adjusted_Penalty>
0.32182

> <i_epik_Tot_Q>
1

> <i_epik_Tot_abs_Q>
1

> <r_epik_Metal_State_Penalty>
0.225417

> <b_epik_Metal_Only>
0

> <s_lp_Force_Field>
OPLS_2005

> <r_lp_Energy>
33.7571

> <b_lp_Chiralities_Consistent>
1

> <s_lp_Variant>
AV-unprocessed.smi:1046-2

> <Gold.Version>
5.8.1

> <Gold.Id.Protein>
6NUR|6NUR_protein|mol2

> <Gold.PLP.Fitness>
60.5872

> <Gold.PLP.PLP>
-56.4229

> <Gold.PLP.part.hbond>
-3.0000

> <Gold.PLP.part.metal>
0.0000

> <Gold.PLP.part.buried>
-1.3580

> <Gold.PLP.part.nonpolar>
-52.0828

> <Gold.PLP.part.repulsive>
0.4463

> <Gold.PLP.ligand.clash>
0.0000

> <Gold.PLP.ligand.torsion>
1.8954

> <Gold.PLP.Chemscore.Hbond>
1.9920

> <Gold.PLP.Chemscore.CHOScore>
0.6194

> <Gold.PLP.Chemscore.Metal>
0.0000

> <Gold.Chemscore.Hbonds>
donor molecule, donor type, donor heavy atom, donor atom, acceptor molecule, acceptor atom, score
      L1  H    10    33       P1  8028  1.00
      L1  H    18    44       P1 10175  0.99
      L1  C     6    29       P1  8029  0.83

> <Gold.PLP.Chemscore.Internal.Correction>
0.1208

> <Gold.Rescore>
     Score         DG    S(hbond)    S(metal)    S(lipo)     H(rot)  DE(clash)    DE(int)     intcor
     17.81     -22.11       1.96        0.00     156.45       3.21       2.29       2.02       ----

> <Gold.Chemscore.Fitness>
17.8107

> <Gold.Chemscore.DG>
-22.1133

> <Gold.Chemscore.ZeroCoef>
-5.4800

> <Gold.Chemscore.Hbond>
1.9567

> <Gold.Chemscore.Metal>
0.0000

> <Gold.Chemscore.Lipo>
156.4497

> <Gold.Chemscore.Internal_Hbond>
0.0000

> <Gold.Chemscore.DEClash>
2.2869

> <Gold.Chemscore.DEInternal>
2.0157

> <Gold.Chemscore.Rot>
3.2058

> <Gold.Chemscore.Internal.Correction>
   9.000000E+99

> <Gold.Chemscore.Hbonds>
donor molecule, donor type, donor heavy atom, donor atom, acceptor molecule, acceptor atom, score
      L1  H    10    33       P1  8028  0.78
      L1  H    18    44       P1 10175  0.94

> <Gold.Chemscore.Hbond.Weighted>
-6.5354

> <Gold.Chemscore.Metal.Weighted>
-0.0000

> <Gold.Chemscore.Lipo.Weighted>
-18.3046

> <Gold.Chemscore.Internal_Hbond.Weighted>
0.0000

> <Gold.Chemscore.DEClash.Weighted>
2.2869

> <Gold.Chemscore.DEInternal.Weighted>
2.0157

> <Gold.Chemscore.Rot.Weighted>
8.2067

> <Gold.Chemscore.Internal.Correction.Weighted>
   9.000000E+99

> <Gold.Protein.RotatedTorsions>
[ 6907 6896 6895 6894 ] final   84.67 input  -60.11 | X-H torsion
[ 7974 7965 7964 7962 ] final   23.15 input  175.53 | X-H torsion
[ 8008 7997 7996 7995 ] final  150.29 input   59.86 | X-H torsion
[ 10167 10162 10161 10158 ] final -141.04 input  -65.29 | X-H torsion
[ 10718 10713 10712 10709 ] final -132.96 input   66.30 | X-H torsion
[ 10763 10752 10751 10750 ] final   78.22 input  -60.55 | X-H torsion
[ 11005 11000 10999 10996 ] final  160.55 input  -57.11 | X-H torsion

> <Gold.Protein.ActiveResidues>
 VAL166  LYS551  ARG553  GLY616  TRP617  ASP618  TYR619  PRO620  LYS621  CYS622 
 ASP623  PHE694  ASN695  SER759  ASP760  ASP761  ALA762  ILE779  LEU786  VAL792 
 PHE793  MET794  SER795  GLU796  ALA797  LYS798  CYS799  TRP800  GLU811  SER814 

> <Gold.Protein.RotatedAtoms>
  152.5358  134.2704  159.8969 H   0  0  0  0  0  0  0  0  0  0  0  0  # atno 6907 bound_to 6896
  151.2661  133.4271  159.2626 H   0  0  0  0  0  0  0  0  0  0  0  0  # atno 6908 bound_to 6896
  151.0409  134.9621  159.8218 H   0  0  0  0  0  0  0  0  0  0  0  0  # atno 6909 bound_to 6896
  146.1997  139.7784  142.8771 H   0  0  0  0  0  0  0  0  0  0  0  0  # atno 7974 bound_to 7965
  156.2721  140.2078  156.5994 H   0  0  0  0  0  0  0  0  0  0  0  0  # atno 8008 bound_to 7997
  154.6918  140.0529  157.0395 H   0  0  0  0  0  0  0  0  0  0  0  0  # atno 8009 bound_to 7997
  155.0855  140.3191  155.4592 H   0  0  0  0  0  0  0  0  0  0  0  0  # atno 8010 bound_to 7997
  139.8223  143.7557  152.2666 H   0  0  0  0  0  0  0  0  0  0  0  0  # atno 10167 bound_to 10162
  156.2400  130.7090  151.0947 H   0  0  0  0  0  0  0  0  0  0  0  0  # atno 10718 bound_to 10713
  153.0858  135.4885  154.8593 H   0  0  0  0  0  0  0  0  0  0  0  0  # atno 10763 bound_to 10752
  154.7208  135.3039  154.9052 H   0  0  0  0  0  0  0  0  0  0  0  0  # atno 10764 bound_to 10752
  153.9717  135.6800  153.4800 H   0  0  0  0  0  0  0  0  0  0  0  0  # atno 10765 bound_to 10752
  140.2070  134.8295  157.3080 H   0  0  0  0  0  0  0  0  0  0  0  0  # atno 11005 bound_to 11000
  145.3526  141.0310  143.3330 LP  0  0  0  0  0  0  0  0  0  0  0  0  # atno 17320 bound_to 7965
  144.8656  139.5113  143.6792 LP  0  0  0  0  0  0  0  0  0  0  0  0  # atno 17321 bound_to 7965
  139.7739  144.7467  151.0185 LP  0  0  0  0  0  0  0  0  0  0  0  0  # atno 17342 bound_to 10162
  140.7812  143.4615  151.0271 LP  0  0  0  0  0  0  0  0  0  0  0  0  # atno 17343 bound_to 10162
  157.7171  131.0703  150.6284 LP  0  0  0  0  0  0  0  0  0  0  0  0  # atno 17370 bound_to 10713
  156.6357  130.4444  149.5770 LP  0  0  0  0  0  0  0  0  0  0  0  0  # atno 17371 bound_to 10713
  140.1992  134.4276  155.7672 LP  0  0  0  0  0  0  0  0  0  0  0  0  # atno 17394 bound_to 11000
  141.2227  133.7064  156.8155 LP  0  0  0  0  0  0  0  0  0  0  0  0  # atno 17395 bound_to 11000

$$$$
