AV-unprocessed.smi:1464|AV-procd|sdf|5949|dock4
  -GOLD-   22720 6 33D 1   1.00000     0.00000
 Structure written by MMmdl.
 41 42  0  0  0  0  0  0  0  0  1 V2000
  152.5833  143.7542  162.3709 C   0  0  0  0  0  0  0  0  0  0  0  0
  152.6235  142.4506  161.5562 C   0  0  2  0  0  0  0  0  0  0  0  0
  153.9901  141.7442  161.6698 C   0  0  0  0  0  0  0  0  0  0  0  0
  153.9881  140.3933  160.9366 C   0  0  0  0  0  0  0  0  0  0  0  0
  153.5464  140.5426  159.4724 C   0  0  0  0  0  0  0  0  0  0  0  0
  152.1797  141.2470  159.3707 C   0  0  2  0  0  0  0  0  0  0  0  0
  151.7679  141.3391  157.9717 N   0  0  0  0  0  0  0  0  0  0  0  0
  150.6086  141.8565  157.5370 C   0  0  0  0  0  0  0  0  0  0  0  0
  149.7593  142.3366  158.2892 O   0  0  0  0  0  0  0  0  0  0  0  0
  150.3944  141.8487  156.0167 C   0  0  0  0  0  0  0  0  0  0  0  0
  150.6088  140.5279  155.4074 N   0  0  0  0  0  0  0  0  0  0  0  0
  151.9053  140.0499  155.5275 N   0  0  0  0  0  0  0  0  0  0  0  0
  152.2195  138.9058  155.0207 C   0  0  0  0  0  0  0  0  0  0  0  0
  153.5149  138.4716  155.1594 O   0  0  0  0  0  0  0  0  0  0  0  0
  151.2400  138.0995  154.3260 C   0  0  0  0  0  0  0  0  0  0  0  0
  149.9791  138.5719  154.2170 C   0  0  0  0  0  0  0  0  0  0  0  0
  149.5880  139.8654  154.7807 C   0  0  0  0  0  0  0  0  0  0  0  0
  148.4464  140.3182  154.6995 O   0  0  0  0  0  0  0  0  0  0  0  0
  152.1953  142.6310  160.0755 C   0  0  2  0  0  0  0  0  0  0  0  0
  153.0254  143.6926  159.3166 C   0  0  0  0  0  0  0  0  0  0  0  0
  153.7476  138.1056  154.3200 H   0  0  0  0  0  0  0  0  0  0  0  0
  153.3613  144.4515  162.0598 H   0  0  0  0  0  0  0  0  0  0  0  0
  152.7335  143.5531  163.4318 H   0  0  0  0  0  0  0  0  0  0  0  0
  151.6201  144.2542  162.2658 H   0  0  0  0  0  0  0  0  0  0  0  0
  151.8871  141.7888  162.0151 H   0  0  0  0  0  0  0  0  0  0  0  0
  154.7783  142.3807  161.2669 H   0  0  0  0  0  0  0  0  0  0  0  0
  154.2382  141.5828  162.7194 H   0  0  0  0  0  0  0  0  0  0  0  0
  154.9808  139.9444  160.9814 H   0  0  0  0  0  0  0  0  0  0  0  0
  153.3156  139.7044  161.4491 H   0  0  0  0  0  0  0  0  0  0  0  0
  154.3021  141.0986  158.9166 H   0  0  0  0  0  0  0  0  0  0  0  0
  153.4919  139.5565  159.0094 H   0  0  0  0  0  0  0  0  0  0  0  0
  151.4561  140.6123  159.8867 H   0  0  0  0  0  0  0  0  0  0  0  0
  152.4113  140.9755  157.2838 H   0  0  0  0  0  0  0  0  0  0  0  0
  149.3787  142.1959  155.8191 H   0  0  0  0  0  0  0  0  0  0  0  0
  151.0512  142.5842  155.5480 H   0  0  0  0  0  0  0  0  0  0  0  0
  151.5201  137.1441  153.9075 H   0  0  0  0  0  0  0  0  0  0  0  0
  149.2375  137.9813  153.6994 H   0  0  0  0  0  0  0  0  0  0  0  0
  151.1680  142.9981  160.0852 H   0  0  0  0  0  0  0  0  0  0  0  0
  154.0826  143.4334  159.2711 H   0  0  0  0  0  0  0  0  0  0  0  0
  152.9470  144.6716  159.7878 H   0  0  0  0  0  0  0  0  0  0  0  0
  152.6747  143.8179  158.2923 H   0  0  0  0  0  0  0  0  0  0  0  0
  1  2  1  0  0  0  0
  1 22  1  0  0  0  0
  1 23  1  0  0  0  0
  1 24  1  0  0  0  0
  2 19  1  0  0  0  0
  2  3  1  0  0  0  0
  2 25  1  0  0  0  0
  3  4  1  0  0  0  0
  3 26  1  0  0  0  0
  3 27  1  0  0  0  0
  4  5  1  0  0  0  0
  4 28  1  0  0  0  0
  4 29  1  0  0  0  0
  5  6  1  0  0  0  0
  5 30  1  0  0  0  0
  5 31  1  0  0  0  0
  6  7  1  0  0  0  0
  6 19  1  0  0  0  0
  6 32  1  0  0  0  0
  7  8  1  0  0  0  0
  7 33  1  0  0  0  0
  8  9  2  0  0  0  0
  8 10  1  0  0  0  0
 10 34  1  0  0  0  0
 10 35  1  0  0  0  0
 10 11  1  0  0  0  0
 11 12  1  0  0  0  0
 11 17  1  0  0  0  0
 12 13  2  0  0  0  0
 13 14  1  0  0  0  0
 13 15  1  0  0  0  0
 14 21  1  0  0  0  0
 15 36  1  0  0  0  0
 15 16  2  0  0  0  0
 16 37  1  0  0  0  0
 16 17  1  0  0  0  0
 17 18  2  0  0  0  0
 19 20  1  0  0  0  0
 19 38  1  0  0  0  0
 20 39  1  0  0  0  0
 20 40  1  0  0  0  0
 20 41  1  0  0  0  0
M  END
> <s_m_source_file>
AV-unprocessed.smi

> <i_m_source_file_index>
1464

> <i_lp_mmshare_version>
43012

> <i_f3d_flags>
0

> <s_epik_input>
W0NIM11bQ0BASF0xW0NIMl1bQ0gyXVtDSDJdW0NASF0oW0NASF0xW0NIM10pW05IXUMoPU8pW0NIMl1uMltuSF1jKD1PKVtjSF1bY0hdYzI9Tw==

> <s_epik_cmdline>
J2VwaWtfcHl0aG9uJywgJy1waCcsICc3LjAnLCAnLXRuJywgJzgnLCAnLW1hJywgJzIwMCcsICctbWV0YWxfYmluZGluZycsICctaW1hZScsICc8aW5maWxlLm1hZT4nLCAnLW9tYWUnLCAnPG91dGZpbGUubWFlPic=

> <r_lp_tautomer_probability>
0.9996

> <r_epik_Ionization_Penalty>
2.10335

> <r_epik_Ionization_Penalty_Charging>
3.98079e-08

> <r_epik_Ionization_Penalty_Neutral>
2.10335

> <r_epik_State_Penalty>
1.67957

> <r_epik_Charging_Adjusted_Penalty>
1.67957

> <i_epik_Tot_Q>
0

> <i_epik_Tot_abs_Q>
0

> <r_epik_Metal_State_Penalty>
1.67957

> <b_epik_Metal_Only>
0

> <s_lp_Force_Field>
OPLS_2005

> <r_lp_Energy>
25.7664

> <b_lp_Chiralities_Consistent>
1

> <s_lp_Variant>
AV-unprocessed.smi:1464-15

> <Gold.Version>
5.8.1

> <Gold.Id.Protein>
6NUR|6NUR_protein|mol2

> <Gold.PLP.Fitness>
48.7662

> <Gold.PLP.PLP>
-46.4419

> <Gold.PLP.part.hbond>
-2.0000

> <Gold.PLP.part.metal>
0.0000

> <Gold.PLP.part.buried>
-3.1805

> <Gold.PLP.part.nonpolar>
-40.7059

> <Gold.PLP.part.repulsive>
0.2905

> <Gold.PLP.ligand.clash>
0.0000

> <Gold.PLP.ligand.torsion>
0.0940

> <Gold.PLP.Chemscore.Hbond>
0.8320

> <Gold.PLP.Chemscore.CHOScore>
0.0000

> <Gold.PLP.Chemscore.Metal>
0.0000

> <Gold.Chemscore.Hbonds>
donor molecule, donor type, donor heavy atom, donor atom, acceptor molecule, acceptor atom, score
      P1  H  7997  8010       L1    14  0.76

> <Gold.PLP.Chemscore.Internal.Correction>
0.0162

> <Gold.Rescore>
     Score         DG    S(hbond)    S(metal)    S(lipo)     H(rot)  DE(clash)    DE(int)     intcor
     12.99     -14.56       0.63        0.00     108.12       2.22       0.06       1.51       ----

> <Gold.Chemscore.Fitness>
12.9892

> <Gold.Chemscore.DG>
-14.5573

> <Gold.Chemscore.ZeroCoef>
-5.4800

> <Gold.Chemscore.Hbond>
0.6336

> <Gold.Chemscore.Metal>
0.0000

> <Gold.Chemscore.Lipo>
108.1216

> <Gold.Chemscore.Internal_Hbond>
0.0000

> <Gold.Chemscore.DEClash>
0.0595

> <Gold.Chemscore.DEInternal>
1.5086

> <Gold.Chemscore.Rot>
2.2224

> <Gold.Chemscore.Internal.Correction>
   9.000000E+99

> <Gold.Chemscore.Hbonds>
donor molecule, donor type, donor heavy atom, donor atom, acceptor molecule, acceptor atom, score
      P1  H  7997  8010       L1    14  0.25

> <Gold.Chemscore.Hbond.Weighted>
-2.1164

> <Gold.Chemscore.Metal.Weighted>
-0.0000

> <Gold.Chemscore.Lipo.Weighted>
-12.6502

> <Gold.Chemscore.Internal_Hbond.Weighted>
0.0000

> <Gold.Chemscore.DEClash.Weighted>
0.0595

> <Gold.Chemscore.DEInternal.Weighted>
1.5086

> <Gold.Chemscore.Rot.Weighted>
5.6893

> <Gold.Chemscore.Internal.Correction.Weighted>
   9.000000E+99

> <Gold.Protein.RotatedTorsions>
[ 6907 6896 6895 6894 ] final   47.67 input  -60.11 | X-H torsion
[ 7974 7965 7964 7962 ] final  179.31 input  175.53 | X-H torsion
[ 8008 7997 7996 7995 ] final   97.06 input   59.86 | X-H torsion
[ 10167 10162 10161 10158 ] final  173.59 input  -65.29 | X-H torsion
[ 10718 10713 10712 10709 ] final  -78.48 input   66.30 | X-H torsion
[ 10763 10752 10751 10750 ] final  162.59 input  -60.55 | X-H torsion
[ 11005 11000 10999 10996 ] final  -47.84 input  -57.11 | X-H torsion

> <Gold.Protein.ActiveResidues>
 VAL166  LYS551  ARG553  GLY616  TRP617  ASP618  TYR619  PRO620  LYS621  CYS622 
 ASP623  PHE694  ASN695  SER759  ASP760  ASP761  ALA762  ILE779  LEU786  VAL792 
 PHE793  MET794  SER795  GLU796  ALA797  LYS798  CYS799  TRP800  GLU811  SER814 

> <Gold.Protein.RotatedAtoms>
  152.2707  134.7935  160.0414 H   0  0  0  0  0  0  0  0  0  0  0  0  # atno 6907 bound_to 6896
  151.8549  133.3441  159.3693 H   0  0  0  0  0  0  0  0  0  0  0  0  # atno 6908 bound_to 6896
  150.7151  134.5190  159.5689 H   0  0  0  0  0  0  0  0  0  0  0  0  # atno 6909 bound_to 6896
  144.7147  140.0529  143.6435 H   0  0  0  0  0  0  0  0  0  0  0  0  # atno 7974 bound_to 7965
  156.0862  140.3263  155.7757 H   0  0  0  0  0  0  0  0  0  0  0  0  # atno 8008 bound_to 7997
  155.5071  140.0574  157.2947 H   0  0  0  0  0  0  0  0  0  0  0  0  # atno 8009 bound_to 7997
  154.4611  140.1967  156.0260 H   0  0  0  0  0  0  0  0  0  0  0  0  # atno 8010 bound_to 7997
  139.5113  144.3243  152.0173 H   0  0  0  0  0  0  0  0  0  0  0  0  # atno 10167 bound_to 10162
  156.0116  130.4519  150.3503 H   0  0  0  0  0  0  0  0  0  0  0  0  # atno 10718 bound_to 10713
  154.2807  135.2763  155.2698 H   0  0  0  0  0  0  0  0  0  0  0  0  # atno 10763 bound_to 10752
  154.5220  135.5753  153.6692 H   0  0  0  0  0  0  0  0  0  0  0  0  # atno 10764 bound_to 10752
  152.9929  135.6207  154.2966 H   0  0  0  0  0  0  0  0  0  0  0  0  # atno 10765 bound_to 10752
  141.0665  133.6692  156.3355 H   0  0  0  0  0  0  0  0  0  0  0  0  # atno 11005 bound_to 11000
  145.9929  139.3029  143.0974 LP  0  0  0  0  0  0  0  0  0  0  0  0  # atno 17320 bound_to 7965
  145.8882  140.9320  143.0566 LP  0  0  0  0  0  0  0  0  0  0  0  0  # atno 17321 bound_to 7965
  140.2684  144.3991  150.6160 LP  0  0  0  0  0  0  0  0  0  0  0  0  # atno 17342 bound_to 10162
  140.6106  143.2169  151.6893 LP  0  0  0  0  0  0  0  0  0  0  0  0  # atno 17343 bound_to 10162
  157.1595  131.0341  151.2847 LP  0  0  0  0  0  0  0  0  0  0  0  0  # atno 17370 bound_to 10713
  157.4323  130.7497  149.7000 LP  0  0  0  0  0  0  0  0  0  0  0  0  # atno 17371 bound_to 10713
  140.5762  134.5791  157.5469 LP  0  0  0  0  0  0  0  0  0  0  0  0  # atno 17394 bound_to 11000
  139.9481  134.7665  156.0512 LP  0  0  0  0  0  0  0  0  0  0  0  0  # atno 17395 bound_to 11000

$$$$
