AV-unprocessed.smi:3103|AV-procd|sdf|11814|dock6
  -GOLD-   2272017183D 1   1.00000     0.00000
 Structure written by MMmdl.
 32 32  0  0  0  0  0  0  0  0  1 V2000
  152.8279  143.5437  162.1962 C   0  0  0  0  0  0  0  0  0  0  0  0
  152.2243  143.3374  160.8205 C   0  0  0  0  0  0  0  0  0  0  0  0
  151.1484  144.1288  160.3650 C   0  0  0  0  0  0  0  0  0  0  0  0
  150.6003  143.9519  159.1434 N   0  0  0  0  0  0  0  0  0  0  0  0
  151.1212  142.9903  158.3781 C   0  0  0  0  0  0  0  0  0  0  0  0
  150.5301  142.8304  157.1396 N   0  0  0  0  0  0  0  0  0  0  0  0
  150.9261  141.8166  156.1741 C   0  0  0  0  0  0  0  0  0  0  0  0
  149.7142  141.0547  155.6292 C   0  0  0  0  0  0  0  0  0  0  0  0
  150.1279  140.2671  154.5252 O   0  0  0  0  0  0  0  0  0  0  0  0
  149.6164  138.9456  154.5664 C   0  0  0  0  0  0  0  0  0  0  0  0
  148.1452  138.9687  154.1345 C   0  0  0  0  0  0  0  0  0  0  0  0
  148.0314  138.5932  152.7785 O   0  0  0  0  0  0  0  0  0  0  0  0
  152.1395  142.1846  158.7021 N   0  0  0  0  0  0  0  0  0  0  0  0
  152.6963  142.3522  159.9222 C   0  0  0  0  0  0  0  0  0  0  0  0
  153.8472  141.4281  160.2718 C   0  0  0  0  0  0  0  0  0  0  0  0
  152.2927  144.3168  162.7486 H   0  0  0  0  0  0  0  0  0  0  0  0
  153.8714  143.8481  162.1118 H   0  0  0  0  0  0  0  0  0  0  0  0
  152.7819  142.6210  162.7753 H   0  0  0  0  0  0  0  0  0  0  0  0
  150.7229  144.9073  160.9810 H   0  0  0  0  0  0  0  0  0  0  0  0
  149.6996  143.3722  156.9504 H   0  0  0  0  0  0  0  0  0  0  0  0
  151.4476  142.3090  155.3526 H   0  0  0  0  0  0  0  0  0  0  0  0
  151.6311  141.1220  156.6326 H   0  0  0  0  0  0  0  0  0  0  0  0
  149.2660  140.4331  156.4060 H   0  0  0  0  0  0  0  0  0  0  0  0
  148.9563  141.7677  155.3017 H   0  0  0  0  0  0  0  0  0  0  0  0
  150.1851  138.3294  153.8683 H   0  0  0  0  0  0  0  0  0  0  0  0
  149.7300  138.5024  155.5574 H   0  0  0  0  0  0  0  0  0  0  0  0
  147.5364  138.3187  154.7639 H   0  0  0  0  0  0  0  0  0  0  0  0
  147.7469  139.9790  154.2321 H   0  0  0  0  0  0  0  0  0  0  0  0
  148.4239  139.2679  152.2461 H   0  0  0  0  0  0  0  0  0  0  0  0
  154.7325  142.0063  160.5370 H   0  0  0  0  0  0  0  0  0  0  0  0
  154.1071  140.7801  159.4337 H   0  0  0  0  0  0  0  0  0  0  0  0
  153.5804  140.7954  161.1186 H   0  0  0  0  0  0  0  0  0  0  0  0
  1  2  1  0  0  0  0
  1 16  1  0  0  0  0
  1 17  1  0  0  0  0
  1 18  1  0  0  0  0
  2 14  1  0  0  0  0
  2  3  2  0  0  0  0
  3  4  1  0  0  0  0
  3 19  1  0  0  0  0
  4  5  2  0  0  0  0
  5  6  1  0  0  0  0
  5 13  1  0  0  0  0
  6  7  1  0  0  0  0
  6 20  1  0  0  0  0
  7  8  1  0  0  0  0
  7 21  1  0  0  0  0
  7 22  1  0  0  0  0
  8  9  1  0  0  0  0
  8 23  1  0  0  0  0
  8 24  1  0  0  0  0
  9 10  1  0  0  0  0
 10 11  1  0  0  0  0
 10 25  1  0  0  0  0
 10 26  1  0  0  0  0
 11 12  1  0  0  0  0
 11 27  1  0  0  0  0
 11 28  1  0  0  0  0
 12 29  1  0  0  0  0
 13 14  2  0  0  0  0
 14 15  1  0  0  0  0
 15 30  1  0  0  0  0
 15 31  1  0  0  0  0
 15 32  1  0  0  0  0
M  END
> <s_m_source_file>
AV-unprocessed.smi

> <i_m_source_file_index>
3103

> <i_lp_mmshare_version>
43012

> <i_f3d_flags>
0

> <s_epik_input>
W0NIM11jMVtjSF1uYyhuYzFbQ0gzXSlbTkhdW0NIMl1bQ0gyXU9bQ0gyXVtDSDJdW09IXQ==

> <s_epik_cmdline>
J2VwaWtfcHl0aG9uJywgJy1waCcsICc3LjAnLCAnLXRuJywgJzgnLCAnLW1hJywgJzIwMCcsICctbWV0YWxfYmluZGluZycsICctaW1hZScsICc8aW5maWxlLm1hZT4nLCAnLW9tYWUnLCAnPG91dGZpbGUubWFlPic=

> <r_lp_tautomer_probability>
1

> <r_epik_Ionization_Penalty>
0.00815169

> <r_epik_Ionization_Penalty_Charging>
0

> <r_epik_Ionization_Penalty_Neutral>
0.00815169

> <r_epik_State_Penalty>
0.00530275

> <r_epik_Charging_Adjusted_Penalty>
0.00530275

> <i_epik_Tot_Q>
0

> <i_epik_Tot_abs_Q>
0

> <r_epik_Metal_State_Penalty>
-0

> <b_epik_Metal_Only>
0

> <s_lp_Force_Field>
OPLS_2005

> <r_lp_Energy>
-2.90403

> <b_lp_Chiralities_Consistent>
1

> <s_lp_Variant>
AV-unprocessed.smi:3103-1

> <Gold.Version>
5.8.1

> <Gold.Id.Protein>
6NUR|6NUR_protein|mol2

> <Gold.PLP.Fitness>
42.7823

> <Gold.PLP.PLP>
-35.4331

> <Gold.PLP.part.hbond>
-3.6372

> <Gold.PLP.part.metal>
0.0000

> <Gold.PLP.part.buried>
-7.0136

> <Gold.PLP.part.nonpolar>
-23.9735

> <Gold.PLP.part.repulsive>
0.2499

> <Gold.PLP.ligand.clash>
0.0000

> <Gold.PLP.ligand.torsion>
0.7526

> <Gold.PLP.Chemscore.Hbond>
2.9440

> <Gold.PLP.Chemscore.CHOScore>
0.0000

> <Gold.PLP.Chemscore.Metal>
0.0000

> <Gold.Chemscore.Hbonds>
donor molecule, donor type, donor heavy atom, donor atom, acceptor molecule, acceptor atom, score
      L1  H     6    20       P1  8028  0.88
      L1  H    12    29       P1  7957  1.00
      P1  H  7989  7998       L1     9  1.00

> <Gold.PLP.Chemscore.Internal.Correction>
0.0225

> <Gold.Rescore>
     Score         DG    S(hbond)    S(metal)    S(lipo)     H(rot)  DE(clash)    DE(int)     intcor
     17.19     -17.96       2.88        0.00      81.67       2.61       0.01       0.76       ----

> <Gold.Chemscore.Fitness>
17.1925

> <Gold.Chemscore.DG>
-17.9612

> <Gold.Chemscore.ZeroCoef>
-5.4800

> <Gold.Chemscore.Hbond>
2.8776

> <Gold.Chemscore.Metal>
0.0000

> <Gold.Chemscore.Lipo>
81.6659

> <Gold.Chemscore.Internal_Hbond>
0.0000

> <Gold.Chemscore.DEClash>
0.0132

> <Gold.Chemscore.DEInternal>
0.7554

> <Gold.Chemscore.Rot>
2.6113

> <Gold.Chemscore.Internal.Correction>
   9.000000E+99

> <Gold.Chemscore.Hbonds>
donor molecule, donor type, donor heavy atom, donor atom, acceptor molecule, acceptor atom, score
      L1  H     6    20       P1  8028  0.80
      L1  H    12    29       P1  7957  0.99
      P1  H  7989  7998       L1     9  0.91

> <Gold.Chemscore.Hbond.Weighted>
-9.6111

> <Gold.Chemscore.Metal.Weighted>
-0.0000

> <Gold.Chemscore.Lipo.Weighted>
-9.5549

> <Gold.Chemscore.Internal_Hbond.Weighted>
0.0000

> <Gold.Chemscore.DEClash.Weighted>
0.0132

> <Gold.Chemscore.DEInternal.Weighted>
0.7554

> <Gold.Chemscore.Rot.Weighted>
6.6849

> <Gold.Chemscore.Internal.Correction.Weighted>
   9.000000E+99

> <Gold.Protein.RotatedTorsions>
[ 6907 6896 6895 6894 ] final -118.30 input  -60.11 | X-H torsion
[ 7974 7965 7964 7962 ] final  139.96 input  175.53 | X-H torsion
[ 8008 7997 7996 7995 ] final  -38.87 input   59.86 | X-H torsion
[ 10167 10162 10161 10158 ] final   78.26 input  -65.29 | X-H torsion
[ 10718 10713 10712 10709 ] final -116.91 input   66.30 | X-H torsion
[ 10763 10752 10751 10750 ] final -105.76 input  -60.55 | X-H torsion
[ 11005 11000 10999 10996 ] final  148.85 input  -57.11 | X-H torsion

> <Gold.Protein.ActiveResidues>
 VAL166  LYS551  ARG553  GLY616  TRP617  ASP618  TYR619  PRO620  LYS621  CYS622 
 ASP623  PHE694  ASN695  SER759  ASP760  ASP761  ALA762  ILE779  LEU786  VAL792 
 PHE793  MET794  SER795  GLU796  ALA797  LYS798  CYS799  TRP800  GLU811  SER814 

> <Gold.Protein.RotatedAtoms>
  150.8208  133.8256  159.3139 H   0  0  0  0  0  0  0  0  0  0  0  0  # atno 6907 bound_to 6896
  151.6015  135.1045  160.0070 H   0  0  0  0  0  0  0  0  0  0  0  0  # atno 6908 bound_to 6896
  152.4297  133.7216  159.6593 H   0  0  0  0  0  0  0  0  0  0  0  0  # atno 6909 bound_to 6896
  144.9230  139.5143  143.5654 H   0  0  0  0  0  0  0  0  0  0  0  0  # atno 7974 bound_to 7965
  154.4030  140.1566  156.2770 H   0  0  0  0  0  0  0  0  0  0  0  0  # atno 8008 bound_to 7997
  155.8903  140.3439  155.5929 H   0  0  0  0  0  0  0  0  0  0  0  0  # atno 8009 bound_to 7997
  155.7566  140.0812  157.2166 H   0  0  0  0  0  0  0  0  0  0  0  0  # atno 8010 bound_to 7997
  139.9729  144.5882  150.7969 H   0  0  0  0  0  0  0  0  0  0  0  0  # atno 10167 bound_to 10162
  156.0997  130.6161  150.9097 H   0  0  0  0  0  0  0  0  0  0  0  0  # atno 10718 bound_to 10713
  154.7968  135.4737  154.0180 H   0  0  0  0  0  0  0  0  0  0  0  0  # atno 10763 bound_to 10752
  153.1716  135.6826  153.8606 H   0  0  0  0  0  0  0  0  0  0  0  0  # atno 10764 bound_to 10752
  153.8187  135.3207  155.3386 H   0  0  0  0  0  0  0  0  0  0  0  0  # atno 10765 bound_to 10752
  140.0994  134.8992  157.1773 H   0  0  0  0  0  0  0  0  0  0  0  0  # atno 11005 bound_to 11000
  146.3213  139.8124  142.8943 LP  0  0  0  0  0  0  0  0  0  0  0  0  # atno 17320 bound_to 7965
  145.3265  141.0256  143.3471 LP  0  0  0  0  0  0  0  0  0  0  0  0  # atno 17321 bound_to 7965
  140.7516  143.2975  151.3166 LP  0  0  0  0  0  0  0  0  0  0  0  0  # atno 17342 bound_to 10162
  139.6468  144.0437  152.2596 LP  0  0  0  0  0  0  0  0  0  0  0  0  # atno 17343 bound_to 10162
  157.6164  131.0933  150.8702 LP  0  0  0  0  0  0  0  0  0  0  0  0  # atno 17370 bound_to 10713
  156.8832  130.5187  149.5290 LP  0  0  0  0  0  0  0  0  0  0  0  0  # atno 17371 bound_to 10713
  140.3241  134.2884  155.7240 LP  0  0  0  0  0  0  0  0  0  0  0  0  # atno 17394 bound_to 11000
  141.2101  133.7728  156.9951 LP  0  0  0  0  0  0  0  0  0  0  0  0  # atno 17395 bound_to 11000

$$$$
