AV-unprocessed.smi:3331|AV-procd|sdf|12821|dock4
  -GOLD-   2272019193D 1   1.00000     0.00000
 Structure written by MMmdl.
 47 48  0  0  0  0  0  0  0  0  2 V2000
  150.9928  142.3537  156.5525 C   0  0  0  0  0  0  0  0  0  0  0  0
  150.2948  141.1181  155.9676 C   0  0  2  0  0  0  0  0  0  0  0  0
  151.2840  139.9474  155.7731 C   0  0  0  0  0  0  0  0  0  0  0  0
  150.6316  138.7358  155.0699 C   0  0  2  0  0  0  0  0  0  0  0  0
  151.6599  137.6352  154.7742 C   0  0  0  0  0  0  0  0  0  0  0  0
  149.9001  139.1906  153.7889 C   0  0  0  0  0  0  0  0  0  0  0  0
  148.9230  140.2266  154.1484 N   0  0  0  0  0  0  0  0  0  0  0  0
  147.5857  139.9969  154.1471 C   0  0  0  0  0  0  0  0  0  0  0  0
  146.7807  140.8313  154.5654 O   0  0  0  0  0  0  0  0  0  0  0  0
  147.0297  138.6595  153.6113 C   0  0  1  0  0  0  0  0  0  0  0  0
  147.3890  137.5131  154.5714 C   0  0  0  0  0  0  0  0  0  0  0  0
  145.5586  138.7049  153.4353 N   0  3  0  0  0  0  0  0  0  0  0  0
  144.9611  137.5056  152.8091 C   0  0  0  0  0  0  0  0  0  0  0  0
  145.8745  136.9530  151.7067 C   0  0  0  0  0  0  0  0  0  0  0  0
  145.5109  135.5993  151.3373 N   0  0  0  0  0  0  0  0  0  0  0  0
  146.2321  134.4376  151.5155 C   0  0  0  0  0  0  0  0  0  0  0  0
  145.4855  133.4145  151.0056 C   0  0  0  0  0  0  0  0  0  0  0  0
  144.3087  134.0584  150.5308 C   0  0  0  0  0  0  0  0  0  0  0  0
  144.3268  135.3664  150.7317 N   0  0  0  0  0  0  0  0  0  0  0  0
  149.5946  141.4397  154.6322 C   0  0  0  0  0  0  0  0  0  0  0  0
  151.7666  142.7274  155.8813 H   0  0  0  0  0  0  0  0  0  0  0  0
  151.4648  142.1219  157.5077 H   0  0  0  0  0  0  0  0  0  0  0  0
  150.2820  143.1624  156.7240 H   0  0  0  0  0  0  0  0  0  0  0  0
  149.5323  140.8019  156.6814 H   0  0  0  0  0  0  0  0  0  0  0  0
  152.1307  140.2913  155.1773 H   0  0  0  0  0  0  0  0  0  0  0  0
  151.6929  139.6422  156.7371 H   0  0  0  0  0  0  0  0  0  0  0  0
  149.8883  138.3151  155.7489 H   0  0  0  0  0  0  0  0  0  0  0  0
  152.4325  137.9875  154.0900 H   0  0  0  0  0  0  0  0  0  0  0  0
  151.1843  136.7654  154.3202 H   0  0  0  0  0  0  0  0  0  0  0  0
  152.1511  137.3016  155.6885 H   0  0  0  0  0  0  0  0  0  0  0  0
  150.6124  139.5958  153.0685 H   0  0  0  0  0  0  0  0  0  0  0  0
  149.4427  138.3316  153.2961 H   0  0  0  0  0  0  0  0  0  0  0  0
  147.4458  138.4427  152.6279 H   0  0  0  0  0  0  0  0  0  0  0  0
  148.4659  137.4311  154.7206 H   0  0  0  0  0  0  0  0  0  0  0  0
  147.0428  136.5551  154.1821 H   0  0  0  0  0  0  0  0  0  0  0  0
  146.9316  137.6554  155.5515 H   0  0  0  0  0  0  0  0  0  0  0  0
  145.1391  138.8113  154.3478 H   0  0  0  0  0  0  0  0  0  0  0  0
  144.7931  136.7369  153.5643 H   0  0  0  0  0  0  0  0  0  0  0  0
  143.9865  137.7662  152.3939 H   0  0  0  0  0  0  0  0  0  0  0  0
  145.8254  137.5813  150.8158 H   0  0  0  0  0  0  0  0  0  0  0  0
  146.9135  136.9538  152.0392 H   0  0  0  0  0  0  0  0  0  0  0  0
  147.2049  134.4347  151.9846 H   0  0  0  0  0  0  0  0  0  0  0  0
  145.7415  132.3658  150.9747 H   0  0  0  0  0  0  0  0  0  0  0  0
  143.4485  133.6168  150.0497 H   0  0  0  0  0  0  0  0  0  0  0  0
  148.9307  142.2945  154.7430 H   0  0  0  0  0  0  0  0  0  0  0  0
  150.3322  141.7559  153.8927 H   0  0  0  0  0  0  0  0  0  0  0  0
  145.3303  139.5164  152.8785 H   0  0  0  0  0  0  0  0  0  0  0  0
  1  2  1  0  0  0  0
  1 21  1  0  0  0  0
  1 22  1  0  0  0  0
  1 23  1  0  0  0  0
  2 20  1  0  0  0  0
  2  3  1  0  0  0  0
  2 24  1  0  0  0  0
  3  4  1  0  0  0  0
  3 25  1  0  0  0  0
  3 26  1  0  0  0  0
  4  5  1  0  0  0  0
  4  6  1  0  0  0  0
  4 27  1  0  0  0  0
  5 28  1  0  0  0  0
  5 29  1  0  0  0  0
  5 30  1  0  0  0  0
  6  7  1  0  0  0  0
  6 31  1  0  0  0  0
  6 32  1  0  0  0  0
  7  8  1  0  0  0  0
  7 20  1  0  0  0  0
  8  9  2  0  0  0  0
  8 10  1  0  0  0  0
 10 11  1  0  0  0  0
 10 12  1  0  0  0  0
 10 33  1  0  0  0  0
 11 34  1  0  0  0  0
 11 35  1  0  0  0  0
 11 36  1  0  0  0  0
 12 13  1  0  0  0  0
 12 37  1  0  0  0  0
 12 47  1  0  0  0  0
 13 14  1  0  0  0  0
 13 38  1  0  0  0  0
 13 39  1  0  0  0  0
 14 15  1  0  0  0  0
 14 40  1  0  0  0  0
 14 41  1  0  0  0  0
 15 19  1  0  0  0  0
 15 16  1  0  0  0  0
 16 17  2  0  0  0  0
 16 42  1  0  0  0  0
 17 18  1  0  0  0  0
 17 43  1  0  0  0  0
 18 19  2  0  0  0  0
 18 44  1  0  0  0  0
 20 45  1  0  0  0  0
 20 46  1  0  0  0  0
M  CHG  1  12   1
M  END
> <s_m_source_file>
AV-unprocessed.smi

> <i_m_source_file_index>
3331

> <i_lp_mmshare_version>
43012

> <i_f3d_flags>
0

> <s_epik_input>
W0NIM11bQ0BASF0xW0NIMl1bQ0BASF0oW0NIM10pW0NIMl1OKFtDSDJdMSlDKD1PKVtDQEhdKFtDSDNdKVtOSF1bQ0gyXVtDSDJdbjJbY0hdW2NIXVtjSF1uMg==

> <s_epik_cmdline>
J2VwaWtfcHl0aG9uJywgJy1waCcsICc3LjAnLCAnLXRuJywgJzgnLCAnLW1hJywgJzIwMCcsICctbWV0YWxfYmluZGluZycsICctaW1hZScsICc8aW5maWxlLm1hZT4nLCAnLW9tYWUnLCAnPG91dGZpbGUubWFlPic=

> <r_lp_tautomer_probability>
1

> <r_epik_Ionization_Penalty>
0.189706

> <r_epik_Ionization_Penalty_Charging>
0.189703

> <r_epik_Ionization_Penalty_Neutral>
2.45875e-06

> <r_epik_State_Penalty>
0.179341

> <r_epik_Charging_Adjusted_Penalty>
0.369044

> <i_epik_Tot_Q>
1

> <i_epik_Tot_abs_Q>
1

> <r_epik_Metal_State_Penalty>
0.179578

> <b_epik_Metal_Only>
0

> <s_lp_Force_Field>
OPLS_2005

> <r_lp_Energy>
26.0913

> <b_lp_Chiralities_Consistent>
1

> <s_lp_Variant>
AV-unprocessed.smi:3331-5

> <Gold.Version>
5.8.1

> <Gold.Id.Protein>
6NUR|6NUR_protein|mol2

> <Gold.PLP.Fitness>
45.5317

> <Gold.PLP.PLP>
-34.3988

> <Gold.PLP.part.hbond>
-1.0000

> <Gold.PLP.part.metal>
0.0000

> <Gold.PLP.part.buried>
-0.1124

> <Gold.PLP.part.nonpolar>
-34.5055

> <Gold.PLP.part.repulsive>
0.2986

> <Gold.PLP.ligand.clash>
0.0000

> <Gold.PLP.ligand.torsion>
0.4514

> <Gold.PLP.Chemscore.Hbond>
2.0000

> <Gold.PLP.Chemscore.CHOScore>
2.0000

> <Gold.PLP.Chemscore.Metal>
0.0000

> <Gold.Chemscore.Hbonds>
donor molecule, donor type, donor heavy atom, donor atom, acceptor molecule, acceptor atom, score
      L1  H    12    47       P1 10175  1.38
      L1  C    16    42       P1  7948  0.94
      L1  C    18    44       P1 10186  0.78

> <Gold.PLP.Chemscore.Internal.Correction>
0.0357

> <Gold.Rescore>
     Score         DG    S(hbond)    S(metal)    S(lipo)     H(rot)  DE(clash)    DE(int)     intcor
     11.97     -13.94       0.96        0.00      82.66       1.73       1.17       0.80       ----

> <Gold.Chemscore.Fitness>
11.9704

> <Gold.Chemscore.DG>
-13.9446

> <Gold.Chemscore.ZeroCoef>
-5.4800

> <Gold.Chemscore.Hbond>
0.9613

> <Gold.Chemscore.Metal>
0.0000

> <Gold.Chemscore.Lipo>
82.6572

> <Gold.Chemscore.Internal_Hbond>
0.0000

> <Gold.Chemscore.DEClash>
1.1714

> <Gold.Chemscore.DEInternal>
0.8028

> <Gold.Chemscore.Rot>
1.7254

> <Gold.Chemscore.Internal.Correction>
   9.000000E+99

> <Gold.Chemscore.Hbonds>
donor molecule, donor type, donor heavy atom, donor atom, acceptor molecule, acceptor atom, score
      L1  H    12    47       P1 10175  0.69

> <Gold.Chemscore.Hbond.Weighted>
-3.2107

> <Gold.Chemscore.Metal.Weighted>
-0.0000

> <Gold.Chemscore.Lipo.Weighted>
-9.6709

> <Gold.Chemscore.Internal_Hbond.Weighted>
0.0000

> <Gold.Chemscore.DEClash.Weighted>
1.1714

> <Gold.Chemscore.DEInternal.Weighted>
0.8028

> <Gold.Chemscore.Rot.Weighted>
4.4170

> <Gold.Chemscore.Internal.Correction.Weighted>
   9.000000E+99

> <Gold.Protein.RotatedTorsions>
[ 6907 6896 6895 6894 ] final    4.97 input  -60.11 | X-H torsion
[ 7974 7965 7964 7962 ] final   71.32 input  175.53 | X-H torsion
[ 8008 7997 7996 7995 ] final   28.62 input   59.86 | X-H torsion
[ 10167 10162 10161 10158 ] final  121.36 input  -65.29 | X-H torsion
[ 10718 10713 10712 10709 ] final  -47.51 input   66.30 | X-H torsion
[ 10763 10752 10751 10750 ] final  -52.80 input  -60.55 | X-H torsion
[ 11005 11000 10999 10996 ] final  161.22 input  -57.11 | X-H torsion

> <Gold.Protein.ActiveResidues>
 VAL166  LYS551  ARG553  GLY616  TRP617  ASP618  TYR619  PRO620  LYS621  CYS622 
 ASP623  PHE694  ASN695  SER759  ASP760  ASP761  ALA762  ILE779  LEU786  VAL792 
 PHE793  MET794  SER795  GLU796  ALA797  LYS798  CYS799  TRP800  GLU811  SER814 

> <Gold.Protein.RotatedAtoms>
  151.6500  135.1003  160.0158 H   0  0  0  0  0  0  0  0  0  0  0  0  # atno 6907 bound_to 6896
  152.4006  133.6808  159.6322 H   0  0  0  0  0  0  0  0  0  0  0  0  # atno 6908 bound_to 6896
  150.7907  133.8714  159.3301 H   0  0  0  0  0  0  0  0  0  0  0  0  # atno 6909 bound_to 6896
  145.7673  139.2827  143.1341 H   0  0  0  0  0  0  0  0  0  0  0  0  # atno 7974 bound_to 7965
  155.0616  140.3191  155.4659 H   0  0  0  0  0  0  0  0  0  0  0  0  # atno 8008 bound_to 7997
  156.2811  140.2128  156.5688 H   0  0  0  0  0  0  0  0  0  0  0  0  # atno 8009 bound_to 7997
  154.7127  140.0496  157.0553 H   0  0  0  0  0  0  0  0  0  0  0  0  # atno 8010 bound_to 7997
  139.5924  144.7030  151.3257 H   0  0  0  0  0  0  0  0  0  0  0  0  # atno 10167 bound_to 10162
  156.2078  130.4159  149.9155 H   0  0  0  0  0  0  0  0  0  0  0  0  # atno 10718 bound_to 10713
  154.1486  135.6494  153.4958 H   0  0  0  0  0  0  0  0  0  0  0  0  # atno 10763 bound_to 10752
  153.0144  135.5332  154.6832 H   0  0  0  0  0  0  0  0  0  0  0  0  # atno 10764 bound_to 10752
  154.6113  135.2954  155.0400 H   0  0  0  0  0  0  0  0  0  0  0  0  # atno 10765 bound_to 10752
  140.2136  134.8249  157.3147 H   0  0  0  0  0  0  0  0  0  0  0  0  # atno 11005 bound_to 11000
  146.0205  140.8353  142.9926 LP  0  0  0  0  0  0  0  0  0  0  0  0  # atno 17320 bound_to 7965
  144.6819  140.2621  143.7317 LP  0  0  0  0  0  0  0  0  0  0  0  0  # atno 17321 bound_to 7965
  140.7184  143.7203  150.7701 LP  0  0  0  0  0  0  0  0  0  0  0  0  # atno 17342 bound_to 10162
  140.0762  143.5013  152.2554 LP  0  0  0  0  0  0  0  0  0  0  0  0  # atno 17343 bound_to 10162
  156.6844  130.8871  151.3580 LP  0  0  0  0  0  0  0  0  0  0  0  0  # atno 17370 bound_to 10713
  157.7022  130.9345  150.0819 LP  0  0  0  0  0  0  0  0  0  0  0  0  # atno 17371 bound_to 10713
  140.1924  134.4355  155.7708 LP  0  0  0  0  0  0  0  0  0  0  0  0  # atno 17394 bound_to 11000
  141.2225  133.7033  156.8049 LP  0  0  0  0  0  0  0  0  0  0  0  0  # atno 17395 bound_to 11000

$$$$
