AV-unprocessed.smi:2359|AV-procd|sdf|9408|dock3
  -GOLD-   2272013 43D 1   1.00000     0.00000
 Structure written by MMmdl.
 40 41  0  0  0  0  0  0  0  0  1 V2000
  145.5882  129.0949  152.3997 C   0  0  0  0  0  0  0  0  0  0  0  0
  146.3307  130.3814  152.6936 C   0  0  0  0  0  0  0  0  0  0  0  0
  146.1167  131.5308  151.9104 C   0  0  0  0  0  0  0  0  0  0  0  0
  146.8280  132.7058  152.2204 C   0  0  0  0  0  0  0  0  0  0  0  0
  147.7341  132.7051  153.3047 C   0  0  0  0  0  0  0  0  0  0  0  0
  148.4018  133.9382  153.5309 N   0  0  0  0  0  0  0  0  0  0  0  0
  149.1102  134.3148  154.6102 C   0  0  0  0  0  0  0  0  0  0  0  0
  149.2910  133.6325  155.6195 O   0  0  0  0  0  0  0  0  0  0  0  0
  149.6070  135.5498  154.4572 N   0  0  0  0  0  0  0  0  0  0  0  0
  150.4159  136.2396  155.4528 C   0  0  0  0  0  0  0  0  0  0  0  0
  150.9520  137.5642  154.8905 C   0  0  0  0  0  0  0  0  0  0  0  0
  150.5331  138.7822  155.7292 C   0  0  1  0  0  0  0  0  0  0  0  0
  151.2787  138.8394  157.0769 C   0  0  0  0  0  0  0  0  0  0  0  0
  150.8916  140.1031  157.8534 C   0  0  0  0  0  0  0  0  0  0  0  0
  151.0988  141.3370  156.9689 C   0  0  0  0  0  0  0  0  0  0  0  0
  150.3762  141.1582  155.6242 C   0  0  0  0  0  0  0  0  0  0  0  0
  150.8243  139.9655  154.9877 O   0  0  0  0  0  0  0  0  0  0  0  0
  147.9326  131.5924  154.0546 N   0  0  0  0  0  0  0  0  0  0  0  0
  147.2505  130.4667  153.7570 C   0  0  0  0  0  0  0  0  0  0  0  0
  145.6649  128.8447  151.3413 H   0  0  0  0  0  0  0  0  0  0  0  0
  144.5335  129.2026  152.6528 H   0  0  0  0  0  0  0  0  0  0  0  0
  145.9958  128.2635  152.9756 H   0  0  0  0  0  0  0  0  0  0  0  0
  145.4199  131.5149  151.0852 H   0  0  0  0  0  0  0  0  0  0  0  0
  146.6754  133.5967  151.6289 H   0  0  0  0  0  0  0  0  0  0  0  0
  148.3350  134.6111  152.7820 H   0  0  0  0  0  0  0  0  0  0  0  0
  149.4131  136.0451  153.5991 H   0  0  0  0  0  0  0  0  0  0  0  0
  149.8097  136.4228  156.3410 H   0  0  0  0  0  0  0  0  0  0  0  0
  151.2460  135.5988  155.7546 H   0  0  0  0  0  0  0  0  0  0  0  0
  152.0410  137.5157  154.8506 H   0  0  0  0  0  0  0  0  0  0  0  0
  150.6120  137.6943  153.8621 H   0  0  0  0  0  0  0  0  0  0  0  0
  149.4585  138.7286  155.9133 H   0  0  0  0  0  0  0  0  0  0  0  0
  151.0544  137.9541  157.6728 H   0  0  0  0  0  0  0  0  0  0  0  0
  152.3555  138.8346  156.9030 H   0  0  0  0  0  0  0  0  0  0  0  0
  149.8462  140.0410  158.1587 H   0  0  0  0  0  0  0  0  0  0  0  0
  151.4815  140.1852  158.7666 H   0  0  0  0  0  0  0  0  0  0  0  0
  150.7368  142.2313  157.4770 H   0  0  0  0  0  0  0  0  0  0  0  0
  152.1646  141.4862  156.7920 H   0  0  0  0  0  0  0  0  0  0  0  0
  149.2947  141.1243  155.7639 H   0  0  0  0  0  0  0  0  0  0  0  0
  150.5859  142.0051  154.9710 H   0  0  0  0  0  0  0  0  0  0  0  0
  147.4469  129.6119  154.3873 H   0  0  0  0  0  0  0  0  0  0  0  0
  1  2  1  0  0  0  0
  1 20  1  0  0  0  0
  1 21  1  0  0  0  0
  1 22  1  0  0  0  0
  2 19  1  0  0  0  0
  2  3  2  0  0  0  0
  3  4  1  0  0  0  0
  3 23  1  0  0  0  0
  4  5  2  0  0  0  0
  4 24  1  0  0  0  0
  5  6  1  0  0  0  0
  5 18  1  0  0  0  0
  6  7  1  0  0  0  0
  6 25  1  0  0  0  0
  7  8  2  0  0  0  0
  7  9  1  0  0  0  0
  9 10  1  0  0  0  0
  9 26  1  0  0  0  0
 10 11  1  0  0  0  0
 10 27  1  0  0  0  0
 10 28  1  0  0  0  0
 11 12  1  0  0  0  0
 11 29  1  0  0  0  0
 11 30  1  0  0  0  0
 12 17  1  0  0  0  0
 12 13  1  0  0  0  0
 12 31  1  0  0  0  0
 13 14  1  0  0  0  0
 13 32  1  0  0  0  0
 13 33  1  0  0  0  0
 14 15  1  0  0  0  0
 14 34  1  0  0  0  0
 14 35  1  0  0  0  0
 15 16  1  0  0  0  0
 15 36  1  0  0  0  0
 15 37  1  0  0  0  0
 16 17  1  0  0  0  0
 16 38  1  0  0  0  0
 16 39  1  0  0  0  0
 18 19  2  0  0  0  0
 19 40  1  0  0  0  0
M  END
> <s_m_source_file>
AV-unprocessed.smi

> <i_m_source_file_index>
2359

> <i_lp_mmshare_version>
43012

> <i_f3d_flags>
0

> <s_epik_input>
W0NIM11jMVtjSF1bY0hdYyhuW2NIXTEpW05IXUMoPU8pW05IXVtDSDJdW0NIMl1bQ0BASF0yW0NIMl1bQ0gyXVtDSDJdW0NIMl1PMg==

> <s_epik_cmdline>
J2VwaWtfcHl0aG9uJywgJy1waCcsICc3LjAnLCAnLXRuJywgJzgnLCAnLW1hJywgJzIwMCcsICctbWV0YWxfYmluZGluZycsICctaW1hZScsICc8aW5maWxlLm1hZT4nLCAnLW9tYWUnLCAnPG91dGZpbGUubWFlPic=

> <r_lp_tautomer_probability>
1

> <r_epik_Ionization_Penalty>
5.73679e-05

> <r_epik_Ionization_Penalty_Charging>
0

> <r_epik_Ionization_Penalty_Neutral>
5.73679e-05

> <r_epik_State_Penalty>
-0

> <r_epik_Charging_Adjusted_Penalty>
0

> <i_epik_Tot_Q>
0

> <i_epik_Tot_abs_Q>
0

> <r_epik_Metal_State_Penalty>
-0

> <b_epik_Metal_Only>
0

> <s_lp_Force_Field>
OPLS_2005

> <r_lp_Energy>
11.4199

> <b_lp_Chiralities_Consistent>
1

> <s_lp_Variant>
AV-unprocessed.smi:2359-2

> <Gold.Version>
5.8.1

> <Gold.Id.Protein>
6NUR|6NUR_protein|mol2

> <Gold.PLP.Fitness>
40.6213

> <Gold.PLP.PLP>
-32.8561

> <Gold.PLP.part.hbond>
-3.6342

> <Gold.PLP.part.metal>
0.0000

> <Gold.PLP.part.buried>
-3.7268

> <Gold.PLP.part.nonpolar>
-26.0181

> <Gold.PLP.part.repulsive>
0.2045

> <Gold.PLP.ligand.clash>
0.0000

> <Gold.PLP.ligand.torsion>
0.5098

> <Gold.PLP.Chemscore.Hbond>
2.9260

> <Gold.PLP.Chemscore.CHOScore>
0.0000

> <Gold.PLP.Chemscore.Metal>
0.0000

> <Gold.Chemscore.Hbonds>
donor molecule, donor type, donor heavy atom, donor atom, acceptor molecule, acceptor atom, score
      L1  H     6    25       P1  7948  1.00
      L1  H     9    26       P1  7948  1.00
      P1  H  7989  7998       L1    17  0.75

> <Gold.PLP.Chemscore.Internal.Correction>
0.0068

> <Gold.Rescore>
     Score         DG    S(hbond)    S(metal)    S(lipo)     H(rot)  DE(clash)    DE(int)     intcor
     15.17     -17.06       2.07        0.00      70.96       1.42       0.16       1.73       ----

> <Gold.Chemscore.Fitness>
15.1680

> <Gold.Chemscore.DG>
-17.0586

> <Gold.Chemscore.ZeroCoef>
-5.4800

> <Gold.Chemscore.Hbond>
2.0731

> <Gold.Chemscore.Metal>
0.0000

> <Gold.Chemscore.Lipo>
70.9573

> <Gold.Chemscore.Internal_Hbond>
0.0000

> <Gold.Chemscore.DEClash>
0.1559

> <Gold.Chemscore.DEInternal>
1.7347

> <Gold.Chemscore.Rot>
1.4248

> <Gold.Chemscore.Internal.Correction>
   9.000000E+99

> <Gold.Chemscore.Hbonds>
donor molecule, donor type, donor heavy atom, donor atom, acceptor molecule, acceptor atom, score
      L1  H     6    25       P1  7948  0.38
      L1  H     9    26       P1  7948  0.59
      P1  H  7989  7998       L1    17  0.09

> <Gold.Chemscore.Hbond.Weighted>
-6.9242

> <Gold.Chemscore.Metal.Weighted>
-0.0000

> <Gold.Chemscore.Lipo.Weighted>
-8.3020

> <Gold.Chemscore.Internal_Hbond.Weighted>
0.0000

> <Gold.Chemscore.DEClash.Weighted>
0.1559

> <Gold.Chemscore.DEInternal.Weighted>
1.7347

> <Gold.Chemscore.Rot.Weighted>
3.6476

> <Gold.Chemscore.Internal.Correction.Weighted>
   9.000000E+99

> <Gold.Protein.RotatedTorsions>
[ 6907 6896 6895 6894 ] final    9.10 input  -60.11 | X-H torsion
[ 7974 7965 7964 7962 ] final  -18.00 input  175.53 | X-H torsion
[ 8008 7997 7996 7995 ] final   51.24 input   59.86 | X-H torsion
[ 10167 10162 10161 10158 ] final  -74.50 input  -65.29 | X-H torsion
[ 10718 10713 10712 10709 ] final   -8.80 input   66.30 | X-H torsion
[ 10763 10752 10751 10750 ] final  129.09 input  -60.55 | X-H torsion
[ 11005 11000 10999 10996 ] final -161.71 input  -57.11 | X-H torsion

> <Gold.Protein.ActiveResidues>
 VAL166  LYS551  ARG553  GLY616  TRP617  ASP618  TYR619  PRO620  LYS621  CYS622 
 ASP623  PHE694  ASN695  SER759  ASP760  ASP761  ALA762  ILE779  LEU786  VAL792 
 PHE793  MET794  SER795  GLU796  ALA797  LYS798  CYS799  TRP800  GLU811  SER814 

> <Gold.Protein.RotatedAtoms>
  151.7167  135.0902  160.0276 H   0  0  0  0  0  0  0  0  0  0  0  0  # atno 6907 bound_to 6896
  152.3628  133.6314  159.6036 H   0  0  0  0  0  0  0  0  0  0  0  0  # atno 6908 bound_to 6896
  150.7616  133.9313  159.3469 H   0  0  0  0  0  0  0  0  0  0  0  0  # atno 6909 bound_to 6896
  146.1913  140.3859  142.8457 H   0  0  0  0  0  0  0  0  0  0  0  0  # atno 7974 bound_to 7965
  155.4321  140.3451  155.4281 H   0  0  0  0  0  0  0  0  0  0  0  0  # atno 8008 bound_to 7997
  156.1330  140.1519  156.9067 H   0  0  0  0  0  0  0  0  0  0  0  0  # atno 8009 bound_to 7997
  154.4909  140.0841  156.7573 H   0  0  0  0  0  0  0  0  0  0  0  0  # atno 8010 bound_to 7997
  140.5022  143.2359  151.7734 H   0  0  0  0  0  0  0  0  0  0  0  0  # atno 10167 bound_to 10162
  156.6973  130.5083  149.5927 H   0  0  0  0  0  0  0  0  0  0  0  0  # atno 10718 bound_to 10713
  153.7361  135.3231  155.3295 H   0  0  0  0  0  0  0  0  0  0  0  0  # atno 10763 bound_to 10752
  154.8310  135.4533  154.1073 H   0  0  0  0  0  0  0  0  0  0  0  0  # atno 10764 bound_to 10752
  153.2235  135.6951  153.8054 H   0  0  0  0  0  0  0  0  0  0  0  0  # atno 10765 bound_to 10752
  140.6174  134.4786  157.5221 H   0  0  0  0  0  0  0  0  0  0  0  0  # atno 11005 bound_to 11000
  144.8493  140.6977  143.6178 LP  0  0  0  0  0  0  0  0  0  0  0  0  # atno 17320 bound_to 7965
  145.3782  139.1643  143.4295 LP  0  0  0  0  0  0  0  0  0  0  0  0  # atno 17321 bound_to 7965
  139.4875  144.4507  151.9657 LP  0  0  0  0  0  0  0  0  0  0  0  0  # atno 17342 bound_to 10162
  140.3596  144.2989  150.5935 LP  0  0  0  0  0  0  0  0  0  0  0  0  # atno 17343 bound_to 10162
  156.1754  130.6464  151.0888 LP  0  0  0  0  0  0  0  0  0  0  0  0  # atno 17370 bound_to 10713
  157.6986  131.0784  150.6891 LP  0  0  0  0  0  0  0  0  0  0  0  0  # atno 17371 bound_to 10713
  139.9167  134.8231  156.1342 LP  0  0  0  0  0  0  0  0  0  0  0  0  # atno 17394 bound_to 11000
  141.0766  133.6772  156.2250 LP  0  0  0  0  0  0  0  0  0  0  0  0  # atno 17395 bound_to 11000

$$$$
