AV-unprocessed.smi:911|AV-procd|sdf|4136|dock2
  -GOLD-   22720 2 43D 1   1.00000     0.00000
 Structure written by MMmdl.
 47 49  0  0  0  0  0  0  0  0  3 V2000
  147.2668  131.4676  155.5171 C   0  0  0  0  0  0  0  0  0  0  0  0
  147.1656  131.8796  154.0217 C   0  0  0  0  0  0  0  0  0  0  0  0
  147.5094  130.5951  153.2162 C   0  0  0  0  0  0  0  0  0  0  0  0
  145.8220  132.5268  153.6301 C   0  0  2  0  0  0  0  0  0  0  0  0
  146.0364  132.9532  152.1605 C   0  0  0  0  0  0  0  0  0  0  0  0
  147.5227  133.3614  152.1439 C   0  0  0  0  0  0  0  0  0  0  0  0
  147.9504  133.1598  153.6244 C   0  0  2  0  0  0  0  0  0  0  0  0
  149.4762  133.0880  153.8064 C   0  0  0  0  0  0  0  0  0  0  0  0
  147.2637  134.2656  154.4886 C   0  0  1  0  0  0  0  0  0  0  0  0
  147.4127  135.6243  153.9662 N   0  0  0  0  0  0  0  0  0  0  0  0
  147.3441  136.7492  154.6936 C   0  0  0  0  0  0  0  0  0  0  0  0
  147.1483  136.7572  155.9098 O   0  0  0  0  0  0  0  0  0  0  0  0
  147.5548  138.0605  153.9240 C   0  0  0  0  0  0  0  0  0  0  0  0
  148.6352  138.8908  154.4821 N   0  0  0  0  0  0  0  0  0  0  0  0
  149.9501  138.3996  154.3581 C   0  0  0  0  0  0  0  0  0  0  0  0
  151.0135  139.0701  154.8433 C   0  0  0  0  0  0  0  0  0  0  0  0
  152.3557  138.5472  154.7143 N   0  3  0  0  0  0  0  0  0  0  0  0
  152.5171  137.4774  154.1360 O   0  0  0  0  0  0  0  0  0  0  0  0
  153.2916  139.1860  155.1859 O   0  5  0  0  0  0  0  0  0  0  0  0
  150.7669  140.3356  155.5072 C   0  0  0  0  0  0  0  0  0  0  0  0
  149.5116  140.8088  155.6317 C   0  0  0  0  0  0  0  0  0  0  0  0
  148.3552  140.0748  155.1081 C   0  0  0  0  0  0  0  0  0  0  0  0
  147.2051  140.4982  155.2253 O   0  0  0  0  0  0  0  0  0  0  0  0
  145.7831  133.8217  154.4711 C   0  0  0  0  0  0  0  0  0  0  0  0
  146.5857  130.6444  155.7348 H   0  0  0  0  0  0  0  0  0  0  0  0
  147.0336  132.2529  156.2324 H   0  0  0  0  0  0  0  0  0  0  0  0
  148.2730  131.1210  155.7547 H   0  0  0  0  0  0  0  0  0  0  0  0
  147.4765  130.7034  152.1346 H   0  0  0  0  0  0  0  0  0  0  0  0
  146.8151  129.7917  153.4639 H   0  0  0  0  0  0  0  0  0  0  0  0
  148.5099  130.2389  153.4630 H   0  0  0  0  0  0  0  0  0  0  0  0
  144.9460  131.8933  153.7728 H   0  0  0  0  0  0  0  0  0  0  0  0
  145.8442  132.1310  151.4708 H   0  0  0  0  0  0  0  0  0  0  0  0
  145.3820  133.7755  151.8691 H   0  0  0  0  0  0  0  0  0  0  0  0
  148.0937  132.7191  151.4731 H   0  0  0  0  0  0  0  0  0  0  0  0
  147.6681  134.3765  151.7756 H   0  0  0  0  0  0  0  0  0  0  0  0
  149.9558  134.0064  153.4681 H   0  0  0  0  0  0  0  0  0  0  0  0
  149.9071  132.2660  153.2351 H   0  0  0  0  0  0  0  0  0  0  0  0
  149.7444  132.9425  154.8528 H   0  0  0  0  0  0  0  0  0  0  0  0
  147.6345  134.2385  155.5142 H   0  0  0  0  0  0  0  0  0  0  0  0
  147.5827  135.7120  152.9748 H   0  0  0  0  0  0  0  0  0  0  0  0
  147.7642  137.8118  152.8828 H   0  0  0  0  0  0  0  0  0  0  0  0
  146.6192  138.6227  153.8986 H   0  0  0  0  0  0  0  0  0  0  0  0
  150.0268  137.4460  153.8556 H   0  0  0  0  0  0  0  0  0  0  0  0
  151.5867  140.9127  155.9095 H   0  0  0  0  0  0  0  0  0  0  0  0
  149.3506  141.7532  156.1304 H   0  0  0  0  0  0  0  0  0  0  0  0
  145.1163  134.5685  154.0373 H   0  0  0  0  0  0  0  0  0  0  0  0
  145.4191  133.6305  155.4807 H   0  0  0  0  0  0  0  0  0  0  0  0
  1  2  1  0  0  0  0
  1 25  1  0  0  0  0
  1 26  1  0  0  0  0
  1 27  1  0  0  0  0
  2  7  1  0  0  0  0
  2  3  1  0  0  0  0
  2  4  1  0  0  0  0
  3 28  1  0  0  0  0
  3 29  1  0  0  0  0
  3 30  1  0  0  0  0
  4 24  1  0  0  0  0
  4  5  1  0  0  0  0
  4 31  1  0  0  0  0
  5  6  1  0  0  0  0
  5 32  1  0  0  0  0
  5 33  1  0  0  0  0
  6  7  1  0  0  0  0
  6 34  1  0  0  0  0
  6 35  1  0  0  0  0
  7  8  1  0  0  0  0
  7  9  1  0  0  0  0
  8 36  1  0  0  0  0
  8 37  1  0  0  0  0
  8 38  1  0  0  0  0
  9 10  1  0  0  0  0
  9 24  1  0  0  0  0
  9 39  1  0  0  0  0
 10 11  1  0  0  0  0
 10 40  1  0  0  0  0
 11 12  2  0  0  0  0
 11 13  1  0  0  0  0
 13 14  1  0  0  0  0
 13 41  1  0  0  0  0
 13 42  1  0  0  0  0
 14 22  1  0  0  0  0
 14 15  1  0  0  0  0
 15 16  2  0  0  0  0
 15 43  1  0  0  0  0
 16 17  1  0  0  0  0
 16 20  1  0  0  0  0
 17 18  2  0  0  0  0
 17 19  1  0  0  0  0
 20 21  2  0  0  0  0
 20 44  1  0  0  0  0
 21 22  1  0  0  0  0
 21 45  1  0  0  0  0
 22 23  2  0  0  0  0
 24 46  1  0  0  0  0
 24 47  1  0  0  0  0
M  CHG  1  17   1
M  CHG  1  19  -1
M  END
> <s_m_source_file>
AV-unprocessed.smi

> <i_m_source_file_index>
911

> <i_lp_mmshare_version>
43012

> <i_f3d_flags>
0

> <s_epik_input>
W0NIM11bQ0BdMTJDKFtDSDNdKShbQ0gzXSlbQ0BIXShbQ0gyXVtDSDJdMSlbQ0gyXVtDQEBIXTJbTkhdQyg9TylbQ0gyXW4zW2NIXWMoW04rXSg9TylbTy1dKVtjSF1bY0hdYzM9Tw==

> <s_epik_cmdline>
J2VwaWtfcHl0aG9uJywgJy1waCcsICc3LjAnLCAnLXRuJywgJzgnLCAnLW1hJywgJzIwMCcsICctbWV0YWxfYmluZGluZycsICctaW1hZScsICc8aW5maWxlLm1hZT4nLCAnLW9tYWUnLCAnPG91dGZpbGUubWFlPic=

> <r_lp_tautomer_probability>
1

> <r_epik_Ionization_Penalty>
2.04092e-08

> <r_epik_Ionization_Penalty_Charging>
8.54191e-11

> <r_epik_Ionization_Penalty_Neutral>
2.03238e-08

> <r_epik_State_Penalty>
-0

> <r_epik_Charging_Adjusted_Penalty>
8.54191e-11

> <i_epik_Tot_Q>
0

> <i_epik_Tot_abs_Q>
2

> <r_epik_Metal_State_Penalty>
-0

> <b_epik_Metal_Only>
0

> <s_lp_Force_Field>
OPLS_2005

> <r_lp_Energy>
67.3082

> <b_lp_Chiralities_Consistent>
1

> <s_lp_Variant>
AV-unprocessed.smi:911-1

> <Gold.Version>
5.8.1

> <Gold.Id.Protein>
6NUR|6NUR_protein|mol2

> <Gold.PLP.Fitness>
42.5128

> <Gold.PLP.PLP>
-33.0954

> <Gold.PLP.part.hbond>
-3.0000

> <Gold.PLP.part.metal>
0.0000

> <Gold.PLP.part.buried>
-3.1916

> <Gold.PLP.part.nonpolar>
-27.2139

> <Gold.PLP.part.repulsive>
0.2108

> <Gold.PLP.ligand.clash>
0.0000

> <Gold.PLP.ligand.torsion>
0.4575

> <Gold.PLP.Chemscore.Hbond>
2.4400

> <Gold.PLP.Chemscore.CHOScore>
0.9962

> <Gold.PLP.Chemscore.Metal>
0.0000

> <Gold.Chemscore.Hbonds>
donor molecule, donor type, donor heavy atom, donor atom, acceptor molecule, acceptor atom, score
      L1  H    10    40       P1  7948  0.77
      P1  H  7997  8009       L1    19  1.00
      P1  H 10752 10765       L1    18  0.66
      L1  C    15    43       P1  7948  1.00

> <Gold.PLP.Chemscore.Internal.Correction>
0.0237

> <Gold.Rescore>
     Score         DG    S(hbond)    S(metal)    S(lipo)     H(rot)  DE(clash)    DE(int)     intcor
     17.84     -18.35       2.47        0.00      73.06       1.53       0.06       0.46       ----

> <Gold.Chemscore.Fitness>
17.8420

> <Gold.Chemscore.DG>
-18.3548

> <Gold.Chemscore.ZeroCoef>
-5.4800

> <Gold.Chemscore.Hbond>
2.4666

> <Gold.Chemscore.Metal>
0.0000

> <Gold.Chemscore.Lipo>
73.0553

> <Gold.Chemscore.Internal_Hbond>
0.0000

> <Gold.Chemscore.DEClash>
0.0553

> <Gold.Chemscore.DEInternal>
0.4575

> <Gold.Chemscore.Rot>
1.5277

> <Gold.Chemscore.Internal.Correction>
   9.000000E+99

> <Gold.Chemscore.Hbonds>
donor molecule, donor type, donor heavy atom, donor atom, acceptor molecule, acceptor atom, score
      L1  H    10    40       P1  7948  0.78
      P1  H  7997  8009       L1    19  0.97
      P1  H 10752 10765       L1    18  0.64

> <Gold.Chemscore.Hbond.Weighted>
-8.2383

> <Gold.Chemscore.Metal.Weighted>
-0.0000

> <Gold.Chemscore.Lipo.Weighted>
-8.5475

> <Gold.Chemscore.Internal_Hbond.Weighted>
0.0000

> <Gold.Chemscore.DEClash.Weighted>
0.0553

> <Gold.Chemscore.DEInternal.Weighted>
0.4575

> <Gold.Chemscore.Rot.Weighted>
3.9110

> <Gold.Chemscore.Internal.Correction.Weighted>
   9.000000E+99

> <Gold.Protein.RotatedTorsions>
[ 6907 6896 6895 6894 ] final -147.98 input  -60.11 | X-H torsion
[ 7974 7965 7964 7962 ] final  -22.74 input  175.53 | X-H torsion
[ 8008 7997 7996 7995 ] final -152.20 input   59.86 | X-H torsion
[ 10167 10162 10161 10158 ] final  138.19 input  -65.29 | X-H torsion
[ 10718 10713 10712 10709 ] final -135.82 input   66.30 | X-H torsion
[ 10763 10752 10751 10750 ] final  137.38 input  -60.55 | X-H torsion
[ 11005 11000 10999 10996 ] final -105.61 input  -57.11 | X-H torsion

> <Gold.Protein.ActiveResidues>
 VAL166  LYS551  ARG553  GLY616  TRP617  ASP618  TYR619  PRO620  LYS621  CYS622 
 ASP623  PHE694  ASN695  SER759  ASP760  ASP761  ALA762  ILE779  LEU786  VAL792 
 PHE793  MET794  SER795  GLU796  ALA797  LYS798  CYS799  TRP800  GLU811  SER814 

> <Gold.Protein.RotatedAtoms>
  151.1633  133.4831  159.2593 H   0  0  0  0  0  0  0  0  0  0  0  0  # atno 6907 bound_to 6896
  151.1432  135.0190  159.8645 H   0  0  0  0  0  0  0  0  0  0  0  0  # atno 6908 bound_to 6896
  152.5462  134.1524  159.8577 H   0  0  0  0  0  0  0  0  0  0  0  0  # atno 6909 bound_to 6896
  146.1658  140.4521  142.8553 H   0  0  0  0  0  0  0  0  0  0  0  0  # atno 7974 bound_to 7965
  155.6514  140.0712  157.2585 H   0  0  0  0  0  0  0  0  0  0  0  0  # atno 8008 bound_to 7997
  154.4162  140.1732  156.1728 H   0  0  0  0  0  0  0  0  0  0  0  0  # atno 8009 bound_to 7997
  155.9774  140.3357  155.6634 H   0  0  0  0  0  0  0  0  0  0  0  0  # atno 8010 bound_to 7997
  139.5119  144.6367  151.5676 H   0  0  0  0  0  0  0  0  0  0  0  0  # atno 10167 bound_to 10162
  156.2703  130.7261  151.1226 H   0  0  0  0  0  0  0  0  0  0  0  0  # atno 10718 bound_to 10713
  153.8721  135.3054  155.3442 H   0  0  0  0  0  0  0  0  0  0  0  0  # atno 10763 bound_to 10752
  154.7801  135.4840  153.9829 H   0  0  0  0  0  0  0  0  0  0  0  0  # atno 10764 bound_to 10752
  153.1400  135.6822  153.9138 H   0  0  0  0  0  0  0  0  0  0  0  0  # atno 10765 bound_to 10752
  141.1045  133.8823  157.1755 H   0  0  0  0  0  0  0  0  0  0  0  0  # atno 11005 bound_to 11000
  144.8090  140.6351  143.6428 LP  0  0  0  0  0  0  0  0  0  0  0  0  # atno 17320 bound_to 7965
  145.4472  139.1528  143.3938 LP  0  0  0  0  0  0  0  0  0  0  0  0  # atno 17321 bound_to 7965
  140.6119  143.9420  150.6460 LP  0  0  0  0  0  0  0  0  0  0  0  0  # atno 17342 bound_to 10162
  140.2665  143.3486  152.1276 LP  0  0  0  0  0  0  0  0  0  0  0  0  # atno 17343 bound_to 10162
  157.7281  131.0634  150.5833 LP  0  0  0  0  0  0  0  0  0  0  0  0  # atno 17370 bound_to 10713
  156.5929  130.4334  149.5929 LP  0  0  0  0  0  0  0  0  0  0  0  0  # atno 17371 bound_to 10713
  139.9909  135.0065  156.9973 LP  0  0  0  0  0  0  0  0  0  0  0  0  # atno 17394 bound_to 11000
  140.4938  134.1166  155.7237 LP  0  0  0  0  0  0  0  0  0  0  0  0  # atno 17395 bound_to 11000

$$$$
