AV-unprocessed.smi:281|AV-procd|sdf|2102|dock2
  -GOLD-   2262021393D 1   1.00000     0.00000
 Structure written by MMmdl.
 55 59  0  0  0  0  0  0  0  0  1 V2000
  152.2477  144.1563  161.6878 C   0  0  0  0  0  0  0  0  0  0  0  0
  152.4061  143.2486  160.4645 C   0  0  1  0  0  0  0  0  0  0  0  0
  152.9761  141.8718  160.8357 C   0  0  0  0  0  0  0  0  0  0  0  0
  153.0322  141.0387  159.6447 N   0  0  0  0  0  0  0  0  0  0  0  0
  153.6971  139.8748  159.7951 C   0  0  0  0  0  0  0  0  0  0  0  0
  153.8087  139.0854  158.6993 N   0  0  0  0  0  0  0  0  0  0  0  0
  154.4559  137.9188  158.7803 C   0  0  0  0  0  0  0  0  0  0  0  0
  155.0496  137.3646  159.8398 N   0  0  0  0  0  0  0  0  0  0  0  0
  154.9282  138.1533  160.9464 C   0  0  0  0  0  0  0  0  0  0  0  0
  154.2720  139.4144  161.0134 C   0  0  0  0  0  0  0  0  0  0  0  0
  154.3464  139.9194  162.3060 N   0  0  0  0  0  0  0  0  0  0  0  0
  155.0157  139.0122  162.9634 C   0  0  0  0  0  0  0  0  0  0  0  0
  155.4007  137.9155  162.2254 N   0  0  0  0  0  0  0  0  0  0  0  0
  156.1524  136.7652  162.7035 C   0  0  0  0  0  0  0  0  0  0  0  0
  155.4624  136.0224  163.8709 C   0  0  1  0  0  0  0  0  0  0  0  0
  155.4718  136.8569  165.0166 O   0  0  0  0  0  0  0  0  0  0  0  0
  154.0226  135.6076  163.5841 C   0  0  0  0  0  0  0  0  0  0  0  0
  153.8688  134.3335  164.4024 C   0  0  0  0  0  0  0  0  0  0  0  0
  155.1219  133.6962  164.2218 O   0  0  0  0  0  0  0  0  0  0  0  0
  156.1438  134.6884  164.2354 C   0  0  0  0  0  0  0  0  0  0  0  0
  151.7318  140.8849  159.0100 C   0  0  0  0  0  0  0  0  0  0  0  0
  151.1043  142.2654  158.6894 C   0  0  2  0  0  0  0  0  0  0  0  0
  149.6623  142.1013  158.2374 C   0  0  0  0  0  0  0  0  0  0  0  0
  149.8071  141.7647  156.7573 C   0  0  0  0  0  0  0  0  0  0  0  0
  151.0032  142.4079  156.3291 O   0  0  0  0  0  0  0  0  0  0  0  0
  151.7228  142.9375  157.4418 C   0  0  1  0  0  0  0  0  0  0  0  0
  151.5459  144.4665  157.3696 C   0  0  0  0  0  0  0  0  0  0  0  0
  151.1194  143.0841  159.8644 O   0  0  0  0  0  0  0  0  0  0  0  0
  153.2056  144.3214  162.1812 H   0  0  0  0  0  0  0  0  0  0  0  0
  151.5652  143.7190  162.4172 H   0  0  0  0  0  0  0  0  0  0  0  0
  151.8495  145.1295  161.4002 H   0  0  0  0  0  0  0  0  0  0  0  0
  153.0847  143.7323  159.7617 H   0  0  0  0  0  0  0  0  0  0  0  0
  153.9750  141.9788  161.2610 H   0  0  0  0  0  0  0  0  0  0  0  0
  152.3473  141.4040  161.5937 H   0  0  0  0  0  0  0  0  0  0  0  0
  154.5050  137.3476  157.8650 H   0  0  0  0  0  0  0  0  0  0  0  0
  155.2453  139.1159  164.0140 H   0  0  0  0  0  0  0  0  0  0  0  0
  156.3037  136.0847  161.8646 H   0  0  0  0  0  0  0  0  0  0  0  0
  157.1450  137.1038  163.0032 H   0  0  0  0  0  0  0  0  0  0  0  0
  155.2932  137.7434  164.7416 H   0  0  0  0  0  0  0  0  0  0  0  0
  153.2846  136.3723  163.8299 H   0  0  0  0  0  0  0  0  0  0  0  0
  153.9048  135.3594  162.5288 H   0  0  0  0  0  0  0  0  0  0  0  0
  153.7173  134.5595  165.4590 H   0  0  0  0  0  0  0  0  0  0  0  0
  153.0448  133.7074  164.0595 H   0  0  0  0  0  0  0  0  0  0  0  0
  156.9157  134.4085  163.5178 H   0  0  0  0  0  0  0  0  0  0  0  0
  156.6128  134.7203  165.2203 H   0  0  0  0  0  0  0  0  0  0  0  0
  151.8315  140.2874  158.1026 H   0  0  0  0  0  0  0  0  0  0  0  0
  151.0783  140.3297  159.6846 H   0  0  0  0  0  0  0  0  0  0  0  0
  149.1117  141.3433  158.7952 H   0  0  0  0  0  0  0  0  0  0  0  0
  149.1233  143.0431  158.3468 H   0  0  0  0  0  0  0  0  0  0  0  0
  149.9194  140.6893  156.6165 H   0  0  0  0  0  0  0  0  0  0  0  0
  148.9481  142.0935  156.1723 H   0  0  0  0  0  0  0  0  0  0  0  0
  152.7824  142.6984  157.3457 H   0  0  0  0  0  0  0  0  0  0  0  0
  152.0735  144.9793  158.1722 H   0  0  0  0  0  0  0  0  0  0  0  0
  150.4969  144.7561  157.4274 H   0  0  0  0  0  0  0  0  0  0  0  0
  151.9394  144.8527  156.4291 H   0  0  0  0  0  0  0  0  0  0  0  0
  1  2  1  0  0  0  0
  1 29  1  0  0  0  0
  1 30  1  0  0  0  0
  1 31  1  0  0  0  0
  2 28  1  0  0  0  0
  2  3  1  0  0  0  0
  2 32  1  0  0  0  0
  3  4  1  0  0  0  0
  3 33  1  0  0  0  0
  3 34  1  0  0  0  0
  4  5  1  0  0  0  0
  4 21  1  0  0  0  0
  5 10  1  0  0  0  0
  5  6  2  0  0  0  0
  6  7  1  0  0  0  0
  7  8  2  0  0  0  0
  7 35  1  0  0  0  0
  8  9  1  0  0  0  0
  9 13  1  0  0  0  0
  9 10  2  0  0  0  0
 10 11  1  0  0  0  0
 11 12  2  0  0  0  0
 12 13  1  0  0  0  0
 12 36  1  0  0  0  0
 13 14  1  0  0  0  0
 14 15  1  0  0  0  0
 14 37  1  0  0  0  0
 14 38  1  0  0  0  0
 15 20  1  0  0  0  0
 15 16  1  0  0  0  0
 15 17  1  0  0  0  0
 16 39  1  0  0  0  0
 17 18  1  0  0  0  0
 17 40  1  0  0  0  0
 17 41  1  0  0  0  0
 18 19  1  0  0  0  0
 18 42  1  0  0  0  0
 18 43  1  0  0  0  0
 19 20  1  0  0  0  0
 20 44  1  0  0  0  0
 20 45  1  0  0  0  0
 21 22  1  0  0  0  0
 21 46  1  0  0  0  0
 21 47  1  0  0  0  0
 22 26  1  0  0  0  0
 22 23  1  0  0  0  0
 22 28  1  0  0  0  0
 23 24  1  0  0  0  0
 23 48  1  0  0  0  0
 23 49  1  0  0  0  0
 24 25  1  0  0  0  0
 24 50  1  0  0  0  0
 24 51  1  0  0  0  0
 25 26  1  0  0  0  0
 26 27  1  0  0  0  0
 26 52  1  0  0  0  0
 27 53  1  0  0  0  0
 27 54  1  0  0  0  0
 27 55  1  0  0  0  0
M  END
> <s_m_source_file>
AV-unprocessed.smi

> <i_m_source_file_index>
281

> <i_lp_mmshare_version>
43012

> <i_f3d_flags>
0

> <s_epik_input>
W0NIM11bQ0BASF0xT1tDSDJdW0NIMl1bQ0BAXTEyW0NIMl1OKFtDSDJdW0NASF0oTzIpW0NIM10pYyhuW2NIXW4zKWMoYzM0KW5bY0hdbjRbQ0gyXVtDQEBdNShbT0hdKVtDSDJdW0NIMl1PW0NIMl01

> <s_epik_cmdline>
J2VwaWtfcHl0aG9uJywgJy1waCcsICc3LjAnLCAnLXRuJywgJzgnLCAnLW1hJywgJzIwMCcsICctbWV0YWxfYmluZGluZycsICctaW1hZScsICc8aW5maWxlLm1hZT4nLCAnLW9tYWUnLCAnPG91dGZpbGUubWFlPic=

> <r_lp_tautomer_probability>
1

> <r_epik_Ionization_Penalty>
0.00571331

> <r_epik_Ionization_Penalty_Charging>
0

> <r_epik_Ionization_Penalty_Neutral>
0.00571331

> <r_epik_State_Penalty>
0.00399586

> <r_epik_Charging_Adjusted_Penalty>
0.00399586

> <i_epik_Tot_Q>
0

> <i_epik_Tot_abs_Q>
0

> <r_epik_Metal_State_Penalty>
-0

> <b_epik_Metal_Only>
0

> <s_lp_Force_Field>
OPLS_2005

> <r_lp_Energy>
56.2514

> <b_lp_Chiralities_Consistent>
1

> <s_lp_Variant>
AV-unprocessed.smi:281-2

> <Gold.Version>
5.8.1

> <Gold.Id.Protein>
6NUR|6NUR_protein|mol2

> <Gold.PLP.Fitness>
42.0658

> <Gold.PLP.PLP>
-39.1924

> <Gold.PLP.part.hbond>
-2.2188

> <Gold.PLP.part.metal>
0.0000

> <Gold.PLP.part.buried>
-4.6738

> <Gold.PLP.part.nonpolar>
-32.2743

> <Gold.PLP.part.repulsive>
0.1719

> <Gold.PLP.ligand.clash>
0.0000

> <Gold.PLP.ligand.torsion>
0.1362

> <Gold.PLP.Chemscore.Hbond>
1.0000

> <Gold.PLP.Chemscore.CHOScore>
0.0000

> <Gold.PLP.Chemscore.Metal>
0.0000

> <Gold.Chemscore.Hbonds>
donor molecule, donor type, donor heavy atom, donor atom, acceptor molecule, acceptor atom, score
      P1  H  7997  8010       L1     6  1.00

> <Gold.PLP.Chemscore.Internal.Correction>
0.1460

> <Gold.Rescore>
     Score         DG    S(hbond)    S(metal)    S(lipo)     H(rot)  DE(clash)    DE(int)     intcor
     12.62     -15.56       0.53        0.00     116.69       2.09       1.37       1.56       ----

> <Gold.Chemscore.Fitness>
12.6205

> <Gold.Chemscore.DG>
-15.5602

> <Gold.Chemscore.ZeroCoef>
-5.4800

> <Gold.Chemscore.Hbond>
0.5343

> <Gold.Chemscore.Metal>
0.0000

> <Gold.Chemscore.Lipo>
116.6905

> <Gold.Chemscore.Internal_Hbond>
0.0000

> <Gold.Chemscore.DEClash>
1.3747

> <Gold.Chemscore.DEInternal>
1.5649

> <Gold.Chemscore.Rot>
2.0927

> <Gold.Chemscore.Internal.Correction>
   9.000000E+99

> <Gold.Chemscore.Hbonds>
donor molecule, donor type, donor heavy atom, donor atom, acceptor molecule, acceptor atom, score
      P1  H  7997  8010       L1     6  0.27

> <Gold.Chemscore.Hbond.Weighted>
-1.7847

> <Gold.Chemscore.Metal.Weighted>
-0.0000

> <Gold.Chemscore.Lipo.Weighted>
-13.6528

> <Gold.Chemscore.Internal_Hbond.Weighted>
0.0000

> <Gold.Chemscore.DEClash.Weighted>
1.3747

> <Gold.Chemscore.DEInternal.Weighted>
1.5649

> <Gold.Chemscore.Rot.Weighted>
5.3573

> <Gold.Chemscore.Internal.Correction.Weighted>
   9.000000E+99

> <Gold.Protein.RotatedTorsions>
[ 6907 6896 6895 6894 ] final -113.87 input  -60.11 | X-H torsion
[ 7974 7965 7964 7962 ] final  -28.68 input  175.53 | X-H torsion
[ 8008 7997 7996 7995 ] final   21.27 input   59.86 | X-H torsion
[ 10167 10162 10161 10158 ] final   16.61 input  -65.29 | X-H torsion
[ 10718 10713 10712 10709 ] final   51.68 input   66.30 | X-H torsion
[ 10763 10752 10751 10750 ] final   50.54 input  -60.55 | X-H torsion
[ 11005 11000 10999 10996 ] final  176.35 input  -57.11 | X-H torsion

> <Gold.Protein.ActiveResidues>
 VAL166  LYS551  ARG553  GLY616  TRP617  ASP618  TYR619  PRO620  LYS621  CYS622 
 ASP623  PHE694  ASN695  SER759  ASP760  ASP761  ALA762  ILE779  LEU786  VAL792 
 PHE793  MET794  SER795  GLU796  ALA797  LYS798  CYS799  TRP800  GLU811  SER814 

> <Gold.Protein.RotatedAtoms>
  150.7861  133.8882  159.3305 H   0  0  0  0  0  0  0  0  0  0  0  0  # atno 6907 bound_to 6896
  151.6732  135.0971  160.0211 H   0  0  0  0  0  0  0  0  0  0  0  0  # atno 6908 bound_to 6896
  152.3925  133.6660  159.6284 H   0  0  0  0  0  0  0  0  0  0  0  0  # atno 6909 bound_to 6896
  146.1270  140.5315  142.8710 H   0  0  0  0  0  0  0  0  0  0  0  0  # atno 7974 bound_to 7965
  154.9481  140.3062  155.5088 H   0  0  0  0  0  0  0  0  0  0  0  0  # atno 8008 bound_to 7997
  156.2990  140.2324  156.4494 H   0  0  0  0  0  0  0  0  0  0  0  0  # atno 8009 bound_to 7997
  154.8081  140.0430  157.1311 H   0  0  0  0  0  0  0  0  0  0  0  0  # atno 8010 bound_to 7997
  140.5785  143.9026  150.6770 H   0  0  0  0  0  0  0  0  0  0  0  0  # atno 10167 bound_to 10162
  157.5003  130.8433  149.8309 H   0  0  0  0  0  0  0  0  0  0  0  0  # atno 10718 bound_to 10713
  152.9784  135.5875  154.4268 H   0  0  0  0  0  0  0  0  0  0  0  0  # atno 10763 bound_to 10752
  154.3886  135.2767  155.2170 H   0  0  0  0  0  0  0  0  0  0  0  0  # atno 10764 bound_to 10752
  154.4052  135.6094  153.5975 H   0  0  0  0  0  0  0  0  0  0  0  0  # atno 10765 bound_to 10752
  140.3722  134.7020  157.4399 H   0  0  0  0  0  0  0  0  0  0  0  0  # atno 11005 bound_to 11000
  144.7653  140.5515  143.6707 LP  0  0  0  0  0  0  0  0  0  0  0  0  # atno 17320 bound_to 7965
  145.5343  139.1475  143.3482 LP  0  0  0  0  0  0  0  0  0  0  0  0  # atno 17321 bound_to 7965
  140.2519  143.3587  152.1398 LP  0  0  0  0  0  0  0  0  0  0  0  0  # atno 17342 bound_to 10162
  139.5156  144.6966  151.5614 LP  0  0  0  0  0  0  0  0  0  0  0  0  # atno 17343 bound_to 10162
  156.0225  130.3790  150.1919 LP  0  0  0  0  0  0  0  0  0  0  0  0  # atno 17370 bound_to 10713
  157.0108  130.9950  151.3366 LP  0  0  0  0  0  0  0  0  0  0  0  0  # atno 17371 bound_to 10713
  140.0543  134.6086  155.8824 LP  0  0  0  0  0  0  0  0  0  0  0  0  # atno 17394 bound_to 11000
  141.1951  133.6585  156.5626 LP  0  0  0  0  0  0  0  0  0  0  0  0  # atno 17395 bound_to 11000

$$$$
