AV-unprocessed.smi:104|AV-procd|sdf|999|dock3
  -GOLD-   2262017583D 1   1.00000     0.00000
 Structure written by MMmdl.
 47 49  0  0  0  0  0  0  0  0  1 V2000
  147.0699  134.7690  161.7290 C   0  0  0  0  0  0  0  0  0  0  0  0
  147.9002  135.9853  161.3405 C   0  0  0  0  0  0  0  0  0  0  0  0
  148.3260  136.7713  162.1873 O   0  0  0  0  0  0  0  0  0  0  0  0
  148.0907  136.0726  160.0158 O   0  0  0  0  0  0  0  0  0  0  0  0
  148.9187  137.0985  159.4944 C   0  0  0  0  0  0  0  0  0  0  0  0
  148.3545  137.5731  158.1508 C   0  0  2  0  0  0  0  0  0  0  0  0
  147.9127  136.4573  157.3936 O   0  0  0  0  0  0  0  0  0  0  0  0
  147.9272  136.7768  156.0388 C   0  0  2  0  0  0  0  0  0  0  0  0
  148.3983  135.5641  155.2948 N   0  0  0  0  0  0  0  0  0  0  0  0
  149.6267  134.9445  155.3310 C   0  0  0  0  0  0  0  0  0  0  0  0
  151.0485  135.5634  156.4362 Br  0  0  0  0  0  0  0  0  0  0  0  0
  149.7844  133.8902  154.5802 N   0  0  0  0  0  0  0  0  0  0  0  0
  148.5431  133.7609  153.9694 C   0  0  0  0  0  0  0  0  0  0  0  0
  147.9937  132.8430  153.0393 C   0  0  0  0  0  0  0  0  0  0  0  0
  148.6874  131.8165  152.5277 N   0  0  0  0  0  0  0  0  0  0  0  0
  146.7080  133.0088  152.6494 N   0  0  0  0  0  0  0  0  0  0  0  0
  145.9937  134.0244  153.1455 C   0  0  0  0  0  0  0  0  0  0  0  0
  146.3697  134.9629  154.0182 N   0  0  0  0  0  0  0  0  0  0  0  0
  147.6677  134.7968  154.4089 C   0  0  0  0  0  0  0  0  0  0  0  0
  148.8566  137.9947  155.8478 C   0  0  2  0  0  0  0  0  0  0  0  0
  149.9082  137.7402  154.9205 O   0  0  0  0  0  0  0  0  0  0  0  0
  150.8435  138.6724  154.6797 C   0  0  0  0  0  0  0  0  0  0  0  0
  152.1149  138.0766  154.0911 C   0  0  0  0  0  0  0  0  0  0  0  0
  150.7374  139.8797  154.8946 O   0  0  0  0  0  0  0  0  0  0  0  0
  149.4030  138.2258  157.2502 C   0  0  1  0  0  0  0  0  0  0  0  0
  149.4898  139.6241  157.4949 O   0  0  0  0  0  0  0  0  0  0  0  0
  150.5275  140.1345  158.1784 C   0  0  0  0  0  0  0  0  0  0  0  0
  150.4392  141.6482  158.3165 C   0  0  0  0  0  0  0  0  0  0  0  0
  151.4652  139.4988  158.6598 O   0  0  0  0  0  0  0  0  0  0  0  0
  147.6523  133.8568  161.5983 H   0  0  0  0  0  0  0  0  0  0  0  0
  146.1773  134.7033  161.1066 H   0  0  0  0  0  0  0  0  0  0  0  0
  146.7583  134.8348  162.7715 H   0  0  0  0  0  0  0  0  0  0  0  0
  148.9360  137.9269  160.2037 H   0  0  0  0  0  0  0  0  0  0  0  0
  149.9446  136.7470  159.3749 H   0  0  0  0  0  0  0  0  0  0  0  0
  147.5140  138.2548  158.2953 H   0  0  0  0  0  0  0  0  0  0  0  0
  146.9126  136.9602  155.6870 H   0  0  0  0  0  0  0  0  0  0  0  0
  149.6480  131.6706  152.8033 H   0  0  0  0  0  0  0  0  0  0  0  0
  148.2506  131.1938  151.8636 H   0  0  0  0  0  0  0  0  0  0  0  0
  144.9754  134.0963  152.7925 H   0  0  0  0  0  0  0  0  0  0  0  0
  148.2299  138.8286  155.5274 H   0  0  0  0  0  0  0  0  0  0  0  0
  151.9196  137.6769  153.0958 H   0  0  0  0  0  0  0  0  0  0  0  0
  152.4825  137.2683  154.7235 H   0  0  0  0  0  0  0  0  0  0  0  0
  152.8937  138.8356  154.0136 H   0  0  0  0  0  0  0  0  0  0  0  0
  150.3597  137.7104  157.3546 H   0  0  0  0  0  0  0  0  0  0  0  0
  149.5817  141.9222  158.9309 H   0  0  0  0  0  0  0  0  0  0  0  0
  150.3273  142.1123  157.3366 H   0  0  0  0  0  0  0  0  0  0  0  0
  151.3409  142.0434  158.7847 H   0  0  0  0  0  0  0  0  0  0  0  0
  1  2  1  0  0  0  0
  1 30  1  0  0  0  0
  1 31  1  0  0  0  0
  1 32  1  0  0  0  0
  2  3  2  0  0  0  0
  2  4  1  0  0  0  0
  4  5  1  0  0  0  0
  5  6  1  0  0  0  0
  5 33  1  0  0  0  0
  5 34  1  0  0  0  0
  6 25  1  0  0  0  0
  6  7  1  0  0  0  0
  6 35  1  0  0  0  0
  7  8  1  0  0  0  0
  8  9  1  0  0  0  0
  8 20  1  0  0  0  0
  8 36  1  0  0  0  0
  9 19  1  0  0  0  0
  9 10  1  0  0  0  0
 10 11  1  0  0  0  0
 10 12  2  0  0  0  0
 12 13  1  0  0  0  0
 13 19  2  0  0  0  0
 13 14  1  0  0  0  0
 14 15  1  0  0  0  0
 14 16  2  0  0  0  0
 15 37  1  0  0  0  0
 15 38  1  0  0  0  0
 16 17  1  0  0  0  0
 17 18  2  0  0  0  0
 17 39  1  0  0  0  0
 18 19  1  0  0  0  0
 20 21  1  0  0  0  0
 20 25  1  0  0  0  0
 20 40  1  0  0  0  0
 21 22  1  0  0  0  0
 22 23  1  0  0  0  0
 22 24  2  0  0  0  0
 23 41  1  0  0  0  0
 23 42  1  0  0  0  0
 23 43  1  0  0  0  0
 25 26  1  0  0  0  0
 25 44  1  0  0  0  0
 26 27  1  0  0  0  0
 27 28  1  0  0  0  0
 27 29  2  0  0  0  0
 28 45  1  0  0  0  0
 28 46  1  0  0  0  0
 28 47  1  0  0  0  0
M  END
> <s_m_source_file>
AV-unprocessed.smi

> <i_m_source_file_index>
104

> <i_lp_mmshare_version>
43012

> <i_f3d_flags>
0

> <s_epik_input>
W0NIM11DKD1PKU9bQ0gyXVtDQEBIXTFPW0NASF0oW0NAQEhdKE9DKD1PKVtDSDNdKVtDQEhdMU9DKD1PKVtDSDNdKW4oYyhCciluMiljKGMyMyluW2NIXW5jM1tOSDJd

> <s_epik_cmdline>
J2VwaWtfcHl0aG9uJywgJy1waCcsICc3LjAnLCAnLXRuJywgJzgnLCAnLW1hJywgJzIwMCcsICctbWV0YWxfYmluZGluZycsICctaW1hZScsICc8aW5maWxlLm1hZT4nLCAnLW9tYWUnLCAnPG91dGZpbGUubWFlPic=

> <r_lp_tautomer_probability>
1

> <r_epik_Ionization_Penalty>
7.36622e-05

> <r_epik_Ionization_Penalty_Charging>
0

> <r_epik_Ionization_Penalty_Neutral>
7.36622e-05

> <r_epik_State_Penalty>
-0

> <r_epik_Charging_Adjusted_Penalty>
0

> <i_epik_Tot_Q>
0

> <i_epik_Tot_abs_Q>
0

> <r_epik_Metal_State_Penalty>
-0

> <b_epik_Metal_Only>
0

> <s_epik_Chemistry_Notes>
This compound has an ester and may undergo hydrolysis at high or low pH. This compound contains an acetal/aminal-like group ( X-CH(R)-Y where X, Y are N, S, or O) that may be acid/base labile, releasing an aldehyde.

> <s_lp_Force_Field>
OPLS_2005

> <r_lp_Energy>
16.6292

> <b_lp_Chiralities_Consistent>
1

> <s_lp_Variant>
AV-unprocessed.smi:104-7

> <Gold.Version>
5.8.1

> <Gold.Id.Protein>
6NUR|6NUR_protein|mol2

> <Gold.PLP.Fitness>
36.7877

> <Gold.PLP.PLP>
-32.3637

> <Gold.PLP.part.hbond>
-3.0000

> <Gold.PLP.part.metal>
0.0000

> <Gold.PLP.part.buried>
-5.9766

> <Gold.PLP.part.nonpolar>
-23.0678

> <Gold.PLP.part.repulsive>
0.5536

> <Gold.PLP.ligand.clash>
0.0000

> <Gold.PLP.ligand.torsion>
1.4290

> <Gold.PLP.Chemscore.Hbond>
2.3840

> <Gold.PLP.Chemscore.CHOScore>
0.0000

> <Gold.PLP.Chemscore.Metal>
0.0000

> <Gold.Chemscore.Hbonds>
donor molecule, donor type, donor heavy atom, donor atom, acceptor molecule, acceptor atom, score
      L1  H    15    38       P1 10747  0.43
      P1  H  6931  6943       L1     3  1.00
      P1  H  7989  7998       L1    24  1.00

> <Gold.PLP.Chemscore.Internal.Correction>
0.1299

> <Gold.Rescore>
     Score         DG    S(hbond)    S(metal)    S(lipo)     H(rot)  DE(clash)    DE(int)     intcor
      3.94      -7.46       2.54        0.00      38.57       4.31       0.14       3.38       ----

> <Gold.Chemscore.Fitness>
3.9418

> <Gold.Chemscore.DG>
-7.4636

> <Gold.Chemscore.ZeroCoef>
-5.4800

> <Gold.Chemscore.Hbond>
2.5440

> <Gold.Chemscore.Metal>
0.0000

> <Gold.Chemscore.Lipo>
38.5696

> <Gold.Chemscore.Internal_Hbond>
0.0000

> <Gold.Chemscore.DEClash>
0.1402

> <Gold.Chemscore.DEInternal>
3.3816

> <Gold.Chemscore.Rot>
4.3070

> <Gold.Chemscore.Internal.Correction>
   9.000000E+99

> <Gold.Chemscore.Hbonds>
donor molecule, donor type, donor heavy atom, donor atom, acceptor molecule, acceptor atom, score
      L1  H    15    38       P1 10747  0.42
      P1  H  6931  6943       L1     3  1.00
      P1  H  7989  7998       L1    24  0.74

> <Gold.Chemscore.Hbond.Weighted>
-8.4969

> <Gold.Chemscore.Metal.Weighted>
-0.0000

> <Gold.Chemscore.Lipo.Weighted>
-4.5126

> <Gold.Chemscore.Internal_Hbond.Weighted>
0.0000

> <Gold.Chemscore.DEClash.Weighted>
0.1402

> <Gold.Chemscore.DEInternal.Weighted>
3.3816

> <Gold.Chemscore.Rot.Weighted>
11.0259

> <Gold.Chemscore.Internal.Correction.Weighted>
   9.000000E+99

> <Gold.Protein.RotatedTorsions>
[ 6907 6896 6895 6894 ] final  100.51 input  -60.11 | X-H torsion
[ 7974 7965 7964 7962 ] final  -84.07 input  175.53 | X-H torsion
[ 8008 7997 7996 7995 ] final  116.62 input   59.86 | X-H torsion
[ 10167 10162 10161 10158 ] final -108.45 input  -65.29 | X-H torsion
[ 10718 10713 10712 10709 ] final -127.33 input   66.30 | X-H torsion
[ 10763 10752 10751 10750 ] final  -28.27 input  -60.55 | X-H torsion
[ 11005 11000 10999 10996 ] final  -30.88 input  -57.11 | X-H torsion

> <Gold.Protein.ActiveResidues>
 VAL166  LYS551  ARG553  GLY616  TRP617  ASP618  TYR619  PRO620  LYS621  CYS622 
 ASP623  PHE694  ASN695  SER759  ASP760  ASP761  ALA762  ILE779  LEU786  VAL792 
 PHE793  MET794  SER795  GLU796  ALA797  LYS798  CYS799  TRP800  GLU811  SER814 

> <Gold.Protein.RotatedAtoms>
  152.5370  134.0266  159.8005 H   0  0  0  0  0  0  0  0  0  0  0  0  # atno 6907 bound_to 6896
  151.0444  133.5671  159.2655 H   0  0  0  0  0  0  0  0  0  0  0  0  # atno 6908 bound_to 6896
  151.2628  135.0667  159.9158 H   0  0  0  0  0  0  0  0  0  0  0  0  # atno 6909 bound_to 6896
  145.5116  140.9539  143.1704 H   0  0  0  0  0  0  0  0  0  0  0  0  # atno 7974 bound_to 7965
  156.2449  140.2913  156.0551 H   0  0  0  0  0  0  0  0  0  0  0  0  # atno 8008 bound_to 7997
  155.1838  140.0405  157.2904 H   0  0  0  0  0  0  0  0  0  0  0  0  # atno 8009 bound_to 7997
  154.6242  140.2483  155.7520 H   0  0  0  0  0  0  0  0  0  0  0  0  # atno 8010 bound_to 7997
  140.1660  143.4081  152.1390 H   0  0  0  0  0  0  0  0  0  0  0  0  # atno 10167 bound_to 10162
  156.1847  130.6755  151.0349 H   0  0  0  0  0  0  0  0  0  0  0  0  # atno 10718 bound_to 10713
  153.7456  135.6929  153.4957 H   0  0  0  0  0  0  0  0  0  0  0  0  # atno 10763 bound_to 10752
  153.2039  135.4427  155.0298 H   0  0  0  0  0  0  0  0  0  0  0  0  # atno 10764 bound_to 10752
  154.8205  135.3420  154.6979 H   0  0  0  0  0  0  0  0  0  0  0  0  # atno 10765 bound_to 10752
  140.9421  133.7272  156.1091 H   0  0  0  0  0  0  0  0  0  0  0  0  # atno 11005 bound_to 11000
  144.7724  139.6704  143.7189 LP  0  0  0  0  0  0  0  0  0  0  0  0  # atno 17320 bound_to 7965
  146.2163  139.5555  142.9648 LP  0  0  0  0  0  0  0  0  0  0  0  0  # atno 17321 bound_to 7965
  139.5359  144.7209  151.4895 LP  0  0  0  0  0  0  0  0  0  0  0  0  # atno 17342 bound_to 10162
  140.6612  143.8494  150.6890 LP  0  0  0  0  0  0  0  0  0  0  0  0  # atno 17343 bound_to 10162
  157.6891  131.0816  150.7159 LP  0  0  0  0  0  0  0  0  0  0  0  0  # atno 17370 bound_to 10713
  156.7216  130.4682  149.5521 LP  0  0  0  0  0  0  0  0  0  0  0  0  # atno 17371 bound_to 10713
  140.7720  134.3822  157.5505 LP  0  0  0  0  0  0  0  0  0  0  0  0  # atno 17394 bound_to 11000
  139.8823  134.9028  156.2841 LP  0  0  0  0  0  0  0  0  0  0  0  0  # atno 17395 bound_to 11000

$$$$
