AV-unprocessed.smi:2896|AV-procd|sdf|11139|dock8
  -GOLD-   2272016 13D 1   1.00000     0.00000
 Structure written by MMmdl.
 49 50  0  0  0  0  0  0  0  0  1 V2000
  149.2189  133.5904  154.6058 C   0  0  0  0  0  0  0  0  0  0  0  0
  149.3286  135.0984  154.9073 C   0  0  1  0  0  0  0  0  0  0  0  0
  147.9646  135.7826  155.1567 C   0  0  0  0  0  0  0  0  0  0  0  0
  147.1897  135.9443  153.9314 N   0  0  0  0  0  0  0  0  0  0  0  0
  145.8666  136.1719  153.8714 C   0  0  0  0  0  0  0  0  0  0  0  0
  145.1693  136.2399  154.8851 O   0  0  0  0  0  0  0  0  0  0  0  0
  145.2276  136.3261  152.4671 C   0  0  0  0  0  0  0  0  0  0  0  0
  143.8119  136.9445  152.6137 C   0  0  0  0  0  0  0  0  0  0  0  0
  146.0368  137.3190  151.5919 C   0  0  0  0  0  0  0  0  0  0  0  0
  145.1970  134.9273  151.8173 C   0  0  0  0  0  0  0  0  0  0  0  0
  143.9910  134.3002  151.4163 C   0  0  0  0  0  0  0  0  0  0  0  0
  144.0347  133.0181  150.8364 C   0  0  0  0  0  0  0  0  0  0  0  0
  145.2857  132.3951  150.6770 C   0  0  0  0  0  0  0  0  0  0  0  0
  146.4461  132.9669  151.0558 N   0  0  0  0  0  0  0  0  0  0  0  0
  146.3938  134.1964  151.6101 C   0  0  0  0  0  0  0  0  0  0  0  0
  150.3859  135.4331  155.9887 C   0  0  0  0  0  0  0  0  0  0  0  0
  150.7140  136.8457  156.2079 N   0  0  0  0  0  0  0  0  0  0  0  0
  151.1488  137.4701  154.9620 C   0  0  0  0  0  0  0  0  0  0  0  0
  151.4938  138.9572  155.1476 C   0  0  0  0  0  0  0  0  0  0  0  0
  152.4996  139.0878  156.1458 O   0  0  0  0  0  0  0  0  0  0  0  0
  152.1004  138.5376  157.3961 C   0  0  0  0  0  0  0  0  0  0  0  0
  151.7443  137.0502  157.2231 C   0  0  0  0  0  0  0  0  0  0  0  0
  148.7124  133.0401  155.3959 H   0  0  0  0  0  0  0  0  0  0  0  0
  150.2046  133.1453  154.4691 H   0  0  0  0  0  0  0  0  0  0  0  0
  148.6606  133.4148  153.6859 H   0  0  0  0  0  0  0  0  0  0  0  0
  149.7295  135.5321  153.9900 H   0  0  0  0  0  0  0  0  0  0  0  0
  147.3634  135.1904  155.8462 H   0  0  0  0  0  0  0  0  0  0  0  0
  148.1086  136.7534  155.6343 H   0  0  0  0  0  0  0  0  0  0  0  0
  147.6988  135.8903  153.0612 H   0  0  0  0  0  0  0  0  0  0  0  0
  143.1576  136.3607  153.2622 H   0  0  0  0  0  0  0  0  0  0  0  0
  143.3177  137.0345  151.6457 H   0  0  0  0  0  0  0  0  0  0  0  0
  143.8614  137.9468  153.0414 H   0  0  0  0  0  0  0  0  0  0  0  0
  147.0718  137.0177  151.4331 H   0  0  0  0  0  0  0  0  0  0  0  0
  146.0632  138.3125  152.0421 H   0  0  0  0  0  0  0  0  0  0  0  0
  145.5841  137.4241  150.6054 H   0  0  0  0  0  0  0  0  0  0  0  0
  143.0295  134.7725  151.5406 H   0  0  0  0  0  0  0  0  0  0  0  0
  143.1279  132.5225  150.5227 H   0  0  0  0  0  0  0  0  0  0  0  0
  145.3558  131.4116  150.2365 H   0  0  0  0  0  0  0  0  0  0  0  0
  147.3502  134.5993  151.9062 H   0  0  0  0  0  0  0  0  0  0  0  0
  150.1122  134.9628  156.9343 H   0  0  0  0  0  0  0  0  0  0  0  0
  151.3025  134.9291  155.6781 H   0  0  0  0  0  0  0  0  0  0  0  0
  152.0218  136.9453  154.5704 H   0  0  0  0  0  0  0  0  0  0  0  0
  150.3662  137.3768  154.2082 H   0  0  0  0  0  0  0  0  0  0  0  0
  151.8613  139.3814  154.2131 H   0  0  0  0  0  0  0  0  0  0  0  0
  150.6087  139.5278  155.4334 H   0  0  0  0  0  0  0  0  0  0  0  0
  152.9144  138.6518  158.1119 H   0  0  0  0  0  0  0  0  0  0  0  0
  151.2482  139.0941  157.7893 H   0  0  0  0  0  0  0  0  0  0  0  0
  151.4031  136.6767  158.1852 H   0  0  0  0  0  0  0  0  0  0  0  0
  152.6419  136.4880  156.9613 H   0  0  0  0  0  0  0  0  0  0  0  0
  1  2  1  0  0  0  0
  1 23  1  0  0  0  0
  1 24  1  0  0  0  0
  1 25  1  0  0  0  0
  2  3  1  0  0  0  0
  2 16  1  0  0  0  0
  2 26  1  0  0  0  0
  3  4  1  0  0  0  0
  3 27  1  0  0  0  0
  3 28  1  0  0  0  0
  4  5  1  0  0  0  0
  4 29  1  0  0  0  0
  5  6  2  0  0  0  0
  5  7  1  0  0  0  0
  7  8  1  0  0  0  0
  7  9  1  0  0  0  0
  7 10  1  0  0  0  0
  8 30  1  0  0  0  0
  8 31  1  0  0  0  0
  8 32  1  0  0  0  0
  9 33  1  0  0  0  0
  9 34  1  0  0  0  0
  9 35  1  0  0  0  0
 10 15  1  0  0  0  0
 10 11  2  0  0  0  0
 11 12  1  0  0  0  0
 11 36  1  0  0  0  0
 12 13  2  0  0  0  0
 12 37  1  0  0  0  0
 13 14  1  0  0  0  0
 13 38  1  0  0  0  0
 14 15  2  0  0  0  0
 15 39  1  0  0  0  0
 16 17  1  0  0  0  0
 16 40  1  0  0  0  0
 16 41  1  0  0  0  0
 17 22  1  0  0  0  0
 17 18  1  0  0  0  0
 18 19  1  0  0  0  0
 18 42  1  0  0  0  0
 18 43  1  0  0  0  0
 19 20  1  0  0  0  0
 19 44  1  0  0  0  0
 19 45  1  0  0  0  0
 20 21  1  0  0  0  0
 21 22  1  0  0  0  0
 21 46  1  0  0  0  0
 21 47  1  0  0  0  0
 22 48  1  0  0  0  0
 22 49  1  0  0  0  0
M  END
> <s_m_source_file>
AV-unprocessed.smi

> <i_m_source_file_index>
2896

> <i_lp_mmshare_version>
43012

> <i_f3d_flags>
0

> <s_epik_input>
W0NIMl0xW0NIMl1PW0NIMl1bQ0gyXU4xW0NIMl1bQ0BIXShbQ0gzXSlbQ0gyXVtOSF1DKD1PKUMoW0NIM10pKFtDSDNdKWMyW2NIXVtjSF1bY0hdbltjSF0y

> <s_epik_cmdline>
J2VwaWtfcHl0aG9uJywgJy1waCcsICc3LjAnLCAnLXRuJywgJzgnLCAnLW1hJywgJzIwMCcsICctbWV0YWxfYmluZGluZycsICctaW1hZScsICc8aW5maWxlLm1hZT4nLCAnLW9tYWUnLCAnPG91dGZpbGUubWFlPic=

> <r_epik_Ionization_Penalty>
0.458454

> <r_epik_Ionization_Penalty_Charging>
0

> <r_epik_Ionization_Penalty_Neutral>
0.458454

> <r_epik_State_Penalty>
0.453234

> <r_epik_Charging_Adjusted_Penalty>
0.453234

> <i_epik_Tot_Q>
0

> <i_epik_Tot_abs_Q>
0

> <r_epik_Metal_State_Penalty>
0.448418

> <b_epik_Metal_Only>
0

> <s_lp_Force_Field>
OPLS_2005

> <r_lp_Energy>
37.0423

> <b_lp_Chiralities_Consistent>
1

> <s_lp_Variant>
AV-unprocessed.smi:2896-4

> <Gold.Version>
5.8.1

> <Gold.Id.Protein>
6NUR|6NUR_protein|mol2

> <Gold.PLP.Fitness>
40.9541

> <Gold.PLP.PLP>
-33.2120

> <Gold.PLP.part.hbond>
-2.0000

> <Gold.PLP.part.metal>
0.0000

> <Gold.PLP.part.buried>
-1.4389

> <Gold.PLP.part.nonpolar>
-29.7120

> <Gold.PLP.part.repulsive>
0.2581

> <Gold.PLP.ligand.clash>
0.0000

> <Gold.PLP.ligand.torsion>
0.7946

> <Gold.PLP.Chemscore.Hbond>
2.0000

> <Gold.PLP.Chemscore.CHOScore>
1.0000

> <Gold.PLP.Chemscore.Metal>
0.0000

> <Gold.Chemscore.Hbonds>
donor molecule, donor type, donor heavy atom, donor atom, acceptor molecule, acceptor atom, score
      L1  H     4    29       P1  7948  1.00
      P1  H  7997  8008       L1    20  0.80
      L1  C    15    39       P1  7948  1.00

> <Gold.PLP.Chemscore.Internal.Correction>
0.3314

> <Gold.Rescore>
     Score         DG    S(hbond)    S(metal)    S(lipo)     H(rot)  DE(clash)    DE(int)     intcor
     16.48     -18.08       1.95        0.00      88.77       1.68       0.39       1.21       ----

> <Gold.Chemscore.Fitness>
16.4775

> <Gold.Chemscore.DG>
-18.0807

> <Gold.Chemscore.ZeroCoef>
-5.4800

> <Gold.Chemscore.Hbond>
1.9531

> <Gold.Chemscore.Metal>
0.0000

> <Gold.Chemscore.Lipo>
88.7718

> <Gold.Chemscore.Internal_Hbond>
0.0000

> <Gold.Chemscore.DEClash>
0.3930

> <Gold.Chemscore.DEInternal>
1.2103

> <Gold.Chemscore.Rot>
1.6832

> <Gold.Chemscore.Internal.Correction>
   9.000000E+99

> <Gold.Chemscore.Hbonds>
donor molecule, donor type, donor heavy atom, donor atom, acceptor molecule, acceptor atom, score
      L1  H     4    29       P1  7948  0.99
      P1  H  7997  8008       L1    20  0.58

> <Gold.Chemscore.Hbond.Weighted>
-6.5234

> <Gold.Chemscore.Metal.Weighted>
-0.0000

> <Gold.Chemscore.Lipo.Weighted>
-10.3863

> <Gold.Chemscore.Internal_Hbond.Weighted>
0.0000

> <Gold.Chemscore.DEClash.Weighted>
0.3930

> <Gold.Chemscore.DEInternal.Weighted>
1.2103

> <Gold.Chemscore.Rot.Weighted>
4.3090

> <Gold.Chemscore.Internal.Correction.Weighted>
   9.000000E+99

> <Gold.Protein.RotatedTorsions>
[ 6907 6896 6895 6894 ] final -151.28 input  -60.11 | X-H torsion
[ 7974 7965 7964 7962 ] final -104.22 input  175.53 | X-H torsion
[ 8008 7997 7996 7995 ] final  -43.68 input   59.86 | X-H torsion
[ 10167 10162 10161 10158 ] final   83.64 input  -65.29 | X-H torsion
[ 10718 10713 10712 10709 ] final -120.66 input   66.30 | X-H torsion
[ 10763 10752 10751 10750 ] final  -52.13 input  -60.55 | X-H torsion
[ 11005 11000 10999 10996 ] final   70.71 input  -57.11 | X-H torsion

> <Gold.Protein.ActiveResidues>
 VAL166  LYS551  ARG553  GLY616  TRP617  ASP618  TYR619  PRO620  LYS621  CYS622 
 ASP623  PHE694  ASN695  SER759  ASP760  ASP761  ALA762  ILE779  LEU786  VAL792 
 PHE793  MET794  SER795  GLU796  ALA797  LYS798  CYS799  TRP800  GLU811  SER814 

> <Gold.Protein.RotatedAtoms>
  151.2108  133.4557  159.2597 H   0  0  0  0  0  0  0  0  0  0  0  0  # atno 6907 bound_to 6896
  151.0978  134.9954  159.8444 H   0  0  0  0  0  0  0  0  0  0  0  0  # atno 6908 bound_to 6896
  152.5440  134.2037  159.8775 H   0  0  0  0  0  0  0  0  0  0  0  0  # atno 6909 bound_to 6896
  145.2459  140.9221  143.3123 H   0  0  0  0  0  0  0  0  0  0  0  0  # atno 7974 bound_to 7965
  154.3997  140.1441  156.3560 H   0  0  0  0  0  0  0  0  0  0  0  0  # atno 8008 bound_to 7997
  155.8225  140.3469  155.5502 H   0  0  0  0  0  0  0  0  0  0  0  0  # atno 8009 bound_to 7997
  155.8273  140.0907  157.1804 H   0  0  0  0  0  0  0  0  0  0  0  0  # atno 8010 bound_to 7997
  139.9163  144.6241  150.8486 H   0  0  0  0  0  0  0  0  0  0  0  0  # atno 10167 bound_to 10162
  156.1275  130.6370  150.9567 H   0  0  0  0  0  0  0  0  0  0  0  0  # atno 10718 bound_to 10713
  154.1378  135.6510  153.4935 H   0  0  0  0  0  0  0  0  0  0  0  0  # atno 10763 bound_to 10752
  153.0175  135.5308  154.6936 H   0  0  0  0  0  0  0  0  0  0  0  0  # atno 10764 bound_to 10752
  154.6189  135.2962  155.0319 H   0  0  0  0  0  0  0  0  0  0  0  0  # atno 10765 bound_to 10752
  139.9583  134.7106  156.0704 H   0  0  0  0  0  0  0  0  0  0  0  0  # atno 11005 bound_to 11000
  144.9546  139.4045  143.6385 LP  0  0  0  0  0  0  0  0  0  0  0  0  # atno 17320 bound_to 7965
  146.3316  139.8570  142.8863 LP  0  0  0  0  0  0  0  0  0  0  0  0  # atno 17321 bound_to 7965
  140.7673  143.3329  151.2371 LP  0  0  0  0  0  0  0  0  0  0  0  0  # atno 17342 bound_to 10162
  139.6900  143.9709  152.2854 LP  0  0  0  0  0  0  0  0  0  0  0  0  # atno 17343 bound_to 10162
  157.6456  131.0904  150.8161 LP  0  0  0  0  0  0  0  0  0  0  0  0  # atno 17370 bound_to 10713
  156.8250  130.4996  149.5338 LP  0  0  0  0  0  0  0  0  0  0  0  0  # atno 17371 bound_to 10713
  141.1257  133.6600  156.3330 LP  0  0  0  0  0  0  0  0  0  0  0  0  # atno 17394 bound_to 11000
  140.5559  134.5982  157.5420 LP  0  0  0  0  0  0  0  0  0  0  0  0  # atno 17395 bound_to 11000

$$$$
