AV-unprocessed.smi:1499|AV-procd|sdf|6062|dock2
  -GOLD-   22720 6183D 1   1.00000     0.00000
 Structure written by MMmdl.
 40 41  0  0  0  0  0  0  0  0  1 V2000
  150.6363  141.0146  157.6300 C   0  0  0  0  0  0  0  0  0  0  0  0
  150.7944  141.5058  156.1829 C   0  0  0  0  0  0  0  0  0  0  0  0
  151.0823  140.4134  155.2546 N   0  0  0  0  0  0  0  0  0  0  0  0
  152.2351  139.6558  155.7523 C   0  0  0  0  0  0  0  0  0  0  0  0
  152.5759  138.5012  154.7899 C   0  0  0  0  0  0  0  0  0  0  0  0
  151.4049  137.6189  154.6791 N   0  0  0  0  0  0  0  0  0  0  0  0
  151.2756  136.3744  155.2034 C   0  0  0  0  0  0  0  0  0  0  0  0
  151.9432  135.9844  156.1622 O   0  0  0  0  0  0  0  0  0  0  0  0
  150.3110  135.6315  154.6275 N   0  0  0  0  0  0  0  0  0  0  0  0
  149.9434  134.2961  154.9325 C   0  0  0  0  0  0  0  0  0  0  0  0
  149.9833  133.7229  156.2301 C   0  0  0  0  0  0  0  0  0  0  0  0
  149.5803  132.4615  156.2102 N   0  0  0  0  0  0  0  0  0  0  0  0
  149.2770  132.2097  154.9118 N   0  0  0  0  0  0  0  0  0  0  0  0
  148.7902  130.8970  154.5279 C   0  0  0  0  0  0  0  0  0  0  0  0
  147.4132  130.9919  153.8688 C   0  0  0  0  0  0  0  0  0  0  0  0
  147.3343  130.6751  152.5737 N   0  0  0  0  0  0  0  0  0  0  0  0
  146.4333  131.3457  154.5212 O   0  0  0  0  0  0  0  0  0  0  0  0
  149.4869  133.3104  154.1040 C   0  0  0  0  0  0  0  0  0  0  0  0
  150.2671  138.3685  154.1385 C   0  0  0  0  0  0  0  0  0  0  0  0
  149.9249  139.5227  155.1010 C   0  0  0  0  0  0  0  0  0  0  0  0
  150.2953  141.8273  158.2714 H   0  0  0  0  0  0  0  0  0  0  0  0
  151.5752  140.6509  158.0468 H   0  0  0  0  0  0  0  0  0  0  0  0
  149.9009  140.2121  157.6970 H   0  0  0  0  0  0  0  0  0  0  0  0
  149.8558  141.9776  155.8887 H   0  0  0  0  0  0  0  0  0  0  0  0
  151.5649  142.2756  156.1187 H   0  0  0  0  0  0  0  0  0  0  0  0
  153.0966  140.3191  155.8404 H   0  0  0  0  0  0  0  0  0  0  0  0
  152.0267  139.2655  156.7500 H   0  0  0  0  0  0  0  0  0  0  0  0
  152.8248  138.8948  153.8030 H   0  0  0  0  0  0  0  0  0  0  0  0
  153.4774  137.9980  155.1386 H   0  0  0  0  0  0  0  0  0  0  0  0
  149.7958  136.0686  153.8774 H   0  0  0  0  0  0  0  0  0  0  0  0
  150.2852  134.1696  157.1662 H   0  0  0  0  0  0  0  0  0  0  0  0
  149.5025  130.4494  153.8333 H   0  0  0  0  0  0  0  0  0  0  0  0
  148.7484  130.2492  155.4052 H   0  0  0  0  0  0  0  0  0  0  0  0
  146.4465  130.7296  152.0950 H   0  0  0  0  0  0  0  0  0  0  0  0
  148.1648  130.3884  152.0763 H   0  0  0  0  0  0  0  0  0  0  0  0
  149.2925  133.2852  153.0419 H   0  0  0  0  0  0  0  0  0  0  0  0
  150.5252  138.7604  153.1532 H   0  0  0  0  0  0  0  0  0  0  0  0
  149.3869  137.7428  153.9848 H   0  0  0  0  0  0  0  0  0  0  0  0
  149.6230  139.1262  156.0719 H   0  0  0  0  0  0  0  0  0  0  0  0
  149.0749  140.0734  154.6999 H   0  0  0  0  0  0  0  0  0  0  0  0
  1  2  1  0  0  0  0
  1 21  1  0  0  0  0
  1 22  1  0  0  0  0
  1 23  1  0  0  0  0
  2  3  1  0  0  0  0
  2 24  1  0  0  0  0
  2 25  1  0  0  0  0
  3 20  1  0  0  0  0
  3  4  1  0  0  0  0
  4  5  1  0  0  0  0
  4 26  1  0  0  0  0
  4 27  1  0  0  0  0
  5  6  1  0  0  0  0
  5 28  1  0  0  0  0
  5 29  1  0  0  0  0
  6  7  1  0  0  0  0
  6 19  1  0  0  0  0
  7  8  2  0  0  0  0
  7  9  1  0  0  0  0
  9 10  1  0  0  0  0
  9 30  1  0  0  0  0
 10 18  2  0  0  0  0
 10 11  1  0  0  0  0
 11 12  2  0  0  0  0
 11 31  1  0  0  0  0
 12 13  1  0  0  0  0
 13 14  1  0  0  0  0
 13 18  1  0  0  0  0
 14 15  1  0  0  0  0
 14 32  1  0  0  0  0
 14 33  1  0  0  0  0
 15 16  1  0  0  0  0
 15 17  2  0  0  0  0
 16 34  1  0  0  0  0
 16 35  1  0  0  0  0
 18 36  1  0  0  0  0
 19 20  1  0  0  0  0
 19 37  1  0  0  0  0
 19 38  1  0  0  0  0
 20 39  1  0  0  0  0
 20 40  1  0  0  0  0
M  END
> <s_m_source_file>
AV-unprocessed.smi

> <i_m_source_file_index>
1499

> <i_lp_mmshare_version>
43012

> <i_f3d_flags>
0

> <s_epik_input>
W0NIM11bQ0gyXU4xW0NIMl1bQ0gyXU4oW0NIMl1bQ0gyXTEpQyg9TylbTkhdYzJbY0hdbm4oW2NIXTIpW0NIMl1DKD1PKVtOSDJd

> <s_epik_cmdline>
J2VwaWtfcHl0aG9uJywgJy1waCcsICc3LjAnLCAnLXRuJywgJzgnLCAnLW1hJywgJzIwMCcsICctbWV0YWxfYmluZGluZycsICctaW1hZScsICc8aW5maWxlLm1hZT4nLCAnLW9tYWUnLCAnPG91dGZpbGUubWFlPic=

> <r_lp_tautomer_probability>
1

> <r_epik_Ionization_Penalty>
0.431808

> <r_epik_Ionization_Penalty_Charging>
0

> <r_epik_Ionization_Penalty_Neutral>
0.431808

> <r_epik_State_Penalty>
0.433198

> <r_epik_Charging_Adjusted_Penalty>
0.433198

> <i_epik_Tot_Q>
0

> <i_epik_Tot_abs_Q>
0

> <r_epik_Metal_State_Penalty>
0.433196

> <b_epik_Metal_Only>
0

> <s_lp_Force_Field>
OPLS_2005

> <r_lp_Energy>
45.1289

> <b_lp_Chiralities_Consistent>
1

> <s_lp_Variant>
AV-unprocessed.smi:1499-2

> <Gold.Version>
5.8.1

> <Gold.Id.Protein>
6NUR|6NUR_protein|mol2

> <Gold.PLP.Fitness>
47.3256

> <Gold.PLP.PLP>
-36.7314

> <Gold.PLP.part.hbond>
-4.9307

> <Gold.PLP.part.metal>
0.0000

> <Gold.PLP.part.buried>
-2.4044

> <Gold.PLP.part.nonpolar>
-31.5103

> <Gold.PLP.part.repulsive>
0.3034

> <Gold.PLP.ligand.clash>
0.0000

> <Gold.PLP.ligand.torsion>
0.6467

> <Gold.PLP.Chemscore.Hbond>
3.9420

> <Gold.PLP.Chemscore.CHOScore>
0.0000

> <Gold.PLP.Chemscore.Metal>
0.0000

> <Gold.Chemscore.Hbonds>
donor molecule, donor type, donor heavy atom, donor atom, acceptor molecule, acceptor atom, score
      L1  H     9    30       P1  7948  0.70
      L1  H    16    35       P1 10747  0.72
      P1  H  7989  7998       L1     3  1.00
      P1  H 10752 10763       L1     8  0.40

> <Gold.PLP.Chemscore.Internal.Correction>
0.0616

> <Gold.Rescore>
     Score         DG    S(hbond)    S(metal)    S(lipo)     H(rot)  DE(clash)    DE(int)     intcor
     11.95     -13.68       1.65        0.00      63.22       1.83       0.08       1.66       ----

> <Gold.Chemscore.Fitness>
11.9469

> <Gold.Chemscore.DG>
-13.6838

> <Gold.Chemscore.ZeroCoef>
-5.4800

> <Gold.Chemscore.Hbond>
1.6463

> <Gold.Chemscore.Metal>
0.0000

> <Gold.Chemscore.Lipo>
63.2174

> <Gold.Chemscore.Internal_Hbond>
0.0000

> <Gold.Chemscore.DEClash>
0.0815

> <Gold.Chemscore.DEInternal>
1.6554

> <Gold.Chemscore.Rot>
1.8325

> <Gold.Chemscore.Internal.Correction>
   9.000000E+99

> <Gold.Chemscore.Hbonds>
donor molecule, donor type, donor heavy atom, donor atom, acceptor molecule, acceptor atom, score
      L1  H     9    30       P1  7948  0.17
      L1  H    16    35       P1 10747  0.66
      P1  H  7989  7998       L1     3  0.19
      P1  H 10752 10763       L1     8  0.01

> <Gold.Chemscore.Hbond.Weighted>
-5.4986

> <Gold.Chemscore.Metal.Weighted>
-0.0000

> <Gold.Chemscore.Lipo.Weighted>
-7.3964

> <Gold.Chemscore.Internal_Hbond.Weighted>
0.0000

> <Gold.Chemscore.DEClash.Weighted>
0.0815

> <Gold.Chemscore.DEInternal.Weighted>
1.6554

> <Gold.Chemscore.Rot.Weighted>
4.6912

> <Gold.Chemscore.Internal.Correction.Weighted>
   9.000000E+99

> <Gold.Protein.RotatedTorsions>
[ 6907 6896 6895 6894 ] final -162.06 input  -60.11 | X-H torsion
[ 7974 7965 7964 7962 ] final  -57.22 input  175.53 | X-H torsion
[ 8008 7997 7996 7995 ] final   24.50 input   59.86 | X-H torsion
[ 10167 10162 10161 10158 ] final  169.01 input  -65.29 | X-H torsion
[ 10718 10713 10712 10709 ] final   77.16 input   66.30 | X-H torsion
[ 10763 10752 10751 10750 ] final   89.54 input  -60.55 | X-H torsion
[ 11005 11000 10999 10996 ] final -131.27 input  -57.11 | X-H torsion

> <Gold.Protein.ActiveResidues>
 VAL166  LYS551  ARG553  GLY616  TRP617  ASP618  TYR619  PRO620  LYS621  CYS622 
 ASP623  PHE694  ASN695  SER759  ASP760  ASP761  ALA762  ILE779  LEU786  VAL792 
 PHE793  MET794  SER795  GLU796  ALA797  LYS798  CYS799  TRP800  GLU811  SER814 

> <Gold.Protein.RotatedAtoms>
  151.3744  133.3843  159.2702 H   0  0  0  0  0  0  0  0  0  0  0  0  # atno 6907 bound_to 6896
  150.9626  134.9012  159.7750 H   0  0  0  0  0  0  0  0  0  0  0  0  # atno 6908 bound_to 6896
  152.5155  134.3704  159.9368 H   0  0  0  0  0  0  0  0  0  0  0  0  # atno 6909 bound_to 6896
  145.8536  140.8335  142.9973 H   0  0  0  0  0  0  0  0  0  0  0  0  # atno 7974 bound_to 7965
  154.9972  140.3121  155.4882 H   0  0  0  0  0  0  0  0  0  0  0  0  # atno 8008 bound_to 7997
  156.2930  140.2238  156.5021 H   0  0  0  0  0  0  0  0  0  0  0  0  # atno 8009 bound_to 7997
  154.7650  140.0456  157.0993 H   0  0  0  0  0  0  0  0  0  0  0  0  # atno 8010 bound_to 7997
  139.4982  144.3752  151.9681 H   0  0  0  0  0  0  0  0  0  0  0  0  # atno 10167 bound_to 10162
  157.6700  130.9808  150.1600 H   0  0  0  0  0  0  0  0  0  0  0  0  # atno 10718 bound_to 10713
  153.1882  135.4466  155.0115 H   0  0  0  0  0  0  0  0  0  0  0  0  # atno 10763 bound_to 10752
  154.8074  135.3280  154.7399 H   0  0  0  0  0  0  0  0  0  0  0  0  # atno 10764 bound_to 10752
  153.7856  135.6974  153.4936 H   0  0  0  0  0  0  0  0  0  0  0  0  # atno 10765 bound_to 10752
  140.9274  134.1365  157.4264 H   0  0  0  0  0  0  0  0  0  0  0  0  # atno 11005 bound_to 11000
  144.6728  140.0990  143.7461 LP  0  0  0  0  0  0  0  0  0  0  0  0  # atno 17320 bound_to 7965
  145.9329  139.2618  143.1314 LP  0  0  0  0  0  0  0  0  0  0  0  0  # atno 17321 bound_to 7965
  140.3188  144.3452  150.6014 LP  0  0  0  0  0  0  0  0  0  0  0  0  # atno 17342 bound_to 10162
  140.5739  143.2178  151.7550 LP  0  0  0  0  0  0  0  0  0  0  0  0  # atno 17343 bound_to 10162
  156.2379  130.3688  149.8370 LP  0  0  0  0  0  0  0  0  0  0  0  0  # atno 17370 bound_to 10713
  156.6178  130.8614  151.3469 LP  0  0  0  0  0  0  0  0  0  0  0  0  # atno 17371 bound_to 10713
  139.8788  134.9993  156.5946 LP  0  0  0  0  0  0  0  0  0  0  0  0  # atno 17394 bound_to 11000
  140.7908  133.8584  155.8645 LP  0  0  0  0  0  0  0  0  0  0  0  0  # atno 17395 bound_to 11000

$$$$
