AV-unprocessed.smi:287|AV-procd|sdf|2182|dock9
  -GOLD-   2262021553D 1   1.00000     0.00000
 Structure written by MMmdl.
 55 58  0  0  0  0  0  0  0  0  1 V2000
  141.8396  134.9045  163.0103 C   0  0  0  0  0  0  0  0  0  0  0  0
  143.2314  134.5565  162.6068 C   0  0  0  0  0  0  0  0  0  0  0  0
  144.4491  135.1353  162.8166 C   0  0  0  0  0  0  0  0  0  0  0  0
  145.4268  134.3156  162.1777 C   0  0  0  0  0  0  0  0  0  0  0  0
  146.9281  134.5705  162.1499 C   0  0  2  0  0  0  0  0  0  0  0  0
  147.6619  133.3092  161.6648 C   0  0  0  0  0  0  0  0  0  0  0  0
  147.4626  134.8453  163.4304 O   0  0  0  0  0  0  0  0  0  0  0  0
  147.3078  135.7784  161.2628 C   0  0  0  0  0  0  0  0  0  0  0  0
  147.3021  135.4649  159.8396 N   0  0  0  0  0  0  0  0  0  0  0  0
  147.5324  136.4228  158.9171 C   0  0  0  0  0  0  0  0  0  0  0  0
  146.8041  137.5560  159.0597 N   0  0  0  0  0  0  0  0  0  0  0  0
  146.9520  138.5637  158.1951 C   0  0  0  0  0  0  0  0  0  0  0  0
  147.7610  138.6434  157.1371 N   0  0  0  0  0  0  0  0  0  0  0  0
  148.5019  137.5072  156.9895 C   0  0  0  0  0  0  0  0  0  0  0  0
  148.4509  136.3563  157.8269 C   0  0  0  0  0  0  0  0  0  0  0  0
  149.3507  135.4081  157.3512 N   0  0  0  0  0  0  0  0  0  0  0  0
  149.8889  135.9653  156.3005 C   0  0  0  0  0  0  0  0  0  0  0  0
  149.4416  137.2381  156.0185 N   0  0  0  0  0  0  0  0  0  0  0  0
  149.8232  138.1578  154.8989 C   0  0  2  0  0  0  0  0  0  0  0  0
  150.6441  139.1607  155.4180 O   0  0  0  0  0  0  0  0  0  0  0  0
  149.8570  140.3073  155.7231 C   0  0  1  0  0  0  0  0  0  0  0  0
  150.7340  141.5590  155.9009 C   0  0  0  0  0  0  0  0  0  0  0  0
  150.0564  142.5160  156.6873 O   0  0  0  0  0  0  0  0  0  0  0  0
  148.8828  140.3387  154.5398 C   0  0  1  0  0  0  0  0  0  0  0  0
  149.4986  140.9271  153.4050 O   0  0  0  0  0  0  0  0  0  0  0  0
  148.5687  138.8561  154.3382 C   0  0  1  0  0  0  0  0  0  0  0  0
  148.3018  138.5307  152.9867 O   0  0  0  0  0  0  0  0  0  0  0  0
  144.7073  133.2930  161.6069 C   0  0  0  0  0  0  0  0  0  0  0  0
  145.0701  132.1011  160.7842 C   0  0  0  0  0  0  0  0  0  0  0  0
  143.3770  133.4296  161.8664 O   0  0  0  0  0  0  0  0  0  0  0  0
  150.3599  137.5279  154.1881 H   0  0  0  0  0  0  0  0  0  0  0  0
  149.2833  140.1214  156.6333 H   0  0  0  0  0  0  0  0  0  0  0  0
  147.9835  140.9102  154.7718 H   0  0  0  0  0  0  0  0  0  0  0  0
  147.7011  138.5869  154.9430 H   0  0  0  0  0  0  0  0  0  0  0  0
  141.8366  135.7124  163.7421 H   0  0  0  0  0  0  0  0  0  0  0  0
  141.3386  134.0445  163.4553 H   0  0  0  0  0  0  0  0  0  0  0  0
  141.2571  135.2274  162.1474 H   0  0  0  0  0  0  0  0  0  0  0  0
  144.6224  136.0446  163.3728 H   0  0  0  0  0  0  0  0  0  0  0  0
  147.3465  133.0307  160.6586 H   0  0  0  0  0  0  0  0  0  0  0  0
  147.4626  132.4587  162.3180 H   0  0  0  0  0  0  0  0  0  0  0  0
  148.7420  133.4597  161.6379 H   0  0  0  0  0  0  0  0  0  0  0  0
  147.8595  134.0559  163.7653 H   0  0  0  0  0  0  0  0  0  0  0  0
  146.6551  136.6278  161.4688 H   0  0  0  0  0  0  0  0  0  0  0  0
  148.3222  136.0888  161.5173 H   0  0  0  0  0  0  0  0  0  0  0  0
  147.1943  134.4876  159.6085 H   0  0  0  0  0  0  0  0  0  0  0  0
  146.3330  139.4297  158.3771 H   0  0  0  0  0  0  0  0  0  0  0  0
  150.6303  135.4538  155.7040 H   0  0  0  0  0  0  0  0  0  0  0  0
  151.6956  141.3125  156.3520 H   0  0  0  0  0  0  0  0  0  0  0  0
  150.9357  142.0167  154.9319 H   0  0  0  0  0  0  0  0  0  0  0  0
  149.6008  143.1097  156.1103 H   0  0  0  0  0  0  0  0  0  0  0  0
  149.4365  140.3174  152.6852 H   0  0  0  0  0  0  0  0  0  0  0  0
  148.7759  139.1356  152.4360 H   0  0  0  0  0  0  0  0  0  0  0  0
  145.6702  132.3941  159.9228 H   0  0  0  0  0  0  0  0  0  0  0  0
  144.1804  131.5911  160.4131 H   0  0  0  0  0  0  0  0  0  0  0  0
  145.6456  131.3867  161.3729 H   0  0  0  0  0  0  0  0  0  0  0  0
  1  2  1  0  0  0  0
  1 35  1  0  0  0  0
  1 36  1  0  0  0  0
  1 37  1  0  0  0  0
  2 30  1  0  0  0  0
  2  3  2  0  0  0  0
  3  4  1  0  0  0  0
  3 38  1  0  0  0  0
  4  5  1  0  0  0  0
  4 28  2  0  0  0  0
  5  6  1  0  0  0  0
  5  7  1  0  0  0  0
  5  8  1  0  0  0  0
  6 39  1  0  0  0  0
  6 40  1  0  0  0  0
  6 41  1  0  0  0  0
  7 42  1  0  0  0  0
  8  9  1  0  0  0  0
  8 43  1  0  0  0  0
  8 44  1  0  0  0  0
  9 10  1  0  0  0  0
  9 45  1  0  0  0  0
 10 15  1  0  0  0  0
 10 11  2  0  0  0  0
 11 12  1  0  0  0  0
 12 13  2  0  0  0  0
 12 46  1  0  0  0  0
 13 14  1  0  0  0  0
 14 18  1  0  0  0  0
 14 15  2  0  0  0  0
 15 16  1  0  0  0  0
 16 17  2  0  0  0  0
 17 18  1  0  0  0  0
 17 47  1  0  0  0  0
 18 19  1  0  0  0  0
 19 31  1  0  0  0  0
 19 26  1  0  0  0  0
 19 20  1  0  0  0  0
 20 21  1  0  0  0  0
 21 32  1  0  0  0  0
 21 22  1  0  0  0  0
 21 24  1  0  0  0  0
 22 23  1  0  0  0  0
 22 48  1  0  0  0  0
 22 49  1  0  0  0  0
 23 50  1  0  0  0  0
 24 33  1  0  0  0  0
 24 25  1  0  0  0  0
 24 26  1  0  0  0  0
 25 51  1  0  0  0  0
 26 34  1  0  0  0  0
 26 27  1  0  0  0  0
 27 52  1  0  0  0  0
 28 29  1  0  0  0  0
 28 30  1  0  0  0  0
 29 53  1  0  0  0  0
 29 54  1  0  0  0  0
 29 55  1  0  0  0  0
M  END
> <s_m_source_file>
AV-unprocessed.smi

> <i_m_source_file_index>
287

> <i_lp_mmshare_version>
43012

> <i_f3d_flags>
0

> <s_epik_input>
W0NIM11jMVtjSF1jKGMobzEpW0NIM10pW0NAQF0oW0NIM10pKFtPSF0pW0NIMl1bTkhdYyhuW2NIXW4yKWMoYzIzKW5bY0hdbjNbQ0BASF00T1tDQEhdKFtDSDJdW09IXSlbQ0BASF0oW09IXSlbQ0BIXTRbT0hd

> <s_epik_cmdline>
J2VwaWtfcHl0aG9uJywgJy1waCcsICc3LjAnLCAnLXRuJywgJzgnLCAnLW1hJywgJzIwMCcsICctbWV0YWxfYmluZGluZycsICctaW1hZScsICc8aW5maWxlLm1hZT4nLCAnLW9tYWUnLCAnPG91dGZpbGUubWFlPic=

> <r_lp_tautomer_probability>
1

> <r_epik_Ionization_Penalty>
0.000992612

> <r_epik_Ionization_Penalty_Charging>
0

> <r_epik_Ionization_Penalty_Neutral>
0.000992612

> <r_epik_State_Penalty>
-0

> <r_epik_Charging_Adjusted_Penalty>
0

> <i_epik_Tot_Q>
0

> <i_epik_Tot_abs_Q>
0

> <r_epik_Metal_State_Penalty>
-0

> <b_epik_Metal_Only>
0

> <s_epik_Chemistry_Notes>
This compound contains an acetal/aminal-like group ( X-CH(R)-Y where X, Y are N, S, or O) that may be acid/base labile, releasing an aldehyde.

> <s_lp_Force_Field>
OPLS_2005

> <r_lp_Energy>
45.3255

> <b_lp_Chiralities_Consistent>
1

> <s_lp_Variant>
AV-unprocessed.smi:287-6

> <Gold.Version>
5.8.1

> <Gold.Id.Protein>
6NUR|6NUR_protein|mol2

> <Gold.PLP.Fitness>
51.8745

> <Gold.PLP.PLP>
-43.8925

> <Gold.PLP.part.hbond>
-7.5003

> <Gold.PLP.part.metal>
0.0000

> <Gold.PLP.part.buried>
-8.3104

> <Gold.PLP.part.nonpolar>
-28.1098

> <Gold.PLP.part.repulsive>
0.1677

> <Gold.PLP.ligand.clash>
0.2612

> <Gold.PLP.ligand.torsion>
1.8141

> <Gold.PLP.Chemscore.Hbond>
3.9384

> <Gold.PLP.Chemscore.CHOScore>
0.0000

> <Gold.PLP.Chemscore.Metal>
0.0000

> <Gold.Chemscore.Hbonds>
donor molecule, donor type, donor heavy atom, donor atom, acceptor molecule, acceptor atom, score
      L1  H    23    50       P1  8028  1.00
      L1  H    25    51       P1  7957  0.96
      L1  H    27    52       P1  7957  1.00
      P1  H  6934  6947       L1    11  0.05
      P1  H  7989  7998       L1    25  0.15
      P1  H  8011  8017       L1    25  0.75

> <Gold.PLP.Chemscore.Internal.Correction>
0.0564

> <Gold.Rescore>
     Score         DG    S(hbond)    S(metal)    S(lipo)     H(rot)  DE(clash)    DE(int)     intcor
      7.92     -12.46       3.02        0.00      88.67       5.27       0.32       4.22       ----

> <Gold.Chemscore.Fitness>
7.9208

> <Gold.Chemscore.DG>
-12.4622

> <Gold.Chemscore.ZeroCoef>
-5.4800

> <Gold.Chemscore.Hbond>
3.0215

> <Gold.Chemscore.Metal>
0.0000

> <Gold.Chemscore.Lipo>
88.6705

> <Gold.Chemscore.Internal_Hbond>
0.0000

> <Gold.Chemscore.DEClash>
0.3181

> <Gold.Chemscore.DEInternal>
4.2233

> <Gold.Chemscore.Rot>
5.2672

> <Gold.Chemscore.Internal.Correction>
   9.000000E+99

> <Gold.Chemscore.Hbonds>
donor molecule, donor type, donor heavy atom, donor atom, acceptor molecule, acceptor atom, score
      L1  H    23    50       P1  8028  0.98
      L1  H    25    51       P1  7957  0.89
      L1  H    27    52       P1  7957  1.00
      P1  H  7989  7998       L1    25  0.01
      P1  H  8011  8017       L1    25  0.09

> <Gold.Chemscore.Hbond.Weighted>
-10.0917

> <Gold.Chemscore.Metal.Weighted>
-0.0000

> <Gold.Chemscore.Lipo.Weighted>
-10.3745

> <Gold.Chemscore.Internal_Hbond.Weighted>
0.0000

> <Gold.Chemscore.DEClash.Weighted>
0.3181

> <Gold.Chemscore.DEInternal.Weighted>
4.2233

> <Gold.Chemscore.Rot.Weighted>
13.4839

> <Gold.Chemscore.Internal.Correction.Weighted>
   9.000000E+99

> <Gold.Protein.RotatedTorsions>
[ 6907 6896 6895 6894 ] final -101.40 input  -60.11 | X-H torsion
[ 7974 7965 7964 7962 ] final  170.46 input  175.53 | X-H torsion
[ 8008 7997 7996 7995 ] final    2.90 input   59.86 | X-H torsion
[ 10167 10162 10161 10158 ] final  168.69 input  -65.29 | X-H torsion
[ 10718 10713 10712 10709 ] final   -9.37 input   66.30 | X-H torsion
[ 10763 10752 10751 10750 ] final  -83.31 input  -60.55 | X-H torsion
[ 11005 11000 10999 10996 ] final -129.45 input  -57.11 | X-H torsion

> <Gold.Protein.ActiveResidues>
 VAL166  LYS551  ARG553  GLY616  TRP617  ASP618  TYR619  PRO620  LYS621  CYS622 
 ASP623  PHE694  ASN695  SER759  ASP760  ASP761  ALA762  ILE779  LEU786  VAL792 
 PHE793  MET794  SER795  GLU796  ALA797  LYS798  CYS799  TRP800  GLU811  SER814 

> <Gold.Protein.RotatedAtoms>
  150.7153  134.0740  159.3874 H   0  0  0  0  0  0  0  0  0  0  0  0  # atno 6907 bound_to 6896
  151.8723  135.0483  160.0490 H   0  0  0  0  0  0  0  0  0  0  0  0  # atno 6908 bound_to 6896
  152.2634  133.5281  159.5432 H   0  0  0  0  0  0  0  0  0  0  0  0  # atno 6909 bound_to 6896
  144.7323  139.9205  143.6420 H   0  0  0  0  0  0  0  0  0  0  0  0  # atno 7974 bound_to 7965
  154.6972  140.2665  155.6755 H   0  0  0  0  0  0  0  0  0  0  0  0  # atno 8008 bound_to 7997
  156.2752  140.2779  156.1494 H   0  0  0  0  0  0  0  0  0  0  0  0  # atno 8009 bound_to 7997
  155.0815  140.0372  157.2630 H   0  0  0  0  0  0  0  0  0  0  0  0  # atno 8010 bound_to 7997
  139.4974  144.3787  151.9646 H   0  0  0  0  0  0  0  0  0  0  0  0  # atno 10167 bound_to 10162
  156.6891  130.5059  149.5949 H   0  0  0  0  0  0  0  0  0  0  0  0  # atno 10718 bound_to 10713
  154.5863  135.5560  153.7234 H   0  0  0  0  0  0  0  0  0  0  0  0  # atno 10763 bound_to 10752
  153.0100  135.6332  154.1912 H   0  0  0  0  0  0  0  0  0  0  0  0  # atno 10764 bound_to 10752
  154.1853  135.2885  155.3019 H   0  0  0  0  0  0  0  0  0  0  0  0  # atno 10765 bound_to 10752
  140.9430  134.1168  157.4133 H   0  0  0  0  0  0  0  0  0  0  0  0  # atno 11005 bound_to 11000
  146.0933  139.3924  143.0392 LP  0  0  0  0  0  0  0  0  0  0  0  0  # atno 17320 bound_to 7965
  145.7680  140.9908  143.1164 LP  0  0  0  0  0  0  0  0  0  0  0  0  # atno 17321 bound_to 7965
  140.3224  144.3413  150.6006 LP  0  0  0  0  0  0  0  0  0  0  0  0  # atno 17342 bound_to 10162
  140.5712  143.2181  151.7595 LP  0  0  0  0  0  0  0  0  0  0  0  0  # atno 17343 bound_to 10162
  156.1811  130.6499  151.0952 LP  0  0  0  0  0  0  0  0  0  0  0  0  # atno 17370 bound_to 10713
  157.7015  131.0774  150.6803 LP  0  0  0  0  0  0  0  0  0  0  0  0  # atno 17371 bound_to 10713
  139.8825  135.0042  156.6237 LP  0  0  0  0  0  0  0  0  0  0  0  0  # atno 17394 bound_to 11000
  140.7708  133.8740  155.8490 LP  0  0  0  0  0  0  0  0  0  0  0  0  # atno 17395 bound_to 11000

$$$$
