AV-unprocessed.smi:3237|AV-procd|sdf|12365|dock6
  -GOLD-   2272018223D 1   1.00000     0.00000
 Structure written by MMmdl.
 37 39  0  0  0  0  0  0  0  0  2 V2000
  143.7833  132.7229  149.8881 C   0  0  0  0  0  0  0  0  0  0  0  0
  144.3397  133.8439  150.6974 C   0  0  0  0  0  0  0  0  0  0  0  0
  145.5786  134.4158  150.7660 C   0  0  0  0  0  0  0  0  0  0  0  0
  145.4050  135.4357  151.7468 C   0  0  0  0  0  0  0  0  0  0  0  0
  146.3974  136.3413  152.2032 N   0  0  0  0  0  0  0  0  0  0  0  0
  146.2358  137.4602  152.9293 C   0  0  0  0  0  0  0  0  0  0  0  0
  145.1598  137.9031  153.3304 O   0  0  0  0  0  0  0  0  0  0  0  0
  147.4119  138.0558  153.1734 N   0  0  0  0  0  0  0  0  0  0  0  0
  147.5735  139.2881  153.9373 C   0  0  2  0  0  0  0  0  0  0  0  0
  147.1222  140.5512  153.2103 C   0  0  0  0  0  0  0  0  0  0  0  0
  147.8615  141.6552  153.9744 C   0  0  0  0  0  0  0  0  0  0  0  0
  149.0991  141.0427  154.5192 N   0  3  1  0  0  0  0  0  0  0  0  0
  149.3334  141.3523  155.9465 C   0  0  0  0  0  0  0  0  0  0  0  0
  150.6799  141.9807  156.2161 C   0  0  0  0  0  0  0  0  0  0  0  0
  150.4358  140.5297  156.5695 C   0  0  0  0  0  0  0  0  0  0  0  0
  149.0422  139.5927  154.2295 C   0  0  0  0  0  0  0  0  0  0  0  0
  144.1761  135.4760  152.2275 N   0  0  0  0  0  0  0  0  0  0  0  0
  143.4853  134.4580  151.5596 O   0  0  0  0  0  0  0  0  0  0  0  0
  144.5221  132.3502  149.1785 H   0  0  0  0  0  0  0  0  0  0  0  0
  142.9088  133.0494  149.3251 H   0  0  0  0  0  0  0  0  0  0  0  0
  143.4833  131.8950  150.5307 H   0  0  0  0  0  0  0  0  0  0  0  0
  146.4535  134.1364  150.1988 H   0  0  0  0  0  0  0  0  0  0  0  0
  147.3442  136.1040  151.9466 H   0  0  0  0  0  0  0  0  0  0  0  0
  148.2495  137.6260  152.8084 H   0  0  0  0  0  0  0  0  0  0  0  0
  147.0368  139.2050  154.8849 H   0  0  0  0  0  0  0  0  0  0  0  0
  147.4533  140.5303  152.1707 H   0  0  0  0  0  0  0  0  0  0  0  0
  146.0398  140.6848  153.2185 H   0  0  0  0  0  0  0  0  0  0  0  0
  148.0946  142.5091  153.3378 H   0  0  0  0  0  0  0  0  0  0  0  0
  147.2305  142.0158  154.7886 H   0  0  0  0  0  0  0  0  0  0  0  0
  148.4609  141.6414  156.5302 H   0  0  0  0  0  0  0  0  0  0  0  0
  151.3305  142.1893  155.3684 H   0  0  0  0  0  0  0  0  0  0  0  0
  150.7480  142.6891  157.0393 H   0  0  0  0  0  0  0  0  0  0  0  0
  150.3423  140.2826  157.6250 H   0  0  0  0  0  0  0  0  0  0  0  0
  150.9248  139.7745  155.9567 H   0  0  0  0  0  0  0  0  0  0  0  0
  149.4412  138.9815  155.0406 H   0  0  0  0  0  0  0  0  0  0  0  0
  149.6532  139.4043  153.3454 H   0  0  0  0  0  0  0  0  0  0  0  0
  149.8821  141.4161  154.0016 H   0  0  0  0  0  0  0  0  0  0  0  0
  1  2  1  0  0  0  0
  1 19  1  0  0  0  0
  1 20  1  0  0  0  0
  1 21  1  0  0  0  0
  2 18  1  0  0  0  0
  2  3  2  0  0  0  0
  3  4  1  0  0  0  0
  3 22  1  0  0  0  0
  4  5  1  0  0  0  0
  4 17  2  0  0  0  0
  5  6  1  0  0  0  0
  5 23  1  0  0  0  0
  6  7  2  0  0  0  0
  6  8  1  0  0  0  0
  8  9  1  0  0  0  0
  8 24  1  0  0  0  0
  9 16  1  0  0  0  0
  9 10  1  0  0  0  0
  9 25  1  0  0  0  0
 10 11  1  0  0  0  0
 10 26  1  0  0  0  0
 10 27  1  0  0  0  0
 11 12  1  0  0  0  0
 11 28  1  0  0  0  0
 11 29  1  0  0  0  0
 12 13  1  0  0  0  0
 12 16  1  0  0  0  0
 12 37  1  0  0  0  0
 13 15  1  0  0  0  0
 13 14  1  0  0  0  0
 13 30  1  0  0  0  0
 14 15  1  0  0  0  0
 14 31  1  0  0  0  0
 14 32  1  0  0  0  0
 15 33  1  0  0  0  0
 15 34  1  0  0  0  0
 16 35  1  0  0  0  0
 16 36  1  0  0  0  0
 17 18  1  0  0  0  0
M  CHG  1  12   1
M  END
> <s_m_source_file>
AV-unprocessed.smi

> <i_m_source_file_index>
3237

> <i_lp_mmshare_version>
43012

> <i_f3d_flags>
0

> <s_epik_input>
W0NIM11jMVtjSF1jKG5vMSlbTkhdQyg9TylbTkhdW0NAQEhdMltDSDJdW0NIMl1OKFtDSDJdMilbQ0hdM1tDSDJdW0NIMl0z

> <s_epik_cmdline>
J2VwaWtfcHl0aG9uJywgJy1waCcsICc3LjAnLCAnLXRuJywgJzgnLCAnLW1hJywgJzIwMCcsICctbWV0YWxfYmluZGluZycsICctaW1hZScsICc8aW5maWxlLm1hZT4nLCAnLW9tYWUnLCAnPG91dGZpbGUubWFlPic=

> <r_epik_Ionization_Penalty>
0.000720579

> <r_epik_Ionization_Penalty_Charging>
0.000680516

> <r_epik_Ionization_Penalty_Neutral>
4.00628e-05

> <r_epik_State_Penalty>
0.000432256

> <r_epik_Charging_Adjusted_Penalty>
0.00111277

> <i_epik_Tot_Q>
1

> <i_epik_Tot_abs_Q>
1

> <r_epik_Metal_State_Penalty>
0.0255091

> <b_epik_Metal_Only>
0

> <s_lp_Force_Field>
OPLS_2005

> <r_lp_Energy>
36.5214

> <b_lp_Chiralities_Consistent>
1

> <s_lp_Variant>
AV-unprocessed.smi:3237-3

> <Gold.Version>
5.8.1

> <Gold.Id.Protein>
6NUR|6NUR_protein|mol2

> <Gold.PLP.Fitness>
34.5085

> <Gold.PLP.PLP>
-29.3436

> <Gold.PLP.part.hbond>
-2.0000

> <Gold.PLP.part.metal>
0.0000

> <Gold.PLP.part.buried>
-4.1858

> <Gold.PLP.part.nonpolar>
-24.4143

> <Gold.PLP.part.repulsive>
0.8857

> <Gold.PLP.ligand.clash>
0.0000

> <Gold.PLP.ligand.torsion>
0.9658

> <Gold.PLP.Chemscore.Hbond>
1.9440

> <Gold.PLP.Chemscore.CHOScore>
0.0000

> <Gold.PLP.Chemscore.Metal>
0.0000

> <Gold.Chemscore.Hbonds>
donor molecule, donor type, donor heavy atom, donor atom, acceptor molecule, acceptor atom, score
      L1  H     5    23       P1  7948  1.00
      L1  H     8    24       P1  7948  0.94

> <Gold.PLP.Chemscore.Internal.Correction>
1.2644

> <Gold.Rescore>
     Score         DG    S(hbond)    S(metal)    S(lipo)     H(rot)  DE(clash)    DE(int)     intcor
     14.58     -16.95       1.94        0.00      70.18       1.26       0.11       2.26       ----

> <Gold.Chemscore.Fitness>
14.5797

> <Gold.Chemscore.DG>
-16.9528

> <Gold.Chemscore.ZeroCoef>
-5.4800

> <Gold.Chemscore.Hbond>
1.9418

> <Gold.Chemscore.Metal>
0.0000

> <Gold.Chemscore.Lipo>
70.1773

> <Gold.Chemscore.Internal_Hbond>
0.0000

> <Gold.Chemscore.DEClash>
0.1082

> <Gold.Chemscore.DEInternal>
2.2649

> <Gold.Chemscore.Rot>
1.2593

> <Gold.Chemscore.Internal.Correction>
   9.000000E+99

> <Gold.Chemscore.Hbonds>
donor molecule, donor type, donor heavy atom, donor atom, acceptor molecule, acceptor atom, score
      L1  H     5    23       P1  7948  0.98
      L1  H     8    24       P1  7948  0.91

> <Gold.Chemscore.Hbond.Weighted>
-6.4857

> <Gold.Chemscore.Metal.Weighted>
-0.0000

> <Gold.Chemscore.Lipo.Weighted>
-8.2107

> <Gold.Chemscore.Internal_Hbond.Weighted>
0.0000

> <Gold.Chemscore.DEClash.Weighted>
0.1082

> <Gold.Chemscore.DEInternal.Weighted>
2.2649

> <Gold.Chemscore.Rot.Weighted>
3.2237

> <Gold.Chemscore.Internal.Correction.Weighted>
   9.000000E+99

> <Gold.Protein.RotatedTorsions>
[ 6907 6896 6895 6894 ] final  -29.63 input  -60.11 | X-H torsion
[ 7974 7965 7964 7962 ] final   37.91 input  175.53 | X-H torsion
[ 8008 7997 7996 7995 ] final  -35.06 input   59.86 | X-H torsion
[ 10167 10162 10161 10158 ] final   28.79 input  -65.29 | X-H torsion
[ 10718 10713 10712 10709 ] final  -96.59 input   66.30 | X-H torsion
[ 10763 10752 10751 10750 ] final  -25.38 input  -60.55 | X-H torsion
[ 11005 11000 10999 10996 ] final -164.05 input  -57.11 | X-H torsion

> <Gold.Protein.ActiveResidues>
 VAL166  LYS551  ARG553  GLY616  TRP617  ASP618  TYR619  PRO620  LYS621  CYS622 
 ASP623  PHE694  ASN695  SER759  ASP760  ASP761  ALA762  ILE779  LEU786  VAL792 
 PHE793  MET794  SER795  GLU796  ALA797  LYS798  CYS799  TRP800  GLU811  SER814 

> <Gold.Protein.RotatedAtoms>
  151.1165  135.0056  159.8518 H   0  0  0  0  0  0  0  0  0  0  0  0  # atno 6907 bound_to 6896
  152.5446  134.1773  159.8631 H   0  0  0  0  0  0  0  0  0  0  0  0  # atno 6908 bound_to 6896
  151.1828  133.4670  159.2627 H   0  0  0  0  0  0  0  0  0  0  0  0  # atno 6909 bound_to 6896
  146.1102  139.5837  142.9357 H   0  0  0  0  0  0  0  0  0  0  0  0  # atno 7974 bound_to 7965
  154.4105  140.1667  156.2151 H   0  0  0  0  0  0  0  0  0  0  0  0  # atno 8008 bound_to 7997
  155.9411  140.3408  155.6305 H   0  0  0  0  0  0  0  0  0  0  0  0  # atno 8009 bound_to 7997
  155.6987  140.0742  157.2409 H   0  0  0  0  0  0  0  0  0  0  0  0  # atno 8010 bound_to 7997
  140.4822  144.0599  150.6269 H   0  0  0  0  0  0  0  0  0  0  0  0  # atno 10167 bound_to 10162
  156.0065  130.5158  150.6249 H   0  0  0  0  0  0  0  0  0  0  0  0  # atno 10718 bound_to 10713
  153.6990  135.6957  153.5068 H   0  0  0  0  0  0  0  0  0  0  0  0  # atno 10763 bound_to 10752
  153.2357  135.4323  155.0642 H   0  0  0  0  0  0  0  0  0  0  0  0  # atno 10764 bound_to 10752
  154.8350  135.3495  154.6530 H   0  0  0  0  0  0  0  0  0  0  0  0  # atno 10765 bound_to 10752
  140.5913  134.5042  157.5193 H   0  0  0  0  0  0  0  0  0  0  0  0  # atno 11005 bound_to 11000
  145.5679  141.0397  143.2190 LP  0  0  0  0  0  0  0  0  0  0  0  0  # atno 17320 bound_to 7965
  144.7505  139.7206  143.7275 LP  0  0  0  0  0  0  0  0  0  0  0  0  # atno 17321 bound_to 7965
  140.3844  143.2785  152.0133 LP  0  0  0  0  0  0  0  0  0  0  0  0  # atno 17342 bound_to 10162
  139.4835  144.6129  151.7401 LP  0  0  0  0  0  0  0  0  0  0  0  0  # atno 17343 bound_to 10162
  157.4057  131.0816  151.1267 LP  0  0  0  0  0  0  0  0  0  0  0  0  # atno 17370 bound_to 10713
  157.1914  130.6354  149.5706 LP  0  0  0  0  0  0  0  0  0  0  0  0  # atno 17371 bound_to 10713
  139.9273  134.8031  156.1032 LP  0  0  0  0  0  0  0  0  0  0  0  0  # atno 17394 bound_to 11000
  141.0933  133.6705  156.2589 LP  0  0  0  0  0  0  0  0  0  0  0  0  # atno 17395 bound_to 11000

$$$$
