AV-unprocessed.smi:160|AV-procd|sdf|1358|dock10
  -GOLD-   2262019 63D 1   1.00000     0.00000
 Structure written by MMmdl.
 29 30  0  0  0  0  0  0  0  0  1 V2000
  147.4582  144.4766  159.2212 N   0  0  0  0  0  0  0  0  0  0  0  0
  147.3792  143.1830  159.5500 C   0  0  0  0  0  0  0  0  0  0  0  0
  147.0377  142.8082  160.6706 O   0  0  0  0  0  0  0  0  0  0  0  0
  147.7361  142.1999  158.4696 C   0  0  0  0  0  0  0  0  0  0  0  0
  147.0883  141.0020  158.3631 N   0  0  0  0  0  0  0  0  0  0  0  0
  147.7218  140.5155  157.3035 C   0  0  0  0  0  0  0  0  0  0  0  0
  148.6690  141.3222  156.8147 N   0  0  0  0  0  0  0  0  0  0  0  0
  149.5602  141.1477  155.6283 C   0  0  1  0  0  0  0  0  0  0  0  0
  150.4947  140.1620  155.9562 O   0  0  0  0  0  0  0  0  0  0  0  0
  150.4891  139.1140  154.9895 C   0  0  1  0  0  0  0  0  0  0  0  0
  150.8340  137.7816  155.6728 C   0  0  0  0  0  0  0  0  0  0  0  0
  151.4438  136.9053  154.7497 O   0  0  0  0  0  0  0  0  0  0  0  0
  149.0684  139.1600  154.4248 C   0  0  2  0  0  0  0  0  0  0  0  0
  148.9510  138.5626  153.1468 O   0  0  0  0  0  0  0  0  0  0  0  0
  148.7626  140.6526  154.4125 C   0  0  2  0  0  0  0  0  0  0  0  0
  149.2051  141.2914  153.2289 O   0  0  0  0  0  0  0  0  0  0  0  0
  148.6863  142.4508  157.5672 N   0  0  0  0  0  0  0  0  0  0  0  0
  150.0278  142.1235  155.4884 H   0  0  0  0  0  0  0  0  0  0  0  0
  151.2034  139.3549  154.1997 H   0  0  0  0  0  0  0  0  0  0  0  0
  148.3849  138.6569  155.1102 H   0  0  0  0  0  0  0  0  0  0  0  0
  147.6966  140.8545  154.5283 H   0  0  0  0  0  0  0  0  0  0  0  0
  147.2286  145.1843  159.9034 H   0  0  0  0  0  0  0  0  0  0  0  0
  147.7456  144.7368  158.2889 H   0  0  0  0  0  0  0  0  0  0  0  0
  147.4891  139.5521  156.8740 H   0  0  0  0  0  0  0  0  0  0  0  0
  151.4815  137.9359  156.5367 H   0  0  0  0  0  0  0  0  0  0  0  0
  149.9258  137.2962  156.0313 H   0  0  0  0  0  0  0  0  0  0  0  0
  151.5554  137.3616  153.9296 H   0  0  0  0  0  0  0  0  0  0  0  0
  149.4199  139.0943  152.5220 H   0  0  0  0  0  0  0  0  0  0  0  0
  149.0822  140.6939  152.5069 H   0  0  0  0  0  0  0  0  0  0  0  0
  1  2  1  0  0  0  0
  1 22  1  0  0  0  0
  1 23  1  0  0  0  0
  2  3  2  0  0  0  0
  2  4  1  0  0  0  0
  4 17  2  0  0  0  0
  4  5  1  0  0  0  0
  5  6  2  0  0  0  0
  6  7  1  0  0  0  0
  6 24  1  0  0  0  0
  7  8  1  0  0  0  0
  7 17  1  0  0  0  0
  8 18  1  0  0  0  0
  8 15  1  0  0  0  0
  8  9  1  0  0  0  0
  9 10  1  0  0  0  0
 10 19  1  0  0  0  0
 10 11  1  0  0  0  0
 10 13  1  0  0  0  0
 11 12  1  0  0  0  0
 11 25  1  0  0  0  0
 11 26  1  0  0  0  0
 12 27  1  0  0  0  0
 13 20  1  0  0  0  0
 13 14  1  0  0  0  0
 13 15  1  0  0  0  0
 14 28  1  0  0  0  0
 15 21  1  0  0  0  0
 15 16  1  0  0  0  0
 16 29  1  0  0  0  0
M  END
> <s_m_source_file>
AV-unprocessed.smi

> <i_m_source_file_index>
160

> <i_lp_mmshare_version>
43012

> <i_f3d_flags>
0

> <s_epik_input>
W05IMl1DKD1PKWMxbltjSF1uKG4xKVtDQEBIXTJPW0NASF0oW0NIMl1bT0hdKVtDQEBIXShbT0hdKVtDQEhdMltPSF0=

> <s_epik_cmdline>
J2VwaWtfcHl0aG9uJywgJy1waCcsICc3LjAnLCAnLXRuJywgJzgnLCAnLW1hJywgJzIwMCcsICctbWV0YWxfYmluZGluZycsICctaW1hZScsICc8aW5maWxlLm1hZT4nLCAnLW9tYWUnLCAnPG91dGZpbGUubWFlPic=

> <r_lp_tautomer_probability>
1

> <r_epik_Ionization_Penalty>
1.06932e-05

> <r_epik_Ionization_Penalty_Charging>
0

> <r_epik_Ionization_Penalty_Neutral>
1.06932e-05

> <r_epik_State_Penalty>
-0

> <r_epik_Charging_Adjusted_Penalty>
0

> <i_epik_Tot_Q>
0

> <i_epik_Tot_abs_Q>
0

> <r_epik_Metal_State_Penalty>
0.0142097

> <b_epik_Metal_Only>
0

> <s_epik_Chemistry_Notes>
This compound contains an acetal/aminal-like group ( X-CH(R)-Y where X, Y are N, S, or O) that may be acid/base labile, releasing an aldehyde.

> <s_lp_Force_Field>
OPLS_2005

> <r_lp_Energy>
39.0504

> <b_lp_Chiralities_Consistent>
1

> <s_lp_Variant>
AV-unprocessed.smi:160-16

> <Gold.Version>
5.8.1

> <Gold.Id.Protein>
6NUR|6NUR_protein|mol2

> <Gold.PLP.Fitness>
40.9913

> <Gold.PLP.PLP>
-23.8712

> <Gold.PLP.part.hbond>
-9.1799

> <Gold.PLP.part.metal>
0.0000

> <Gold.PLP.part.buried>
-5.7011

> <Gold.PLP.part.nonpolar>
-11.8331

> <Gold.PLP.part.repulsive>
1.7368

> <Gold.PLP.ligand.clash>
0.0000

> <Gold.PLP.ligand.torsion>
1.1219

> <Gold.PLP.Chemscore.Hbond>
6.4468

> <Gold.PLP.Chemscore.CHOScore>
0.0000

> <Gold.PLP.Chemscore.Metal>
0.0000

> <Gold.Chemscore.Hbonds>
donor molecule, donor type, donor heavy atom, donor atom, acceptor molecule, acceptor atom, score
      L1  H     1    23       P1  8029  0.90
      L1  H    14    28       P1  7957  1.00
      L1  H    16    29       P1  7957  0.99
      P1  H  6933  6944       L1     3  0.93
      P1  H  6934  6946       L1     3  0.75
      P1  H  8011  8017       L1    16  0.65
      P1  H 10752 10764       L1    12  0.98

> <Gold.PLP.Chemscore.Internal.Correction>
0.0236

> <Gold.Rescore>
     Score         DG    S(hbond)    S(metal)    S(lipo)     H(rot)  DE(clash)    DE(int)     intcor
     11.29     -13.02       4.48        0.00      25.46       4.06       0.56       1.17       ----

> <Gold.Chemscore.Fitness>
11.2861

> <Gold.Chemscore.DG>
-13.0239

> <Gold.Chemscore.ZeroCoef>
-5.4800

> <Gold.Chemscore.Hbond>
4.4785

> <Gold.Chemscore.Metal>
0.0000

> <Gold.Chemscore.Lipo>
25.4639

> <Gold.Chemscore.Internal_Hbond>
0.0000

> <Gold.Chemscore.DEClash>
0.5636

> <Gold.Chemscore.DEInternal>
1.1742

> <Gold.Chemscore.Rot>
4.0600

> <Gold.Chemscore.Internal.Correction>
   9.000000E+99

> <Gold.Chemscore.Hbonds>
donor molecule, donor type, donor heavy atom, donor atom, acceptor molecule, acceptor atom, score
      L1  H     1    23       P1  8029  0.79
      L1  H    14    28       P1  7957  0.95
      L1  H    16    29       P1  7957  0.92
      P1  H  6933  6944       L1     3  0.45
      P1  H  6934  6946       L1     3  0.59
      P1  H  8011  8017       L1    16  0.05
      P1  H 10752 10764       L1    12  0.35

> <Gold.Chemscore.Hbond.Weighted>
-14.9582

> <Gold.Chemscore.Metal.Weighted>
-0.0000

> <Gold.Chemscore.Lipo.Weighted>
-2.9793

> <Gold.Chemscore.Internal_Hbond.Weighted>
0.0000

> <Gold.Chemscore.DEClash.Weighted>
0.5636

> <Gold.Chemscore.DEInternal.Weighted>
1.1742

> <Gold.Chemscore.Rot.Weighted>
10.3936

> <Gold.Chemscore.Internal.Correction.Weighted>
   9.000000E+99

> <Gold.Protein.RotatedTorsions>
[ 6907 6896 6895 6894 ] final  -22.23 input  -60.11 | X-H torsion
[ 7974 7965 7964 7962 ] final    0.74 input  175.53 | X-H torsion
[ 8008 7997 7996 7995 ] final  -76.60 input   59.86 | X-H torsion
[ 10167 10162 10161 10158 ] final   17.18 input  -65.29 | X-H torsion
[ 10718 10713 10712 10709 ] final  -27.17 input   66.30 | X-H torsion
[ 10763 10752 10751 10750 ] final  -48.83 input  -60.55 | X-H torsion
[ 11005 11000 10999 10996 ] final  -33.62 input  -57.11 | X-H torsion

> <Gold.Protein.ActiveResidues>
 VAL166  LYS551  ARG553  GLY616  TRP617  ASP618  TYR619  PRO620  LYS621  CYS622 
 ASP623  PHE694  ASN695  SER759  ASP760  ASP761  ALA762  ILE779  LEU786  VAL792 
 PHE793  MET794  SER795  GLU796  ALA797  LYS798  CYS799  TRP800  GLU811  SER814 

> <Gold.Protein.RotatedAtoms>
  151.2216  135.0521  159.8951 H   0  0  0  0  0  0  0  0  0  0  0  0  # atno 6907 bound_to 6896
  152.5415  134.0634  159.8172 H   0  0  0  0  0  0  0  0  0  0  0  0  # atno 6908 bound_to 6896
  151.0801  133.5348  159.2653 H   0  0  0  0  0  0  0  0  0  0  0  0  # atno 6909 bound_to 6896
  146.2436  140.1093  142.8344 H   0  0  0  0  0  0  0  0  0  0  0  0  # atno 7974 bound_to 7965
  154.5520  140.0724  156.8683 H   0  0  0  0  0  0  0  0  0  0  0  0  # atno 8008 bound_to 7997
  155.2974  140.3382  155.4231 H   0  0  0  0  0  0  0  0  0  0  0  0  # atno 8009 bound_to 7997
  156.1969  140.1707  156.7965 H   0  0  0  0  0  0  0  0  0  0  0  0  # atno 8010 bound_to 7997
  140.5744  143.9100  150.6738 H   0  0  0  0  0  0  0  0  0  0  0  0  # atno 10167 bound_to 10162
  156.4417  130.4465  149.7048 H   0  0  0  0  0  0  0  0  0  0  0  0  # atno 10718 bound_to 10713
  154.0842  135.6586  153.4842 H   0  0  0  0  0  0  0  0  0  0  0  0  # atno 10763 bound_to 10752
  153.0345  135.5187  154.7444 H   0  0  0  0  0  0  0  0  0  0  0  0  # atno 10764 bound_to 10752
  154.6548  135.3006  154.9910 H   0  0  0  0  0  0  0  0  0  0  0  0  # atno 10765 bound_to 10752
  140.9649  133.7142  156.1430 H   0  0  0  0  0  0  0  0  0  0  0  0  # atno 11005 bound_to 11000
  145.0501  140.9011  143.5000 LP  0  0  0  0  0  0  0  0  0  0  0  0  # atno 17320 bound_to 7965
  145.1189  139.2707  143.5599 LP  0  0  0  0  0  0  0  0  0  0  0  0  # atno 17321 bound_to 7965
  140.2583  143.3542  152.1345 LP  0  0  0  0  0  0  0  0  0  0  0  0  # atno 17342 bound_to 10162
  139.5135  144.6933  151.5700 LP  0  0  0  0  0  0  0  0  0  0  0  0  # atno 17343 bound_to 10162
  156.3910  130.7627  151.2628 LP  0  0  0  0  0  0  0  0  0  0  0  0  # atno 17370 bound_to 10713
  157.7506  131.0268  150.3977 LP  0  0  0  0  0  0  0  0  0  0  0  0  # atno 17371 bound_to 10713
  140.7413  134.4147  157.5554 LP  0  0  0  0  0  0  0  0  0  0  0  0  # atno 17394 bound_to 11000
  139.8891  134.8839  156.2438 LP  0  0  0  0  0  0  0  0  0  0  0  0  # atno 17395 bound_to 11000

$$$$
