AV-unprocessed.smi:2339|AV-procd|sdf|9339|dock8
  -GOLD-   2272012563D 1   1.00000     0.00000
 Structure written by MMmdl.
 49 52  0  0  0  0  0  0  0  0  1 V2000
  144.7313  131.7224  150.8855 C   0  0  0  0  0  0  0  0  0  0  0  0
  145.2054  133.0787  150.3514 C   0  0  0  0  0  0  0  0  0  0  0  0
  144.7918  134.1733  151.2175 N   0  0  0  0  0  0  0  0  0  0  0  0
  143.4621  134.3377  151.5899 C   0  0  0  0  0  0  0  0  0  0  0  0
  143.0139  135.3485  152.3587 C   0  0  0  0  0  0  0  0  0  0  0  0
  143.9678  136.3637  152.8483 C   0  0  0  0  0  0  0  0  0  0  0  0
  143.5922  137.2925  153.5632 O   0  0  0  0  0  0  0  0  0  0  0  0
  145.3869  136.2000  152.4344 C   0  0  0  0  0  0  0  0  0  0  0  0
  146.2833  137.1824  152.8883 N   0  0  0  0  0  0  0  0  0  0  0  0
  147.1621  137.1390  153.9108 C   0  0  0  0  0  0  0  0  0  0  0  0
  147.3118  136.1953  154.6831 O   0  0  0  0  0  0  0  0  0  0  0  0
  147.9105  138.2486  154.0313 N   0  0  0  0  0  0  0  0  0  0  0  0
  148.9495  138.5314  155.0217 C   0  0  1  0  0  0  0  0  0  0  0  0
  150.3467  138.4971  154.4010 C   0  0  2  0  0  0  0  0  0  0  0  0
  151.5215  137.5949  154.5302 C   0  0  0  0  0  0  0  0  0  0  0  0
  152.6117  138.6866  154.6935 C   0  0  0  0  0  0  0  0  0  0  0  0
  151.8998  139.9327  154.8884 O   0  0  0  0  0  0  0  0  0  0  0  0
  150.6675  139.5355  155.4548 C   0  0  1  0  0  0  0  0  0  0  0  0
  149.2350  140.0666  155.2527 C   0  0  0  0  0  0  0  0  0  0  0  0
  148.9729  141.0840  154.1311 C   0  0  0  0  0  0  0  0  0  0  0  0
  147.6463  141.7672  154.4546 C   0  0  0  0  0  0  0  0  0  0  0  0
  147.5537  141.7588  155.9792 C   0  0  0  0  0  0  0  0  0  0  0  0
  148.5801  140.7279  156.4670 C   0  0  0  0  0  0  0  0  0  0  0  0
  145.7022  135.1332  151.6556 C   0  0  0  0  0  0  0  0  0  0  0  0
  145.0508  130.9140  150.2279 H   0  0  0  0  0  0  0  0  0  0  0  0
  143.6437  131.6849  150.9554 H   0  0  0  0  0  0  0  0  0  0  0  0
  145.1387  131.5255  151.8777 H   0  0  0  0  0  0  0  0  0  0  0  0
  146.2919  133.0799  150.2562 H   0  0  0  0  0  0  0  0  0  0  0  0
  144.8112  133.2394  149.3472 H   0  0  0  0  0  0  0  0  0  0  0  0
  142.7965  133.5744  151.2133 H   0  0  0  0  0  0  0  0  0  0  0  0
  141.9708  135.4345  152.6256 H   0  0  0  0  0  0  0  0  0  0  0  0
  146.2757  138.0354  152.3477 H   0  0  0  0  0  0  0  0  0  0  0  0
  147.7397  138.9802  153.3565 H   0  0  0  0  0  0  0  0  0  0  0  0
  148.8742  137.9387  155.9380 H   0  0  0  0  0  0  0  0  0  0  0  0
  150.3243  138.9196  153.3921 H   0  0  0  0  0  0  0  0  0  0  0  0
  151.4496  136.9540  155.4101 H   0  0  0  0  0  0  0  0  0  0  0  0
  151.6788  136.9744  153.6478 H   0  0  0  0  0  0  0  0  0  0  0  0
  153.2497  138.4733  155.5520 H   0  0  0  0  0  0  0  0  0  0  0  0
  153.2460  138.7642  153.8102 H   0  0  0  0  0  0  0  0  0  0  0  0
  150.8158  139.1207  156.4584 H   0  0  0  0  0  0  0  0  0  0  0  0
  149.7686  141.8301  154.1183 H   0  0  0  0  0  0  0  0  0  0  0  0
  148.9421  140.6429  153.1351 H   0  0  0  0  0  0  0  0  0  0  0  0
  147.5826  142.7722  154.0369 H   0  0  0  0  0  0  0  0  0  0  0  0
  146.8235  141.1867  154.0364 H   0  0  0  0  0  0  0  0  0  0  0  0
  147.7957  142.7433  156.3810 H   0  0  0  0  0  0  0  0  0  0  0  0
  146.5443  141.5108  156.3099 H   0  0  0  0  0  0  0  0  0  0  0  0
  148.1098  139.9910  157.1168 H   0  0  0  0  0  0  0  0  0  0  0  0
  149.3337  141.2302  157.0751 H   0  0  0  0  0  0  0  0  0  0  0  0
  146.7019  134.9322  151.3069 H   0  0  0  0  0  0  0  0  0  0  0  0
  1  2  1  0  0  0  0
  1 25  1  0  0  0  0
  1 26  1  0  0  0  0
  1 27  1  0  0  0  0
  2  3  1  0  0  0  0
  2 28  1  0  0  0  0
  2 29  1  0  0  0  0
  3 24  1  0  0  0  0
  3  4  1  0  0  0  0
  4  5  2  0  0  0  0
  4 30  1  0  0  0  0
  5  6  1  0  0  0  0
  5 31  1  0  0  0  0
  6  7  2  0  0  0  0
  6  8  1  0  0  0  0
  8  9  1  0  0  0  0
  8 24  2  0  0  0  0
  9 10  1  0  0  0  0
  9 32  1  0  0  0  0
 10 11  2  0  0  0  0
 10 12  1  0  0  0  0
 12 13  1  0  0  0  0
 12 33  1  0  0  0  0
 13 19  1  0  0  0  0
 13 14  1  0  0  0  0
 13 34  1  0  0  0  0
 14 18  1  0  0  0  0
 14 15  1  0  0  0  0
 14 35  1  0  0  0  0
 15 16  1  0  0  0  0
 15 36  1  0  0  0  0
 15 37  1  0  0  0  0
 16 17  1  0  0  0  0
 16 38  1  0  0  0  0
 16 39  1  0  0  0  0
 17 18  1  0  0  0  0
 18 19  1  0  0  0  0
 18 40  1  0  0  0  0
 19 23  1  0  0  0  0
 19 20  1  0  0  0  0
 20 21  1  0  0  0  0
 20 41  1  0  0  0  0
 20 42  1  0  0  0  0
 21 22  1  0  0  0  0
 21 43  1  0  0  0  0
 21 44  1  0  0  0  0
 22 23  1  0  0  0  0
 22 45  1  0  0  0  0
 22 46  1  0  0  0  0
 23 47  1  0  0  0  0
 23 48  1  0  0  0  0
 24 49  1  0  0  0  0
M  END
> <s_m_source_file>
AV-unprocessed.smi

> <i_m_source_file_index>
2339

> <i_lp_mmshare_version>
43012

> <i_f3d_flags>
0

> <s_epik_input>
W0NIM11bQ0gyXW4xW2NIXVtjSF1jKD1PKWMoW2NIXTEpW05IXUMoPU8pW05IXVtDQEBIXTJbQ0BASF0oW0NIMl1bQ0gyXU8zKVtDQEBIXTNDMjRbQ0gyXVtDSDJdW0NIMl1bQ0gyXTQ=

> <s_epik_cmdline>
J2VwaWtfcHl0aG9uJywgJy1waCcsICc3LjAnLCAnLXRuJywgJzgnLCAnLW1hJywgJzIwMCcsICctbWV0YWxfYmluZGluZycsICctaW1hZScsICc8aW5maWxlLm1hZT4nLCAnLW9tYWUnLCAnPG91dGZpbGUubWFlPic=

> <r_lp_tautomer_probability>
1

> <r_epik_Ionization_Penalty>
0.00145966

> <r_epik_Ionization_Penalty_Charging>
0.00143969

> <r_epik_Ionization_Penalty_Neutral>
1.99697e-05

> <r_epik_State_Penalty>
0.000961843

> <r_epik_Charging_Adjusted_Penalty>
0.00240153

> <i_epik_Tot_Q>
0

> <i_epik_Tot_abs_Q>
0

> <r_epik_Metal_State_Penalty>
-0

> <b_epik_Metal_Only>
0

> <s_lp_Force_Field>
OPLS_2005

> <r_lp_Energy>
78.6826

> <b_lp_Chiralities_Consistent>
1

> <s_lp_Variant>
AV-unprocessed.smi:2339-4

> <Gold.Version>
5.8.1

> <Gold.Id.Protein>
6NUR|6NUR_protein|mol2

> <Gold.PLP.Fitness>
44.0686

> <Gold.PLP.PLP>
-38.5620

> <Gold.PLP.part.hbond>
-2.7394

> <Gold.PLP.part.metal>
0.0000

> <Gold.PLP.part.buried>
-3.1684

> <Gold.PLP.part.nonpolar>
-34.2855

> <Gold.PLP.part.repulsive>
0.3126

> <Gold.PLP.ligand.clash>
0.0000

> <Gold.PLP.ligand.torsion>
1.0195

> <Gold.PLP.Chemscore.Hbond>
0.8960

> <Gold.PLP.Chemscore.CHOScore>
1.5229

> <Gold.PLP.Chemscore.Metal>
0.0000

> <Gold.Chemscore.Hbonds>
donor molecule, donor type, donor heavy atom, donor atom, acceptor molecule, acceptor atom, score
      P1  H  7989  7998       L1    17  0.93
      L1  C     4    30       P1 10186  0.61
      L1  C    24    49       P1  7948  0.81

> <Gold.PLP.Chemscore.Internal.Correction>
0.2889

> <Gold.Rescore>
     Score         DG    S(hbond)    S(metal)    S(lipo)     H(rot)  DE(clash)    DE(int)     intcor
     14.62     -16.06       0.70        0.00      95.91       1.17       0.44       1.00       ----

> <Gold.Chemscore.Fitness>
14.6157

> <Gold.Chemscore.DG>
-16.0573

> <Gold.Chemscore.ZeroCoef>
-5.4800

> <Gold.Chemscore.Hbond>
0.7016

> <Gold.Chemscore.Metal>
0.0000

> <Gold.Chemscore.Lipo>
95.9104

> <Gold.Chemscore.Internal_Hbond>
0.0000

> <Gold.Chemscore.DEClash>
0.4385

> <Gold.Chemscore.DEInternal>
1.0032

> <Gold.Chemscore.Rot>
1.1670

> <Gold.Chemscore.Internal.Correction>
   9.000000E+99

> <Gold.Chemscore.Hbonds>
donor molecule, donor type, donor heavy atom, donor atom, acceptor molecule, acceptor atom, score
      P1  H  7989  7998       L1    17  0.68

> <Gold.Chemscore.Hbond.Weighted>
-2.3432

> <Gold.Chemscore.Metal.Weighted>
-0.0000

> <Gold.Chemscore.Lipo.Weighted>
-11.2215

> <Gold.Chemscore.Internal_Hbond.Weighted>
0.0000

> <Gold.Chemscore.DEClash.Weighted>
0.4385

> <Gold.Chemscore.DEInternal.Weighted>
1.0032

> <Gold.Chemscore.Rot.Weighted>
2.9874

> <Gold.Chemscore.Internal.Correction.Weighted>
   9.000000E+99

> <Gold.Protein.RotatedTorsions>
[ 6907 6896 6895 6894 ] final  119.50 input  -60.11 | X-H torsion
[ 7974 7965 7964 7962 ] final  -54.04 input  175.53 | X-H torsion
[ 8008 7997 7996 7995 ] final   44.64 input   59.86 | X-H torsion
[ 10167 10162 10161 10158 ] final   59.26 input  -65.29 | X-H torsion
[ 10718 10713 10712 10709 ] final    4.48 input   66.30 | X-H torsion
[ 10763 10752 10751 10750 ] final -164.07 input  -60.55 | X-H torsion
[ 11005 11000 10999 10996 ] final  -51.89 input  -57.11 | X-H torsion

> <Gold.Protein.ActiveResidues>
 VAL166  LYS551  ARG553  GLY616  TRP617  ASP618  TYR619  PRO620  LYS621  CYS622 
 ASP623  PHE694  ASN695  SER759  ASP760  ASP761  ALA762  ILE779  LEU786  VAL792 
 PHE793  MET794  SER795  GLU796  ALA797  LYS798  CYS799  TRP800  GLU811  SER814 

> <Gold.Protein.RotatedAtoms>
  152.4467  133.7550  159.6714 H   0  0  0  0  0  0  0  0  0  0  0  0  # atno 6907 bound_to 6896
  150.8369  133.7989  159.3082 H   0  0  0  0  0  0  0  0  0  0  0  0  # atno 6908 bound_to 6896
  151.5626  135.1067  160.0028 H   0  0  0  0  0  0  0  0  0  0  0  0  # atno 6909 bound_to 6896
  145.8901  140.8077  142.9796 H   0  0  0  0  0  0  0  0  0  0  0  0  # atno 7974 bound_to 7965
  155.3226  140.3398  155.4241 H   0  0  0  0  0  0  0  0  0  0  0  0  # atno 8008 bound_to 7997
  156.1901  140.1694  156.8145 H   0  0  0  0  0  0  0  0  0  0  0  0  # atno 8009 bound_to 7997
  154.5432  140.0720  156.8529 H   0  0  0  0  0  0  0  0  0  0  0  0  # atno 8010 bound_to 7997
  140.1783  144.4207  150.6627 H   0  0  0  0  0  0  0  0  0  0  0  0  # atno 10167 bound_to 10162
  156.8932  130.5695  149.5649 H   0  0  0  0  0  0  0  0  0  0  0  0  # atno 10718 bound_to 10713
  154.7063  135.2997  154.9265 H   0  0  0  0  0  0  0  0  0  0  0  0  # atno 10763 bound_to 10752
  154.0181  135.6686  153.4774 H   0  0  0  0  0  0  0  0  0  0  0  0  # atno 10764 bound_to 10752
  153.0720  135.5056  154.8235 H   0  0  0  0  0  0  0  0  0  0  0  0  # atno 10765 bound_to 10752
  141.0895  133.6635  156.3944 H   0  0  0  0  0  0  0  0  0  0  0  0  # atno 11005 bound_to 11000
  144.6730  140.1516  143.7429 LP  0  0  0  0  0  0  0  0  0  0  0  0  # atno 17320 bound_to 7965
  145.8919  139.2380  143.1544 LP  0  0  0  0  0  0  0  0  0  0  0  0  # atno 17321 bound_to 7965
  140.6536  143.2231  151.6019 LP  0  0  0  0  0  0  0  0  0  0  0  0  # atno 17342 bound_to 10162
  139.5307  144.2924  152.1141 LP  0  0  0  0  0  0  0  0  0  0  0  0  # atno 17343 bound_to 10162
  156.0618  130.5669  150.9209 LP  0  0  0  0  0  0  0  0  0  0  0  0  # atno 17370 bound_to 10713
  157.6071  131.0938  150.8860 LP  0  0  0  0  0  0  0  0  0  0  0  0  # atno 17371 bound_to 10713
  140.5285  134.6236  157.5342 LP  0  0  0  0  0  0  0  0  0  0  0  0  # atno 17394 bound_to 11000
  139.9719  134.7279  156.0025 LP  0  0  0  0  0  0  0  0  0  0  0  0  # atno 17395 bound_to 11000

$$$$
