AV-unprocessed.smi:1487|AV-procd|sdf|6010|dock9
  -GOLD-   22720 6113D 1   1.00000     0.00000
 Structure written by MMmdl.
 48 50  0  0  0  0  0  0  0  0  2 V2000
  152.0767  143.7288  160.5503 C   0  0  0  0  0  0  0  0  0  0  0  0
  152.0269  142.6872  159.4463 C   0  0  0  0  0  0  0  0  0  0  0  0
  151.2109  142.9227  158.3170 C   0  0  0  0  0  0  0  0  0  0  0  0
  151.1373  141.9808  157.2678 C   0  0  0  0  0  0  0  0  0  0  0  0
  150.4143  142.0045  156.0875 N   0  0  0  0  0  0  0  0  0  0  0  0
  150.7670  140.8486  155.5332 C   0  0  0  0  0  0  0  0  0  0  0  0
  151.6304  140.0744  156.2188 N   0  0  0  0  0  0  0  0  0  0  0  0
  152.1545  138.7806  155.8194 C   0  0  0  0  0  0  0  0  0  0  0  0
  151.3050  138.1119  154.7217 C   0  0  1  0  0  0  0  0  0  0  0  0
  152.1324  137.2797  153.9314 O   0  0  0  0  0  0  0  0  0  0  0  0
  150.1751  137.2540  155.3246 C   0  0  0  0  0  0  0  0  0  0  0  0
  148.9498  137.2462  154.4847 N   0  3  2  0  0  0  0  0  0  0  0  0
  148.4217  138.6062  154.1977 C   0  0  0  0  0  0  0  0  0  0  0  0
  147.2598  138.5446  153.1941 C   0  0  0  0  0  0  0  0  0  0  0  0
  146.1373  137.6310  153.7060 C   0  0  0  0  0  0  0  0  0  0  0  0
  146.6844  136.2452  154.0870 C   0  0  1  0  0  0  0  0  0  0  0  0
  147.0480  135.5206  152.9285 O   0  0  0  0  0  0  0  0  0  0  0  0
  147.8970  136.3501  155.0327 C   0  0  0  0  0  0  0  0  0  0  0  0
  151.9091  140.7873  157.3799 C   0  0  0  0  0  0  0  0  0  0  0  0
  152.7254  140.5417  158.4981 C   0  0  0  0  0  0  0  0  0  0  0  0
  152.7869  141.4933  159.5376 C   0  0  0  0  0  0  0  0  0  0  0  0
  153.6699  141.2197  160.7423 C   0  0  0  0  0  0  0  0  0  0  0  0
  151.3958  144.5561  160.3481 H   0  0  0  0  0  0  0  0  0  0  0  0
  153.0831  144.1380  160.6420 H   0  0  0  0  0  0  0  0  0  0  0  0
  151.7924  143.2895  161.5067 H   0  0  0  0  0  0  0  0  0  0  0  0
  150.6328  143.8322  158.2463 H   0  0  0  0  0  0  0  0  0  0  0  0
  150.3717  140.5446  154.5748 H   0  0  0  0  0  0  0  0  0  0  0  0
  153.1835  138.9112  155.4803 H   0  0  0  0  0  0  0  0  0  0  0  0
  152.1966  138.1439  156.7040 H   0  0  0  0  0  0  0  0  0  0  0  0
  150.8939  138.8900  154.0793 H   0  0  0  0  0  0  0  0  0  0  0  0
  151.6683  137.0625  153.1364 H   0  0  0  0  0  0  0  0  0  0  0  0
  150.5472  136.2351  155.4445 H   0  0  0  0  0  0  0  0  0  0  0  0
  149.9209  137.6025  156.3269 H   0  0  0  0  0  0  0  0  0  0  0  0
  148.0917  139.0738  155.1268 H   0  0  0  0  0  0  0  0  0  0  0  0
  149.2056  139.2420  153.7883 H   0  0  0  0  0  0  0  0  0  0  0  0
  146.8689  139.5469  153.0151 H   0  0  0  0  0  0  0  0  0  0  0  0
  147.6247  138.1803  152.2328 H   0  0  0  0  0  0  0  0  0  0  0  0
  145.6797  138.0882  154.5842 H   0  0  0  0  0  0  0  0  0  0  0  0
  145.3470  137.5417  152.9594 H   0  0  0  0  0  0  0  0  0  0  0  0
  145.8969  135.6752  154.5812 H   0  0  0  0  0  0  0  0  0  0  0  0
  147.8132  135.9247  152.5474 H   0  0  0  0  0  0  0  0  0  0  0  0
  148.3068  135.3546  155.2106 H   0  0  0  0  0  0  0  0  0  0  0  0
  147.5762  136.7339  156.0027 H   0  0  0  0  0  0  0  0  0  0  0  0
  153.2997  139.6290  158.5549 H   0  0  0  0  0  0  0  0  0  0  0  0
  154.2090  140.2781  160.6357 H   0  0  0  0  0  0  0  0  0  0  0  0
  153.0686  141.1605  161.6498 H   0  0  0  0  0  0  0  0  0  0  0  0
  154.4065  142.0141  160.8657 H   0  0  0  0  0  0  0  0  0  0  0  0
  149.2200  136.8411  153.5990 H   0  0  0  0  0  0  0  0  0  0  0  0
  1  2  1  0  0  0  0
  1 23  1  0  0  0  0
  1 24  1  0  0  0  0
  1 25  1  0  0  0  0
  2 21  1  0  0  0  0
  2  3  2  0  0  0  0
  3  4  1  0  0  0  0
  3 26  1  0  0  0  0
  4 19  2  0  0  0  0
  4  5  1  0  0  0  0
  5  6  2  0  0  0  0
  6  7  1  0  0  0  0
  6 27  1  0  0  0  0
  7  8  1  0  0  0  0
  7 19  1  0  0  0  0
  8  9  1  0  0  0  0
  8 28  1  0  0  0  0
  8 29  1  0  0  0  0
  9 10  1  0  0  0  0
  9 11  1  0  0  0  0
  9 30  1  0  0  0  0
 10 31  1  0  0  0  0
 11 12  1  0  0  0  0
 11 32  1  0  0  0  0
 11 33  1  0  0  0  0
 12 18  1  0  0  0  0
 12 13  1  0  0  0  0
 12 48  1  0  0  0  0
 13 14  1  0  0  0  0
 13 34  1  0  0  0  0
 13 35  1  0  0  0  0
 14 15  1  0  0  0  0
 14 36  1  0  0  0  0
 14 37  1  0  0  0  0
 15 16  1  0  0  0  0
 15 38  1  0  0  0  0
 15 39  1  0  0  0  0
 16 17  1  0  0  0  0
 16 18  1  0  0  0  0
 16 40  1  0  0  0  0
 17 41  1  0  0  0  0
 18 42  1  0  0  0  0
 18 43  1  0  0  0  0
 19 20  1  0  0  0  0
 20 21  2  0  0  0  0
 20 44  1  0  0  0  0
 21 22  1  0  0  0  0
 22 45  1  0  0  0  0
 22 46  1  0  0  0  0
 22 47  1  0  0  0  0
M  CHG  1  12   1
M  END
> <s_m_source_file>
AV-unprocessed.smi

> <i_m_source_file_index>
1487

> <i_lp_mmshare_version>
43012

> <i_f3d_flags>
0

> <s_epik_input>
W0NIM11jKFtjSF0xKWMoW0NIM10pW2NIXWMoYzEyKW4oW2NIXW4yKVtDSDJdW0NASF0oW09IXSlbQ0gyXU4zW0NIMl1bQ0gyXVtDSDJdW0NAQEhdKFtPSF0pW0NIMl0z

> <s_epik_cmdline>
J2VwaWtfcHl0aG9uJywgJy1waCcsICc3LjAnLCAnLXRuJywgJzgnLCAnLW1hJywgJzIwMCcsICctbWV0YWxfYmluZGluZycsICctaW1hZScsICc8aW5maWxlLm1hZT4nLCAnLW9tYWUnLCAnPG91dGZpbGUubWFlPic=

> <r_epik_Ionization_Penalty>
0.0940186

> <r_epik_Ionization_Penalty_Charging>
0.00679686

> <r_epik_Ionization_Penalty_Neutral>
0.0872218

> <r_epik_State_Penalty>
0.0799311

> <r_epik_Charging_Adjusted_Penalty>
0.086728

> <i_epik_Tot_Q>
1

> <i_epik_Tot_abs_Q>
1

> <r_epik_Metal_State_Penalty>
7.95545e-05

> <b_epik_Metal_Only>
0

> <s_lp_Force_Field>
OPLS_2005

> <r_lp_Energy>
21.7982

> <b_lp_Chiralities_Consistent>
1

> <s_lp_Variant>
AV-unprocessed.smi:1487-4

> <Gold.Version>
5.8.1

> <Gold.Id.Protein>
6NUR|6NUR_protein|mol2

> <Gold.PLP.Fitness>
52.9700

> <Gold.PLP.PLP>
-40.0208

> <Gold.PLP.part.hbond>
-3.9519

> <Gold.PLP.part.metal>
0.0000

> <Gold.PLP.part.buried>
-4.7545

> <Gold.PLP.part.nonpolar>
-31.4897

> <Gold.PLP.part.repulsive>
0.2161

> <Gold.PLP.ligand.clash>
0.0000

> <Gold.PLP.ligand.torsion>
1.0462

> <Gold.PLP.Chemscore.Hbond>
5.0000

> <Gold.PLP.Chemscore.CHOScore>
0.0000

> <Gold.PLP.Chemscore.Metal>
0.0000

> <Gold.Chemscore.Hbonds>
donor molecule, donor type, donor heavy atom, donor atom, acceptor molecule, acceptor atom, score
      L1  H    10    31       P1  7949  1.00
      L1  H    12    48       P1  7948  2.00
      L1  H    17    41       P1  7948  0.57
      P1  H 10752 10764       L1    10  0.77

> <Gold.PLP.Chemscore.Internal.Correction>
0.0415

> <Gold.Rescore>
     Score         DG    S(hbond)    S(metal)    S(lipo)     H(rot)  DE(clash)    DE(int)     intcor
     22.00     -22.88       3.54        0.00     105.98       2.67       0.07       0.81       ----

> <Gold.Chemscore.Fitness>
21.9962

> <Gold.Chemscore.DG>
-22.8787

> <Gold.Chemscore.ZeroCoef>
-5.4800

> <Gold.Chemscore.Hbond>
3.5441

> <Gold.Chemscore.Metal>
0.0000

> <Gold.Chemscore.Lipo>
105.9793

> <Gold.Chemscore.Internal_Hbond>
0.0000

> <Gold.Chemscore.DEClash>
0.0739

> <Gold.Chemscore.DEInternal>
0.8086

> <Gold.Chemscore.Rot>
2.6712

> <Gold.Chemscore.Internal.Correction>
   9.000000E+99

> <Gold.Chemscore.Hbonds>
donor molecule, donor type, donor heavy atom, donor atom, acceptor molecule, acceptor atom, score
      L1  H    10    31       P1  7949  0.90
      L1  H    12    48       P1  7948  0.97
      L1  H    17    41       P1  7948  0.56
      P1  H 10752 10764       L1    10  0.11

> <Gold.Chemscore.Hbond.Weighted>
-11.8375

> <Gold.Chemscore.Metal.Weighted>
-0.0000

> <Gold.Chemscore.Lipo.Weighted>
-12.3996

> <Gold.Chemscore.Internal_Hbond.Weighted>
0.0000

> <Gold.Chemscore.DEClash.Weighted>
0.0739

> <Gold.Chemscore.DEInternal.Weighted>
0.8086

> <Gold.Chemscore.Rot.Weighted>
6.8383

> <Gold.Chemscore.Internal.Correction.Weighted>
   9.000000E+99

> <Gold.Protein.RotatedTorsions>
[ 6907 6896 6895 6894 ] final  -75.13 input  -60.11 | X-H torsion
[ 7974 7965 7964 7962 ] final  -80.68 input  175.53 | X-H torsion
[ 8008 7997 7996 7995 ] final  175.45 input   59.86 | X-H torsion
[ 10167 10162 10161 10158 ] final  -55.44 input  -65.29 | X-H torsion
[ 10718 10713 10712 10709 ] final  -73.08 input   66.30 | X-H torsion
[ 10763 10752 10751 10750 ] final  -89.87 input  -60.55 | X-H torsion
[ 11005 11000 10999 10996 ] final  -22.23 input  -57.11 | X-H torsion

> <Gold.Protein.ActiveResidues>
 VAL166  LYS551  ARG553  GLY616  TRP617  ASP618  TYR619  PRO620  LYS621  CYS622 
 ASP623  PHE694  ASN695  SER759  ASP760  ASP761  ALA762  ILE779  LEU786  VAL792 
 PHE793  MET794  SER795  GLU796  ALA797  LYS798  CYS799  TRP800  GLU811  SER814 

> <Gold.Protein.RotatedAtoms>
  150.7069  134.4766  159.5450 H   0  0  0  0  0  0  0  0  0  0  0  0  # atno 6907 bound_to 6896
  152.2412  134.8224  160.0469 H   0  0  0  0  0  0  0  0  0  0  0  0  # atno 6908 bound_to 6896
  151.9005  133.3502  159.3866 H   0  0  0  0  0  0  0  0  0  0  0  0  # atno 6909 bound_to 6896
  145.5567  140.9488  143.1470 H   0  0  0  0  0  0  0  0  0  0  0  0  # atno 7974 bound_to 7965
  156.0869  140.1408  156.9642 H   0  0  0  0  0  0  0  0  0  0  0  0  # atno 8008 bound_to 7997
  154.4618  140.0940  156.6962 H   0  0  0  0  0  0  0  0  0  0  0  0  # atno 8009 bound_to 7997
  155.4984  140.3450  155.4369 H   0  0  0  0  0  0  0  0  0  0  0  0  # atno 8010 bound_to 7997
  140.6374  143.2489  151.5081 H   0  0  0  0  0  0  0  0  0  0  0  0  # atno 10167 bound_to 10162
  156.0294  130.4386  150.2689 H   0  0  0  0  0  0  0  0  0  0  0  0  # atno 10718 bound_to 10713
  154.6598  135.5325  153.8004 H   0  0  0  0  0  0  0  0  0  0  0  0  # atno 10763 bound_to 10752
  153.0435  135.6503  154.0888 H   0  0  0  0  0  0  0  0  0  0  0  0  # atno 10764 bound_to 10752
  154.0798  135.2948  155.3272 H   0  0  0  0  0  0  0  0  0  0  0  0  # atno 10765 bound_to 10752
  140.8637  133.7770  156.0105 H   0  0  0  0  0  0  0  0  0  0  0  0  # atno 11005 bound_to 11000
  144.7503  139.7212  143.7276 LP  0  0  0  0  0  0  0  0  0  0  0  0  # atno 17320 bound_to 7965
  146.1880  139.5105  142.9824 LP  0  0  0  0  0  0  0  0  0  0  0  0  # atno 17321 bound_to 7965
  139.5584  144.2218  152.1651 LP  0  0  0  0  0  0  0  0  0  0  0  0  # atno 17342 bound_to 10162
  140.1478  144.5142  150.6705 LP  0  0  0  0  0  0  0  0  0  0  0  0  # atno 17343 bound_to 10162
  157.0792  131.0138  151.3162 LP  0  0  0  0  0  0  0  0  0  0  0  0  # atno 17370 bound_to 10713
  157.4940  130.7839  149.7536 LP  0  0  0  0  0  0  0  0  0  0  0  0  # atno 17371 bound_to 10713
  140.8653  134.2791  157.5216 LP  0  0  0  0  0  0  0  0  0  0  0  0  # atno 17394 bound_to 11000
  139.8708  134.9539  156.4160 LP  0  0  0  0  0  0  0  0  0  0  0  0  # atno 17395 bound_to 11000

$$$$
