AV-unprocessed.smi:1830|AV-procd|sdf|7441|dock5
  -GOLD-   22720 9133D 1   1.00000     0.00000
 Structure written by MMmdl.
 52 55  0  0  0  0  0  0  0  0  1 V2000
  150.4998  134.8262  156.1158 O   0  0  0  0  0  0  0  0  0  0  0  0
  149.9630  135.2021  155.0736 C   0  0  0  0  0  0  0  0  0  0  0  0
  150.0683  136.4489  154.5951 N   0  0  0  0  0  0  0  0  0  0  0  0
  150.8124  137.5298  155.2312 C   0  0  0  0  0  0  0  0  0  0  0  0
  150.5972  138.8760  154.5063 C   0  0  1  0  0  0  0  0  0  0  0  0
  149.1973  139.4784  154.7707 C   0  0  0  0  0  0  0  0  0  0  0  0
  149.1242  140.0339  156.1091 N   0  0  0  0  0  0  0  0  0  0  0  0
  147.9004  140.7127  156.4659 C   0  0  0  0  0  0  0  0  0  0  0  0
  148.2662  141.5190  157.7237 C   0  0  0  0  0  0  0  0  0  0  0  0
  149.8056  141.6374  157.6705 C   0  0  0  0  0  0  0  0  0  0  0  0
  150.1477  141.0230  156.3116 C   0  0  1  0  0  0  0  0  0  0  0  0
  151.5423  140.4047  156.1464 C   0  0  0  0  0  0  0  0  0  0  0  0
  151.6257  139.8224  154.8416 O   0  0  0  0  0  0  0  0  0  0  0  0
  149.1859  134.4445  154.2821 N   0  0  0  0  0  0  0  0  0  0  0  0
  148.8329  133.0736  154.4371 C   0  0  0  0  0  0  0  0  0  0  0  0
  149.6500  132.1529  155.1378 C   0  0  0  0  0  0  0  0  0  0  0  0
  149.2434  130.8106  155.2375 C   0  0  0  0  0  0  0  0  0  0  0  0
  148.0366  130.4321  154.6246 C   0  0  0  0  0  0  0  0  0  0  0  0
  147.2561  131.2919  153.9395 N   0  0  0  0  0  0  0  0  0  0  0  0
  147.6367  132.5894  153.8416 C   0  0  0  0  0  0  0  0  0  0  0  0
  146.8153  133.4569  153.0914 N   0  0  0  0  0  0  0  0  0  0  0  0
  146.7928  133.1532  151.6633 C   0  0  0  0  0  0  0  0  0  0  0  0
  145.3715  133.4489  151.1811 C   0  0  0  0  0  0  0  0  0  0  0  0
  144.5314  133.2161  152.4304 C   0  0  0  0  0  0  0  0  0  0  0  0
  145.4494  133.7184  153.5437 C   0  0  0  0  0  0  0  0  0  0  0  0
  149.5870  136.6731  153.7365 H   0  0  0  0  0  0  0  0  0  0  0  0
  150.5161  137.6157  156.2781 H   0  0  0  0  0  0  0  0  0  0  0  0
  151.8675  137.2574  155.2407 H   0  0  0  0  0  0  0  0  0  0  0  0
  150.6784  138.6925  153.4343 H   0  0  0  0  0  0  0  0  0  0  0  0
  149.0002  140.2627  154.0386 H   0  0  0  0  0  0  0  0  0  0  0  0
  148.4239  138.7219  154.6331 H   0  0  0  0  0  0  0  0  0  0  0  0
  147.5990  141.3909  155.6658 H   0  0  0  0  0  0  0  0  0  0  0  0
  147.0853  140.0094  156.6392 H   0  0  0  0  0  0  0  0  0  0  0  0
  147.7794  142.4946  157.7210 H   0  0  0  0  0  0  0  0  0  0  0  0
  147.9574  140.9923  158.6276 H   0  0  0  0  0  0  0  0  0  0  0  0
  150.1520  142.6677  157.7548 H   0  0  0  0  0  0  0  0  0  0  0  0
  150.2543  141.0604  158.4802 H   0  0  0  0  0  0  0  0  0  0  0  0
  150.0353  141.8046  155.5572 H   0  0  0  0  0  0  0  0  0  0  0  0
  152.3148  141.1672  156.2469 H   0  0  0  0  0  0  0  0  0  0  0  0
  151.7341  139.6520  156.9118 H   0  0  0  0  0  0  0  0  0  0  0  0
  148.7299  134.9228  153.5190 H   0  0  0  0  0  0  0  0  0  0  0  0
  150.5857  132.4475  155.5868 H   0  0  0  0  0  0  0  0  0  0  0  0
  149.8456  130.0875  155.7673 H   0  0  0  0  0  0  0  0  0  0  0  0
  147.6925  129.4099  154.6780 H   0  0  0  0  0  0  0  0  0  0  0  0
  147.5270  133.7500  151.1219 H   0  0  0  0  0  0  0  0  0  0  0  0
  147.0306  132.1008  151.4987 H   0  0  0  0  0  0  0  0  0  0  0  0
  145.2930  134.4928  150.8745 H   0  0  0  0  0  0  0  0  0  0  0  0
  145.0700  132.8252  150.3391 H   0  0  0  0  0  0  0  0  0  0  0  0
  143.5719  133.7328  152.4053 H   0  0  0  0  0  0  0  0  0  0  0  0
  144.3415  132.1494  152.5571 H   0  0  0  0  0  0  0  0  0  0  0  0
  145.1987  133.2742  154.5069 H   0  0  0  0  0  0  0  0  0  0  0  0
  145.3400  134.7974  153.6563 H   0  0  0  0  0  0  0  0  0  0  0  0
  1  2  2  0  0  0  0
  2  3  1  0  0  0  0
  2 14  1  0  0  0  0
  3  4  1  0  0  0  0
  3 26  1  0  0  0  0
  4  5  1  0  0  0  0
  4 27  1  0  0  0  0
  4 28  1  0  0  0  0
  5 13  1  0  0  0  0
  5  6  1  0  0  0  0
  5 29  1  0  0  0  0
  6  7  1  0  0  0  0
  6 30  1  0  0  0  0
  6 31  1  0  0  0  0
  7 11  1  0  0  0  0
  7  8  1  0  0  0  0
  8  9  1  0  0  0  0
  8 32  1  0  0  0  0
  8 33  1  0  0  0  0
  9 10  1  0  0  0  0
  9 34  1  0  0  0  0
  9 35  1  0  0  0  0
 10 11  1  0  0  0  0
 10 36  1  0  0  0  0
 10 37  1  0  0  0  0
 11 12  1  0  0  0  0
 11 38  1  0  0  0  0
 12 13  1  0  0  0  0
 12 39  1  0  0  0  0
 12 40  1  0  0  0  0
 14 15  1  0  0  0  0
 14 41  1  0  0  0  0
 15 20  1  0  0  0  0
 15 16  2  0  0  0  0
 16 17  1  0  0  0  0
 16 42  1  0  0  0  0
 17 18  2  0  0  0  0
 17 43  1  0  0  0  0
 18 19  1  0  0  0  0
 18 44  1  0  0  0  0
 19 20  2  0  0  0  0
 20 21  1  0  0  0  0
 21 25  1  0  0  0  0
 21 22  1  0  0  0  0
 22 23  1  0  0  0  0
 22 45  1  0  0  0  0
 22 46  1  0  0  0  0
 23 24  1  0  0  0  0
 23 47  1  0  0  0  0
 23 48  1  0  0  0  0
 24 25  1  0  0  0  0
 24 49  1  0  0  0  0
 24 50  1  0  0  0  0
 25 51  1  0  0  0  0
 25 52  1  0  0  0  0
M  END
> <s_m_source_file>
AV-unprocessed.smi

> <i_m_source_file_index>
1830

> <i_lp_mmshare_version>
43012

> <i_f3d_flags>
0

> <s_epik_input>
W0NIMl0xW0NIMl1bQ0gyXVtDQEhdKE4xMilbQ0gyXU9bQ0BASF0oW0NIMl0yKVtDSDJdW05IXUMoPU8pW05IXWMzW2NIXVtjSF1bY0hdbmMzTjRbQ0gyXVtDSDJdW0NIMl1bQ0gyXTQ=

> <s_epik_cmdline>
J2VwaWtfcHl0aG9uJywgJy1waCcsICc3LjAnLCAnLXRuJywgJzgnLCAnLW1hJywgJzIwMCcsICctbWV0YWxfYmluZGluZycsICctaW1hZScsICc8aW5maWxlLm1hZT4nLCAnLW9tYWUnLCAnPG91dGZpbGUubWFlPic=

> <r_lp_tautomer_probability>
1

> <r_epik_Ionization_Penalty>
1.16487

> <r_epik_Ionization_Penalty_Charging>
0

> <r_epik_Ionization_Penalty_Neutral>
1.16487

> <r_epik_State_Penalty>
1.21807

> <r_epik_Charging_Adjusted_Penalty>
1.21807

> <i_epik_Tot_Q>
0

> <i_epik_Tot_abs_Q>
0

> <r_epik_Metal_State_Penalty>
1.19922

> <b_epik_Metal_Only>
0

> <s_lp_Force_Field>
OPLS_2005

> <r_lp_Energy>
78.6276

> <b_lp_Chiralities_Consistent>
1

> <s_lp_Variant>
AV-unprocessed.smi:1830-10

> <Gold.Version>
5.8.1

> <Gold.Id.Protein>
6NUR|6NUR_protein|mol2

> <Gold.PLP.Fitness>
47.7683

> <Gold.PLP.PLP>
-39.3379

> <Gold.PLP.part.hbond>
-3.6560

> <Gold.PLP.part.metal>
0.0000

> <Gold.PLP.part.buried>
-5.3345

> <Gold.PLP.part.nonpolar>
-30.8067

> <Gold.PLP.part.repulsive>
0.4311

> <Gold.PLP.ligand.clash>
0.0000

> <Gold.PLP.ligand.torsion>
0.3547

> <Gold.PLP.Chemscore.Hbond>
3.0000

> <Gold.PLP.Chemscore.CHOScore>
0.0000

> <Gold.PLP.Chemscore.Metal>
0.0000

> <Gold.Chemscore.Hbonds>
donor molecule, donor type, donor heavy atom, donor atom, acceptor molecule, acceptor atom, score
      L1  H     3    26       P1  7948  1.00
      L1  H    14    41       P1  7948  0.77
      P1  H  7989  7998       L1    13  1.00

> <Gold.PLP.Chemscore.Internal.Correction>
0.1398

> <Gold.Rescore>
     Score         DG    S(hbond)    S(metal)    S(lipo)     H(rot)  DE(clash)    DE(int)     intcor
     14.75     -16.25       1.55        0.00      77.89       1.37       0.01       1.49       ----

> <Gold.Chemscore.Fitness>
14.7547

> <Gold.Chemscore.DG>
-16.2514

> <Gold.Chemscore.ZeroCoef>
-5.4800

> <Gold.Chemscore.Hbond>
1.5501

> <Gold.Chemscore.Metal>
0.0000

> <Gold.Chemscore.Lipo>
77.8886

> <Gold.Chemscore.Internal_Hbond>
0.0000

> <Gold.Chemscore.DEClash>
0.0077

> <Gold.Chemscore.DEInternal>
1.4889

> <Gold.Chemscore.Rot>
1.3746

> <Gold.Chemscore.Internal.Correction>
   9.000000E+99

> <Gold.Chemscore.Hbonds>
donor molecule, donor type, donor heavy atom, donor atom, acceptor molecule, acceptor atom, score
      L1  H     3    26       P1  7948  0.69
      L1  H    14    41       P1  7948  0.44
      P1  H  7989  7998       L1    13  0.42

> <Gold.Chemscore.Hbond.Weighted>
-5.1772

> <Gold.Chemscore.Metal.Weighted>
-0.0000

> <Gold.Chemscore.Lipo.Weighted>
-9.1130

> <Gold.Chemscore.Internal_Hbond.Weighted>
0.0000

> <Gold.Chemscore.DEClash.Weighted>
0.0077

> <Gold.Chemscore.DEInternal.Weighted>
1.4889

> <Gold.Chemscore.Rot.Weighted>
3.5189

> <Gold.Chemscore.Internal.Correction.Weighted>
   9.000000E+99

> <Gold.Protein.RotatedTorsions>
[ 6907 6896 6895 6894 ] final  154.48 input  -60.11 | X-H torsion
[ 7974 7965 7964 7962 ] final   50.08 input  175.53 | X-H torsion
[ 8008 7997 7996 7995 ] final  -30.96 input   59.86 | X-H torsion
[ 10167 10162 10161 10158 ] final  -42.34 input  -65.29 | X-H torsion
[ 10718 10713 10712 10709 ] final  -23.93 input   66.30 | X-H torsion
[ 10763 10752 10751 10750 ] final   38.43 input  -60.55 | X-H torsion
[ 11005 11000 10999 10996 ] final  152.16 input  -57.11 | X-H torsion

> <Gold.Protein.ActiveResidues>
 VAL166  LYS551  ARG553  GLY616  TRP617  ASP618  TYR619  PRO620  LYS621  CYS622 
 ASP623  PHE694  ASN695  SER759  ASP760  ASP761  ALA762  ILE779  LEU786  VAL792 
 PHE793  MET794  SER795  GLU796  ALA797  LYS798  CYS799  TRP800  GLU811  SER814 

> <Gold.Protein.RotatedAtoms>
  152.0579  133.4048  159.4404 H   0  0  0  0  0  0  0  0  0  0  0  0  # atno 6907 bound_to 6896
  150.6867  134.3234  159.4805 H   0  0  0  0  0  0  0  0  0  0  0  0  # atno 6908 bound_to 6896
  152.1052  134.9313  160.0619 H   0  0  0  0  0  0  0  0  0  0  0  0  # atno 6909 bound_to 6896
  146.0047  139.4477  142.9993 H   0  0  0  0  0  0  0  0  0  0  0  0  # atno 7974 bound_to 7965
  154.4231  140.1777  156.1490 H   0  0  0  0  0  0  0  0  0  0  0  0  # atno 8008 bound_to 7997
  155.9931  140.3367  155.6747 H   0  0  0  0  0  0  0  0  0  0  0  0  # atno 8009 bound_to 7997
  155.6346  140.0673  157.2629 H   0  0  0  0  0  0  0  0  0  0  0  0  # atno 8010 bound_to 7997
  140.6972  143.3043  151.3196 H   0  0  0  0  0  0  0  0  0  0  0  0  # atno 10167 bound_to 10162
  156.4844  130.4552  149.6792 H   0  0  0  0  0  0  0  0  0  0  0  0  # atno 10718 bound_to 10713
  153.0001  135.6250  154.2303 H   0  0  0  0  0  0  0  0  0  0  0  0  # atno 10763 bound_to 10752
  154.2045  135.2802  155.2981 H   0  0  0  0  0  0  0  0  0  0  0  0  # atno 10764 bound_to 10752
  154.5657  135.5692  153.7107 H   0  0  0  0  0  0  0  0  0  0  0  0  # atno 10765 bound_to 10752
  140.1283  134.8819  157.2168 H   0  0  0  0  0  0  0  0  0  0  0  0  # atno 11005 bound_to 11000
  145.7434  141.0000  143.1289 LP  0  0  0  0  0  0  0  0  0  0  0  0  # atno 17320 bound_to 7965
  144.6931  139.9126  143.7464 LP  0  0  0  0  0  0  0  0  0  0  0  0  # atno 17321 bound_to 7965
  139.6443  144.0481  152.2578 LP  0  0  0  0  0  0  0  0  0  0  0  0  # atno 17342 bound_to 10162
  139.9996  144.6302  150.7741 LP  0  0  0  0  0  0  0  0  0  0  0  0  # atno 17343 bound_to 10162
  156.3489  130.7421  151.2378 LP  0  0  0  0  0  0  0  0  0  0  0  0  # atno 17370 bound_to 10713
  157.7480  131.0383  150.4495 LP  0  0  0  0  0  0  0  0  0  0  0  0  # atno 17371 bound_to 10713
  140.2875  134.3278  155.7324 LP  0  0  0  0  0  0  0  0  0  0  0  0  # atno 17394 bound_to 11000
  141.2165  133.7515  156.9455 LP  0  0  0  0  0  0  0  0  0  0  0  0  # atno 17395 bound_to 11000

$$$$
