AV-unprocessed.smi:850|AV-procd|sdf|3948|dock4
  -GOLD-   22720 1413D 1   1.00000     0.00000
 Structure written by MMmdl.
 40 42  0  0  0  0  0  0  0  0  1 V2000
  153.3998  143.1032  163.4599 C   0  0  0  0  0  0  0  0  0  0  0  0
  153.4263  142.6038  162.0903 N   0  0  0  0  0  0  0  0  0  0  0  0
  154.0911  141.5176  161.6308 C   0  0  0  0  0  0  0  0  0  0  0  0
  154.7967  140.7632  162.3003 O   0  0  0  0  0  0  0  0  0  0  0  0
  153.8480  141.4089  160.3033 N   0  0  0  0  0  0  0  0  0  0  0  0
  154.3848  140.3917  159.4019 C   0  0  0  0  0  0  0  0  0  0  0  0
  153.4142  139.2043  159.2410 C   0  0  1  0  0  0  0  0  0  0  0  0
  153.1220  138.9836  157.8762 O   0  0  0  0  0  0  0  0  0  0  0  0
  153.9658  137.8918  159.8224 C   0  0  0  0  0  0  0  0  0  0  0  0
  153.9403  137.9452  161.2438 O   0  0  0  0  0  0  0  0  0  0  0  0
  154.1737  136.7831  161.9471 C   0  0  0  0  0  0  0  0  0  0  0  0
  153.9524  136.8239  163.3394 C   0  0  0  0  0  0  0  0  0  0  0  0
  154.1627  135.6825  164.1369 C   0  0  0  0  0  0  0  0  0  0  0  0
  154.5993  134.4825  163.5461 C   0  0  0  0  0  0  0  0  0  0  0  0
  154.8261  134.4280  162.1582 C   0  0  0  0  0  0  0  0  0  0  0  0
  154.6154  135.5698  161.3606 C   0  0  0  0  0  0  0  0  0  0  0  0
  153.0161  142.4636  159.9002 C   0  0  0  0  0  0  0  0  0  0  0  0
  152.4935  142.8015  158.6397 C   0  0  0  0  0  0  0  0  0  0  0  0
  151.6757  143.9538  158.5675 C   0  0  0  0  0  0  0  0  0  0  0  0
  151.4042  144.7271  159.7262 C   0  0  0  0  0  0  0  0  0  0  0  0
  151.9445  144.3647  160.9825 C   0  0  0  0  0  0  0  0  0  0  0  0
  152.7521  143.2152  161.0255 C   0  0  0  0  0  0  0  0  0  0  0  0
  153.8804  142.4147  164.1562 H   0  0  0  0  0  0  0  0  0  0  0  0
  152.3708  143.2478  163.7897 H   0  0  0  0  0  0  0  0  0  0  0  0
  153.9164  144.0612  163.5199 H   0  0  0  0  0  0  0  0  0  0  0  0
  154.6402  140.8233  158.4324 H   0  0  0  0  0  0  0  0  0  0  0  0
  155.3264  140.0403  159.8251 H   0  0  0  0  0  0  0  0  0  0  0  0
  152.4718  139.4237  159.7446 H   0  0  0  0  0  0  0  0  0  0  0  0
  152.4377  138.3340  157.8183 H   0  0  0  0  0  0  0  0  0  0  0  0
  153.3326  137.0691  159.4861 H   0  0  0  0  0  0  0  0  0  0  0  0
  154.9759  137.7056  159.4527 H   0  0  0  0  0  0  0  0  0  0  0  0
  153.6171  137.7412  163.8009 H   0  0  0  0  0  0  0  0  0  0  0  0
  153.9885  135.7285  165.2017 H   0  0  0  0  0  0  0  0  0  0  0  0
  154.7605  133.6060  164.1562 H   0  0  0  0  0  0  0  0  0  0  0  0
  155.1626  133.5079  161.7033 H   0  0  0  0  0  0  0  0  0  0  0  0
  154.7998  135.4885  160.3002 H   0  0  0  0  0  0  0  0  0  0  0  0
  152.7059  142.2107  157.7609 H   0  0  0  0  0  0  0  0  0  0  0  0
  151.2538  144.2494  157.6181 H   0  0  0  0  0  0  0  0  0  0  0  0
  150.7783  145.6039  159.6476 H   0  0  0  0  0  0  0  0  0  0  0  0
  151.7445  144.9488  161.8687 H   0  0  0  0  0  0  0  0  0  0  0  0
  1  2  1  0  0  0  0
  1 23  1  0  0  0  0
  1 24  1  0  0  0  0
  1 25  1  0  0  0  0
  2 22  1  0  0  0  0
  2  3  1  0  0  0  0
  3  4  2  0  0  0  0
  3  5  1  0  0  0  0
  5  6  1  0  0  0  0
  5 17  1  0  0  0  0
  6  7  1  0  0  0  0
  6 26  1  0  0  0  0
  6 27  1  0  0  0  0
  7  8  1  0  0  0  0
  7  9  1  0  0  0  0
  7 28  1  0  0  0  0
  8 29  1  0  0  0  0
  9 10  1  0  0  0  0
  9 30  1  0  0  0  0
  9 31  1  0  0  0  0
 10 11  1  0  0  0  0
 11 16  1  0  0  0  0
 11 12  2  0  0  0  0
 12 13  1  0  0  0  0
 12 32  1  0  0  0  0
 13 14  2  0  0  0  0
 13 33  1  0  0  0  0
 14 15  1  0  0  0  0
 14 34  1  0  0  0  0
 15 16  2  0  0  0  0
 15 35  1  0  0  0  0
 16 36  1  0  0  0  0
 17 22  2  0  0  0  0
 17 18  1  0  0  0  0
 18 19  2  0  0  0  0
 18 37  1  0  0  0  0
 19 20  1  0  0  0  0
 19 38  1  0  0  0  0
 20 21  2  0  0  0  0
 20 39  1  0  0  0  0
 21 22  1  0  0  0  0
 21 40  1  0  0  0  0
M  END
> <s_m_source_file>
AV-unprocessed.smi

> <i_m_source_file_index>
850

> <i_lp_mmshare_version>
43012

> <i_f3d_flags>
0

> <s_epik_input>
W2NIXTFbY0hdW2NIXVtjSF1jKGMxMiluKFtDSDNdKWMoPU8pbjJbQ0gyXVtDQEhdKFtPSF0pW0NIMl1PYzNbY0hdW2NIXVtjSF1bY0hdW2NIXTM=

> <s_epik_cmdline>
J2VwaWtfcHl0aG9uJywgJy1waCcsICc3LjAnLCAnLXRuJywgJzgnLCAnLW1hJywgJzIwMCcsICctbWV0YWxfYmluZGluZycsICctaW1hZScsICc8aW5maWxlLm1hZT4nLCAnLW9tYWUnLCAnPG91dGZpbGUubWFlPic=

> <r_lp_tautomer_probability>
1

> <r_epik_Ionization_Penalty>
2.40205e-06

> <r_epik_Ionization_Penalty_Charging>
2.75209e-09

> <r_epik_Ionization_Penalty_Neutral>
2.3993e-06

> <r_epik_State_Penalty>
-0

> <r_epik_Charging_Adjusted_Penalty>
2.75209e-09

> <i_epik_Tot_Q>
0

> <i_epik_Tot_abs_Q>
0

> <r_epik_Metal_State_Penalty>
-0

> <b_epik_Metal_Only>
0

> <s_lp_Force_Field>
OPLS_2005

> <r_lp_Energy>
47.9965

> <b_lp_Chiralities_Consistent>
1

> <s_lp_Variant>
AV-unprocessed.smi:850-2

> <Gold.Version>
5.8.1

> <Gold.Id.Protein>
6NUR|6NUR_protein|mol2

> <Gold.PLP.Fitness>
58.2781

> <Gold.PLP.PLP>
-57.8480

> <Gold.PLP.part.hbond>
-2.0000

> <Gold.PLP.part.metal>
0.0000

> <Gold.PLP.part.buried>
-4.4442

> <Gold.PLP.part.nonpolar>
-49.7180

> <Gold.PLP.part.repulsive>
0.0000

> <Gold.PLP.ligand.clash>
0.0000

> <Gold.PLP.ligand.torsion>
1.2999

> <Gold.PLP.Chemscore.Hbond>
1.0000

> <Gold.PLP.Chemscore.CHOScore>
0.0000

> <Gold.PLP.Chemscore.Metal>
0.0000

> <Gold.Chemscore.Hbonds>
donor molecule, donor type, donor heavy atom, donor atom, acceptor molecule, acceptor atom, score
      P1  H  7997  8009       L1     8  1.00

> <Gold.PLP.Chemscore.Internal.Correction>
0.0299

> <Gold.Rescore>
     Score         DG    S(hbond)    S(metal)    S(lipo)     H(rot)  DE(clash)    DE(int)     intcor
     18.89     -20.66       0.89        0.00     150.56       2.12       0.49       1.28       ----

> <Gold.Chemscore.Fitness>
18.8884

> <Gold.Chemscore.DG>
-20.6583

> <Gold.Chemscore.ZeroCoef>
-5.4800

> <Gold.Chemscore.Hbond>
0.8938

> <Gold.Chemscore.Metal>
0.0000

> <Gold.Chemscore.Lipo>
150.5644

> <Gold.Chemscore.Internal_Hbond>
0.0000

> <Gold.Chemscore.DEClash>
0.4866

> <Gold.Chemscore.DEInternal>
1.2832

> <Gold.Chemscore.Rot>
2.1184

> <Gold.Chemscore.Internal.Correction>
   9.000000E+99

> <Gold.Chemscore.Hbonds>
donor molecule, donor type, donor heavy atom, donor atom, acceptor molecule, acceptor atom, score
      P1  H  7997  8009       L1     8  0.25

> <Gold.Chemscore.Hbond.Weighted>
-2.9854

> <Gold.Chemscore.Metal.Weighted>
-0.0000

> <Gold.Chemscore.Lipo.Weighted>
-17.6160

> <Gold.Chemscore.Internal_Hbond.Weighted>
0.0000

> <Gold.Chemscore.DEClash.Weighted>
0.4866

> <Gold.Chemscore.DEInternal.Weighted>
1.2832

> <Gold.Chemscore.Rot.Weighted>
5.4231

> <Gold.Chemscore.Internal.Correction.Weighted>
   9.000000E+99

> <Gold.Protein.RotatedTorsions>
[ 6907 6896 6895 6894 ] final   63.12 input  -60.11 | X-H torsion
[ 7974 7965 7964 7962 ] final   79.48 input  175.53 | X-H torsion
[ 8008 7997 7996 7995 ] final  152.77 input   59.86 | X-H torsion
[ 10167 10162 10161 10158 ] final -105.74 input  -65.29 | X-H torsion
[ 10718 10713 10712 10709 ] final   -8.90 input   66.30 | X-H torsion
[ 10763 10752 10751 10750 ] final   73.64 input  -60.55 | X-H torsion
[ 11005 11000 10999 10996 ] final  147.61 input  -57.11 | X-H torsion

> <Gold.Protein.ActiveResidues>
 VAL166  LYS551  ARG553  GLY616  TRP617  ASP618  TYR619  PRO620  LYS621  CYS622 
 ASP623  PHE694  ASN695  SER759  ASP760  ASP761  ALA762  ILE779  LEU786  VAL792 
 PHE793  MET794  SER795  GLU796  ALA797  LYS798  CYS799  TRP800  GLU811  SER814 

> <Gold.Protein.RotatedAtoms>
  152.4228  134.5924  159.9977 H   0  0  0  0  0  0  0  0  0  0  0  0  # atno 6907 bound_to 6896
  151.6069  133.3345  159.3067 H   0  0  0  0  0  0  0  0  0  0  0  0  # atno 6908 bound_to 6896
  150.8116  134.7312  159.6758 H   0  0  0  0  0  0  0  0  0  0  0  0  # atno 6909 bound_to 6896
  145.6637  139.2478  143.1908 H   0  0  0  0  0  0  0  0  0  0  0  0  # atno 7974 bound_to 7965
  156.2613  140.2011  156.6386 H   0  0  0  0  0  0  0  0  0  0  0  0  # atno 8008 bound_to 7997
  154.6627  140.0559  157.0104 H   0  0  0  0  0  0  0  0  0  0  0  0  # atno 8009 bound_to 7997
  155.1252  140.3228  155.4490 H   0  0  0  0  0  0  0  0  0  0  0  0  # atno 8010 bound_to 7997
  140.1953  143.3860  152.1174 H   0  0  0  0  0  0  0  0  0  0  0  0  # atno 10167 bound_to 10162
  156.6958  130.5078  149.5931 H   0  0  0  0  0  0  0  0  0  0  0  0  # atno 10718 bound_to 10713
  153.0535  135.5055  154.7924 H   0  0  0  0  0  0  0  0  0  0  0  0  # atno 10763 bound_to 10752
  154.6768  135.2962  154.9670 H   0  0  0  0  0  0  0  0  0  0  0  0  # atno 10764 bound_to 10752
  154.0470  135.6709  153.4849 H   0  0  0  0  0  0  0  0  0  0  0  0  # atno 10765 bound_to 10752
  140.0890  134.9052  157.1622 H   0  0  0  0  0  0  0  0  0  0  0  0  # atno 11005 bound_to 11000
  146.1104  140.7435  142.9506 LP  0  0  0  0  0  0  0  0  0  0  0  0  # atno 17320 bound_to 7965
  144.7080  140.3930  143.7102 LP  0  0  0  0  0  0  0  0  0  0  0  0  # atno 17321 bound_to 7965
  139.5239  144.7077  151.5302 LP  0  0  0  0  0  0  0  0  0  0  0  0  # atno 17342 bound_to 10162
  140.6428  143.8855  150.6708 LP  0  0  0  0  0  0  0  0  0  0  0  0  # atno 17343 bound_to 10162
  156.1764  130.6470  151.0899 LP  0  0  0  0  0  0  0  0  0  0  0  0  # atno 17370 bound_to 10713
  157.6992  131.0782  150.6875 LP  0  0  0  0  0  0  0  0  0  0  0  0  # atno 17371 bound_to 10713
  140.3378  134.2737  155.7217 LP  0  0  0  0  0  0  0  0  0  0  0  0  # atno 17394 bound_to 11000
  141.2072  133.7812  157.0133 LP  0  0  0  0  0  0  0  0  0  0  0  0  # atno 17395 bound_to 11000

$$$$
