AV-unprocessed.smi:3078|AV-procd|sdf|11733|dock1
  -GOLD-   2272017133D 1   1.00000     0.00000
 Structure written by MMmdl.
 23 23  0  0  0  0  0  0  0  0  2 V2000
  152.4229  138.5067  154.6816 C   0  0  0  0  0  0  0  0  0  0  0  0
  151.0452  138.9105  154.4986 N   0  0  0  0  0  0  0  0  0  0  0  0
  149.9572  138.1323  154.1684 C   0  0  0  0  0  0  0  0  0  0  0  0
  148.8666  138.9556  154.0981 C   0  0  0  0  0  0  0  0  0  0  0  0
  147.4321  138.6204  153.7719 C   0  0  2  0  0  0  0  0  0  0  0  0
  147.2391  137.1628  153.8426 N   0  3  0  0  0  0  0  0  0  0  0  0
  146.9901  139.1512  152.3948 C   0  0  0  0  0  0  0  0  0  0  0  0
  145.5920  138.8519  152.1490 N   0  0  0  0  0  0  0  0  0  0  0  0
  149.4058  140.2372  154.4093 C   0  0  0  0  0  0  0  0  0  0  0  0
  150.7060  140.2067  154.6494 N   0  0  0  0  0  0  0  0  0  0  0  0
  152.4912  137.4194  154.7254 H   0  0  0  0  0  0  0  0  0  0  0  0
  152.8127  138.9228  155.6112 H   0  0  0  0  0  0  0  0  0  0  0  0
  153.0248  138.8670  153.8470 H   0  0  0  0  0  0  0  0  0  0  0  0
  150.0495  137.0680  154.0080 H   0  0  0  0  0  0  0  0  0  0  0  0
  146.7712  139.0464  154.5282 H   0  0  0  0  0  0  0  0  0  0  0  0
  147.6807  136.7264  153.0460 H   0  0  0  0  0  0  0  0  0  0  0  0
  146.2513  136.9534  153.8360 H   0  0  0  0  0  0  0  0  0  0  0  0
  147.1503  140.2271  152.3177 H   0  0  0  0  0  0  0  0  0  0  0  0
  147.5773  138.6819  151.6049 H   0  0  0  0  0  0  0  0  0  0  0  0
  145.0106  139.5827  152.5347 H   0  0  0  0  0  0  0  0  0  0  0  0
  145.4101  138.8346  151.1553 H   0  0  0  0  0  0  0  0  0  0  0  0
  148.8918  141.1855  154.4668 H   0  0  0  0  0  0  0  0  0  0  0  0
  147.6530  136.8086  154.6930 H   0  0  0  0  0  0  0  0  0  0  0  0
  1  2  1  0  0  0  0
  1 11  1  0  0  0  0
  1 12  1  0  0  0  0
  1 13  1  0  0  0  0
  2 10  1  0  0  0  0
  2  3  1  0  0  0  0
  3  4  2  0  0  0  0
  3 14  1  0  0  0  0
  4  5  1  0  0  0  0
  4  9  1  0  0  0  0
  5  6  1  0  0  0  0
  5  7  1  0  0  0  0
  5 15  1  0  0  0  0
  6 16  1  0  0  0  0
  6 17  1  0  0  0  0
  6 23  1  0  0  0  0
  7  8  1  0  0  0  0
  7 18  1  0  0  0  0
  7 19  1  0  0  0  0
  8 20  1  0  0  0  0
  8 21  1  0  0  0  0
  9 10  2  0  0  0  0
  9 22  1  0  0  0  0
M  CHG  1   6   1
M  END
> <s_m_source_file>
AV-unprocessed.smi

> <i_m_source_file_index>
3078

> <i_lp_mmshare_version>
43012

> <i_f3d_flags>
0

> <s_epik_input>
W0NIM11uMVtjSF1jKFtjSF1uMSlbQ0BIXShbTkgyXSlbQ0gyXVtOSDJd

> <s_epik_cmdline>
J2VwaWtfcHl0aG9uJywgJy1waCcsICc3LjAnLCAnLXRuJywgJzgnLCAnLW1hJywgJzIwMCcsICctbWV0YWxfYmluZGluZycsICctaW1hZScsICc8aW5maWxlLm1hZT4nLCAnLW9tYWUnLCAnPG91dGZpbGUubWFlPic=

> <r_epik_Ionization_Penalty>
0.19937

> <r_epik_Ionization_Penalty_Charging>
0.0290541

> <r_epik_Ionization_Penalty_Neutral>
0.170316

> <r_epik_State_Penalty>
1.07715

> <r_epik_Charging_Adjusted_Penalty>
1.1062

> <i_epik_Tot_Q>
1

> <i_epik_Tot_abs_Q>
1

> <r_epik_Metal_State_Penalty>
1.07718

> <b_epik_Metal_Only>
0

> <s_lp_Force_Field>
OPLS_2005

> <r_lp_Energy>
0.880803

> <b_lp_Chiralities_Consistent>
1

> <s_lp_Variant>
AV-unprocessed.smi:3078-3

> <Gold.Version>
5.8.1

> <Gold.Id.Protein>
6NUR|6NUR_protein|mol2

> <Gold.PLP.Fitness>
37.3357

> <Gold.PLP.PLP>
-21.4748

> <Gold.PLP.part.hbond>
-4.0000

> <Gold.PLP.part.metal>
0.0000

> <Gold.PLP.part.buried>
0.6848

> <Gold.PLP.part.nonpolar>
-17.5805

> <Gold.PLP.part.repulsive>
0.0829

> <Gold.PLP.ligand.clash>
0.0000

> <Gold.PLP.ligand.torsion>
0.2767

> <Gold.PLP.Chemscore.Hbond>
4.7897

> <Gold.PLP.Chemscore.CHOScore>
0.6773

> <Gold.PLP.Chemscore.Metal>
0.0000

> <Gold.Chemscore.Hbonds>
donor molecule, donor type, donor heavy atom, donor atom, acceptor molecule, acceptor atom, score
      L1  H     6    16       P1  7948  2.00
      L1  H     8    20       P1 10175  0.98
      L1  H     8    21       P1 10171  0.81
      P1  H  7989  7998       L1    10  1.00
      L1  C     3    14       P1  7948  0.69

> <Gold.PLP.Chemscore.Internal.Correction>
0.0134

> <Gold.Rescore>
     Score         DG    S(hbond)    S(metal)    S(lipo)     H(rot)  DE(clash)    DE(int)     intcor
     18.42     -18.78       3.62        0.00      40.97       1.40       0.30       0.06       ----

> <Gold.Chemscore.Fitness>
18.4246

> <Gold.Chemscore.DG>
-18.7786

> <Gold.Chemscore.ZeroCoef>
-5.4800

> <Gold.Chemscore.Hbond>
3.6228

> <Gold.Chemscore.Metal>
0.0000

> <Gold.Chemscore.Lipo>
40.9748

> <Gold.Chemscore.Internal_Hbond>
0.0000

> <Gold.Chemscore.DEClash>
0.2990

> <Gold.Chemscore.DEInternal>
0.0551

> <Gold.Chemscore.Rot>
1.4045

> <Gold.Chemscore.Internal.Correction>
   9.000000E+99

> <Gold.Chemscore.Hbonds>
donor molecule, donor type, donor heavy atom, donor atom, acceptor molecule, acceptor atom, score
      L1  H     6    16       P1  7948  1.00
      L1  H     8    20       P1 10175  0.92
      L1  H     8    21       P1 10171  0.76
      P1  H  7989  7998       L1    10  0.23

> <Gold.Chemscore.Hbond.Weighted>
-12.1002

> <Gold.Chemscore.Metal.Weighted>
-0.0000

> <Gold.Chemscore.Lipo.Weighted>
-4.7941

> <Gold.Chemscore.Internal_Hbond.Weighted>
0.0000

> <Gold.Chemscore.DEClash.Weighted>
0.2990

> <Gold.Chemscore.DEInternal.Weighted>
0.0551

> <Gold.Chemscore.Rot.Weighted>
3.5956

> <Gold.Chemscore.Internal.Correction.Weighted>
   9.000000E+99

> <Gold.Protein.RotatedTorsions>
[ 6907 6896 6895 6894 ] final -130.41 input  -60.11 | X-H torsion
[ 7974 7965 7964 7962 ] final -162.04 input  175.53 | X-H torsion
[ 8008 7997 7996 7995 ] final  -51.70 input   59.86 | X-H torsion
[ 10167 10162 10161 10158 ] final -165.78 input  -65.29 | X-H torsion
[ 10718 10713 10712 10709 ] final  -99.33 input   66.30 | X-H torsion
[ 10763 10752 10751 10750 ] final  172.31 input  -60.55 | X-H torsion
[ 11005 11000 10999 10996 ] final -160.59 input  -57.11 | X-H torsion

> <Gold.Protein.ActiveResidues>
 VAL166  LYS551  ARG553  GLY616  TRP617  ASP618  TYR619  PRO620  LYS621  CYS622 
 ASP623  PHE694  ASN695  SER759  ASP760  ASP761  ALA762  ILE779  LEU786  VAL792 
 PHE793  MET794  SER795  GLU796  ALA797  LYS798  CYS799  TRP800  GLU811  SER814 

> <Gold.Protein.RotatedAtoms>
  150.9394  133.6674  159.2793 H   0  0  0  0  0  0  0  0  0  0  0  0  # atno 6907 bound_to 6896
  151.4068  135.0978  159.9582 H   0  0  0  0  0  0  0  0  0  0  0  0  # atno 6908 bound_to 6896
  152.5062  133.8876  159.7432 H   0  0  0  0  0  0  0  0  0  0  0  0  # atno 6909 bound_to 6896
  144.7370  140.3310  143.6153 H   0  0  0  0  0  0  0  0  0  0  0  0  # atno 7974 bound_to 7965
  154.4089  140.1241  156.4872 H   0  0  0  0  0  0  0  0  0  0  0  0  # atno 8008 bound_to 7997
  155.7026  140.3494  155.4920 H   0  0  0  0  0  0  0  0  0  0  0  0  # atno 8009 bound_to 7997
  155.9371  140.1080  157.1075 H   0  0  0  0  0  0  0  0  0  0  0  0  # atno 8010 bound_to 7997
  139.6159  144.0722  152.1887 H   0  0  0  0  0  0  0  0  0  0  0  0  # atno 10167 bound_to 10162
  156.0131  130.5278  150.6655 H   0  0  0  0  0  0  0  0  0  0  0  0  # atno 10718 bound_to 10713
  154.4243  135.2758  155.1955 H   0  0  0  0  0  0  0  0  0  0  0  0  # atno 10763 bound_to 10752
  154.3887  135.6071  153.5835 H   0  0  0  0  0  0  0  0  0  0  0  0  # atno 10764 bound_to 10752
  152.9834  135.5898  154.4544 H   0  0  0  0  0  0  0  0  0  0  0  0  # atno 10765 bound_to 10752
  140.6299  134.4662  157.5229 H   0  0  0  0  0  0  0  0  0  0  0  0  # atno 11005 bound_to 11000
  145.7472  139.1782  143.2342 LP  0  0  0  0  0  0  0  0  0  0  0  0  # atno 17320 bound_to 7965
  146.1089  140.7453  142.9513 LP  0  0  0  0  0  0  0  0  0  0  0  0  # atno 17321 bound_to 7965
  140.0351  144.6050  150.7456 LP  0  0  0  0  0  0  0  0  0  0  0  0  # atno 17342 bound_to 10162
  140.7350  143.2736  151.3812 LP  0  0  0  0  0  0  0  0  0  0  0  0  # atno 17343 bound_to 10162
  157.4388  131.0858  151.0964 LP  0  0  0  0  0  0  0  0  0  0  0  0  # atno 17370 bound_to 10713
  157.1515  130.6186  149.5583 LP  0  0  0  0  0  0  0  0  0  0  0  0  # atno 17371 bound_to 10713
  139.9120  134.8324  156.1495 LP  0  0  0  0  0  0  0  0  0  0  0  0  # atno 17394 bound_to 11000
  141.0683  133.6809  156.2089 LP  0  0  0  0  0  0  0  0  0  0  0  0  # atno 17395 bound_to 11000

$$$$
