AV-unprocessed.smi:433|AV-procd|sdf|2551|dock8
  -GOLD-   2262022513D 1   1.00000     0.00000
 Structure written by MMmdl.
 36 37  0  0  0  0  0  0  0  0  1 V2000
  154.2287  139.8801  161.0743 C   0  0  0  0  0  0  0  0  0  0  0  0
  153.5249  141.1051  160.8256 N   0  0  0  0  0  0  0  0  0  0  0  0
  153.2379  142.0120  161.8269 C   0  0  0  0  0  0  0  0  0  0  0  0
  152.5623  143.1601  161.6034 C   0  0  0  0  0  0  0  0  0  0  0  0
  152.0960  143.5079  160.2656 C   0  0  0  0  0  0  0  0  0  0  0  0
  151.4540  144.5304  160.0227 O   0  0  0  0  0  0  0  0  0  0  0  0
  152.4245  142.5658  159.2598 N   0  0  0  0  0  0  0  0  0  0  0  0
  151.9727  142.8342  157.9058 C   0  0  0  0  0  0  0  0  0  0  0  0
  151.1518  141.6711  157.3037 C   0  0  1  0  0  0  0  0  0  0  0  0
  149.9431  141.5444  158.0250 O   0  0  0  0  0  0  0  0  0  0  0  0
  150.7836  141.9183  155.8334 C   0  0  0  0  0  0  0  0  0  0  0  0
  150.4396  140.6724  155.2425 O   0  0  0  0  0  0  0  0  0  0  0  0
  149.2291  140.5655  154.5939 C   0  0  0  0  0  0  0  0  0  0  0  0
  148.8356  139.2739  154.1875 C   0  0  0  0  0  0  0  0  0  0  0  0
  147.6129  139.0696  153.5197 C   0  0  0  0  0  0  0  0  0  0  0  0
  146.7673  140.1616  153.2515 C   0  0  0  0  0  0  0  0  0  0  0  0
  147.1477  141.4563  153.6513 C   0  0  0  0  0  0  0  0  0  0  0  0
  148.3714  141.6606  154.3189 C   0  0  0  0  0  0  0  0  0  0  0  0
  153.1149  141.3532  159.4978 C   0  0  0  0  0  0  0  0  0  0  0  0
  153.3426  140.5418  158.5957 O   0  0  0  0  0  0  0  0  0  0  0  0
  154.4974  139.8545  162.1309 H   0  0  0  0  0  0  0  0  0  0  0  0
  155.1239  139.8802  160.4500 H   0  0  0  0  0  0  0  0  0  0  0  0
  153.5536  139.0588  160.8274 H   0  0  0  0  0  0  0  0  0  0  0  0
  153.5616  141.7959  162.8349 H   0  0  0  0  0  0  0  0  0  0  0  0
  152.3604  143.8295  162.4265 H   0  0  0  0  0  0  0  0  0  0  0  0
  151.4331  143.7832  157.8995 H   0  0  0  0  0  0  0  0  0  0  0  0
  152.8673  143.0418  157.3162 H   0  0  0  0  0  0  0  0  0  0  0  0
  151.6952  140.7278  157.3767 H   0  0  0  0  0  0  0  0  0  0  0  0
  149.7702  140.6250  158.1610 H   0  0  0  0  0  0  0  0  0  0  0  0
  149.9284  142.5941  155.7754 H   0  0  0  0  0  0  0  0  0  0  0  0
  151.6202  142.3814  155.3072 H   0  0  0  0  0  0  0  0  0  0  0  0
  149.4797  138.4306  154.3902 H   0  0  0  0  0  0  0  0  0  0  0  0
  147.3243  138.0747  153.2142 H   0  0  0  0  0  0  0  0  0  0  0  0
  145.8286  140.0067  152.7401 H   0  0  0  0  0  0  0  0  0  0  0  0
  146.4995  142.2953  153.4462 H   0  0  0  0  0  0  0  0  0  0  0  0
  148.6286  142.6672  154.6111 H   0  0  0  0  0  0  0  0  0  0  0  0
  1  2  1  0  0  0  0
  1 21  1  0  0  0  0
  1 22  1  0  0  0  0
  1 23  1  0  0  0  0
  2 19  1  0  0  0  0
  2  3  1  0  0  0  0
  3  4  2  0  0  0  0
  3 24  1  0  0  0  0
  4  5  1  0  0  0  0
  4 25  1  0  0  0  0
  5  6  2  0  0  0  0
  5  7  1  0  0  0  0
  7  8  1  0  0  0  0
  7 19  1  0  0  0  0
  8  9  1  0  0  0  0
  8 26  1  0  0  0  0
  8 27  1  0  0  0  0
  9 10  1  0  0  0  0
  9 11  1  0  0  0  0
  9 28  1  0  0  0  0
 10 29  1  0  0  0  0
 11 12  1  0  0  0  0
 11 30  1  0  0  0  0
 11 31  1  0  0  0  0
 12 13  1  0  0  0  0
 13 18  1  0  0  0  0
 13 14  2  0  0  0  0
 14 15  1  0  0  0  0
 14 32  1  0  0  0  0
 15 16  2  0  0  0  0
 15 33  1  0  0  0  0
 16 17  1  0  0  0  0
 16 34  1  0  0  0  0
 17 18  2  0  0  0  0
 17 35  1  0  0  0  0
 18 36  1  0  0  0  0
 19 20  2  0  0  0  0
M  END
> <s_m_source_file>
AV-unprocessed.smi

> <i_m_source_file_index>
433

> <i_lp_mmshare_version>
43012

> <i_f3d_flags>
0

> <s_epik_input>
W0NIM11uMVtjSF1bY0hdYyg9TyluKGMxPU8pW0NIMl1bQ0BIXShbT0hdKVtDSDJdT2MyW2NIXVtjSF1bY0hdW2NIXVtjSF0y

> <s_epik_cmdline>
J2VwaWtfcHl0aG9uJywgJy1waCcsICc3LjAnLCAnLXRuJywgJzgnLCAnLW1hJywgJzIwMCcsICctbWV0YWxfYmluZGluZycsICctaW1hZScsICc8aW5maWxlLm1hZT4nLCAnLW9tYWUnLCAnPG91dGZpbGUubWFlPic=

> <r_lp_tautomer_probability>
1

> <r_epik_Ionization_Penalty>
2.21742e-07

> <r_epik_Ionization_Penalty_Charging>
1.04568e-07

> <r_epik_Ionization_Penalty_Neutral>
1.17174e-07

> <r_epik_State_Penalty>
-0

> <r_epik_Charging_Adjusted_Penalty>
1.04568e-07

> <i_epik_Tot_Q>
0

> <i_epik_Tot_abs_Q>
0

> <r_epik_Metal_State_Penalty>
-0

> <b_epik_Metal_Only>
0

> <s_lp_Force_Field>
OPLS_2005

> <r_lp_Energy>
22.7461

> <b_lp_Chiralities_Consistent>
1

> <s_lp_Variant>
AV-unprocessed.smi:433-2

> <Gold.Version>
5.8.1

> <Gold.Id.Protein>
6NUR|6NUR_protein|mol2

> <Gold.PLP.Fitness>
47.9023

> <Gold.PLP.PLP>
-45.9222

> <Gold.PLP.part.hbond>
-2.0000

> <Gold.PLP.part.metal>
0.0000

> <Gold.PLP.part.buried>
-2.3152

> <Gold.PLP.part.nonpolar>
-39.4039

> <Gold.PLP.part.repulsive>
0.1522

> <Gold.PLP.ligand.clash>
0.0000

> <Gold.PLP.ligand.torsion>
0.6699

> <Gold.PLP.Chemscore.Hbond>
1.0982

> <Gold.PLP.Chemscore.CHOScore>
0.0000

> <Gold.PLP.Chemscore.Metal>
0.0000

> <Gold.Chemscore.Hbonds>
donor molecule, donor type, donor heavy atom, donor atom, acceptor molecule, acceptor atom, score
      P1  H  7989  7998       L1    12  0.48
      P1  H  7997  8008       L1    20  0.67

> <Gold.PLP.Chemscore.Internal.Correction>
0.0252

> <Gold.Rescore>
     Score         DG    S(hbond)    S(metal)    S(lipo)     H(rot)  DE(clash)    DE(int)     intcor
     10.81     -13.14       0.73        0.00      98.54       2.46       0.29       2.04       ----

> <Gold.Chemscore.Fitness>
10.8096

> <Gold.Chemscore.DG>
-13.1406

> <Gold.Chemscore.ZeroCoef>
-5.4800

> <Gold.Chemscore.Hbond>
0.7278

> <Gold.Chemscore.Metal>
0.0000

> <Gold.Chemscore.Lipo>
98.5426

> <Gold.Chemscore.Internal_Hbond>
0.0000

> <Gold.Chemscore.DEClash>
0.2886

> <Gold.Chemscore.DEInternal>
2.0424

> <Gold.Chemscore.Rot>
2.4608

> <Gold.Chemscore.Internal.Correction>
   9.000000E+99

> <Gold.Chemscore.Hbonds>
donor molecule, donor type, donor heavy atom, donor atom, acceptor molecule, acceptor atom, score
      P1  H  7989  7998       L1    12  0.01
      P1  H  7997  8008       L1    20  0.65

> <Gold.Chemscore.Hbond.Weighted>
-2.4308

> <Gold.Chemscore.Metal.Weighted>
-0.0000

> <Gold.Chemscore.Lipo.Weighted>
-11.5295

> <Gold.Chemscore.Internal_Hbond.Weighted>
0.0000

> <Gold.Chemscore.DEClash.Weighted>
0.2886

> <Gold.Chemscore.DEInternal.Weighted>
2.0424

> <Gold.Chemscore.Rot.Weighted>
6.2997

> <Gold.Chemscore.Internal.Correction.Weighted>
   9.000000E+99

> <Gold.Protein.RotatedTorsions>
[ 6907 6896 6895 6894 ] final -112.16 input  -60.11 | X-H torsion
[ 7974 7965 7964 7962 ] final  -70.95 input  175.53 | X-H torsion
[ 8008 7997 7996 7995 ] final  -99.95 input   59.86 | X-H torsion
[ 10167 10162 10161 10158 ] final  -54.79 input  -65.29 | X-H torsion
[ 10718 10713 10712 10709 ] final  -54.51 input   66.30 | X-H torsion
[ 10763 10752 10751 10750 ] final -149.00 input  -60.55 | X-H torsion
[ 11005 11000 10999 10996 ] final  -10.60 input  -57.11 | X-H torsion

> <Gold.Protein.ActiveResidues>
 VAL166  LYS551  ARG553  GLY616  TRP617  ASP618  TYR619  PRO620  LYS621  CYS622 
 ASP623  PHE694  ASN695  SER759  ASP760  ASP761  ALA762  ILE779  LEU786  VAL792 
 PHE793  MET794  SER795  GLU796  ALA797  LYS798  CYS799  TRP800  GLU811  SER814 

> <Gold.Protein.RotatedAtoms>
  150.7739  133.9129  159.3374 H   0  0  0  0  0  0  0  0  0  0  0  0  # atno 6907 bound_to 6896
  151.7009  135.0928  160.0260 H   0  0  0  0  0  0  0  0  0  0  0  0  # atno 6908 bound_to 6896
  152.3768  133.6454  159.6165 H   0  0  0  0  0  0  0  0  0  0  0  0  # atno 6909 bound_to 6896
  145.6844  140.9176  143.0815 H   0  0  0  0  0  0  0  0  0  0  0  0  # atno 7974 bound_to 7965
  154.8219  140.0444  157.1417 H   0  0  0  0  0  0  0  0  0  0  0  0  # atno 8008 bound_to 7997
  154.9249  140.3032  155.5177 H   0  0  0  0  0  0  0  0  0  0  0  0  # atno 8009 bound_to 7997
  156.2981  140.2333  156.4303 H   0  0  0  0  0  0  0  0  0  0  0  0  # atno 8010 bound_to 7997
  140.6411  143.2508  151.4986 H   0  0  0  0  0  0  0  0  0  0  0  0  # atno 10167 bound_to 10162
  156.1445  130.4153  150.0047 H   0  0  0  0  0  0  0  0  0  0  0  0  # atno 10718 bound_to 10713
  154.8202  135.3320  154.7061 H   0  0  0  0  0  0  0  0  0  0  0  0  # atno 10763 bound_to 10752
  153.7696  135.6926  153.4913 H   0  0  0  0  0  0  0  0  0  0  0  0  # atno 10764 bound_to 10752
  153.2054  135.4501  155.0265 H   0  0  0  0  0  0  0  0  0  0  0  0  # atno 10765 bound_to 10752
  140.7464  133.8628  155.9009 H   0  0  0  0  0  0  0  0  0  0  0  0  # atno 11005 bound_to 11000
  144.7016  139.8739  143.7442 LP  0  0  0  0  0  0  0  0  0  0  0  0  # atno 17320 bound_to 7965
  146.0936  139.3927  143.0390 LP  0  0  0  0  0  0  0  0  0  0  0  0  # atno 17321 bound_to 7965
  139.5620  144.2133  152.1707 LP  0  0  0  0  0  0  0  0  0  0  0  0  # atno 17342 bound_to 10162
  140.1403  144.5208  150.6748 LP  0  0  0  0  0  0  0  0  0  0  0  0  # atno 17343 bound_to 10162
  156.7923  130.9260  151.3646 LP  0  0  0  0  0  0  0  0  0  0  0  0  # atno 17370 bound_to 10713
  157.6604  130.8961  149.9819 LP  0  0  0  0  0  0  0  0  0  0  0  0  # atno 17371 bound_to 10713
  140.9790  134.1430  157.4511 LP  0  0  0  0  0  0  0  0  0  0  0  0  # atno 17394 bound_to 11000
  139.8796  135.0004  156.6009 LP  0  0  0  0  0  0  0  0  0  0  0  0  # atno 17395 bound_to 11000

$$$$
