AV-unprocessed.smi:2807|AV-procd|sdf|10820|dock9
  -GOLD-   2272015253D 1   1.00000     0.00000
 Structure written by MMmdl.
 31 32  0  0  0  0  0  0  0  0  2 V2000
  151.6937  139.3471  155.5840 O   0  0  0  0  0  0  0  0  0  0  0  0
  150.9182  140.2406  155.9444 C   0  0  0  0  0  0  0  0  0  0  0  0
  150.2390  141.1587  155.1985 N   0  5  0  0  0  0  0  0  0  0  0  0
  149.1786  140.8193  154.2505 C   0  0  2  0  0  0  0  0  0  0  0  0
  147.8340  141.4395  154.6530 C   0  0  0  0  0  0  0  0  0  0  0  0
  146.7571  140.5229  154.0480 C   0  0  0  0  0  0  0  0  0  0  0  0
  147.4617  139.2092  153.6706 C   0  0  0  0  0  0  0  0  0  0  0  0
  148.8735  139.3177  154.2614 C   0  0  1  0  0  0  0  0  0  0  0  0
  149.8190  138.5818  153.5141 O   0  0  0  0  0  0  0  0  0  0  0  0
  150.6569  140.4165  157.4553 C   0  0  0  0  0  0  0  0  0  0  0  0
  149.3411  140.4214  157.6964 F   0  0  0  0  0  0  0  0  0  0  0  0
  151.1763  139.3720  158.1054 F   0  0  0  0  0  0  0  0  0  0  0  0
  151.3168  141.6965  157.9662 C   0  0  0  0  0  0  0  0  0  0  0  0
  150.8811  142.9617  157.5095 C   0  0  0  0  0  0  0  0  0  0  0  0
  151.5011  144.1167  158.0230 C   0  0  0  0  0  0  0  0  0  0  0  0
  152.5313  143.9695  158.9708 C   0  0  0  0  0  0  0  0  0  0  0  0
  152.8963  142.6670  159.3645 C   0  0  0  0  0  0  0  0  0  0  0  0
  152.3093  141.5537  158.8774 N   0  0  0  0  0  0  0  0  0  0  0  0
  149.4117  141.1241  153.2282 H   0  0  0  0  0  0  0  0  0  0  0  0
  147.7276  141.4435  155.7393 H   0  0  0  0  0  0  0  0  0  0  0  0
  147.7384  142.4713  154.3134 H   0  0  0  0  0  0  0  0  0  0  0  0
  145.9549  140.3493  154.7662 H   0  0  0  0  0  0  0  0  0  0  0  0
  146.3056  140.9774  153.1647 H   0  0  0  0  0  0  0  0  0  0  0  0
  146.9324  138.3336  154.0478 H   0  0  0  0  0  0  0  0  0  0  0  0
  147.4984  139.1168  152.5825 H   0  0  0  0  0  0  0  0  0  0  0  0
  148.8619  138.9446  155.2872 H   0  0  0  0  0  0  0  0  0  0  0  0
  149.3413  138.0365  152.9071 H   0  0  0  0  0  0  0  0  0  0  0  0
  150.0810  143.0440  156.7887 H   0  0  0  0  0  0  0  0  0  0  0  0
  151.1893  145.0981  157.6977 H   0  0  0  0  0  0  0  0  0  0  0  0
  153.0280  144.8330  159.3877 H   0  0  0  0  0  0  0  0  0  0  0  0
  153.6815  142.5157  160.0903 H   0  0  0  0  0  0  0  0  0  0  0  0
  1  2  2  0  0  0  0
  2  3  1  0  0  0  0
  2 10  1  0  0  0  0
  3  4  1  0  0  0  0
  4  8  1  0  0  0  0
  4  5  1  0  0  0  0
  4 19  1  0  0  0  0
  5  6  1  0  0  0  0
  5 20  1  0  0  0  0
  5 21  1  0  0  0  0
  6  7  1  0  0  0  0
  6 22  1  0  0  0  0
  6 23  1  0  0  0  0
  7  8  1  0  0  0  0
  7 24  1  0  0  0  0
  7 25  1  0  0  0  0
  8  9  1  0  0  0  0
  8 26  1  0  0  0  0
  9 27  1  0  0  0  0
 10 11  1  0  0  0  0
 10 12  1  0  0  0  0
 10 13  1  0  0  0  0
 13 18  1  0  0  0  0
 13 14  2  0  0  0  0
 14 15  1  0  0  0  0
 14 28  1  0  0  0  0
 15 16  2  0  0  0  0
 15 29  1  0  0  0  0
 16 17  1  0  0  0  0
 16 30  1  0  0  0  0
 17 18  2  0  0  0  0
 17 31  1  0  0  0  0
M  CHG  1   3  -1
M  END
> <s_m_source_file>
AV-unprocessed.smi

> <i_m_source_file_index>
2807

> <i_lp_mmshare_version>
43012

> <i_f3d_flags>
0

> <s_epik_input>
bjFbY0hdW2NIXVtjSF1bY0hdYzFDKEYpKEYpQyg9TylbTkhdW0NAQEhdMltDSDJdW0NIMl1bQ0gyXVtDQEhdMltPSF0=

> <s_epik_cmdline>
J2VwaWtfcHl0aG9uJywgJy1waCcsICc3LjAnLCAnLXRuJywgJzgnLCAnLW1hJywgJzIwMCcsICctbWV0YWxfYmluZGluZycsICctaW1hZScsICc8aW5maWxlLm1hZT4nLCAnLW9tYWUnLCAnPG91dGZpbGUubWFlPic=

> <r_lp_tautomer_probability>
1

> <r_epik_Ionization_Penalty>
5.72231

> <r_epik_Ionization_Penalty_Charging>
5.72231

> <r_epik_Ionization_Penalty_Neutral>
5.49816e-06

> <r_epik_State_Penalty>
5.72227

> <r_epik_Charging_Adjusted_Penalty>
11.4446

> <i_epik_Tot_Q>
-1

> <i_epik_Tot_abs_Q>
1

> <r_epik_Metal_State_Penalty>
1.70075

> <b_epik_Metal_Only>
1

> <s_lp_Force_Field>
OPLS_2005

> <r_lp_Energy>
34.3832

> <b_lp_Chiralities_Consistent>
1

> <s_lp_Variant>
AV-unprocessed.smi:2807-5

> <Gold.Version>
5.8.1

> <Gold.Id.Protein>
6NUR|6NUR_protein|mol2

> <Gold.PLP.Fitness>
39.3522

> <Gold.PLP.PLP>
-37.7194

> <Gold.PLP.part.hbond>
-3.0000

> <Gold.PLP.part.metal>
0.0000

> <Gold.PLP.part.buried>
-3.0700

> <Gold.PLP.part.nonpolar>
-32.1830

> <Gold.PLP.part.repulsive>
0.1001

> <Gold.PLP.ligand.clash>
0.0000

> <Gold.PLP.ligand.torsion>
0.9244

> <Gold.PLP.Chemscore.Hbond>
1.1436

> <Gold.PLP.Chemscore.CHOScore>
0.0000

> <Gold.PLP.Chemscore.Metal>
0.0000

> <Gold.Chemscore.Hbonds>
donor molecule, donor type, donor heavy atom, donor atom, acceptor molecule, acceptor atom, score
      L1  H     9    27       P1  7948  0.86
      P1  H  7989  7998       L1     3  0.07

> <Gold.PLP.Chemscore.Internal.Correction>
0.0508

> <Gold.Rescore>
     Score         DG    S(hbond)    S(metal)    S(lipo)     H(rot)  DE(clash)    DE(int)     intcor
     12.85     -14.28       0.93        0.00      92.28       2.00       0.11       1.31       ----

> <Gold.Chemscore.Fitness>
12.8546

> <Gold.Chemscore.DG>
-14.2801

> <Gold.Chemscore.ZeroCoef>
-5.4800

> <Gold.Chemscore.Hbond>
0.9323

> <Gold.Chemscore.Metal>
0.0000

> <Gold.Chemscore.Lipo>
92.2819

> <Gold.Chemscore.Internal_Hbond>
0.0000

> <Gold.Chemscore.DEClash>
0.1124

> <Gold.Chemscore.DEInternal>
1.3130

> <Gold.Chemscore.Rot>
1.9964

> <Gold.Chemscore.Internal.Correction>
   9.000000E+99

> <Gold.Chemscore.Hbonds>
donor molecule, donor type, donor heavy atom, donor atom, acceptor molecule, acceptor atom, score
      L1  H     9    27       P1  7948  0.77

> <Gold.Chemscore.Hbond.Weighted>
-3.1139

> <Gold.Chemscore.Metal.Weighted>
-0.0000

> <Gold.Chemscore.Lipo.Weighted>
-10.7970

> <Gold.Chemscore.Internal_Hbond.Weighted>
0.0000

> <Gold.Chemscore.DEClash.Weighted>
0.1124

> <Gold.Chemscore.DEInternal.Weighted>
1.3130

> <Gold.Chemscore.Rot.Weighted>
5.1108

> <Gold.Chemscore.Internal.Correction.Weighted>
   9.000000E+99

> <Gold.Protein.RotatedTorsions>
[ 6907 6896 6895 6894 ] final   98.41 input  -60.11 | X-H torsion
[ 7974 7965 7964 7962 ] final  114.36 input  175.53 | X-H torsion
[ 8008 7997 7996 7995 ] final  -35.90 input   59.86 | X-H torsion
[ 10167 10162 10161 10158 ] final  -85.19 input  -65.29 | X-H torsion
[ 10718 10713 10712 10709 ] final   -8.46 input   66.30 | X-H torsion
[ 10763 10752 10751 10750 ] final -159.34 input  -60.55 | X-H torsion
[ 11005 11000 10999 10996 ] final  104.75 input  -57.11 | X-H torsion

> <Gold.Protein.ActiveResidues>
 VAL166  LYS551  ARG553  GLY616  TRP617  ASP618  TYR619  PRO620  LYS621  CYS622 
 ASP623  PHE694  ASN695  SER759  ASP760  ASP761  ALA762  ILE779  LEU786  VAL792 
 PHE793  MET794  SER795  GLU796  ALA797  LYS798  CYS799  TRP800  GLU811  SER814 

> <Gold.Protein.RotatedAtoms>
  152.5409  134.0585  159.8141 H   0  0  0  0  0  0  0  0  0  0  0  0  # atno 6907 bound_to 6896
  151.0717  133.5453  159.2634 H   0  0  0  0  0  0  0  0  0  0  0  0  # atno 6908 bound_to 6896
  151.2314  135.0564  159.9043 H   0  0  0  0  0  0  0  0  0  0  0  0  # atno 6909 bound_to 6896
  145.2054  139.2932  143.4296 H   0  0  0  0  0  0  0  0  0  0  0  0  # atno 7974 bound_to 7965
  154.4085  140.1645  156.2287 H   0  0  0  0  0  0  0  0  0  0  0  0  # atno 8008 bound_to 7997
  155.9302  140.3415  155.6220 H   0  0  0  0  0  0  0  0  0  0  0  0  # atno 8009 bound_to 7997
  155.7116  140.0757  157.2359 H   0  0  0  0  0  0  0  0  0  0  0  0  # atno 8010 bound_to 7997
  140.4061  143.2642  151.9079 H   0  0  0  0  0  0  0  0  0  0  0  0  # atno 10167 bound_to 10162
  156.7022  130.5097  149.5914 H   0  0  0  0  0  0  0  0  0  0  0  0  # atno 10718 bound_to 10713
  154.7483  135.3086  154.8604 H   0  0  0  0  0  0  0  0  0  0  0  0  # atno 10763 bound_to 10752
  153.9399  135.6776  153.4748 H   0  0  0  0  0  0  0  0  0  0  0  0  # atno 10764 bound_to 10752
  153.1079  135.4880  154.8911 H   0  0  0  0  0  0  0  0  0  0  0  0  # atno 10765 bound_to 10752
  139.8795  134.9311  156.5408 H   0  0  0  0  0  0  0  0  0  0  0  0  # atno 11005 bound_to 11000
  146.3409  140.2312  142.8593 LP  0  0  0  0  0  0  0  0  0  0  0  0  # atno 17320 bound_to 7965
  144.9908  140.8545  143.5341 LP  0  0  0  0  0  0  0  0  0  0  0  0  # atno 17321 bound_to 7965
  139.4783  144.5585  151.8276 LP  0  0  0  0  0  0  0  0  0  0  0  0  # atno 17342 bound_to 10162
  140.4688  144.1616  150.5915 LP  0  0  0  0  0  0  0  0  0  0  0  0  # atno 17343 bound_to 10162
  156.1720  130.6443  151.0849 LP  0  0  0  0  0  0  0  0  0  0  0  0  # atno 17370 bound_to 10713
  157.6968  131.0791  150.6943 LP  0  0  0  0  0  0  0  0  0  0  0  0  # atno 17371 bound_to 10713
  140.8311  133.8278  155.8985 LP  0  0  0  0  0  0  0  0  0  0  0  0  # atno 17394 bound_to 11000
  140.9327  134.2001  157.4852 LP  0  0  0  0  0  0  0  0  0  0  0  0  # atno 17395 bound_to 11000

$$$$
