AV-unprocessed.smi:1093|AV-procd|sdf|4741|dock1
  -GOLD-   22720 3273D 1   1.00000     0.00000
 Structure written by MMmdl.
 48 49  0  0  0  0  0  0  0  0  3 V2000
  145.6664  134.6855  152.6402 C   0  0  0  0  0  0  0  0  0  0  0  0
  146.1744  135.2482  153.9755 C   0  0  0  0  0  0  0  0  0  0  0  0
  147.6543  135.2013  154.0885 N   0  3  2  0  0  0  0  0  0  0  0  0
  148.1541  133.8214  154.3223 C   0  0  0  0  0  0  0  0  0  0  0  0
  149.6905  133.7741  154.2934 C   0  0  0  0  0  0  0  0  0  0  0  0
  150.2925  134.7504  155.3119 C   0  0  0  0  0  0  0  0  0  0  0  0
  149.7384  136.1666  155.0759 C   0  0  2  0  0  0  0  0  0  0  0  0
  150.2393  137.0925  156.0887 N   0  0  0  0  0  0  0  0  0  0  0  0
  150.3416  138.4209  155.9361 C   0  0  0  0  0  0  0  0  0  0  0  0
  150.0227  139.0103  154.9040 O   0  0  0  0  0  0  0  0  0  0  0  0
  150.8489  139.0018  157.0374 N   0  0  0  0  0  0  0  0  0  0  0  0
  151.0792  140.3834  157.2827 C   0  0  0  0  0  0  0  0  0  0  0  0
  151.9301  140.7302  158.3528 C   0  0  0  0  0  0  0  0  0  0  0  0
  152.1746  142.0878  158.6450 C   0  0  0  0  0  0  0  0  0  0  0  0
  151.5573  143.0986  157.8679 C   0  0  0  0  0  0  0  0  0  0  0  0
  151.7503  144.4779  158.0987 N   0  0  0  0  0  0  0  0  0  0  0  0
  151.4127  145.0483  159.3965 C   0  0  0  0  0  0  0  0  0  0  0  0
  152.4095  145.2953  157.0862 C   0  0  0  0  0  0  0  0  0  0  0  0
  150.7377  142.7160  156.8582 N   0  3  0  0  0  0  0  0  0  0  0  0
  150.4775  141.4290  156.5427 C   0  0  0  0  0  0  0  0  0  0  0  0
  148.1978  136.1545  155.0936 C   0  0  0  0  0  0  0  0  0  0  0  0
  144.5768  134.6455  152.6322 H   0  0  0  0  0  0  0  0  0  0  0  0
  146.0337  133.6724  152.4743 H   0  0  0  0  0  0  0  0  0  0  0  0
  145.9713  135.2985  151.7929 H   0  0  0  0  0  0  0  0  0  0  0  0
  145.8185  136.2685  154.1249 H   0  0  0  0  0  0  0  0  0  0  0  0
  145.7348  134.6485  154.7736 H   0  0  0  0  0  0  0  0  0  0  0  0
  147.7835  133.4559  155.2814 H   0  0  0  0  0  0  0  0  0  0  0  0
  147.7636  133.1514  153.5552 H   0  0  0  0  0  0  0  0  0  0  0  0
  150.0362  132.7607  154.4998 H   0  0  0  0  0  0  0  0  0  0  0  0
  150.0457  134.0241  153.2927 H   0  0  0  0  0  0  0  0  0  0  0  0
  150.0525  134.4182  156.3231 H   0  0  0  0  0  0  0  0  0  0  0  0
  151.3802  134.7462  155.2313 H   0  0  0  0  0  0  0  0  0  0  0  0
  150.0584  136.5102  154.0901 H   0  0  0  0  0  0  0  0  0  0  0  0
  150.5318  136.6911  156.9679 H   0  0  0  0  0  0  0  0  0  0  0  0
  151.1397  138.3772  157.7753 H   0  0  0  0  0  0  0  0  0  0  0  0
  152.3999  139.9616  158.9492 H   0  0  0  0  0  0  0  0  0  0  0  0
  152.8329  142.3306  159.4656 H   0  0  0  0  0  0  0  0  0  0  0  0
  150.3490  144.9270  159.6051 H   0  0  0  0  0  0  0  0  0  0  0  0
  151.6378  146.1143  159.4320 H   0  0  0  0  0  0  0  0  0  0  0  0
  151.9819  144.5607  160.1887 H   0  0  0  0  0  0  0  0  0  0  0  0
  151.8539  145.2672  156.1483 H   0  0  0  0  0  0  0  0  0  0  0  0
  153.4214  144.9334  156.9016 H   0  0  0  0  0  0  0  0  0  0  0  0
  152.4791  146.3371  157.3997 H   0  0  0  0  0  0  0  0  0  0  0  0
  149.7901  141.2962  155.7211 H   0  0  0  0  0  0  0  0  0  0  0  0
  147.8353  137.1614  154.8880 H   0  0  0  0  0  0  0  0  0  0  0  0
  147.8307  135.8831  156.0851 H   0  0  0  0  0  0  0  0  0  0  0  0
  148.0177  135.4820  153.1888 H   0  0  0  0  0  0  0  0  0  0  0  0
  150.2870  143.4438  156.3033 H   0  0  0  0  0  0  0  0  0  0  0  0
  1  2  1  0  0  0  0
  1 22  1  0  0  0  0
  1 23  1  0  0  0  0
  1 24  1  0  0  0  0
  2  3  1  0  0  0  0
  2 25  1  0  0  0  0
  2 26  1  0  0  0  0
  3 21  1  0  0  0  0
  3  4  1  0  0  0  0
  3 47  1  0  0  0  0
  4  5  1  0  0  0  0
  4 27  1  0  0  0  0
  4 28  1  0  0  0  0
  5  6  1  0  0  0  0
  5 29  1  0  0  0  0
  5 30  1  0  0  0  0
  6  7  1  0  0  0  0
  6 31  1  0  0  0  0
  6 32  1  0  0  0  0
  7  8  1  0  0  0  0
  7 21  1  0  0  0  0
  7 33  1  0  0  0  0
  8  9  1  0  0  0  0
  8 34  1  0  0  0  0
  9 10  2  0  0  0  0
  9 11  1  0  0  0  0
 11 12  1  0  0  0  0
 11 35  1  0  0  0  0
 12 20  1  0  0  0  0
 12 13  2  0  0  0  0
 13 14  1  0  0  0  0
 13 36  1  0  0  0  0
 14 15  2  0  0  0  0
 14 37  1  0  0  0  0
 15 16  1  0  0  0  0
 15 19  1  0  0  0  0
 16 17  1  0  0  0  0
 16 18  1  0  0  0  0
 17 38  1  0  0  0  0
 17 39  1  0  0  0  0
 17 40  1  0  0  0  0
 18 41  1  0  0  0  0
 18 42  1  0  0  0  0
 18 43  1  0  0  0  0
 19 20  2  0  0  0  0
 19 48  1  0  0  0  0
 20 44  1  0  0  0  0
 21 45  1  0  0  0  0
 21 46  1  0  0  0  0
M  CHG  1   3   1
M  CHG  1  19   1
M  END
> <s_m_source_file>
AV-unprocessed.smi

> <i_m_source_file_index>
1093

> <i_lp_mmshare_version>
43012

> <i_f3d_flags>
0

> <s_epik_input>
W0NIM11bQ0gyXU4xW0NIMl1bQ0gyXVtDSDJdW0NASF0oW0NIMl0xKVtOSF1DKD1PKVtOSF1jMltjSF1bY0hdYyhOKFtDSDNdKVtDSDNdKW5bY0hdMg==

> <s_epik_cmdline>
J2VwaWtfcHl0aG9uJywgJy1waCcsICc3LjAnLCAnLXRuJywgJzgnLCAnLW1hJywgJzIwMCcsICctbWV0YWxfYmluZGluZycsICctaW1hZScsICc8aW5maWxlLm1hZT4nLCAnLW9tYWUnLCAnPG91dGZpbGUubWFlPic=

> <r_lp_tautomer_probability>
0.999994

> <r_epik_Ionization_Penalty>
0.346711

> <r_epik_Ionization_Penalty_Charging>
0.346691

> <r_epik_Ionization_Penalty_Neutral>
1.93006e-05

> <r_epik_State_Penalty>
0.339838

> <r_epik_Charging_Adjusted_Penalty>
0.68653

> <i_epik_Tot_Q>
2

> <i_epik_Tot_abs_Q>
2

> <r_epik_Metal_State_Penalty>
0.600835

> <b_epik_Metal_Only>
0

> <s_lp_Force_Field>
OPLS_2005

> <r_lp_Energy>
27.882

> <b_lp_Chiralities_Consistent>
1

> <s_lp_Variant>
AV-unprocessed.smi:1093-4

> <Gold.Version>
5.8.1

> <Gold.Id.Protein>
6NUR|6NUR_protein|mol2

> <Gold.PLP.Fitness>
41.2979

> <Gold.PLP.PLP>
-32.7218

> <Gold.PLP.part.hbond>
-2.0000

> <Gold.PLP.part.metal>
0.0000

> <Gold.PLP.part.buried>
-5.7636

> <Gold.PLP.part.nonpolar>
-25.1040

> <Gold.PLP.part.repulsive>
0.1920

> <Gold.PLP.ligand.clash>
0.0000

> <Gold.PLP.ligand.torsion>
1.6986

> <Gold.PLP.Chemscore.Hbond>
3.9825

> <Gold.PLP.Chemscore.CHOScore>
0.0000

> <Gold.PLP.Chemscore.Metal>
0.0000

> <Gold.Chemscore.Hbonds>
donor molecule, donor type, donor heavy atom, donor atom, acceptor molecule, acceptor atom, score
      L1  H     3    47       P1  7948  2.00
      L1  H    19    48       P1  8028  2.00

> <Gold.PLP.Chemscore.Internal.Correction>
0.0258

> <Gold.Rescore>
     Score         DG    S(hbond)    S(metal)    S(lipo)     H(rot)  DE(clash)    DE(int)     intcor
     13.88     -18.27       1.96        0.00      79.36       1.19       1.60       2.79       ----

> <Gold.Chemscore.Fitness>
13.8769

> <Gold.Chemscore.DG>
-18.2679

> <Gold.Chemscore.ZeroCoef>
-5.4800

> <Gold.Chemscore.Hbond>
1.9645

> <Gold.Chemscore.Metal>
0.0000

> <Gold.Chemscore.Lipo>
79.3615

> <Gold.Chemscore.Internal_Hbond>
0.0000

> <Gold.Chemscore.DEClash>
1.6044

> <Gold.Chemscore.DEInternal>
2.7866

> <Gold.Chemscore.Rot>
1.1949

> <Gold.Chemscore.Internal.Correction>
   9.000000E+99

> <Gold.Chemscore.Hbonds>
donor molecule, donor type, donor heavy atom, donor atom, acceptor molecule, acceptor atom, score
      L1  H     3    47       P1  7948  1.00
      L1  H    19    48       P1  8028  0.96

> <Gold.Chemscore.Hbond.Weighted>
-6.5616

> <Gold.Chemscore.Metal.Weighted>
-0.0000

> <Gold.Chemscore.Lipo.Weighted>
-9.2853

> <Gold.Chemscore.Internal_Hbond.Weighted>
0.0000

> <Gold.Chemscore.DEClash.Weighted>
1.6044

> <Gold.Chemscore.DEInternal.Weighted>
2.7866

> <Gold.Chemscore.Rot.Weighted>
3.0590

> <Gold.Chemscore.Internal.Correction.Weighted>
   9.000000E+99

> <Gold.Protein.RotatedTorsions>
[ 6907 6896 6895 6894 ] final -149.68 input  -60.11 | X-H torsion
[ 7974 7965 7964 7962 ] final   68.94 input  175.53 | X-H torsion
[ 8008 7997 7996 7995 ] final  137.83 input   59.86 | X-H torsion
[ 10167 10162 10161 10158 ] final  147.70 input  -65.29 | X-H torsion
[ 10718 10713 10712 10709 ] final  -12.00 input   66.30 | X-H torsion
[ 10763 10752 10751 10750 ] final  -35.26 input  -60.55 | X-H torsion
[ 11005 11000 10999 10996 ] final  -13.75 input  -57.11 | X-H torsion

> <Gold.Protein.ActiveResidues>
 VAL166  LYS551  ARG553  GLY616  TRP617  ASP618  TYR619  PRO620  LYS621  CYS622 
 ASP623  PHE694  ASN695  SER759  ASP760  ASP761  ALA762  ILE779  LEU786  VAL792 
 PHE793  MET794  SER795  GLU796  ALA797  LYS798  CYS799  TRP800  GLU811  SER814 

> <Gold.Protein.RotatedAtoms>
  151.1876  133.4687  159.2594 H   0  0  0  0  0  0  0  0  0  0  0  0  # atno 6907 bound_to 6896
  151.1196  135.0072  159.8542 H   0  0  0  0  0  0  0  0  0  0  0  0  # atno 6908 bound_to 6896
  152.5455  134.1788  159.8680 H   0  0  0  0  0  0  0  0  0  0  0  0  # atno 6909 bound_to 6896
  145.7965  139.2960  143.1180 H   0  0  0  0  0  0  0  0  0  0  0  0  # atno 7974 bound_to 7965
  156.3000  140.2409  156.3973 H   0  0  0  0  0  0  0  0  0  0  0  0  # atno 8008 bound_to 7997
  154.8559  140.0422  157.1654 H   0  0  0  0  0  0  0  0  0  0  0  0  # atno 8009 bound_to 7997
  154.8948  140.2968  155.5354 H   0  0  0  0  0  0  0  0  0  0  0  0  # atno 8010 bound_to 7997
  139.4886  144.5736  151.7009 H   0  0  0  0  0  0  0  0  0  0  0  0  # atno 10167 bound_to 10162
  156.6509  130.4954  149.6062 H   0  0  0  0  0  0  0  0  0  0  0  0  # atno 10718 bound_to 10713
  153.8602  135.6841  153.4783 H   0  0  0  0  0  0  0  0  0  0  0  0  # atno 10763 bound_to 10752
  153.1346  135.4683  154.9400 H   0  0  0  0  0  0  0  0  0  0  0  0  # atno 10764 bound_to 10752
  154.7762  135.3254  154.8036 H   0  0  0  0  0  0  0  0  0  0  0  0  # atno 10765 bound_to 10752
  140.7793  133.8376  155.9277 H   0  0  0  0  0  0  0  0  0  0  0  0  # atno 11005 bound_to 11000
  145.9922  140.8592  143.0060 LP  0  0  0  0  0  0  0  0  0  0  0  0  # atno 17320 bound_to 7965
  144.6774  140.2232  143.7364 LP  0  0  0  0  0  0  0  0  0  0  0  0  # atno 17321 bound_to 7965
  140.5327  144.0704  150.6059 LP  0  0  0  0  0  0  0  0  0  0  0  0  # atno 17342 bound_to 10162
  140.3700  143.2860  152.0289 LP  0  0  0  0  0  0  0  0  0  0  0  0  # atno 17343 bound_to 10162
  156.2085  130.6664  151.1244 LP  0  0  0  0  0  0  0  0  0  0  0  0  # atno 17370 bound_to 10713
  157.7141  131.0719  150.6393 LP  0  0  0  0  0  0  0  0  0  0  0  0  # atno 17371 bound_to 10713
  140.9498  134.1793  157.4736 LP  0  0  0  0  0  0  0  0  0  0  0  0  # atno 17394 bound_to 11000
  139.8745  134.9905  156.5504 LP  0  0  0  0  0  0  0  0  0  0  0  0  # atno 17395 bound_to 11000

$$$$
