AV-unprocessed.smi:970|AV-procd|sdf|4294|dock2
  -GOLD-   22720 2203D 1   1.00000     0.00000
 Structure written by MMmdl.
 31 31  0  0  0  0  0  0  0  0  1 V2000
  149.7069  138.3907  154.4093 C   0  0  0  0  0  0  0  0  0  0  0  0
  148.5579  137.9365  153.6415 N   0  0  0  0  0  0  0  0  0  0  0  0
  147.2932  137.9684  154.0850 C   0  0  0  0  0  0  0  0  0  0  0  0
  146.9822  138.3844  155.2025 O   0  0  0  0  0  0  0  0  0  0  0  0
  146.2206  137.4328  153.1221 C   0  0  1  0  0  0  0  0  0  0  0  0
  146.2147  138.3244  151.8692 C   0  0  0  0  0  0  0  0  0  0  0  0
  146.5392  136.0698  152.7012 N   0  0  0  0  0  0  0  0  0  0  0  0
  145.6880  135.0309  152.7248 C   0  0  0  0  0  0  0  0  0  0  0  0
  144.5217  135.1271  153.1093 O   0  0  0  0  0  0  0  0  0  0  0  0
  146.2459  133.6847  152.2380 C   0  0  1  0  0  0  0  0  0  0  0  0
  146.3663  132.6475  153.3732 C   0  0  0  0  0  0  0  0  0  0  0  0
  145.4554  133.1908  151.1169 N   0  0  0  0  0  0  0  0  0  0  0  0
  145.6921  132.1757  150.2827 C   0  0  0  0  0  0  0  0  0  0  0  0
  144.7785  132.0341  149.3327 N   0  0  0  0  0  0  0  0  0  0  0  0
  143.9536  133.0744  149.6533 C   0  0  0  0  0  0  0  0  0  0  0  0
  144.3182  133.8059  150.7059 N   0  0  0  0  0  0  0  0  0  0  0  0
  150.6090  138.3289  153.8008 H   0  0  0  0  0  0  0  0  0  0  0  0
  149.8493  137.7702  155.2949 H   0  0  0  0  0  0  0  0  0  0  0  0
  149.5799  139.4268  154.7260 H   0  0  0  0  0  0  0  0  0  0  0  0
  148.7333  137.5811  152.7127 H   0  0  0  0  0  0  0  0  0  0  0  0
  145.2371  137.4587  153.5957 H   0  0  0  0  0  0  0  0  0  0  0  0
  145.9798  139.3598  152.1201 H   0  0  0  0  0  0  0  0  0  0  0  0
  145.4629  137.9864  151.1553 H   0  0  0  0  0  0  0  0  0  0  0  0
  147.1792  138.3161  151.3590 H   0  0  0  0  0  0  0  0  0  0  0  0
  147.4817  135.9036  152.3802 H   0  0  0  0  0  0  0  0  0  0  0  0
  147.2544  133.8656  151.8617 H   0  0  0  0  0  0  0  0  0  0  0  0
  147.0108  133.0146  154.1725 H   0  0  0  0  0  0  0  0  0  0  0  0
  146.8008  131.7175  153.0054 H   0  0  0  0  0  0  0  0  0  0  0  0
  145.3983  132.4070  153.8148 H   0  0  0  0  0  0  0  0  0  0  0  0
  146.5535  131.5296  150.3693 H   0  0  0  0  0  0  0  0  0  0  0  0
  143.0611  133.3041  149.0899 H   0  0  0  0  0  0  0  0  0  0  0  0
  1  2  1  0  0  0  0
  1 17  1  0  0  0  0
  1 18  1  0  0  0  0
  1 19  1  0  0  0  0
  2  3  1  0  0  0  0
  2 20  1  0  0  0  0
  3  4  2  0  0  0  0
  3  5  1  0  0  0  0
  5  6  1  0  0  0  0
  5  7  1  0  0  0  0
  5 21  1  0  0  0  0
  6 22  1  0  0  0  0
  6 23  1  0  0  0  0
  6 24  1  0  0  0  0
  7  8  1  0  0  0  0
  7 25  1  0  0  0  0
  8  9  2  0  0  0  0
  8 10  1  0  0  0  0
 10 11  1  0  0  0  0
 10 12  1  0  0  0  0
 10 26  1  0  0  0  0
 11 27  1  0  0  0  0
 11 28  1  0  0  0  0
 11 29  1  0  0  0  0
 12 16  1  0  0  0  0
 12 13  1  0  0  0  0
 13 14  2  0  0  0  0
 13 30  1  0  0  0  0
 14 15  1  0  0  0  0
 15 16  2  0  0  0  0
 15 31  1  0  0  0  0
M  END
> <s_m_source_file>
AV-unprocessed.smi

> <i_m_source_file_index>
970

> <i_lp_mmshare_version>
43012

> <i_f3d_flags>
0

> <s_epik_input>
W0NIM11bTkhdQyg9TylbQ0BIXShbQ0gzXSlbTkhdQyg9TylbQ0BIXShbQ0gzXSluMVtjSF1uW2NIXW4x

> <s_epik_cmdline>
J2VwaWtfcHl0aG9uJywgJy1waCcsICc3LjAnLCAnLXRuJywgJzgnLCAnLW1hJywgJzIwMCcsICctbWV0YWxfYmluZGluZycsICctaW1hZScsICc8aW5maWxlLm1hZT4nLCAnLW9tYWUnLCAnPG91dGZpbGUubWFlPic=

> <r_lp_tautomer_probability>
1

> <r_epik_Ionization_Penalty>
1.07271e-05

> <r_epik_Ionization_Penalty_Charging>
0

> <r_epik_Ionization_Penalty_Neutral>
1.07271e-05

> <r_epik_State_Penalty>
-0

> <r_epik_Charging_Adjusted_Penalty>
0

> <i_epik_Tot_Q>
0

> <i_epik_Tot_abs_Q>
0

> <r_epik_Metal_State_Penalty>
-0

> <b_epik_Metal_Only>
0

> <s_lp_Force_Field>
OPLS_2005

> <r_lp_Energy>
8.70478

> <b_lp_Chiralities_Consistent>
1

> <s_lp_Variant>
AV-unprocessed.smi:970-4

> <Gold.Version>
5.8.1

> <Gold.Id.Protein>
6NUR|6NUR_protein|mol2

> <Gold.PLP.Fitness>
33.4069

> <Gold.PLP.PLP>
-22.0233

> <Gold.PLP.part.hbond>
-2.3448

> <Gold.PLP.part.metal>
0.0000

> <Gold.PLP.part.buried>
-3.5180

> <Gold.PLP.part.nonpolar>
-17.8291

> <Gold.PLP.part.repulsive>
0.4769

> <Gold.PLP.ligand.clash>
0.0000

> <Gold.PLP.ligand.torsion>
0.2552

> <Gold.PLP.Chemscore.Hbond>
1.9280

> <Gold.PLP.Chemscore.CHOScore>
2.0000

> <Gold.PLP.Chemscore.Metal>
0.0000

> <Gold.Chemscore.Hbonds>
donor molecule, donor type, donor heavy atom, donor atom, acceptor molecule, acceptor atom, score
      L1  H     2    20       P1  7948  0.90
      L1  H     7    25       P1  7948  1.00
      L1  C    13    30       P1 10747  1.00
      L1  C    15    31       P1 10186  1.00

> <Gold.PLP.Chemscore.Internal.Correction>
0.1101

> <Gold.Rescore>
     Score         DG    S(hbond)    S(metal)    S(lipo)     H(rot)  DE(clash)    DE(int)     intcor
      6.83      -8.52       1.96        0.00      26.52       2.59       0.01       1.68       ----

> <Gold.Chemscore.Fitness>
6.8315

> <Gold.Chemscore.DG>
-8.5208

> <Gold.Chemscore.ZeroCoef>
-5.4800

> <Gold.Chemscore.Hbond>
1.9628

> <Gold.Chemscore.Metal>
0.0000

> <Gold.Chemscore.Lipo>
26.5244

> <Gold.Chemscore.Internal_Hbond>
0.0000

> <Gold.Chemscore.DEClash>
0.0073

> <Gold.Chemscore.DEInternal>
1.6820

> <Gold.Chemscore.Rot>
2.5852

> <Gold.Chemscore.Internal.Correction>
   9.000000E+99

> <Gold.Chemscore.Hbonds>
donor molecule, donor type, donor heavy atom, donor atom, acceptor molecule, acceptor atom, score
      L1  H     2    20       P1  7948  0.86
      L1  H     7    25       P1  7948  0.97

> <Gold.Chemscore.Hbond.Weighted>
-6.5557

> <Gold.Chemscore.Metal.Weighted>
-0.0000

> <Gold.Chemscore.Lipo.Weighted>
-3.1034

> <Gold.Chemscore.Internal_Hbond.Weighted>
0.0000

> <Gold.Chemscore.DEClash.Weighted>
0.0073

> <Gold.Chemscore.DEInternal.Weighted>
1.6820

> <Gold.Chemscore.Rot.Weighted>
6.6182

> <Gold.Chemscore.Internal.Correction.Weighted>
   9.000000E+99

> <Gold.Protein.RotatedTorsions>
[ 6907 6896 6895 6894 ] final  -45.70 input  -60.11 | X-H torsion
[ 7974 7965 7964 7962 ] final   85.91 input  175.53 | X-H torsion
[ 8008 7997 7996 7995 ] final  -47.59 input   59.86 | X-H torsion
[ 10167 10162 10161 10158 ] final   16.88 input  -65.29 | X-H torsion
[ 10718 10713 10712 10709 ] final  156.68 input   66.30 | X-H torsion
[ 10763 10752 10751 10750 ] final  -99.41 input  -60.55 | X-H torsion
[ 11005 11000 10999 10996 ] final  113.97 input  -57.11 | X-H torsion

> <Gold.Protein.ActiveResidues>
 VAL166  LYS551  ARG553  GLY616  TRP617  ASP618  TYR619  PRO620  LYS621  CYS622 
 ASP623  PHE694  ASN695  SER759  ASP760  ASP761  ALA762  ILE779  LEU786  VAL792 
 PHE793  MET794  SER795  GLU796  ALA797  LYS798  CYS799  TRP800  GLU811  SER814 

> <Gold.Protein.RotatedAtoms>
  150.9191  134.8608  159.7476 H   0  0  0  0  0  0  0  0  0  0  0  0  # atno 6907 bound_to 6896
  152.4983  134.4245  159.9501 H   0  0  0  0  0  0  0  0  0  0  0  0  # atno 6908 bound_to 6896
  151.4281  133.3639  159.2800 H   0  0  0  0  0  0  0  0  0  0  0  0  # atno 6909 bound_to 6896
  145.5792  139.2323  143.2362 H   0  0  0  0  0  0  0  0  0  0  0  0  # atno 7974 bound_to 7965
  154.4018  140.1342  156.4200 H   0  0  0  0  0  0  0  0  0  0  0  0  # atno 8008 bound_to 7997
  155.7652  140.3485  155.5198 H   0  0  0  0  0  0  0  0  0  0  0  0  # atno 8009 bound_to 7997
  155.8820  140.0989  157.1468 H   0  0  0  0  0  0  0  0  0  0  0  0  # atno 8010 bound_to 7997
  140.5766  143.9061  150.6755 H   0  0  0  0  0  0  0  0  0  0  0  0  # atno 10167 bound_to 10162
  157.2016  131.0677  151.2022 H   0  0  0  0  0  0  0  0  0  0  0  0  # atno 10718 bound_to 10713
  154.7496  135.4973  153.9265 H   0  0  0  0  0  0  0  0  0  0  0  0  # atno 10763 bound_to 10752
  153.1129  135.6713  153.9477 H   0  0  0  0  0  0  0  0  0  0  0  0  # atno 10764 bound_to 10752
  153.9231  135.3086  155.3426 H   0  0  0  0  0  0  0  0  0  0  0  0  # atno 10765 bound_to 10752
  139.8967  134.9559  156.6821 H   0  0  0  0  0  0  0  0  0  0  0  0  # atno 11005 bound_to 11000
  146.1728  140.6619  142.9225 LP  0  0  0  0  0  0  0  0  0  0  0  0  # atno 17320 bound_to 7965
  144.7402  140.4920  143.6875 LP  0  0  0  0  0  0  0  0  0  0  0  0  # atno 17321 bound_to 7965
  140.2550  143.3565  152.1372 LP  0  0  0  0  0  0  0  0  0  0  0  0  # atno 17342 bound_to 10162
  139.5146  144.6950  151.5655 LP  0  0  0  0  0  0  0  0  0  0  0  0  # atno 17343 bound_to 10162
  157.3761  130.7206  149.6598 LP  0  0  0  0  0  0  0  0  0  0  0  0  # atno 17370 bound_to 10713
  155.9700  130.4185  150.4332 LP  0  0  0  0  0  0  0  0  0  0  0  0  # atno 17371 bound_to 10713
  140.7291  133.9074  155.8199 LP  0  0  0  0  0  0  0  0  0  0  0  0  # atno 17394 bound_to 11000
  141.0167  134.0945  157.4164 LP  0  0  0  0  0  0  0  0  0  0  0  0  # atno 17395 bound_to 11000

$$$$
