AV-unprocessed.smi:547|AV-procd|sdf|2889|dock10
  -GOLD-   2262023383D 1   1.00000     0.00000
 Structure written by MMmdl.
 37 38  0  0  0  0  0  0  0  0  1 V2000
  153.0563  138.8379  157.3622 O   0  0  0  0  0  0  0  0  0  0  0  0
  152.7550  139.0684  158.5335 C   0  0  0  0  0  0  0  0  0  0  0  0
  152.9240  137.9769  159.6020 C   0  0  0  0  0  0  0  0  0  0  0  0
  153.5716  138.3871  160.8697 N   0  0  0  0  0  0  0  0  0  0  0  0
  154.0200  139.7007  160.9566 N   0  0  0  0  0  0  0  0  0  0  0  0
  154.5781  140.1178  162.0396 C   0  0  0  0  0  0  0  0  0  0  0  0
  154.7659  139.2595  163.1866 C   0  0  0  0  0  0  0  0  0  0  0  0
  155.5212  139.8743  164.6146 Cl  0  0  0  0  0  0  0  0  0  0  0  0
  154.3352  137.9768  163.0945 C   0  0  0  0  0  0  0  0  0  0  0  0
  154.5300  136.8882  164.4255 Cl  0  0  0  0  0  0  0  0  0  0  0  0
  153.6941  137.4661  161.8741 C   0  0  0  0  0  0  0  0  0  0  0  0
  153.2972  136.3059  161.7563 O   0  0  0  0  0  0  0  0  0  0  0  0
  152.2767  140.2479  158.9570 N   0  0  0  0  0  0  0  0  0  0  0  0
  152.1374  141.4425  158.1312 C   0  0  0  0  0  0  0  0  0  0  0  0
  151.7568  142.6915  158.9576 C   0  0  0  0  0  0  0  0  0  0  0  0
  151.8715  144.0030  158.1474 C   0  0  0  0  0  0  0  0  0  0  0  0
  151.4901  145.2270  158.9952 C   0  0  0  0  0  0  0  0  0  0  0  0
  152.3389  145.3055  160.2728 C   0  0  0  0  0  0  0  0  0  0  0  0
  152.2285  144.0087  161.0889 C   0  0  0  0  0  0  0  0  0  0  0  0
  152.6064  142.7826  160.2413 C   0  0  0  0  0  0  0  0  0  0  0  0
  151.9380  137.5576  159.8130 H   0  0  0  0  0  0  0  0  0  0  0  0
  153.5088  137.1671  159.1629 H   0  0  0  0  0  0  0  0  0  0  0  0
  154.9388  141.1407  162.1483 H   0  0  0  0  0  0  0  0  0  0  0  0
  152.0417  140.3398  159.9346 H   0  0  0  0  0  0  0  0  0  0  0  0
  153.0650  141.6170  157.5832 H   0  0  0  0  0  0  0  0  0  0  0  0
  151.3703  141.2444  157.3820 H   0  0  0  0  0  0  0  0  0  0  0  0
  150.7155  142.5845  159.2656 H   0  0  0  0  0  0  0  0  0  0  0  0
  152.8908  144.1191  157.7765 H   0  0  0  0  0  0  0  0  0  0  0  0
  151.2260  143.9695  157.2694 H   0  0  0  0  0  0  0  0  0  0  0  0
  151.6137  146.1383  158.4096 H   0  0  0  0  0  0  0  0  0  0  0  0
  150.4333  145.1715  159.2604 H   0  0  0  0  0  0  0  0  0  0  0  0
  153.3818  145.4844  160.0088 H   0  0  0  0  0  0  0  0  0  0  0  0
  152.0229  146.1554  160.8785 H   0  0  0  0  0  0  0  0  0  0  0  0
  152.8725  144.0662  161.9667 H   0  0  0  0  0  0  0  0  0  0  0  0
  151.2092  143.8961  161.4606 H   0  0  0  0  0  0  0  0  0  0  0  0
  152.4806  141.8772  160.8364 H   0  0  0  0  0  0  0  0  0  0  0  0
  153.6644  142.8348  159.9802 H   0  0  0  0  0  0  0  0  0  0  0  0
  1  2  2  0  0  0  0
  2  3  1  0  0  0  0
  2 13  1  0  0  0  0
  3  4  1  0  0  0  0
  3 21  1  0  0  0  0
  3 22  1  0  0  0  0
  4 11  1  0  0  0  0
  4  5  1  0  0  0  0
  5  6  2  0  0  0  0
  6  7  1  0  0  0  0
  6 23  1  0  0  0  0
  7  8  1  0  0  0  0
  7  9  2  0  0  0  0
  9 10  1  0  0  0  0
  9 11  1  0  0  0  0
 11 12  2  0  0  0  0
 13 14  1  0  0  0  0
 13 24  1  0  0  0  0
 14 15  1  0  0  0  0
 14 25  1  0  0  0  0
 14 26  1  0  0  0  0
 15 20  1  0  0  0  0
 15 16  1  0  0  0  0
 15 27  1  0  0  0  0
 16 17  1  0  0  0  0
 16 28  1  0  0  0  0
 16 29  1  0  0  0  0
 17 18  1  0  0  0  0
 17 30  1  0  0  0  0
 17 31  1  0  0  0  0
 18 19  1  0  0  0  0
 18 32  1  0  0  0  0
 18 33  1  0  0  0  0
 19 20  1  0  0  0  0
 19 34  1  0  0  0  0
 19 35  1  0  0  0  0
 20 36  1  0  0  0  0
 20 37  1  0  0  0  0
M  END
> <s_m_source_file>
AV-unprocessed.smi

> <i_m_source_file_index>
547

> <i_lp_mmshare_version>
43012

> <i_f3d_flags>
0

> <s_epik_input>
W0NIMl0xW0NIMl1bQ0gyXVtDSDJdW0NIMl1bQ0hdMVtDSDJdW05IXUMoPU8pW0NIMl1uMm5bY0hdYyhDbCljKENsKWMyPU8=

> <s_epik_cmdline>
J2VwaWtfcHl0aG9uJywgJy1waCcsICc3LjAnLCAnLXRuJywgJzgnLCAnLW1hJywgJzIwMCcsICctbWV0YWxfYmluZGluZycsICctaW1hZScsICc8aW5maWxlLm1hZT4nLCAnLW9tYWUnLCAnPG91dGZpbGUubWFlPic=

> <r_lp_tautomer_probability>
1

> <r_epik_Ionization_Penalty>
1.98263e-08

> <r_epik_Ionization_Penalty_Charging>
2.84997e-11

> <r_epik_Ionization_Penalty_Neutral>
1.97978e-08

> <r_epik_State_Penalty>
-0

> <r_epik_Charging_Adjusted_Penalty>
2.84997e-11

> <i_epik_Tot_Q>
0

> <i_epik_Tot_abs_Q>
0

> <r_epik_Metal_State_Penalty>
-0

> <b_epik_Metal_Only>
0

> <s_lp_Force_Field>
OPLS_2005

> <r_lp_Energy>
30.5704

> <b_lp_Chiralities_Consistent>
1

> <s_lp_Variant>
AV-unprocessed.smi:547-1

> <Gold.Version>
5.8.1

> <Gold.Id.Protein>
6NUR|6NUR_protein|mol2

> <Gold.PLP.Fitness>
43.0595

> <Gold.PLP.PLP>
-40.6362

> <Gold.PLP.part.hbond>
-1.0000

> <Gold.PLP.part.metal>
0.0000

> <Gold.PLP.part.buried>
-5.1821

> <Gold.PLP.part.nonpolar>
-33.9525

> <Gold.PLP.part.repulsive>
0.1227

> <Gold.PLP.ligand.clash>
0.0000

> <Gold.PLP.ligand.torsion>
0.2943

> <Gold.PLP.Chemscore.Hbond>
1.0000

> <Gold.PLP.Chemscore.CHOScore>
0.0000

> <Gold.PLP.Chemscore.Metal>
0.0000

> <Gold.Chemscore.Hbonds>
donor molecule, donor type, donor heavy atom, donor atom, acceptor molecule, acceptor atom, score
      P1  H  6896  6909       L1    12  0.03
      P1  H  7997  8010       L1     1  1.00

> <Gold.PLP.Chemscore.Internal.Correction>
0.0118

> <Gold.Rescore>
     Score         DG    S(hbond)    S(metal)    S(lipo)     H(rot)  DE(clash)    DE(int)     intcor
     17.32     -17.97       1.00        0.00     115.69       1.71       0.23       0.43       ----

> <Gold.Chemscore.Fitness>
17.3174

> <Gold.Chemscore.DG>
-17.9713

> <Gold.Chemscore.ZeroCoef>
-5.4800

> <Gold.Chemscore.Hbond>
0.9978

> <Gold.Chemscore.Metal>
0.0000

> <Gold.Chemscore.Lipo>
115.6918

> <Gold.Chemscore.Internal_Hbond>
0.0000

> <Gold.Chemscore.DEClash>
0.2252

> <Gold.Chemscore.DEInternal>
0.4287

> <Gold.Chemscore.Rot>
1.7099

> <Gold.Chemscore.Internal.Correction>
   9.000000E+99

> <Gold.Chemscore.Hbonds>
donor molecule, donor type, donor heavy atom, donor atom, acceptor molecule, acceptor atom, score
      P1  H  6896  6909       L1    12  0.07
      P1  H  7997  8010       L1     1  0.78

> <Gold.Chemscore.Hbond.Weighted>
-3.3328

> <Gold.Chemscore.Metal.Weighted>
-0.0000

> <Gold.Chemscore.Lipo.Weighted>
-13.5359

> <Gold.Chemscore.Internal_Hbond.Weighted>
0.0000

> <Gold.Chemscore.DEClash.Weighted>
0.2252

> <Gold.Chemscore.DEInternal.Weighted>
0.4287

> <Gold.Chemscore.Rot.Weighted>
4.3774

> <Gold.Chemscore.Internal.Correction.Weighted>
   9.000000E+99

> <Gold.Protein.RotatedTorsions>
[ 6907 6896 6895 6894 ] final  161.92 input  -60.11 | X-H torsion
[ 7974 7965 7964 7962 ] final -123.80 input  175.53 | X-H torsion
[ 8008 7997 7996 7995 ] final   53.40 input   59.86 | X-H torsion
[ 10167 10162 10161 10158 ] final   95.46 input  -65.29 | X-H torsion
[ 10718 10713 10712 10709 ] final   32.25 input   66.30 | X-H torsion
[ 10763 10752 10751 10750 ] final  125.18 input  -60.55 | X-H torsion
[ 11005 11000 10999 10996 ] final    1.99 input  -57.11 | X-H torsion

> <Gold.Protein.ActiveResidues>
 VAL166  LYS551  ARG553  GLY616  TRP617  ASP618  TYR619  PRO620  LYS621  CYS622 
 ASP623  PHE694  ASN695  SER759  ASP760  ASP761  ALA762  ILE779  LEU786  VAL792 
 PHE793  MET794  SER795  GLU796  ALA797  LYS798  CYS799  TRP800  GLU811  SER814 

> <Gold.Protein.RotatedAtoms>
  151.9483  133.3658  159.3990 H   0  0  0  0  0  0  0  0  0  0  0  0  # atno 6907 bound_to 6896
  150.6985  134.4367  159.5282 H   0  0  0  0  0  0  0  0  0  0  0  0  # atno 6908 bound_to 6896
  152.2035  134.8566  160.0556 H   0  0  0  0  0  0  0  0  0  0  0  0  # atno 6909 bound_to 6896
  145.0148  140.7937  143.4416 H   0  0  0  0  0  0  0  0  0  0  0  0  # atno 7974 bound_to 7965
  155.4677  140.3464  155.4321 H   0  0  0  0  0  0  0  0  0  0  0  0  # atno 8008 bound_to 7997
  156.1120  140.1463  156.9354 H   0  0  0  0  0  0  0  0  0  0  0  0  # atno 8009 bound_to 7997
  154.4763  140.0884  156.7248 H   0  0  0  0  0  0  0  0  0  0  0  0  # atno 8010 bound_to 7997
  139.7987  144.6823  150.9794 H   0  0  0  0  0  0  0  0  0  0  0  0  # atno 10167 bound_to 10162
  157.2829  130.7264  149.6566 H   0  0  0  0  0  0  0  0  0  0  0  0  # atno 10718 bound_to 10713
  153.6731  135.3327  155.3158 H   0  0  0  0  0  0  0  0  0  0  0  0  # atno 10763 bound_to 10752
  154.8485  135.4391  154.1684 H   0  0  0  0  0  0  0  0  0  0  0  0  # atno 10764 bound_to 10752
  153.2680  135.6997  153.7586 H   0  0  0  0  0  0  0  0  0  0  0  0  # atno 10765 bound_to 10752
  140.6093  133.9763  155.8169 H   0  0  0  0  0  0  0  0  0  0  0  0  # atno 11005 bound_to 11000
  145.1974  139.2269  143.5210 LP  0  0  0  0  0  0  0  0  0  0  0  0  # atno 17320 bound_to 7965
  146.3476  140.1784  142.8589 LP  0  0  0  0  0  0  0  0  0  0  0  0  # atno 17321 bound_to 7965
  140.7820  143.4304  151.0703 LP  0  0  0  0  0  0  0  0  0  0  0  0  # atno 17342 bound_to 10162
  139.7977  143.8127  152.3159 LP  0  0  0  0  0  0  0  0  0  0  0  0  # atno 17343 bound_to 10162
  155.9665  130.4332  150.4998 LP  0  0  0  0  0  0  0  0  0  0  0  0  # atno 17370 bound_to 10713
  157.2945  131.0633  151.2111 LP  0  0  0  0  0  0  0  0  0  0  0  0  # atno 17371 bound_to 10713
  141.0819  134.0049  157.3372 LP  0  0  0  0  0  0  0  0  0  0  0  0  # atno 17394 bound_to 11000
  139.9199  135.0200  156.8025 LP  0  0  0  0  0  0  0  0  0  0  0  0  # atno 17395 bound_to 11000

$$$$
