AV-unprocessed.smi:1877|AV-procd|sdf|7622|dock4
  -GOLD-   22720 9353D 1   1.00000     0.00000
 Structure written by MMmdl.
 32 34  0  0  0  0  0  0  0  0  1 V2000
  151.9202  140.2010  155.0479 O   0  0  0  0  0  0  0  0  0  0  0  0
  150.7617  140.7118  155.6756 C   0  0  2  0  0  0  0  0  0  0  0  0
  150.6752  140.1049  157.0894 C   0  0  0  0  0  0  0  0  0  0  0  0
  151.5712  140.7622  158.0236 N   0  0  0  0  0  0  0  0  0  0  0  0
  152.4813  140.1779  158.8266 C   0  0  0  0  0  0  0  0  0  0  0  0
  153.1963  140.9732  159.6173 N   0  0  0  0  0  0  0  0  0  0  0  0
  152.6938  142.2202  159.2870 C   0  0  0  0  0  0  0  0  0  0  0  0
  153.0312  143.5039  159.7726 C   0  0  0  0  0  0  0  0  0  0  0  0
  152.3726  144.6499  159.2800 C   0  0  0  0  0  0  0  0  0  0  0  0
  151.3684  144.5309  158.2971 C   0  0  0  0  0  0  0  0  0  0  0  0
  151.0148  143.2625  157.7983 C   0  0  0  0  0  0  0  0  0  0  0  0
  151.6754  142.1223  158.2913 C   0  0  0  0  0  0  0  0  0  0  0  0
  149.4997  140.4529  154.8602 C   0  0  0  0  0  0  0  0  0  0  0  0
  148.5896  141.5030  154.6051 C   0  0  0  0  0  0  0  0  0  0  0  0
  147.4336  141.2728  153.8350 C   0  0  0  0  0  0  0  0  0  0  0  0
  146.5671  142.2852  153.5958 F   0  0  0  0  0  0  0  0  0  0  0  0
  147.1801  139.9912  153.3116 C   0  0  0  0  0  0  0  0  0  0  0  0
  148.0843  138.9405  153.5577 C   0  0  0  0  0  0  0  0  0  0  0  0
  149.2412  139.1685  154.3282 C   0  0  0  0  0  0  0  0  0  0  0  0
  150.1057  138.1481  154.5455 F   0  0  0  0  0  0  0  0  0  0  0  0
  152.2623  139.4971  155.5777 H   0  0  0  0  0  0  0  0  0  0  0  0
  150.9172  141.7878  155.7610 H   0  0  0  0  0  0  0  0  0  0  0  0
  149.6560  140.1626  157.4746 H   0  0  0  0  0  0  0  0  0  0  0  0
  150.9395  139.0468  157.0632 H   0  0  0  0  0  0  0  0  0  0  0  0
  152.6215  139.1067  158.8363 H   0  0  0  0  0  0  0  0  0  0  0  0
  153.7984  143.6074  160.5256 H   0  0  0  0  0  0  0  0  0  0  0  0
  152.6393  145.6258  159.6583 H   0  0  0  0  0  0  0  0  0  0  0  0
  150.8695  145.4144  157.9263 H   0  0  0  0  0  0  0  0  0  0  0  0
  150.2455  143.1665  157.0466 H   0  0  0  0  0  0  0  0  0  0  0  0
  148.7780  142.4924  154.9954 H   0  0  0  0  0  0  0  0  0  0  0  0
  146.2945  139.8143  152.7193 H   0  0  0  0  0  0  0  0  0  0  0  0
  147.8916  137.9582  153.1523 H   0  0  0  0  0  0  0  0  0  0  0  0
  1  2  1  0  0  0  0
  1 21  1  0  0  0  0
  2  3  1  0  0  0  0
  2 13  1  0  0  0  0
  2 22  1  0  0  0  0
  3  4  1  0  0  0  0
  3 23  1  0  0  0  0
  3 24  1  0  0  0  0
  4 12  1  0  0  0  0
  4  5  1  0  0  0  0
  5  6  2  0  0  0  0
  5 25  1  0  0  0  0
  6  7  1  0  0  0  0
  7 12  2  0  0  0  0
  7  8  1  0  0  0  0
  8  9  2  0  0  0  0
  8 26  1  0  0  0  0
  9 10  1  0  0  0  0
  9 27  1  0  0  0  0
 10 11  2  0  0  0  0
 10 28  1  0  0  0  0
 11 12  1  0  0  0  0
 11 29  1  0  0  0  0
 13 19  1  0  0  0  0
 13 14  2  0  0  0  0
 14 15  1  0  0  0  0
 14 30  1  0  0  0  0
 15 16  1  0  0  0  0
 15 17  2  0  0  0  0
 17 18  1  0  0  0  0
 17 31  1  0  0  0  0
 18 19  2  0  0  0  0
 18 32  1  0  0  0  0
 19 20  1  0  0  0  0
M  END
> <s_m_source_file>
AV-unprocessed.smi

> <i_m_source_file_index>
1877

> <i_lp_mmshare_version>
43012

> <i_f3d_flags>
0

> <s_epik_input>
RmMxW2NIXVtjSF1jKEYpW2NIXWMxW0NASF0oW09IXSlbQ0gyXW4oW2NIXW4yKWMoYzIzKVtjSF1bY0hdW2NIXVtjSF0z

> <s_epik_cmdline>
J2VwaWtfcHl0aG9uJywgJy1waCcsICc3LjAnLCAnLXRuJywgJzgnLCAnLW1hJywgJzIwMCcsICctbWV0YWxfYmluZGluZycsICctaW1hZScsICc8aW5maWxlLm1hZT4nLCAnLW9tYWUnLCAnPG91dGZpbGUubWFlPic=

> <r_epik_Ionization_Penalty>
0.0696522

> <r_epik_Ionization_Penalty_Charging>
0

> <r_epik_Ionization_Penalty_Neutral>
0.0696522

> <r_epik_State_Penalty>
0.0610247

> <r_epik_Charging_Adjusted_Penalty>
0.0610247

> <i_epik_Tot_Q>
0

> <i_epik_Tot_abs_Q>
0

> <r_epik_Metal_State_Penalty>
6.42746e-05

> <b_epik_Metal_Only>
0

> <s_lp_Force_Field>
OPLS_2005

> <r_lp_Energy>
11.8113

> <b_lp_Chiralities_Consistent>
1

> <s_lp_Variant>
AV-unprocessed.smi:1877-1

> <Gold.Version>
5.8.1

> <Gold.Id.Protein>
6NUR|6NUR_protein|mol2

> <Gold.PLP.Fitness>
50.2943

> <Gold.PLP.PLP>
-48.7894

> <Gold.PLP.part.hbond>
-1.0000

> <Gold.PLP.part.metal>
0.0000

> <Gold.PLP.part.buried>
-4.9744

> <Gold.PLP.part.nonpolar>
-42.4909

> <Gold.PLP.part.repulsive>
0.0000

> <Gold.PLP.ligand.clash>
0.0000

> <Gold.PLP.ligand.torsion>
0.5507

> <Gold.PLP.Chemscore.Hbond>
0.8640

> <Gold.PLP.Chemscore.CHOScore>
0.0000

> <Gold.PLP.Chemscore.Metal>
0.0000

> <Gold.Chemscore.Hbonds>
donor molecule, donor type, donor heavy atom, donor atom, acceptor molecule, acceptor atom, score
      P1  H  7989  7998       L1     1  0.73

> <Gold.PLP.Chemscore.Internal.Correction>
0.0144

> <Gold.Rescore>
     Score         DG    S(hbond)    S(metal)    S(lipo)     H(rot)  DE(clash)    DE(int)     intcor
     14.48     -16.00       0.83        0.00     110.16       2.00       0.03       1.50       ----

> <Gold.Chemscore.Fitness>
14.4758

> <Gold.Chemscore.DG>
-16.0029

> <Gold.Chemscore.ZeroCoef>
-5.4800

> <Gold.Chemscore.Hbond>
0.8278

> <Gold.Chemscore.Metal>
0.0000

> <Gold.Chemscore.Lipo>
110.1578

> <Gold.Chemscore.Internal_Hbond>
0.0000

> <Gold.Chemscore.DEClash>
0.0302

> <Gold.Chemscore.DEInternal>
1.4969

> <Gold.Chemscore.Rot>
2.0040

> <Gold.Chemscore.Internal.Correction>
   9.000000E+99

> <Gold.Chemscore.Hbonds>
donor molecule, donor type, donor heavy atom, donor atom, acceptor molecule, acceptor atom, score
      P1  H  7989  7998       L1     1  0.15

> <Gold.Chemscore.Hbond.Weighted>
-2.7647

> <Gold.Chemscore.Metal.Weighted>
-0.0000

> <Gold.Chemscore.Lipo.Weighted>
-12.8885

> <Gold.Chemscore.Internal_Hbond.Weighted>
0.0000

> <Gold.Chemscore.DEClash.Weighted>
0.0302

> <Gold.Chemscore.DEInternal.Weighted>
1.4969

> <Gold.Chemscore.Rot.Weighted>
5.1303

> <Gold.Chemscore.Internal.Correction.Weighted>
   9.000000E+99

> <Gold.Protein.RotatedTorsions>
[ 6907 6896 6895 6894 ] final -102.84 input  -60.11 | X-H torsion
[ 7974 7965 7964 7962 ] final -100.09 input  175.53 | X-H torsion
[ 8008 7997 7996 7995 ] final -154.88 input   59.86 | X-H torsion
[ 10167 10162 10161 10158 ] final    7.91 input  -65.29 | X-H torsion
[ 10718 10713 10712 10709 ] final    8.83 input   66.30 | X-H torsion
[ 10763 10752 10751 10750 ] final -143.41 input  -60.55 | X-H torsion
[ 11005 11000 10999 10996 ] final   -7.04 input  -57.11 | X-H torsion

> <Gold.Protein.ActiveResidues>
 VAL166  LYS551  ARG553  GLY616  TRP617  ASP618  TYR619  PRO620  LYS621  CYS622 
 ASP623  PHE694  ASN695  SER759  ASP760  ASP761  ALA762  ILE779  LEU786  VAL792 
 PHE793  MET794  SER795  GLU796  ALA797  LYS798  CYS799  TRP800  GLU811  SER814 

> <Gold.Protein.RotatedAtoms>
  150.7214  134.0520  159.3801 H   0  0  0  0  0  0  0  0  0  0  0  0  # atno 6907 bound_to 6896
  151.8497  135.0560  160.0467 H   0  0  0  0  0  0  0  0  0  0  0  0  # atno 6908 bound_to 6896
  152.2800  133.5425  159.5528 H   0  0  0  0  0  0  0  0  0  0  0  0  # atno 6909 bound_to 6896
  145.2991  140.9372  143.2834 H   0  0  0  0  0  0  0  0  0  0  0  0  # atno 7974 bound_to 7965
  155.6932  140.0758  157.2440 H   0  0  0  0  0  0  0  0  0  0  0  0  # atno 8008 bound_to 7997
  154.4085  140.1661  156.2162 H   0  0  0  0  0  0  0  0  0  0  0  0  # atno 8009 bound_to 7997
  155.9433  140.3383  155.6349 H   0  0  0  0  0  0  0  0  0  0  0  0  # atno 8010 bound_to 7997
  140.6345  143.7918  150.7340 H   0  0  0  0  0  0  0  0  0  0  0  0  # atno 10167 bound_to 10162
  156.9574  130.5920  149.5660 H   0  0  0  0  0  0  0  0  0  0  0  0  # atno 10718 bound_to 10713
  154.8471  135.3469  154.6182 H   0  0  0  0  0  0  0  0  0  0  0  0  # atno 10763 bound_to 10752
  153.6791  135.6981  153.5128 H   0  0  0  0  0  0  0  0  0  0  0  0  # atno 10764 bound_to 10752
  153.2682  135.4301  155.0918 H   0  0  0  0  0  0  0  0  0  0  0  0  # atno 10765 bound_to 10752
  140.7084  133.8929  155.8733 H   0  0  0  0  0  0  0  0  0  0  0  0  # atno 11005 bound_to 11000
  144.9109  139.4530  143.6587 LP  0  0  0  0  0  0  0  0  0  0  0  0  # atno 17320 bound_to 7965
  146.3158  139.7916  142.8984 LP  0  0  0  0  0  0  0  0  0  0  0  0  # atno 17321 bound_to 7965
  140.1536  143.4336  152.2114 LP  0  0  0  0  0  0  0  0  0  0  0  0  # atno 17342 bound_to 10162
  139.5556  144.7370  151.4304 LP  0  0  0  0  0  0  0  0  0  0  0  0  # atno 17343 bound_to 10162
  156.0337  130.5426  150.8599 LP  0  0  0  0  0  0  0  0  0  0  0  0  # atno 17370 bound_to 10713
  157.5681  131.0946  150.9459 LP  0  0  0  0  0  0  0  0  0  0  0  0  # atno 17371 bound_to 10713
  141.0105  134.1027  157.4226 LP  0  0  0  0  0  0  0  0  0  0  0  0  # atno 17394 bound_to 11000
  139.8878  135.0092  156.6582 LP  0  0  0  0  0  0  0  0  0  0  0  0  # atno 17395 bound_to 11000

$$$$
