AV-unprocessed.smi:1986|AV-procd|sdf|8053|dock7
  -GOLD-   2272010253D 1   1.00000     0.00000
 Structure written by MMmdl.
 48 49  0  0  0  0  0  0  0  0  2 V2000
  151.0026  135.2420  156.0097 C   0  0  0  0  0  0  0  0  0  0  0  0
  150.0219  134.6602  154.9744 C   0  0  0  0  0  0  0  0  0  0  0  0
  148.5290  135.1272  155.0517 C   0  0  2  0  0  0  0  0  0  0  0  0
  148.4974  136.6628  155.2471 C   0  0  0  0  0  0  0  0  0  0  0  0
  147.8444  134.4491  156.2782 C   0  0  0  0  0  0  0  0  0  0  0  0
  148.4357  134.8879  157.5393 N   0  0  0  0  0  0  0  0  0  0  0  0
  148.1466  136.0162  158.2082 C   0  0  0  0  0  0  0  0  0  0  0  0
  147.4028  136.8892  157.7640 O   0  0  0  0  0  0  0  0  0  0  0  0
  148.7347  136.1725  159.6208 C   0  0  0  0  0  0  0  0  0  0  0  0
  148.0501  135.3757  160.6536 N   0  0  0  0  0  0  0  0  0  0  0  0
  148.0539  134.0108  160.4126 N   0  0  0  0  0  0  0  0  0  0  0  0
  147.4698  133.2083  161.2369 C   0  0  0  0  0  0  0  0  0  0  0  0
  147.4949  131.8639  160.9579 O   0  0  0  0  0  0  0  0  0  0  0  0
  146.8049  133.7058  162.4214 C   0  0  0  0  0  0  0  0  0  0  0  0
  146.8060  135.0376  162.6485 C   0  0  0  0  0  0  0  0  0  0  0  0
  147.4540  135.9757  161.7309 C   0  0  0  0  0  0  0  0  0  0  0  0
  147.4451  137.1956  161.8963 O   0  0  0  0  0  0  0  0  0  0  0  0
  147.7907  134.7315  153.7914 N   0  3  0  0  0  0  0  0  0  0  0  0
  147.7747  133.2720  153.4878 C   0  0  0  0  0  0  0  0  0  0  0  0
  147.2236  133.0245  152.0766 C   0  0  0  0  0  0  0  0  0  0  0  0
  145.8996  133.5323  152.0041 O   0  0  0  0  0  0  0  0  0  0  0  0
  145.8655  134.9358  152.2180 C   0  0  0  0  0  0  0  0  0  0  0  0
  146.4154  135.2804  153.6146 C   0  0  0  0  0  0  0  0  0  0  0  0
  146.6165  131.6449  160.6871 H   0  0  0  0  0  0  0  0  0  0  0  0
  152.0174  134.9080  155.7931 H   0  0  0  0  0  0  0  0  0  0  0  0
  150.7742  134.9105  157.0223 H   0  0  0  0  0  0  0  0  0  0  0  0
  151.0150  136.3311  156.0009 H   0  0  0  0  0  0  0  0  0  0  0  0
  150.4294  134.9102  153.9946 H   0  0  0  0  0  0  0  0  0  0  0  0
  150.0717  133.5734  155.0523 H   0  0  0  0  0  0  0  0  0  0  0  0
  149.0523  136.9673  156.1336 H   0  0  0  0  0  0  0  0  0  0  0  0
  147.4846  137.0408  155.3856 H   0  0  0  0  0  0  0  0  0  0  0  0
  148.9347  137.1870  154.3971 H   0  0  0  0  0  0  0  0  0  0  0  0
  146.7819  134.6879  156.3067 H   0  0  0  0  0  0  0  0  0  0  0  0
  147.8605  133.3625  156.2019 H   0  0  0  0  0  0  0  0  0  0  0  0
  149.0728  134.2409  157.9819 H   0  0  0  0  0  0  0  0  0  0  0  0
  149.7919  135.9050  159.5742 H   0  0  0  0  0  0  0  0  0  0  0  0
  148.7127  137.2276  159.8996 H   0  0  0  0  0  0  0  0  0  0  0  0
  146.3226  133.0216  163.1038 H   0  0  0  0  0  0  0  0  0  0  0  0
  146.3134  135.4223  163.5293 H   0  0  0  0  0  0  0  0  0  0  0  0
  148.7675  132.8334  153.5505 H   0  0  0  0  0  0  0  0  0  0  0  0
  147.1482  132.7434  154.2069 H   0  0  0  0  0  0  0  0  0  0  0  0
  147.8570  133.4901  151.3193 H   0  0  0  0  0  0  0  0  0  0  0  0
  147.2024  131.9555  151.8634 H   0  0  0  0  0  0  0  0  0  0  0  0
  146.4368  135.4427  151.4393 H   0  0  0  0  0  0  0  0  0  0  0  0
  144.8351  135.2798  152.1265 H   0  0  0  0  0  0  0  0  0  0  0  0
  145.7554  134.8842  154.3871 H   0  0  0  0  0  0  0  0  0  0  0  0
  146.3960  136.3655  153.6952 H   0  0  0  0  0  0  0  0  0  0  0  0
  148.3287  135.1521  153.0467 H   0  0  0  0  0  0  0  0  0  0  0  0
  1  2  1  0  0  0  0
  1 25  1  0  0  0  0
  1 26  1  0  0  0  0
  1 27  1  0  0  0  0
  2  3  1  0  0  0  0
  2 28  1  0  0  0  0
  2 29  1  0  0  0  0
  3  4  1  0  0  0  0
  3  5  1  0  0  0  0
  3 18  1  0  0  0  0
  4 30  1  0  0  0  0
  4 31  1  0  0  0  0
  4 32  1  0  0  0  0
  5  6  1  0  0  0  0
  5 33  1  0  0  0  0
  5 34  1  0  0  0  0
  6  7  1  0  0  0  0
  6 35  1  0  0  0  0
  7  8  2  0  0  0  0
  7  9  1  0  0  0  0
  9 36  1  0  0  0  0
  9 37  1  0  0  0  0
  9 10  1  0  0  0  0
 10 11  1  0  0  0  0
 10 16  1  0  0  0  0
 11 12  2  0  0  0  0
 12 13  1  0  0  0  0
 12 14  1  0  0  0  0
 13 24  1  0  0  0  0
 14 38  1  0  0  0  0
 14 15  2  0  0  0  0
 15 39  1  0  0  0  0
 15 16  1  0  0  0  0
 16 17  2  0  0  0  0
 18 23  1  0  0  0  0
 18 19  1  0  0  0  0
 18 48  1  0  0  0  0
 19 20  1  0  0  0  0
 19 40  1  0  0  0  0
 19 41  1  0  0  0  0
 20 21  1  0  0  0  0
 20 42  1  0  0  0  0
 20 43  1  0  0  0  0
 21 22  1  0  0  0  0
 22 23  1  0  0  0  0
 22 44  1  0  0  0  0
 22 45  1  0  0  0  0
 23 46  1  0  0  0  0
 23 47  1  0  0  0  0
M  CHG  1  18   1
M  END
> <s_m_source_file>
AV-unprocessed.smi

> <i_m_source_file_index>
1986

> <i_lp_mmshare_version>
43012

> <i_f3d_flags>
0

> <s_epik_input>
W0NIMl0xW0NIMl1PW0NIMl1bQ0gyXU4xW0NAQF0oW0NIM10pKFtDSDJdW0NIM10pW0NIMl1bTkhdQyg9TylbQ0gyXW4yW25IXWMoPU8pW2NIXVtjSF1jMj1P

> <s_epik_cmdline>
J2VwaWtfcHl0aG9uJywgJy1waCcsICc3LjAnLCAnLXRuJywgJzgnLCAnLW1hJywgJzIwMCcsICctbWV0YWxfYmluZGluZycsICctaW1hZScsICc8aW5maWxlLm1hZT4nLCAnLW9tYWUnLCAnPG91dGZpbGUubWFlPic=

> <r_lp_tautomer_probability>
0.9996

> <r_epik_Ionization_Penalty>
2.73198

> <r_epik_Ionization_Penalty_Charging>
0.519658

> <r_epik_Ionization_Penalty_Neutral>
2.21233

> <r_epik_State_Penalty>
2.2852

> <r_epik_Charging_Adjusted_Penalty>
2.80486

> <i_epik_Tot_Q>
1

> <i_epik_Tot_abs_Q>
1

> <r_epik_Metal_State_Penalty>
2.2852

> <b_epik_Metal_Only>
0

> <s_lp_Force_Field>
OPLS_2005

> <r_lp_Energy>
41.4304

> <b_lp_Chiralities_Consistent>
1

> <s_lp_Variant>
AV-unprocessed.smi:1986-8

> <Gold.Version>
5.8.1

> <Gold.Id.Protein>
6NUR|6NUR_protein|mol2

> <Gold.PLP.Fitness>
43.3901

> <Gold.PLP.PLP>
-33.4835

> <Gold.PLP.part.hbond>
-3.0000

> <Gold.PLP.part.metal>
0.0000

> <Gold.PLP.part.buried>
-3.9436

> <Gold.PLP.part.nonpolar>
-27.0045

> <Gold.PLP.part.repulsive>
0.1702

> <Gold.PLP.ligand.clash>
0.0000

> <Gold.PLP.ligand.torsion>
0.6236

> <Gold.PLP.Chemscore.Hbond>
3.6480

> <Gold.PLP.Chemscore.CHOScore>
0.0000

> <Gold.PLP.Chemscore.Metal>
0.0000

> <Gold.Chemscore.Hbonds>
donor molecule, donor type, donor heavy atom, donor atom, acceptor molecule, acceptor atom, score
      L1  H    18    48       P1  7948  2.00
      P1  H  6931  6943       L1    17  0.93
      P1  H  6934  6947       L1    17  0.66

> <Gold.PLP.Chemscore.Internal.Correction>
0.2098

> <Gold.Rescore>
     Score         DG    S(hbond)    S(metal)    S(lipo)     H(rot)  DE(clash)    DE(int)     intcor
      9.86     -12.87       2.66        0.00      56.22       3.15       0.00       3.01       ----

> <Gold.Chemscore.Fitness>
9.8550

> <Gold.Chemscore.DG>
-12.8664

> <Gold.Chemscore.ZeroCoef>
-5.4800

> <Gold.Chemscore.Hbond>
2.6555

> <Gold.Chemscore.Metal>
0.0000

> <Gold.Chemscore.Lipo>
56.2160

> <Gold.Chemscore.Internal_Hbond>
0.0000

> <Gold.Chemscore.DEClash>
0.0009

> <Gold.Chemscore.DEInternal>
3.0105

> <Gold.Chemscore.Rot>
3.1485

> <Gold.Chemscore.Internal.Correction>
   9.000000E+99

> <Gold.Chemscore.Hbonds>
donor molecule, donor type, donor heavy atom, donor atom, acceptor molecule, acceptor atom, score
      L1  H    18    48       P1  7948  0.93
      P1  H  6931  6943       L1    17  0.89
      P1  H  6934  6947       L1    17  0.64

> <Gold.Chemscore.Hbond.Weighted>
-8.8693

> <Gold.Chemscore.Metal.Weighted>
-0.0000

> <Gold.Chemscore.Lipo.Weighted>
-6.5773

> <Gold.Chemscore.Internal_Hbond.Weighted>
0.0000

> <Gold.Chemscore.DEClash.Weighted>
0.0009

> <Gold.Chemscore.DEInternal.Weighted>
3.0105

> <Gold.Chemscore.Rot.Weighted>
8.0601

> <Gold.Chemscore.Internal.Correction.Weighted>
   9.000000E+99

> <Gold.Protein.RotatedTorsions>
[ 6907 6896 6895 6894 ] final  -85.78 input  -60.11 | X-H torsion
[ 7974 7965 7964 7962 ] final  -63.07 input  175.53 | X-H torsion
[ 8008 7997 7996 7995 ] final   55.41 input   59.86 | X-H torsion
[ 10167 10162 10161 10158 ] final   96.77 input  -65.29 | X-H torsion
[ 10718 10713 10712 10709 ] final  -48.25 input   66.30 | X-H torsion
[ 10763 10752 10751 10750 ] final -177.25 input  -60.55 | X-H torsion
[ 11005 11000 10999 10996 ] final   30.58 input  -57.11 | X-H torsion

> <Gold.Protein.ActiveResidues>
 VAL166  LYS551  ARG553  GLY616  TRP617  ASP618  TYR619  PRO620  LYS621  CYS622 
 ASP623  PHE694  ASN695  SER759  ASP760  ASP761  ALA762  ILE779  LEU786  VAL792 
 PHE793  MET794  SER795  GLU796  ALA797  LYS798  CYS799  TRP800  GLU811  SER814 

> <Gold.Protein.RotatedAtoms>
  150.6869  134.3151  159.4762 H   0  0  0  0  0  0  0  0  0  0  0  0  # atno 6907 bound_to 6896
  152.1033  134.9324  160.0578 H   0  0  0  0  0  0  0  0  0  0  0  0  # atno 6908 bound_to 6896
  152.0594  133.4020  159.4448 H   0  0  0  0  0  0  0  0  0  0  0  0  # atno 6909 bound_to 6896
  145.7835  140.8749  143.0318 H   0  0  0  0  0  0  0  0  0  0  0  0  # atno 7974 bound_to 7965
  155.5006  140.3474  155.4370 H   0  0  0  0  0  0  0  0  0  0  0  0  # atno 8008 bound_to 7997
  156.0916  140.1412  156.9612 H   0  0  0  0  0  0  0  0  0  0  0  0  # atno 8009 bound_to 7997
  154.4638  140.0925  156.6943 H   0  0  0  0  0  0  0  0  0  0  0  0  # atno 8010 bound_to 7997
  139.7863  144.6869  150.9953 H   0  0  0  0  0  0  0  0  0  0  0  0  # atno 10167 bound_to 10162
  156.2006  130.4156  149.9246 H   0  0  0  0  0  0  0  0  0  0  0  0  # atno 10718 bound_to 10713
  154.5625  135.2821  155.0906 H   0  0  0  0  0  0  0  0  0  0  0  0  # atno 10763 bound_to 10752
  154.2309  135.6374  153.5179 H   0  0  0  0  0  0  0  0  0  0  0  0  # atno 10764 bound_to 10752
  153.0033  135.5537  154.6223 H   0  0  0  0  0  0  0  0  0  0  0  0  # atno 10765 bound_to 10752
  140.2928  134.2844  155.7772 H   0  0  0  0  0  0  0  0  0  0  0  0  # atno 11005 bound_to 11000
  144.6792  140.0023  143.7484 LP  0  0  0  0  0  0  0  0  0  0  0  0  # atno 17320 bound_to 7965
  146.0049  139.3122  143.0905 LP  0  0  0  0  0  0  0  0  0  0  0  0  # atno 17321 bound_to 7965
  140.7819  143.4429  151.0525 LP  0  0  0  0  0  0  0  0  0  0  0  0  # atno 17342 bound_to 10162
  139.8107  143.7955  152.3171 LP  0  0  0  0  0  0  0  0  0  0  0  0  # atno 17343 bound_to 10162
  156.6956  130.8913  151.3593 LP  0  0  0  0  0  0  0  0  0  0  0  0  # atno 17370 bound_to 10713
  157.6983  130.9306  150.0710 LP  0  0  0  0  0  0  0  0  0  0  0  0  # atno 17371 bound_to 10713
  141.2143  133.7596  156.9651 LP  0  0  0  0  0  0  0  0  0  0  0  0  # atno 17394 bound_to 11000
  140.1179  134.9435  157.2161 LP  0  0  0  0  0  0  0  0  0  0  0  0  # atno 17395 bound_to 11000

$$$$
