AV-unprocessed.smi:213|AV-procd|sdf|1634|dock6
  -GOLD-   2262019593D 1   1.00000     0.00000
 Structure written by MMmdl.
 59 62  0  0  0  0  0  0  0  0  2 V2000
  144.6471  137.0800  153.4145 C   0  0  0  0  0  0  0  0  0  0  0  0
  146.0392  136.9973  152.7610 C   0  0  1  0  0  0  0  0  0  0  0  0
  145.9624  136.5893  151.2709 C   0  0  0  0  0  0  0  0  0  0  0  0
  145.7258  135.1353  151.0893 N   0  3  0  0  0  0  0  0  0  0  0  0
  146.6431  134.3035  151.9036 C   0  0  0  0  0  0  0  0  0  0  0  0
  146.3911  132.8090  151.6406 C   0  0  0  0  0  0  0  0  0  0  0  0
  145.0316  132.4984  151.9186 O   0  0  0  0  0  0  0  0  0  0  0  0
  144.1386  133.2250  151.0839 C   0  0  0  0  0  0  0  0  0  0  0  0
  144.3164  134.7337  151.3249 C   0  0  0  0  0  0  0  0  0  0  0  0
  146.7775  138.2557  152.9359 N   0  0  0  0  0  0  0  0  0  0  0  0
  146.9151  139.1828  151.8145 C   0  0  0  0  0  0  0  0  0  0  0  0
  147.6842  138.3763  153.9472 C   0  0  0  0  0  0  0  0  0  0  0  0
  148.0759  137.2650  154.6284 N   0  0  0  0  0  0  0  0  0  0  0  0
  148.9698  137.3491  155.6173 C   0  0  0  0  0  0  0  0  0  0  0  0
  149.5918  138.4298  156.0880 N   0  0  0  0  0  0  0  0  0  0  0  0
  149.2044  139.5521  155.4178 C   0  0  0  0  0  0  0  0  0  0  0  0
  148.2657  139.6169  154.3480 C   0  0  0  0  0  0  0  0  0  0  0  0
  148.1238  140.9377  153.9341 N   0  0  0  0  0  0  0  0  0  0  0  0
  148.9446  141.6067  154.6960 C   0  0  0  0  0  0  0  0  0  0  0  0
  149.6406  140.8513  155.6108 N   0  0  0  0  0  0  0  0  0  0  0  0
  150.6205  141.3298  156.5720 C   0  0  0  0  0  0  0  0  0  0  0  0
  150.0037  141.9364  157.8529 C   0  0  2  0  0  0  0  0  0  0  0  0
  148.7884  142.6000  157.5629 O   0  0  0  0  0  0  0  0  0  0  0  0
  150.9426  142.8571  158.6664 C   0  0  2  0  0  0  0  0  0  0  0  0
  151.6069  143.9919  157.8860 C   0  0  0  0  0  0  0  0  0  0  0  0
  152.7511  144.3501  158.8082 C   0  0  0  0  0  0  0  0  0  0  0  0
  153.1757  142.9826  159.3402 C   0  0  0  0  0  0  0  0  0  0  0  0
  152.0156  142.1573  159.2900 O   0  0  0  0  0  0  0  0  0  0  0  0
  144.1457  136.1124  153.3962 H   0  0  0  0  0  0  0  0  0  0  0  0
  143.9975  137.7936  152.9078 H   0  0  0  0  0  0  0  0  0  0  0  0
  144.7248  137.3838  154.4589 H   0  0  0  0  0  0  0  0  0  0  0  0
  146.5700  136.2244  153.3151 H   0  0  0  0  0  0  0  0  0  0  0  0
  145.1552  137.1484  150.7959 H   0  0  0  0  0  0  0  0  0  0  0  0
  146.8733  136.8698  150.7401 H   0  0  0  0  0  0  0  0  0  0  0  0
  147.6784  134.5464  151.6614 H   0  0  0  0  0  0  0  0  0  0  0  0
  146.4990  134.5277  152.9618 H   0  0  0  0  0  0  0  0  0  0  0  0
  146.6332  132.5481  150.6090 H   0  0  0  0  0  0  0  0  0  0  0  0
  147.0306  132.2015  152.2810 H   0  0  0  0  0  0  0  0  0  0  0  0
  144.3136  132.9737  150.0364 H   0  0  0  0  0  0  0  0  0  0  0  0
  143.1166  132.9254  151.3165 H   0  0  0  0  0  0  0  0  0  0  0  0
  144.0313  134.9808  152.3489 H   0  0  0  0  0  0  0  0  0  0  0  0
  143.6456  135.2849  150.6669 H   0  0  0  0  0  0  0  0  0  0  0  0
  147.9572  139.4640  151.6561 H   0  0  0  0  0  0  0  0  0  0  0  0
  146.3373  140.0879  152.0025 H   0  0  0  0  0  0  0  0  0  0  0  0
  146.5546  138.7472  150.8836 H   0  0  0  0  0  0  0  0  0  0  0  0
  149.2244  136.4170  156.0997 H   0  0  0  0  0  0  0  0  0  0  0  0
  149.0698  142.6761  154.6074 H   0  0  0  0  0  0  0  0  0  0  0  0
  151.2776  140.4985  156.8302 H   0  0  0  0  0  0  0  0  0  0  0  0
  151.2511  142.0719  156.0815 H   0  0  0  0  0  0  0  0  0  0  0  0
  149.7354  141.1012  158.5006 H   0  0  0  0  0  0  0  0  0  0  0  0
  148.9881  143.4250  157.1480 H   0  0  0  0  0  0  0  0  0  0  0  0
  150.3623  143.3054  159.4748 H   0  0  0  0  0  0  0  0  0  0  0  0
  151.9991  143.6418  156.9308 H   0  0  0  0  0  0  0  0  0  0  0  0
  150.9341  144.8281  157.6951 H   0  0  0  0  0  0  0  0  0  0  0  0
  153.5592  144.8820  158.3057 H   0  0  0  0  0  0  0  0  0  0  0  0
  152.3884  144.9741  159.6262 H   0  0  0  0  0  0  0  0  0  0  0  0
  153.9391  142.5420  158.6983 H   0  0  0  0  0  0  0  0  0  0  0  0
  153.5758  143.0394  160.3524 H   0  0  0  0  0  0  0  0  0  0  0  0
  145.9382  134.9270  150.1241 H   0  0  0  0  0  0  0  0  0  0  0  0
  1  2  1  0  0  0  0
  1 29  1  0  0  0  0
  1 30  1  0  0  0  0
  1 31  1  0  0  0  0
  2  3  1  0  0  0  0
  2 10  1  0  0  0  0
  2 32  1  0  0  0  0
  3  4  1  0  0  0  0
  3 33  1  0  0  0  0
  3 34  1  0  0  0  0
  4  9  1  0  0  0  0
  4  5  1  0  0  0  0
  4 59  1  0  0  0  0
  5  6  1  0  0  0  0
  5 35  1  0  0  0  0
  5 36  1  0  0  0  0
  6  7  1  0  0  0  0
  6 37  1  0  0  0  0
  6 38  1  0  0  0  0
  7  8  1  0  0  0  0
  8  9  1  0  0  0  0
  8 39  1  0  0  0  0
  8 40  1  0  0  0  0
  9 41  1  0  0  0  0
  9 42  1  0  0  0  0
 10 11  1  0  0  0  0
 10 12  1  0  0  0  0
 11 43  1  0  0  0  0
 11 44  1  0  0  0  0
 11 45  1  0  0  0  0
 12 17  1  0  0  0  0
 12 13  2  0  0  0  0
 13 14  1  0  0  0  0
 14 15  2  0  0  0  0
 14 46  1  0  0  0  0
 15 16  1  0  0  0  0
 16 20  1  0  0  0  0
 16 17  2  0  0  0  0
 17 18  1  0  0  0  0
 18 19  2  0  0  0  0
 19 20  1  0  0  0  0
 19 47  1  0  0  0  0
 20 21  1  0  0  0  0
 21 22  1  0  0  0  0
 21 48  1  0  0  0  0
 21 49  1  0  0  0  0
 22 23  1  0  0  0  0
 22 24  1  0  0  0  0
 22 50  1  0  0  0  0
 23 51  1  0  0  0  0
 24 28  1  0  0  0  0
 24 25  1  0  0  0  0
 24 52  1  0  0  0  0
 25 26  1  0  0  0  0
 25 53  1  0  0  0  0
 25 54  1  0  0  0  0
 26 27  1  0  0  0  0
 26 55  1  0  0  0  0
 26 56  1  0  0  0  0
 27 28  1  0  0  0  0
 27 57  1  0  0  0  0
 27 58  1  0  0  0  0
M  CHG  1   4   1
M  END
> <s_m_source_file>
AV-unprocessed.smi

> <i_m_source_file_index>
213

> <i_lp_mmshare_version>
43012

> <i_f3d_flags>
0

> <s_epik_input>
W0NIMl0xW0NIMl1PW0NIMl1bQ0gyXU4xW0NIMl1bQ0BASF0oW0NIM10pTihbQ0gzXSljKG5bY0hdbjIpYyhjMjMpbltjSF1uM1tDSDJdW0NASF0oW09IXSlbQ0BASF00W0NIMl1bQ0gyXVtDSDJdTzQ=

> <s_epik_cmdline>
J2VwaWtfcHl0aG9uJywgJy1waCcsICc3LjAnLCAnLXRuJywgJzgnLCAnLW1hJywgJzIwMCcsICctbWV0YWxfYmluZGluZycsICctaW1hZScsICc8aW5maWxlLm1hZT4nLCAnLW9tYWUnLCAnPG91dGZpbGUubWFlPic=

> <r_lp_tautomer_probability>
1

> <r_epik_Ionization_Penalty>
0.399679

> <r_epik_Ionization_Penalty_Charging>
0.399433

> <r_epik_Ionization_Penalty_Neutral>
0.000246213

> <r_epik_State_Penalty>
0.286032

> <r_epik_Charging_Adjusted_Penalty>
0.685465

> <i_epik_Tot_Q>
1

> <i_epik_Tot_abs_Q>
1

> <r_epik_Metal_State_Penalty>
0.286072

> <b_epik_Metal_Only>
0

> <s_lp_Force_Field>
OPLS_2005

> <r_lp_Energy>
46.153

> <b_lp_Chiralities_Consistent>
1

> <s_lp_Variant>
AV-unprocessed.smi:213-2

> <Gold.Version>
5.8.1

> <Gold.Id.Protein>
6NUR|6NUR_protein|mol2

> <Gold.PLP.Fitness>
52.7772

> <Gold.PLP.PLP>
-46.3821

> <Gold.PLP.part.hbond>
-1.9781

> <Gold.PLP.part.metal>
0.0000

> <Gold.PLP.part.buried>
3.7288

> <Gold.PLP.part.nonpolar>
-50.0257

> <Gold.PLP.part.repulsive>
2.7537

> <Gold.PLP.ligand.clash>
0.0000

> <Gold.PLP.ligand.torsion>
1.7502

> <Gold.PLP.Chemscore.Hbond>
2.0000

> <Gold.PLP.Chemscore.CHOScore>
1.0000

> <Gold.PLP.Chemscore.Metal>
0.0000

> <Gold.Chemscore.Hbonds>
donor molecule, donor type, donor heavy atom, donor atom, acceptor molecule, acceptor atom, score
      L1  H    23    51       P1  8028  1.00
      L1  C    19    47       P1  8028  1.00

> <Gold.PLP.Chemscore.Internal.Correction>
0.8955

> <Gold.Rescore>
     Score         DG    S(hbond)    S(metal)    S(lipo)     H(rot)  DE(clash)    DE(int)     intcor
      9.88     -13.26       0.63        0.00     110.35       2.83       0.72       2.66       ----

> <Gold.Chemscore.Fitness>
9.8800

> <Gold.Chemscore.DG>
-13.2560

> <Gold.Chemscore.ZeroCoef>
-5.4800

> <Gold.Chemscore.Hbond>
0.6281

> <Gold.Chemscore.Metal>
0.0000

> <Gold.Chemscore.Lipo>
110.3510

> <Gold.Chemscore.Internal_Hbond>
0.0000

> <Gold.Chemscore.DEClash>
0.7203

> <Gold.Chemscore.DEInternal>
2.6556

> <Gold.Chemscore.Rot>
2.8254

> <Gold.Chemscore.Internal.Correction>
   9.000000E+99

> <Gold.Chemscore.Hbonds>
donor molecule, donor type, donor heavy atom, donor atom, acceptor molecule, acceptor atom, score
      L1  H     4    59       P1  7921  0.01
      L1  H    23    51       P1  8028  0.53

> <Gold.Chemscore.Hbond.Weighted>
-2.0979

> <Gold.Chemscore.Metal.Weighted>
-0.0000

> <Gold.Chemscore.Lipo.Weighted>
-12.9111

> <Gold.Chemscore.Internal_Hbond.Weighted>
0.0000

> <Gold.Chemscore.DEClash.Weighted>
0.7203

> <Gold.Chemscore.DEInternal.Weighted>
2.6556

> <Gold.Chemscore.Rot.Weighted>
7.2330

> <Gold.Chemscore.Internal.Correction.Weighted>
   9.000000E+99

> <Gold.Protein.RotatedTorsions>
[ 6907 6896 6895 6894 ] final  -59.97 input  -60.11 | X-H torsion
[ 7974 7965 7964 7962 ] final  -37.13 input  175.53 | X-H torsion
[ 8008 7997 7996 7995 ] final -102.91 input   59.86 | X-H torsion
[ 10167 10162 10161 10158 ] final  164.10 input  -65.29 | X-H torsion
[ 10718 10713 10712 10709 ] final -127.31 input   66.30 | X-H torsion
[ 10763 10752 10751 10750 ] final   40.33 input  -60.55 | X-H torsion
[ 11005 11000 10999 10996 ] final -115.61 input  -57.11 | X-H torsion

> <Gold.Protein.ActiveResidues>
 VAL166  LYS551  ARG553  GLY616  TRP617  ASP618  TYR619  PRO620  LYS621  CYS622 
 ASP623  PHE694  ASN695  SER759  ASP760  ASP761  ALA762  ILE779  LEU786  VAL792 
 PHE793  MET794  SER795  GLU796  ALA797  LYS798  CYS799  TRP800  GLU811  SER814 

> <Gold.Protein.RotatedAtoms>
  150.7890  134.6898  159.6490 H   0  0  0  0  0  0  0  0  0  0  0  0  # atno 6907 bound_to 6896
  152.3992  134.6311  160.0085 H   0  0  0  0  0  0  0  0  0  0  0  0  # atno 6908 bound_to 6896
  151.6587  133.3281  159.3205 H   0  0  0  0  0  0  0  0  0  0  0  0  # atno 6909 bound_to 6896
  146.0602  140.6359  142.9001 H   0  0  0  0  0  0  0  0  0  0  0  0  # atno 7974 bound_to 7965
  154.8634  140.0426  157.1679 H   0  0  0  0  0  0  0  0  0  0  0  0  # atno 8008 bound_to 7997
  154.8816  140.2973  155.5401 H   0  0  0  0  0  0  0  0  0  0  0  0  # atno 8009 bound_to 7997
  156.2999  140.2410  156.3819 H   0  0  0  0  0  0  0  0  0  0  0  0  # atno 8010 bound_to 7997
  139.4884  144.4269  151.9118 H   0  0  0  0  0  0  0  0  0  0  0  0  # atno 10167 bound_to 10162
  156.1845  130.6754  151.0347 H   0  0  0  0  0  0  0  0  0  0  0  0  # atno 10718 bound_to 10713
  152.9939  135.6194  154.2609 H   0  0  0  0  0  0  0  0  0  0  0  0  # atno 10763 bound_to 10752
  154.2345  135.2791  155.2879 H   0  0  0  0  0  0  0  0  0  0  0  0  # atno 10764 bound_to 10752
  154.5421  135.5758  153.6907 H   0  0  0  0  0  0  0  0  0  0  0  0  # atno 10765 bound_to 10752
  141.0476  133.9738  157.2891 H   0  0  0  0  0  0  0  0  0  0  0  0  # atno 11005 bound_to 11000
  144.7170  140.4245  143.7036 LP  0  0  0  0  0  0  0  0  0  0  0  0  # atno 17320 bound_to 7965
  145.6573  139.1575  143.2828 LP  0  0  0  0  0  0  0  0  0  0  0  0  # atno 17321 bound_to 7965
  140.3716  144.2849  150.5919 LP  0  0  0  0  0  0  0  0  0  0  0  0  # atno 17342 bound_to 10162
  140.5314  143.2242  151.8232 LP  0  0  0  0  0  0  0  0  0  0  0  0  # atno 17343 bound_to 10162
  157.6890  131.0816  150.7162 LP  0  0  0  0  0  0  0  0  0  0  0  0  # atno 17370 bound_to 10713
  156.7219  130.4683  149.5521 LP  0  0  0  0  0  0  0  0  0  0  0  0  # atno 17371 bound_to 10713
  139.9324  135.0199  156.8445 LP  0  0  0  0  0  0  0  0  0  0  0  0  # atno 17394 bound_to 11000
  140.6116  134.0077  155.7579 LP  0  0  0  0  0  0  0  0  0  0  0  0  # atno 17395 bound_to 11000

$$$$
