AV-unprocessed.smi:703|AV-procd|sdf|3426|dock2
  -GOLD-   22720 0413D 1   1.00000     0.00000
 Structure written by MMmdl.
 38 39  0  0  0  0  0  0  0  0  2 V2000
  147.0089  139.0260  152.9080 C   0  0  0  0  0  0  0  0  0  0  0  0
  147.3813  138.2809  154.1969 C   0  0  0  0  0  0  0  0  0  0  0  0
  148.7523  137.7205  154.1451 N   0  3  1  0  0  0  0  0  0  0  0  0
  149.8382  138.7235  154.2170 C   0  0  0  0  0  0  0  0  0  0  0  0
  151.0272  137.9868  154.8316 C   0  0  1  0  0  0  0  0  0  0  0  0
  152.1474  138.8909  155.3731 C   0  0  0  0  0  0  0  0  0  0  0  0
  150.3615  137.0432  155.8403 C   0  0  1  0  0  0  0  0  0  0  0  0
  150.1282  137.7130  157.1255 N   0  0  0  0  0  0  0  0  0  0  0  0
  149.9180  136.7325  158.5285 S   0  0  0  0  0  0  0  0  0  0  0  0
  150.0001  135.3254  158.1074 O   0  0  0  0  0  0  0  0  0  0  0  0
  150.8325  137.2437  159.5605 O   0  0  0  0  0  0  0  0  0  0  0  0
  148.1815  137.0996  159.0208 C   0  0  0  0  0  0  0  0  0  0  0  0
  147.8760  136.4178  160.3234 C   0  0  0  0  0  0  0  0  0  0  0  0
  148.0024  135.0394  160.6507 C   0  0  0  0  0  0  0  0  0  0  0  0
  147.5955  134.9826  161.9525 C   0  0  0  0  0  0  0  0  0  0  0  0
  147.2418  136.2159  162.3940 O   0  0  0  0  0  0  0  0  0  0  0  0
  147.4233  137.1255  161.3460 N   0  0  0  0  0  0  0  0  0  0  0  0
  149.0230  136.6841  155.1717 C   0  0  0  0  0  0  0  0  0  0  0  0
  145.9776  139.3771  152.9512 H   0  0  0  0  0  0  0  0  0  0  0  0
  147.1013  138.3767  152.0370 H   0  0  0  0  0  0  0  0  0  0  0  0
  147.6437  139.8977  152.7477 H   0  0  0  0  0  0  0  0  0  0  0  0
  147.2805  138.9395  155.0609 H   0  0  0  0  0  0  0  0  0  0  0  0
  146.6753  137.4622  154.3421 H   0  0  0  0  0  0  0  0  0  0  0  0
  150.0678  139.1355  153.2339 H   0  0  0  0  0  0  0  0  0  0  0  0
  149.5388  139.5485  154.8657 H   0  0  0  0  0  0  0  0  0  0  0  0
  151.4626  137.3625  154.0494 H   0  0  0  0  0  0  0  0  0  0  0  0
  151.7775  139.6014  156.1125 H   0  0  0  0  0  0  0  0  0  0  0  0
  152.6026  139.4672  154.5673 H   0  0  0  0  0  0  0  0  0  0  0  0
  152.9343  138.2990  155.8414 H   0  0  0  0  0  0  0  0  0  0  0  0
  150.9780  136.1593  156.0104 H   0  0  0  0  0  0  0  0  0  0  0  0
  150.8313  138.4332  157.2916 H   0  0  0  0  0  0  0  0  0  0  0  0
  148.0656  138.1810  159.0995 H   0  0  0  0  0  0  0  0  0  0  0  0
  147.5168  136.7494  158.2315 H   0  0  0  0  0  0  0  0  0  0  0  0
  148.3427  134.2233  160.0308 H   0  0  0  0  0  0  0  0  0  0  0  0
  147.5045  134.1783  162.6675 H   0  0  0  0  0  0  0  0  0  0  0  0
  148.2114  136.5990  155.8961 H   0  0  0  0  0  0  0  0  0  0  0  0
  149.0993  135.7218  154.6649 H   0  0  0  0  0  0  0  0  0  0  0  0
  148.8495  137.2544  153.2543 H   0  0  0  0  0  0  0  0  0  0  0  0
  1  2  1  0  0  0  0
  1 19  1  0  0  0  0
  1 20  1  0  0  0  0
  1 21  1  0  0  0  0
  2  3  1  0  0  0  0
  2 22  1  0  0  0  0
  2 23  1  0  0  0  0
  3 18  1  0  0  0  0
  3  4  1  0  0  0  0
  3 38  1  0  0  0  0
  4  5  1  0  0  0  0
  4 24  1  0  0  0  0
  4 25  1  0  0  0  0
  5  6  1  0  0  0  0
  5  7  1  0  0  0  0
  5 26  1  0  0  0  0
  6 27  1  0  0  0  0
  6 28  1  0  0  0  0
  6 29  1  0  0  0  0
  7  8  1  0  0  0  0
  7 18  1  0  0  0  0
  7 30  1  0  0  0  0
  8  9  1  0  0  0  0
  8 31  1  0  0  0  0
  9 10  2  0  0  0  0
  9 11  2  0  0  0  0
  9 12  1  0  0  0  0
 12 13  1  0  0  0  0
 12 32  1  0  0  0  0
 12 33  1  0  0  0  0
 13 17  2  0  0  0  0
 13 14  1  0  0  0  0
 14 15  2  0  0  0  0
 14 34  1  0  0  0  0
 15 16  1  0  0  0  0
 15 35  1  0  0  0  0
 16 17  1  0  0  0  0
 18 36  1  0  0  0  0
 18 37  1  0  0  0  0
M  CHG  1   3   1
M  END
> <s_m_source_file>
AV-unprocessed.smi

> <i_m_source_file_index>
703

> <i_lp_mmshare_version>
43012

> <i_f3d_flags>
0

> <s_epik_input>
W0NIM11bQ0gyXU4xW0NIMl1bQ0BASF0oW0NIM10pW0NASF0oW0NIMl0xKVtOSF1TKD1PKSg9TylbQ0gyXWMyW2NIXVtjSF1vbjI=

> <s_epik_cmdline>
J2VwaWtfcHl0aG9uJywgJy1waCcsICc3LjAnLCAnLXRuJywgJzgnLCAnLW1hJywgJzIwMCcsICctbWV0YWxfYmluZGluZycsICctaW1hZScsICc8aW5maWxlLm1hZT4nLCAnLW9tYWUnLCAnPG91dGZpbGUubWFlPic=

> <r_epik_Ionization_Penalty>
0.00324529

> <r_epik_Ionization_Penalty_Charging>
0.0019384

> <r_epik_Ionization_Penalty_Neutral>
0.00130689

> <r_epik_State_Penalty>
0.00218682

> <r_epik_Charging_Adjusted_Penalty>
0.00412522

> <i_epik_Tot_Q>
1

> <i_epik_Tot_abs_Q>
1

> <r_epik_Metal_State_Penalty>
0.310831

> <b_epik_Metal_Only>
0

> <s_lp_Force_Field>
OPLS_2005

> <r_lp_Energy>
19.6136

> <b_lp_Chiralities_Consistent>
1

> <s_lp_Variant>
AV-unprocessed.smi:703-1

> <Gold.Version>
5.8.1

> <Gold.Id.Protein>
6NUR|6NUR_protein|mol2

> <Gold.PLP.Fitness>
42.4837

> <Gold.PLP.PLP>
-28.9776

> <Gold.PLP.part.hbond>
-4.5469

> <Gold.PLP.part.metal>
0.0000

> <Gold.PLP.part.buried>
-5.0379

> <Gold.PLP.part.nonpolar>
-19.9624

> <Gold.PLP.part.repulsive>
0.0000

> <Gold.PLP.ligand.clash>
0.0000

> <Gold.PLP.ligand.torsion>
0.5051

> <Gold.PLP.Chemscore.Hbond>
4.7840

> <Gold.PLP.Chemscore.CHOScore>
0.0000

> <Gold.PLP.Chemscore.Metal>
0.0000

> <Gold.Chemscore.Hbonds>
donor molecule, donor type, donor heavy atom, donor atom, acceptor molecule, acceptor atom, score
      L1  H     3    38       P1  7948  2.00
      P1  H  6896  6909       L1    10  0.90
      P1  H  6931  6943       L1    17  0.90
      P1  H  6934  6947       L1    17  0.94

> <Gold.PLP.Chemscore.Internal.Correction>
0.1644

> <Gold.Rescore>
     Score         DG    S(hbond)    S(metal)    S(lipo)     H(rot)  DE(clash)    DE(int)     intcor
     16.04     -16.67       2.71        0.00      60.65       1.94       0.02       0.61       ----

> <Gold.Chemscore.Fitness>
16.0419

> <Gold.Chemscore.DG>
-16.6689

> <Gold.Chemscore.ZeroCoef>
-5.4800

> <Gold.Chemscore.Hbond>
2.7123

> <Gold.Chemscore.Metal>
0.0000

> <Gold.Chemscore.Lipo>
60.6513

> <Gold.Chemscore.Internal_Hbond>
0.0000

> <Gold.Chemscore.DEClash>
0.0153

> <Gold.Chemscore.DEInternal>
0.6117

> <Gold.Chemscore.Rot>
1.9400

> <Gold.Chemscore.Internal.Correction>
   9.000000E+99

> <Gold.Chemscore.Hbonds>
donor molecule, donor type, donor heavy atom, donor atom, acceptor molecule, acceptor atom, score
      L1  H     3    38       P1  7948  1.00
      P1  H  6896  6909       L1    10  0.26
      P1  H  6931  6943       L1    17  0.19
      P1  H  6934  6947       L1    17  0.80

> <Gold.Chemscore.Hbond.Weighted>
-9.0592

> <Gold.Chemscore.Metal.Weighted>
-0.0000

> <Gold.Chemscore.Lipo.Weighted>
-7.0962

> <Gold.Chemscore.Internal_Hbond.Weighted>
0.0000

> <Gold.Chemscore.DEClash.Weighted>
0.0153

> <Gold.Chemscore.DEInternal.Weighted>
0.6117

> <Gold.Chemscore.Rot.Weighted>
4.9665

> <Gold.Chemscore.Internal.Correction.Weighted>
   9.000000E+99

> <Gold.Protein.RotatedTorsions>
[ 6907 6896 6895 6894 ] final   50.57 input  -60.11 | X-H torsion
[ 7974 7965 7964 7962 ] final -159.44 input  175.53 | X-H torsion
[ 8008 7997 7996 7995 ] final  -79.97 input   59.86 | X-H torsion
[ 10167 10162 10161 10158 ] final  -99.26 input  -65.29 | X-H torsion
[ 10718 10713 10712 10709 ] final  158.78 input   66.30 | X-H torsion
[ 10763 10752 10751 10750 ] final  110.00 input  -60.55 | X-H torsion
[ 11005 11000 10999 10996 ] final  154.44 input  -57.11 | X-H torsion

> <Gold.Protein.ActiveResidues>
 VAL166  LYS551  ARG553  GLY616  TRP617  ASP618  TYR619  PRO620  LYS621  CYS622 
 ASP623  PHE694  ASN695  SER759  ASP760  ASP761  ALA762  ILE779  LEU786  VAL792 
 PHE793  MET794  SER795  GLU796  ALA797  LYS798  CYS799  TRP800  GLU811  SER814 

> <Gold.Protein.RotatedAtoms>
  152.3032  134.7586  160.0352 H   0  0  0  0  0  0  0  0  0  0  0  0  # atno 6907 bound_to 6896
  151.8092  133.3374  159.3558 H   0  0  0  0  0  0  0  0  0  0  0  0  # atno 6908 bound_to 6896
  150.7284  134.5610  159.5886 H   0  0  0  0  0  0  0  0  0  0  0  0  # atno 6909 bound_to 6896
  144.7465  140.3684  143.6081 H   0  0  0  0  0  0  0  0  0  0  0  0  # atno 7974 bound_to 7965
  154.5837  140.0670  156.9140 H   0  0  0  0  0  0  0  0  0  0  0  0  # atno 8008 bound_to 7997
  155.2418  140.3345  155.4273 H   0  0  0  0  0  0  0  0  0  0  0  0  # atno 8009 bound_to 7997
  156.2207  140.1797  156.7468 H   0  0  0  0  0  0  0  0  0  0  0  0  # atno 8010 bound_to 7997
  140.2643  143.3386  152.0595 H   0  0  0  0  0  0  0  0  0  0  0  0  # atno 10167 bound_to 10162
  157.1733  131.0615  151.2171 H   0  0  0  0  0  0  0  0  0  0  0  0  # atno 10718 bound_to 10713
  153.4427  135.3762  155.2238 H   0  0  0  0  0  0  0  0  0  0  0  0  # atno 10763 bound_to 10752
  154.8754  135.3867  154.4133 H   0  0  0  0  0  0  0  0  0  0  0  0  # atno 10764 bound_to 10752
  153.4681  135.7087  153.6073 H   0  0  0  0  0  0  0  0  0  0  0  0  # atno 10765 bound_to 10752
  140.1489  134.8688  157.2429 H   0  0  0  0  0  0  0  0  0  0  0  0  # atno 11005 bound_to 11000
  145.7103  139.1683  143.2542 LP  0  0  0  0  0  0  0  0  0  0  0  0  # atno 17320 bound_to 7965
  146.1351  140.7133  142.9393 LP  0  0  0  0  0  0  0  0  0  0  0  0  # atno 17321 bound_to 7965
  139.5007  144.6698  151.6270 LP  0  0  0  0  0  0  0  0  0  0  0  0  # atno 17342 bound_to 10162
  140.5941  143.9728  150.6343 LP  0  0  0  0  0  0  0  0  0  0  0  0  # atno 17343 bound_to 10162
  157.4023  130.7340  149.6776 LP  0  0  0  0  0  0  0  0  0  0  0  0  # atno 17370 bound_to 10713
  155.9735  130.4117  150.3997 LP  0  0  0  0  0  0  0  0  0  0  0  0  # atno 17371 bound_to 10713
  140.2629  134.3550  155.7400 LP  0  0  0  0  0  0  0  0  0  0  0  0  # atno 17394 bound_to 11000
  141.2196  133.7379  156.9107 LP  0  0  0  0  0  0  0  0  0  0  0  0  # atno 17395 bound_to 11000

$$$$
