AV-unprocessed.smi:1604|AV-procd|sdf|6448|dock1
  -GOLD-   22720 7103D 1   1.00000     0.00000
 Structure written by MMmdl.
 46 48  0  0  0  0  0  0  0  0  1 V2000
  150.1615  136.3022  158.8438 O   0  0  0  0  0  0  0  0  0  0  0  0
  149.2025  136.5931  158.1290 C   0  0  0  0  0  0  0  0  0  0  0  0
  149.2666  137.3155  156.9984 N   0  0  0  0  0  0  0  0  0  0  0  0
  150.3994  137.9668  156.4327 C   0  0  0  0  0  0  0  0  0  0  0  0
  151.7167  137.4758  156.6026 C   0  0  0  0  0  0  0  0  0  0  0  0
  152.7861  138.1505  155.9875 C   0  0  0  0  0  0  0  0  0  0  0  0
  152.4995  139.2885  155.2139 C   0  0  0  0  0  0  0  0  0  0  0  0
  151.2495  139.7587  155.0292 N   0  0  0  0  0  0  0  0  0  0  0  0
  150.2105  139.1143  155.6148 C   0  0  0  0  0  0  0  0  0  0  0  0
  148.9175  139.6470  155.4219 N   0  0  0  0  0  0  0  0  0  0  0  0
  148.7294  140.9774  155.9935 C   0  0  0  0  0  0  0  0  0  0  0  0
  147.7542  141.7084  155.0700 C   0  0  0  0  0  0  0  0  0  0  0  0
  148.0138  141.0580  153.7171 C   0  0  0  0  0  0  0  0  0  0  0  0
  148.3017  139.6058  154.0957 C   0  0  0  0  0  0  0  0  0  0  0  0
  147.9392  136.2330  158.3997 N   0  0  0  0  0  0  0  0  0  0  0  0
  147.5111  135.4325  159.5490 C   0  0  1  0  0  0  0  0  0  0  0  0
  148.3300  134.1213  159.5332 C   0  0  0  0  0  0  0  0  0  0  0  0
  147.6707  132.9685  160.3103 C   0  0  0  0  0  0  0  0  0  0  0  0
  147.5485  133.1941  161.8247 C   0  0  0  0  0  0  0  0  0  0  0  0
  146.6602  134.3917  162.2019 C   0  0  0  0  0  0  0  0  0  0  0  0
  147.3485  135.6633  162.0234 N   0  0  0  0  0  0  0  0  0  0  0  0
  147.7874  136.1885  160.8693 C   0  0  0  0  0  0  0  0  0  0  0  0
  148.4044  137.2537  160.8668 O   0  0  0  0  0  0  0  0  0  0  0  0
  148.3836  137.5313  156.5594 H   0  0  0  0  0  0  0  0  0  0  0  0
  151.9233  136.5865  157.1782 H   0  0  0  0  0  0  0  0  0  0  0  0
  153.8010  137.7995  156.1011 H   0  0  0  0  0  0  0  0  0  0  0  0
  153.2939  139.8329  154.7256 H   0  0  0  0  0  0  0  0  0  0  0  0
  148.3421  140.9208  157.0108 H   0  0  0  0  0  0  0  0  0  0  0  0
  149.6824  141.5079  156.0270 H   0  0  0  0  0  0  0  0  0  0  0  0
  146.7281  141.5109  155.3828 H   0  0  0  0  0  0  0  0  0  0  0  0
  147.9047  142.7882  155.0632 H   0  0  0  0  0  0  0  0  0  0  0  0
  147.1776  141.1594  153.0249 H   0  0  0  0  0  0  0  0  0  0  0  0
  148.8954  141.5038  153.2547 H   0  0  0  0  0  0  0  0  0  0  0  0
  148.8938  139.1012  153.3326 H   0  0  0  0  0  0  0  0  0  0  0  0
  147.3658  139.0536  154.1844 H   0  0  0  0  0  0  0  0  0  0  0  0
  147.2179  136.5136  157.7520 H   0  0  0  0  0  0  0  0  0  0  0  0
  146.4459  135.2121  159.4583 H   0  0  0  0  0  0  0  0  0  0  0  0
  148.4408  133.7851  158.5009 H   0  0  0  0  0  0  0  0  0  0  0  0
  149.3461  134.2890  159.8948 H   0  0  0  0  0  0  0  0  0  0  0  0
  146.6832  132.7687  159.8927 H   0  0  0  0  0  0  0  0  0  0  0  0
  148.2517  132.0613  160.1424 H   0  0  0  0  0  0  0  0  0  0  0  0
  147.1196  132.2942  162.2667 H   0  0  0  0  0  0  0  0  0  0  0  0
  148.5380  133.3032  162.2709 H   0  0  0  0  0  0  0  0  0  0  0  0
  145.7230  134.3815  161.6433 H   0  0  0  0  0  0  0  0  0  0  0  0
  146.3899  134.3190  163.2555 H   0  0  0  0  0  0  0  0  0  0  0  0
  147.5376  136.1882  162.8651 H   0  0  0  0  0  0  0  0  0  0  0  0
  1  2  2  0  0  0  0
  2  3  1  0  0  0  0
  2 15  1  0  0  0  0
  3  4  1  0  0  0  0
  3 24  1  0  0  0  0
  4  9  1  0  0  0  0
  4  5  2  0  0  0  0
  5  6  1  0  0  0  0
  5 25  1  0  0  0  0
  6  7  2  0  0  0  0
  6 26  1  0  0  0  0
  7  8  1  0  0  0  0
  7 27  1  0  0  0  0
  8  9  2  0  0  0  0
  9 10  1  0  0  0  0
 10 14  1  0  0  0  0
 10 11  1  0  0  0  0
 11 12  1  0  0  0  0
 11 28  1  0  0  0  0
 11 29  1  0  0  0  0
 12 13  1  0  0  0  0
 12 30  1  0  0  0  0
 12 31  1  0  0  0  0
 13 14  1  0  0  0  0
 13 32  1  0  0  0  0
 13 33  1  0  0  0  0
 14 34  1  0  0  0  0
 14 35  1  0  0  0  0
 15 16  1  0  0  0  0
 15 36  1  0  0  0  0
 16 22  1  0  0  0  0
 16 17  1  0  0  0  0
 16 37  1  0  0  0  0
 17 18  1  0  0  0  0
 17 38  1  0  0  0  0
 17 39  1  0  0  0  0
 18 19  1  0  0  0  0
 18 40  1  0  0  0  0
 18 41  1  0  0  0  0
 19 20  1  0  0  0  0
 19 42  1  0  0  0  0
 19 43  1  0  0  0  0
 20 21  1  0  0  0  0
 20 44  1  0  0  0  0
 20 45  1  0  0  0  0
 21 22  1  0  0  0  0
 21 46  1  0  0  0  0
 22 23  2  0  0  0  0
M  END
> <s_m_source_file>
AV-unprocessed.smi

> <i_m_source_file_index>
1604

> <i_lp_mmshare_version>
43012

> <i_f3d_flags>
0

> <s_epik_input>
Tz1DMVtOSF1bQ0gyXVtDSDJdW0NIMl1bQ0gyXVtDQEhdMVtOSF1DKD1PKVtOSF1jMltjSF1bY0hdW2NIXW5jMk4zW0NIMl1bQ0gyXVtDSDJdW0NIMl0z

> <s_epik_cmdline>
J2VwaWtfcHl0aG9uJywgJy1waCcsICc3LjAnLCAnLXRuJywgJzgnLCAnLW1hJywgJzIwMCcsICctbWV0YWxfYmluZGluZycsICctaW1hZScsICc8aW5maWxlLm1hZT4nLCAnLW9tYWUnLCAnPG91dGZpbGUubWFlPic=

> <r_lp_tautomer_probability>
1

> <r_epik_Ionization_Penalty>
0.0837267

> <r_epik_Ionization_Penalty_Charging>
0

> <r_epik_Ionization_Penalty_Neutral>
0.0837267

> <r_epik_State_Penalty>
0.0738331

> <r_epik_Charging_Adjusted_Penalty>
0.0738331

> <i_epik_Tot_Q>
0

> <i_epik_Tot_abs_Q>
0

> <r_epik_Metal_State_Penalty>
0.0646802

> <b_epik_Metal_Only>
0

> <s_lp_Force_Field>
OPLS_2005

> <r_lp_Energy>
39.7297

> <b_lp_Chiralities_Consistent>
1

> <s_lp_Variant>
AV-unprocessed.smi:1604-2

> <Gold.Version>
5.8.1

> <Gold.Id.Protein>
6NUR|6NUR_protein|mol2

> <Gold.PLP.Fitness>
40.7972

> <Gold.PLP.PLP>
-31.8659

> <Gold.PLP.part.hbond>
-3.7358

> <Gold.PLP.part.metal>
0.0000

> <Gold.PLP.part.buried>
-2.1801

> <Gold.PLP.part.nonpolar>
-25.4748

> <Gold.PLP.part.repulsive>
0.2436

> <Gold.PLP.ligand.clash>
0.0000

> <Gold.PLP.ligand.torsion>
0.2732

> <Gold.PLP.Chemscore.Hbond>
3.1084

> <Gold.PLP.Chemscore.CHOScore>
0.0000

> <Gold.PLP.Chemscore.Metal>
0.0000

> <Gold.Chemscore.Hbonds>
donor molecule, donor type, donor heavy atom, donor atom, acceptor molecule, acceptor atom, score
      P1  H  6896  6907       L1     1  1.00
      P1  H  6931  6943       L1    23  0.88
      P1  H  6934  6947       L1    23  0.40
      P1  H  7989  7998       L1     8  0.85

> <Gold.PLP.Chemscore.Internal.Correction>
0.1525

> <Gold.Rescore>
     Score         DG    S(hbond)    S(metal)    S(lipo)     H(rot)  DE(clash)    DE(int)     intcor
     17.71     -21.56       3.19        0.00      73.79       1.25       0.67       3.19       ----

> <Gold.Chemscore.Fitness>
17.7079

> <Gold.Chemscore.DG>
-21.5617

> <Gold.Chemscore.ZeroCoef>
-5.4800

> <Gold.Chemscore.Hbond>
3.1850

> <Gold.Chemscore.Metal>
0.0000

> <Gold.Chemscore.Lipo>
73.7908

> <Gold.Chemscore.Internal_Hbond>
0.0000

> <Gold.Chemscore.DEClash>
0.6685

> <Gold.Chemscore.DEInternal>
3.1853

> <Gold.Chemscore.Rot>
1.2461

> <Gold.Chemscore.Internal.Correction>
   9.000000E+99

> <Gold.Chemscore.Hbonds>
donor molecule, donor type, donor heavy atom, donor atom, acceptor molecule, acceptor atom, score
      P1  H  6896  6907       L1     1  0.99
      P1  H  6931  6943       L1    23  0.84
      P1  H  6934  6947       L1    23  0.36
      P1  H  7989  7998       L1     8  0.15

> <Gold.Chemscore.Hbond.Weighted>
-10.6380

> <Gold.Chemscore.Metal.Weighted>
-0.0000

> <Gold.Chemscore.Lipo.Weighted>
-8.6335

> <Gold.Chemscore.Internal_Hbond.Weighted>
0.0000

> <Gold.Chemscore.DEClash.Weighted>
0.6685

> <Gold.Chemscore.DEInternal.Weighted>
3.1853

> <Gold.Chemscore.Rot.Weighted>
3.1899

> <Gold.Chemscore.Internal.Correction.Weighted>
   9.000000E+99

> <Gold.Protein.RotatedTorsions>
[ 6907 6896 6895 6894 ] final  -53.41 input  -60.11 | X-H torsion
[ 7974 7965 7964 7962 ] final  -23.45 input  175.53 | X-H torsion
[ 8008 7997 7996 7995 ] final -105.99 input   59.86 | X-H torsion
[ 10167 10162 10161 10158 ] final   39.70 input  -65.29 | X-H torsion
[ 10718 10713 10712 10709 ] final -163.77 input   66.30 | X-H torsion
[ 10763 10752 10751 10750 ] final  -29.63 input  -60.55 | X-H torsion
[ 11005 11000 10999 10996 ] final  -43.05 input  -57.11 | X-H torsion

> <Gold.Protein.ActiveResidues>
 VAL166  LYS551  ARG553  GLY616  TRP617  ASP618  TYR619  PRO620  LYS621  CYS622 
 ASP623  PHE694  ASN695  SER759  ASP760  ASP761  ALA762  ILE779  LEU786  VAL792 
 PHE793  MET794  SER795  GLU796  ALA797  LYS798  CYS799  TRP800  GLU811  SER814 

> <Gold.Protein.RotatedAtoms>
  150.8429  134.7728  159.6946 H   0  0  0  0  0  0  0  0  0  0  0  0  # atno 6907 bound_to 6896
  152.4513  134.5385  159.9842 H   0  0  0  0  0  0  0  0  0  0  0  0  # atno 6908 bound_to 6896
  151.5521  133.3378  159.2991 H   0  0  0  0  0  0  0  0  0  0  0  0  # atno 6909 bound_to 6896
  146.1615  140.4617  142.8569 H   0  0  0  0  0  0  0  0  0  0  0  0  # atno 7974 bound_to 7965
  154.9080  140.0411  157.1930 H   0  0  0  0  0  0  0  0  0  0  0  0  # atno 8008 bound_to 7997
  154.8377  140.2909  155.5659 H   0  0  0  0  0  0  0  0  0  0  0  0  # atno 8009 bound_to 7997
  156.2990  140.2489  156.3314 H   0  0  0  0  0  0  0  0  0  0  0  0  # atno 8010 bound_to 7997
  140.3814  144.1974  150.6130 H   0  0  0  0  0  0  0  0  0  0  0  0  # atno 10167 bound_to 10162
  156.6294  130.8923  151.2974 H   0  0  0  0  0  0  0  0  0  0  0  0  # atno 10718 bound_to 10713
  153.7677  135.6914  153.4912 H   0  0  0  0  0  0  0  0  0  0  0  0  # atno 10763 bound_to 10752
  153.1895  135.4476  155.0130 H   0  0  0  0  0  0  0  0  0  0  0  0  # atno 10764 bound_to 10752
  154.8129  135.3386  154.7188 H   0  0  0  0  0  0  0  0  0  0  0  0  # atno 10765 bound_to 10752
  141.0358  133.6801  156.2679 H   0  0  0  0  0  0  0  0  0  0  0  0  # atno 11005 bound_to 11000
  144.8034  140.6255  143.6463 LP  0  0  0  0  0  0  0  0  0  0  0  0  # atno 17320 bound_to 7965
  145.4575  139.1516  143.3884 LP  0  0  0  0  0  0  0  0  0  0  0  0  # atno 17321 bound_to 7965
  140.4933  143.2340  151.8786 LP  0  0  0  0  0  0  0  0  0  0  0  0  # atno 17342 bound_to 10162
  139.4795  144.5141  151.8892 LP  0  0  0  0  0  0  0  0  0  0  0  0  # atno 17343 bound_to 10162
  157.7204  130.9551  150.1417 LP  0  0  0  0  0  0  0  0  0  0  0  0  # atno 17370 bound_to 10713
  156.2247  130.3677  149.8515 LP  0  0  0  0  0  0  0  0  0  0  0  0  # atno 17371 bound_to 10713
  140.6325  134.5249  157.5561 LP  0  0  0  0  0  0  0  0  0  0  0  0  # atno 17394 bound_to 11000
  139.9239  134.8094  156.1126 LP  0  0  0  0  0  0  0  0  0  0  0  0  # atno 17395 bound_to 11000

$$$$
