AV-unprocessed.smi:72|AV-procd|sdf|729|dock9
  -GOLD-   2262017 53D 1   1.00000     0.00000
 Structure written by MMmdl.
 28 29  0  0  0  0  0  0  0  0  2 V2000
  152.6872  140.9272  159.1404 N   0  0  0  0  0  0  0  0  0  0  0  0
  152.0451  140.9355  158.0554 C   0  0  0  0  0  0  0  0  0  0  0  0
  150.9267  141.8363  157.8834 N   0  0  0  0  0  0  0  0  0  0  0  0
  150.2755  141.7866  156.7621 C   0  0  0  0  0  0  0  0  0  0  0  0
  150.6309  140.8462  155.7040 N   0  0  0  0  0  0  0  0  0  0  0  0
  149.8777  140.7729  154.3833 C   0  0  2  0  0  0  0  0  0  0  0  0
  148.9237  141.7950  154.3179 O   0  0  0  0  0  0  0  0  0  0  0  0
  147.6441  141.2868  154.6847 C   0  0  1  0  0  0  0  0  0  0  0  0
  146.5159  142.2286  154.2289 C   0  0  0  0  0  0  0  0  0  0  0  0
  145.2643  141.7221  154.6419 O   0  0  0  0  0  0  0  0  0  0  0  0
  147.6587  139.9009  154.0331 C   0  0  1  0  0  0  0  0  0  0  0  0
  147.3325  139.9954  152.6554 O   0  0  0  0  0  0  0  0  0  0  0  0
  149.0983  139.4438  154.2673 C   0  0  1  0  0  0  0  0  0  0  0  0
  149.5739  138.5999  153.2350 O   0  0  0  0  0  0  0  0  0  0  0  0
  151.7656  140.0092  155.8852 C   0  0  0  0  0  0  0  0  0  0  0  0
  152.0866  139.2598  154.9625 O   0  0  0  0  0  0  0  0  0  0  0  0
  152.4474  140.0706  157.0627 N   0  5  0  0  0  0  0  0  0  0  0  0
  150.6339  140.9281  153.6116 H   0  0  0  0  0  0  0  0  0  0  0  0
  147.6013  141.1512  155.7672 H   0  0  0  0  0  0  0  0  0  0  0  0
  146.9440  139.2253  154.5042 H   0  0  0  0  0  0  0  0  0  0  0  0
  149.1515  138.9091  155.2171 H   0  0  0  0  0  0  0  0  0  0  0  0
  152.3273  141.5896  159.8118 H   0  0  0  0  0  0  0  0  0  0  0  0
  149.4317  142.4437  156.5526 H   0  0  0  0  0  0  0  0  0  0  0  0
  146.6598  143.2385  154.6141 H   0  0  0  0  0  0  0  0  0  0  0  0
  146.4982  142.2935  153.1406 H   0  0  0  0  0  0  0  0  0  0  0  0
  144.7704  141.4804  153.8735 H   0  0  0  0  0  0  0  0  0  0  0  0
  148.1339  139.9267  152.1587 H   0  0  0  0  0  0  0  0  0  0  0  0
  149.4329  139.0385  152.4088 H   0  0  0  0  0  0  0  0  0  0  0  0
  1  2  2  0  0  0  0
  1 22  1  0  0  0  0
  2 17  1  0  0  0  0
  2  3  1  0  0  0  0
  3  4  2  0  0  0  0
  4  5  1  0  0  0  0
  4 23  1  0  0  0  0
  5  6  1  0  0  0  0
  5 15  1  0  0  0  0
  6 18  1  0  0  0  0
  6 13  1  0  0  0  0
  6  7  1  0  0  0  0
  7  8  1  0  0  0  0
  8 19  1  0  0  0  0
  8  9  1  0  0  0  0
  8 11  1  0  0  0  0
  9 10  1  0  0  0  0
  9 24  1  0  0  0  0
  9 25  1  0  0  0  0
 10 26  1  0  0  0  0
 11 20  1  0  0  0  0
 11 12  1  0  0  0  0
 11 13  1  0  0  0  0
 12 27  1  0  0  0  0
 13 21  1  0  0  0  0
 13 14  1  0  0  0  0
 14 28  1  0  0  0  0
 15 16  2  0  0  0  0
 15 17  1  0  0  0  0
M  CHG  1  17  -1
M  END
> <s_m_source_file>
AV-unprocessed.smi

> <i_m_source_file_index>
72

> <i_lp_mmshare_version>
43012

> <i_f3d_flags>
0

> <s_epik_input>
W05IMl1jMW5bY0hdbihjKD1PKW4xKVtDQEBIXTJPW0NASF0oW0NIMl1bT0hdKVtDQEBIXShbT0hdKVtDQEhdMltPSF0=

> <s_epik_cmdline>
J2VwaWtfcHl0aG9uJywgJy1waCcsICc3LjAnLCAnLXRuJywgJzgnLCAnLW1hJywgJzIwMCcsICctbWV0YWxfYmluZGluZycsICctaW1hZScsICc8aW5maWxlLm1hZT4nLCAnLW9tYWUnLCAnPG91dGZpbGUubWFlPic=

> <r_lp_tautomer_probability>
7.17554e-07

> <r_epik_Ionization_Penalty>
12.8705

> <r_epik_Ionization_Penalty_Charging>
5.64144

> <r_epik_Ionization_Penalty_Neutral>
7.22905

> <r_epik_State_Penalty>
3.30104

> <r_epik_Charging_Adjusted_Penalty>
8.94249

> <i_epik_Tot_Q>
-1

> <i_epik_Tot_abs_Q>
1

> <r_epik_Metal_State_Penalty>
0.529074

> <b_epik_Metal_Only>
1

> <s_epik_Chemistry_Notes>
This compound contains an acetal/aminal-like group ( X-CH(R)-Y where X, Y are N, S, or O) that may be acid/base labile, releasing an aldehyde.

> <s_lp_Force_Field>
OPLS_2005

> <r_lp_Energy>
36.9813

> <b_lp_Chiralities_Consistent>
1

> <s_lp_Variant>
AV-unprocessed.smi:72-67

> <Gold.Version>
5.8.1

> <Gold.Id.Protein>
6NUR|6NUR_protein|mol2

> <Gold.PLP.Fitness>
48.1629

> <Gold.PLP.PLP>
-29.1179

> <Gold.PLP.part.hbond>
-6.8159

> <Gold.PLP.part.metal>
0.0000

> <Gold.PLP.part.buried>
-1.8321

> <Gold.PLP.part.nonpolar>
-20.3125

> <Gold.PLP.part.repulsive>
0.2486

> <Gold.PLP.ligand.clash>
0.0000

> <Gold.PLP.ligand.torsion>
0.1508

> <Gold.PLP.Chemscore.Hbond>
5.4413

> <Gold.PLP.Chemscore.CHOScore>
1.0000

> <Gold.PLP.Chemscore.Metal>
0.0000

> <Gold.Chemscore.Hbonds>
donor molecule, donor type, donor heavy atom, donor atom, acceptor molecule, acceptor atom, score
      L1  H    10    26       P1 10175  0.95
      L1  H    12    27       P1  7957  1.00
      L1  H    14    28       P1  7957  1.00
      P1  H  7989  7998       L1    16  0.29
      P1  H  7997  8009       L1    17  2.00
      P1  H  8011  8017       L1     7  0.10
      L1  C     4    23       P1  8028  1.00

> <Gold.PLP.Chemscore.Internal.Correction>
0.0226

> <Gold.Rescore>
     Score         DG    S(hbond)    S(metal)    S(lipo)     H(rot)  DE(clash)    DE(int)     intcor
      8.95     -10.26       3.80        0.00      20.91       4.04       1.07       0.24       ----

> <Gold.Chemscore.Fitness>
8.9527

> <Gold.Chemscore.DG>
-10.2608

> <Gold.Chemscore.ZeroCoef>
-5.4800

> <Gold.Chemscore.Hbond>
3.7955

> <Gold.Chemscore.Metal>
0.0000

> <Gold.Chemscore.Lipo>
20.9130

> <Gold.Chemscore.Internal_Hbond>
0.0000

> <Gold.Chemscore.DEClash>
1.0686

> <Gold.Chemscore.DEInternal>
0.2395

> <Gold.Chemscore.Rot>
4.0403

> <Gold.Chemscore.Internal.Correction>
   9.000000E+99

> <Gold.Chemscore.Hbonds>
donor molecule, donor type, donor heavy atom, donor atom, acceptor molecule, acceptor atom, score
      L1  H    10    26       P1 10175  0.21
      L1  H    12    27       P1  7957  1.00
      L1  H    14    28       P1  7957  0.91
      P1  H  7989  7998       L1    16  0.02
      P1  H  7997  8009       L1    17  0.57

> <Gold.Chemscore.Hbond.Weighted>
-12.6771

> <Gold.Chemscore.Metal.Weighted>
-0.0000

> <Gold.Chemscore.Lipo.Weighted>
-2.4468

> <Gold.Chemscore.Internal_Hbond.Weighted>
0.0000

> <Gold.Chemscore.DEClash.Weighted>
1.0686

> <Gold.Chemscore.DEInternal.Weighted>
0.2395

> <Gold.Chemscore.Rot.Weighted>
10.3431

> <Gold.Chemscore.Internal.Correction.Weighted>
   9.000000E+99

> <Gold.Protein.RotatedTorsions>
[ 6907 6896 6895 6894 ] final   16.03 input  -60.11 | X-H torsion
[ 7974 7965 7964 7962 ] final  -38.34 input  175.53 | X-H torsion
[ 8008 7997 7996 7995 ] final  179.87 input   59.86 | X-H torsion
[ 10167 10162 10161 10158 ] final  -85.61 input  -65.29 | X-H torsion
[ 10718 10713 10712 10709 ] final  114.55 input   66.30 | X-H torsion
[ 10763 10752 10751 10750 ] final   64.52 input  -60.55 | X-H torsion
[ 11005 11000 10999 10996 ] final  123.48 input  -57.11 | X-H torsion

> <Gold.Protein.ActiveResidues>
 VAL166  LYS551  ARG553  GLY616  TRP617  ASP618  TYR619  PRO620  LYS621  CYS622 
 ASP623  PHE694  ASN695  SER759  ASP760  ASP761  ALA762  ILE779  LEU786  VAL792 
 PHE793  MET794  SER795  GLU796  ALA797  LYS798  CYS799  TRP800  GLU811  SER814 

> <Gold.Protein.RotatedAtoms>
  151.8275  135.0632  160.0432 H   0  0  0  0  0  0  0  0  0  0  0  0  # atno 6907 bound_to 6896
  152.2905  133.5552  159.5563 H   0  0  0  0  0  0  0  0  0  0  0  0  # atno 6908 bound_to 6896
  150.7228  134.0351  159.3789 H   0  0  0  0  0  0  0  0  0  0  0  0  # atno 6909 bound_to 6896
  146.0495  140.6501  142.9049 H   0  0  0  0  0  0  0  0  0  0  0  0  # atno 7974 bound_to 7965
  156.0385  140.1298  157.0182 H   0  0  0  0  0  0  0  0  0  0  0  0  # atno 8008 bound_to 7997
  154.4380  140.1035  156.6272 H   0  0  0  0  0  0  0  0  0  0  0  0  # atno 8009 bound_to 7997
  155.5702  140.3466  155.4515 H   0  0  0  0  0  0  0  0  0  0  0  0  # atno 8010 bound_to 7997
  140.4021  143.2658  151.9129 H   0  0  0  0  0  0  0  0  0  0  0  0  # atno 10167 bound_to 10162
  157.6275  131.1000  150.7201 H   0  0  0  0  0  0  0  0  0  0  0  0  # atno 10718 bound_to 10713
  153.0059  135.5390  154.6522 H   0  0  0  0  0  0  0  0  0  0  0  0  # atno 10763 bound_to 10752
  154.5751  135.2845  155.0790 H   0  0  0  0  0  0  0  0  0  0  0  0  # atno 10764 bound_to 10752
  154.1941  135.6495  153.5121 H   0  0  0  0  0  0  0  0  0  0  0  0  # atno 10765 bound_to 10752
  139.9314  134.9641  156.8266 H   0  0  0  0  0  0  0  0  0  0  0  0  # atno 11005 bound_to 11000
  144.7115  140.4055  143.7077 LP  0  0  0  0  0  0  0  0  0  0  0  0  # atno 17320 bound_to 7965
  145.6749  139.1606  143.2733 LP  0  0  0  0  0  0  0  0  0  0  0  0  # atno 17321 bound_to 7965
  139.4784  144.5623  151.8220 LP  0  0  0  0  0  0  0  0  0  0  0  0  # atno 17342 bound_to 10162
  140.4729  144.1561  150.5920 LP  0  0  0  0  0  0  0  0  0  0  0  0  # atno 17343 bound_to 10162
  156.7547  130.4779  149.5449 LP  0  0  0  0  0  0  0  0  0  0  0  0  # atno 17370 bound_to 10713
  156.1456  130.6275  151.0526 LP  0  0  0  0  0  0  0  0  0  0  0  0  # atno 17371 bound_to 10713
  140.6191  134.0011  155.7610 LP  0  0  0  0  0  0  0  0  0  0  0  0  # atno 17394 bound_to 11000
  141.0905  133.9924  157.3244 LP  0  0  0  0  0  0  0  0  0  0  0  0  # atno 17395 bound_to 11000

$$$$
