AV-unprocessed.smi:145|AV-procd|sdf|1198|dock9
  -GOLD-   2262018353D 1   1.00000     0.00000
 Structure written by MMmdl.
 40 42  0  0  0  0  0  0  0  0  1 V2000
  154.7827  138.4501  158.2221 O   0  0  0  0  0  0  0  0  0  0  0  0
  153.5746  138.5894  158.0252 C   0  0  0  0  0  0  0  0  0  0  0  0
  152.8691  137.8015  156.9096 C   0  0  0  0  0  0  0  0  0  0  0  0
  151.4370  138.1410  156.7590 N   0  0  0  0  0  0  0  0  0  0  0  0
  150.5111  137.6292  157.7017 C   0  0  0  0  0  0  0  0  0  0  0  0
  150.8800  136.9202  158.6389 O   0  0  0  0  0  0  0  0  0  0  0  0
  149.1170  137.9947  157.4775 C   0  0  0  0  0  0  0  0  0  0  0  0
  148.1715  137.5660  158.3309 F   0  0  0  0  0  0  0  0  0  0  0  0
  148.7589  138.7596  156.4256 C   0  0  0  0  0  0  0  0  0  0  0  0
  149.6718  139.2374  155.5021 N   0  0  0  0  0  0  0  0  0  0  0  0
  149.2538  140.0899  154.3223 C   0  0  1  0  0  0  0  0  0  0  0  0
  147.8968  139.6181  153.7654 C   0  0  0  0  0  0  0  0  0  0  0  0
  147.0888  140.8995  153.7204 C   0  0  0  0  0  0  0  0  0  0  0  0
  147.7011  141.6977  154.8614 C   0  0  0  0  0  0  0  0  0  0  0  0
  149.0887  141.4187  154.7294 O   0  0  0  0  0  0  0  0  0  0  0  0
  151.0425  138.9378  155.6580 C   0  0  0  0  0  0  0  0  0  0  0  0
  151.8724  139.3562  154.8474 O   0  0  0  0  0  0  0  0  0  0  0  0
  152.7816  139.4224  158.7233 N   0  0  0  0  0  0  0  0  0  0  0  0
  153.1300  140.2745  159.8058 C   0  0  0  0  0  0  0  0  0  0  0  0
  154.0168  139.8944  160.8425 C   0  0  0  0  0  0  0  0  0  0  0  0
  154.2993  140.7860  161.8960 C   0  0  0  0  0  0  0  0  0  0  0  0
  153.6942  142.0564  161.9285 C   0  0  0  0  0  0  0  0  0  0  0  0
  152.7988  142.4333  160.9099 C   0  0  0  0  0  0  0  0  0  0  0  0
  151.8881  144.3149  160.9608 I   0  0  0  0  0  0  0  0  0  0  0  0
  152.5143  141.5426  159.8566 C   0  0  0  0  0  0  0  0  0  0  0  0
  153.4134  137.9655  155.9784 H   0  0  0  0  0  0  0  0  0  0  0  0
  152.9933  136.7342  157.1014 H   0  0  0  0  0  0  0  0  0  0  0  0
  147.7114  138.9964  156.3198 H   0  0  0  0  0  0  0  0  0  0  0  0
  150.0767  140.0292  153.6080 H   0  0  0  0  0  0  0  0  0  0  0  0
  148.0163  139.1497  152.7880 H   0  0  0  0  0  0  0  0  0  0  0  0
  147.4357  138.9020  154.4478 H   0  0  0  0  0  0  0  0  0  0  0  0
  147.2538  141.4148  152.7733 H   0  0  0  0  0  0  0  0  0  0  0  0
  146.0179  140.7346  153.8402 H   0  0  0  0  0  0  0  0  0  0  0  0
  147.4973  142.7661  154.7872 H   0  0  0  0  0  0  0  0  0  0  0  0
  147.3345  141.3420  155.8254 H   0  0  0  0  0  0  0  0  0  0  0  0
  151.8318  139.5087  158.3917 H   0  0  0  0  0  0  0  0  0  0  0  0
  154.4795  138.9195  160.8576 H   0  0  0  0  0  0  0  0  0  0  0  0
  154.9777  140.4917  162.6832 H   0  0  0  0  0  0  0  0  0  0  0  0
  153.9124  142.7377  162.7377 H   0  0  0  0  0  0  0  0  0  0  0  0
  151.8240  141.8410  159.0809 H   0  0  0  0  0  0  0  0  0  0  0  0
  1  2  2  0  0  0  0
  2  3  1  0  0  0  0
  2 18  1  0  0  0  0
  3  4  1  0  0  0  0
  3 26  1  0  0  0  0
  3 27  1  0  0  0  0
  4 16  1  0  0  0  0
  4  5  1  0  0  0  0
  5  6  2  0  0  0  0
  5  7  1  0  0  0  0
  7  8  1  0  0  0  0
  7  9  2  0  0  0  0
  9 10  1  0  0  0  0
  9 28  1  0  0  0  0
 10 11  1  0  0  0  0
 10 16  1  0  0  0  0
 11 15  1  0  0  0  0
 11 12  1  0  0  0  0
 11 29  1  0  0  0  0
 12 13  1  0  0  0  0
 12 30  1  0  0  0  0
 12 31  1  0  0  0  0
 13 14  1  0  0  0  0
 13 32  1  0  0  0  0
 13 33  1  0  0  0  0
 14 15  1  0  0  0  0
 14 34  1  0  0  0  0
 14 35  1  0  0  0  0
 16 17  2  0  0  0  0
 18 19  1  0  0  0  0
 18 36  1  0  0  0  0
 19 25  1  0  0  0  0
 19 20  2  0  0  0  0
 20 21  1  0  0  0  0
 20 37  1  0  0  0  0
 21 22  2  0  0  0  0
 21 38  1  0  0  0  0
 22 23  1  0  0  0  0
 22 39  1  0  0  0  0
 23 24  1  0  0  0  0
 23 25  2  0  0  0  0
 25 40  1  0  0  0  0
M  END
> <s_m_source_file>
AV-unprocessed.smi

> <i_m_source_file_index>
145

> <i_lp_mmshare_version>
43012

> <i_f3d_flags>
0

> <s_epik_input>
SWMoW2NIXTEpW2NIXVtjSF1bY0hdYzFbTkhdQyg9TylbQ0gyXW4yYyg9TyljKEYpW2NIXW4oYzI9TylbQ0BASF0zW0NIMl1bQ0gyXVtDSDJdTzM=

> <s_epik_cmdline>
J2VwaWtfcHl0aG9uJywgJy1waCcsICc3LjAnLCAnLXRuJywgJzgnLCAnLW1hJywgJzIwMCcsICctbWV0YWxfYmluZGluZycsICctaW1hZScsICc8aW5maWxlLm1hZT4nLCAnLW9tYWUnLCAnPG91dGZpbGUubWFlPic=

> <r_lp_tautomer_probability>
1

> <r_epik_Ionization_Penalty>
9.72367e-07

> <r_epik_Ionization_Penalty_Charging>
3.88729e-08

> <r_epik_Ionization_Penalty_Neutral>
9.33494e-07

> <r_epik_State_Penalty>
-0

> <r_epik_Charging_Adjusted_Penalty>
3.88729e-08

> <i_epik_Tot_Q>
0

> <i_epik_Tot_abs_Q>
0

> <r_epik_Metal_State_Penalty>
-0

> <b_epik_Metal_Only>
0

> <s_epik_Chemistry_Notes>
This compound contains an acetal/aminal-like group ( X-CH(R)-Y where X, Y are N, S, or O) that may be acid/base labile, releasing an aldehyde.

> <s_lp_Force_Field>
OPLS_2005

> <r_lp_Energy>
33.5039

> <b_lp_Chiralities_Consistent>
1

> <s_lp_Variant>
AV-unprocessed.smi:145-2

> <Gold.Version>
5.8.1

> <Gold.Id.Protein>
6NUR|6NUR_protein|mol2

> <Gold.PLP.Fitness>
44.0599

> <Gold.PLP.PLP>
-39.4207

> <Gold.PLP.part.hbond>
-2.6715

> <Gold.PLP.part.metal>
0.0000

> <Gold.PLP.part.buried>
-3.9097

> <Gold.PLP.part.nonpolar>
-33.0076

> <Gold.PLP.part.repulsive>
0.2815

> <Gold.PLP.ligand.clash>
0.0000

> <Gold.PLP.ligand.torsion>
1.1360

> <Gold.PLP.Chemscore.Hbond>
2.3000

> <Gold.PLP.Chemscore.CHOScore>
0.0000

> <Gold.PLP.Chemscore.Metal>
0.0000

> <Gold.Chemscore.Hbonds>
donor molecule, donor type, donor heavy atom, donor atom, acceptor molecule, acceptor atom, score
      P1  H  6896  6908       L1     6  0.54
      P1  H  7989  7998       L1    17  1.00
      P1  H  7997  8009       L1     1  0.77

> <Gold.PLP.Chemscore.Internal.Correction>
0.0114

> <Gold.Rescore>
     Score         DG    S(hbond)    S(metal)    S(lipo)     H(rot)  DE(clash)    DE(int)     intcor
     16.18     -18.17       1.82        0.00      92.89       1.66       0.89       1.09       ----

> <Gold.Chemscore.Fitness>
16.1832

> <Gold.Chemscore.DG>
-18.1682

> <Gold.Chemscore.ZeroCoef>
-5.4800

> <Gold.Chemscore.Hbond>
1.8189

> <Gold.Chemscore.Metal>
0.0000

> <Gold.Chemscore.Lipo>
92.8907

> <Gold.Chemscore.Internal_Hbond>
0.0000

> <Gold.Chemscore.DEClash>
0.8934

> <Gold.Chemscore.DEInternal>
1.0916

> <Gold.Chemscore.Rot>
1.6621

> <Gold.Chemscore.Internal.Correction>
   9.000000E+99

> <Gold.Chemscore.Hbonds>
donor molecule, donor type, donor heavy atom, donor atom, acceptor molecule, acceptor atom, score
      P1  H  6896  6908       L1     6  0.51
      P1  H  7989  7998       L1    17  0.88
      P1  H  7997  8009       L1     1  0.19

> <Gold.Chemscore.Hbond.Weighted>
-6.0750

> <Gold.Chemscore.Metal.Weighted>
-0.0000

> <Gold.Chemscore.Lipo.Weighted>
-10.8682

> <Gold.Chemscore.Internal_Hbond.Weighted>
0.0000

> <Gold.Chemscore.DEClash.Weighted>
0.8934

> <Gold.Chemscore.DEInternal.Weighted>
1.0916

> <Gold.Chemscore.Rot.Weighted>
4.2550

> <Gold.Chemscore.Internal.Correction.Weighted>
   9.000000E+99

> <Gold.Protein.RotatedTorsions>
[ 6907 6896 6895 6894 ] final -151.67 input  -60.11 | X-H torsion
[ 7974 7965 7964 7962 ] final -120.32 input  175.53 | X-H torsion
[ 8008 7997 7996 7995 ] final   99.97 input   59.86 | X-H torsion
[ 10167 10162 10161 10158 ] final  -29.35 input  -65.29 | X-H torsion
[ 10718 10713 10712 10709 ] final  -17.23 input   66.30 | X-H torsion
[ 10763 10752 10751 10750 ] final  -19.55 input  -60.55 | X-H torsion
[ 11005 11000 10999 10996 ] final -173.85 input  -57.11 | X-H torsion

> <Gold.Protein.ActiveResidues>
 VAL166  LYS551  ARG553  GLY616  TRP617  ASP618  TYR619  PRO620  LYS621  CYS622 
 ASP623  PHE694  ASN695  SER759  ASP760  ASP761  ALA762  ILE779  LEU786  VAL792 
 PHE793  MET794  SER795  GLU796  ALA797  LYS798  CYS799  TRP800  GLU811  SER814 

> <Gold.Protein.RotatedAtoms>
  151.2165  133.4526  159.2599 H   0  0  0  0  0  0  0  0  0  0  0  0  # atno 6907 bound_to 6896
  151.0926  134.9925  159.8420 H   0  0  0  0  0  0  0  0  0  0  0  0  # atno 6908 bound_to 6896
  152.5436  134.2098  159.8798 H   0  0  0  0  0  0  0  0  0  0  0  0  # atno 6909 bound_to 6896
  145.0527  140.8231  143.4199 H   0  0  0  0  0  0  0  0  0  0  0  0  # atno 7974 bound_to 7965
  156.1157  140.3220  155.8136 H   0  0  0  0  0  0  0  0  0  0  0  0  # atno 8008 bound_to 7997
  155.4593  140.0538  157.3010 H   0  0  0  0  0  0  0  0  0  0  0  0  # atno 8009 bound_to 7997
  154.4791  140.2045  155.9820 H   0  0  0  0  0  0  0  0  0  0  0  0  # atno 8010 bound_to 7997
  140.7261  143.3935  151.1388 H   0  0  0  0  0  0  0  0  0  0  0  0  # atno 10167 bound_to 10162
  156.5764  130.4763  149.6339 H   0  0  0  0  0  0  0  0  0  0  0  0  # atno 10718 bound_to 10713
  153.6066  135.6997  153.5363 H   0  0  0  0  0  0  0  0  0  0  0  0  # atno 10763 bound_to 10752
  153.3052  135.4117  155.1287 H   0  0  0  0  0  0  0  0  0  0  0  0  # atno 10764 bound_to 10752
  154.8572  135.3658  154.5603 H   0  0  0  0  0  0  0  0  0  0  0  0  # atno 10765 bound_to 10752
  140.4811  134.6074  157.4920 H   0  0  0  0  0  0  0  0  0  0  0  0  # atno 11005 bound_to 11000
  145.1507  139.2516  143.5442 LP  0  0  0  0  0  0  0  0  0  0  0  0  # atno 17320 bound_to 7965
  146.3519  140.1209  142.8600 LP  0  0  0  0  0  0  0  0  0  0  0  0  # atno 17321 bound_to 7965
  139.7544  143.8730  152.3085 LP  0  0  0  0  0  0  0  0  0  0  0  0  # atno 17342 bound_to 10162
  139.8594  144.7125  150.9118 LP  0  0  0  0  0  0  0  0  0  0  0  0  # atno 17343 bound_to 10162
  156.2669  130.6995  151.1780 LP  0  0  0  0  0  0  0  0  0  0  0  0  # atno 17370 bound_to 10713
  157.7336  131.0589  150.5566 LP  0  0  0  0  0  0  0  0  0  0  0  0  # atno 17371 bound_to 10713
  139.9826  134.7113  155.9832 LP  0  0  0  0  0  0  0  0  0  0  0  0  # atno 17394 bound_to 11000
  141.1530  133.6546  156.4074 LP  0  0  0  0  0  0  0  0  0  0  0  0  # atno 17395 bound_to 11000

$$$$
